#------------------------------------------------------------------------------
#$Date: 2022-04-14 01:14:49 +0300 (Thu, 14 Apr 2022) $
#$Revision: 274513 $
#$URL: file:///home/coder/svn-repositories/cod/cif/1/56/67/1566792.cif $
#------------------------------------------------------------------------------
#
# This file is available in the Crystallography Open Database (COD),
# http://www.crystallography.net/
#
# All data on this site have been placed in the public domain by the
# contributors.
#
data_1566792
loop_
_publ_author_name
'Yan, Qiaolin'
'Duan, Meng'
'Chen, Cien'
'Deng, Zhiqin'
'Wu, Mandi'
'Yu, Peiyuan'
'He, Ming-Liang'
'Zhu, Guangyu'
'Houk, Kendall N.'
'Sun, Jianwei'
_publ_section_title
;
 Organocatalytic Discrimination of Non-Directing Aryl and Heteroaryl
 Groups: Enantioselective Synthesis of Bioactive Indole-Containing
 Triarylmethanes
;
_journal_name_full               'Chemical Science'
_journal_paper_doi               10.1039/D2SC00636G
_journal_year                    2022
_chemical_absolute_configuration ad
_chemical_formula_moiety         'C20 H17 N S'
_chemical_formula_sum            'C20 H17 N S'
_chemical_formula_weight         303.40
_chemical_name_systematic
R)-3-Methyl-2-(phenyl(thiophen-2-yl)methyl)-1H-indole
_space_group_crystal_system      triclinic
_space_group_IT_number           1
_space_group_name_Hall           'P 1'
_space_group_name_H-M_alt        'P 1'
_atom_sites_solution_hydrogens   geom
_atom_sites_solution_primary     dual
_audit_creation_date             2021-07-12
_audit_creation_method
;
Olex2 1.5-alpha
(compiled 2021.06.29 svn.r12e2184c for OlexSys, GUI svn.r6374)
;
_audit_update_record
;
2021-09-10 deposited with the CCDC.	2022-04-13 downloaded from the CCDC.
;
_cell_angle_alpha                103.438(2)
_cell_angle_beta                 103.111(2)
_cell_angle_gamma                102.977(2)
_cell_formula_units_Z            2
_cell_length_a                   8.3698(2)
_cell_length_b                   8.6024(2)
_cell_length_c                   11.6963(2)
_cell_measurement_reflns_used    10014
_cell_measurement_temperature    100.00(10)
_cell_measurement_theta_max      76.5550
_cell_measurement_theta_min      4.0640
_cell_volume                     762.79(3)
_computing_cell_refinement       'CrysAlisPro 1.171.40.69a (Rigaku OD, 2020)'
_computing_data_collection       'CrysAlisPro 1.171.40.69a (Rigaku OD, 2020)'
_computing_data_reduction        'CrysAlisPro 1.171.40.69a (Rigaku OD, 2020)'
_computing_molecular_graphics    'Olex2 1.5-alpha (Dolomanov et al., 2009)'
_computing_publication_material  'Olex2 1.5-alpha (Dolomanov et al., 2009)'
_computing_structure_refinement  'SHELXL 2014/7 (Sheldrick, 2015)'
_computing_structure_solution    'SHELXT 2014/4 (Sheldrick, 2014)'
_diffrn_ambient_environment      N~2~
_diffrn_ambient_temperature      100.00(10)
_diffrn_detector                 'CCD plate'
_diffrn_detector_area_resol_mean 5.1788
_diffrn_detector_type            Atlas
_diffrn_measured_fraction_theta_full 0.999
_diffrn_measured_fraction_theta_max 0.987
_diffrn_measurement_details
;
List of Runs (angles in degrees, time in seconds):

  # Type    Start    End  Width  t~exp~   \w     \q     \k     \f   Frames
#--------------------------------------------------------------------------
  1  \w     52.00  86.00   1.00    3.50    --   80.00  49.00   4.10   34
  2  \w    -70.00  34.00   1.00    2.00    --  -39.95  57.00   0.00  104
  3  \w   -115.00 -14.00   1.00    2.00    --  -39.95 -37.00-150.00  101
  4  \w      2.00  27.00   1.00    2.00    --   39.95  90.00 104.94   25
  5  \w      4.00  29.00   1.00    2.00    --   39.95  85.00  64.29   25
  6  \w     27.00  97.00   1.00    2.00    --   39.95-125.00 120.00   70
  7  \w     10.00  58.00   1.00    2.00    --   39.95  57.00   0.00   48
  8  \w     65.00 113.00   1.00    2.00    --   39.95  57.00   0.00   48
  9  \w     28.00  71.00   1.00    2.00    --   39.95-125.00 -90.00   43
 10  \w     13.00  40.00   1.00    2.00    --   44.00  79.00  -0.98   27
 11  \w     14.00  39.00   1.00    2.00    --   48.00  79.00-172.27   25
 12  \w     13.00  38.00   1.00    2.00    --   48.00  82.00-120.83   25
 13  \w     15.00  42.00   1.00    2.00    --   48.00  80.00 -52.13   27
 14  \w     74.00  99.00   1.00    2.00    --   56.00  71.00-134.02   25
 15  \w     24.00  55.00   1.00    2.00    --   56.00  71.00-134.02   31
 16  \w     25.00  52.00   1.00    2.00    --   56.00  69.00 127.18   27
 17  \w     28.00  53.00   1.00    2.00    --   60.00  73.00  26.71   25
 18  \w     84.00 130.00   1.00    2.00    --   60.00  73.00  26.71   46
 19  \w     91.00 125.00   1.00    2.00    --   60.00  73.00 -72.79   34
 20  \w     31.00  57.00   1.00    2.00    --   60.00  73.00 -72.79   26
 21  \w     31.00  70.00   1.00    2.00    --   64.00  74.00 -26.60   39
 22  \w    116.00 141.00   1.00    2.00    --   64.00  74.00 -26.60   25
 23  \w     35.00  68.00   1.00    2.00    --   68.00  72.00  54.53   33
 24  \w     42.00  74.00   1.00    2.00    --   68.00  74.00 164.99   32
 25  \w    106.00 133.00   1.00    2.00    --   68.00  74.00-135.83   27
 26  \w     35.00  76.00   1.00    2.00    --   68.00  74.00-135.83   41
 27  \w     39.00  79.00   1.00    2.00    --   72.00  73.00 152.06   40
 28  \w     44.00  86.00   1.00    2.00    --   76.00  69.00  91.60   42
 29  \w     44.00 138.00   1.00    2.00    --   76.00  69.00  46.67   94
 30  \w     53.00 102.00   1.00    3.50    --   84.00  62.00 130.28   49
 31  \w     71.00 102.00   1.00    3.50    --   96.00  44.00 -73.24   31
 32  \w    107.00 170.00   1.00    3.50    --   96.00  44.00 -73.24   63
 33  \w     39.00 108.00   1.00    3.50    --  113.00-111.00-120.00   69
 34  \w     81.00 109.00   1.00    3.50    --  113.00-111.00  30.00   28
 35  \w     39.00  77.00   1.00    3.50    --  113.00-111.00 120.00   38
 36  \w     83.00 173.00   1.00    3.50    --  113.00  61.00  60.00   90
 37  \w     84.00 157.00   1.00    3.50    --  113.00  61.00 -90.00   73
 38  \w    125.00 158.00   1.00    3.50    --  113.00  61.00  30.00   33
 39  \w     85.00 122.00   1.00    3.50    --  113.00  61.00 -30.00   37
 40  \w     84.00 111.00   1.00    3.50    --  113.00  61.00  30.00   27
 41  \w    130.00 165.00   1.00    3.50    --  113.00  61.00  90.00   35
 42  \w     83.00 117.00   1.00    3.50    --  113.00  61.00  90.00   34
 43  \w    124.00 160.00   1.00    3.50    --  113.00  61.00-150.00   36
 44  \w     83.00 109.00   1.00    3.50    --  113.00  61.00-150.00   26
 45  \w    105.00 169.00   1.00    3.50    --  113.00 111.00 -60.00   64
 46  \w     29.00 107.00   1.00    3.50    --  113.00 -94.00 150.00   78
 47  \w     41.00 142.00   1.00    3.50    --  113.00 -61.00 -90.00  101
 48  \w     83.00 178.00   1.00    3.50    --  113.00  61.00-120.00   95
 49  \w     29.00 107.00   1.00    3.50    --  113.00 -94.00 -90.00   78
 50  \w     84.00 151.00   1.00    3.50    --  113.00  61.00-180.00   67
 51  \w     81.00 108.00   1.00    3.50    --  113.00-111.00  90.00   27
 52  \w     83.00 172.00   1.00    3.50    --  113.00  61.00 120.00   89
 53  \w     91.00 117.00   1.00    3.50    --  113.00  45.00-180.00   26
 54  \w     91.00 116.00   1.00    3.50    --  113.00  45.00-120.00   25
 55  \w     83.00 165.00   1.00    3.50    --  113.00  61.00   0.00   82
 56  \w     38.00  78.00   1.00    3.50    --  113.00-111.00  90.00   40
 57  \w    129.00 156.00   1.00    3.50    --  113.00  61.00 -60.00   27
 58  \w     84.00 109.00   1.00    3.50    --  113.00-111.00 120.00   25
 59  \w     83.00 126.00   1.00    3.50    --  113.00  61.00 -60.00   43
 60  \w    127.00 173.00   1.00    3.50    --  113.00  61.00 150.00   46
 61  \w     83.00 110.00   1.00    3.50    --  113.00  61.00 150.00   27
;
_diffrn_measurement_device       'kappa diffractometer'
_diffrn_measurement_device_type  'SuperNova, Dual, Cu at home/near, Atlas'
_diffrn_measurement_method       '\w scans'
_diffrn_orient_matrix_type
'CrysAlisPro convention (1999,Acta A55,543-557)'
_diffrn_orient_matrix_UB_11      -0.1134879000
_diffrn_orient_matrix_UB_12      -0.1828669000
_diffrn_orient_matrix_UB_13      -0.0435390000
_diffrn_orient_matrix_UB_21      0.1609104000
_diffrn_orient_matrix_UB_22      -0.0601823000
_diffrn_orient_matrix_UB_23      0.0062299000
_diffrn_orient_matrix_UB_31      0.0170853000
_diffrn_orient_matrix_UB_32      0.0041516000
_diffrn_orient_matrix_UB_33      0.1347024000
_diffrn_radiation_monochromator  mirror
_diffrn_radiation_probe          x-ray
_diffrn_radiation_type           CuK\a
_diffrn_radiation_wavelength     1.54184
_diffrn_reflns_av_R_equivalents  0.0204
_diffrn_reflns_av_unetI/netI     0.0248
_diffrn_reflns_Laue_measured_fraction_full 0.999
_diffrn_reflns_Laue_measured_fraction_max 0.987
_diffrn_reflns_limit_h_max       10
_diffrn_reflns_limit_h_min       -10
_diffrn_reflns_limit_k_max       10
_diffrn_reflns_limit_k_min       -10
_diffrn_reflns_limit_l_max       14
_diffrn_reflns_limit_l_min       -11
_diffrn_reflns_number            12888
_diffrn_reflns_point_group_measured_fraction_full 0.945
_diffrn_reflns_point_group_measured_fraction_max 0.912
_diffrn_reflns_theta_full        67.684
_diffrn_reflns_theta_max         76.828
_diffrn_reflns_theta_min         4.066
_diffrn_source                   'micro-focus sealed X-ray tube'
_diffrn_source_current           0.80
_diffrn_source_power             0.040
_diffrn_source_target            Cu
_diffrn_source_type              'SuperNova (Cu) X-ray Source'
_diffrn_source_voltage           50
_exptl_absorpt_coefficient_mu    1.823
_exptl_absorpt_correction_T_max  1.00000
_exptl_absorpt_correction_T_min  0.91725
_exptl_absorpt_correction_type   multi-scan
_exptl_absorpt_process_details
;
CrysAlisPro 1.171.40.69a (Rigaku Oxford Diffraction, 2020)
Empirical absorption correction using spherical harmonics,
 implemented in SCALE3 ABSPACK scaling algorithm.
;
_exptl_crystal_colour            colourless
_exptl_crystal_colour_primary    colourless
_exptl_crystal_density_diffrn    1.321
_exptl_crystal_description       block
_exptl_crystal_F_000             320
_exptl_crystal_recrystallization_method
'Re-crystallisation from solvent: hexane and ethyl acetate'
_exptl_crystal_size_max          0.16
_exptl_crystal_size_mid          0.15
_exptl_crystal_size_min          0.13
_refine_diff_density_max         0.713
_refine_diff_density_min         -0.409
_refine_diff_density_rms         0.051
_refine_ls_abs_structure_details
;
 Flack x determined using 2567 quotients [(I+)-(I-)]/[(I+)+(I-)]
 (Parsons, Flack and Wagner, Acta Cryst. B69 (2013) 249-259).
;
_refine_ls_abs_structure_Flack   0.011(6)
_refine_ls_extinction_method     none
_refine_ls_goodness_of_fit_ref   1.056
_refine_ls_hydrogen_treatment    constr
_refine_ls_matrix_type           full
_refine_ls_number_parameters     435
_refine_ls_number_reflns         5874
_refine_ls_number_restraints     183
_refine_ls_restrained_S_all      1.157
_refine_ls_R_factor_all          0.0389
_refine_ls_R_factor_gt           0.0380
_refine_ls_shift/su_max          0.000
_refine_ls_shift/su_mean         0.000
_refine_ls_structure_factor_coef Fsqd
_refine_ls_weighting_details
'w=1/[\s^2^(Fo^2^)+(0.0580P)^2^+0.4374P] where P=(Fo^2^+2Fc^2^)/3'
_refine_ls_weighting_scheme      calc
_refine_ls_wR_factor_gt          0.1012
_refine_ls_wR_factor_ref         0.1022
_reflns_Friedel_coverage         0.848
_reflns_Friedel_fraction_full    0.891
_reflns_Friedel_fraction_max     0.838
_reflns_number_gt                5766
_reflns_number_total             5874
_reflns_threshold_expression     'I > 2\s(I)'
_cod_data_source_file            d2sc00636g2.cif
_cod_data_source_block           qyan1cult
_cod_database_code               1566792
_shelx_shelxl_version_number     2014/7
_chemical_oxdiff_formula         'C20 H17 N O S'
_shelx_space_group_comment
;
The symmetry employed for this shelxl refinement is uniquely defined
by the following loop, which should always be used as a source of
symmetry information in preference to the above space-group names.
They are only intended as comments.
;
_shelx_estimated_absorpt_t_max   0.798
_shelx_estimated_absorpt_t_min   0.759
_reflns_odcompleteness_completeness 99.83
_reflns_odcompleteness_iscentric 1
_reflns_odcompleteness_theta     71.98
_olex2_refinement_description
;
1. Fixed Uiso
 At 1.2 times of:
  All C(H) groups, All C(H,H) groups, All N(H) groups
 At 1.5 times of:
  All C(H,H,H) groups
2. Restrained distances
 C2A-C1A = C2A-C3A = C2C-C1A = C4A-C2C
 1.4 with sigma of 0.02
 S1-C1 \\sim S1-C4 \\sim S1B-C1 \\sim S1B-C3
 with sigma of 0.02
 S1A-C1A \\sim S1A-C4A \\sim S1C-C1A \\sim S1C-C3A
 with sigma of 0.02
 C4A-C2C \\sim C2C-C1A \\sim C2A-C1A \\sim C3A-C2A
 with sigma of 0.02
 C4-C2B \\sim C2B-C1 \\sim C2-C1 \\sim C3-C2
 with sigma of 0.02
3. Restrained planarity
 S1A, C1A, C2A, C3A, C4A
 with sigma of 0.02
 S1C, C1A, C2C, C3A, C4A
 with sigma of 0.02
 S1B, C1, C2B, C3, C4
 with sigma of 0.02
 S1, C1, C2, C3, C4
 with sigma of 0.02
4. Uiso/Uaniso restraints and constraints
Uanis(C2A) \\sim Ueq, Uanis(C2C) \\sim Ueq, Uanis(C3A) \\sim Ueq, Uanis(C4A)
\\sim Ueq, Uanis(S1A) \\sim Ueq, Uanis(S1C) \\sim Ueq: with sigma of 0.002 and
sigma for terminal atoms of 0.003
Uanis(C2B) \\sim Ueq: with sigma of 0.002 and sigma for terminal atoms of 0.005
5. Rigid body (RIGU) restrains
 S1A, C1A, C2A, C3A, C4A
 with sigma for 1-2 distances of 0.001 and sigma for 1-3 distances of 0.001
 S1C, C1A, C2C, C3A, C4A
 with sigma for 1-2 distances of 0.001 and sigma for 1-3 distances of 0.001
 S1B, C1, C2B, C3, C4
 with sigma for 1-2 distances of 0.001 and sigma for 1-3 distances of 0.001
 S1, C1, C2, C3, C4
 with sigma for 1-2 distances of 0.001 and sigma for 1-3 distances of 0.001
6. Others
 Fixed Sof: S1(0.9) S1B(0.1) C2(0.9) H2(0.9) C2B(0.1) H2B(0.1) H3A(0.9)
 H3B(0.1) H4A(0.9) H4B(0.1) S1A(0.5) S1C(0.5) C2A(0.5) H2A(0.5) C2C(0.5)
 H2C(0.5) H3AA(0.5) H3AB(0.5) H4AA(0.5) H4AB(0.5)
7.a Ternary CH refined with riding coordinates:
 C11(H11), C11A(H11A)
7.b Aromatic/amide H refined with riding coordinates:
 N1(H1), C2(H2), C2B(H2B), C3(H3A), C3(H3B), C4(H4A), C4(H4B), C6(H6), C7(H7),
 C8(H8), C9(H9), C10(H10), C15(H15), C16(H16), C17(H17), C18(H18), N1A(H1A),
 C2A(H2A), C2C(H2C), C3A(H3AA), C3A(H3AB), C4A(H4AA), C4A(H4AB), C6A(H6A),
 C7A(H7A), C8A(H8A), C9A(H9A), C10A(H10A), C15A(H15A), C16A(H16A), C17A(H17A),
 C18A(H18A)
7.c Idealised Me refined as rotating group:
 C20(H20A,H20B,H20C), C20A(H20D,H20E,H20F)
;
_shelx_res_file
;
    qyan1cult.res created by SHELXL-2014/7

TITL qyan1cult_a.res in P1
REM Old TITL qyan1cult_a.res in P1
REM SHELXT solution in P1
REM R1 0.085, Rweak 0.037, Alpha 0.000, Orientation as input
REM Flack x = -0.714 ( 0.169 ) from Parsons' quotients
REM Formula found by SHELXT: C39 O2 S N2
CELL 1.54184 8.3698 8.6024 11.6963 103.438 103.111 102.977
ZERR 2 0.0002 0.0002 0.0002 0.002 0.002 0.002
LATT -1
SFAC C H N S
UNIT 40 34 2 2
SADI S1 C1 S1 C4 S1B C1 S1B C3
SADI S1A C1A S1A C4A S1C C1A S1C C3A
RIGU 0.001 0.001 S1A C1A C2A C3A C4A
FLAT 0.02 S1A C1A C2A C3A C4A
SADI C4A C2C C2C C1A C2A C1A C3A C2A
RIGU 0.001 0.001 S1C C1A C2C > C4A
FLAT 0.02 S1C C1A C2C C3A C4A
ISOR 0.002 0.003 C2A C2C C3A C4A S1A S1C
DFIX 1.4 C2A C1A C2A C3A C2C C1A C4A C2C
RIGU 0.001 0.001 S1B C1 C2B > C4
SADI C4 C2B C2B C1 C2 C1 C3 C2
FLAT 0.02 S1B C1 C2B C3 C4
ISOR 0.002 0.005 C2B
RIGU 0.001 0.001 S1 C1 C2 C3 C4
FLAT 0.02 S1 C1 C2 C3 C4

L.S. 10
PLAN  8
SIZE 0.13 0.15 0.16
TEMP -173.15(10)
CONF
BOND $H
list 4
MORE -1
fmap 2
acta
OMIT 2 0 -2
OMIT 1 2 -1
REM <olex2.extras>
REM <HklSrc "%.\\qyan1CuLT.hkl">
REM </olex2.extras>

WGHT    0.058000    0.437400
FVAR       1.29878
PART 1
S1    4    0.406602    0.463204    0.621306    10.90000    0.02347    0.02611 =
         0.01963    0.00575    0.00525    0.01250
PART 2
S1B   4    0.498325    0.267603    0.425176    10.10000    0.02942    0.02586 =
         0.01607    0.00742    0.00422    0.01651
PART 0
N1    3    0.730513    0.535611    0.871683    11.00000    0.01616    0.01437 =
         0.01644    0.00437    0.00714    0.00346
AFIX  43
H1    2    0.641910    0.480143    0.889142    11.00000   -1.20000
AFIX   0
C1    1    0.535498    0.348454    0.575766    11.00000    0.01722    0.01502 =
         0.01773    0.00663    0.00441    0.00476
PART 1
C2    1    0.486406    0.281560    0.446262    10.90000    0.02979    0.02733 =
         0.02037    0.00806    0.00389    0.01947
AFIX  43
H2    2    0.541410    0.214313    0.402056    10.90000   -1.20000
AFIX   0
PART 2
C2B   1    0.407916    0.427965    0.585224    10.10000    0.02174    0.02133 =
         0.02214    0.00678    0.00495    0.00847
AFIX  43
H2B   2    0.401529    0.482993    0.663771    10.10000   -1.20000
AFIX   0
PART 0
C3    1    0.340107    0.330561    0.390958    11.00000    0.03102    0.02633 =
         0.02093    0.00633    0.00137    0.01157
PART 1
AFIX  43
H3A   2    0.287271    0.299279    0.304766    10.90000   -1.20000
AFIX  43
PART 2
H3B   2    0.277283    0.300982    0.306606    10.10000   -1.20000
AFIX   0
PART 0
C4    1    0.286680    0.425727    0.475230    11.00000    0.02136    0.02139 =
         0.02496    0.01027    0.00476    0.00776
PART 1
AFIX  43
H4A   2    0.191435    0.467214    0.454345    10.90000   -1.20000
AFIX  43
PART 2
H4B   2    0.196344    0.475954    0.464915    10.10000   -1.20000
AFIX   0
PART 0
C5    1    0.617403    0.176383    0.717998    11.00000    0.01613    0.01255 =
         0.01598    0.00354    0.00719    0.00563
C6    1    0.463690    0.050690    0.654605    11.00000    0.01830    0.01594 =
         0.01808    0.00266    0.00353    0.00486
AFIX  43
H6    2    0.391545    0.058274    0.581902    11.00000   -1.20000
AFIX   0
C7    1    0.415280   -0.085265    0.696806    11.00000    0.02290    0.01850 =
         0.02687    0.00465    0.00840    0.00179
AFIX  43
H7    2    0.310322   -0.170247    0.652837    11.00000   -1.20000
AFIX   0
C8    1    0.519536   -0.097897    0.803148    11.00000    0.03378    0.01430 =
         0.02724    0.00983    0.01357    0.00892
AFIX  43
H8    2    0.485123   -0.190286    0.832584    11.00000   -1.20000
AFIX   0
C9    1    0.674269    0.025218    0.866159    11.00000    0.02590    0.02025 =
         0.01813    0.00782    0.00688    0.00982
AFIX  43
H9    2    0.747087    0.016402    0.938071    11.00000   -1.20000
AFIX   0
C10   1    0.722030    0.161315    0.823508    11.00000    0.01871    0.01625 =
         0.01828    0.00411    0.00455    0.00662
AFIX  43
H10   2    0.827737    0.245456    0.866993    11.00000   -1.20000
AFIX   0
C11   1    0.677889    0.321352    0.667796    11.00000    0.01430    0.01494 =
         0.01350    0.00393    0.00418    0.00475
AFIX  13
H11   2    0.758658    0.289386    0.621922    11.00000   -1.20000
AFIX   0
C12   1    0.779172    0.482545    0.767299    11.00000    0.01562    0.01446 =
         0.01203    0.00514    0.00285    0.00600
C13   1    0.920298    0.601466    0.768595    11.00000    0.01526    0.01628 =
         0.01408    0.00643    0.00340    0.00638
C14   1    0.961671    0.735772    0.880413    11.00000    0.01703    0.01583 =
         0.01366    0.00715    0.00356    0.00709
C15   1    1.091383    0.889080    0.933657    11.00000    0.01680    0.01686 =
         0.02214    0.00715    0.00399    0.00464
AFIX  43
H15   2    1.172036    0.923946    0.892408    11.00000   -1.20000
AFIX   0
C16   1    1.098961    0.988502    1.048026    11.00000    0.01880    0.01480 =
         0.02380    0.00467    0.00120    0.00331
AFIX  43
H16   2    1.184614    1.093459    1.084380    11.00000   -1.20000
AFIX   0
C17   1    0.982785    0.937008    1.110767    11.00000    0.02548    0.01778 =
         0.01618    0.00203    0.00162    0.01006
AFIX  43
H17   2    0.992840    1.006784    1.189604    11.00000   -1.20000
AFIX   0
C18   1    0.852924    0.785892    1.060202    11.00000    0.02217    0.01974 =
         0.01854    0.00839    0.00750    0.01069
AFIX  43
H18   2    0.774795    0.750452    1.103087    11.00000   -1.20000
AFIX   0
C19   1    0.842664    0.689160    0.944165    11.00000    0.01484    0.01312 =
         0.01707    0.00560    0.00286    0.00507
C20   1    1.018481    0.592635    0.676629    11.00000    0.02309    0.01753 =
         0.02179    0.00597    0.01070    0.00527
AFIX 137
H20A  2    1.019059    0.686855    0.642893    11.00000   -1.50000
H20B  2    0.964147    0.487429    0.609942    11.00000   -1.50000
H20C  2    1.136681    0.597826    0.716687    11.00000   -1.50000
AFIX   0

PART 1
S1A   4    0.009788    0.432757    0.181986    10.50000    0.03282    0.03258 =
         0.03327    0.00913    0.00906    0.01138
PART 2
S1C   4    0.100612    0.752777    0.353137    10.50000    0.02363    0.02137 =
         0.01641    0.00178    0.00440    0.01309
PART 0
N1A   3    0.509511    0.749564    0.389904    11.00000    0.01896    0.01767 =
         0.01712    0.00655    0.00245    0.00567
AFIX  43
H1A   2    0.451116    0.669278    0.412248    11.00000   -1.20000
AFIX   0
C1A   1    0.147483    0.621757    0.237223    11.00000    0.02125    0.02378 =
         0.01715    0.00566    0.00214    0.01340
PART 1
C2A   1    0.102668    0.723060    0.334793    10.50000    0.02584    0.02705 =
         0.02380    0.00860    0.00225    0.01638
AFIX  43
H2A   2    0.162979    0.836052    0.380807    10.50000   -1.20000
AFIX   0
PART 2
C2C   1    0.025148    0.467127    0.201759    10.50000    0.03658    0.03347 =
         0.03690    0.00807    0.00946    0.00875
AFIX  43
H2C   2    0.023180    0.373421    0.138993    10.50000   -1.20000
AFIX   0
PART 0
C3A   1   -0.061141    0.615586    0.351643    11.00000    0.03340    0.05046 =
         0.03402    0.01602    0.00975    0.02308
PART 1
AFIX  43
H3AA  2   -0.121006    0.651161    0.407898    10.50000   -1.20000
AFIX  43
PART 2
H3AB  2   -0.127481    0.640272    0.405670    10.50000   -1.20000
AFIX   0
PART 0
C4A   1   -0.101932    0.463147    0.271728    11.00000    0.02875    0.04404 =
         0.03439    0.01937    0.00228    0.00976
PART 1
AFIX  43
H4AA  2   -0.196038    0.375563    0.269335    10.50000   -1.20000
AFIX  43
PART 2
H4AB  2   -0.195192    0.369695    0.261764    10.50000   -1.20000
AFIX   0
PART 0
C5A   1    0.318487    0.540445    0.092757    11.00000    0.01806    0.01612 =
         0.01700    0.00461    0.00342    0.00451
C6A   1    0.206984    0.476957   -0.027196    11.00000    0.02567    0.01962 =
         0.02784    0.00725   -0.00544    0.00644
AFIX  43
H6A   2    0.116217    0.523474   -0.049968    11.00000   -1.20000
AFIX   0
C7A   1    0.226399    0.349404   -0.111993    11.00000    0.03385    0.02745 =
         0.01896    0.00307    0.00436    0.00358
AFIX  43
H7A   2    0.147797    0.305822   -0.192401    11.00000   -1.20000
AFIX   0
C8A   1    0.360146    0.283946   -0.080813    11.00000    0.03118    0.01875 =
         0.02714    0.00263    0.01782    0.00224
AFIX  43
H8A   2    0.374297    0.196013   -0.140235    11.00000   -1.20000
AFIX   0
C9A   1    0.472384    0.344550    0.034808    11.00000    0.02473    0.02569 =
         0.03483    0.01521    0.01504    0.01253
AFIX  43
H9A   2    0.564785    0.298779    0.053968    11.00000   -1.20000
AFIX   0
C10A  1    0.456127    0.467522    0.122766    11.00000    0.01412    0.03062 =
         0.00606    0.00417    0.00044   -0.00355
AFIX  43
H10A  2    0.534079    0.505670    0.203330    11.00000   -1.20000
AFIX   0
C11A  1    0.290189    0.683338    0.184276    11.00000    0.01806    0.01522 =
         0.01717    0.00461    0.00083    0.00549
AFIX  13
H11A  2    0.252001    0.757958    0.136791    11.00000   -1.20000
AFIX   0
C12A  1    0.455081    0.787591    0.281831    11.00000    0.01929    0.01624 =
         0.01725    0.00431    0.00310    0.00799
C13A  1    0.577978    0.918309    0.276049    11.00000    0.01721    0.01647 =
         0.01568    0.00160    0.00402    0.00698
C14A  1    0.717511    0.963981    0.387258    11.00000    0.01894    0.01618 =
         0.01451    0.00250    0.00511    0.00934
C15A  1    0.879690    1.084383    0.434130    11.00000    0.02167    0.01717 =
         0.02088    0.00379    0.00775    0.00819
AFIX  43
H15A  2    0.915459    1.157948    0.389468    11.00000   -1.20000
AFIX   0
C16A  1    0.985848    1.093490    0.546365    11.00000    0.01900    0.01944 =
         0.02070   -0.00045    0.00322    0.00500
AFIX  43
H16A  2    1.096192    1.173172    0.578212    11.00000   -1.20000
AFIX   0
C17A  1    0.933615    0.987115    0.614221    11.00000    0.02091    0.02415 =
         0.01856    0.00349    0.00370    0.01024
AFIX  43
H17A  2    1.008846    0.997228    0.691548    11.00000   -1.20000
AFIX   0
C18A  1    0.774036    0.867294    0.570535    11.00000    0.02383    0.01824 =
         0.01714    0.00557    0.00700    0.00994
AFIX  43
H18A  2    0.738270    0.795583    0.616447    11.00000   -1.20000
AFIX   0
C19A  1    0.669658    0.857230    0.457133    11.00000    0.01836    0.01700 =
         0.01814    0.00329    0.00593    0.00786
C20A  1    0.569524    0.998730    0.174953    11.00000    0.02243    0.02118 =
         0.02100    0.00689    0.00540    0.00717
AFIX 137
H20D  2    0.530408    1.097834    0.196485    11.00000   -1.50000
H20E  2    0.488974    0.919181    0.098273    11.00000   -1.50000
H20F  2    0.683664    1.031763    0.163992    11.00000   -1.50000
AFIX   0
HKLF 4

REM  qyan1cult_a.res in P1
REM R1 =  0.0380 for    5766 Fo > 4sig(Fo)  and  0.0389 for all    5874 data
REM    435 parameters refined using    183 restraints

END

WGHT      0.0576      0.4399

REM Highest difference peak  0.713,  deepest hole -0.409,  1-sigma level  0.051
Q1    1  -0.1097  0.5317  0.3272  11.00000  0.05    0.71
Q2    1  -0.0018  0.6831  0.3599  11.00000  0.05    0.70
Q3    1  -0.0855  0.4063  0.2336  11.00000  0.05    0.52
Q4    1   0.2541  0.4556 -0.0810  11.00000  0.05    0.46
Q5    1   0.1313  0.7156  0.3021  11.00000  0.05    0.36
Q6    1   0.4618  0.4067  0.1212  11.00000  0.05    0.28
Q7    1   0.4746  0.4962  0.1508  11.00000  0.05    0.26
Q8    1   0.4149  0.4776  0.1098  11.00000  0.05    0.25
;
_shelx_res_checksum              58139
_shelx_hkl_file
;
 -10   0   2   52.99    2.37
 -10   0   3   21.95    1.80
 -10   0   4   11.68    1.50
 -10   0   5   57.24    2.75
 -10   0   6   77.88    2.94
 -10   1   1   55.83    2.61
 -10   1   2   23.43    2.01
 -10   1   3   46.98    2.83
 -10   1   4   35.50    2.49
 -10   1   5  277.99    6.97
 -10   1   6   22.97    1.59
 -10   1   6   18.61    1.41
 -10   1   7   18.69    1.36
 -10   2   0  189.02    5.07
 -10   2   1   63.58    3.17
 -10   2   2   32.40    2.48
 -10   2   3   56.66    2.58
 -10   2   3   60.31    3.26
 -10   2   4   59.93    3.08
 -10   2   4   55.47    2.87
 -10   2   5   17.97    1.52
 -10   2   5   23.12    2.00
 -10   2   5   22.76    1.78
 -10   2   6  160.25    4.82
 -10   2   6  120.59    3.96
 -10   2   7   72.06    2.76
 -10   3  -1  159.32    4.23
 -10   3   0  164.89    4.94
 -10   3   1  103.42    4.11
 -10   3   2   20.80    2.00
 -10   3   2   17.88    1.48
 -10   3   3    1.25    1.09
 -10   3   3    4.15    1.12
 -10   3   4   41.58    2.30
 -10   3   4   45.61    2.72
 -10   3   5   62.07    3.10
 -10   3   6  193.01    5.33
 -10   3   7    6.57    0.94
 -10   4  -1   67.01    2.59
 -10   4   0  105.88    3.70
 -10   4   1  259.04    6.43
 -10   4   1  237.14    5.17
 -10   4   2  111.27    3.86
 -10   4   2  112.29    3.81
 -10   4   3   21.45    1.56
 -10   4   3   18.56    1.71
 -10   4   4  119.83    4.24
 -10   4   5  156.03    4.63
 -10   4   6   26.39    1.61
 -10   5   0  212.52    4.92
 -10   5   1  125.55    3.45
 -10   5   1  127.01    3.37
 -10   5   2   80.06    2.95
 -10   5   3  162.07    4.53
 -10   5   4   10.95    1.25
  -9  -3   3   35.58    1.97
  -9  -3   4   48.28    2.27
  -9  -3   5   22.51    1.39
  -9  -2   0   48.10    2.26
  -9  -2   1  342.11    7.97
  -9  -2   2    3.97    1.30
  -9  -2   2    2.27    0.93
  -9  -2   3   34.93    2.53
  -9  -2   3   38.47    2.54
  -9  -2   4   44.47    2.66
  -9  -2   4   46.11    2.96
  -9  -2   5   20.44    1.78
  -9  -2   5   21.88    2.35
  -9  -2   6    6.35    1.61
  -9  -2   7   45.50    2.18
  -9  -2   8   44.10    2.19
  -9  -2   9   86.54    2.77
  -9  -1  -1   50.30    2.63
  -9  -1   0   13.95    1.88
  -9  -1   1  128.18    5.10
  -9  -1   1  113.39    4.38
  -9  -1   2   22.50    2.39
  -9  -1   2   24.04    2.42
  -9  -1   3  216.78    6.79
  -9  -1   3  210.56    7.40
  -9  -1   4  157.06    5.40
  -9  -1   4  163.61    6.54
  -9  -1   5   15.67    2.43
  -9  -1   6   31.33    2.38
  -9  -1   6   31.66    2.92
  -9  -1   7  136.67    4.97
  -9  -1   7  137.24    5.31
  -9  -1   8  191.22    5.90
  -9  -1   9  101.31    3.77
  -9  -1  10  163.52    4.15
  -9   0  -2   35.46    2.33
  -9   0  -1   70.92    3.70
  -9   0  -1   71.37    2.91
  -9   0   0   66.08    3.84
  -9   0   0   59.98    3.34
  -9   0   1   95.89    4.67
  -9   0   1   91.92    4.71
  -9   0   2  189.67    6.64
  -9   0   2  195.80    7.47
  -9   0   3    3.17    1.31
  -9   0   3    4.79    1.92
  -9   0   3    1.73    1.16
  -9   0   4   40.13    3.66
  -9   0   4   39.76    2.99
  -9   0   5   11.56    2.03
  -9   0   5    9.83    1.77
  -9   0   5   11.94    2.30
  -9   0   6    6.82    1.71
  -9   0   6    6.97    1.66
  -9   0   6    5.45    1.84
  -9   0   7    6.69    1.57
  -9   0   7   10.24    1.90
  -9   0   8   42.57    3.05
  -9   0   9  185.87    5.73
  -9   0  10   95.99    3.26
  -9   1  -3   18.10    1.68
  -9   1  -2   63.22    3.43
  -9   1  -2   57.01    2.56
  -9   1  -1   99.35    4.68
  -9   1  -1   98.87    4.38
  -9   1   0   75.35    4.23
  -9   1   0   81.61    4.49
  -9   1   1  101.70    4.80
  -9   1   1  102.22    5.43
  -9   1   2  169.03    6.02
  -9   1   2  164.30    7.27
  -9   1   2  170.63    5.83
  -9   1   3   81.56    5.16
  -9   1   3   83.20    4.43
  -9   1   4    3.56    1.90
  -9   1   4    8.14    2.05
  -9   1   5   32.17    3.24
  -9   1   5   34.68    3.19
  -9   1   6  100.38    5.32
  -9   1   6   94.87    4.64
  -9   1   7   30.08    2.36
  -9   1   7   30.31    3.01
  -9   1   8  242.05    7.64
  -9   1   9   59.77    3.17
  -9   1  10   31.54    1.78
  -9   2  -4   50.81    2.33
  -9   2  -3    5.50    1.37
  -9   2  -3    4.44    0.90
  -9   2  -2   34.10    2.68
  -9   2  -1    3.61    1.56
  -9   2   0  156.77    5.91
  -9   2   1  347.73    9.14
  -9   2   1  335.57    8.80
  -9   2   2  308.61    9.10
  -9   2   3  166.04    6.81
  -9   2   4   11.97    2.49
  -9   2   4   14.72    2.42
  -9   2   5   86.38    5.16
  -9   2   5   84.36    4.53
  -9   2   6   69.27    3.63
  -9   2   6   67.60    4.46
  -9   2   7   44.05    3.51
  -9   2   8   65.15    3.57
  -9   2   9   34.99    2.31
  -9   3  -4   15.53    1.52
  -9   3  -3   59.36    3.13
  -9   3  -2  296.06    8.02
  -9   3  -1  454.47   10.71
  -9   3   0   95.01    4.23
  -9   3   0   90.07    4.00
  -9   3   1   84.97    4.41
  -9   3   2   34.81    3.24
  -9   3   3   45.20    3.84
  -9   3   4   77.21    4.94
  -9   3   4   81.23    4.36
  -9   3   5   68.99    3.62
  -9   3   5   66.67    4.52
  -9   3   6   99.39    5.17
  -9   3   7   45.71    3.22
  -9   3   8   16.92    1.73
  -9   3   9   24.93    1.62
  -9   4  -4   33.75    1.95
  -9   4  -3   93.46    3.63
  -9   4  -2  106.21    4.11
  -9   4  -1    6.32    1.27
  -9   4  -1    6.59    1.27
  -9   4   0  278.42    8.03
  -9   4   1  259.33    8.33
  -9   4   2   98.04    5.14
  -9   4   3  302.07    9.71
  -9   4   4   46.76    3.80
  -9   4   4   39.82    2.69
  -9   4   5  146.76    6.20
  -9   4   6   88.07    4.36
  -9   4   7  116.50    3.57
  -9   4   7  123.02    4.35
  -9   5  -3   18.99    1.41
  -9   5  -2   87.22    4.13
  -9   5  -1   88.22    4.43
  -9   5  -1   86.81    3.76
  -9   5   0   63.43    3.78
  -9   5   0   65.66    3.71
  -9   5   1  151.34    6.07
  -9   5   2    4.87    1.83
  -9   5   3  248.18    8.14
  -9   5   4   29.53    2.80
  -9   5   5   88.41    4.18
  -9   5   6   34.59    1.87
  -9   5   6   40.14    2.38
  -9   6  -2  154.34    4.85
  -9   6  -2  139.91    3.75
  -9   6  -1   35.75    2.46
  -9   6  -1   35.07    2.27
  -9   6   0   27.42    2.27
  -9   6   1  189.59    6.35
  -9   6   2   68.12    3.75
  -9   6   3  124.12    4.89
  -9   6   4   12.27    1.61
  -9   6   5  216.09    5.30
  -9   7  -1  157.83    4.31
  -9   7   0   11.91    1.41
  -9   7   1  125.19    4.18
  -9   7   2   49.47    2.50
  -9   7   3   50.11    2.24
  -8  -5   4   76.24    2.63
  -8  -5   5   57.44    2.30
  -8  -4   1   57.53    2.64
  -8  -4   2   41.47    2.68
  -8  -4   3    4.69    1.55
  -8  -4   4    0.98    1.27
  -8  -4   5   19.72    2.16
  -8  -4   6   43.47    2.66
  -8  -4   7  112.49    3.71
  -8  -4   8   62.02    2.40
  -8  -4   9   75.52    2.55
  -8  -3  -1    9.47    1.30
  -8  -3   0   10.37    1.71
  -8  -3   1   57.80    3.67
  -8  -3   2    8.49    2.03
  -8  -3   2   11.37    1.67
  -8  -3   3  126.12    5.81
  -8  -3   3  117.20    5.07
  -8  -3   4   54.97    3.87
  -8  -3   4   56.37    3.85
  -8  -3   5  141.62    5.86
  -8  -3   5  142.50    6.23
  -8  -3   6   46.11    3.08
  -8  -3   6   44.90    2.75
  -8  -3   6   44.71    3.59
  -8  -3   7  179.34    5.39
  -8  -3   7  187.94    6.06
  -8  -3   8   69.37    3.64
  -8  -3   9  135.55    4.93
  -8  -3  10   75.27    3.23
  -8  -2  -2   18.43    1.54
  -8  -2  -2   20.92    1.85
  -8  -2  -2   20.26    1.95
  -8  -2  -1  320.30    9.01
  -8  -2  -1  314.91    8.00
  -8  -2   0  130.88    4.89
  -8  -2   0  125.69    5.89
  -8  -2   1  222.44    8.24
  -8  -2   1  199.68    6.79
  -8  -2   2  134.00    6.42
  -8  -2   2  119.07    5.71
  -8  -2   3  332.60   10.53
  -8  -2   3  332.68   10.56
  -8  -2   4    1.29    2.26
  -8  -2   4    0.69    1.67
  -8  -2   5  127.31    5.66
  -8  -2   5  127.71    5.26
  -8  -2   5  138.78    6.84
  -8  -2   6   12.58    1.92
  -8  -2   6   11.93    2.10
  -8  -2   6   12.18    2.63
  -8  -2   7   71.53    4.68
  -8  -2   7   66.72    4.24
  -8  -2   8  126.17    5.82
  -8  -2   9   42.40    3.30
  -8  -2  10    9.61    1.66
  -8  -2  11   21.58    1.70
  -8  -1  -4   62.82    2.39
  -8  -1  -4   71.61    2.78
  -8  -1  -3   77.33    3.49
  -8  -1  -3   71.03    3.56
  -8  -1  -2  250.77    7.27
  -8  -1  -2  242.80    8.00
  -8  -1  -1   11.03    1.88
  -8  -1  -1    9.24    2.35
  -8  -1   0   90.79    5.51
  -8  -1   0   89.66    4.20
  -8  -1   0   94.56    4.74
  -8  -1   1  162.40    7.40
  -8  -1   1  156.45    6.90
  -8  -1   2   55.24    4.40
  -8  -1   2   57.28    4.49
  -8  -1   3  554.22   14.22
  -8  -1   3  539.49   12.79
  -8  -1   3  526.15   14.97
  -8  -1   4    2.33    1.72
  -8  -1   4    5.93    2.01
  -8  -1   4    6.26    1.63
  -8  -1   4    4.96    2.03
  -8  -1   5   44.22    3.32
  -8  -1   5   47.25    3.72
  -8  -1   5   47.41    4.23
  -8  -1   5   41.69    3.80
  -8  -1   6    4.03    2.03
  -8  -1   6    3.43    2.03
  -8  -1   6    2.32    1.72
  -8  -1   7  598.85   15.30
  -8  -1   7  595.25   15.11
  -8  -1   8  117.67    5.42
  -8  -1   8  116.52    5.99
  -8  -1   9  100.58    5.23
  -8  -1  10   72.33    3.94
  -8  -1  11   36.09    2.25
  -8   0  -5   82.12    2.92
  -8   0  -5   72.40    2.46
  -8   0  -4   40.57    2.74
  -8   0  -4   40.81    2.61
  -8   0  -3   14.62    2.00
  -8   0  -3   10.87    2.00
  -8   0  -3   10.23    1.83
  -8   0  -2  317.01    9.47
  -8   0  -2  315.21    8.88
  -8   0  -2  346.77   10.59
  -8   0  -2  315.77    8.40
  -8   0  -1  236.64    8.27
  -8   0  -1  240.56    9.06
  -8   0  -1  227.48    7.35
  -8   0  -1  236.68    7.99
  -8   0   0   19.60    2.60
  -8   0   0   24.85    3.20
  -8   0   1  406.39   12.20
  -8   0   2  363.81   11.14
  -8   0   2  368.87   10.07
  -8   0   3  103.86    5.39
  -8   0   3   98.26    5.37
  -8   0   3  106.45    6.37
  -8   0   4   97.40    4.81
  -8   0   4   93.56    5.99
  -8   0   4  106.07    5.79
  -8   0   5  256.91    9.63
  -8   0   5  263.19    9.84
  -8   0   6  228.50    9.23
  -8   0   6  239.78    9.03
  -8   0   7   78.63    4.70
  -8   0   7   72.68    5.21
  -8   0   8   92.13    5.48
  -8   0   8   94.45    4.58
  -8   0   9    4.64    1.89
  -8   0  10   15.10    1.65
  -8   0  10   10.74    1.97
  -8   0  11    1.08    0.93
  -8   0  11    1.50    0.90
  -8   1  -5  118.47    4.31
  -8   1  -5  115.08    4.15
  -8   1  -4   31.52    2.53
  -8   1  -4   34.00    3.00
  -8   1  -3   22.22    2.57
  -8   1  -3   18.55    2.72
  -8   1  -2  237.67    8.26
  -8   1  -2  260.71    9.39
  -8   1  -1   98.19    5.20
  -8   1  -1  101.84    5.87
  -8   1   0  320.87    9.80
  -8   1   0  327.81   10.71
  -8   1   1   12.77    2.21
  -8   1   1   14.40    2.62
  -8   1   1   17.87    2.46
  -8   1   2  104.70    5.39
  -8   1   2  100.04    5.43
  -8   1   3  205.41    8.31
  -8   1   4  253.77    9.69
  -8   1   5   95.95    5.95
  -8   1   5   99.14    5.67
  -8   1   6  131.34    6.92
  -8   1   6  130.06    6.12
  -8   1   7  359.91    9.97
  -8   1   7  343.75   11.45
  -8   1   8   87.39    4.37
  -8   1   8   88.50    5.28
  -8   1   9  149.03    5.58
  -8   1  10   62.85    3.30
  -8   1  10   54.58    3.33
  -8   1  11  101.13    3.47
  -8   1  11   75.56    2.74
  -8   2  -6   12.04    1.36
  -8   2  -6   15.12    1.42
  -8   2  -5   38.83    2.85
  -8   2  -4   56.08    3.48
  -8   2  -4   59.48    3.94
  -8   2  -3    7.54    1.73
  -8   2  -3    9.90    2.28
  -8   2  -2   82.89    4.68
  -8   2  -2   92.02    5.54
  -8   2  -2   85.34    5.21
  -8   2  -1  296.30    9.22
  -8   2  -1  280.35    9.74
  -8   2  -1  288.75   10.10
  -8   2   0  177.15    6.67
  -8   2   0  190.82    7.61
  -8   2   0  191.35    8.27
  -8   2   0  194.12    6.91
  -8   2   1  136.61    6.16
  -8   2   1  141.17    6.36
  -8   2   1  143.64    7.21
  -8   2   2   88.24    5.30
  -8   2   3    7.38    2.40
  -8   2   4  180.19    8.13
  -8   2   5   65.65    4.49
  -8   2   5   67.61    5.11
  -8   2   6   51.80    3.56
  -8   2   6   56.19    4.64
  -8   2   7  422.93   11.08
  -8   2   7  415.05   12.44
  -8   2   8   73.62    4.27
  -8   2   8   70.84    4.48
  -8   2   9    8.93    1.84
  -8   2   9    6.92    1.55
  -8   2  10    7.34    1.49
  -8   2  10    5.46    1.22
  -8   2  11  185.11    4.87
  -8   3  -6  114.31    4.10
  -8   3  -5   12.74    2.03
  -8   3  -4    2.36    1.34
  -8   3  -4    0.78    1.68
  -8   3  -4   -0.56    1.23
  -8   3  -3   53.15    3.63
  -8   3  -3   52.46    4.03
  -8   3  -3   49.60    3.87
  -8   3  -2  129.15    5.68
  -8   3  -2  131.71    6.31
  -8   3  -2  129.80    6.46
  -8   3  -1  359.98    9.73
  -8   3  -1  374.16   10.92
  -8   3  -1  378.67   11.98
  -8   3  -1  368.17   10.01
  -8   3   0  215.09    7.72
  -8   3   0  209.62    7.90
  -8   3   0  223.35    8.98
  -8   3   1   23.64    3.37
  -8   3   1   18.08    2.70
  -8   3   2  129.15    6.61
  -8   3   2  122.03    6.56
  -8   3   3  208.51    8.85
  -8   3   4   77.38    5.50
  -8   3   5  272.30   10.03
  -8   3   5  258.14    8.09
  -8   3   6  421.26   11.37
  -8   3   6  433.14   12.73
  -8   3   7  145.53    6.20
  -8   3   7  160.46    6.79
  -8   3   8    4.89    1.69
  -8   3   8    2.15    1.31
  -8   3   9  102.42    4.65
  -8   3  10   62.33    3.07
  -8   4  -6    5.55    1.24
  -8   4  -5   63.06    3.69
  -8   4  -5   60.32    3.18
  -8   4  -4   -0.16    1.29
  -8   4  -4    1.97    1.63
  -8   4  -4    2.39    1.44
  -8   4  -3  120.79    4.92
  -8   4  -3  126.96    5.86
  -8   4  -3  120.52    6.03
  -8   4  -2  525.37   13.13
  -8   4  -2  522.21   14.40
  -8   4  -2  528.70   12.26
  -8   4  -1  101.99    5.03
  -8   4  -1   95.87    5.89
  -8   4  -1   92.49    5.00
  -8   4   0   98.18    5.81
  -8   4   0   96.67    5.55
  -8   4   1   32.66    4.09
  -8   4   1   37.99    3.76
  -8   4   1   31.35    3.55
  -8   4   2  149.65    8.70
  -8   4   2  165.15    7.68
  -8   4   2  156.98    6.86
  -8   4   3   84.51    5.57
  -8   4   4   11.76    1.96
  -8   4   4   13.62    2.76
  -8   4   5  176.48    6.88
  -8   4   5  180.26    7.75
  -8   4   6   69.01    4.29
  -8   4   6   83.83    4.88
  -8   4   7   41.87    3.35
  -8   4   7   38.49    3.01
  -8   4   8   70.41    3.99
  -8   4   8   68.89    3.05
  -8   4   9  340.46    8.43
  -8   4  10   52.68    2.28
  -8   5  -6   61.49    2.80
  -8   5  -6   50.99    2.19
  -8   5  -5   37.97    2.71
  -8   5  -5   35.94    2.57
  -8   5  -4    0.66    1.26
  -8   5  -4    0.58    1.53
  -8   5  -3    9.74    1.53
  -8   5  -3   12.83    2.44
  -8   5  -2  116.10    4.95
  -8   5  -2  107.88    5.81
  -8   5  -2  109.71    5.07
  -8   5  -1   80.90    4.90
  -8   5  -1   80.30    5.07
  -8   5   0  334.00   12.06
  -8   5   0  344.10   10.90
  -8   5   0  341.79   10.65
  -8   5   1    6.10    2.13
  -8   5   1   10.36    2.67
  -8   5   1    4.49    1.73
  -8   5   2  379.81   14.18
  -8   5   2  373.81   10.36
  -8   5   2  386.43   10.66
  -8   5   2  386.97   12.12
  -8   5   3    7.40    2.77
  -8   5   3    7.38    2.53
  -8   5   4  105.23    5.77
  -8   5   5  328.84    9.78
  -8   5   5  336.67   10.01
  -8   5   6   64.08    3.96
  -8   5   6   59.14    3.56
  -8   5   7   94.79    4.54
  -8   5   7   91.74    3.40
  -8   5   8  194.15    5.94
  -8   5   9   36.05    1.93
  -8   6  -6    2.45    0.73
  -8   6  -6    1.67    0.73
  -8   6  -5   98.41    3.58
  -8   6  -5   93.60    3.85
  -8   6  -4   93.05    3.75
  -8   6  -4   95.88    4.50
  -8   6  -3   33.76    2.31
  -8   6  -3   35.11    2.55
  -8   6  -3   34.63    3.16
  -8   6  -2   21.63    2.47
  -8   6  -2   19.70    2.64
  -8   6  -1    4.39    1.86
  -8   6  -1    2.93    1.47
  -8   6   0  239.79    9.60
  -8   6   0  226.85    7.54
  -8   6   0  225.84    8.49
  -8   6   1  169.69    8.49
  -8   6   1  163.74    5.98
  -8   6   1  179.78    6.22
  -8   6   1  179.72    7.51
  -8   6   2  101.17    6.63
  -8   6   2  101.69    4.96
  -8   6   2  104.40    5.63
  -8   6   3  213.62    9.49
  -8   6   3  204.94    7.64
  -8   6   3  200.33    7.41
  -8   6   4  402.39   10.59
  -8   6   5   72.40    4.03
  -8   6   5   72.37    3.58
  -8   6   6  140.54    5.29
  -8   6   7  182.16    5.38
  -8   7  -5    1.78    0.81
  -8   7  -4   -1.97    0.81
  -8   7  -4    0.31    1.02
  -8   7  -3   62.26    3.31
  -8   7  -3   55.33    2.96
  -8   7  -2  152.31    5.37
  -8   7  -2  163.61    5.83
  -8   7  -1  112.72    4.44
  -8   7  -1  120.35    5.27
  -8   7   0   91.14    3.67
  -8   7   0   98.44    4.91
  -8   7   1   30.08    2.39
  -8   7   1   28.75    2.86
  -8   7   2   19.49    2.13
  -8   7   2   21.67    2.44
  -8   7   3   49.85    3.23
  -8   7   3   52.90    3.11
  -8   7   4    2.53    1.29
  -8   7   4    0.02    0.90
  -8   7   5  137.56    4.57
  -8   7   6  104.39    3.39
  -8   8  -3   48.39    2.20
  -8   8  -3   44.91    1.89
  -8   8  -2   96.28    2.81
  -8   8  -2  111.92    3.88
  -8   8  -1   38.74    2.51
  -8   8   0  130.23    4.60
  -8   8   1   71.45    3.18
  -8   8   2   89.66    3.21
  -8   8   3   25.90    1.68
  -7  -6   3   13.01    1.24
  -7  -6   4    9.06    1.31
  -7  -6   5   65.55    2.93
  -7  -6   6   22.22    1.76
  -7  -5   0   26.51    1.85
  -7  -5   1   11.27    1.52
  -7  -5   2   69.94    3.35
  -7  -5   2   72.73    3.81
  -7  -5   3   74.87    4.14
  -7  -5   3   65.54    3.13
  -7  -5   4   23.63    2.76
  -7  -5   5   19.07    2.57
  -7  -5   6   57.36    3.72
  -7  -5   7  103.89    4.54
  -7  -5   7  116.39    3.91
  -7  -5   8    3.40    1.15
  -7  -5   8    2.24    1.16
  -7  -5   9   71.60    3.15
  -7  -5  10   42.26    2.17
  -7  -4  -2   16.27    1.38
  -7  -4  -1   44.72    2.49
  -7  -4  -1   41.94    2.56
  -7  -4   0  161.59    4.99
  -7  -4   0  167.52    6.16
  -7  -4   1    2.24    1.62
  -7  -4   2    3.60    1.98
  -7  -4   3   55.89    4.50
  -7  -4   4   97.84    5.71
  -7  -4   4   87.43    4.96
  -7  -4   5    3.52    1.91
  -7  -4   6  104.88    5.44
  -7  -4   6  108.75    4.82
  -7  -4   7   25.49    2.69
  -7  -4   7   17.35    2.32
  -7  -4   8   23.08    2.24
  -7  -4   8   24.28    2.61
  -7  -4   9   54.64    3.65
  -7  -4  10   24.34    2.35
  -7  -4  11   32.47    2.17
  -7  -3  -4   14.67    1.33
  -7  -3  -3   38.46    2.12
  -7  -3  -3   41.54    2.59
  -7  -3  -3   46.36    2.91
  -7  -3  -2   54.23    3.66
  -7  -3  -2   55.50    3.30
  -7  -3  -1   40.60    3.39
  -7  -3  -1   32.04    3.11
  -7  -3   0    8.37    2.06
  -7  -3   0    6.91    2.27
  -7  -3   1   94.12    5.06
  -7  -3   1  101.67    5.99
  -7  -3   1   92.82    4.58
  -7  -3   2  135.93    7.11
  -7  -3   2  150.16    6.40
  -7  -3   3    6.63    2.41
  -7  -3   3    7.94    2.16
  -7  -3   4   33.78    3.71
  -7  -3   4   33.25    3.57
  -7  -3   5  662.16   16.42
  -7  -3   5  644.12   15.02
  -7  -3   5  665.90   17.20
  -7  -3   6  200.77    7.79
  -7  -3   6  206.49    8.78
  -7  -3   6  211.64    7.84
  -7  -3   7  323.28    9.61
  -7  -3   7  344.69   11.37
  -7  -3   7  335.46   10.62
  -7  -3   8   47.76    4.04
  -7  -3   9    9.96    2.29
  -7  -3  10   77.93    4.51
  -7  -3  11  127.20    4.98
  -7  -3  12   14.96    1.37
  -7  -2  -5   36.64    2.17
  -7  -2  -4   28.93    2.12
  -7  -2  -4   33.95    2.77
  -7  -2  -3   15.97    2.23
  -7  -2  -3   20.54    2.61
  -7  -2  -2  141.47    6.44
  -7  -2  -2  152.07    6.73
  -7  -2  -1  351.34   11.38
  -7  -2  -1  351.05   10.81
  -7  -2   0   97.78    6.04
  -7  -2   0  100.77    5.34
  -7  -2   0   98.12    4.98
  -7  -2   1  115.33    5.58
  -7  -2   1  112.79    6.54
  -7  -2   1  120.98    5.91
  -7  -2   2  182.82    8.24
  -7  -2   2  192.11    7.97
  -7  -2   3   82.74    5.34
  -7  -2   3   78.98    5.31
  -7  -2   4  122.33    6.28
  -7  -2   4  120.88    5.48
  -7  -2   4  122.60    6.73
  -7  -2   5   14.13    2.48
  -7  -2   5   11.29    2.61
  -7  -2   5   10.66    2.26
  -7  -2   6  157.75    6.60
  -7  -2   6  171.78    8.01
  -7  -2   6  171.81    7.51
  -7  -2   7   29.91    3.50
  -7  -2   7   32.43    3.79
  -7  -2   8  168.57    7.43
  -7  -2   8  163.06    7.71
  -7  -2   9  253.56    9.60
  -7  -2  10   31.61    2.57
  -7  -2  10   38.25    3.46
  -7  -2  11  121.90    4.59
  -7  -2  11  123.64    5.16
  -7  -2  12   98.48    3.41
  -7  -2  12   91.05    3.38
  -7  -1  -6   11.27    1.35
  -7  -1  -5   59.53    2.96
  -7  -1  -5   66.12    3.71
  -7  -1  -4   11.94    2.36
  -7  -1  -4   13.27    2.06
  -7  -1  -3   54.04    4.00
  -7  -1  -3   50.30    4.10
  -7  -1  -3   48.93    4.01
  -7  -1  -2   29.97    3.38
  -7  -1  -2   34.17    3.74
  -7  -1  -2   33.25    3.46
  -7  -1  -1  484.21   14.13
  -7  -1  -1  498.23   13.21
  -7  -1  -1  502.47   14.44
  -7  -1  -1  491.86   12.59
  -7  -1   0  172.37    7.90
  -7  -1   0  188.80    7.30
  -7  -1   0  184.92    8.21
  -7  -1   1  379.43   12.18
  -7  -1   2   15.28    2.59
  -7  -1   2   16.30    2.76
  -7  -1   3   68.56    4.74
  -7  -1   3   66.56    4.99
  -7  -1   3   61.11    4.23
  -7  -1   4  376.93   11.05
  -7  -1   4  369.81   11.43
  -7  -1   4  373.75   12.06
  -7  -1   5  375.54   10.38
  -7  -1   5  390.47   11.98
  -7  -1   5  377.80   12.23
  -7  -1   6  218.40    8.85
  -7  -1   6  217.02    8.98
  -7  -1   7  128.44    6.45
  -7  -1   7  121.04    6.74
  -7  -1   8   87.92    5.08
  -7  -1   9   26.12    2.76
  -7  -1   9   26.93    3.34
  -7  -1  10  122.57    5.51
  -7  -1  10  134.29    6.31
  -7  -1  11   14.30    1.99
  -7  -1  11   19.54    2.23
  -7  -1  12   24.32    2.07
  -7  -1  12   26.38    1.75
  -7   0  -7   90.72    3.11
  -7   0  -6   83.08    4.00
  -7   0  -6   80.32    3.26
  -7   0  -5   44.22    3.16
  -7   0  -5   37.73    3.01
  -7   0  -4   48.86    3.79
  -7   0  -4   52.22    4.12
  -7   0  -3  321.40   10.79
  -7   0  -3  317.32   11.25
  -7   0  -3  335.94   11.11
  -7   0  -2  110.34    6.32
  -7   0  -2  108.41    6.30
  -7   0  -1  237.30    9.32
  -7   0  -1  238.33    9.38
  -7   0   0   81.36    5.33
  -7   0   0   88.95    5.54
  -7   0   1  127.29    6.29
  -7   0   1  123.24    6.36
  -7   0   2  579.47   14.34
  -7   0   2  597.86   14.91
  -7   0   2  598.03   14.22
  -7   0   3    8.11    2.01
  -7   0   3    7.69    2.11
  -7   0   4  364.64   11.40
  -7   0   5  207.63    8.34
  -7   0   5  190.10    8.29
  -7   0   6   90.65    5.43
  -7   0   6   82.74    5.63
  -7   0   7  203.38    8.78
  -7   0   7  204.46    7.88
  -7   0   8    5.97    1.93
  -7   0   8    3.98    1.48
  -7   0   8    5.28    2.30
  -7   0   9  263.79    8.96
  -7   0  10   43.38    3.59
  -7   0  10   41.19    3.49
  -7   0  11  131.71    5.60
  -7   0  11  120.97    4.82
  -7   0  12   15.26    1.88
  -7   1  -7   37.25    1.90
  -7   1  -6    7.17    1.45
  -7   1  -6    5.57    1.50
  -7   1  -5  147.87    6.26
  -7   1  -5  143.35    6.39
  -7   1  -4  137.11    6.60
  -7   1  -4  124.37    6.64
  -7   1  -4  133.84    6.72
  -7   1  -3 1089.89   23.90
  -7   1  -3 1080.78   21.98
  -7   1  -2  499.65   14.04
  -7   1  -2  476.83   13.94
  -7   1  -2  451.79   12.75
  -7   1  -1   74.16    4.98
  -7   1  -1   77.09    5.17
  -7   1  -1   70.94    4.93
  -7   1   0   88.35    5.21
  -7   1   0   89.78    5.37
  -7   1   0   83.06    5.27
  -7   1   1  244.80    8.31
  -7   1   1  230.26    8.44
  -7   1   1  233.48    7.88
  -7   1   1  235.88    9.04
  -7   1   2  493.78   12.30
  -7   1   2  516.15   13.84
  -7   1   2  488.33   13.07
  -7   1   3  108.66    5.89
  -7   1   4   50.17    4.17
  -7   1   5  160.96    7.51
  -7   1   6  180.95    8.06
  -7   1   6  170.48    6.98
  -7   1   7   40.52    3.69
  -7   1   7   38.57    4.06
  -7   1   8   24.41    3.27
  -7   1   8   18.88    3.09
  -7   1   9  139.16    6.68
  -7   1   9  141.26    6.32
  -7   1  10    2.38    1.78
  -7   1  10    0.52    1.34
  -7   1  11   22.89    2.54
  -7   1  11   19.13    1.72
  -7   1  12   39.57    2.57
  -7   2  -7   10.94    1.63
  -7   2  -6   39.38    3.04
  -7   2  -6   42.68    3.41
  -7   2  -5   40.08    3.61
  -7   2  -5   43.73    3.90
  -7   2  -4  497.21   13.75
  -7   2  -4  488.57   14.05
  -7   2  -4  465.00   12.20
  -7   2  -3  173.52    7.82
  -7   2  -3  178.51    7.37
  -7   2  -2   22.34    3.08
  -7   2  -2   28.37    3.36
  -7   2  -1  663.48   16.11
  -7   2  -1  672.79   16.80
  -7   2   0  474.49   12.43
  -7   2   0  471.40   12.79
  -7   2   0  471.20   12.18
  -7   2   0  487.09   13.62
  -7   2   1   32.16    3.00
  -7   2   1   31.02    3.41
  -7   2   1   34.32    3.56
  -7   2   2  170.00    7.35
  -7   2   2  167.45    7.32
  -7   2   3  120.22    6.24
  -7   2   3  117.59    6.04
  -7   2   4  545.72   14.82
  -7   2   5  476.69   12.07
  -7   2   5  454.91   13.50
  -7   2   6   55.43    4.16
  -7   2   6   40.68    3.92
  -7   2   7   15.26    2.61
  -7   2   7   16.38    2.81
  -7   2   8   79.03    5.24
  -7   2   8   70.43    4.72
  -7   2   9   28.20    3.31
  -7   2   9   23.89    2.53
  -7   2  10   66.32    4.37
  -7   2  11   84.42    4.27
  -7   2  12   38.70    2.17
  -7   3  -8  344.05    7.08
  -7   3  -7  254.73    7.48
  -7   3  -6   15.90    2.19
  -7   3  -6   23.40    2.81
  -7   3  -5   44.62    3.67
  -7   3  -5   42.84    3.42
  -7   3  -4  712.76   17.16
  -7   3  -4  708.90   16.75
  -7   3  -3  294.39   10.03
  -7   3  -3  291.81   10.16
  -7   3  -2    3.28    1.89
  -7   3  -2    4.08    2.26
  -7   3  -1   27.43    2.93
  -7   3  -1   29.22    3.05
  -7   3  -1   29.58    3.56
  -7   3   0  302.68    9.91
  -7   3   0  308.32   10.32
  -7   3   1  330.07   13.29
  -7   3   1  335.95   10.71
  -7   3   1  323.98   10.63
  -7   3   2  120.42    8.34
  -7   3   2  133.14    5.65
  -7   3   2  124.63    6.23
  -7   3   2  129.02    6.52
  -7   3   3   37.09    5.04
  -7   3   3   45.80    4.12
  -7   3   3   47.60    3.81
  -7   3   3   41.41    3.62
  -7   3   4  450.04   17.42
  -7   3   4  465.98   13.46
  -7   3   4  456.05   13.06
  -7   3   5  241.67    9.24
  -7   3   6  103.63    5.93
  -7   3   6  102.68    5.78
  -7   3   7   68.34    4.96
  -7   3   7   70.05    4.62
  -7   3   8  202.84    8.37
  -7   3   8  185.47    6.85
  -7   3   9   21.77    2.89
  -7   3  10   41.92    3.33
  -7   3  11  143.09    4.93
  -7   4  -8    9.98    1.27
  -7   4  -6  114.18    5.17
  -7   4  -6  116.25    4.92
  -7   4  -5   21.40    2.69
  -7   4  -5   22.27    2.76
  -7   4  -4   43.49    3.69
  -7   4  -4   51.04    4.24
  -7   4  -3  195.69    7.59
  -7   4  -3  195.07    8.27
  -7   4  -2   20.24    2.49
  -7   4  -2   24.25    2.95
  -7   4  -2   20.80    3.35
  -7   4  -1   41.81    4.69
  -7   4  -1   49.65    4.04
  -7   4  -1   50.73    4.40
  -7   4   0   80.86    6.55
  -7   4   0   89.04    5.47
  -7   4   0   77.67    5.09
  -7   4   1  108.57    8.05
  -7   4   1  109.10    6.17
  -7   4   1  114.10    5.95
  -7   4   2   80.49    7.27
  -7   4   2   84.56    5.51
  -7   4   2   83.67    4.96
  -7   4   2   72.73    4.67
  -7   4   3  144.37    9.64
  -7   4   3  147.21    6.84
  -7   4   3  147.34    7.21
  -7   4   3  138.11    5.82
  -7   4   4  598.99   20.78
  -7   4   4  628.31   16.27
  -7   4   4  632.11   16.35
  -7   4   5   39.00    4.03
  -7   4   5   36.98    3.68
  -7   4   6  255.84    9.69
  -7   4   6  246.20    8.74
  -7   4   7  145.06    7.09
  -7   4   7  127.65    5.58
  -7   4   8  102.47    5.73
  -7   4   9    6.97    1.97
  -7   4  10   25.17    2.29
  -7   4  11  178.56    4.32
  -7   5  -8   67.54    2.83
  -7   5  -7   75.85    3.25
  -7   5  -6  100.33    4.56
  -7   5  -6   94.99    4.68
  -7   5  -5  185.99    6.81
  -7   5  -5  186.44    7.42
  -7   5  -4    1.89    1.43
  -7   5  -4    2.62    2.13
  -7   5  -3   42.11    5.11
  -7   5  -3   45.44    3.37
  -7   5  -3   47.79    4.25
  -7   5  -3   44.75    3.69
  -7   5  -2   80.30    6.00
  -7   5  -2   86.67    5.51
  -7   5  -2   84.35    5.11
  -7   5  -1  318.72   13.09
  -7   5  -1  345.04   11.24
  -7   5  -1  355.18   11.35
  -7   5   0   46.33    5.35
  -7   5   0   47.73    4.25
  -7   5   0   44.97    3.88
  -7   5   1  209.07   11.37
  -7   5   1  219.12    8.11
  -7   5   1  230.41    9.18
  -7   5   1  216.42    8.10
  -7   5   2   13.27    2.73
  -7   5   2   16.97    2.36
  -7   5   2   18.15    2.75
  -7   5   3   47.04    5.65
  -7   5   3   49.25    4.28
  -7   5   3   51.31    4.39
  -7   5   4  114.08    8.31
  -7   5   4  111.60    6.46
  -7   5   4  120.11    6.26
  -7   5   5    9.36    2.24
  -7   5   5    9.08    2.61
  -7   5   6   64.77    4.73
  -7   5   6   55.52    3.69
  -7   5   7  253.38    9.11
  -7   5   8  143.65    6.11
  -7   5   9  234.52    6.91
  -7   5  10  133.59    3.70
  -7   6  -8   53.18    2.22
  -7   6  -7   57.86    2.80
  -7   6  -6   23.08    2.47
  -7   6  -5  187.45    5.99
  -7   6  -5  188.45    7.30
  -7   6  -4  488.58   11.22
  -7   6  -4  495.39   15.77
  -7   6  -4  535.36   13.96
  -7   6  -4  516.03   12.26
  -7   6  -3   31.44    3.67
  -7   6  -3   34.03    3.68
  -7   6  -3   34.90    3.35
  -7   6  -2    6.38    2.26
  -7   6  -2    3.30    2.26
  -7   6  -2    5.12    2.32
  -7   6  -1   68.14    6.08
  -7   6  -1   64.56    4.54
  -7   6  -1   64.61    4.97
  -7   6   0   84.37    6.96
  -7   6   0  106.62    5.36
  -7   6   0   92.53    5.02
  -7   6   0  110.68    6.28
  -7   6   1   52.51    5.71
  -7   6   1   60.21    4.31
  -7   6   1   53.81    3.54
  -7   6   1   57.97    4.69
  -7   6   2   74.53    6.62
  -7   6   2   86.64    5.51
  -7   6   2   88.65    5.46
  -7   6   3   70.73    6.32
  -7   6   3   70.31    4.98
  -7   6   3   67.77    4.65
  -7   6   4  119.43    7.53
  -7   6   4  112.45    5.47
  -7   6   4  107.32    6.11
  -7   6   5   20.26    2.88
  -7   6   5   20.30    2.23
  -7   6   6  161.21    6.97
  -7   6   7  318.92    9.19
  -7   6   8   50.15    2.87
  -7   7  -7   57.01    2.50
  -7   7  -6    3.13    1.28
  -7   7  -5  517.92   12.31
  -7   7  -5  509.52   10.86
  -7   7  -4  294.27    9.01
  -7   7  -4  281.67    8.34
  -7   7  -3  191.50    7.30
  -7   7  -3  185.76    7.08
  -7   7  -2   23.25    3.40
  -7   7  -2   25.91    3.08
  -7   7  -2   25.71    2.81
  -7   7  -1  117.99    7.34
  -7   7  -1  112.51    4.93
  -7   7  -1  115.69    6.13
  -7   7  -1  109.80    5.10
  -7   7   0  206.41    9.87
  -7   7   0  179.58    6.93
  -7   7   0  182.99    6.11
  -7   7   0  200.04    8.07
  -7   7   1   80.58    6.20
  -7   7   1   72.16    4.55
  -7   7   1   70.03    4.67
  -7   7   2  162.83    8.69
  -7   7   2  157.26    6.90
  -7   7   2  160.68    6.71
  -7   7   3   91.04    5.97
  -7   7   3   89.45    5.19
  -7   7   3   92.29    4.59
  -7   7   4  255.94    7.07
  -7   7   4  254.57    8.75
  -7   7   5  369.91   10.06
  -7   7   6  361.80    9.19
  -7   7   7   15.17    1.48
  -7   8  -6   52.86    2.35
  -7   8  -5  145.78    4.70
  -7   8  -5  142.72    4.29
  -7   8  -4   24.55    2.16
  -7   8  -4   23.74    2.20
  -7   8  -3   94.06    4.51
  -7   8  -3   95.33    4.04
  -7   8  -2  256.31    8.14
  -7   8  -2  246.47    6.74
  -7   8  -1   86.84    4.59
  -7   8  -1   75.57    3.67
  -7   8   0  255.53    7.66
  -7   8   0  263.89    8.21
  -7   8   1   90.03    4.56
  -7   8   1   92.48    4.41
  -7   8   2   60.82    3.72
  -7   8   2   65.77    3.32
  -7   8   3   60.99    2.51
  -7   8   3   65.06    3.69
  -7   8   4   83.74    3.76
  -7   8   5   47.65    2.48
  -7   9  -4   21.16    1.48
  -7   9  -3   39.61    2.25
  -7   9  -2   62.28    2.95
  -7   9  -1  358.29    7.75
  -7   9  -1  305.04    6.55
  -7   9   0  101.13    3.51
  -7   9   0  106.23    3.56
  -7   9   1   55.37    2.59
  -7   9   1   53.79    1.98
  -7   9   2  154.04    4.33
  -6  -7   4  103.05    3.54
  -6  -7   5   18.16    1.72
  -6  -7   6   49.54    2.62
  -6  -6  -1   21.99    1.57
  -6  -6   0   19.07    1.95
  -6  -6   1   41.72    2.96
  -6  -6   1   42.11    2.47
  -6  -6   2   23.05    2.54
  -6  -6   2   24.46    2.36
  -6  -6   3   66.34    3.80
  -6  -6   3   66.87    3.99
  -6  -6   4   45.98    3.09
  -6  -6   4   44.74    3.60
  -6  -6   5    0.26    1.19
  -6  -6   5    2.50    1.75
  -6  -6   6   77.95    4.61
  -6  -6   7   24.45    2.70
  -6  -6   7   26.85    2.13
  -6  -6   8  189.64    6.38
  -6  -6   8  223.20    6.28
  -6  -6   9   28.66    2.29
  -6  -6  10   46.07    2.46
  -6  -5  -3  148.97    3.96
  -6  -5  -2    5.60    1.32
  -6  -5  -1   37.99    2.42
  -6  -5  -1   49.56    3.02
  -6  -5   0    3.39    1.53
  -6  -5   0    1.82    1.42
  -6  -5   1   45.68    3.08
  -6  -5   1   45.79    3.65
  -6  -5   2  135.78    6.58
  -6  -5   3   47.60    4.19
  -6  -5   4   33.53    3.80
  -6  -5   4   36.48    3.27
  -6  -5   5   86.98    5.67
  -6  -5   6  195.46    8.09
  -6  -5   6  185.29    6.77
  -6  -5   7  153.33    6.82
  -6  -5   7  137.28    6.16
  -6  -5   8   46.20    3.49
  -6  -5   8   45.93    3.72
  -6  -5   9   23.34    2.71
  -6  -5  10   54.88    3.62
  -6  -5  11   84.27    3.79
  -6  -5  12  105.53    3.22
  -6  -4  -4   29.61    2.18
  -6  -4  -4   28.22    1.79
  -6  -4  -3   88.25    4.52
  -6  -4  -3   81.08    3.63
  -6  -4  -3   82.37    4.20
  -6  -4  -2   38.79    3.66
  -6  -4  -2   38.62    3.32
  -6  -4  -2   44.44    2.95
  -6  -4  -2   40.74    2.91
  -6  -4  -1   78.21    4.64
  -6  -4  -1   72.37    4.44
  -6  -4  -1   80.46    5.09
  -6  -4   0  129.30    6.51
  -6  -4   0  129.94    5.97
  -6  -4   0  143.44    6.86
  -6  -4   1   51.59    4.40
  -6  -4   1   47.39    3.58
  -6  -4   1   44.74    4.13
  -6  -4   2  166.71    7.85
  -6  -4   2  165.64    6.61
  -6  -4   3  198.16    8.64
  -6  -4   3  177.72    7.38
  -6  -4   4    0.02    2.13
  -6  -4   4    3.49    1.99
  -6  -4   5  148.81    7.39
  -6  -4   5  138.76    7.06
  -6  -4   5  145.49    6.28
  -6  -4   6    0.93    1.89
  -6  -4   6    3.27    1.87
  -6  -4   6    2.22    2.05
  -6  -4   7  113.07    5.90
  -6  -4   7  116.26    6.22
  -6  -4   8   12.34    2.36
  -6  -4   8   11.53    2.73
  -6  -4   9   55.58    4.52
  -6  -4  10   36.32    3.46
  -6  -4  11   13.01    1.68
  -6  -4  11   15.82    2.22
  -6  -4  12    1.61    0.99
  -6  -3  -6   63.46    2.40
  -6  -3  -5   81.11    3.84
  -6  -3  -4   20.68    2.64
  -6  -3  -3  134.18    6.56
  -6  -3  -3  122.01    5.31
  -6  -3  -2   72.94    5.09
  -6  -3  -2   67.34    4.47
  -6  -3  -1   69.05    4.88
  -6  -3  -1   69.22    4.99
  -6  -3   0  124.74    6.49
  -6  -3   0  123.76    6.64
  -6  -3   1  188.22    8.47
  -6  -3   1  185.84    7.67
  -6  -3   1  190.42    7.11
  -6  -3   2  111.51    6.44
  -6  -3   2  112.54    5.67
  -6  -3   2  106.99    5.76
  -6  -3   3   54.73    4.56
  -6  -3   3   49.82    4.12
  -6  -3   4  167.70    7.55
  -6  -3   4  159.16    7.40
  -6  -3   5  824.18   18.91
  -6  -3   5  786.90   19.54
  -6  -3   5  817.54   18.36
  -6  -3   6  404.79   12.07
  -6  -3   6  412.52   12.36
  -6  -3   6  431.80   13.18
  -6  -3   7  278.86    9.23
  -6  -3   7  289.39   10.31
  -6  -3   7  291.06   10.64
  -6  -3   8  418.32   13.04
  -6  -3   9   82.55    4.57
  -6  -3   9   77.91    5.39
  -6  -3  10  238.98    8.03
  -6  -3  10  240.27    9.04
  -6  -3  11  234.62    7.64
  -6  -3  11  241.54    8.22
  -6  -3  12   17.39    2.02
  -6  -3  12   16.81    1.91
  -6  -3  13   16.25    1.53
  -6  -2  -7    7.30    1.00
  -6  -2  -6   86.27    4.02
  -6  -2  -5  132.62    6.03
  -6  -2  -4   10.92    1.97
  -6  -2  -4   14.40    2.81
  -6  -2  -3  240.65    9.05
  -6  -2  -3  253.57    9.60
  -6  -2  -3  246.21    8.74
  -6  -2  -2   28.12    3.43
  -6  -2  -2   28.73    3.36
  -6  -2  -2   30.13    3.58
  -6  -2  -1    2.61    2.00
  -6  -2  -1    0.78    1.95
  -6  -2  -1    0.88    2.02
  -6  -2   0  131.22    6.92
  -6  -2   0  130.56    6.71
  -6  -2   0  121.99    6.20
  -6  -2   0  125.28    5.64
  -6  -2   1  126.43    5.84
  -6  -2   1  129.94    6.56
  -6  -2   1  126.84    6.01
  -6  -2   2  228.86    8.87
  -6  -2   2  266.77    9.21
  -6  -2   3 1003.58   23.53
  -6  -2   3  928.62   20.67
  -6  -2   3  930.18   18.92
  -6  -2   3  977.46   21.09
  -6  -2   4   35.72    4.61
  -6  -2   4   26.61    3.05
  -6  -2   4   32.49    3.19
  -6  -2   4   30.73    3.34
  -6  -2   5  144.97    8.61
  -6  -2   5  145.33    6.25
  -6  -2   5  135.79    6.61
  -6  -2   5  143.59    6.93
  -6  -2   6  349.15    9.83
  -6  -2   6  359.10   11.49
  -6  -2   6  353.16   11.37
  -6  -2   7  209.04    8.39
  -6  -2   7  196.88    8.46
  -6  -2   8  190.20    7.23
  -6  -2   8  179.01    7.70
  -6  -2   8  174.10    8.26
  -6  -2   9   75.80    4.79
  -6  -2   9   83.45    5.57
  -6  -2  10   44.45    3.85
  -6  -2  10   44.36    3.96
  -6  -2  11   56.70    4.10
  -6  -2  11   56.70    3.98
  -6  -2  12  139.91    5.72
  -6  -2  12  133.65    4.85
  -6  -2  13    9.15    1.53
  -6  -1  -7    4.59    1.45
  -6  -1  -6   33.81    2.51
  -6  -1  -6   31.86    2.31
  -6  -1  -6   37.81    3.39
  -6  -1  -5   60.47    5.37
  -6  -1  -5   61.05    4.07
  -6  -1  -5   62.94    3.95
  -6  -1  -4   63.90    4.67
  -6  -1  -4   64.13    5.94
  -6  -1  -4   55.95    5.09
  -6  -1  -4   65.18    4.56
  -6  -1  -3  215.84    9.59
  -6  -1  -3  210.91   10.65
  -6  -1  -3  223.42    9.16
  -6  -1  -3  234.32    8.90
  -6  -1  -2  236.46   11.10
  -6  -1  -2  249.30    9.88
  -6  -1  -2  242.98    9.25
  -6  -1  -1  536.85   15.17
  -6  -1  -1  522.78   16.76
  -6  -1  -1  528.93   14.38
  -6  -1   0  133.80    7.40
  -6  -1   0  150.21    7.21
  -6  -1   0  146.04    6.75
  -6  -1   1  180.63    7.66
  -6  -1   1  191.04    7.53
  -6  -1   2   63.68    4.34
  -6  -1   2   76.50    4.55
  -6  -1   3  590.79   17.17
  -6  -1   4   69.21    6.02
  -6  -1   4   57.83    3.95
  -6  -1   4   56.10    4.10
  -6  -1   5  196.42   10.28
  -6  -1   5  172.33    7.30
  -6  -1   5  181.64    7.44
  -6  -1   6  176.15   10.17
  -6  -1   6  177.15    7.36
  -6  -1   6  169.73    7.55
  -6  -1   7   24.45    2.69
  -6  -1   7   25.68    3.15
  -6  -1   7   27.79    3.44
  -6  -1   8  376.87   11.40
  -6  -1   8  382.00   11.00
  -6  -1   8  374.53   12.02
  -6  -1   9  281.42    9.85
  -6  -1   9  277.60   10.26
  -6  -1  10  178.34    7.82
  -6  -1  10  172.38    7.50
  -6  -1  11   33.96    3.53
  -6  -1  11   35.29    3.03
  -6  -1  12  143.11    6.10
  -6  -1  12  131.47    4.43
  -6  -1  13   54.84    3.07
  -6   0  -8  128.44    4.35
  -6   0  -7  114.78    4.03
  -6   0  -6   33.89    3.09
  -6   0  -6   37.00    4.19
  -6   0  -6   36.27    2.98
  -6   0  -5  201.46    8.12
  -6   0  -5  205.03   10.23
  -6   0  -5  199.54    9.24
  -6   0  -5  195.67    7.77
  -6   0  -4  265.35   11.13
  -6   0  -4  268.31   12.00
  -6   0  -4  271.38   10.20
  -6   0  -4  275.37    9.78
  -6   0  -3  111.97    7.59
  -6   0  -3  105.98    6.34
  -6   0  -3  104.85    6.66
  -6   0  -3  108.31    6.13
  -6   0  -2  258.51    9.93
  -6   0  -2  263.04   11.26
  -6   0  -2  265.64    9.45
  -6   0  -2  263.11    8.21
  -6   0  -1  241.86    9.16
  -6   0  -1  222.97    9.74
  -6   0  -1  236.03    8.65
  -6   0  -1  220.79    7.64
  -6   0   0   21.24    2.82
  -6   0   0   18.18    2.63
  -6   0   1   53.15    3.89
  -6   0   2   17.99    3.02
  -6   0   2   22.50    2.66
  -6   0   3  664.82   18.61
  -6   0   3  644.35   13.75
  -6   0   4   55.17    5.44
  -6   0   5   54.49    5.55
  -6   0   5   49.23    3.79
  -6   0   6   67.35    6.47
  -6   0   6   71.92    4.89
  -6   0   6   67.83    4.14
  -6   0   7  261.08    8.86
  -6   0   7  264.89    8.25
  -6   0   7  264.98    9.54
  -6   0   8  192.22    7.98
  -6   0   8  186.51    7.81
  -6   0   9   49.69    4.31
  -6   0   9   45.06    3.86
  -6   0  10  126.98    6.85
  -6   0  10  127.92    6.05
  -6   0  11  187.20    6.41
  -6   0  11  162.84    7.52
  -6   0  11  171.64    6.16
  -6   0  12   94.54    4.90
  -6   0  13   33.78    2.38
  -6   1  -9   80.23    2.79
  -6   1  -7   43.88    3.15
  -6   1  -7   33.59    2.84
  -6   1  -6  114.48    5.83
  -6   1  -6  110.76    6.60
  -6   1  -6  125.39    7.73
  -6   1  -6  108.96    5.61
  -6   1  -5   15.10    3.07
  -6   1  -5   13.16    3.39
  -6   1  -5   18.62    3.06
  -6   1  -5   13.68    2.65
  -6   1  -4  427.76   15.50
  -6   1  -4  470.63   15.16
  -6   1  -4  446.79   13.67
  -6   1  -3 1218.03   28.21
  -6   1  -3 1228.40   26.69
  -6   1  -3 1200.72   23.11
  -6   1  -2   98.28    6.51
  -6   1  -2  101.88    5.92
  -6   1  -2   96.74    5.05
  -6   1  -1  132.15    6.33
  -6   1   0  189.79    7.16
  -6   1   1  227.84    7.56
  -6   1   2  322.85   11.03
  -6   1   2  305.28    8.15
  -6   1   3  144.81    8.11
  -6   1   4  296.59   12.39
  -6   1   5   71.20    6.30
  -6   1   5   71.31    4.58
  -6   1   6   95.39    7.52
  -6   1   6   99.46    5.03
  -6   1   6  102.54    5.53
  -6   1   7  189.86    7.87
  -6   1   7  181.22    7.64
  -6   1   8  233.16    9.16
  -6   1   8  229.30    8.54
  -6   1   9  212.33    8.97
  -6   1   9  208.36    7.69
  -6   1  10   13.87    2.75
  -6   1  11   30.64    2.68
  -6   1  11   30.54    3.36
  -6   1  12  119.85    4.09
  -6   1  12  123.44    5.33
  -6   1  13   43.47    2.30
  -6   2  -8   91.01    3.99
  -6   2  -7   21.51    2.63
  -6   2  -7   20.50    3.34
  -6   2  -7   22.15    2.74
  -6   2  -6  141.35    8.42
  -6   2  -6  162.25    7.32
  -6   2  -5  103.31    6.20
  -6   2  -5  111.17    7.55
  -6   2  -5  112.03    5.25
  -6   2  -4   94.16    6.97
  -6   2  -4  101.48    6.28
  -6   2  -4  112.25    5.54
  -6   2  -3  407.00   13.99
  -6   2  -3  421.59   12.80
  -6   2  -3  413.51   11.65
  -6   2  -2  508.28   13.84
  -6   2  -2  508.10   13.08
  -6   2  -1   18.06    2.57
  -6   2   0  550.33   12.98
  -6   2   0  529.73   15.50
  -6   2   1  490.45   15.49
  -6   2   1  511.32   11.39
  -6   2   2  273.81   11.62
  -6   2   3  267.47   11.12
  -6   2   3  255.29   11.71
  -6   2   4  107.69    7.42
  -6   2   4   99.77    7.73
  -6   2   5  458.00   12.33
  -6   2   5  448.94   12.49
  -6   2   6  553.08   14.27
  -6   2   6  507.46   13.59
  -6   2   7  531.97   14.68
  -6   2   7  525.09   13.75
  -6   2   8  105.42    6.31
  -6   2   8  107.84    5.36
  -6   2   9   73.14    5.29
  -6   2  10  109.85    6.23
  -6   2  11   62.61    4.24
  -6   2  12  156.71    5.36
  -6   3  -9  193.68    4.98
  -6   3  -8   57.54    3.46
  -6   3  -7   58.09    4.90
  -6   3  -7   56.49    4.06
  -6   3  -6  171.89    9.19
  -6   3  -6  183.98    7.95
  -6   3  -6  179.65    6.78
  -6   3  -5  174.31    9.23
  -6   3  -5  171.81    7.95
  -6   3  -5  173.30    9.96
  -6   3  -5  177.37    7.20
  -6   3  -4   97.15    7.90
  -6   3  -4  114.26    6.37
  -6   3  -4  110.58    5.88
  -6   3  -3   40.58    5.42
  -6   3  -3   47.37    4.19
  -6   3  -3   49.62    4.03
  -6   3  -2   28.60    3.23
  -6   3  -2   27.87    4.58
  -6   3  -2   28.27    3.19
  -6   3  -1  405.27   13.80
  -6   3  -1  397.36   15.71
  -6   3  -1  420.76   11.10
  -6   3  -1  418.02   11.61
  -6   3   0  101.87    4.59
  -6   3   0  100.44    6.84
  -6   3   1   52.26    5.28
  -6   3   2   45.95    5.26
  -6   3   3  317.90   13.77
  -6   3   4   29.99    4.76
  -6   3   4   35.10    3.39
  -6   3   4   34.06    3.35
  -6   3   5  190.44   10.95
  -6   3   5  209.67    7.85
  -6   3   5  215.06    8.44
  -6   3   6  514.12   14.22
  -6   3   6  487.62   12.89
  -6   3   7   31.60    3.86
  -6   3   7   32.61    3.05
  -6   3   8  139.21    7.37
  -6   3   9  229.78    9.32
  -6   3  10   75.31    4.79
  -6   3  11   11.87    1.94
  -6   3  12    4.18    0.97
  -6   4  -9   99.27    3.76
  -6   4  -8   10.96    1.93
  -6   4  -7   58.87    4.17
  -6   4  -7   52.33    4.51
  -6   4  -7   58.75    5.00
  -6   4  -7   58.49    3.67
  -6   4  -6  312.65   13.04
  -6   4  -6  325.04   10.83
  -6   4  -6  325.10   10.03
  -6   4  -5    0.39    2.41
  -6   4  -5    4.23    2.32
  -6   4  -5    2.73    2.13
  -6   4  -4   45.61    5.75
  -6   4  -4   50.13    4.33
  -6   4  -3   40.69    5.63
  -6   4  -3   44.91    3.90
  -6   4  -3   42.57    3.47
  -6   4  -2  102.49    6.88
  -6   4  -2  105.29    8.17
  -6   4  -2  112.89    5.58
  -6   4  -2  116.32    5.61
  -6   4  -1   77.04    6.74
  -6   4  -1   78.36    4.24
  -6   4  -1   80.18    6.45
  -6   4  -1   78.45    4.94
  -6   4  -1   80.97    4.87
  -6   4   0  367.40   12.72
  -6   4   0  341.05   13.73
  -6   4   0  363.29   14.40
  -6   4   0  375.42   10.55
  -6   4   0  384.09   11.08
  -6   4   1  728.72   20.29
  -6   4   1  714.42   21.99
  -6   4   1  741.25   15.89
  -6   4   1  738.45   17.23
  -6   4   2  165.00   10.04
  -6   4   2  173.77    6.88
  -6   4   2  173.04    7.20
  -6   4   3  755.38   23.17
  -6   4   3  749.15   17.49
  -6   4   3  766.96   17.76
  -6   4   4  379.43   15.63
  -6   4   4  387.56   11.92
  -6   4   4  367.40   11.13
  -6   4   5 1183.74   30.22
  -6   4   5 1160.39   23.48
  -6   4   5 1202.12   25.16
  -6   4   6   63.56    4.89
  -6   4   6   58.08    3.91
  -6   4   7  145.93    7.52
  -6   4   8   76.88    5.38
  -6   4   9   15.12    2.65
  -6   4  10   45.57    3.30
  -6   4  11   65.45    2.85
  -6   5  -8    7.09    1.56
  -6   5  -8    3.70    1.19
  -6   5  -7   39.81    4.36
  -6   5  -7   35.64    3.20
  -6   5  -7   39.91    3.25
  -6   5  -6   50.85    4.05
  -6   5  -6   53.95    5.40
  -6   5  -6   46.22    4.09
  -6   5  -5  135.82    9.00
  -6   5  -4  127.27    8.97
  -6   5  -4  122.23    5.92
  -6   5  -3  113.28    8.36
  -6   5  -3   99.00    6.99
  -6   5  -3  104.32    5.72
  -6   5  -2  664.12   20.88
  -6   5  -2  675.30   20.37
  -6   5  -2  672.07   16.50
  -6   5  -1  182.53    9.79
  -6   5  -1  186.98   10.45
  -6   5  -1  171.36    7.52
  -6   5   0   66.46    5.83
  -6   5   0   70.27    6.63
  -6   5   0   77.67    6.05
  -6   5   0   70.34    4.95
  -6   5   0   77.74    4.48
  -6   5   0   73.69    4.49
  -6   5   1   20.96    3.79
  -6   5   1   21.24    4.13
  -6   5   1   24.95    3.31
  -6   5   1   20.20    2.81
  -6   5   1   22.13    2.46
  -6   5   2  235.75   11.58
  -6   5   2  242.65   12.49
  -6   5   2  224.81    8.70
  -6   5   2  217.34    8.55
  -6   5   3  370.19   15.53
  -6   5   3  358.22   11.67
  -6   5   3  367.15   11.28
  -6   5   4  127.57    8.77
  -6   5   4  127.83    6.83
  -6   5   4  133.43    6.27
  -6   5   5  122.17    8.19
  -6   5   5  124.45    5.72
  -6   5   5  119.28    6.69
  -6   5   6   30.97    3.66
  -6   5   7  125.51    6.66
  -6   5   7  126.83    6.30
  -6   5   8  167.01    7.19
  -6   5   9  135.97    5.60
  -6   5  10    6.06    1.22
  -6   6  -8  194.51    5.83
  -6   6  -7   77.16    4.13
  -6   6  -7   82.87    4.47
  -6   6  -6  102.60    6.96
  -6   6  -5  213.63   10.70
  -6   6  -5  210.88    7.53
  -6   6  -4  140.12    7.86
  -6   6  -4  137.69    8.77
  -6   6  -4  136.34    6.49
  -6   6  -3  121.36    8.00
  -6   6  -3  123.75    8.35
  -6   6  -3  129.35    6.65
  -6   6  -2  167.71    9.94
  -6   6  -2  188.96    9.79
  -6   6  -2  184.65    8.07
  -6   6  -1  118.51    7.41
  -6   6  -1  114.72    8.44
  -6   6  -1  131.97    7.86
  -6   6  -1  133.45    6.99
  -6   6  -1  120.86    5.81
  -6   6   0   39.90    4.74
  -6   6   0   39.69    5.27
  -6   6   0   46.07    4.20
  -6   6   0   45.57    3.48
  -6   6   0   44.86    3.86
  -6   6   1   18.35    3.70
  -6   6   1   19.59    4.09
  -6   6   1   18.68    3.04
  -6   6   1   13.92    2.66
  -6   6   2  665.81   20.61
  -6   6   2  655.09   21.35
  -6   6   2  660.23   17.08
  -6   6   2  656.95   16.34
  -6   6   3  142.45    9.21
  -6   6   3  148.86    6.65
  -6   6   3  151.37    7.52
  -6   6   3  146.46    6.59
  -6   6   4   65.02    5.83
  -6   6   4   70.72    4.33
  -6   6   4   61.78    4.92
  -6   6   5  296.55   11.59
  -6   6   5  295.41   10.45
  -6   6   6  157.92    6.97
  -6   6   7   42.41    3.52
  -6   6   8   10.41    1.78
  -6   6   9  116.33    3.66
  -6   7  -8   69.86    3.12
  -6   7  -7  109.17    4.88
  -6   7  -6  375.56    9.51
  -6   7  -5  166.81    8.47
  -6   7  -5  165.35    6.69
  -6   7  -4  108.22    7.02
  -6   7  -4  105.91    6.76
  -6   7  -4  102.33    5.79
  -6   7  -3    7.66    2.39
  -6   7  -3   12.06    3.25
  -6   7  -3   10.59    3.03
  -6   7  -2   78.97    6.71
  -6   7  -2   84.91    5.62
  -6   7  -2   77.01    4.52
  -6   7  -2   76.72    5.40
  -6   7  -1   10.24    2.47
  -6   7  -1    7.40    2.75
  -6   7  -1    7.38    2.56
  -6   7  -1   10.11    2.19
  -6   7  -1   10.52    2.24
  -6   7   0   50.04    5.00
  -6   7   0   48.88    5.61
  -6   7   0   60.46    4.58
  -6   7   0   53.16    4.53
  -6   7   1   16.09    3.36
  -6   7   1   17.84    3.68
  -6   7   1   21.15    2.98
  -6   7   1   17.76    3.17
  -6   7   2   84.16    6.69
  -6   7   2   79.98    4.54
  -6   7   2   85.98    5.62
  -6   7   2   93.32    5.10
  -6   7   3  223.88   10.32
  -6   7   3  221.01    8.98
  -6   7   3  219.98    7.46
  -6   7   4  114.69    6.34
  -6   7   4  124.90    6.34
  -6   7   5  194.79    7.42
  -6   7   6  120.39    5.36
  -6   7   6  109.77    4.73
  -6   7   7  107.35    4.18
  -6   8  -8   46.20    2.00
  -6   8  -7  330.32    7.78
  -6   8  -7  300.99    6.03
  -6   8  -6  200.88    6.53
  -6   8  -6  201.15    6.00
  -6   8  -5   -0.49    1.40
  -6   8  -4  630.74   14.97
  -6   8  -3  100.30    6.50
  -6   8  -3  107.11    4.89
  -6   8  -3  104.84    4.54
  -6   8  -3   99.38    5.52
  -6   8  -2   65.84    5.52
  -6   8  -2   64.83    4.62
  -6   8  -2   60.77    3.81
  -6   8  -2   66.84    3.72
  -6   8  -1   25.70    3.62
  -6   8  -1   32.16    3.29
  -6   8  -1   31.47    3.29
  -6   8   0  249.74   10.74
  -6   8   0  256.61    8.71
  -6   8   0  255.23    8.95
  -6   8   1  107.29    6.68
  -6   8   1  117.31    6.03
  -6   8   1  116.35    5.26
  -6   8   2   26.72    2.34
  -6   8   2   20.90    2.92
  -6   8   3   62.38    4.15
  -6   8   4    4.74    1.53
  -6   8   5  291.91    7.35
  -6   8   6   25.03    1.61
  -6   9  -6   75.14    2.76
  -6   9  -6   78.85    2.76
  -6   9  -5   29.02    1.91
  -6   9  -5   30.04    2.18
  -6   9  -4  143.04    4.37
  -6   9  -4  160.13    5.50
  -6   9  -3   13.51    2.07
  -6   9  -3    9.14    1.24
  -6   9  -2  152.87    5.25
  -6   9  -2  168.65    5.95
  -6   9  -1  183.65    6.21
  -6   9  -1  184.15    6.06
  -6   9   0   84.56    4.22
  -6   9   0   81.49    3.60
  -6   9   1   20.35    2.25
  -6   9   1   20.56    1.54
  -6   9   2  130.85    4.88
  -6   9   3    2.06    1.05
  -5  -8   4   62.82    2.38
  -5  -7   0   32.79    2.32
  -5  -7   1   59.03    3.51
  -5  -7   2   48.55    2.86
  -5  -7   2   48.40    3.48
  -5  -7   3    9.41    1.83
  -5  -7   3   11.62    2.14
  -5  -7   4   21.83    2.54
  -5  -7   4   24.00    2.66
  -5  -7   5  308.65    8.68
  -5  -7   5  331.32    9.68
  -5  -7   6   40.50    2.77
  -5  -7   6   51.20    3.80
  -5  -7   7   15.40    2.33
  -5  -7   7   13.11    1.73
  -5  -7   8  261.52    6.99
  -5  -7   9   89.45    3.74
  -5  -7  10   39.15    2.22
  -5  -6  -3   31.80    1.82
  -5  -6  -2  146.80    4.96
  -5  -6  -2  128.60    4.06
  -5  -6  -1   45.97    2.66
  -5  -6  -1   51.12    3.31
  -5  -6   0   48.99    2.86
  -5  -6   0   51.25    3.51
  -5  -6   0   48.62    3.00
  -5  -6   1    2.73    1.62
  -5  -6   1    2.56    1.52
  -5  -6   2  104.55    4.83
  -5  -6   2  100.37    5.43
  -5  -6   3   41.30    3.89
  -5  -6   4    6.13    2.29
  -5  -6   4    9.30    2.58
  -5  -6   5   13.18    2.49
  -5  -6   5   10.41    2.71
  -5  -6   6    2.98    1.77
  -5  -6   6    6.90    2.49
  -5  -6   6    5.03    1.73
  -5  -6   7   21.25    3.12
  -5  -6   7   23.82    2.88
  -5  -6   8  157.43    6.85
  -5  -6   8  175.26    7.02
  -5  -6   9  104.07    5.31
  -5  -6  10    1.70    1.55
  -5  -6  11   15.89    1.90
  -5  -6  12   32.52    1.82
  -5  -5  -4  246.25    6.57
  -5  -5  -4  263.54    7.10
  -5  -5  -3   68.14    4.13
  -5  -5  -3   60.73    3.56
  -5  -5  -2   26.26    2.70
  -5  -5  -2   23.51    2.94
  -5  -5  -1   20.94    2.95
  -5  -5  -1   16.42    2.47
  -5  -5  -1   11.66    2.03
  -5  -5   0  287.61    9.59
  -5  -5   0  262.57    9.06
  -5  -5   0  270.08    8.44
  -5  -5   1   33.32    3.33
  -5  -5   1   37.83    3.77
  -5  -5   2   43.08    3.51
  -5  -5   2   48.57    4.29
  -5  -5   3   24.21    3.49
  -5  -5   4  716.62   18.26
  -5  -5   5  161.63    8.00
  -5  -5   5  169.06    7.13
  -5  -5   5  169.03    6.92
  -5  -5   6  226.35    9.26
  -5  -5   6  229.62    8.60
  -5  -5   7   55.06    4.50
  -5  -5   7   59.04    4.59
  -5  -5   8  162.76    7.24
  -5  -5   8  163.42    7.60
  -5  -5   9  127.59    5.86
  -5  -5   9  135.73    6.97
  -5  -5  10   34.78    2.94
  -5  -5  10   31.69    3.45
  -5  -5  11   47.40    3.50
  -5  -5  12   54.38    2.93
  -5  -4  -6   94.53    3.44
  -5  -4  -6   91.53    3.26
  -5  -4  -5  180.00    6.17
  -5  -4  -5  176.39    6.15
  -5  -4  -5  166.00    5.78
  -5  -4  -4   54.30    3.95
  -5  -4  -3  103.21    5.96
  -5  -4  -2   66.29    4.24
  -5  -4  -2   81.71    5.45
  -5  -4  -1  109.28    5.79
  -5  -4  -1  122.97    6.70
  -5  -4   0  164.50    7.35
  -5  -4   0  169.46    7.78
  -5  -4   1  312.94   10.49
  -5  -4   1  302.22   10.49
  -5  -4   2   34.81    3.60
  -5  -4   2   36.45    3.85
  -5  -4   2   40.38    3.37
  -5  -4   3  214.37    8.70
  -5  -4   3  207.04    7.97
  -5  -4   4  938.65   20.89
  -5  -4   4  877.98   20.16
  -5  -4   5  297.00   10.31
  -5  -4   5  296.76   10.34
  -5  -4   5  300.92    9.65
  -5  -4   6  224.87    8.78
  -5  -4   6  218.40    8.86
  -5  -4   6  222.40    8.53
  -5  -4   7  546.35   14.52
  -5  -4   7  545.16   15.17
  -5  -4   8    2.39    2.09
  -5  -4   8    3.35    2.22
  -5  -4   9   67.38    4.45
  -5  -4   9   62.59    4.00
  -5  -4   9   60.38    4.98
  -5  -4  10  164.03    6.94
  -5  -4  10  160.80    7.53
  -5  -4  11   45.51    3.70
  -5  -4  11   47.32    3.85
  -5  -4  12  128.05    5.40
  -5  -4  12  130.16    5.07
  -5  -4  13  127.36    4.48
  -5  -3  -7   91.94    3.35
  -5  -3  -6   39.29    2.96
  -5  -3  -5  155.61    6.77
  -5  -3  -4    4.55    2.22
  -5  -3  -3   49.85    3.79
  -5  -3  -3   48.08    4.44
  -5  -3  -2   47.11    4.32
  -5  -3  -2   48.39    3.99
  -5  -3  -1  531.47   14.43
  -5  -3  -1  520.44   13.95
  -5  -3   0  714.93   17.17
  -5  -3   0  729.98   17.29
  -5  -3   1  485.99   12.63
  -5  -3   1  500.05   13.47
  -5  -3   2  338.40   12.31
  -5  -3   2  347.64   10.54
  -5  -3   2  309.00    9.12
  -5  -3   2  311.73    9.18
  -5  -3   3  432.73   15.07
  -5  -3   3  421.61   11.77
  -5  -3   3  406.93   11.19
  -5  -3   4   38.19    4.77
  -5  -3   4   37.54    3.35
  -5  -3   4   37.36    3.36
  -5  -3   5  219.25   11.20
  -5  -3   5  230.31    8.04
  -5  -3   5  226.92    7.90
  -5  -3   5  221.33    8.37
  -5  -3   6    3.54    2.56
  -5  -3   6    1.57    1.57
  -5  -3   6    1.53    1.73
  -5  -3   6    3.26    2.12
  -5  -3   7  148.39    6.17
  -5  -3   7  151.67    7.26
  -5  -3   7  158.50    7.19
  -5  -3   8   -0.80    1.98
  -5  -3   8   -1.59    2.06
  -5  -3   9  113.24    6.02
  -5  -3   9  116.94    6.62
  -5  -3  10   19.82    3.05
  -5  -3  10   24.19    3.18
  -5  -3  11   10.85    2.66
  -5  -3  11   14.75    2.51
  -5  -3  12   51.92    3.92
  -5  -3  12   51.84    3.20
  -5  -3  13   77.63    3.97
  -5  -3  14  135.36    3.86
  -5  -2  -8   11.64    1.12
  -5  -2  -8   13.48    1.27
  -5  -2  -7   23.20    2.39
  -5  -2  -6   21.36    3.42
  -5  -2  -6   29.65    3.14
  -5  -2  -5   72.42    6.51
  -5  -2  -5   85.20    6.62
  -5  -2  -5   82.71    4.71
  -5  -2  -5   86.56    5.56
  -5  -2  -4   13.73    3.23
  -5  -2  -4   15.48    2.70
  -5  -2  -4   13.61    3.68
  -5  -2  -4    9.22    2.13
  -5  -2  -3    9.35    3.19
  -5  -2  -3   14.10    2.80
  -5  -2  -3   20.64    3.84
  -5  -2  -3   16.97    2.67
  -5  -2  -2  205.66   10.08
  -5  -2  -2  210.01    8.67
  -5  -2  -2  188.78   10.63
  -5  -2  -2  201.62    7.84
  -5  -2  -1    5.20    2.37
  -5  -2  -1    1.91    2.40
  -5  -2  -1    3.04    2.09
  -5  -2  -1    2.94    1.80
  -5  -2   0  488.66   13.46
  -5  -2   0  468.23   14.04
  -5  -2   0  469.54   15.47
  -5  -2   1  451.67   13.52
  -5  -2   1  432.78   12.22
  -5  -2   2  242.18   10.24
  -5  -2   3   27.96    4.09
  -5  -2   4  103.34    7.21
  -5  -2   5  173.16    9.50
  -5  -2   6  334.22   13.87
  -5  -2   7  545.43   18.42
  -5  -2   7  487.09   12.16
  -5  -2   7  523.95   13.87
  -5  -2   7  505.55   13.07
  -5  -2   8   21.92    2.98
  -5  -2   8   28.26    3.29
  -5  -2   8   21.29    2.71
  -5  -2   9  302.71    9.92
  -5  -2   9  290.81   10.24
  -5  -2   9  306.29   10.42
  -5  -2  10   25.92    3.39
  -5  -2  10   25.99    3.58
  -5  -2  10   25.33    3.17
  -5  -2  11  282.89   10.32
  -5  -2  11  275.92    8.98
  -5  -2  12  235.34    8.77
  -5  -2  12  233.83    6.80
  -5  -2  13   40.29    3.15
  -5  -2  14  131.81    4.00
  -5  -1  -8   42.41    2.83
  -5  -1  -6  178.45    9.81
  -5  -1  -6  180.36    9.56
  -5  -1  -6  168.58    6.80
  -5  -1  -5   90.66    7.51
  -5  -1  -5   81.88    6.83
  -5  -1  -5   99.28    5.62
  -5  -1  -5   93.26    5.09
  -5  -1  -4  147.43    9.47
  -5  -1  -4  127.39    6.75
  -5  -1  -4  129.18    8.42
  -5  -1  -4  125.53    6.07
  -5  -1  -3  116.00    6.36
  -5  -1  -3  118.82    7.73
  -5  -1  -3  102.11    7.84
  -5  -1  -3  119.48    5.88
  -5  -1  -2  349.70   13.65
  -5  -1  -2  336.94   12.48
  -5  -1  -2  348.26   11.24
  -5  -1  -1  135.36    7.19
  -5  -1  -1  154.43    8.14
  -5  -1  -1  154.26    6.89
  -5  -1   0  177.81    7.04
  -5  -1   0  176.06    8.18
  -5  -1   1  215.52    8.51
  -5  -1   1  207.80    8.04
  -5  -1   1  194.36    7.14
  -5  -1   2  366.43   12.18
  -5  -1   2  377.56    9.88
  -5  -1   3    7.68    2.55
  -5  -1   4  407.99   14.26
  -5  -1   5 1175.05   28.27
  -5  -1   6  107.53    7.55
  -5  -1   7  361.00   14.47
  -5  -1   7  345.07   10.39
  -5  -1   8  530.84   18.06
  -5  -1   8  524.61   14.04
  -5  -1   8  496.35   13.48
  -5  -1   9  102.69    5.56
  -5  -1   9  100.43    5.92
  -5  -1   9   95.02    5.54
  -5  -1  10   12.05    2.86
  -5  -1  10   12.83    2.80
  -5  -1  10   10.72    2.33
  -5  -1  11   92.11    5.56
  -5  -1  11   98.06    6.01
  -5  -1  11   99.53    4.87
  -5  -1  12   85.80    4.91
  -5  -1  12   84.53    5.29
  -5  -1  13   62.79    3.77
  -5  -1  14  118.11    3.64
  -5   0  -9   55.05    2.84
  -5   0  -7   28.01    2.86
  -5   0  -7   23.30    3.63
  -5   0  -7   25.30    3.89
  -5   0  -7   22.95    2.44
  -5   0  -6   65.90    6.29
  -5   0  -6   60.86    5.80
  -5   0  -6   64.37    4.56
  -5   0  -6   64.71    4.31
  -5   0  -5  395.07   12.47
  -5   0  -5  405.40   15.39
  -5   0  -5  412.55   16.24
  -5   0  -5  410.93   11.82
  -5   0  -4  282.74   13.13
  -5   0  -4  292.00   10.36
  -5   0  -4  294.82   12.58
  -5   0  -3  145.66    8.81
  -5   0  -3  156.85    7.21
  -5   0  -3  158.95    8.54
  -5   0  -2 1467.68   27.93
  -5   0  -2 1447.07   29.93
  -5   0  -2 1446.41   31.23
  -5   0  -1  150.17    6.28
  -5   0  -1  149.19    6.87
  -5   0  -1  149.81    7.40
  -5   0   0  238.27    7.69
  -5   0   0  239.16    8.59
  -5   0   1  568.92   14.40
  -5   0   1  528.31   12.14
  -5   0   2  743.17   18.01
  -5   0   2  695.82   14.01
  -5   0   3 1394.33   28.67
  -5   0   3 1304.96   22.09
  -5   0   4  457.41   15.09
  -5   0   5  129.77    8.13
  -5   0   6  321.95   13.35
  -5   0   7  125.30    8.46
  -5   0   8  125.55    8.49
  -5   0   8  134.24    6.64
  -5   0   8  132.15    5.89
  -5   0   9  121.13    5.97
  -5   0   9  127.16    6.81
  -5   0   9  109.64    5.39
  -5   0  10  283.94    9.89
  -5   0  10  292.97   10.87
  -5   0  10  278.59    8.92
  -5   0  11   49.23    4.11
  -5   0  11   58.07    4.76
  -5   0  12   39.54    3.38
  -5   0  12   36.47    3.48
  -5   0  13   65.12    3.45
  -5   0  13   60.83    3.49
  -5   1 -10  112.25    3.18
  -5   1  -8   50.88    4.88
  -5   1  -8   50.11    3.33
  -5   1  -8   44.81    3.03
  -5   1  -7  248.44    8.94
  -5   1  -7  277.62   12.04
  -5   1  -7  255.36   11.93
  -5   1  -6   16.15    3.85
  -5   1  -6   16.80    2.85
  -5   1  -5 1448.50   34.07
  -5   1  -5 1417.30   28.90
  -5   1  -5 1421.95   30.71
  -5   1  -4  298.60   12.82
  -5   1  -4  311.64   10.68
  -5   1  -3  192.86    9.67
  -5   1  -3  209.74    8.18
  -5   1  -3  204.81    9.68
  -5   1  -2   43.40    4.26
  -5   1  -2   46.42    4.88
  -5   1  -2   51.29    3.88
  -5   1  -1  180.25    6.53
  -5   1  -1  180.77    7.51
  -5   1   0  198.97    6.47
  -5   1   0  198.43    7.44
  -5   1   1  474.42   10.32
  -5   1   1  461.66   13.34
  -5   1   1  485.18   13.00
  -5   1   2  267.64    9.94
  -5   1   2  278.44   10.02
  -5   1   3   87.26    5.91
  -5   1   3   91.04    6.03
  -5   1   4   66.83    5.40
  -5   1   4   69.25    5.66
  -5   1   5   73.77    6.19
  -5   1   6  530.37   17.85
  -5   1   7  471.16   16.75
  -5   1   7  435.27   12.15
  -5   1   8   77.30    5.18
  -5   1   8   71.48    4.10
  -5   1   9  404.06   11.53
  -5   1   9  390.23   12.60
  -5   1  10    9.83    2.38
  -5   1  10    9.88    2.54
  -5   1  11  184.43    7.39
  -5   1  11  158.38    7.47
  -5   1  12   45.12    3.48
  -5   1  12   44.99    3.46
  -5   1  13  215.67    5.89
  -5   1  13  197.12    5.64
  -5   2  -9    2.68    1.25
  -5   2  -9    2.09    1.12
  -5   2  -8   65.96    5.69
  -5   2  -8   58.02    3.90
  -5   2  -7   26.24    4.15
  -5   2  -7   27.21    3.22
  -5   2  -6   28.07    4.47
  -5   2  -6   20.95    3.56
  -5   2  -6   25.91    3.43
  -5   2  -5  523.57   14.82
  -5   2  -5  526.93   17.26
  -5   2  -5  508.81   12.13
  -5   2  -4  591.50   15.36
  -5   2  -4  558.48   18.25
  -5   2  -3  447.74   15.81
  -5   2  -3  461.63   12.56
  -5   2  -2   39.90    3.26
  -5   2  -2   33.31    4.35
  -5   2  -1  494.72   11.58
  -5   2  -1  477.10   13.10
  -5   2   0  147.25    5.11
  -5   2   0  152.91    7.13
  -5   2   0  140.50    7.72
  -5   2   1  660.68   12.43
  -5   2   1  649.80   17.15
  -5   2   1  658.54   16.05
  -5   2   2  364.43   12.71
  -5   2   2  388.33   12.20
  -5   2   3   60.82    5.18
  -5   2   3   58.07    5.04
  -5   2   4  367.91   13.67
  -5   2   4  389.36   13.94
  -5   2   5 1003.24   25.76
  -5   2   5 1080.57   26.72
  -5   2   6  143.01    7.18
  -5   2   7   27.58    3.35
  -5   2   7   21.08    3.03
  -5   2   8  108.76    5.25
  -5   2   8  106.74    6.11
  -5   2   9  233.53    8.51
  -5   2   9  222.20    9.30
  -5   2  10  103.04    5.52
  -5   2  10  106.80    6.22
  -5   2  11   20.72    2.75
  -5   2  11   18.21    2.61
  -5   2  12   37.57    2.80
  -5   2  12   36.87    2.72
  -5   2  13   13.62    1.24
  -5   3  -9  167.33    6.01
  -5   3  -8    4.21    2.58
  -5   3  -8    4.33    1.74
  -5   3  -7   84.06    6.41
  -5   3  -7   91.53    5.68
  -5   3  -6  177.19    9.87
  -5   3  -6  180.97    8.20
  -5   3  -5  546.99   18.52
  -5   3  -5  520.05   18.25
  -5   3  -4   48.58    5.34
  -5   3  -4   50.40    5.77
  -5   3  -3  334.40   13.20
  -5   3  -3  344.42   14.01
  -5   3  -2  361.03   12.70
  -5   3  -2  355.51   13.67
  -5   3  -2  362.83   11.84
  -5   3  -1  627.80   16.61
  -5   3  -1  659.31   17.35
  -5   3  -1  686.01   18.99
  -5   3   0   95.02    5.56
  -5   3   0   95.89    6.25
  -5   3   0  100.93    6.50
  -5   3   1  494.44   14.89
  -5   3   1  513.32   14.63
  -5   3   1  507.90   15.69
  -5   3   2  418.01   14.01
  -5   3   2  426.08   14.49
  -5   3   3  232.97   10.61
  -5   3   4   38.46    3.64
  -5   3   4   45.42    5.00
  -5   3   5  411.95   13.21
  -5   3   5  410.53   15.09
  -5   3   6  541.96   15.85
  -5   3   6  510.43   13.55
  -5   3   7  425.54   13.83
  -5   3   7  385.04   11.79
  -5   3   8    6.12    1.99
  -5   3   8    2.82    1.88
  -5   3   9   98.47    5.36
  -5   3   9   88.53    5.71
  -5   3  10   71.57    4.46
  -5   3  10   66.70    4.60
  -5   3  11  207.54    6.80
  -5   3  11  194.30    6.74
  -5   3  12   67.82    2.96
  -5   3  12   54.47    2.42
  -5   4  -9   40.42    3.13
  -5   4  -8  137.93    6.46
  -5   4  -8  145.48    7.64
  -5   4  -8  133.64    5.41
  -5   4  -7   60.03    5.58
  -5   4  -7   63.11    5.87
  -5   4  -6  690.08   20.84
  -5   4  -6  629.93   20.87
  -5   4  -5  412.28   15.74
  -5   4  -5  431.17   16.90
  -5   4  -4   29.71    4.22
  -5   4  -4   28.19    4.73
  -5   4  -3   73.05    5.96
  -5   4  -3   80.32    5.90
  -5   4  -3   81.54    6.97
  -5   4  -2  374.69   12.66
  -5   4  -2  387.99   14.59
  -5   4  -2  384.60   13.49
  -5   4  -1  353.97   11.25
  -5   4  -1  339.43   11.80
  -5   4  -1  380.61   13.63
  -5   4  -1  360.73   13.15
  -5   4   0  499.41   15.43
  -5   4   0  519.46   15.47
  -5   4   0  522.81   16.79
  -5   4   1  112.72    7.26
  -5   4   1  107.38    6.21
  -5   4   1  110.62    7.67
  -5   4   2  319.99   13.06
  -5   4   2  345.15   13.66
  -5   4   3   77.64    6.55
  -5   4   3   78.75    6.69
  -5   4   4  267.74   10.60
  -5   4   4  280.50   12.38
  -5   4   5  297.26   12.77
  -5   4   5  305.24   10.21
  -5   4   5  290.67    9.94
  -5   4   6  301.68   10.26
  -5   4   7   31.02    3.32
  -5   4   8   80.05    4.79
  -5   4   8   77.27    5.28
  -5   4   9   57.06    4.03
  -5   4   9   55.74    4.27
  -5   4  10   43.18    3.19
  -5   4  10   40.35    3.18
  -5   4  11   10.36    1.51
  -5   4  11    9.37    1.29
  -5   5  -9    3.85    1.60
  -5   5  -9    1.56    1.08
  -5   5  -8  272.92   11.18
  -5   5  -7  264.06   12.19
  -5   5  -6  124.84    8.18
  -5   5  -6  107.85    8.36
  -5   5  -5  666.48   20.14
  -5   5  -5  711.08   22.38
  -5   5  -5  683.24   15.54
  -5   5  -4  263.40   11.57
  -5   5  -4  260.33   11.28
  -5   5  -4  252.03   12.62
  -5   5  -4  270.10    8.86
  -5   5  -3  382.20   13.36
  -5   5  -3  388.11   15.32
  -5   5  -3  403.79   14.78
  -5   5  -3  386.49   11.13
  -5   5  -2  107.21    6.73
  -5   5  -2  117.15    7.86
  -5   5  -2  112.04    7.86
  -5   5  -2  108.49    5.55
  -5   5  -1  267.91   11.30
  -5   5  -1  253.39   10.97
  -5   5  -1  272.62   12.38
  -5   5   0  421.01   15.05
  -5   5   0  405.29   13.38
  -5   5   0  426.08   15.98
  -5   5   1   20.55    3.58
  -5   5   1   17.44    3.76
  -5   5   2   77.85    6.79
  -5   5   2   75.86    6.76
  -5   5   3  454.18   16.74
  -5   5   3  461.52   17.26
  -5   5   3  483.84   12.44
  -5   5   3  469.33   11.78
  -5   5   3  481.78   13.31
  -5   5   4 1440.50   33.37
  -5   5   4 1473.14   34.91
  -5   5   4 1472.04   30.96
  -5   5   4 1464.11   28.51
  -5   5   4 1411.80   25.87
  -5   5   4 1442.33   28.61
  -5   5   5 1191.49   28.59
  -5   5   5 1196.63   25.54
  -5   5   5 1250.55   25.44
  -5   5   6   44.00    4.24
  -5   5   6   38.96    3.75
  -5   5   7  323.84    9.43
  -5   5   7  317.23    9.99
  -5   5   8    8.27    2.08
  -5   5   8    9.67    2.25
  -5   5   9  119.02    4.90
  -5   5   9  118.73    5.15
  -5   5  10   31.83    2.10
  -5   5  10   26.45    1.81
  -5   6  -9  166.27    5.67
  -5   6  -9  164.07    5.40
  -5   6  -8  167.83    8.30
  -5   6  -7  438.80   15.57
  -5   6  -6   18.49    2.64
  -5   6  -6   12.79    3.43
  -5   6  -5  330.12   12.39
  -5   6  -5  332.15   14.52
  -5   6  -5  345.33   13.19
  -5   6  -5  346.21   10.72
  -5   6  -4  294.63   11.18
  -5   6  -4  278.38   13.09
  -5   6  -4  288.04   12.62
  -5   6  -4  284.71    9.87
  -5   6  -3  441.67   14.25
  -5   6  -3  388.94   15.19
  -5   6  -3  412.71   16.02
  -5   6  -3  422.28   12.48
  -5   6  -2  523.24   16.97
  -5   6  -2  517.81   18.72
  -5   6  -2  486.43   16.13
  -5   6  -2  518.91   14.07
  -5   6  -1  171.23    9.62
  -5   6  -1  179.10   10.52
  -5   6  -1  164.83    8.42
  -5   6  -1  181.75    7.68
  -5   6   0  192.86   10.49
  -5   6   0  194.66   11.06
  -5   6   0  198.87    7.99
  -5   6   1  527.22   18.36
  -5   6   1  476.22   17.88
  -5   6   1  517.69   13.70
  -5   6   2  569.02   19.15
  -5   6   2  584.87   19.63
  -5   6   2  534.44   13.76
  -5   6   2  543.86   13.84
  -5   6   3   81.11    6.70
  -5   6   3   82.12    7.18
  -5   6   3   80.63    5.20
  -5   6   3   81.21    4.55
  -5   6   3   91.15    5.82
  -5   6   4   17.92    3.24
  -5   6   4   16.52    3.48
  -5   6   4   20.66    3.30
  -5   6   4   20.52    3.29
  -5   6   5  146.04    7.40
  -5   6   5  157.64    7.29
  -5   6   6  136.13    7.09
  -5   6   6  135.61    6.35
  -5   6   7  140.15    5.35
  -5   6   7  137.24    6.28
  -5   6   7  141.07    5.60
  -5   6   8  183.00    5.62
  -5   6   8  180.90    6.16
  -5   6   9   20.98    1.48
  -5   6   9   22.28    1.47
  -5   7  -9  227.62    6.26
  -5   7  -7  221.64    9.92
  -5   7  -7  226.64    7.31
  -5   7  -6  191.88    8.41
  -5   7  -6  181.65    9.41
  -5   7  -6  170.93    7.09
  -5   7  -5  143.90    8.61
  -5   7  -5  142.21    8.32
  -5   7  -5  151.21    7.14
  -5   7  -4  269.35   12.19
  -5   7  -4  243.64   11.25
  -5   7  -4  257.34    9.74
  -5   7  -3   98.02    6.75
  -5   7  -3   98.77    7.78
  -5   7  -3   94.62    6.71
  -5   7  -3  102.00    6.11
  -5   7  -2  423.41   15.53
  -5   7  -2  440.82   17.14
  -5   7  -2  442.40   13.26
  -5   7  -1   76.22    6.55
  -5   7  -1   84.29    7.42
  -5   7  -1   79.23    5.39
  -5   7   0   82.17    6.89
  -5   7   0   78.49    7.12
  -5   7   0   87.52    5.40
  -5   7   1  106.69    8.00
  -5   7   1  109.71    7.90
  -5   7   1  102.36    5.37
  -5   7   1  103.45    5.58
  -5   7   2  599.96   18.78
  -5   7   2  585.30   19.20
  -5   7   2  579.43   14.84
  -5   7   2  611.85   16.42
  -5   7   2  595.82   14.30
  -5   7   3   99.87    6.66
  -5   7   3   94.51    5.66
  -5   7   3   95.83    5.98
  -5   7   4  160.86    7.49
  -5   7   4  162.29    7.38
  -5   7   5  148.46    6.99
  -5   7   5  154.77    6.58
  -5   7   6   78.27    3.92
  -5   7   7  127.43    4.58
  -5   8  -9   99.39    3.26
  -5   8  -8   93.15    3.09
  -5   8  -7   30.38    2.59
  -5   8  -6   50.92    3.80
  -5   8  -5   21.73    2.98
  -5   8  -5   18.93    2.86
  -5   8  -5   24.71    3.60
  -5   8  -4   55.48    5.20
  -5   8  -4   52.17    4.44
  -5   8  -3  100.51    7.35
  -5   8  -3  100.96    5.97
  -5   8  -2  152.26    9.01
  -5   8  -2  134.92    6.83
  -5   8  -1    5.62    2.79
  -5   8  -1    5.76    2.46
  -5   8   0   49.39    4.98
  -5   8   0   43.50    3.65
  -5   8   1  211.17    9.76
  -5   8   1  187.31    7.12
  -5   8   1  201.76    7.11
  -5   8   2   15.40    2.55
  -5   8   2   12.38    2.23
  -5   8   2   16.58    2.95
  -5   8   3   57.01    4.14
  -5   8   3   57.44    4.22
  -5   8   4  231.35    7.92
  -5   8   4  222.50    7.47
  -5   8   5   38.43    2.54
  -5   8   6   62.68    2.39
  -5   9  -8   42.93    1.96
  -5   9  -7   24.46    1.87
  -5   9  -6   31.37    2.58
  -5   9  -5   86.33    4.43
  -5   9  -4  358.13   10.14
  -5   9  -3  482.08   12.24
  -5   9  -2   30.64    2.90
  -5   9  -1  271.89    7.98
  -5   9   0  126.99    4.76
  -5   9   0  130.32    6.00
  -5   9   1  184.26    5.84
  -5   9   1  190.30    6.99
  -5   9   2   15.45    1.93
  -5   9   2   15.26    2.14
  -5   9   3   49.64    2.82
  -5   9   4  107.96    3.24
  -5   9   4  133.68    3.49
  -5  10  -5   97.02    3.27
  -5  10  -4   27.07    1.89
  -5  10  -4   22.56    1.34
  -5  10  -3  149.72    4.46
  -5  10  -3  161.57    4.57
  -5  10  -2    1.12    0.79
  -5  10  -2   -0.03    0.97
  -5  10  -1   29.23    2.14
  -5  10   0   23.60    1.86
  -5  10   1  213.84    5.22
  -4  -8   0   50.94    2.35
  -4  -8   1   28.11    2.29
  -4  -8   2    2.03    1.55
  -4  -8   3   33.15    2.91
  -4  -8   4   59.09    3.72
  -4  -8   5  102.79    4.71
  -4  -8   6  134.01    5.08
  -4  -8   7  143.53    4.81
  -4  -8   7  159.27    4.62
  -4  -8   8    1.08    1.08
  -4  -8   9    7.65    1.37
  -4  -8  10   40.13    1.90
  -4  -7  -2  147.41    4.70
  -4  -7  -2  137.73    4.34
  -4  -7  -1   51.61    2.91
  -4  -7  -1   52.26    3.48
  -4  -7   0   40.64    2.91
  -4  -7   0   38.45    3.50
  -4  -7   1   85.24    4.12
  -4  -7   1   96.45    4.19
  -4  -7   2   32.07    3.65
  -4  -7   2   26.26    2.79
  -4  -7   3    5.03    2.11
  -4  -7   3    3.88    2.51
  -4  -7   4  190.33    8.12
  -4  -7   4  176.81    7.60
  -4  -7   5  180.45    7.70
  -4  -7   5  178.77    7.80
  -4  -7   6  105.57    6.00
  -4  -7   6  101.02    5.42
  -4  -7   6  109.44    5.13
  -4  -7   7   21.51    2.53
  -4  -7   7   20.68    3.16
  -4  -7   7   17.68    2.70
  -4  -7   8   89.58    4.89
  -4  -7   9  119.11    5.51
  -4  -7  10   44.54    3.24
  -4  -7  11   58.77    3.03
  -4  -6  -4    2.63    1.28
  -4  -6  -4    2.68    1.26
  -4  -6  -3    7.71    1.90
  -4  -6  -3    4.19    1.73
  -4  -6  -2  246.67    8.63
  -4  -6  -2  241.02    8.20
  -4  -6  -1  101.97    5.43
  -4  -6  -1  113.18    6.04
  -4  -6   0  141.94    6.79
  -4  -6   0  138.07    5.87
  -4  -6   0  143.57    6.35
  -4  -6   1   22.74    3.04
  -4  -6   1   25.92    2.97
  -4  -6   1   26.55    2.98
  -4  -6   2  184.89    7.40
  -4  -6   2  189.18    7.88
  -4  -6   3  113.85    6.46
  -4  -6   3  112.27    5.42
  -4  -6   4  104.67    6.28
  -4  -6   4  105.89    6.34
  -4  -6   5    4.38    2.26
  -4  -6   5    4.34    2.35
  -4  -6   5    4.68    2.10
  -4  -6   6  577.17   15.95
  -4  -6   6  551.01   14.62
  -4  -6   6  580.82   14.79
  -4  -6   7  230.84    9.41
  -4  -6   7  221.81    8.01
  -4  -6   7  248.22    9.29
  -4  -6   8   26.08    3.38
  -4  -6   8   26.65    3.45
  -4  -6   9   43.53    4.19
  -4  -6  10  110.16    5.80
  -4  -6  11  133.15    5.66
  -4  -6  12   -0.82    1.24
  -4  -5  -6   44.65    2.45
  -4  -5  -6   36.21    2.02
  -4  -5  -5   10.55    2.00
  -4  -5  -5    7.56    1.73
  -4  -5  -4    0.79    1.75
  -4  -5  -4    1.03    1.81
  -4  -5  -3    0.10    1.77
  -4  -5  -3    1.21    2.03
  -4  -5  -3    2.09    2.06
  -4  -5  -2  130.67    6.82
  -4  -5  -2  122.23    6.67
  -4  -5  -2  130.73    6.69
  -4  -5  -1  204.36    8.09
  -4  -5  -1  199.11    8.69
  -4  -5  -1  187.63    7.10
  -4  -5  -1  199.29    8.44
  -4  -5   0   64.69    4.78
  -4  -5   0   62.66    4.95
  -4  -5   0   62.42    4.44
  -4  -5   0   63.94    4.62
  -4  -5   1  161.92    6.50
  -4  -5   1  158.14    7.08
  -4  -5   1  155.75    7.03
  -4  -5   2  312.87    9.56
  -4  -5   2  321.16   10.55
  -4  -5   3  858.85   19.77
  -4  -5   4  550.35   15.04
  -4  -5   4  560.82   13.15
  -4  -5   5   89.44    5.20
  -4  -5   5   86.20    5.52
  -4  -5   5   89.53    5.09
  -4  -5   6 1207.15   25.15
  -4  -5   6 1157.74   23.10
  -4  -5   6 1194.94   24.55
  -4  -5   7   47.25    4.26
  -4  -5   7   46.69    4.28
  -4  -5   8   81.14    5.01
  -4  -5   8   85.52    5.38
  -4  -5   8   75.90    5.42
  -4  -5   9   53.79    4.19
  -4  -5   9   57.21    4.22
  -4  -5   9   52.26    4.48
  -4  -5  10  110.19    5.90
  -4  -5  10   99.67    5.95
  -4  -5  11   17.51    2.64
  -4  -5  11   12.44    2.39
  -4  -5  12    6.36    2.01
  -4  -5  12    5.14    1.49
  -4  -5  13   12.71    1.56
  -4  -4  -7    7.71    1.57
  -4  -4  -7    8.37    1.23
  -4  -4  -6   40.58    2.78
  -4  -4  -6   41.02    3.14
  -4  -4  -5   18.28    2.66
  -4  -4  -4  177.91    7.69
  -4  -4  -3  252.69    9.61
  -4  -4  -2  369.17   10.30
  -4  -4  -2  401.13   12.37
  -4  -4  -1   22.77    2.83
  -4  -4  -1   28.89    3.37
  -4  -4   0    1.54    1.72
  -4  -4   0    0.66    1.92
  -4  -4   1  103.51    6.81
  -4  -4   1   95.30    5.16
  -4  -4   1  100.08    5.22
  -4  -4   2  224.12   10.53
  -4  -4   3  140.42    8.45
  -4  -4   4 1519.24   34.22
  -4  -4   5  131.40    8.57
  -4  -4   5  122.79    5.91
  -4  -4   5  131.51    6.15
  -4  -4   6  131.86    8.62
  -4  -4   6  126.76    6.06
  -4  -4   6  114.28    5.87
  -4  -4   6  126.30    6.18
  -4  -4   7  105.88    7.64
  -4  -4   7  106.01    5.08
  -4  -4   7  113.28    5.89
  -4  -4   7  124.97    6.45
  -4  -4   8  114.50    5.72
  -4  -4   8  104.66    5.63
  -4  -4   8  111.49    6.33
  -4  -4   9  238.56    8.07
  -4  -4   9  262.39    9.44
  -4  -4   9  251.44    9.62
  -4  -4  10    6.33    2.41
  -4  -4  10    5.69    2.10
  -4  -4  11  236.36    9.11
  -4  -4  11  218.09    8.20
  -4  -4  12   32.16    3.41
  -4  -4  12   30.41    2.57
  -4  -4  13   -0.46    1.27
  -4  -4  13    0.89    1.58
  -4  -3  -8   -0.13    0.89
  -4  -3  -7   59.65    3.42
  -4  -3  -6   55.28    5.20
  -4  -3  -6   49.88    3.97
  -4  -3  -5  158.86    9.35
  -4  -3  -5  158.39    7.33
  -4  -3  -4   74.91    6.84
  -4  -3  -4   81.50    7.37
  -4  -3  -4   82.57    5.37
  -4  -3  -3  749.97   22.39
  -4  -3  -3  702.68   17.11
  -4  -3  -3  740.04   23.18
  -4  -3  -3  742.39   17.78
  -4  -3  -2  164.74   10.00
  -4  -3  -2  165.73    9.55
  -4  -3  -2  165.33    7.34
  -4  -3  -2  177.74    7.37
  -4  -3  -2  158.54    6.18
  -4  -3  -1  118.70    6.06
  -4  -3  -1  107.43    7.26
  -4  -3   0   55.63    4.42
  -4  -3   1  269.41   10.46
  -4  -3   2  325.54   12.04
  -4  -3   3   14.61    2.86
  -4  -3   4  568.83   17.72
  -4  -3   5  639.61   19.27
  -4  -3   6  255.57   11.67
  -4  -3   7  132.80    8.54
  -4  -3   7  127.84    5.93
  -4  -3   8  245.52    8.65
  -4  -3   8  251.00    8.98
  -4  -3   9  153.85    7.35
  -4  -3   9  160.82    7.37
  -4  -3   9  169.57    7.39
  -4  -3  10   12.10    2.71
  -4  -3  10   17.79    2.76
  -4  -3  11  446.01   13.69
  -4  -3  11  459.86   12.19
  -4  -3  12  133.58    6.75
  -4  -3  12  139.37    5.14
  -4  -3  13    8.73    1.57
  -4  -3  13    9.52    2.05
  -4  -3  14   92.44    3.59
  -4  -2  -8  223.86    6.69
  -4  -2  -7   59.89    5.41
  -4  -2  -7   64.67    5.64
  -4  -2  -7   58.93    4.05
  -4  -2  -6  189.90   10.55
  -4  -2  -6  193.75    6.82
  -4  -2  -6  208.77   10.80
  -4  -2  -5  835.29   24.82
  -4  -2  -5  836.97   24.47
  -4  -2  -5  813.58   18.17
  -4  -2  -4  258.13    9.11
  -4  -2  -4  269.23   12.65
  -4  -2  -4  272.00   13.22
  -4  -2  -3   68.32    6.38
  -4  -2  -3   69.92    6.28
  -4  -2  -3   65.62    4.52
  -4  -2  -2  296.40   12.62
  -4  -2  -2  297.36    9.52
  -4  -2  -2  275.05   11.68
  -4  -2  -1   71.32    5.71
  -4  -2  -1   69.43    4.30
  -4  -2  -1   78.45    5.61
  -4  -2   0  629.65   15.55
  -4  -2   0  602.52   13.95
  -4  -2   0  595.84   16.62
  -4  -2   0  594.76   15.60
  -4  -2   1   70.29    4.93
  -4  -2   1   69.68    3.95
  -4  -2   2  172.05    7.98
  -4  -2   2  166.28    5.94
  -4  -2   3  104.61    6.54
  -4  -2   4   39.74    4.38
  -4  -2   5  312.33   12.58
  -4  -2   6   30.29    4.19
  -4  -2   7  341.44   13.50
  -4  -2   8  185.05    7.06
  -4  -2   8  181.55    9.79
  -4  -2   8  184.10    7.33
  -4  -2   8  176.24    7.00
  -4  -2   9   92.27    5.69
  -4  -2   9   90.87    6.61
  -4  -2   9   91.58    5.59
  -4  -2   9   92.78    5.30
  -4  -2  10  288.13   10.55
  -4  -2  10  320.48   11.15
  -4  -2  10  304.50    9.81
  -4  -2  11   15.49    3.16
  -4  -2  11   20.38    3.31
  -4  -2  11   19.24    2.42
  -4  -2  12  208.26    8.51
  -4  -2  12  209.67    8.65
  -4  -2  13  122.24    5.62
  -4  -2  14  115.09    4.02
  -4  -1  -9   48.51    2.75
  -4  -1  -8   11.27    2.92
  -4  -1  -7  717.47   21.60
  -4  -1  -7  712.83   15.42
  -4  -1  -7  758.78   21.85
  -4  -1  -6  105.05    8.02
  -4  -1  -6   96.56    7.89
  -4  -1  -6  101.41    5.30
  -4  -1  -6   96.30    6.86
  -4  -1  -5   71.94    6.82
  -4  -1  -5   77.33    4.90
  -4  -1  -5   81.56    7.03
  -4  -1  -5   78.67    4.19
  -4  -1  -5   76.50    6.17
  -4  -1  -4  729.43   19.82
  -4  -1  -4  715.11   21.92
  -4  -1  -4  746.53   21.64
  -4  -1  -4  754.50   17.28
  -4  -1  -3  540.03   15.53
  -4  -1  -3  549.48   13.65
  -4  -1  -3  540.75   17.37
  -4  -1  -3  515.91   16.69
  -4  -1  -2  235.46    8.73
  -4  -1  -2  233.73   10.05
  -4  -1  -2  232.75    9.62
  -4  -1  -2  227.73    7.74
  -4  -1  -1  351.78    9.76
  -4  -1  -1  320.43   11.30
  -4  -1  -1  341.03   10.87
  -4  -1  -1  342.45    9.29
  -4  -1   0   41.84    3.31
  -4  -1   0   45.46    3.67
  -4  -1   0   41.44    3.28
  -4  -1   0   42.47    2.93
  -4  -1   1  356.05   10.68
  -4  -1   1  370.81    8.95
  -4  -1   1  370.27   10.13
  -4  -1   1  350.66    8.89
  -4  -1   2  101.56    5.70
  -4  -1   2  100.00    3.92
  -4  -1   3  330.72   11.39
  -4  -1   4    3.57    1.99
  -4  -1   5  162.75    8.65
  -4  -1   6  400.71   14.29
  -4  -1   7  258.56   11.57
  -4  -1   8   20.99    3.86
  -4  -1   9   -1.41    2.14
  -4  -1   9    2.45    2.65
  -4  -1   9   -0.43    1.94
  -4  -1   9   -0.06    1.29
  -4  -1  10  994.66   22.21
  -4  -1  10 1043.93   22.92
  -4  -1  10  968.31   19.57
  -4  -1  10  975.39   21.35
  -4  -1  11   21.54    3.52
  -4  -1  11   24.42    3.54
  -4  -1  12   43.58    4.12
  -4  -1  12   45.15    4.05
  -4  -1  13   82.57    4.79
  -4  -1  13   87.06    4.51
  -4  -1  14   68.37    2.77
  -4   0  -8   98.63    7.17
  -4   0  -8  112.95    7.62
  -4   0  -7  215.83   11.58
  -4   0  -7  233.98    8.25
  -4   0  -7  234.51   11.92
  -4   0  -6   10.33    2.76
  -4   0  -6   12.85    2.39
  -4   0  -6    9.97    3.08
  -4   0  -5  600.37   17.83
  -4   0  -5  564.66   19.07
  -4   0  -5  558.39   14.56
  -4   0  -4  139.17    7.67
  -4   0  -4  152.87    8.88
  -4   0  -4  153.52    6.56
  -4   0  -3  959.09   23.50
  -4   0  -3  975.39   19.65
  -4   0  -2   53.28    4.46
  -4   0  -2   54.76    3.38
  -4   0  -1  412.69    9.93
  -4   0  -1  414.27   11.63
  -4   0   0  460.33   11.13
  -4   0   0  457.59    9.97
  -4   0   0  441.94   11.00
  -4   0   1  730.88   16.07
  -4   0   1  724.59   15.05
  -4   0   2   17.73    2.63
  -4   0   2   16.42    2.23
  -4   0   3  903.31   20.54
  -4   0   4  291.68   10.89
  -4   0   5  292.15    9.19
  -4   0   5  298.03   11.60
  -4   0   6  642.85   16.42
  -4   0   6  656.86   19.05
  -4   0   7  187.98    9.74
  -4   0   8 1099.95   27.65
  -4   0   9  363.25   11.28
  -4   0   9  373.06   11.73
  -4   0   9  361.37   11.45
  -4   0  10  286.01   10.35
  -4   0  10  288.08   10.49
  -4   0  10  309.92   10.72
  -4   0  11  152.98    7.62
  -4   0  11  136.59    7.07
  -4   0  11  152.67    7.59
  -4   0  12  336.09   10.97
  -4   0  12  341.36   10.52
  -4   0  13   41.42    3.39
  -4   0  13   41.49    2.86
  -4   0  14   81.93    3.22
  -4   1  -9   43.32    4.68
  -4   1  -9   38.78    4.44
  -4   1  -8  142.14    6.23
  -4   1  -8  160.06    9.59
  -4   1  -7    9.41    2.80
  -4   1  -7    8.19    2.24
  -4   1  -7   10.79    3.19
  -4   1  -6  227.38   11.90
  -4   1  -6  235.93    8.87
  -4   1  -5   28.21    3.22
  -4   1  -5   31.05    3.67
  -4   1  -4   52.65    3.82
  -4   1  -4   53.25    4.60
  -4   1  -3  135.31    7.02
  -4   1  -3  139.58    5.67
  -4   1  -2  271.58    7.68
  -4   1  -2  265.98    9.79
  -4   1  -1  310.75    7.89
  -4   1  -1  323.39   10.42
  -4   1   0  224.01    6.92
  -4   1   0  213.46    8.02
  -4   1   0  219.06    6.99
  -4   1   1  890.04   18.62
  -4   1   1  914.97   18.58
  -4   1   2  125.87    6.13
  -4   1   2  125.07    5.81
  -4   1   3  418.05    9.89
  -4   1   3  432.92   12.91
  -4   1   3  420.33   12.07
  -4   1   4  579.49   13.55
  -4   1   4  579.09   16.60
  -4   1   4  559.99   15.16
  -4   1   5   52.77    5.12
  -4   1   5   57.63    4.13
  -4   1   6  429.75   13.44
  -4   1   6  463.92   15.64
  -4   1   7  325.12   12.11
  -4   1   7  331.03   13.24
  -4   1   8  945.96   19.72
  -4   1   8  948.14   24.20
  -4   1   8  975.48   20.77
  -4   1   8  966.15   20.89
  -4   1   9   92.60    5.66
  -4   1   9   94.62    5.69
  -4   1   9   95.05    5.92
  -4   1  10  135.64    7.09
  -4   1  10  137.04    6.98
  -4   1  10  136.10    7.40
  -4   1  11    2.58    2.20
  -4   1  11    0.63    1.78
  -4   1  12   76.77    4.80
  -4   1  12   67.77    4.05
  -4   1  13  175.06    6.06
  -4   1  13  165.57    4.83
  -4   2  -9   94.48    4.77
  -4   2  -9   85.09    6.55
  -4   2  -8  363.60   14.97
  -4   2  -8  352.58   10.94
  -4   2  -7  169.59    7.56
  -4   2  -7  172.46    8.63
  -4   2  -6  107.13    7.96
  -4   2  -6  117.66    7.32
  -4   2  -5  437.86   15.92
  -4   2  -5  444.84   14.89
  -4   2  -4  118.18    7.54
  -4   2  -4  111.56    6.98
  -4   2  -3  261.39   10.67
  -4   2  -3  253.93   10.33
  -4   2  -2   28.92    3.55
  -4   2  -2   33.29    2.91
  -4   2  -2   29.16    3.57
  -4   2  -1  125.24    6.10
  -4   2  -1  120.49    4.75
  -4   2  -1  131.88    5.63
  -4   2  -1  117.89    6.28
  -4   2   0   81.75    4.32
  -4   2   0   80.56    4.39
  -4   2   0   83.36    4.79
  -4   2   0   92.82    5.13
  -4   2   1 1187.97   23.81
  -4   2   1 1242.68   24.00
  -4   2   1 1267.21   24.08
  -4   2   1 1210.51   24.19
  -4   2   2  334.41   10.71
  -4   2   2  323.57   10.77
  -4   2   2  344.49   10.68
  -4   2   3 2040.05   35.38
  -4   2   3 2044.90   38.28
  -4   2   3 2098.53   38.88
  -4   2   3 2068.39   37.59
  -4   2   4 2516.26   43.87
  -4   2   4 2519.79   45.50
  -4   2   5  350.96   11.67
  -4   2   5  342.59   12.00
  -4   2   6  395.84   13.46
  -4   2   7  210.68    9.99
  -4   2   8   51.78    4.04
  -4   2   8   53.47    5.13
  -4   2   8   54.65    4.29
  -4   2   8   48.05    4.52
  -4   2   9  147.20    7.07
  -4   2   9  155.09    7.24
  -4   2   9  154.01    7.77
  -4   2  10   79.27    5.36
  -4   2  10   71.33    5.02
  -4   2  10   77.32    5.91
  -4   2  11   44.86    3.98
  -4   2  11   40.10    3.39
  -4   2  12   20.52    2.66
  -4   2  12   16.50    1.87
  -4   2  13   88.22    3.54
  -4   3 -10   73.89    3.53
  -4   3  -9    0.68    1.41
  -4   3  -8  199.45   10.38
  -4   3  -8  204.88    9.59
  -4   3  -7  345.68   14.41
  -4   3  -7  333.91   13.33
  -4   3  -6  503.08   17.91
  -4   3  -6  527.41   17.53
  -4   3  -5   17.35    3.68
  -4   3  -5   22.88    3.88
  -4   3  -4  463.20   15.65
  -4   3  -4  467.34   15.65
  -4   3  -3  786.52   20.42
  -4   3  -3  805.38   18.30
  -4   3  -3  816.16   20.74
  -4   3  -2  160.29    6.19
  -4   3  -2  138.88    6.97
  -4   3  -2  149.05    6.89
  -4   3  -2  138.35    7.40
  -4   3  -1 1079.66   21.72
  -4   3  -1 1064.52   21.80
  -4   3  -1 1071.85   22.67
  -4   3  -1 1024.71   22.74
  -4   3   0    4.04    1.78
  -4   3   0    3.88    1.43
  -4   3   0    3.06    1.78
  -4   3   0    2.66    1.79
  -4   3   1  487.95   13.89
  -4   3   1  463.61   12.31
  -4   3   2   39.34    4.06
  -4   3   2   39.24    3.93
  -4   3   3  496.34   15.44
  -4   3   3  501.50   14.75
  -4   3   4   30.07    4.10
  -4   3   4   30.78    3.70
  -4   3   5  225.70    9.83
  -4   3   5  206.31    9.28
  -4   3   6  227.30   10.49
  -4   3   7   41.29    4.69
  -4   3   7   47.40    3.78
  -4   3   7   48.79    3.47
  -4   3   7   40.03    3.85
  -4   3   8  135.08    6.74
  -4   3   8  124.62    6.44
  -4   3   8  132.24    6.82
  -4   3   9  132.88    6.87
  -4   3   9  119.27    6.31
  -4   3   9  134.44    6.96
  -4   3  10   38.33    3.96
  -4   3  10   39.02    3.51
  -4   3  10   48.33    4.54
  -4   3  11  140.57    6.22
  -4   3  11  134.18    5.16
  -4   3  12   58.18    3.31
  -4   4 -10  259.28    7.62
  -4   4  -9   25.31    3.42
  -4   4  -8  445.68   16.13
  -4   4  -8  419.99   15.26
  -4   4  -7 1036.15   27.34
  -4   4  -7 1063.87   27.81
  -4   4  -6  855.81   24.36
  -4   4  -6  856.40   24.47
  -4   4  -5  395.71   15.02
  -4   4  -5  395.70   15.38
  -4   4  -4   93.06    6.74
  -4   4  -4   85.99    6.81
  -4   4  -4   93.60    6.04
  -4   4  -3 1650.04   33.40
  -4   4  -3 1677.78   31.13
  -4   4  -3 1616.01   34.39
  -4   4  -3 1608.09   32.78
  -4   4  -2  266.17    9.63
  -4   4  -2  252.40    9.51
  -4   4  -2  250.74   10.29
  -4   4  -2  244.97   10.16
  -4   4  -1 1338.49   28.25
  -4   4  -1 1379.99   26.30
  -4   4  -1 1352.86   27.81
  -4   4  -1 1396.98   29.33
  -4   4   0   74.91    5.57
  -4   4   0   73.41    4.78
  -4   4   0   76.87    5.66
  -4   4   1  757.34   20.09
  -4   4   1  755.24   19.74
  -4   4   1  755.99   16.50
  -4   4   2   83.52    6.27
  -4   4   2   82.50    6.00
  -4   4   3 2711.31   51.17
  -4   4   3 2695.34   49.45
  -4   4   4  532.38   17.91
  -4   4   4  562.48   16.75
  -4   4   5  127.91    7.87
  -4   4   5  135.20    7.50
  -4   4   6  182.19    6.81
  -4   4   6  156.56    8.97
  -4   4   6  168.53    7.53
  -4   4   6  168.42    6.70
  -4   4   6  163.31    6.43
  -4   4   7   88.18    5.42
  -4   4   7   94.04    5.68
  -4   4   7   81.60    4.60
  -4   4   7   83.84    5.17
  -4   4   8  157.18    7.23
  -4   4   8  133.39    6.56
  -4   4   8  148.30    6.79
  -4   4   9  180.93    7.66
  -4   4   9  160.28    6.79
  -4   4  10  119.26    5.78
  -4   4  10  112.19    4.72
  -4   4  11   32.44    2.62
  -4   5 -10   29.54    2.58
  -4   5  -9   54.15    5.09
  -4   5  -8  446.61   16.12
  -4   5  -7   72.26    6.56
  -4   5  -7   78.85    7.11
  -4   5  -6   48.48    5.34
  -4   5  -6   51.12    4.83
  -4   5  -6   53.76    6.20
  -4   5  -5  910.37   24.17
  -4   5  -5  879.76   22.59
  -4   5  -5  864.85   25.07
  -4   5  -4 1019.04   23.04
  -4   5  -4  975.19   24.92
  -4   5  -4 1009.15   26.47
  -4   5  -3  164.33    8.23
  -4   5  -3  161.66    8.93
  -4   5  -3  161.53    8.97
  -4   5  -2  107.41    6.97
  -4   5  -2  116.38    7.73
  -4   5  -2  107.44    6.85
  -4   5  -1  332.97   12.91
  -4   5  -1  318.42   11.25
  -4   5  -1  324.09   12.98
  -4   5   0  181.03    9.56
  -4   5   0  192.22    7.63
  -4   5   0  183.49    9.60
  -4   5   1  118.19    8.03
  -4   5   1  132.37    7.99
  -4   5   2  758.37   22.17
  -4   5   2  778.06   21.20
  -4   5   3   80.12    6.81
  -4   5   3   78.92    6.14
  -4   5   4   38.89    4.43
  -4   5   4   41.05    5.03
  -4   5   4   43.81    3.84
  -4   5   4   40.07    3.42
  -4   5   5  198.22    8.98
  -4   5   5  196.19   10.16
  -4   5   5  217.19    8.73
  -4   5   5  212.96    8.06
  -4   5   6   23.41    3.31
  -4   5   6   23.10    3.47
  -4   5   6   25.83    3.08
  -4   5   7   71.85    4.96
  -4   5   7   80.89    5.47
  -4   5   7   72.62    4.22
  -4   5   8   42.63    3.78
  -4   5   8   34.08    3.19
  -4   5   9   42.30    3.46
  -4   5   9   43.41    2.86
  -4   5  10  196.79    6.29
  -4   5  11  200.71    4.65
  -4   6  -9  109.37    6.72
  -4   6  -8  362.30   14.18
  -4   6  -7    8.50    3.03
  -4   6  -7   11.78    3.75
  -4   6  -7   11.29    2.37
  -4   6  -6  400.13   14.87
  -4   6  -6  396.02   15.97
  -4   6  -6  366.73   13.91
  -4   6  -5  962.42   24.54
  -4   6  -5  921.95   25.95
  -4   6  -5  931.31   25.03
  -4   6  -4  534.93   17.00
  -4   6  -4  541.06   18.17
  -4   6  -4  545.87   18.52
  -4   6  -3  401.72   14.91
  -4   6  -3  439.17   15.27
  -4   6  -3  423.48   16.28
  -4   6  -3  433.87   10.99
  -4   6  -2   14.56    3.33
  -4   6  -2   20.31    3.50
  -4   6  -2   23.51    4.35
  -4   6  -2   19.98    2.62
  -4   6  -1  187.37   10.35
  -4   6  -1  186.04    8.24
  -4   6  -1  180.95   10.52
  -4   6  -1  184.02    7.17
  -4   6  -1  195.13    7.44
  -4   6   0  212.99   11.21
  -4   6   0  224.00   11.41
  -4   6   0  206.79    7.92
  -4   6   1   42.50    5.31
  -4   6   1   43.67    5.47
  -4   6   1   49.49    3.64
  -4   6   2   14.97    2.44
  -4   6   2   12.07    3.27
  -4   6   2    8.98    2.31
  -4   6   2    8.88    2.97
  -4   6   3  586.96   17.78
  -4   6   3  599.16   19.67
  -4   6   3  584.80   15.42
  -4   6   4  184.71    8.70
  -4   6   4  174.61    9.85
  -4   6   4  181.75    8.23
  -4   6   4  196.48    8.00
  -4   6   5  174.83    8.18
  -4   6   5  180.65    8.02
  -4   6   6   74.60    4.84
  -4   6   6   77.77    5.57
  -4   6   6   81.43    4.59
  -4   6   7  137.13    6.28
  -4   6   7  139.09    5.90
  -4   6   7  156.72    7.09
  -4   6   8   23.28    2.56
  -4   6   8   21.73    1.95
  -4   6   9   33.86    2.41
  -4   7  -8   49.36    5.01
  -4   7  -8   54.85    3.64
  -4   7  -7   30.22    3.87
  -4   7  -7   30.38    4.55
  -4   7  -7   36.69    3.54
  -4   7  -6  196.14   10.44
  -4   7  -6  199.84   10.13
  -4   7  -5  193.35    8.99
  -4   7  -5  197.85    9.02
  -4   7  -5  203.49   10.49
  -4   7  -5  211.29   11.08
  -4   7  -4  142.51    8.51
  -4   7  -4  125.87    8.01
  -4   7  -4  134.03    9.27
  -4   7  -4  128.36    6.07
  -4   7  -3  283.65   12.60
  -4   7  -3  283.29   13.55
  -4   7  -3  286.95   11.56
  -4   7  -3  274.81    9.69
  -4   7  -2  286.93   13.04
  -4   7  -2  289.86   13.79
  -4   7  -2  301.48   10.20
  -4   7  -2  289.81   10.03
  -4   7  -1  568.05   19.35
  -4   7  -1  580.35   19.67
  -4   7  -1  562.93   14.71
  -4   7  -1  562.39   15.14
  -4   7   0  264.01   12.54
  -4   7   0  262.84   12.76
  -4   7   0  257.55    8.51
  -4   7   0  275.39    9.21
  -4   7   1  309.87   13.17
  -4   7   1  338.88   14.40
  -4   7   1  341.86   10.84
  -4   7   1  331.47    9.80
  -4   7   2   77.99    6.13
  -4   7   2   78.78    6.79
  -4   7   2   64.87    4.84
  -4   7   3  103.11    7.34
  -4   7   3  106.25    6.24
  -4   7   4    6.56    2.48
  -4   7   4    3.90    2.39
  -4   7   4    3.67    1.99
  -4   7   5   10.70    2.19
  -4   7   5    6.54    2.41
  -4   7   5    7.63    2.06
  -4   7   6   51.53    3.55
  -4   7   6   55.37    4.25
  -4   7   7   35.88    2.67
  -4   7   8  141.03    4.21
  -4   8  -9  136.77    3.91
  -4   8  -8    7.49    1.73
  -4   8  -7   48.02    4.38
  -4   8  -7   49.24    4.19
  -4   8  -7   48.85    3.88
  -4   8  -6  900.81   22.95
  -4   8  -6  932.94   22.44
  -4   8  -6  893.07   20.03
  -4   8  -5  282.59   11.02
  -4   8  -5  273.37   12.02
  -4   8  -5  283.47    8.84
  -4   8  -5  273.83   10.04
  -4   8  -4   23.91    3.72
  -4   8  -4   20.35    4.14
  -4   8  -4   22.03    2.94
  -4   8  -4   30.85    3.87
  -4   8  -3  174.74    9.45
  -4   8  -3  150.65    9.64
  -4   8  -3  155.34    7.36
  -4   8  -3  164.29    7.41
  -4   8  -2    9.28    3.05
  -4   8  -2    4.87    2.81
  -4   8  -2   13.64    2.86
  -4   8  -2   13.59    2.87
  -4   8  -1   14.47    2.73
  -4   8  -1   14.24    3.32
  -4   8  -1   10.76    3.21
  -4   8  -1   15.35    2.39
  -4   8   0   65.99    5.76
  -4   8   0   69.18    6.21
  -4   8   0   58.64    4.23
  -4   8   0   68.04    4.38
  -4   8   1  222.31    9.73
  -4   8   1  242.27   11.00
  -4   8   1  228.42    8.58
  -4   8   2  203.03    8.21
  -4   8   3   96.05    5.76
  -4   8   3  106.84    5.49
  -4   8   4    4.37    1.58
  -4   8   4    4.82    2.11
  -4   8   4    2.77    1.26
  -4   8   5  125.78    4.66
  -4   8   5  148.94    6.04
  -4   8   6   57.66    2.55
  -4   9  -8   68.24    3.03
  -4   9  -7   14.81    2.11
  -4   9  -6   37.89    3.31
  -4   9  -5   20.50    2.76
  -4   9  -4  254.61   10.37
  -4   9  -4  260.85    8.87
  -4   9  -3  300.80   11.58
  -4   9  -3  295.79    9.41
  -4   9  -2   36.38    4.09
  -4   9  -2   43.48    3.37
  -4   9  -1   16.00    2.20
  -4   9  -1   14.54    2.69
  -4   9  -1   17.49    2.20
  -4   9   0   89.42    4.51
  -4   9   1    2.51    1.69
  -4   9   2   96.04    4.71
  -4   9   2   91.50    4.48
  -4   9   3  113.27    4.89
  -4   9   3  118.64    4.27
  -4   9   4   77.27    3.50
  -4  10  -7   17.57    1.35
  -4  10  -6  214.95    5.66
  -4  10  -5   24.73    2.04
  -4  10  -4   83.91    3.59
  -4  10  -3   28.49    2.09
  -4  10  -2    7.33    1.10
  -4  10  -1  245.68    7.10
  -4  10   0   29.78    1.76
  -4  10   0   32.15    2.32
  -4  10   1  191.25    4.75
  -4  10   1  197.98    5.14
  -3  -9   2    4.41    1.14
  -3  -9   3   88.13    3.73
  -3  -9   4    3.87    1.45
  -3  -9   5   51.65    3.06
  -3  -9   6  105.48    4.04
  -3  -9   7   16.77    1.60
  -3  -8  -2   85.13    2.91
  -3  -8  -1  117.54    4.16
  -3  -8  -1  118.81    4.24
  -3  -8   0  119.26    4.60
  -3  -8   0  125.88    5.18
  -3  -8   1   92.01    4.19
  -3  -8   1   86.74    4.91
  -3  -8   2    3.59    1.48
  -3  -8   2    2.76    2.12
  -3  -8   3   73.65    5.02
  -3  -8   3   64.97    3.38
  -3  -8   3   68.00    3.78
  -3  -8   4   29.56    2.89
  -3  -8   4   33.31    3.70
  -3  -8   5  155.67    7.08
  -3  -8   6   13.02    2.39
  -3  -8   6   15.27    2.19
  -3  -8   7    1.45    1.64
  -3  -8   7    3.93    1.87
  -3  -8   8   23.72    2.31
  -3  -8   8   27.73    2.74
  -3  -8   9    5.63    1.76
  -3  -8  10  131.70    4.78
  -3  -8  11    6.83    1.16
  -3  -7  -4   87.14    3.38
  -3  -7  -3    9.25    1.52
  -3  -7  -3   12.22    1.97
  -3  -7  -2   27.05    2.90
  -3  -7  -2   24.14    2.85
  -3  -7  -2   27.76    2.83
  -3  -7  -1  172.30    7.06
  -3  -7  -1  178.93    7.37
  -3  -7   0   20.63    2.91
  -3  -7   0   22.02    3.26
  -3  -7   1    5.54    2.05
  -3  -7   1    6.33    2.25
  -3  -7   1    2.14    1.50
  -3  -7   2  267.74    8.82
  -3  -7   2  265.75   10.44
  -3  -7   3  149.10    6.18
  -3  -7   3  158.24    8.04
  -3  -7   3  147.01    6.93
  -3  -7   4   57.55    4.98
  -3  -7   4   60.43    4.71
  -3  -7   5  117.83    6.68
  -3  -7   5  114.85    6.66
  -3  -7   5  112.46    5.60
  -3  -7   6   89.28    5.70
  -3  -7   6   87.39    5.85
  -3  -7   6   82.71    5.14
  -3  -7   7   93.06    5.44
  -3  -7   7  106.84    6.43
  -3  -7   7  103.96    5.88
  -3  -7   8  232.80    8.18
  -3  -7   8  260.02    9.36
  -3  -7   9    0.17    2.11
  -3  -7  10  219.81    7.90
  -3  -7  11   27.20    2.53
  -3  -7  12   69.66    2.85
  -3  -6  -6   94.22    3.27
  -3  -6  -5   69.27    3.45
  -3  -6  -5   64.12    3.69
  -3  -6  -4  379.45   10.52
  -3  -6  -4  371.41   10.83
  -3  -6  -3   44.29    4.01
  -3  -6  -3   45.87    4.23
  -3  -6  -2    0.89    2.25
  -3  -6  -2    1.76    2.17
  -3  -6  -1  272.17   10.18
  -3  -6  -1  269.04    9.91
  -3  -6   0   33.18    3.74
  -3  -6   0   33.71    3.59
  -3  -6   1   69.27    4.89
  -3  -6   1   78.84    4.99
  -3  -6   2  280.06    9.63
  -3  -6   2  285.93    9.75
  -3  -6   2  286.62    9.20
  -3  -6   3  788.36   17.41
  -3  -6   3  794.23   18.62
  -3  -6   4  228.72    9.12
  -3  -6   4  215.29    8.79
  -3  -6   4  223.33    7.79
  -3  -6   5 1169.59   24.75
  -3  -6   5 1156.58   24.76
  -3  -6   5 1128.34   23.41
  -3  -6   6  117.91    6.42
  -3  -6   6  116.60    6.66
  -3  -6   6  122.17    6.30
  -3  -6   7  103.21    5.88
  -3  -6   7  111.29    6.54
  -3  -6   7  124.14    6.65
  -3  -6   8  165.09    7.77
  -3  -6   8  150.64    6.54
  -3  -6   8  171.93    7.90
  -3  -6   9  287.40   10.40
  -3  -6  10  268.18    9.64
  -3  -6  11   37.24    3.25
  -3  -6  12   65.87    3.34
  -3  -6  13   34.71    2.33
  -3  -5  -7   15.34    1.19
  -3  -5  -7   15.50    1.76
  -3  -5  -6   46.99    3.13
  -3  -5  -6   49.61    3.71
  -3  -5  -5    2.59    2.13
  -3  -5  -5    3.07    1.78
  -3  -5  -4   11.72    2.80
  -3  -5  -4   12.37    2.47
  -3  -5  -3  139.66    6.75
  -3  -5  -3  146.19    7.23
  -3  -5  -2  270.50    9.77
  -3  -5  -2  279.45   10.15
  -3  -5  -1  227.75    8.73
  -3  -5  -1  220.67    8.63
  -3  -5   0   45.92    4.74
  -3  -5   0   49.69    4.07
  -3  -5   0   49.00    3.48
  -3  -5   0   47.95    4.09
  -3  -5   0   51.03    4.00
  -3  -5   1  404.97   14.55
  -3  -5   1  397.17   10.86
  -3  -5   1  373.66   11.25
  -3  -5   1  376.48   10.34
  -3  -5   1  371.39   10.34
  -3  -5   2  938.14   24.84
  -3  -5   2  940.43   19.43
  -3  -5   3  506.60   17.28
  -3  -5   4  484.99   17.09
  -3  -5   4  490.20   12.99
  -3  -5   5  208.06   10.97
  -3  -5   5  225.11    8.38
  -3  -5   5  223.10    7.87
  -3  -5   5  227.17    7.83
  -3  -5   6  751.67   21.64
  -3  -5   6  717.43   16.12
  -3  -5   6  720.04   17.34
  -3  -5   6  747.24   17.27
  -3  -5   7  228.98    8.93
  -3  -5   7  225.46    8.06
  -3  -5   7  219.28    8.69
  -3  -5   8   19.84    3.04
  -3  -5   8   18.10    3.06
  -3  -5   8   21.74    3.06
  -3  -5   9  270.71    9.93
  -3  -5   9  278.92   10.14
  -3  -5  10  195.52    8.51
  -3  -5  10  189.64    8.10
  -3  -5  11   57.84    4.72
  -3  -5  11   60.34    4.19
  -3  -5  12  116.76    5.88
  -3  -5  12  106.12    4.59
  -3  -5  13  130.01    5.15
  -3  -4  -8   28.30    2.33
  -3  -4  -7    1.62    1.28
  -3  -4  -6   38.37    3.19
  -3  -4  -5  172.19    7.10
  -3  -4  -4  349.99   10.87
  -3  -4  -3   66.96    4.66
  -3  -4  -2  266.45    9.10
  -3  -4  -1  431.51   13.63
  -3  -4   0   84.09    5.92
  -3  -4   1  115.56    7.05
  -3  -4   2  364.48   13.32
  -3  -4   3  429.97   14.84
  -3  -4   4  440.59   15.28
  -3  -4   5   91.57    6.70
  -3  -4   6  334.12   13.11
  -3  -4   7  575.85   18.15
  -3  -4   8  474.99   15.43
  -3  -4   8  457.67   12.68
  -3  -4   8  441.30   11.71
  -3  -4   8  469.31   12.97
  -3  -4   9  201.35    8.40
  -3  -4   9  191.75    7.91
  -3  -4  10  420.10   13.24
  -3  -4  10  436.04   12.31
  -3  -4  11   58.38    4.88
  -3  -4  11   43.26    3.61
  -3  -4  12   47.92    4.24
  -3  -4  13    3.32    1.76
  -3  -4  13    7.21    2.10
  -3  -4  14   14.30    1.46
  -3  -3  -8   21.45    2.15
  -3  -3  -7  115.38    7.56
  -3  -3  -7  112.05    5.18
  -3  -3  -6  385.42   15.34
  -3  -3  -6  359.38   14.58
  -3  -3  -6  382.39   11.13
  -3  -3  -6  410.23   13.74
  -3  -3  -5  100.25    7.95
  -3  -3  -5   90.51    7.65
  -3  -3  -5  103.72    5.62
  -3  -3  -4   69.66    4.23
  -3  -3  -4   73.27    6.86
  -3  -3  -4   65.16    6.52
  -3  -3  -3   90.69    4.77
  -3  -3  -3   90.15    7.22
  -3  -3  -3   90.32    7.36
  -3  -3  -2  244.70   11.18
  -3  -3  -2  240.65    7.89
  -3  -3  -2  248.43   11.43
  -3  -3  -1   18.64    2.69
  -3  -3  -1   14.06    2.08
  -3  -3  -1   11.53    3.03
  -3  -3  -1   10.54    2.74
  -3  -3   0  580.67   15.61
  -3  -3   0  586.82   13.21
  -3  -3   0  574.01   15.97
  -3  -3   1  275.33   10.26
  -3  -3   2  244.47    9.91
  -3  -3   3   51.52    4.73
  -3  -3   4 2594.95   47.46
  -3  -3   5   10.81    2.68
  -3  -3   6  217.54   10.00
  -3  -3   7  427.17   14.73
  -3  -3   8  372.30   13.54
  -3  -3   9    6.66    2.59
  -3  -3   9   12.38    2.93
  -3  -3   9   10.77    2.54
  -3  -3   9   11.40    2.41
  -3  -3  10  175.41    8.35
  -3  -3  10  181.88    8.20
  -3  -3  10  185.09    7.22
  -3  -3  11  319.91   11.48
  -3  -3  11  305.61   10.99
  -3  -3  12  101.99    5.78
  -3  -3  12  107.25    6.33
  -3  -3  12   96.57    5.82
  -3  -3  13   56.96    3.73
  -3  -3  13   65.29    4.15
  -3  -3  14    7.52    1.31
  -3  -3  14    9.73    1.49
  -3  -2  -8   54.09    5.20
  -3  -2  -8   54.42    5.02
  -3  -2  -8   55.62    3.60
  -3  -2  -7  153.77    9.24
  -3  -2  -7  148.85    9.22
  -3  -2  -6  372.37   15.37
  -3  -2  -6  387.34   15.95
  -3  -2  -5   83.57    6.55
  -3  -2  -5   86.08    7.27
  -3  -2  -5   85.71    4.61
  -3  -2  -5   84.56    7.25
  -3  -2  -4  695.92   19.39
  -3  -2  -4  692.60   20.87
  -3  -2  -4  696.77   15.30
  -3  -2  -4  673.57   20.54
  -3  -2  -3   92.30    6.06
  -3  -2  -3   91.90    6.59
  -3  -2  -3   92.56    4.51
  -3  -2  -3   99.46    6.88
  -3  -2  -2   96.52    5.65
  -3  -2  -2   92.29    6.24
  -3  -2  -2  100.47    6.42
  -3  -2  -2   93.74    4.42
  -3  -2  -1 1166.68   22.55
  -3  -2  -1 1140.31   24.07
  -3  -2  -1 1167.55   20.96
  -3  -2  -1 1125.76   24.58
  -3  -2   0 1080.27   21.85
  -3  -2   0 1100.56   19.71
  -3  -2   0 1089.03   22.03
  -3  -2   0 1114.00   22.69
  -3  -2   1 2662.59   45.30
  -3  -2   1 2726.59   41.59
  -3  -2   1 2688.78   43.56
  -3  -2   1 2608.58   44.41
  -3  -2   2  850.60   19.14
  -3  -2   3  557.85   14.97
  -3  -2   4  174.90    8.05
  -3  -2   5  389.69   13.05
  -3  -2   6  340.27   12.25
  -3  -2   7    6.72    2.47
  -3  -2   8  107.43    7.04
  -3  -2   9  210.68    8.45
  -3  -2   9  198.69    9.21
  -3  -2   9  216.32    8.36
  -3  -2   9  208.66    7.04
  -3  -2  10    4.23    2.47
  -3  -2  10    3.33    2.10
  -3  -2  10    7.74    2.13
  -3  -2  10   10.10    2.51
  -3  -2  11  124.45    6.58
  -3  -2  11  125.81    7.14
  -3  -2  11  136.99    6.14
  -3  -2  11  121.76    6.69
  -3  -2  11  124.37    5.90
  -3  -2  12  924.56   21.47
  -3  -2  12  908.64   19.69
  -3  -2  12  957.43   20.99
  -3  -2  12  936.71   18.36
  -3  -2  13  207.45    6.73
  -3  -2  13  218.75    8.20
  -3  -2  13  213.37    7.38
  -3  -2  14   21.42    1.80
  -3  -1  -9    5.49    2.10
  -3  -1  -8  488.24   16.71
  -3  -1  -8  499.66   17.18
  -3  -1  -7 1167.91   28.58
  -3  -1  -7 1110.97   29.18
  -3  -1  -7 1165.34   30.12
  -3  -1  -6  580.15   18.42
  -3  -1  -6  563.82   13.65
  -3  -1  -6  571.45   19.43
  -3  -1  -6  577.45   19.55
  -3  -1  -5  329.03   12.94
  -3  -1  -5  336.00    9.51
  -3  -1  -5  326.30   13.59
  -3  -1  -5  331.39   13.74
  -3  -1  -4  410.55   13.57
  -3  -1  -4  400.73   10.30
  -3  -1  -4  389.03   14.06
  -3  -1  -3  135.48    6.86
  -3  -1  -3  138.75    7.42
  -3  -1  -3  128.64    5.12
  -3  -1  -2 1373.05   26.81
  -3  -1  -2 1430.99   24.29
  -3  -1  -2 1427.16   28.02
  -3  -1  -1  340.60    9.28
  -3  -1  -1  357.49    8.81
  -3  -1  -1  353.19   10.19
  -3  -1  -1  357.76    9.99
  -3  -1   0  145.64    4.80
  -3  -1   0  150.10    5.53
  -3  -1   0  162.15    5.92
  -3  -1   0  151.95    5.39
  -3  -1   1   61.32    3.69
  -3  -1   2  809.15   17.34
  -3  -1   3  882.52   19.33
  -3  -1   4  493.92   13.99
  -3  -1   5 1482.33   30.28
  -3  -1   6  122.51    6.99
  -3  -1   7   70.24    5.57
  -3  -1   8  163.23    8.62
  -3  -1   9 1026.60   21.77
  -3  -1   9  974.00   23.53
  -3  -1   9 1021.94   21.70
  -3  -1   9 1014.60   19.86
  -3  -1   9 1031.30   20.60
  -3  -1  10  381.78   10.81
  -3  -1  10  382.41   12.33
  -3  -1  10  405.39   11.49
  -3  -1  10  379.73   10.29
  -3  -1  10  395.36   12.04
  -3  -1  10  367.65   11.38
  -3  -1  11   72.85    4.69
  -3  -1  11   75.50    5.61
  -3  -1  11   75.52    4.94
  -3  -1  11   66.89    4.41
  -3  -1  11   65.91    4.86
  -3  -1  11   74.82    5.00
  -3  -1  12  511.91   12.35
  -3  -1  12  488.41   14.44
  -3  -1  12  517.34   13.67
  -3  -1  12  504.96   13.28
  -3  -1  13    3.84    2.17
  -3  -1  13   -0.13    1.46
  -3  -1  14   56.78    3.18
  -3   0  -9   72.38    6.02
  -3   0  -9   67.23    6.04
  -3   0  -8   25.23    4.36
  -3   0  -8   27.38    4.42
  -3   0  -7   27.19    3.95
  -3   0  -7   26.56    4.50
  -3   0  -7   24.98    2.86
  -3   0  -6  354.81   13.88
  -3   0  -6  356.99   10.14
  -3   0  -6  359.79   14.56
  -3   0  -5  213.41    7.19
  -3   0  -4 1637.89   28.33
  -3   0  -4 1642.82   29.56
  -3   0  -3  396.02    9.42
  -3   0  -3  386.66   10.42
  -3   0  -2  428.81   10.79
  -3   0  -1  475.75    9.66
  -3   0  -1  475.63   11.18
  -3   0   0  353.11    8.39
  -3   0   1  890.22   17.32
  -3   0   2  191.74    6.88
  -3   0   2  191.89    4.53
  -3   0   3 1398.65   27.28
  -3   0   3 1441.39   24.04
  -3   0   4  388.47   11.74
  -3   0   4  377.30    9.77
  -3   0   5  120.57    5.84
  -3   0   5  123.64    6.76
  -3   0   6  478.43   13.87
  -3   0   6  490.55   14.92
  -3   0   7  338.28   12.48
  -3   0   7  351.44   12.50
  -3   0   8  109.26    7.08
  -3   0   8  121.80    7.56
  -3   0   9  107.35    5.97
  -3   0   9  110.51    5.61
  -3   0   9  107.34    5.76
  -3   0   9  104.91    4.88
  -3   0   9  107.69    5.79
  -3   0  10  471.59   14.15
  -3   0  10  477.00   13.54
  -3   0  10  478.44   13.37
  -3   0  10  497.01   12.87
  -3   0  10  490.90   13.85
  -3   0  11  283.18    9.85
  -3   0  11  279.16   10.34
  -3   0  12  106.77    6.22
  -3   0  12  100.89    5.10
  -3   0  12  113.13    6.18
  -3   0  13   23.56    2.81
  -3   0  13   22.97    1.99
  -3   0  14  171.48    5.04
  -3   1 -10   65.63    5.25
  -3   1  -9  153.33    9.17
  -3   1  -8  255.04   11.93
  -3   1  -8  250.45    8.47
  -3   1  -8  240.61   12.18
  -3   1  -7   26.26    2.90
  -3   1  -6  193.69    9.88
  -3   1  -6  191.64    8.08
  -3   1  -5  107.70    7.09
  -3   1  -5  105.36    5.93
  -3   1  -4  520.38   15.45
  -3   1  -4  528.33   13.98
  -3   1  -3  640.35   16.61
  -3   1  -3  685.34   15.65
  -3   1  -2  642.22   15.61
  -3   1  -2  691.45   15.06
  -3   1  -1  369.43    7.66
  -3   1  -1  361.97    9.95
  -3   1  -1  367.47    9.61
  -3   1   0  420.79    9.41
  -3   1   0  422.97    9.97
  -3   1   0  433.70    9.05
  -3   1   1  549.68   11.71
  -3   1   1  540.39   12.19
  -3   1   2  760.93   15.64
  -3   1   2  761.07   16.37
  -3   1   3   38.27    2.72
  -3   1   3   40.94    3.65
  -3   1   3   39.26    3.03
  -3   1   4   78.53    5.36
  -3   1   4   68.96    4.16
  -3   1   4   69.45    4.22
  -3   1   5  255.73   10.13
  -3   1   5  241.73    9.07
  -3   1   6  216.09    9.28
  -3   1   6  230.16   10.04
  -3   1   7  242.01   10.55
  -3   1   8  214.39   10.30
  -3   1   9  473.04   13.77
  -3   1   9  476.36   16.43
  -3   1   9  487.10   13.27
  -3   1   9  529.34   13.70
  -3   1   9  485.97   13.74
  -3   1  10  378.17   12.74
  -3   1  10  409.49   11.94
  -3   1  10  405.84   12.76
  -3   1  11   45.26    4.40
  -3   1  11   47.74    3.83
  -3   1  11   48.23    4.71
  -3   1  12  124.02    6.39
  -3   1  12  128.36    5.11
  -3   1  12  135.00    6.52
  -3   1  13   51.20    3.48
  -3   2 -10   23.32    3.47
  -3   2  -9   76.33    4.52
  -3   2  -8   29.42    4.34
  -3   2  -7  308.41   12.92
  -3   2  -7  157.75    8.39
  -3   2  -6    7.08    2.58
  -3   2  -6    7.83    2.59
  -3   2  -5  736.39   20.21
  -3   2  -5  752.59   18.75
  -3   2  -4  647.26   17.68
  -3   2  -4  652.72   16.46
  -3   2  -3  440.00   12.97
  -3   2  -3  449.67   12.39
  -3   2  -2   57.90    4.06
  -3   2  -2   61.84    2.97
  -3   2  -2   60.81    4.01
  -3   2  -1  424.13   10.70
  -3   2  -1  446.50   10.01
  -3   2  -1  434.57   10.92
  -3   2   0   23.63    2.17
  -3   2   0   22.29    2.26
  -3   2   1  484.14   11.48
  -3   2   1  455.18    9.05
  -3   2   2  725.60   16.94
  -3   2   2  724.72   16.46
  -3   2   2  740.45   15.67
  -3   2   3  122.18    6.01
  -3   2   3  119.24    5.40
  -3   2   4 3340.19   56.12
  -3   2   4 3334.33   55.76
  -3   2   4 3386.63   54.36
  -3   2   5  386.63   12.63
  -3   2   5  374.28   11.25
  -3   2   6  149.48    8.08
  -3   2   7  133.33    8.01
  -3   2   8  378.50   11.48
  -3   2   8  368.41   14.23
  -3   2   8  364.63   10.53
  -3   2   8  359.14   11.17
  -3   2   8  375.30   10.76
  -3   2   9  205.82    8.73
  -3   2   9  205.08    7.94
  -3   2   9  193.57    8.46
  -3   2  10  185.91    8.62
  -3   2  10  194.01    7.53
  -3   2  10  179.43    8.42
  -3   2  11   96.94    5.94
  -3   2  11   93.97    4.54
  -3   2  11   94.53    5.99
  -3   2  12   63.27    4.22
  -3   2  12   69.31    4.41
  -3   2  13   78.39    3.46
  -3   3 -10   48.44    3.34
  -3   3  -9   80.48    6.39
  -3   3  -8  212.67   10.91
  -3   3  -8  214.16   10.20
  -3   3  -7  249.33   11.98
  -3   3  -7  241.68   11.08
  -3   3  -6  267.05   11.96
  -3   3  -6  240.23   10.95
  -3   3  -5 1432.26   31.34
  -3   3  -5 1402.52   28.63
  -3   3  -5 1452.62   30.64
  -3   3  -4 1196.20   26.03
  -3   3  -4 1161.20   25.42
  -3   3  -4 1120.69   22.52
  -3   3  -4 1138.04   24.02
  -3   3  -3 3072.37   52.44
  -3   3  -3 3179.39   52.55
  -3   3  -3 3086.02   51.99
  -3   3  -3 3145.11   50.85
  -3   3  -2  784.82   16.79
  -3   3  -2  801.77   17.47
  -3   3  -2  788.26   17.60
  -3   3  -1 1084.08   21.40
  -3   3  -1 1076.66   21.14
  -3   3  -1 1074.88   21.62
  -3   3   0  153.86    6.54
  -3   3   0  159.44    6.57
  -3   3   0  156.04    5.61
  -3   3   1  236.63    8.58
  -3   3   1  242.28    8.30
  -3   3   2 1663.59   31.50
  -3   3   2 1623.96   30.03
  -3   3   3 4733.88   76.92
  -3   3   3 4821.66   74.93
  -3   3   4  644.49   17.58
  -3   3   4  637.04   15.84
  -3   3   5  176.61    8.95
  -3   3   5  187.99    7.68
  -3   3   6  300.12   12.30
  -3   3   7 1222.57   29.86
  -3   3   7 1235.45   24.30
  -3   3   7 1271.89   24.24
  -3   3   8  490.32   14.06
  -3   3   8  480.98   12.87
  -3   3   8  494.39   13.57
  -3   3   8  498.13   12.86
  -3   3   9   39.88    4.20
  -3   3   9   39.72    3.47
  -3   3   9   47.95    4.47
  -3   3  10    0.69    2.17
  -3   3  10    0.39    2.14
  -3   3  11  179.05    7.44
  -3   3  11  181.63    7.07
  -3   3  12   57.08    3.40
  -3   4  -9   22.50    3.64
  -3   4  -9   21.89    3.76
  -3   4  -8  103.52    7.72
  -3   4  -8  108.22    7.86
  -3   4  -7  259.88   12.20
  -3   4  -7  269.67   10.81
  -3   4  -7  262.72   12.44
  -3   4  -6  104.06    6.71
  -3   4  -6   99.33    7.43
  -3   4  -6  100.93    6.01
  -3   4  -6  102.59    7.25
  -3   4  -5  643.76   18.41
  -3   4  -5  656.13   17.27
  -3   4  -5  678.14   18.89
  -3   4  -4   40.29    4.02
  -3   4  -4   35.46    4.14
  -3   4  -4   41.85    4.12
  -3   4  -3 1548.59   31.39
  -3   4  -3 1485.40   29.92
  -3   4  -3 1522.37   29.31
  -3   4  -2  274.40    9.93
  -3   4  -2  262.11   10.25
  -3   4  -1  374.88   10.75
  -3   4  -1  388.59   11.96
  -3   4  -1  370.46   11.97
  -3   4   0  668.74   16.85
  -3   4   0  666.25   14.36
  -3   4   0  688.73   17.63
  -3   4   1 1347.46   27.29
  -3   4   1 1362.24   28.77
  -3   4   2   98.59    5.80
  -3   4   2   89.81    6.15
  -3   4   3  812.25   19.30
  -3   4   3  830.83   21.42
  -3   4   4  276.75    9.98
  -3   4   4  273.24   11.36
  -3   4   5   59.91    5.32
  -3   4   5   61.55    5.60
  -3   4   6   23.17    3.81
  -3   4   6   34.67    3.36
  -3   4   7  821.33   19.17
  -3   4   7  789.81   18.41
  -3   4   7  779.90   17.19
  -3   4   8   80.33    5.64
  -3   4   8   74.33    4.42
  -3   4   8   73.26    4.91
  -3   4   9   13.67    2.97
  -3   4   9   14.78    2.81
  -3   4  10   34.31    3.55
  -3   4  10   38.98    3.33
  -3   4  11   68.56    3.87
  -3   4  12   76.34    2.72
  -3   5 -10   96.60    6.04
  -3   5  -9   32.54    4.41
  -3   5  -8    6.38    3.11
  -3   5  -8    6.16    2.72
  -3   5  -7 1445.63   32.75
  -3   5  -7 1453.97   34.87
  -3   5  -7 1451.16   31.02
  -3   5  -7 1478.94   32.51
  -3   5  -6  619.46   19.39
  -3   5  -6  615.46   18.16
  -3   5  -6  642.77   18.82
  -3   5  -5  166.43    8.90
  -3   5  -5  161.19    9.23
  -3   5  -5  169.92    8.53
  -3   5  -4  136.94    8.19
  -3   5  -4  142.83    8.69
  -3   5  -4  145.19    7.43
  -3   5  -3  120.67    7.77
  -3   5  -3  119.09    7.38
  -3   5  -3  118.55    5.94
  -3   5  -2  228.92   10.35
  -3   5  -2  234.84   10.34
  -3   5  -1  400.35   13.72
  -3   5  -1  409.41   11.66
  -3   5  -1  395.04   14.10
  -3   5   0  206.33    9.43
  -3   5   0  212.01   10.09
  -3   5   1 1104.54   25.05
  -3   5   1 1081.21   26.79
  -3   5   2  299.80   11.09
  -3   5   2  286.32   12.21
  -3   5   3   67.90    5.19
  -3   5   3   63.54    5.77
  -3   5   4  137.60    8.29
  -3   5   4  145.04    6.50
  -3   5   5  389.70   14.81
  -3   5   5  355.95   13.54
  -3   5   5  404.21   12.05
  -3   5   5  381.44   10.20
  -3   5   6  384.65   11.98
  -3   5   7  371.74   12.16
  -3   5   7  347.55   10.17
  -3   5   7  373.79   11.56
  -3   5   8   36.55    4.04
  -3   5   9  121.20    6.07
  -3   5  10   42.34    3.14
  -3   5  11    0.47    0.83
  -3   6 -10   92.56    5.85
  -3   6  -9    2.77    2.55
  -3   6  -8  307.15   11.52
  -3   6  -8  327.23   14.09
  -3   6  -8  327.11   13.42
  -3   6  -7  258.89   11.62
  -3   6  -7  274.83   12.57
  -3   6  -7  288.46   13.71
  -3   6  -6  104.35    8.00
  -3   6  -6  105.40    7.72
  -3   6  -5  174.13   10.03
  -3   6  -5  176.07   10.32
  -3   6  -4   77.23    7.01
  -3   6  -4   78.71    6.92
  -3   6  -3  104.07    7.82
  -3   6  -3   91.45    7.42
  -3   6  -2  293.12   12.78
  -3   6  -2  281.77   10.48
  -3   6  -2  286.66   12.71
  -3   6  -1   22.31    4.01
  -3   6  -1   23.42    4.05
  -3   6   0    2.11    2.46
  -3   6   0    4.84    2.34
  -3   6   1  308.69   12.21
  -3   6   1  305.58   13.55
  -3   6   2  515.08   15.80
  -3   6   2  498.46   17.46
  -3   6   2  506.42   13.44
  -3   6   3  159.61    9.23
  -3   6   3  170.75    7.60
  -3   6   4   39.41    4.58
  -3   6   4   47.07    4.32
  -3   6   5   16.00    3.14
  -3   6   5   15.46    2.31
  -3   6   6   45.42    4.04
  -3   6   7    6.40    2.54
  -3   6   7    5.12    1.98
  -3   6   8   99.48    5.24
  -3   6   9   12.34    1.87
  -3   7  -9   97.83    6.65
  -3   7  -8   58.42    5.83
  -3   7  -8   53.72    4.93
  -3   7  -7  145.88    9.36
  -3   7  -7  144.59    8.73
  -3   7  -6  265.12   12.64
  -3   7  -6  275.80   12.62
  -3   7  -5  334.70   14.71
  -3   7  -5  337.74   13.81
  -3   7  -5  336.98   10.31
  -3   7  -4  625.70   20.09
  -3   7  -4  640.00   21.22
  -3   7  -4  681.36   19.28
  -3   7  -4  636.40   15.86
  -3   7  -3  132.08    8.98
  -3   7  -3  127.06    9.04
  -3   7  -3  139.18    7.62
  -3   7  -3  128.52    6.52
  -3   7  -2  569.03   19.50
  -3   7  -2  552.36   19.17
  -3   7  -2  575.10   15.02
  -3   7  -1  166.75    9.75
  -3   7  -1  189.12   10.87
  -3   7  -1  177.38    6.93
  -3   7  -1  184.69    7.89
  -3   7   0  837.16   22.87
  -3   7   0  840.55   24.37
  -3   7   0  817.64   18.78
  -3   7   0  832.29   19.36
  -3   7   0  840.90   17.41
  -3   7   1   55.19    5.38
  -3   7   1   51.10    5.72
  -3   7   1   46.59    4.09
  -3   7   1   50.34    4.32
  -3   7   2   40.21    5.05
  -3   7   2   39.80    4.10
  -3   7   3   44.14    4.74
  -3   7   3   43.65    4.36
  -3   7   4   44.90    4.38
  -3   7   4   44.81    3.64
  -3   7   5   13.90    2.75
  -3   7   6   43.66    3.71
  -3   7   6   38.88    3.52
  -3   7   7  331.88    9.32
  -3   7   8   20.40    1.88
  -3   8  -9    3.59    1.54
  -3   8  -8   86.39    5.51
  -3   8  -8   89.53    5.95
  -3   8  -7  195.84    9.55
  -3   8  -7  207.09    9.63
  -3   8  -6   36.78    4.65
  -3   8  -6   42.49    4.57
  -3   8  -6   31.54    3.18
  -3   8  -5  160.11    8.87
  -3   8  -5  166.83    8.53
  -3   8  -5  164.08    9.83
  -3   8  -5  172.13    7.40
  -3   8  -4   25.91    4.21
  -3   8  -4   29.93    4.87
  -3   8  -4   35.17    3.98
  -3   8  -3  150.44    9.21
  -3   8  -3  140.79    9.18
  -3   8  -3  136.57    7.23
  -3   8  -2  409.92   15.67
  -3   8  -2  432.05   16.10
  -3   8  -2  411.81   11.33
  -3   8  -2  433.82   13.28
  -3   8  -1  539.72   17.48
  -3   8  -1  577.37   18.88
  -3   8  -1  549.03   14.32
  -3   8  -1  556.12   15.49
  -3   8  -1  569.62   14.01
  -3   8   0  151.39    8.29
  -3   8   0  156.50    9.26
  -3   8   0  148.85    7.05
  -3   8   0  158.11    7.54
  -3   8   1  174.34    9.18
  -3   8   1  184.08    8.13
  -3   8   2  304.89   10.74
  -3   8   3  222.08    8.94
  -3   8   3  223.57    7.65
  -3   8   4   51.05    4.16
  -3   8   5   87.32    4.40
  -3   8   5  105.89    5.01
  -3   8   6    2.29    1.27
  -3   9  -9  141.95    4.35
  -3   9  -8   18.43    2.22
  -3   9  -7   39.13    2.53
  -3   9  -6  225.68    9.61
  -3   9  -6  230.91    7.44
  -3   9  -5   70.89    5.67
  -3   9  -5   66.52    4.40
  -3   9  -4   81.85    6.14
  -3   9  -4   98.49    5.54
  -3   9  -4   89.84    5.15
  -3   9  -3   46.50    4.81
  -3   9  -3   51.35    3.90
  -3   9  -3   49.20    4.36
  -3   9  -2  391.82   12.77
  -3   9  -2  365.51   10.13
  -3   9  -2  382.55   10.25
  -3   9  -2  384.21   11.92
  -3   9  -1   53.65    3.92
  -3   9   0   83.67    4.81
  -3   9   1  340.18   10.24
  -3   9   2   65.72    4.20
  -3   9   2   61.64    3.42
  -3   9   3    6.79    1.86
  -3   9   4  154.98    4.69
  -3   9   4  218.01    6.02
  -3  10  -8   12.70    1.20
  -3  10  -7   95.27    3.54
  -3  10  -6   93.51    3.86
  -3  10  -5  110.25    4.34
  -3  10  -4   22.33    2.00
  -3  10  -3  127.74    4.23
  -3  10  -2    7.00    1.29
  -3  10  -1    2.20    1.09
  -3  10   0  314.76    7.57
  -3  10   0  318.30    7.67
  -3  10   1   45.95    2.47
  -3  10   1   43.53    2.00
  -3  10   2   10.41    1.21
  -2  -9   0   74.20    3.04
  -2  -9   0   70.15    2.71
  -2  -9   1   30.00    2.21
  -2  -9   1   30.86    2.38
  -2  -9   2   22.52    2.03
  -2  -9   2   23.79    2.46
  -2  -9   3   32.96    3.01
  -2  -9   3   31.51    2.35
  -2  -9   4   28.11    2.04
  -2  -9   4   27.01    2.92
  -2  -9   5  164.79    6.56
  -2  -9   6    8.17    2.06
  -2  -9   6   27.42    2.53
  -2  -9   7   87.74    4.27
  -2  -9   7   80.45    3.70
  -2  -9   8   28.75    2.33
  -2  -9   9   41.22    2.41
  -2  -9  10   77.42    2.67
  -2  -8  -3   89.85    3.66
  -2  -8  -2  195.59    6.53
  -2  -8  -2  184.64    5.26
  -2  -8  -1   73.02    4.33
  -2  -8  -1   77.27    4.08
  -2  -8   0   41.60    3.62
  -2  -8   0   46.46    3.79
  -2  -8   1  226.94    8.28
  -2  -8   1  230.56    8.81
  -2  -8   2   60.19    4.22
  -2  -8   2   56.53    4.78
  -2  -8   3   29.74    3.17
  -2  -8   3   29.53    2.96
  -2  -8   3   35.83    4.19
  -2  -8   4  137.03    5.90
  -2  -8   4  145.77    7.52
  -2  -8   4  134.87    5.58
  -2  -8   5   98.00    6.20
  -2  -8   5  106.44    5.33
  -2  -8   6  165.67    7.74
  -2  -8   6  170.81    7.13
  -2  -8   7  111.43    6.07
  -2  -8   7  124.52    6.32
  -2  -8   8   87.95    4.89
  -2  -8   8  100.13    5.45
  -2  -8   9  130.66    5.91
  -2  -8  10   13.38    2.08
  -2  -8  11   18.15    1.75
  -2  -7  -5   27.96    2.16
  -2  -7  -5   29.23    1.86
  -2  -7  -4  105.65    5.03
  -2  -7  -4   97.36    4.09
  -2  -7  -3  168.27    6.81
  -2  -7  -3  160.04    7.07
  -2  -7  -3  152.59    5.81
  -2  -7  -3  160.92    5.83
  -2  -7  -2   13.77    2.70
  -2  -7  -2   14.41    2.88
  -2  -7  -2   17.45    2.33
  -2  -7  -1   24.87    3.58
  -2  -7  -1   28.12    3.59
  -2  -7   0  280.55   10.22
  -2  -7   0  273.96   10.11
  -2  -7   1   38.44    3.89
  -2  -7   1   42.12    4.06
  -2  -7   1   41.47    4.35
  -2  -7   2   94.66    5.55
  -2  -7   2   90.22    5.07
  -2  -7   2   90.18    6.08
  -2  -7   3  192.81    7.72
  -2  -7   3  184.33    8.69
  -2  -7   3  169.77    7.42
  -2  -7   4   88.58    4.95
  -2  -7   4   96.48    6.32
  -2  -7   4   88.52    5.56
  -2  -7   4   84.47    5.03
  -2  -7   5  251.04    9.74
  -2  -7   5  267.63   10.38
  -2  -7   5  270.93    9.35
  -2  -7   6   85.06    5.81
  -2  -7   6   77.88    5.55
  -2  -7   6   88.22    5.58
  -2  -7   7  287.07   10.36
  -2  -7   7  303.45   10.71
  -2  -7   8  455.75   12.98
  -2  -7   8  470.24   13.87
  -2  -7   9   75.13    5.22
  -2  -7  10    8.90    2.38
  -2  -7  11  134.88    5.50
  -2  -7  12   53.37    2.58
  -2  -7  13  118.22    3.58
  -2  -6  -7    8.02    1.14
  -2  -6  -7    6.96    1.17
  -2  -6  -6   40.77    2.99
  -2  -6  -5   24.01    2.70
  -2  -6  -5   19.77    2.85
  -2  -6  -4  321.86   10.43
  -2  -6  -4  349.72   11.48
  -2  -6  -3   58.84    4.77
  -2  -6  -3   58.40    4.91
  -2  -6  -2  191.42    8.43
  -2  -6  -2  194.11    8.61
  -2  -6  -1  449.19   13.34
  -2  -6  -1  460.59   13.56
  -2  -6   0 1113.42   23.45
  -2  -6   0 1109.71   23.47
  -2  -6   1  204.21   10.52
  -2  -6   1  210.22    8.19
  -2  -6   1  200.97    8.09
  -2  -6   1  214.42    7.22
  -2  -6   2  137.18    8.88
  -2  -6   2  148.29    6.37
  -2  -6   2  146.30    6.45
  -2  -6   2  144.88    6.13
  -2  -6   3  134.22    8.60
  -2  -6   3  129.91    6.04
  -2  -6   3  109.98    5.32
  -2  -6   3  122.55    5.42
  -2  -6   3  106.29    4.86
  -2  -6   4  146.66    9.02
  -2  -6   4  154.35    7.20
  -2  -6   4  140.46    6.69
  -2  -6   4  142.33    6.09
  -2  -6   5   44.33    5.12
  -2  -6   5   46.01    4.06
  -2  -6   5   52.75    4.46
  -2  -6   5   48.62    3.96
  -2  -6   6   90.22    5.57
  -2  -6   6   83.58    5.50
  -2  -6   6   79.01    5.10
  -2  -6   7   10.63    2.68
  -2  -6   7    9.46    2.56
  -2  -6   7   13.14    2.84
  -2  -6   8    2.50    1.87
  -2  -6   8    0.99    2.00
  -2  -6   9   23.95    2.85
  -2  -6   9   26.82    3.41
  -2  -6  10   54.42    4.39
  -2  -6  11  176.04    6.77
  -2  -6  12  212.95    6.16
  -2  -6  13   34.06    2.71
  -2  -5  -8    4.48    1.15
  -2  -5  -7   65.11    3.13
  -2  -5  -7   77.33    4.29
  -2  -5  -6   -0.37    1.51
  -2  -5  -6   -0.85    1.91
  -2  -5  -5   25.11    3.25
  -2  -5  -4  227.83    8.85
  -2  -5  -4  213.08    7.91
  -2  -5  -3  318.89   10.13
  -2  -5  -3  325.62   10.72
  -2  -5  -2  243.35   10.18
  -2  -5  -2  257.31    9.14
  -2  -5  -2  247.33    8.65
  -2  -5  -1   22.74    3.56
  -2  -5  -1   25.25    2.83
  -2  -5  -1   26.11    2.87
  -2  -5   0  446.09   15.38
  -2  -5   1  193.53    9.77
  -2  -5   2  312.25   12.68
  -2  -5   3  318.41   12.76
  -2  -5   4  917.98   23.80
  -2  -5   5  420.75   14.82
  -2  -5   6  199.41    9.95
  -2  -5   7  167.68    8.74
  -2  -5   7  170.73    7.21
  -2  -5   7  160.55    6.87
  -2  -5   7  174.89    6.61
  -2  -5   7  182.11    7.49
  -2  -5   8   49.22    4.21
  -2  -5   8   41.81    3.89
  -2  -5   9  202.52    8.62
  -2  -5   9  205.70    8.23
  -2  -5  10  180.24    8.36
  -2  -5  10  166.34    7.15
  -2  -5  11   66.50    5.13
  -2  -5  11   67.89    4.33
  -2  -5  12  187.49    7.70
  -2  -5  13   13.44    2.34
  -2  -5  14   36.23    2.22
  -2  -4  -9   25.64    1.88
  -2  -4  -8   51.52    3.56
  -2  -4  -7   30.07    3.64
  -2  -4  -7   28.58    2.80
  -2  -4  -6  593.08   17.93
  -2  -4  -6  611.00   17.42
  -2  -4  -5  291.09   13.52
  -2  -4  -5  283.81    8.96
  -2  -4  -5  295.88   11.96
  -2  -4  -4  141.43    9.43
  -2  -4  -4  139.29    5.92
  -2  -4  -4  159.46    8.51
  -2  -4  -3  494.52   15.07
  -2  -4  -3  482.46   17.55
  -2  -4  -2  378.65   12.71
  -2  -4  -2  384.94   12.06
  -2  -4  -1  201.46    8.92
  -2  -4   0  150.56    7.91
  -2  -4   1 1394.05   29.94
  -2  -4   2  768.23   20.09
  -2  -4   3  448.79   14.36
  -2  -4   4  365.25   12.84
  -2  -4   5  380.55   13.13
  -2  -4   6  246.10   10.26
  -2  -4   7   13.18    2.74
  -2  -4   8  251.88   10.02
  -2  -4   8  249.64    8.84
  -2  -4   8  260.19    8.37
  -2  -4   9   17.12    3.31
  -2  -4   9   15.86    2.86
  -2  -4   9   10.28    2.13
  -2  -4  10  351.69   11.73
  -2  -4  10  360.18   10.49
  -2  -4  11  291.87   10.60
  -2  -4  11  279.32    8.47
  -2  -4  12  269.14   10.07
  -2  -4  12  262.81    9.47
  -2  -4  12  274.98    7.90
  -2  -4  13   94.58    5.16
  -2  -4  13  104.91    4.97
  -2  -4  13   93.52    3.67
  -2  -4  14    3.39    1.29
  -2  -3 -10    3.50    0.90
  -2  -3  -8  160.77    8.29
  -2  -3  -7   25.88    3.94
  -2  -3  -7   24.66    4.08
  -2  -3  -7   16.36    3.41
  -2  -3  -6  514.07   18.27
  -2  -3  -6  494.74   17.25
  -2  -3  -6  502.19   12.20
  -2  -3  -6  529.44   17.56
  -2  -3  -5  628.13   20.39
  -2  -3  -5  628.01   19.73
  -2  -3  -4  220.37   10.77
  -2  -3  -4  216.91   10.96
  -2  -3  -3  204.30    7.74
  -2  -3  -3  182.76    6.03
  -2  -3  -3  184.95    9.52
  -2  -3  -3  193.31    9.53
  -2  -3  -2   74.23    4.67
  -2  -3  -2   77.02    3.64
  -2  -3  -2   70.81    5.56
  -2  -3  -2   73.56    5.53
  -2  -3  -1  770.69   17.91
  -2  -3  -1  768.97   14.78
  -2  -3  -1  768.67   18.86
  -2  -3  -1  764.84   18.89
  -2  -3   0  899.46   16.75
  -2  -3   0  903.03   20.20
  -2  -3   0  882.07   19.84
  -2  -3   1  204.42    8.26
  -2  -3   2 2374.95   42.02
  -2  -3   3  662.70   16.68
  -2  -3   4 2913.31   49.97
  -2  -3   4 2903.27   44.34
  -2  -3   5  910.32   17.83
  -2  -3   5  878.28   20.99
  -2  -3   6  377.11   10.73
  -2  -3   6  355.67   12.13
  -2  -3   7  211.90    8.54
  -2  -3   7  204.82    9.01
  -2  -3   8  199.48    8.96
  -2  -3   8  205.07    8.82
  -2  -3   9  243.07    9.05
  -2  -3   9  227.96    9.95
  -2  -3   9  244.74    8.86
  -2  -3   9  219.46    7.17
  -2  -3  10  318.31   11.21
  -2  -3  10  314.26   10.77
  -2  -3  10  342.99    9.55
  -2  -3  10  331.48    9.25
  -2  -3  11   18.84    3.46
  -2  -3  11   21.17    2.92
  -2  -3  11   12.50    2.78
  -2  -3  11   13.72    2.35
  -2  -3  12   48.84    4.48
  -2  -3  12   53.00    4.78
  -2  -3  12   49.78    3.69
  -2  -3  12   46.96    3.96
  -2  -3  12   48.80    3.64
  -2  -3  13    7.00    2.22
  -2  -3  13    8.96    1.77
  -2  -3  13   10.18    1.96
  -2  -3  14   22.46    2.09
  -2  -2  -8  802.46   21.67
  -2  -2  -8  828.71   22.82
  -2  -2  -8  772.89   22.14
  -2  -2  -7   56.60    5.68
  -2  -2  -7   49.90    5.58
  -2  -2  -6  350.90   14.02
  -2  -2  -6  355.01   14.77
  -2  -2  -6  373.19   14.46
  -2  -2  -5  243.21   11.06
  -2  -2  -5  243.08   11.45
  -2  -2  -5  265.56   11.56
  -2  -2  -4  126.12    4.62
  -2  -2  -4  127.64    7.45
  -2  -2  -4  113.79    7.22
  -2  -2  -4  127.57    7.34
  -2  -2  -3  116.04    4.21
  -2  -2  -3  124.61    6.77
  -2  -2  -3  116.35    6.67
  -2  -2  -3  122.16    5.01
  -2  -2  -3  110.91    6.41
  -2  -2  -2 3497.21   56.58
  -2  -2  -2 3473.61   56.78
  -2  -2  -2 3429.44   54.03
  -2  -2  -2 3391.97   56.07
  -2  -2  -1  246.79    8.12
  -2  -2  -1  236.29    7.95
  -2  -2  -1  238.74    7.55
  -2  -2  -1  242.25    7.76
  -2  -2   0  196.59    6.57
  -2  -2   0  199.98    6.75
  -2  -2   0  196.71    6.75
  -2  -2   1   62.86    3.25
  -2  -2   1   65.58    3.86
  -2  -2   2 1607.69   28.89
  -2  -2   3  407.87    8.17
  -2  -2   3  417.03   11.26
  -2  -2   4 1247.96   21.63
  -2  -2   4 1229.46   24.51
  -2  -2   5   21.35    2.84
  -2  -2   5   16.15    2.18
  -2  -2   6 2193.89   39.61
  -2  -2   6 2181.61   38.42
  -2  -2   7  256.82    9.80
  -2  -2   7  266.86    9.87
  -2  -2   8  291.51   10.51
  -2  -2   8  284.86   11.13
  -2  -2   9   50.77    4.13
  -2  -2   9   49.49    5.00
  -2  -2   9   45.95    3.73
  -2  -2  10  722.69   17.78
  -2  -2  10  690.81   16.92
  -2  -2  10  699.78   16.15
  -2  -2  10  699.13   15.81
  -2  -2  10  688.18   15.46
  -2  -2  11  546.79   15.11
  -2  -2  11  556.14   15.65
  -2  -2  11  540.72   14.10
  -2  -2  11  562.97   14.12
  -2  -2  11  549.33   14.65
  -2  -2  11  545.93   13.75
  -2  -2  12  126.13    6.52
  -2  -2  12  127.86    6.89
  -2  -2  12  124.33    6.19
  -2  -2  12  129.56    6.13
  -2  -2  12  136.66    6.13
  -2  -2  12  133.52    5.90
  -2  -2  13  180.45    7.25
  -2  -2  13  179.82    6.75
  -2  -2  13  179.94    6.54
  -2  -2  13  174.15    6.06
  -2  -2  13  179.22    5.90
  -2  -1  -9  204.19    9.57
  -2  -1  -9  208.03   10.28
  -2  -1  -8   78.77    6.71
  -2  -1  -8   87.30    6.79
  -2  -1  -8   85.70    7.08
  -2  -1  -7  654.65   20.01
  -2  -1  -7  629.82   19.56
  -2  -1  -7  612.30   20.03
  -2  -1  -6  393.86   14.63
  -2  -1  -6  396.73   14.45
  -2  -1  -5  236.15   10.34
  -2  -1  -5  223.61    6.48
  -2  -1  -5  227.96    9.97
  -2  -1  -4    7.70    2.22
  -2  -1  -4    5.75    1.31
  -2  -1  -4    4.83    2.12
  -2  -1  -3  299.97    6.88
  -2  -1  -3  288.17    9.81
  -2  -1  -3  305.51    9.78
  -2  -1  -2  575.77   11.37
  -2  -1  -2  579.10   13.36
  -2  -1  -2  595.54   13.46
  -2  -1  -1  773.47   14.98
  -2  -1  -1  766.39   14.32
  -2  -1  -1  798.44   15.30
  -2  -1   0 1169.06   20.38
  -2  -1   0 1192.20   19.48
  -2  -1   1  345.14    8.39
  -2  -1   2 5097.95   76.20
  -2  -1   3   74.34    4.03
  -2  -1   3   75.69    3.11
  -2  -1   4  216.95    6.69
  -2  -1   4  232.33    7.85
  -2  -1   5  376.08   10.50
  -2  -1   5  386.75   11.21
  -2  -1   6  221.76    8.59
  -2  -1   6  235.23    8.78
  -2  -1   7  194.43    8.78
  -2  -1   7  190.03    8.13
  -2  -1   8  139.67    7.91
  -2  -1   8  131.50    6.82
  -2  -1   9  225.09    8.35
  -2  -1  10  119.68    6.28
  -2  -1  10  123.34    6.62
  -2  -1  10  114.05    5.89
  -2  -1  10  129.73    6.31
  -2  -1  10  121.29    6.13
  -2  -1  10  123.19    6.30
  -2  -1  11  203.04    8.94
  -2  -1  11  196.92    8.23
  -2  -1  11  188.69    8.13
  -2  -1  11  197.15    7.76
  -2  -1  11  198.24    7.93
  -2  -1  11  192.91    8.01
  -2  -1  12  117.94    6.01
  -2  -1  12  109.83    6.38
  -2  -1  12  115.03    5.41
  -2  -1  12  115.50    5.93
  -2  -1  12  109.94    6.03
  -2  -1  12  111.93    5.82
  -2  -1  13  206.92    7.60
  -2  -1  13  210.24    7.04
  -2  -1  14   39.12    2.50
  -2   0 -10   45.11    4.32
  -2   0 -10   46.90    4.55
  -2   0  -9  187.37    9.67
  -2   0  -9  186.44   10.08
  -2   0  -8   11.02    2.93
  -2   0  -8   10.42    3.03
  -2   0  -7   43.61    5.00
  -2   0  -7   41.41    3.00
  -2   0  -7   37.86    4.64
  -2   0  -6  526.14   11.78
  -2   0  -5  227.37    9.15
  -2   0  -4  250.74    9.01
  -2   0  -3  311.46    9.40
  -2   0  -2  441.90    7.57
  -2   0  -2  444.86   10.77
  -2   0  -1 2316.72   12.09
  -2   0  -1   -0.22    0.66
  -2   0   0 2291.36   34.62
  -2   0   1  281.96    6.80
  -2   0   1  278.95    4.99
  -2   0   2 4665.94   70.25
  -2   0   2 4724.21   68.15
  -2   0   3  439.29    9.85
  -2   0   3  453.04   10.85
  -2   0   4  387.41   10.65
  -2   0   4  399.12   10.25
  -2   0   5   15.45    2.32
  -2   0   5   18.34    2.53
  -2   0   5   21.38    2.78
  -2   0   6 1465.95   29.32
  -2   0   6 1481.99   29.26
  -2   0   7   70.88    5.44
  -2   0   7   62.25    4.80
  -2   0   8  534.42   17.06
  -2   0   9   82.79    5.33
  -2   0   9   81.57    4.49
  -2   0   9   66.36    4.26
  -2   0   9   84.22    4.90
  -2   0   9   72.05    4.71
  -2   0  10  305.46   10.86
  -2   0  10  302.73    9.75
  -2   0  10  307.19   10.04
  -2   0  10  303.68    9.63
  -2   0  10  308.36   10.44
  -2   0  10  309.00   10.57
  -2   0  11   56.95    4.92
  -2   0  11   60.86    4.47
  -2   0  11   62.70    4.85
  -2   0  11   58.31    4.58
  -2   0  11   58.27    3.97
  -2   0  11   60.52    5.00
  -2   0  12  153.47    7.32
  -2   0  12  158.39    7.27
  -2   0  12  153.54    7.19
  -2   0  13  129.48    5.63
  -2   0  13  132.93    5.68
  -2   0  14  153.76    4.37
  -2   1 -10   65.23    5.53
  -2   1  -9  621.36   19.35
  -2   1  -9  603.16   19.20
  -2   1  -8  624.33   18.18
  -2   1  -8  635.90   14.26
  -2   1  -7  392.26   13.59
  -2   1  -6   71.39    5.38
  -2   1  -6   78.48    4.56
  -2   1  -5  535.74   15.04
  -2   1  -5  549.50   13.09
  -2   1  -4  233.17    9.13
  -2   1  -4  240.33    8.74
  -2   1  -4  234.92    7.34
  -2   1  -3  432.95   11.18
  -2   1  -3  416.02   11.64
  -2   1  -2 1371.50   24.14
  -2   1  -1 1923.59   30.92
  -2   1  -1 1939.42   28.69
  -2   1   0 2996.96   44.88
  -2   1   0 3044.62   44.89
  -2   1   1 4357.62   63.40
  -2   1   1 4228.86   63.99
  -2   1   2 6031.24   89.18
  -2   1   3   74.36    3.85
  -2   1   3   80.81    3.87
  -2   1   3   72.75    4.31
  -2   1   4 1945.00   33.77
  -2   1   4 1881.99   34.06
  -2   1   5  733.33   17.80
  -2   1   5  739.15   17.69
  -2   1   6  213.10    9.25
  -2   1   7  104.77    6.89
  -2   1   8  338.80   13.19
  -2   1   9   24.70    3.38
  -2   1   9   26.64    3.91
  -2   1   9   26.31    3.22
  -2   1   9   27.03    3.27
  -2   1   9   24.25    2.74
  -2   1   9   22.85    3.49
  -2   1   9   16.04    2.83
  -2   1  10  273.01   10.40
  -2   1  10  289.27   10.26
  -2   1  10  266.56    8.47
  -2   1  10  274.83   10.35
  -2   1  11   85.37    5.71
  -2   1  11   78.81    5.56
  -2   1  12   22.91    3.02
  -2   1  12   27.94    3.32
  -2   1  13    5.08    1.65
  -2   1  13   13.28    2.25
  -2   2 -11   38.01    3.81
  -2   2  -9  246.77   10.73
  -2   2  -8  441.59   15.30
  -2   2  -7  100.43    7.16
  -2   2  -7  108.16    7.16
  -2   2  -7  101.30    6.15
  -2   2  -6   25.33    3.59
  -2   2  -6   25.30    3.55
  -2   2  -5  144.96    7.59
  -2   2  -5  134.10    5.55
  -2   2  -4  188.89    8.12
  -2   2  -4  198.94    6.75
  -2   2  -3 3231.90   52.44
  -2   2  -3 3198.22   50.25
  -2   2  -2 7528.26  114.25
  -2   2  -2 7806.18  113.33
  -2   2  -1 7409.32  111.47
  -2   2  -1 7734.22  111.86
  -2   2   0    3.17    1.33
  -2   2   1 9060.96  131.04
  -2   2   2 8371.44  122.22
  -2   2   3  423.49   10.97
  -2   2   4  225.15    7.97
  -2   2   5   97.50    6.14
  -2   2   5   94.08    4.27
  -2   2   6  399.66   13.91
  -2   2   7  128.93    7.92
  -2   2   8  252.18    9.33
  -2   2   8  276.27   12.12
  -2   2   8  273.33    9.19
  -2   2   8  268.12    9.18
  -2   2   8  278.52    9.36
  -2   2   9  697.20   17.87
  -2   2   9  700.65   17.21
  -2   2   9  721.83   17.84
  -2   2   9  710.64   17.58
  -2   2  10  138.02    7.36
  -2   2  10  138.91    7.19
  -2   2  10  139.08    7.28
  -2   2  11   87.72    5.59
  -2   2  11   92.27    5.64
  -2   2  12   15.01    2.44
  -2   2  12   14.02    2.60
  -2   2  13  106.49    3.68
  -2   3 -10  122.29    7.08
  -2   3  -9  270.47   12.02
  -2   3  -9  298.05   11.52
  -2   3  -8  256.89   12.08
  -2   3  -8  245.00   11.50
  -2   3  -8  245.98   10.79
  -2   3  -7   14.49    3.38
  -2   3  -7   11.15    2.46
  -2   3  -6  993.15   24.69
  -2   3  -6 1020.75   22.40
  -2   3  -5 1357.32   29.06
  -2   3  -5 1346.36   26.88
  -2   3  -5 1344.85   25.53
  -2   3  -4 1564.92   30.63
  -2   3  -4 1570.47   28.21
  -2   3  -4 1558.95   29.22
  -2   3  -3  944.62   19.89
  -2   3  -3  948.59   18.93
  -2   3  -3  950.11   19.75
  -2   3  -2  388.69   10.03
  -2   3  -2  387.45   10.50
  -2   3  -2  404.70   10.20
  -2   3  -1  112.70    4.17
  -2   3  -1  121.12    5.19
  -2   3   0    8.67    1.79
  -2   3   0    7.96    1.37
  -2   3   1  694.38   15.93
  -2   3   1  727.23   14.74
  -2   3   2 1117.28   22.37
  -2   3   2 1120.87   20.46
  -2   3   2 1070.82   21.77
  -2   3   3  813.20   18.54
  -2   3   3  821.07   16.41
  -2   3   3  842.27   19.29
  -2   3   4  291.96   10.03
  -2   3   4  283.84    8.07
  -2   3   5  519.03   16.19
  -2   3   6  148.25    8.43
  -2   3   7   54.49    5.42
  -2   3   7   55.40    4.41
  -2   3   7   44.12    3.41
  -2   3   7   57.52    3.95
  -2   3   8  230.67    9.25
  -2   3   8  228.78    8.65
  -2   3   8  233.14    8.95
  -2   3   9  265.61   10.29
  -2   3   9  269.22    9.68
  -2   3   9  268.06    9.88
  -2   3  10   66.47    5.09
  -2   3  10   61.28    4.63
  -2   3  11  109.46    5.68
  -2   3  11  112.94    5.47
  -2   3  12  164.97    5.41
  -2   3  12  161.44    5.11
  -2   4 -10  130.22    7.37
  -2   4  -9   50.26    5.23
  -2   4  -9   43.13    5.04
  -2   4  -8  233.49   10.18
  -2   4  -8  238.58   11.49
  -2   4  -7  118.92    6.66
  -2   4  -7  125.39    7.41
  -2   4  -7  121.43    7.97
  -2   4  -6  192.06    8.54
  -2   4  -6  197.75    9.33
  -2   4  -6  212.51    9.96
  -2   4  -5  594.29   15.92
  -2   4  -5  601.02   17.01
  -2   4  -5  582.76   16.75
  -2   4  -4 2289.73   42.49
  -2   4  -4 2343.78   41.46
  -2   4  -4 2337.55   41.79
  -2   4  -3 1153.24   24.66
  -2   4  -3 1156.82   23.97
  -2   4  -3 1149.77   21.19
  -2   4  -3 1176.07   23.27
  -2   4  -2   81.23    4.95
  -2   4  -2   77.09    4.93
  -2   4  -2   83.06    4.22
  -2   4  -2   77.90    4.31
  -2   4  -1 1553.56   28.94
  -2   4  -1 1533.89   29.01
  -2   4  -1 1524.19   25.62
  -2   4  -1 1592.82   25.65
  -2   4  -1 1501.58   28.58
  -2   4   0   20.24    2.79
  -2   4   0   17.59    2.38
  -2   4   1  122.73    5.92
  -2   4   1  131.93    6.00
  -2   4   1  118.40    6.47
  -2   4   2  437.56   13.22
  -2   4   2  426.09   11.52
  -2   4   2  437.09   13.35
  -2   4   3  311.72    9.30
  -2   4   3  350.41   12.40
  -2   4   3  332.76   11.45
  -2   4   4  293.02   10.88
  -2   4   5  229.81   10.74
  -2   4   5  217.54    9.14
  -2   4   6  934.18   24.68
  -2   4   6  917.88   19.12
  -2   4   7   70.02    5.30
  -2   4   7   80.33    4.79
  -2   4   7   78.29    4.81
  -2   4   7   64.85    4.21
  -2   4   8  167.02    8.11
  -2   4   8  163.92    6.56
  -2   4   8  159.82    6.92
  -2   4   8  173.35    7.41
  -2   4   9   25.67    3.60
  -2   4   9   27.83    3.23
  -2   4   9   27.22    3.01
  -2   4  10   33.63    3.50
  -2   4  10   30.44    2.98
  -2   4  11   24.18    2.36
  -2   5 -10  249.80   11.06
  -2   5  -9  163.35    8.45
  -2   5  -8    3.68    2.54
  -2   5  -8    5.82    2.57
  -2   5  -7  111.81    7.83
  -2   5  -7  106.83    7.12
  -2   5  -7  114.39    7.66
  -2   5  -6   71.89    5.99
  -2   5  -6   83.70    6.14
  -2   5  -5   46.89    4.81
  -2   5  -5   52.63    5.40
  -2   5  -5   48.84    4.58
  -2   5  -4  304.54   11.93
  -2   5  -4  294.36   12.13
  -2   5  -4  307.92   10.64
  -2   5  -3   80.45    5.85
  -2   5  -3   76.28    5.86
  -2   5  -3   77.07    4.72
  -2   5  -3   89.25    5.00
  -2   5  -2  208.36    9.17
  -2   5  -2  214.99    9.28
  -2   5  -2  195.75    8.01
  -2   5  -1  377.31   12.41
  -2   5  -1  398.99   10.54
  -2   5   0  450.36   12.65
  -2   5   0  436.67   13.10
  -2   5   0  428.32   14.46
  -2   5   1  492.24   14.50
  -2   5   1  534.52   14.51
  -2   5   1  507.87   15.90
  -2   5   2   23.55    3.71
  -2   5   2   29.12    3.20
  -2   5   2   22.14    3.54
  -2   5   3   17.46    3.46
  -2   5   3   16.12    3.03
  -2   5   4  262.96   10.72
  -2   5   5   90.77    5.37
  -2   5   5   77.62    6.58
  -2   5   6  240.96    9.00
  -2   5   7   41.08    4.37
  -2   5   7   44.62    3.81
  -2   5   8  139.75    7.18
  -2   5   8  135.70    5.80
  -2   5   9  138.12    6.46
  -2   5  10  175.44    6.00
  -2   6 -10  199.88    9.72
  -2   6  -9  206.07   10.06
  -2   6  -9  201.17    9.12
  -2   6  -8  318.63   13.00
  -2   6  -8  313.71   13.48
  -2   6  -7 1730.08   38.19
  -2   6  -7 1756.99   39.36
  -2   6  -6  456.33   16.71
  -2   6  -6  429.37   16.72
  -2   6  -6  447.18   14.30
  -2   6  -5  217.44   11.31
  -2   6  -5  219.60   11.42
  -2   6  -5  216.72    8.95
  -2   6  -4  113.18    7.95
  -2   6  -4  122.93    8.25
  -2   6  -3  799.62   22.17
  -2   6  -3  787.14   22.22
  -2   6  -2  222.91   10.37
  -2   6  -2  212.57   10.26
  -2   6  -1    3.28    2.60
  -2   6   0  494.82   15.11
  -2   6   0  510.97   15.62
  -2   6   0  531.89   17.53
  -2   6   1  131.73    7.16
  -2   6   1  115.59    7.34
  -2   6   1  119.22    7.85
  -2   6   2  533.32   17.84
  -2   6   2  574.06   14.57
  -2   6   2  561.73   17.69
  -2   6   3  175.57   10.14
  -2   6   3  172.46    7.65
  -2   6   3  170.79    8.92
  -2   6   4  136.55    6.88
  -2   6   5  279.12   10.10
  -2   6   6  118.95    6.14
  -2   6   7   77.64    5.37
  -2   6   7   84.12    4.55
  -2   6   8   14.27    2.52
  -2   6   9  251.88    7.08
  -2   7 -10  163.01    8.09
  -2   7  -9   62.58    5.15
  -2   7  -9   65.07    5.36
  -2   7  -8  377.77   14.66
  -2   7  -8  386.87   14.43
  -2   7  -7  134.42    8.94
  -2   7  -7  139.17    9.12
  -2   7  -7  114.15    5.53
  -2   7  -6  221.01   11.97
  -2   7  -6  214.95   11.64
  -2   7  -5  154.66    9.75
  -2   7  -5  148.07    9.73
  -2   7  -4   81.71    7.36
  -2   7  -4   70.53    6.66
  -2   7  -4   72.56    4.93
  -2   7  -3  206.04   10.74
  -2   7  -3  212.50   11.29
  -2   7  -3  218.11    8.54
  -2   7  -2   99.19    7.47
  -2   7  -2  100.38    5.17
  -2   7  -2  101.03    5.83
  -2   7  -1  155.62    8.84
  -2   7  -1  168.62   10.02
  -2   7  -1  152.43    6.80
  -2   7  -1  154.04    7.16
  -2   7   0  113.84    7.01
  -2   7   0  122.92    7.42
  -2   7   0   98.89    7.55
  -2   7   0  104.42    6.00
  -2   7   0  106.87    6.02
  -2   7   1  153.59    8.89
  -2   7   1  165.65    9.29
  -2   7   1  159.74    7.56
  -2   7   1  158.64    7.13
  -2   7   2  215.99    9.20
  -2   7   2  230.98   10.51
  -2   7   3   94.85    6.05
  -2   7   4  619.97   16.44
  -2   7   5   29.05    3.40
  -2   7   6   33.62    3.58
  -2   7   6   48.19    3.44
  -2   7   7   37.96    3.11
  -2   7   8   51.48    2.66
  -2   8  -8  411.71   14.08
  -2   8  -8  393.04   13.73
  -2   8  -8  391.94    9.85
  -2   8  -7   75.45    6.45
  -2   8  -7   62.99    5.86
  -2   8  -7   71.85    4.47
  -2   8  -6   54.49    5.59
  -2   8  -6   50.72    5.86
  -2   8  -6   44.54    4.06
  -2   8  -5   69.84    6.30
  -2   8  -5   58.01    6.12
  -2   8  -5   64.62    4.96
  -2   8  -4  314.80   13.67
  -2   8  -4  312.81   13.81
  -2   8  -4  308.79   10.95
  -2   8  -3   69.99    6.45
  -2   8  -3   70.23    6.50
  -2   8  -3   61.59    4.31
  -2   8  -3   72.09    5.42
  -2   8  -2   67.11    6.03
  -2   8  -2   68.86    4.80
  -2   8  -2   62.06    5.05
  -2   8  -1   97.07    6.60
  -2   8  -1   99.34    7.41
  -2   8  -1  106.64    6.13
  -2   8  -1   91.97    5.93
  -2   8   0  327.99   13.11
  -2   8   0  337.86   11.51
  -2   8   0  339.62   11.10
  -2   8   1  120.85    6.78
  -2   8   1  123.31    7.16
  -2   8   2  301.73   10.82
  -2   8   3   18.48    3.00
  -2   8   4  118.25    5.83
  -2   8   5  105.24    4.70
  -2   8   6   19.96    1.98
  -2   9 -10  108.61    3.26
  -2   9  -8  177.65    5.40
  -2   9  -7   57.51    3.66
  -2   9  -6   71.19    5.68
  -2   9  -6   69.34    4.47
  -2   9  -5  410.40   14.06
  -2   9  -5  408.49   12.06
  -2   9  -4  233.07   10.20
  -2   9  -4  236.04    9.20
  -2   9  -3  229.39    9.61
  -2   9  -3  229.07    7.88
  -2   9  -3  228.03    9.10
  -2   9  -2  140.44    6.47
  -2   9  -2  153.37    7.19
  -2   9  -2  148.70    5.53
  -2   9  -1  192.00    7.66
  -2   9  -1  179.15    7.53
  -2   9   0  120.32    6.13
  -2   9   1   70.60    4.67
  -2   9   2   95.64    4.99
  -2   9   3  119.73    5.05
  -2   9   4   29.21    2.15
  -2   9   4   40.38    2.39
  -2  10  -8  133.51    4.02
  -2  10  -7    6.75    1.44
  -2  10  -6   80.30    3.74
  -2  10  -6   75.80    3.54
  -2  10  -5  254.00    6.85
  -2  10  -5  264.14    7.68
  -2  10  -4    1.82    1.16
  -2  10  -4   -1.24    1.57
  -2  10  -3   47.01    2.67
  -2  10  -2  160.86    5.32
  -2  10  -1   33.03    2.52
  -2  10   0   70.23    3.41
  -2  10   0   67.95    2.77
  -2  10   1   17.45    1.75
  -2  10   2   29.41    1.68
  -1 -10   2   95.57    2.88
  -1 -10   3   11.94    1.14
  -1 -10   3   17.71    1.57
  -1 -10   4   98.76    3.72
  -1 -10   5   29.62    2.19
  -1  -9  -2   71.69    2.93
  -1  -9  -1   70.51    3.58
  -1  -9   0   59.46    3.67
  -1  -9   0   52.26    2.93
  -1  -9   1   15.94    2.21
  -1  -9   1   12.22    2.15
  -1  -9   2   40.20    3.38
  -1  -9   2   34.44    3.29
  -1  -9   3  151.78    6.12
  -1  -9   3  162.31    6.91
  -1  -9   4   16.47    2.86
  -1  -9   4   19.66    2.34
  -1  -9   4   21.52    2.10
  -1  -9   5   71.72    3.76
  -1  -9   5   71.46    4.84
  -1  -9   5   74.34    3.97
  -1  -9   6   20.33    2.91
  -1  -9   6   27.29    2.80
  -1  -9   7  148.96    6.34
  -1  -9   7  140.78    5.87
  -1  -9   8   70.46    4.03
  -1  -9   9   75.53    3.73
  -1  -9  10  123.96    3.99
  -1  -8  -4   28.83    2.23
  -1  -8  -4   31.17    1.91
  -1  -8  -3  123.31    5.35
  -1  -8  -3  126.13    4.55
  -1  -8  -2   60.85    4.32
  -1  -8  -2   56.74    3.20
  -1  -8  -2   59.06    3.39
  -1  -8  -1   18.07    2.40
  -1  -8  -1   20.90    3.23
  -1  -8  -1   21.19    2.29
  -1  -8   0  155.97    7.35
  -1  -8   0  145.75    6.66
  -1  -8   1  276.20   10.06
  -1  -8   1  298.93   10.40
  -1  -8   2   78.63    5.29
  -1  -8   2   86.87    5.77
  -1  -8   3  446.54   12.97
  -1  -8   3  477.87   14.35
  -1  -8   3  458.36   11.56
  -1  -8   4  303.65    9.91
  -1  -8   4  295.45   11.15
  -1  -8   4  290.20    9.36
  -1  -8   5   72.55    4.63
  -1  -8   5   71.88    5.52
  -1  -8   5   68.56    4.79
  -1  -8   6   68.62    4.18
  -1  -8   6   69.11    5.32
  -1  -8   6   68.55    4.99
  -1  -8   7  121.39    6.68
  -1  -8   7  117.10    6.34
  -1  -8   8  124.25    6.44
  -1  -8   8  138.03    6.84
  -1  -8   9   50.48    4.12
  -1  -8  10  203.87    6.97
  -1  -8  11   50.00    2.73
  -1  -7  -6    4.37    1.17
  -1  -7  -6    2.74    1.22
  -1  -7  -5   10.69    2.03
  -1  -7  -5   10.06    1.99
  -1  -7  -4  278.52    9.35
  -1  -7  -3   32.93    3.47
  -1  -7  -3   28.27    3.59
  -1  -7  -2   80.69    5.43
  -1  -7  -2   81.20    5.60
  -1  -7  -2   90.24    5.11
  -1  -7  -1   46.89    4.36
  -1  -7  -1   49.43    4.65
  -1  -7  -1   48.38    4.12
  -1  -7  -1   48.61    4.01
  -1  -7   0   93.07    5.86
  -1  -7   0   95.00    5.96
  -1  -7   0  103.23    5.98
  -1  -7   0   83.71    4.62
  -1  -7   1  404.21   12.45
  -1  -7   1  414.12   12.81
  -1  -7   2  879.40   19.98
  -1  -7   2  918.44   21.11
  -1  -7   2  853.05   18.12
  -1  -7   3   35.74    3.74
  -1  -7   3   35.38    4.05
  -1  -7   3   27.92    3.20
  -1  -7   3   33.78    3.19
  -1  -7   4   90.18    5.29
  -1  -7   4   92.07    5.49
  -1  -7   4   92.44    6.01
  -1  -7   4   99.10    5.48
  -1  -7   5  179.70    7.16
  -1  -7   5  189.32    8.12
  -1  -7   5  180.32    8.43
  -1  -7   5  199.19    8.09
  -1  -7   6  102.77    5.09
  -1  -7   6  111.16    6.48
  -1  -7   6  112.40    6.30
  -1  -7   7  298.16   10.85
  -1  -7   7  302.18   10.74
  -1  -7   8  298.36   10.56
  -1  -7   8  314.71   10.86
  -1  -7   9   52.87    4.44
  -1  -7  10   70.52    4.54
  -1  -7  11   93.01    4.41
  -1  -7  12  268.09    7.92
  -1  -7  13  193.39    5.01
  -1  -6  -8    8.09    1.16
  -1  -6  -7    7.28    1.47
  -1  -6  -6  256.29    7.37
  -1  -6  -6  272.16    8.65
  -1  -6  -5  118.38    5.60
  -1  -6  -5  124.86    6.46
  -1  -6  -4   92.88    5.42
  -1  -6  -4   86.96    5.71
  -1  -6  -3  181.26    7.92
  -1  -6  -3  195.01    8.61
  -1  -6  -2   94.18    5.63
  -1  -6  -2   89.82    5.71
  -1  -6  -1  113.86    7.56
  -1  -6  -1  112.38    5.97
  -1  -6  -1  110.79    6.05
  -1  -6   0  173.39    9.62
  -1  -6   0  164.00    6.97
  -1  -6   0  158.11    7.08
  -1  -6   1  114.64    7.83
  -1  -6   1  112.66    5.58
  -1  -6   1  113.58    5.60
  -1  -6   2  303.66   12.83
  -1  -6   3  408.77   15.18
  -1  -6   4   48.50    4.99
  -1  -6   5  124.18    7.79
  -1  -6   5  119.74    5.98
  -1  -6   5  130.31    6.42
  -1  -6   5  129.31    6.00
  -1  -6   6  302.91   11.74
  -1  -6   6  293.06   10.12
  -1  -6   6  306.74   10.34
  -1  -6   6  311.83   10.11
  -1  -6   7  161.52    7.43
  -1  -6   7  175.73    7.60
  -1  -6   8  336.00   11.01
  -1  -6   8  343.75   11.14
  -1  -6   9  358.52   11.31
  -1  -6  10  176.09    6.40
  -1  -6  10  184.56    7.48
  -1  -6  11   90.78    4.58
  -1  -6  12  114.80    5.96
  -1  -6  12  107.66    3.99
  -1  -6  13    2.16    1.51
  -1  -5  -8  135.22    4.93
  -1  -5  -7  158.47    6.62
  -1  -5  -6   93.76    6.52
  -1  -5  -6   92.40    4.91
  -1  -5  -6   96.77    5.77
  -1  -5  -5   24.85    3.78
  -1  -5  -5   24.71    3.04
  -1  -5  -5   27.63    3.79
  -1  -5  -4  681.00   19.34
  -1  -5  -4  657.60   16.08
  -1  -5  -4  661.75   19.00
  -1  -5  -3  118.22    7.22
  -1  -5  -3  113.49    5.71
  -1  -5  -3  108.82    4.88
  -1  -5  -3  127.19    7.30
  -1  -5  -3  113.89    6.94
  -1  -5  -2   11.30    2.56
  -1  -5  -2    9.32    2.44
  -1  -5  -1  115.70    7.28
  -1  -5   0   78.12    6.06
  -1  -5   1  112.09    7.22
  -1  -5   2  206.29    9.79
  -1  -5   3  566.77   16.97
  -1  -5   4  529.78   16.17
  -1  -5   5    1.85    1.86
  -1  -5   6  165.85    8.35
  -1  -5   7  354.84   11.79
  -1  -5   8  233.20    8.05
  -1  -5   8  242.90    9.12
  -1  -5   8  256.40    8.82
  -1  -5   9  395.47   12.39
  -1  -5   9  379.05   10.38
  -1  -5   9  391.68   11.40
  -1  -5  10  247.68    9.71
  -1  -5  10  237.96    8.20
  -1  -5  10  257.77    8.61
  -1  -5  11  104.72    6.13
  -1  -5  12    0.47    2.49
  -1  -5  12   -0.41    1.37
  -1  -5  13    1.26    1.86
  -1  -5  13    4.46    1.22
  -1  -5  14   60.38    2.90
  -1  -4  -9    9.25    1.67
  -1  -4  -7  283.18   12.34
  -1  -4  -6  559.80   18.36
  -1  -4  -6  519.98   12.99
  -1  -4  -6  518.27   17.42
  -1  -4  -6  543.97   15.76
  -1  -4  -5  197.73    9.05
  -1  -4  -5  203.30   10.27
  -1  -4  -5  204.88   10.80
  -1  -4  -4  228.92   10.34
  -1  -4  -4  220.70    9.21
  -1  -4  -4  205.54   10.67
  -1  -4  -3  106.58    6.51
  -1  -4  -3  105.83    5.82
  -1  -4  -3  106.61    7.45
  -1  -4  -2  122.87    6.45
  -1  -4  -2  122.55    5.53
  -1  -4  -2  131.91    6.50
  -1  -4  -1  887.91   22.61
  -1  -4  -1  923.53   19.70
  -1  -4  -1  958.89   19.45
  -1  -4   0   30.17    2.66
  -1  -4   0   25.08    3.57
  -1  -4   1  353.11   11.85
  -1  -4   2  627.32   16.65
  -1  -4   3  512.05   14.51
  -1  -4   4  479.43   11.04
  -1  -4   4  443.75   13.40
  -1  -4   5  182.03    8.05
  -1  -4   5  188.05    6.97
  -1  -4   6   18.11    2.79
  -1  -4   6   14.93    2.41
  -1  -4   7  611.46   15.86
  -1  -4   7  610.30   16.40
  -1  -4   8  350.32   12.46
  -1  -4   9  198.40    8.23
  -1  -4   9  207.22    9.46
  -1  -4   9  211.87    8.34
  -1  -4   9  210.72    7.28
  -1  -4   9  197.50    6.84
  -1  -4  10  121.88    6.64
  -1  -4  10  120.25    6.56
  -1  -4  10  118.01    5.88
  -1  -4  11  652.80   16.66
  -1  -4  11  668.32   15.09
  -1  -4  12   64.28    5.27
  -1  -4  12   79.59    4.86
  -1  -4  12   73.90    4.14
  -1  -4  12   67.64    4.29
  -1  -4  13  298.06    9.51
  -1  -4  13  280.47    7.34
  -1  -4  13  279.73    7.90
  -1  -4  14  146.55    5.00
  -1  -3  -9   81.62    6.15
  -1  -3  -8  440.18   15.24
  -1  -3  -8  494.30   16.47
  -1  -3  -7  176.24    9.75
  -1  -3  -7  152.01    8.48
  -1  -3  -7  177.07    9.91
  -1  -3  -6 1067.17   27.39
  -1  -3  -6 1043.69   25.50
  -1  -3  -6 1103.37   27.86
  -1  -3  -5  174.53    8.73
  -1  -3  -5  156.44    8.90
  -1  -3  -4  317.33   11.50
  -1  -3  -4  314.91   12.23
  -1  -3  -3  513.65   15.15
  -1  -3  -3  513.93   14.50
  -1  -3  -3  508.90   14.03
  -1  -3  -2  510.86   14.00
  -1  -3  -2  514.41   13.74
  -1  -3  -2  494.31   14.00
  -1  -3  -1   87.23    5.04
  -1  -3  -1   95.21    5.01
  -1  -3  -1   85.09    5.17
  -1  -3  -1   84.40    4.27
  -1  -3   0  263.96    9.35
  -1  -3   0  269.55    6.10
  -1  -3   0  276.57    7.16
  -1  -3   1 1346.04   21.69
  -1  -3   1 1430.68   26.25
  -1  -3   2 2359.25   39.98
  -1  -3   2 2350.00   35.27
  -1  -3   3 1915.20   33.72
  -1  -3   3 1898.96   30.28
  -1  -3   4  599.92   14.63
  -1  -3   4  618.25   13.12
  -1  -3   5  397.32   11.19
  -1  -3   5  389.02   10.75
  -1  -3   6  243.32    8.86
  -1  -3   6  236.35    8.48
  -1  -3   7  697.82   17.92
  -1  -3   7  674.52   16.18
  -1  -3   8  356.16   12.80
  -1  -3   9   72.30    4.75
  -1  -3   9   70.20    4.11
  -1  -3   9   70.35    4.54
  -1  -3   9   71.63    5.99
  -1  -3  10  482.82   13.65
  -1  -3  10  477.93   13.02
  -1  -3  10  491.48   13.51
  -1  -3  11  646.11   17.88
  -1  -3  11  685.88   17.18
  -1  -3  11  687.05   16.18
  -1  -3  11  658.83   16.24
  -1  -3  11  686.02   16.47
  -1  -3  12   60.22    5.12
  -1  -3  12   65.02    4.76
  -1  -3  12   65.33    4.35
  -1  -3  12   67.08    4.24
  -1  -3  12   61.01    4.36
  -1  -3  13  115.41    5.86
  -1  -3  13  110.68    4.95
  -1  -3  13  107.91    5.00
  -1  -2  -9  220.04    9.81
  -1  -2  -8   12.02    3.15
  -1  -2  -8    8.38    2.49
  -1  -2  -8    9.58    3.09
  -1  -2  -7  295.68   11.68
  -1  -2  -7  274.34   12.23
  -1  -2  -6   47.61    5.11
  -1  -2  -6   47.27    4.59
  -1  -2  -6   44.80    4.79
  -1  -2  -5  134.94    7.77
  -1  -2  -5  126.05    6.87
  -1  -2  -5  123.10    7.26
  -1  -2  -4   44.80    4.22
  -1  -2  -4   44.62    3.89
  -1  -2  -4   39.39    3.87
  -1  -2  -3 1220.33   25.18
  -1  -2  -3 1210.51   23.10
  -1  -2  -3 1236.07   23.90
  -1  -2  -3 1246.63   24.55
  -1  -2  -2  343.25    9.92
  -1  -2  -2  326.15    9.39
  -1  -2  -2  360.07    9.52
  -1  -2  -2  362.20    9.78
  -1  -2  -1 1794.73   31.38
  -1  -2  -1 1880.74   30.55
  -1  -2  -1 1850.46   30.78
  -1  -2   0 2017.82   34.21
  -1  -2   0 2098.57   32.99
  -1  -2   1  769.78   15.12
  -1  -2   1  768.54   11.68
  -1  -2   2 7751.08  110.94
  -1  -2   2 7543.02  107.85
  -1  -2   3  328.62    7.54
  -1  -2   3  324.70    8.61
  -1  -2   4 2262.44   37.33
  -1  -2   4 2274.54   36.87
  -1  -2   5  646.50   14.95
  -1  -2   5  642.35   14.40
  -1  -2   6 1066.79   23.04
  -1  -2   6 1091.04   21.40
  -1  -2   7   16.76    2.26
  -1  -2   7   16.43    2.75
  -1  -2   8  563.74   17.02
  -1  -2   9   10.57    2.78
  -1  -2   9   11.87    2.47
  -1  -2  10  332.65   10.89
  -1  -2  10  320.09   11.24
  -1  -2  10  331.93   10.39
  -1  -2  10  327.69   10.13
  -1  -2  10  326.54    9.69
  -1  -2  11  104.86    6.13
  -1  -2  11   94.59    6.27
  -1  -2  11   93.03    5.63
  -1  -2  11  101.00    5.39
  -1  -2  11   97.89    5.75
  -1  -2  11   99.02    5.44
  -1  -2  12  129.98    6.49
  -1  -2  12  123.49    6.73
  -1  -2  12  116.08    6.20
  -1  -2  12  131.12    5.46
  -1  -2  12  129.15    6.41
  -1  -2  12  120.21    5.67
  -1  -2  13   44.44    3.43
  -1  -2  13   49.48    3.91
  -1  -2  13   51.97    3.67
  -1  -2  13   50.40    3.63
  -1  -2  13   48.05    3.04
  -1  -1 -10  584.07   15.95
  -1  -1  -9   28.38    3.73
  -1  -1  -9   24.13    3.72
  -1  -1  -8  376.41   13.36
  -1  -1  -8  357.02   13.89
  -1  -1  -8  352.95   14.11
  -1  -1  -7   62.30    5.26
  -1  -1  -7   69.35    6.07
  -1  -1  -6   38.53    4.08
  -1  -1  -6   29.70    3.82
  -1  -1  -5   45.41    3.93
  -1  -1  -5   47.84    4.39
  -1  -1  -4 2616.30   43.15
  -1  -1  -4 2555.36   44.67
  -1  -1  -3   80.11    3.32
  -1  -1  -3   79.50    4.42
  -1  -1  -2  722.49   14.16
  -1  -1  -2  673.32   12.87
  -1  -1  -1  152.20    4.48
  -1  -1  -1  138.39    4.39
  -1  -1   0 8580.31  121.44
  -1  -1   1  124.47    3.88
  -1  -1   1  131.35    2.51
  -1  -1   2 7330.49  104.00
  -1  -1   3  407.73    9.04
  -1  -1   3  392.71    8.72
  -1  -1   4  286.00    7.99
  -1  -1   4  287.12    7.74
  -1  -1   5   86.33    4.77
  -1  -1   5   85.81    4.25
  -1  -1   6   79.19    4.34
  -1  -1   6   85.88    5.38
  -1  -1   7  194.59    7.18
  -1  -1   7  203.24    9.17
  -1  -1   8  843.35   22.17
  -1  -1   9   43.94    3.81
  -1  -1   9   43.03    3.72
  -1  -1   9   40.83    4.63
  -1  -1   9   37.34    3.26
  -1  -1  10  516.52   14.27
  -1  -1  10  513.61   14.62
  -1  -1  10  522.57   14.15
  -1  -1  10  518.08   13.93
  -1  -1  10  520.81   12.70
  -1  -1  10  551.59   14.25
  -1  -1  11   41.89    4.33
  -1  -1  11   52.44    4.49
  -1  -1  11   44.09    4.29
  -1  -1  11   49.85    4.34
  -1  -1  11   48.76    4.20
  -1  -1  12    6.87    2.73
  -1  -1  12    1.36    2.19
  -1  -1  12    3.21    2.11
  -1  -1  12    3.17    2.15
  -1  -1  12    2.52    2.16
  -1  -1  13   10.10    2.01
  -1  -1  13   12.24    2.35
  -1  -1  13   10.84    2.04
  -1   0 -10  401.84   13.79
  -1   0  -9   99.24    7.21
  -1   0  -9   92.06    6.53
  -1   0  -8    8.02    2.39
  -1   0  -8   11.51    3.00
  -1   0  -7  482.21   13.62
  -1   0  -7  488.39   16.07
  -1   0  -6  447.39   12.50
  -1   0  -5  738.91   17.65
  -1   0  -5  775.58   16.75
  -1   0  -4  505.16   12.69
  -1   0  -4  516.18   11.96
  -1   0  -3  118.80    4.42
  -1   0  -3  103.82    4.61
  -1   0  -2  260.38    7.00
  -1   0  -2  287.36    6.72
  -1   0  -1  750.79   11.34
  -1   0   0  291.02    5.19
  -1   0   1 3405.44   48.20
  -1   0   1 3328.08   48.95
  -1   0   2 1425.20   22.68
  -1   0   2 1445.35   22.63
  -1   0   2 1443.45   22.96
  -1   0   3 1142.43   12.22
  -1   0   3 1147.83   11.96
  -1   0   4  147.44    5.78
  -1   0   4  148.57    5.66
  -1   0   4  150.37    5.37
  -1   0   5  577.54   13.31
  -1   0   5  611.69   14.93
  -1   0   5  590.56   14.67
  -1   0   6  124.44    6.59
  -1   0   6  119.31    6.50
  -1   0   7  760.70   20.17
  -1   0   7  794.46   20.35
  -1   0   8  314.75   12.49
  -1   0   8  295.38   12.07
  -1   0   9  275.00    9.52
  -1   0   9  275.01    9.25
  -1   0   9  295.91    9.55
  -1   0   9  291.41    9.53
  -1   0   9  285.47    9.58
  -1   0   9  289.61   10.20
  -1   0  10  164.58    7.69
  -1   0  10  172.20    7.71
  -1   0  10  161.79    7.50
  -1   0  10  171.63    7.64
  -1   0  10  165.97    7.60
  -1   0  10  156.74    7.87
  -1   0  11  264.33    9.72
  -1   0  11  263.48    9.71
  -1   0  11  247.26    9.66
  -1   0  11  238.18    9.43
  -1   0  12  100.45    5.42
  -1   0  12   98.95    5.74
  -1   0  12   97.20    5.54
  -1   0  13   26.58    2.35
  -1   0  13   28.33    2.74
  -1   1 -10   12.27    2.87
  -1   1  -9  363.09   14.13
  -1   1  -8  144.75    7.56
  -1   1  -7  167.84    8.47
  -1   1  -7  143.49    7.24
  -1   1  -6 2645.89   47.19
  -1   1  -6 2569.47   45.38
  -1   1  -6 2667.04   44.23
  -1   1  -5  363.28   10.08
  -1   1  -5  366.74   11.49
  -1   1  -4 1841.73   32.52
  -1   1  -4 1815.05   30.76
  -1   1  -3 1102.11   20.33
  -1   1  -3 1072.02   16.94
  -1   1  -3 1063.40   19.22
  -1   1  -1 1874.43   28.63
  -1   1   0    1.54    0.55
  -1   1   1 2640.06   39.76
  -1   1   2 8921.54  128.20
  -1   1   3 1162.07   19.91
  -1   1   4 1311.91   24.86
  -1   1   4 1289.71   24.35
  -1   1   5  671.15   16.66
  -1   1   5  660.05   16.23
  -1   1   6  687.78   18.08
  -1   1   7  775.95   20.75
  -1   1   8  197.01    9.84
  -1   1   9  305.88   10.51
  -1   1   9  307.83    9.70
  -1   1   9  280.84   12.04
  -1   1   9  302.21   10.02
  -1   1   9  284.34    9.89
  -1   1   9  312.32   10.87
  -1   1   9  300.24   10.24
  -1   1  10  999.96   22.43
  -1   1  10  984.81   22.04
  -1   1  10  966.33   22.05
  -1   1  10  973.97   23.05
  -1   1  11  272.55    9.76
  -1   1  11  263.77    9.62
  -1   1  11  275.95   10.24
  -1   1  12  202.97    7.26
  -1   1  12  206.00    7.77
  -1   1  13   64.91    2.99
  -1   1  13   73.06    3.64
  -1   2  -9  239.23   10.89
  -1   2  -9  216.80    9.79
  -1   2  -8   16.20    3.06
  -1   2  -8   19.78    3.62
  -1   2  -7  613.64   17.91
  -1   2  -7  567.44   15.87
  -1   2  -6  168.57    8.21
  -1   2  -6  149.97    7.11
  -1   2  -5   74.62    3.51
  -1   2  -5   67.69    3.54
  -1   2  -5   78.22    5.23
  -1   2  -5   75.92    4.67
  -1   2  -4 2366.90   36.85
  -1   2  -4 2374.49   34.43
  -1   2  -4 2336.60   37.48
  -1   2  -4 2384.16   39.89
  -1   2  -3   93.15    4.38
  -1   2  -3   92.61    2.76
  -1   2  -3   94.46    3.71
  -1   2  -2 6193.03   89.97
  -1   2  -2 6308.56   91.29
  -1   2  -1 7102.62  101.82
  -1   2   0 3073.62   46.62
  -1   2   1  904.95   16.30
  -1   2   2 2316.57   37.44
  -1   2   2 2456.69   38.41
  -1   2   3   48.81    3.03
  -1   2   3   51.67    3.62
  -1   2   4  442.12   10.95
  -1   2   4  457.27   12.85
  -1   2   5  538.13   15.27
  -1   2   6  526.40   16.03
  -1   2   7   56.09    5.14
  -1   2   8 1196.39   24.60
  -1   2   8 1147.89   28.20
  -1   2   8 1165.19   23.31
  -1   2   8 1196.02   24.16
  -1   2   8 1204.35   24.89
  -1   2   9  134.71    7.05
  -1   2   9  130.00    6.45
  -1   2   9  135.73    6.79
  -1   2   9  120.93    6.92
  -1   2  10  254.57    9.75
  -1   2  10  249.04    9.13
  -1   2  10  259.69    9.80
  -1   2  10  249.57   10.07
  -1   2  11   64.42    4.60
  -1   2  11   68.49    4.77
  -1   2  12    6.86    1.75
  -1   2  12    8.41    1.96
  -1   2  13   22.99    1.63
  -1   3 -10   79.05    5.77
  -1   3  -9   59.40    5.78
  -1   3  -9   57.53    5.57
  -1   3  -8  364.94   13.95
  -1   3  -8  333.87   12.57
  -1   3  -8  355.08   11.95
  -1   3  -7  128.93    7.29
  -1   3  -7  125.19    7.80
  -1   3  -7  122.47    6.61
  -1   3  -6  914.58   19.13
  -1   3  -6  805.83   20.58
  -1   3  -5   79.70    5.29
  -1   3  -5   79.96    4.60
  -1   3  -4 1019.08   17.58
  -1   3  -4  972.89   19.81
  -1   3  -4 1015.35   21.42
  -1   3  -3    4.71    1.16
  -1   3  -3    4.80    1.60
  -1   3  -3    5.62    1.67
  -1   3  -2  478.55   10.77
  -1   3  -2  478.33   11.51
  -1   3  -2  510.68   11.57
  -1   3  -1  169.47    5.95
  -1   3  -1  171.42    5.68
  -1   3   0  288.70    8.56
  -1   3   0  302.66    7.50
  -1   3   1 1409.76   26.59
  -1   3   2  288.74    8.62
  -1   3   2  304.23    9.51
  -1   3   3  177.97    6.62
  -1   3   3  176.34    7.93
  -1   3   4  175.79    6.84
  -1   3   4  179.10    8.66
  -1   3   5   35.42    3.99
  -1   3   6  138.07    8.04
  -1   3   7   48.67    4.30
  -1   3   7   58.45    5.52
  -1   3   7   53.11    3.60
  -1   3   7   57.11    3.88
  -1   3   7   60.62    4.52
  -1   3   8 1050.36   23.49
  -1   3   8 1074.37   22.59
  -1   3   8 1107.84   23.72
  -1   3   9    6.25    2.58
  -1   3   9    4.82    2.44
  -1   3   9   -0.48    2.64
  -1   3  10   34.51    3.67
  -1   3  10   32.68    3.43
  -1   3  10   30.91    3.72
  -1   3  11  205.28    7.07
  -1   3  11  199.61    6.84
  -1   3  12  419.28    8.53
  -1   3  12  441.78    8.68
  -1   4 -10   85.16    6.21
  -1   4  -9  364.84   13.14
  -1   4  -8  268.84   12.07
  -1   4  -8  256.85   10.42
  -1   4  -8  256.10   11.03
  -1   4  -7   91.22    6.76
  -1   4  -7   72.60    5.18
  -1   4  -7   84.56    6.30
  -1   4  -7   85.72    6.27
  -1   4  -7   81.24    5.81
  -1   4  -6  206.69    8.83
  -1   4  -6  210.08    9.63
  -1   4  -6  218.80    9.78
  -1   4  -5    2.60    1.64
  -1   4  -5    2.74    1.75
  -1   4  -5    0.88    1.89
  -1   4  -4  736.88   15.62
  -1   4  -4  730.20   18.00
  -1   4  -4  744.76   18.11
  -1   4  -4  754.42   18.29
  -1   4  -3  589.74   13.78
  -1   4  -3  584.91   14.74
  -1   4  -3  602.94   15.29
  -1   4  -3  617.15   14.93
  -1   4  -2  160.89    6.55
  -1   4  -2  159.96    6.54
  -1   4  -2  158.12    6.56
  -1   4  -1   17.40    2.62
  -1   4  -1   20.32    2.56
  -1   4  -1   23.80    2.78
  -1   4   0  331.35   10.76
  -1   4   0  308.73    8.97
  -1   4   0  339.54    9.15
  -1   4   1 1052.07   22.36
  -1   4   1 1126.72   23.90
  -1   4   1 1070.28   20.11
  -1   4   2  943.08   20.68
  -1   4   2  967.50   22.40
  -1   4   3   49.81    3.99
  -1   4   3   54.99    5.17
  -1   4   4  561.21   14.44
  -1   4   4  563.76   18.37
  -1   4   5  158.93    8.61
  -1   4   6  134.46    8.19
  -1   4   6  144.34    5.83
  -1   4   6  147.17    6.42
  -1   4   7   13.13    2.87
  -1   4   7   13.68    2.18
  -1   4   8   97.92    6.24
  -1   4   8   97.90    5.29
  -1   4   8   97.88    5.87
  -1   4   9   72.22    5.08
  -1   4   9   65.81    4.20
  -1   4   9   74.34    4.90
  -1   4  10   16.50    2.39
  -1   4  10   19.67    2.58
  -1   4  10   19.94    2.23
  -1   4  11  159.08    4.81
  -1   4  11  158.13    3.92
  -1   5 -11   93.54    6.09
  -1   5 -10   45.24    4.61
  -1   5  -9  574.80   17.68
  -1   5  -9  594.71   18.58
  -1   5  -8  234.10   10.86
  -1   5  -8  215.94   11.04
  -1   5  -8  221.00   10.93
  -1   5  -7  413.77   15.33
  -1   5  -7  403.79   14.84
  -1   5  -6  664.07   20.15
  -1   5  -6  676.86   19.67
  -1   5  -6  707.74   19.71
  -1   5  -5   36.32    4.48
  -1   5  -5   40.25    4.47
  -1   5  -5   43.17    4.42
  -1   5  -4  352.79   12.80
  -1   5  -4  344.90   12.49
  -1   5  -4  362.81   10.99
  -1   5  -3  122.33    7.03
  -1   5  -3  130.33    7.07
  -1   5  -3  123.44    6.41
  -1   5  -2 1050.28   23.21
  -1   5  -2 1096.62   23.40
  -1   5  -2 1057.96   23.52
  -1   5  -1  585.10   15.09
  -1   5  -1  617.04   15.67
  -1   5  -1  625.54   17.03
  -1   5   0  449.97   12.12
  -1   5   0  458.90   12.73
  -1   5   0  467.89   14.72
  -1   5   1  166.99    8.56
  -1   5   1  155.28    6.44
  -1   5   1  153.77    7.92
  -1   5   1  155.35    8.35
  -1   5   2  206.16   10.26
  -1   5   2  215.54    9.11
  -1   5   3   39.90    5.07
  -1   5   3   36.53    3.71
  -1   5   4   14.21    3.71
  -1   5   4   14.82    2.47
  -1   5   5 1082.66   26.48
  -1   5   5 1148.64   22.87
  -1   5   5 1117.79   21.93
  -1   5   6  153.78    6.61
  -1   5   6  143.03    6.65
  -1   5   7   47.61    4.59
  -1   5   7   40.25    3.75
  -1   5   8   55.63    4.55
  -1   5   8   60.27    4.15
  -1   5   9  185.83    6.96
  -1   5   9  174.19    6.10
  -1   5  10  238.77    6.26
  -1   6 -11    9.23    2.35
  -1   6 -10  348.00   11.87
  -1   6 -10  353.23   12.59
  -1   6  -9   26.33    4.17
  -1   6  -9   15.23    3.38
  -1   6  -8  152.78    9.45
  -1   6  -8  165.81   10.00
  -1   6  -7  167.73   10.06
  -1   6  -7  176.53   10.56
  -1   6  -7  190.28    9.31
  -1   6  -6  525.56   18.28
  -1   6  -6  542.18   18.73
  -1   6  -5  204.04   10.73
  -1   6  -5  203.31   10.66
  -1   6  -4  239.01   11.30
  -1   6  -4  222.94   10.86
  -1   6  -4  247.45    9.84
  -1   6  -3  129.40    7.99
  -1   6  -3  128.36    7.79
  -1   6  -3  125.42    7.23
  -1   6  -2  253.44   10.67
  -1   6  -2  256.27   10.46
  -1   6  -2  250.39   10.64
  -1   6  -1  335.23   11.88
  -1   6  -1  334.30   11.47
  -1   6  -1  341.82   13.04
  -1   6   0  529.58   16.91
  -1   6   0  558.61   15.49
  -1   6   0  540.00   17.48
  -1   6   0  576.68   17.54
  -1   6   1  188.26    9.99
  -1   6   1  180.09    9.10
  -1   6   2   15.11    3.79
  -1   6   2   14.24    2.70
  -1   6   2    8.30    2.40
  -1   6   3  504.74   18.42
  -1   6   3  493.70   13.87
  -1   6   4  174.27   10.72
  -1   6   4  162.28    7.45
  -1   6   5    5.89    2.25
  -1   6   6   65.70    4.29
  -1   6   7  119.07    6.25
  -1   6   7  113.86    4.84
  -1   6   8   90.95    4.62
  -1   6   9  195.88    5.28
  -1   7 -10   72.76    5.09
  -1   7  -9  132.65    8.19
  -1   7  -9  152.22    8.75
  -1   7  -8   25.84    4.32
  -1   7  -8   17.63    3.69
  -1   7  -7   11.75    3.79
  -1   7  -7    8.47    2.93
  -1   7  -6  140.59    9.42
  -1   7  -6  142.88    9.50
  -1   7  -5    2.44    2.75
  -1   7  -5    5.34    3.20
  -1   7  -4  241.41   11.97
  -1   7  -4  211.86   10.84
  -1   7  -4  218.11    7.60
  -1   7  -4  229.25    9.53
  -1   7  -3  214.16   10.87
  -1   7  -3  227.63   10.52
  -1   7  -3  228.83    8.12
  -1   7  -3  226.01   10.06
  -1   7  -2  319.21   12.65
  -1   7  -2  322.24   12.04
  -1   7  -2  314.99   12.70
  -1   7  -2  311.82   10.17
  -1   7  -1   67.29    5.74
  -1   7  -1   64.71    5.54
  -1   7  -1   66.26    6.11
  -1   7  -1   57.95    4.73
  -1   7  -1   68.02    4.77
  -1   7   0  168.00    9.27
  -1   7   0  177.35    9.47
  -1   7   0  156.24    7.39
  -1   7   0  158.53    7.03
  -1   7   1  114.94    8.19
  -1   7   1  138.14    7.94
  -1   7   1  118.60    6.59
  -1   7   1  126.64    6.03
  -1   7   2  197.28   10.76
  -1   7   2  198.04    8.65
  -1   7   3  772.04   23.01
  -1   7   3  830.00   19.69
  -1   7   4    7.62    2.37
  -1   7   5  150.61    6.31
  -1   7   6   56.74    4.12
  -1   7   6   50.68    3.05
  -1   7   7    4.74    1.60
  -1   8  -9  267.19   10.45
  -1   8  -9  263.79    7.55
  -1   8  -8   60.06    5.49
  -1   8  -8   57.36    5.37
  -1   8  -8   57.85    4.05
  -1   8  -7   42.25    4.94
  -1   8  -7   34.69    4.74
  -1   8  -6   83.58    7.14
  -1   8  -6   71.48    6.20
  -1   8  -5  375.25   14.32
  -1   8  -5  381.78   15.12
  -1   8  -5  378.46   10.55
  -1   8  -4  164.27    8.94
  -1   8  -4  165.96    9.49
  -1   8  -4  156.27    7.06
  -1   8  -4  169.47    8.08
  -1   8  -3  180.77    9.42
  -1   8  -3  170.04    7.48
  -1   8  -3  174.70    8.09
  -1   8  -2  274.40   11.10
  -1   8  -2  280.00   12.43
  -1   8  -2  263.10    9.87
  -1   8  -2  251.05    9.74
  -1   8  -1   84.67    6.51
  -1   8  -1   88.75    5.86
  -1   8  -1   93.24    5.69
  -1   8   0  133.63    7.53
  -1   8   0  119.29    6.93
  -1   8   0  135.56    7.19
  -1   8   0  126.67    6.28
  -1   8   1  191.71    9.22
  -1   8   1  192.59    8.63
  -1   8   2  284.78   10.25
  -1   8   3  122.50    6.12
  -1   8   4   74.65    4.22
  -1   8   5   46.94    3.28
  -1   8   5   52.81    2.79
  -1   8   6    5.86    1.22
  -1   9  -9  104.36    3.63
  -1   9  -8   58.21    3.49
  -1   9  -7   34.89    3.34
  -1   9  -6   22.96    3.41
  -1   9  -6   28.64    3.25
  -1   9  -5   90.55    6.10
  -1   9  -5   80.76    4.21
  -1   9  -5   89.73    5.61
  -1   9  -4  611.23   16.37
  -1   9  -4  582.75   14.10
  -1   9  -4  596.95   15.62
  -1   9  -3   35.53    3.49
  -1   9  -3   33.69    3.70
  -1   9  -2   33.76    3.58
  -1   9  -2   28.33    3.33
  -1   9  -1   90.38    5.55
  -1   9  -1   91.25    4.98
  -1   9   0  227.45    8.59
  -1   9   1   32.59    3.32
  -1   9   2   94.81    4.69
  -1   9   3    4.69    1.35
  -1   9   4   40.41    2.18
  -1  10  -8   83.35    3.11
  -1  10  -8   79.66    2.72
  -1  10  -7   15.14    1.73
  -1  10  -6  298.34    8.02
  -1  10  -5    7.87    1.30
  -1  10  -5    6.59    1.84
  -1  10  -4   93.75    3.81
  -1  10  -4   99.67    4.58
  -1  10  -3  123.86    4.66
  -1  10  -3  125.02    4.94
  -1  10  -2  237.53    6.92
  -1  10  -1   85.13    3.86
  -1  10   0   61.94    3.09
  -1  10   1  138.27    4.04
   0 -10   0   50.46    2.32
   0 -10   1  100.32    3.77
   0 -10   2   74.33    3.44
   0 -10   2   76.37    2.94
   0 -10   3   28.55    2.29
   0 -10   3   28.56    2.20
   0 -10   4  235.68    6.43
   0 -10   4  235.48    6.83
   0 -10   5   16.60    1.57
   0 -10   6  175.45    5.11
   0 -10   7   26.28    1.99
   0 -10   8  158.76    4.37
   0  -9  -3   52.69    2.52
   0  -9  -2    6.68    1.68
   0  -9  -1  242.90    7.89
   0  -9   0   58.33    4.20
   0  -9   0   62.73    3.38
   0  -9   1   73.19    4.78
   0  -9   1   71.94    4.18
   0  -9   2  462.13   12.84
   0  -9   2  470.50   12.52
   0  -9   3  164.71    7.21
   0  -9   3  177.92    7.55
   0  -9   3  185.96    6.32
   0  -9   4    6.68    1.98
   0  -9   4    7.00    2.40
   0  -9   4    6.05    1.95
   0  -9   5   46.13    3.59
   0  -9   5   47.91    4.34
   0  -9   5   50.90    3.88
   0  -9   6  139.74    6.85
   0  -9   6  151.83    6.50
   0  -9   7   38.15    3.53
   0  -9   8   16.37    2.41
   0  -9   9  235.17    7.15
   0  -9  10  100.18    3.63
   0  -8  -5  212.73    5.51
   0  -8  -5  224.19    5.90
   0  -8  -4  130.32    5.22
   0  -8  -4  131.62    5.17
   0  -8  -3   43.65    3.68
   0  -8  -3   46.93    3.51
   0  -8  -2  375.91   11.58
   0  -8  -2  369.67   10.59
   0  -8  -1  167.73    7.87
   0  -8  -1  170.19    6.61
   0  -8  -1  164.79    6.80
   0  -8   0   53.96    4.85
   0  -8   0   56.12    4.20
   0  -8   0   55.90    3.99
   0  -8   1  112.12    6.48
   0  -8   1   98.68    5.85
   0  -8   1  107.44    5.18
   0  -8   2   64.56    5.03
   0  -8   2   59.52    4.84
   0  -8   3   71.83    5.14
   0  -8   3   72.11    5.51
   0  -8   3   75.01    4.78
   0  -8   4   20.49    3.55
   0  -8   4   19.70    3.11
   0  -8   4   19.31    2.98
   0  -8   5  169.75    7.42
   0  -8   5  176.56    8.50
   0  -8   5  170.61    7.72
   0  -8   6   20.85    2.79
   0  -8   6   19.30    3.48
   0  -8   6   23.48    3.43
   0  -8   7   57.19    4.96
   0  -8   7   60.08    4.88
   0  -8   8   91.17    5.58
   0  -8   9  236.30    8.45
   0  -8  10   60.95    3.71
   0  -8  11  186.44    5.63
   0  -8  11  182.17    5.09
   0  -7  -7   29.25    2.09
   0  -7  -6   63.10    3.26
   0  -7  -6   60.97    3.77
   0  -7  -5   28.43    2.94
   0  -7  -5   24.29    3.04
   0  -7  -4  244.37    9.01
   0  -7  -3  121.85    6.70
   0  -7  -2  210.79    8.95
   0  -7  -2  190.49    8.02
   0  -7  -1  185.71    8.29
   0  -7  -1  183.55    7.40
   0  -7  -1  168.41    7.44
   0  -7   0  772.87   18.80
   0  -7   0  789.36   18.26
   0  -7   0  782.42   17.53
   0  -7   1  250.54    9.30
   0  -7   1  242.08    9.11
   0  -7   1  234.55    7.82
   0  -7   2  196.15   10.27
   0  -7   2  210.21    8.44
   0  -7   2  212.19    8.66
   0  -7   2  210.54    7.34
   0  -7   3  456.13   15.84
   0  -7   3  458.30   13.00
   0  -7   3  451.49   13.36
   0  -7   3  441.22   12.15
   0  -7   4   54.38    5.06
   0  -7   4   55.91    4.38
   0  -7   4   58.55    4.72
   0  -7   4   63.57    4.69
   0  -7   5   58.44    4.35
   0  -7   5   59.08    5.00
   0  -7   5   56.91    4.55
   0  -7   6   55.54    4.18
   0  -7   6   56.28    4.91
   0  -7   6   56.28    4.64
   0  -7   7  414.25   13.25
   0  -7   7  410.22   11.08
   0  -7   7  429.37   12.97
   0  -7   8  305.22   11.00
   0  -7   8  322.28    9.65
   0  -7   8  306.60   10.73
   0  -7   9   17.75    2.40
   0  -7   9   18.49    2.95
   0  -7  10    8.85    1.74
   0  -7  10   10.04    2.27
   0  -7  11    7.37    1.49
   0  -7  11    4.81    1.49
   0  -7  12   35.05    2.70
   0  -7  12   29.06    1.85
   0  -6  -8   93.78    4.12
   0  -6  -7  127.80    5.00
   0  -6  -6  120.24    5.76
   0  -6  -5  121.98    7.35
   0  -6  -5  121.58    5.70
   0  -6  -5  127.23    6.46
   0  -6  -4    1.23    2.30
   0  -6  -4    1.81    1.88
   0  -6  -4    3.06    2.17
   0  -6  -3  179.62    9.17
   0  -6  -3  177.13    7.51
   0  -6  -3  189.52    8.04
   0  -6  -2  396.71   13.56
   0  -6  -2  419.61   15.81
   0  -6  -2  428.30   12.07
   0  -6  -2  414.21   12.31
   0  -6  -1  424.33   16.25
   0  -6  -1  411.80   11.61
   0  -6  -1  446.37   12.30
   0  -6   0  241.78   11.82
   0  -6   1  380.44   14.36
   0  -6   1  387.05   15.00
   0  -6   2   64.46    5.59
   0  -6   3   36.17    4.19
   0  -6   4   19.93    3.25
   0  -6   5  261.04   10.51
   0  -6   6  198.71    8.09
   0  -6   6  208.92    7.97
   0  -6   7   20.60    3.27
   0  -6   7   19.43    2.48
   0  -6   7   18.51    2.94
   0  -6   8  110.91    5.58
   0  -6   8  112.13    5.97
   0  -6   9  257.68    8.88
   0  -6   9  271.29    9.29
   0  -6  10   59.66    4.11
   0  -6  10   61.05    4.05
   0  -6  11   58.58    3.93
   0  -6  12  142.66    6.39
   0  -6  12  152.08    5.48
   0  -6  13  194.77    6.04
   0  -6  13  184.06    4.90
   0  -5  -8   55.43    3.25
   0  -5  -7  135.22    8.08
   0  -5  -7  146.67    6.24
   0  -5  -6  847.23   23.30
   0  -5  -6  801.25   18.53
   0  -5  -6  867.80   22.96
   0  -5  -5  257.82    8.26
   0  -5  -5  249.93    9.21
   0  -5  -5  259.40   11.81
   0  -5  -4  742.41   20.98
   0  -5  -4  709.39   15.74
   0  -5  -4  776.94   17.41
   0  -5  -4  737.10   20.82
   0  -5  -4  719.57   19.83
   0  -5  -3  271.32   11.88
   0  -5  -3  258.25   10.94
   0  -5  -3  264.16   10.99
   0  -5  -2  990.40   24.86
   0  -5  -2  911.63   22.19
   0  -5  -2  934.95   22.18
   0  -5  -1   22.02    3.53
   0  -5  -1   22.27    3.04
   0  -5   0  297.98   12.40
   0  -5   0  293.59    9.49
   0  -5   1  380.34   13.76
   0  -5   2   77.09    5.85
   0  -5   2   70.80    5.42
   0  -5   3  866.11   21.15
   0  -5   3  891.88   18.33
   0  -5   4  377.83   12.37
   0  -5   4  391.72   11.14
   0  -5   5   69.02    4.91
   0  -5   5   82.54    5.09
   0  -5   6  617.49   15.61
   0  -5   6  646.08   16.85
   0  -5   7  339.26   12.16
   0  -5   8   41.69    4.34
   0  -5   8   47.39    4.25
   0  -5   8   45.73    3.63
   0  -5   8   44.13    3.66
   0  -5   9  362.78   11.53
   0  -5   9  347.77   10.79
   0  -5   9  344.78    9.90
   0  -5  10   53.25    4.47
   0  -5  10   43.29    3.92
   0  -5  11   89.62    5.29
   0  -5  12  104.09    6.10
   0  -5  12   94.11    4.20
   0  -5  12   99.73    5.02
   0  -5  13   93.48    4.74
   0  -5  13   79.05    2.95
   0  -5  13   91.01    3.95
   0  -4  -8   66.02    5.98
   0  -4  -8   59.27    3.87
   0  -4  -7  178.16   10.32
   0  -4  -7  169.23    9.80
   0  -4  -6  110.41    8.19
   0  -4  -6  117.04    7.40
   0  -4  -6  120.06    8.23
   0  -4  -5  180.36    9.85
   0  -4  -5  174.53    9.63
   0  -4  -5  179.72    8.89
   0  -4  -4  835.63   22.00
   0  -4  -4  820.97   20.25
   0  -4  -4  809.47   20.91
   0  -4  -4  811.30   21.65
   0  -4  -3   63.87    5.15
   0  -4  -3   63.36    5.05
   0  -4  -3   65.79    4.54
   0  -4  -3   59.76    5.01
   0  -4  -2  248.10    9.16
   0  -4  -2  255.04   10.31
   0  -4  -2  253.82    9.41
   0  -4  -2  245.73    8.29
   0  -4  -1  372.02   10.60
   0  -4  -1  378.90    9.66
   0  -4  -1  372.23   10.95
   0  -4  -1  387.88   12.72
   0  -4   0  479.18   11.45
   0  -4   0  485.86   14.31
   0  -4   1  455.48   10.27
   0  -4   1  471.42   13.70
   0  -4   2  605.09   12.01
   0  -4   2  567.88   15.20
   0  -4   3  350.82   10.78
   0  -4   3  356.11    9.70
   0  -4   4  531.31   13.61
   0  -4   4  531.30   13.22
   0  -4   5  636.77   15.16
   0  -4   5  650.91   15.98
   0  -4   6  411.44   11.12
   0  -4   6  403.83   12.77
   0  -4   7  140.33    7.57
   0  -4   8 1071.66   25.89
   0  -4   9 1655.14   31.04
   0  -4   9 1702.49   30.15
   0  -4   9 1736.33   31.70
   0  -4   9 1669.84   31.24
   0  -4  10  192.99    7.85
   0  -4  10  192.73    7.60
   0  -4  10  188.75    7.83
   0  -4  10  187.68    7.83
   0  -4  11   11.54    3.14
   0  -4  11   12.45    2.44
   0  -4  12  197.52    8.74
   0  -4  12  200.35    7.22
   0  -4  12  190.21    7.60
   0  -4  13   52.31    3.99
   0  -4  13   51.80    3.07
   0  -4  13   50.68    3.37
   0  -4  14  227.98    5.52
   0  -3  -9  115.95    7.81
   0  -3  -8  316.44   14.02
   0  -3  -8  290.21   11.46
   0  -3  -8  331.34   13.65
   0  -3  -7  354.55   13.13
   0  -3  -7  343.42   13.70
   0  -3  -7  335.19   14.24
   0  -3  -6  796.92   21.11
   0  -3  -6  809.33   19.83
   0  -3  -6  866.02   22.52
   0  -3  -6  816.91   23.08
   0  -3  -5  181.27    8.64
   0  -3  -5  200.93    8.29
   0  -3  -5  185.67    9.41
   0  -3  -4  870.02   20.65
   0  -3  -4  877.71   19.50
   0  -3  -4  911.02   21.86
   0  -3  -4  899.80   20.19
   0  -3  -3  416.91   12.12
   0  -3  -3  420.75   11.44
   0  -3  -3  427.19   12.39
   0  -3  -3  428.48   12.63
   0  -3  -2   39.93    3.28
   0  -3  -2   34.03    2.93
   0  -3  -2   33.94    2.87
   0  -3  -2   31.69    3.03
   0  -3  -2   29.38    3.10
   0  -3  -1  367.12    9.10
   0  -3  -1  352.80   10.60
   0  -3  -1  351.54    9.32
   0  -3  -1  344.03    8.52
   0  -3   0  251.78    6.92
   0  -3   0  262.22    8.62
   0  -3   0  264.98    6.19
   0  -3   1 1443.69   26.49
   0  -3   2  522.59    9.78
   0  -3   2  502.13   12.14
   0  -3   3    8.53    1.61
   0  -3   3    8.97    1.60
   0  -3   4  183.63    6.20
   0  -3   4  186.01    6.78
   0  -3   5  304.56    9.91
   0  -3   5  308.57    8.45
   0  -3   6  217.54    6.79
   0  -3   6  229.63    9.15
   0  -3   7  137.68    7.54
   0  -3   8   46.37    4.86
   0  -3   9  294.13    9.11
   0  -3   9  282.34    9.05
   0  -3   9  267.79    8.48
   0  -3   9  290.99    9.44
   0  -3   9  303.82   12.57
   0  -3  10   28.29    3.29
   0  -3  10   27.37    3.93
   0  -3  10   30.68    3.35
   0  -3  10   33.17    3.17
   0  -3  10   31.01    3.53
   0  -3  11  197.22    9.29
   0  -3  11  213.68    8.14
   0  -3  11  206.57    8.53
   0  -3  11  218.92    7.66
   0  -3  12   71.96    4.41
   0  -3  12   71.85    5.56
   0  -3  12   69.58    4.62
   0  -3  12   75.02    4.92
   0  -3  13   58.52    4.31
   0  -3  13   57.26    3.65
   0  -3  13   56.66    3.71
   0  -3  14  226.20    5.60
   0  -2 -10   89.38    6.81
   0  -2  -9   69.46    6.31
   0  -2  -8  309.74   12.09
   0  -2  -8  327.85   13.47
   0  -2  -8  306.56   13.43
   0  -2  -7   81.45    5.37
   0  -2  -7   77.82    5.71
   0  -2  -7   79.17    6.56
   0  -2  -6  227.42    8.62
   0  -2  -6  220.11    9.25
   0  -2  -6  212.76   10.05
   0  -2  -5  238.42    8.33
   0  -2  -5  231.36    8.80
   0  -2  -5  237.76    9.88
   0  -2  -5  250.21    7.86
   0  -2  -4   30.74    2.75
   0  -2  -4   27.70    2.86
   0  -2  -4   32.22    3.43
   0  -2  -4   25.19    2.46
   0  -2  -3  732.58   14.59
   0  -2  -3  754.81   15.58
   0  -2  -3  728.59   16.59
   0  -2  -3  735.87   15.48
   0  -2  -2  926.71   17.31
   0  -2  -2  938.27   18.03
   0  -2  -1  566.97   12.08
   0  -2  -1  560.23   11.16
   0  -2   0 3093.62   45.44
   0  -2   0 3052.97   47.23
   0  -2   0 3061.80   44.73
   0  -2   1  357.33    8.24
   0  -2   2 7590.49  109.16
   0  -2   2 7600.26  109.24
   0  -2   3   88.54    3.39
   0  -2   3   82.10    3.80
   0  -2   4   99.72    3.70
   0  -2   4   93.69    4.60
   0  -2   5   94.50    3.78
   0  -2   5   82.88    4.91
   0  -2   6 1455.28   29.35
   0  -2   7  199.94    9.20
   0  -2   8   59.05    5.36
   0  -2   9  773.50   18.66
   0  -2   9  776.54   16.88
   0  -2   9  784.72   17.65
   0  -2   9  805.84   22.15
   0  -2   9  805.48   17.88
   0  -2  10  194.84    8.88
   0  -2  10  201.56    7.95
   0  -2  10  200.32    7.55
   0  -2  11   65.52    5.57
   0  -2  11   63.60    4.47
   0  -2  11   71.28    5.07
   0  -2  11   65.56    4.87
   0  -2  11   67.91    4.49
   0  -2  12   41.52    4.34
   0  -2  12   40.81    3.40
   0  -2  12   40.29    3.78
   0  -2  12   40.00    3.88
   0  -2  12   37.45    3.29
   0  -2  13   82.26    4.40
   0  -2  13   81.71    4.49
   0  -2  13   80.20    3.65
   0  -1 -10  232.09   10.50
   0  -1  -9   43.76    5.04
   0  -1  -9   36.85    4.51
   0  -1  -9   41.83    4.30
   0  -1  -8  544.01   17.37
   0  -1  -8  525.48   15.96
   0  -1  -7   74.40    5.85
   0  -1  -7   66.04    4.73
   0  -1  -6   87.56    5.89
   0  -1  -6   86.78    4.93
   0  -1  -5  499.71   13.90
   0  -1  -4  308.61    9.45
   0  -1  -4  323.52    7.64
   0  -1  -4  324.05    7.34
   0  -1  -4  308.45    6.54
   0  -1  -3   13.07    1.77
   0  -1  -3   11.90    1.36
   0  -1  -2  256.85    5.98
   0  -1  -1  888.02   14.70
   0  -1   0 1066.27   16.72
   0  -1   1 2628.07   38.11
   0  -1   2 1899.41   27.66
   0  -1   2 1793.19   28.59
   0  -1   3 1142.41   18.22
   0  -1   4  235.09    5.66
   0  -1   4  231.46    7.36
   0  -1   5  140.89    4.54
   0  -1   5  150.98    6.51
   0  -1   6  118.30    6.40
   0  -1   7 1237.92   27.50
   0  -1   8  287.12   11.86
   0  -1   9  188.42    8.16
   0  -1   9  199.26    7.35
   0  -1   9  203.02   10.16
   0  -1   9  201.08    7.71
   0  -1   9  203.74    7.60
   0  -1   9  188.96    7.81
   0  -1  10   82.76    5.90
   0  -1  10   84.01    5.27
   0  -1  10   83.65    5.36
   0  -1  10   74.38    4.99
   0  -1  11   37.47    4.49
   0  -1  11   43.98    3.90
   0  -1  11   35.25    3.87
   0  -1  11   41.88    4.19
   0  -1  11   39.59    3.87
   0  -1  12  103.01    4.94
   0  -1  12  106.35    5.90
   0  -1  12  107.10    5.88
   0  -1  12  101.65    5.48
   0  -1  13   17.30    1.69
   0  -1  13   16.34    2.31
   0  -1  13   12.09    1.86
   0   0 -10  170.76    8.76
   0   0  -9    8.32    2.55
   0   0  -8    7.26    2.36
   0   0  -7   88.14    5.48
   0   0  -7  100.75    6.41
   0   0  -6  267.31    8.02
   0   0  -6  265.06    9.19
   0   0  -6  278.59    8.22
   0   0  -5  239.71    7.00
   0   0  -5  246.98    8.12
   0   0  -5  249.98    7.17
   0   0  -4 3316.50   52.66
   0   0  -4 3427.63   49.14
   0   0  -3  129.44    3.11
   0   0  -2  131.59    2.78
   0   0  -1  121.43    2.20
   0   0   1  132.52    2.59
   0   0   2  141.30    3.43
   0   0   2  149.09    4.07
   0   0   2  142.59    4.01
   0   0   3  116.19    3.61
   0   0   3  124.66    4.48
   0   0   4 3423.00   53.45
   0   0   4 3365.02   53.43
   0   0   5  284.58    9.28
   0   0   5  279.33    9.25
   0   0   6  263.59    9.79
   0   0   6  268.12    9.88
   0   0   7  108.54    6.57
   0   0   7  103.59    6.51
   0   0   8    5.02    2.12
   0   0   9   15.73    3.28
   0   0   9    9.05    2.30
   0   0   9   12.09    2.82
   0   0   9    9.09    2.23
   0   0   9    9.13    2.55
   0   0   9    8.85    2.40
   0   0  10  180.75    8.47
   0   0  10  188.29    7.79
   0   0  10  183.14    8.10
   0   0  10  200.92    8.41
   0   0  10  186.19    8.25
   0   0  10  176.50    8.31
   0   0  11   63.89    4.38
   0   0  11   57.71    4.68
   0   0  11   66.86    4.97
   0   0  11   63.07    4.88
   0   0  12  297.43    8.40
   0   0  12  293.82    9.29
   0   0  12  283.56    9.35
   0   0  13   38.17    2.66
   0   1 -10   54.75    4.88
   0   1  -9  150.70    7.90
   0   1  -9  170.42    8.89
   0   1  -8  255.88   10.60
   0   1  -8  256.98    9.24
   0   1  -7 1195.04   24.43
   0   1  -7 1214.84   26.33
   0   1  -6  124.09    5.71
   0   1  -5  124.20    4.08
   0   1  -4  222.21    4.06
   0   1  -4  222.66    5.42
   0   1  -3 1136.67   18.09
   0   1  -2 1809.86   26.98
   0   1  -1 2656.73   38.72
   0   1  -1 2653.18   38.53
   0   1   0 1094.48   16.07
   0   1   1  833.28   13.98
   0   1   2  219.84    5.61
   0   1   3   15.74    1.91
   0   1   3   14.91    1.72
   0   1   3   11.99    1.84
   0   1   4  360.44   10.21
   0   1   4  367.84    9.92
   0   1   4  361.65    9.83
   0   1   5  483.81   13.25
   0   1   5  463.59   12.90
   0   1   6   98.60    5.95
   0   1   6  102.23    6.05
   0   1   7   77.19    5.67
   0   1   7   81.51    5.75
   0   1   8  547.10   13.91
   0   1   8  560.98   13.65
   0   1   8  577.28   17.24
   0   1   8  555.28   13.41
   0   1   8  554.91   13.81
   0   1   8  553.94   14.24
   0   1   8  539.39   14.51
   0   1   9   69.57    4.85
   0   1   9   71.95    4.82
   0   1   9   72.31    4.93
   0   1   9   79.47    5.29
   0   1   9   75.23    5.54
   0   1  10  247.18    9.00
   0   1  10  241.75    9.02
   0   1  10  239.79    9.60
   0   1  10  240.00    9.89
   0   1  11   20.24    2.82
   0   1  11   20.21    2.79
   0   1  11   17.07    3.22
   0   1  11   24.31    3.30
   0   1  12   58.21    3.16
   0   1  12   53.48    3.79
   0   1  13    4.67    1.24
   0   2 -10  188.93    8.78
   0   2  -9  759.93   20.93
   0   2  -9  738.70   18.75
   0   2  -9  724.76   18.65
   0   2  -8   73.36    5.30
   0   2  -8   77.53    6.00
   0   2  -7  191.54    8.46
   0   2  -7  205.72    7.70
   0   2  -6 1380.05   27.31
   0   2  -6 1338.31   25.37
   0   2  -5   65.20    3.81
   0   2  -5   67.83    3.15
   0   2  -4  112.01    4.60
   0   2  -4  104.39    3.86
   0   2  -4  115.24    3.82
   0   2  -3  102.29    4.09
   0   2  -3   98.73    3.67
   0   2  -3  104.29    3.16
   0   2  -2 7893.09  113.87
   0   2  -1  348.34    8.04
   0   2  -1  353.78    7.72
   0   2   0 3037.49   43.95
   0   2   1  598.52   12.47
   0   2   2  946.32   18.27
   0   2   2  953.83   16.32
   0   2   3  709.78   13.06
   0   2   3  713.15   16.08
   0   2   4   23.46    2.83
   0   2   4   21.61    2.98
   0   2   5  241.94    9.39
   0   2   5  238.95    9.86
   0   2   6  203.19    9.10
   0   2   7   69.21    5.59
   0   2   8  304.83   10.36
   0   2   8  290.27   11.38
   0   2   8  313.90    9.48
   0   2   8  309.06   10.92
   0   2   8  305.23   10.28
   0   2   9   94.79    5.65
   0   2   9   93.14    5.31
   0   2   9   91.20    5.71
   0   2   9   91.97    6.29
   0   2  10   70.30    4.68
   0   2  10   64.74    4.41
   0   2  10   75.64    5.61
   0   2  10   76.46    5.21
   0   2  11   34.21    2.91
   0   2  11   28.16    3.16
   0   2  11   32.89    3.57
   0   2  12  201.54    4.83
   0   2  12  196.29    6.01
   0   3  -9  247.70   11.52
   0   3  -9  247.91   10.60
   0   3  -8   67.54    5.52
   0   3  -8   61.86    4.66
   0   3  -7  120.62    6.21
   0   3  -7  126.86    6.56
   0   3  -7  120.11    7.06
   0   3  -6  215.00    9.04
   0   3  -6  207.57    7.94
   0   3  -6  211.36    8.27
   0   3  -5  237.63    8.29
   0   3  -5  241.64    6.66
   0   3  -5  248.04    8.72
   0   3  -5  253.20    9.26
   0   3  -4  164.11    6.49
   0   3  -4  153.59    6.31
   0   3  -4  166.03    5.14
   0   3  -3    6.77    1.59
   0   3  -3    7.11    1.36
   0   3  -3    4.92    1.55
   0   3  -2  536.29   12.17
   0   3  -2  512.92   11.41
   0   3  -2  506.43   12.05
   0   3  -1 1465.00   25.32
   0   3  -1 1439.78   25.97
   0   3  -1 1423.51   23.61
   0   3   0  210.86    7.32
   0   3   1  361.36   10.47
   0   3   2   28.98    3.18
   0   3   2   30.64    2.55
   0   3   3  358.63    8.94
   0   3   3  372.88   12.34
   0   3   4  816.45   21.15
   0   3   5  196.72    8.88
   0   3   5  190.94    9.92
   0   3   6  849.38   21.69
   0   3   7  303.94   11.44
   0   3   7  283.93    9.99
   0   3   7  288.93    9.28
   0   3   7  300.65   10.62
   0   3   8  307.12   10.68
   0   3   8  335.55   10.51
   0   3   8  315.54   11.44
   0   3   9  119.70    6.36
   0   3   9  126.28    6.26
   0   3   9  126.95    7.18
   0   3  10  100.25    5.05
   0   3  10  110.97    6.02
   0   3  10  105.28    5.27
   0   3  11   99.19    3.86
   0   3  11  106.54    4.30
   0   4 -10  174.38    8.78
   0   4  -9 1663.38   34.09
   0   4  -9 1753.52   37.98
   0   4  -9 1744.28   36.52
   0   4  -8 1075.68   25.91
   0   4  -8 1026.69   24.57
   0   4  -7  155.82    8.17
   0   4  -7  172.70    8.85
   0   4  -6  384.59   13.18
   0   4  -6  378.19   12.92
   0   4  -5  661.88   17.10
   0   4  -5  636.44   15.15
   0   4  -5  647.00   17.26
   0   4  -5  656.07   13.98
   0   4  -4  529.04   14.35
   0   4  -4  538.73   13.60
   0   4  -4  567.64   15.30
   0   4  -4  547.01   10.65
   0   4  -3  361.68   11.28
   0   4  -3  338.19   10.09
   0   4  -3  351.53    7.97
   0   4  -3  336.95   10.47
   0   4  -2  548.38   14.25
   0   4  -2  554.93   11.38
   0   4  -2  552.95   14.35
   0   4  -2  552.21   12.58
   0   4  -1  512.50   14.06
   0   4  -1  512.21   12.02
   0   4  -1  528.33   12.11
   0   4   0  509.00   14.28
   0   4   0  495.82   11.31
   0   4   0  511.37   10.92
   0   4   1  363.62   11.96
   0   4   2  266.54    8.71
   0   4   2  278.42   10.54
   0   4   3   71.43    6.10
   0   4   4  871.67   24.19
   0   4   5  138.25    7.66
   0   4   5  138.91    9.20
   0   4   6  123.35    7.09
   0   4   6  115.49    6.45
   0   4   7  179.73    8.13
   0   4   7  179.59    7.00
   0   4   7  189.54    8.44
   0   4   8   64.22    4.85
   0   4   8   67.52    4.25
   0   4   8   63.67    5.17
   0   4   9   72.15    4.52
   0   4   9   67.42    3.83
   0   4   9   68.28    4.74
   0   4  10  156.54    5.27
   0   4  10  167.84    4.91
   0   4  10  160.70    5.98
   0   5 -10   31.10    4.42
   0   5 -10   25.50    3.90
   0   5  -9  283.49   11.87
   0   5  -9  307.50   13.26
   0   5  -9  304.67   12.78
   0   5  -8   37.73    4.75
   0   5  -8   40.73    4.83
   0   5  -7  279.54   12.24
   0   5  -7  296.34   12.07
   0   5  -6  599.16   18.70
   0   5  -6  620.56   17.82
   0   5  -5   66.46    4.75
   0   5  -5   65.46    5.66
   0   5  -5   60.92    4.95
   0   5  -4  334.76   12.78
   0   5  -4  337.80   11.51
   0   5  -4  347.92   11.20
   0   5  -3  884.73   21.39
   0   5  -3  897.32   19.37
   0   5  -3  884.76   20.92
   0   5  -2   54.48    4.73
   0   5  -2   50.09    4.12
   0   5  -2   53.96    4.36
   0   5  -1  389.78   13.37
   0   5  -1  397.46   11.50
   0   5  -1  384.92   10.98
   0   5   0  349.50   12.74
   0   5   0  342.71    9.75
   0   5   1   11.41    2.69
   0   5   1   10.39    2.40
   0   5   2  863.53   24.14
   0   5   3  254.83   12.58
   0   5   4  781.71   24.05
   0   5   4  778.15   20.20
   0   5   4  758.55   16.82
   0   5   4  818.50   17.57
   0   5   5  218.88   12.06
   0   5   5  243.78    8.02
   0   5   5  233.64    8.99
   0   5   6  854.84   19.78
   0   5   7  144.37    7.08
   0   5   7  142.74    6.89
   0   5   8   66.62    4.31
   0   5   8   62.82    4.21
   0   5   9    7.24    1.50
   0   5   9    5.31    1.63
   0   6 -10   49.78    5.05
   0   6 -10   53.48    5.38
   0   6  -9  293.39   13.06
   0   6  -9  304.35   13.38
   0   6  -8   90.34    7.70
   0   6  -8   93.09    7.79
   0   6  -7   13.51    3.44
   0   6  -7   14.24    3.95
   0   6  -7   10.78    2.42
   0   6  -6  178.26   10.22
   0   6  -6  172.28   10.15
   0   6  -6  182.45    8.94
   0   6  -5  289.48   12.50
   0   6  -5  283.66   12.74
   0   6  -5  301.12   11.18
   0   6  -5  308.95   11.27
   0   6  -4   19.56    3.67
   0   6  -4   19.65    3.99
   0   6  -4   16.48    3.12
   0   6  -3   25.60    3.65
   0   6  -3   38.86    4.38
   0   6  -3   29.66    3.96
   0   6  -2   61.47    4.99
   0   6  -2   62.36    4.89
   0   6  -2   59.50    5.38
   0   6  -1  418.64   12.90
   0   6  -1  416.60   14.93
   0   6   0  284.57   12.32
   0   6   1  437.92   16.75
   0   6   1  456.06   12.61
   0   6   1  459.48   15.98
   0   6   1  445.87   13.86
   0   6   2  443.59   17.18
   0   6   2  449.10   12.83
   0   6   3  199.30   11.47
   0   6   3  210.25    8.43
   0   6   3  222.26    7.77
   0   6   4    2.98    3.36
   0   6   4    0.76    2.04
   0   6   4    3.95    1.93
   0   6   5  134.66    6.04
   0   6   5  130.53    6.33
   0   6   6   99.16    5.15
   0   6   7  137.39    5.99
   0   6   7  155.22    5.80
   0   6   8   94.69    3.84
   0   6   8   99.02    3.51
   0   7 -10    2.82    2.08
   0   7  -9   21.06    3.72
   0   7  -9   25.71    4.06
   0   7  -8  299.36   13.47
   0   7  -8  274.61   12.89
   0   7  -7  386.04   15.85
   0   7  -7  358.12   15.03
   0   7  -6   36.05    4.92
   0   7  -6   42.86    3.45
   0   7  -5   58.65    6.26
   0   7  -5   59.80    5.92
   0   7  -5   51.69    4.03
   0   7  -4   55.28    5.66
   0   7  -4   56.21    5.39
   0   7  -4   50.97    4.19
   0   7  -4   57.60    5.17
   0   7  -3  451.64   15.32
   0   7  -3  444.46   14.52
   0   7  -3  443.56   12.93
   0   7  -3  465.34   15.52
   0   7  -2  200.94    9.33
   0   7  -2  215.33   10.52
   0   7  -2  205.72    8.46
   0   7  -1  205.16   10.11
   0   7  -1  204.49    8.55
   0   7  -1  214.01    8.13
   0   7   0  818.58   23.69
   0   7   0  829.26   20.93
   0   7   0  849.66   20.01
   0   7   0  832.29   17.98
   0   7   1  190.95   10.71
   0   7   1  196.34    8.57
   0   7   2  201.33   11.16
   0   7   2  228.62    9.14
   0   7   3  140.19    8.95
   0   7   3  142.49    6.93
   0   7   4  263.11    8.69
   0   7   5   22.49    2.19
   0   7   6   61.55    3.67
   0   7   7   18.93    1.61
   0   8 -10   47.55    2.76
   0   8  -9  223.39    9.77
   0   8  -8   87.42    6.70
   0   8  -8   78.98    6.06
   0   8  -7   81.88    6.70
   0   8  -7   66.20    5.88
   0   8  -6   12.96    3.10
   0   8  -6   15.64    3.57
   0   8  -6   12.55    2.44
   0   8  -5  177.60    9.57
   0   8  -5  190.78    9.13
   0   8  -5  181.70    7.61
   0   8  -4   26.79    3.92
   0   8  -4   29.69    3.57
   0   8  -3   60.79    5.21
   0   8  -3   58.28    4.75
   0   8  -3   69.15    5.08
   0   8  -2   64.20    5.44
   0   8  -2   65.77    5.48
   0   8  -2   64.47    5.18
   0   8  -2   71.13    4.97
   0   8  -1  109.88    7.12
   0   8  -1  101.91    6.36
   0   8  -1  104.74    5.64
   0   8   0   65.53    5.67
   0   8   0   57.78    4.81
   0   8   0   58.68    3.99
   0   8   1  160.41    7.56
   0   8   2  381.79   11.49
   0   8   3   43.77    3.33
   0   8   4  129.69    4.57
   0   8   5  186.93    5.45
   0   9  -9  237.36    6.56
   0   9  -8   12.21    2.17
   0   9  -7   41.32    3.56
   0   9  -6  150.99    7.10
   0   9  -6  135.81    5.47
   0   9  -6  141.02    6.59
   0   9  -5   43.14    3.91
   0   9  -5   39.14    3.31
   0   9  -5   43.46    4.03
   0   9  -4    4.02    1.97
   0   9  -4    5.00    2.33
   0   9  -3  183.04    7.60
   0   9  -3  179.10    7.32
   0   9  -2  461.89   13.00
   0   9  -2  471.13   11.90
   0   9  -1   66.02    4.68
   0   9  -1   60.67    3.56
   0   9   0   60.54    4.24
   0   9   1  292.61    8.62
   0   9   2   10.44    1.65
   0   9   3   52.91    2.05
   0  10  -8  145.36    4.01
   0  10  -7   36.40    2.37
   0  10  -6  180.48    5.70
   0  10  -5   23.80    1.90
   0  10  -5   22.33    2.18
   0  10  -4  227.12    6.38
   0  10  -4  236.61    6.57
   0  10  -3   31.34    2.43
   0  10  -3   28.56    2.11
   0  10  -2   82.19    3.69
   0  10  -1  107.37    3.94
   0  10   0   64.96    2.62
   1 -10  -1  141.56    4.00
   1 -10   0   81.11    3.48
   1 -10   1   89.86    4.03
   1 -10   2  232.21    7.11
   1 -10   3  112.67    4.83
   1 -10   4   82.32    3.59
   1 -10   5    7.49    1.58
   1 -10   6  287.52    7.62
   1 -10   7   16.32    1.84
   1 -10   8   86.74    3.26
   1  -9  -3    4.59    1.12
   1  -9  -3    2.71    1.26
   1  -9  -2   91.94    4.46
   1  -9  -2   92.94    3.81
   1  -9  -1   24.41    2.10
   1  -9  -1   23.13    2.85
   1  -9   0  226.03    8.52
   1  -9   1   89.43    5.55
   1  -9   1   79.37    4.34
   1  -9   2   31.13    3.58
   1  -9   2   29.89    3.17
   1  -9   2   27.05    2.61
   1  -9   3   35.56    3.77
   1  -9   3   32.26    3.50
   1  -9   3   31.34    3.11
   1  -9   4  561.24   14.76
   1  -9   4  556.36   14.86
   1  -9   4  556.57   14.09
   1  -9   5   92.90    5.35
   1  -9   5   87.84    5.54
   1  -9   5   86.09    5.32
   1  -9   6   28.49    2.53
   1  -9   6   29.93    3.48
   1  -9   7   20.14    2.13
   1  -9   7   24.87    3.17
   1  -9   8   60.17    3.07
   1  -9   8   69.75    4.16
   1  -9   9   85.33    3.13
   1  -9   9  100.79    4.30
   1  -9  10   87.34    3.12
   1  -8  -6    8.35    1.28
   1  -8  -5   61.52    2.99
   1  -8  -5   66.48    3.68
   1  -8  -4   60.66    3.78
   1  -8  -4   68.14    4.25
   1  -8  -3  129.36    6.21
   1  -8  -3  137.62    6.51
   1  -8  -2  296.49   10.18
   1  -8  -2  296.36   10.04
   1  -8  -1  183.36    8.21
   1  -8  -1  200.94    8.07
   1  -8   0  133.95    7.07
   1  -8   0  123.45    5.83
   1  -8   0  129.98    6.35
   1  -8   1   95.82    6.09
   1  -8   1   90.81    5.47
   1  -8   1   99.04    5.38
   1  -8   2  268.12   10.15
   1  -8   2  247.66    9.32
   1  -8   2  247.20    8.95
   1  -8   3  171.29    8.00
   1  -8   3  147.59    7.38
   1  -8   3  151.73    7.12
   1  -8   4  161.73    7.62
   1  -8   4  149.71    7.66
   1  -8   4  146.67    7.27
   1  -8   5  346.43   11.42
   1  -8   5  369.16   12.45
   1  -8   5  368.62   12.06
   1  -8   6   86.68    6.08
   1  -8   6   86.51    5.79
   1  -8   7   44.66    3.63
   1  -8   7   40.49    4.21
   1  -8   8   40.81    3.36
   1  -8   8   46.96    4.04
   1  -8   9  236.57    7.56
   1  -8   9  243.24    8.15
   1  -8  10   60.61    3.22
   1  -8  10   58.02    3.27
   1  -8  10   66.13    3.48
   1  -8  11   75.69    2.77
   1  -8  11   74.14    3.01
   1  -7  -7    0.73    1.29
   1  -7  -6   50.39    3.04
   1  -7  -6   50.47    3.87
   1  -7  -5  125.31    5.64
   1  -7  -5  128.88    6.64
   1  -7  -4    8.47    3.07
   1  -7  -4    8.50    2.45
   1  -7  -4    9.08    2.62
   1  -7  -3  717.45   19.23
   1  -7  -3  750.34   17.90
   1  -7  -3  729.80   18.31
   1  -7  -2  207.24    8.60
   1  -7  -2  225.34    8.88
   1  -7  -1  123.33    6.65
   1  -7  -1  119.47    6.23
   1  -7   0  173.14    7.66
   1  -7   0  162.98    6.57
   1  -7   0  169.84    7.31
   1  -7   1   57.32    5.73
   1  -7   1   62.63    5.95
   1  -7   1   56.84    4.53
   1  -7   1   56.36    4.19
   1  -7   1   59.31    4.16
   1  -7   1   51.37    3.68
   1  -7   2  294.06   12.45
   1  -7   2  334.84   10.76
   1  -7   2  323.37   10.32
   1  -7   2  309.41    9.15
   1  -7   2  320.49    9.72
   1  -7   3  205.43    9.73
   1  -7   3  214.96    8.51
   1  -7   3  216.39    8.55
   1  -7   3  202.80    8.03
   1  -7   4  210.07    9.43
   1  -7   4  222.51    8.59
   1  -7   4  225.90    9.09
   1  -7   4  217.35    8.59
   1  -7   5    6.65    2.27
   1  -7   5    7.35    2.54
   1  -7   5    6.37    2.64
   1  -7   6  142.69    6.91
   1  -7   6  150.42    7.58
   1  -7   6  163.64    7.56
   1  -7   7   16.30    3.30
   1  -7   7   19.32    2.75
   1  -7   7   17.70    3.19
   1  -7   8   22.46    2.97
   1  -7   8   26.39    3.52
   1  -7   9  115.40    5.82
   1  -7   9  117.67    5.82
   1  -7  10   68.64    4.38
   1  -7  10   83.67    4.27
   1  -7  11   66.27    3.87
   1  -7  11   62.53    3.66
   1  -7  12   70.20    3.20
   1  -7  12   64.17    2.98
   1  -6  -9  189.25    4.96
   1  -6  -8   96.18    4.65
   1  -6  -6   63.88    5.75
   1  -6  -6   55.70    3.90
   1  -6  -5    8.27    2.92
   1  -6  -5    5.64    2.14
   1  -6  -4  142.06    8.83
   1  -6  -4  131.89    6.45
   1  -6  -3  516.21   17.33
   1  -6  -3  565.11   13.60
   1  -6  -3  551.17   14.31
   1  -6  -3  566.05   18.28
   1  -6  -2   12.67    3.19
   1  -6  -2   17.01    2.46
   1  -6  -2   19.12    2.78
   1  -6  -2   14.90    3.59
   1  -6  -1  166.06    9.70
   1  -6  -1  158.03    8.34
   1  -6   0  515.90   17.60
   1  -6   0  504.96   15.01
   1  -6   1  341.39   13.65
   1  -6   1  348.40   11.33
   1  -6   2  225.33   10.51
   1  -6   3  113.29    7.14
   1  -6   3  113.06    6.84
   1  -6   4  281.15   10.66
   1  -6   4  299.00   10.51
   1  -6   5  199.22    8.73
   1  -6   6  565.44   16.29
   1  -6   6  552.60   13.62
   1  -6   6  580.89   15.14
   1  -6   6  571.92   14.18
   1  -6   7  132.55    7.39
   1  -6   7  144.61    7.18
   1  -6   7  132.68    6.34
   1  -6   7  142.63    6.59
   1  -6   8  132.32    6.52
   1  -6   8  158.39    6.87
   1  -6   9   22.80    2.96
   1  -6   9   21.25    2.75
   1  -6  10  372.76   11.50
   1  -6  11    3.69    2.00
   1  -6  11    7.34    2.00
   1  -6  12   48.36    3.53
   1  -6  13  210.70    5.55
   1  -6  13  203.84    5.29
   1  -5 -10  210.48    5.14
   1  -5  -7   40.09    5.07
   1  -5  -6  155.23    9.67
   1  -5  -6  152.16    6.33
   1  -5  -6  143.92    9.00
   1  -5  -5 1101.28   28.61
   1  -5  -5 1098.33   21.62
   1  -5  -5 1101.88   28.03
   1  -5  -4   14.63    2.88
   1  -5  -4   16.08    3.37
   1  -5  -4   24.63    4.18
   1  -5  -3   18.47    3.24
   1  -5  -3   22.13    3.59
   1  -5  -3   19.10    3.62
   1  -5  -2  206.74   10.11
   1  -5  -2  199.31    9.27
   1  -5  -1  149.33    8.53
   1  -5  -1  144.78    7.39
   1  -5   0  433.19   14.65
   1  -5   0  405.78   12.27
   1  -5   1  628.48   17.81
   1  -5   1  641.79   15.52
   1  -5   2 1116.08   22.43
   1  -5   2 1130.16   25.28
   1  -5   3  115.07    6.32
   1  -5   3  111.24    6.05
   1  -5   4  370.56   11.30
   1  -5   4  379.77   12.05
   1  -5   5   54.12    4.51
   1  -5   6  708.02   19.13
   1  -5   7  433.39   14.91
   1  -5   8  236.36    7.62
   1  -5   8  225.60   10.45
   1  -5   8  225.16    8.46
   1  -5   8  239.76    7.49
   1  -5   9  530.54   13.31
   1  -5   9  503.43   14.09
   1  -5  10   39.93    4.34
   1  -5  10   47.31    3.78
   1  -5  10   49.73    4.32
   1  -5  11   74.97    5.52
   1  -5  11   85.57    5.23
   1  -5  12   96.98    5.49
   1  -5  12   91.23    4.35
   1  -5  12  101.11    5.11
   1  -5  13  131.53    4.14
   1  -5  13  136.07    4.83
   1  -4  -9   49.87    5.12
   1  -4  -8  106.24    7.93
   1  -4  -8  107.91    7.62
   1  -4  -7   13.10    3.53
   1  -4  -7   13.36    3.09
   1  -4  -7   16.93    3.67
   1  -4  -6  125.63    8.76
   1  -4  -6  127.83    8.05
   1  -4  -6  123.66    8.42
   1  -4  -5  150.98    9.18
   1  -4  -5  154.63    8.37
   1  -4  -5  167.78    9.35
   1  -4  -5  157.80    8.13
   1  -4  -4  540.51   16.97
   1  -4  -4  568.84   16.16
   1  -4  -4  575.93   16.53
   1  -4  -4  549.70   17.17
   1  -4  -3   63.93    5.10
   1  -4  -3   51.89    4.74
   1  -4  -3   68.27    5.31
   1  -4  -3   63.65    4.63
   1  -4  -2  913.62   20.72
   1  -4  -2  912.70   20.95
   1  -4  -2  931.65   22.12
   1  -4  -2  912.09   19.61
   1  -4  -1 1150.97   23.15
   1  -4  -1 1145.61   25.11
   1  -4   0  330.09    9.73
   1  -4   0  332.29   11.12
   1  -4   1   25.08    2.98
   1  -4   1   37.16    3.07
   1  -4   2  115.44    4.99
   1  -4   2  117.58    5.79
   1  -4   3  541.03   12.17
   1  -4   3  547.42   13.27
   1  -4   3  566.57   13.25
   1  -4   4  784.12   16.19
   1  -4   4  798.90   16.41
   1  -4   4  799.98   18.90
   1  -4   5    1.89    1.48
   1  -4   6  179.97    8.76
   1  -4   7   98.92    6.74
   1  -4   8  292.74    9.27
   1  -4   8  277.56   11.99
   1  -4   9  398.81   11.71
   1  -4   9  400.45   11.11
   1  -4   9  402.83   11.98
   1  -4  10  108.67    6.77
   1  -4  10  122.41    6.31
   1  -4  10  115.69    6.42
   1  -4  11  168.32    8.30
   1  -4  12   24.85    3.51
   1  -4  12   22.45    2.86
   1  -4  13  254.11    7.06
   1  -4  13  252.16    7.38
   1  -3 -10   48.34    4.90
   1  -3  -9    5.87    2.84
   1  -3  -9    6.64    2.55
   1  -3  -8 1078.80   28.94
   1  -3  -8 1112.92   28.07
   1  -3  -8 1081.08   27.87
   1  -3  -7   71.50    6.66
   1  -3  -7   82.73    6.74
   1  -3  -7   75.40    6.60
   1  -3  -6  129.01    6.76
   1  -3  -6  133.30    8.09
   1  -3  -6  128.67    8.16
   1  -3  -5   49.85    4.09
   1  -3  -5   48.32    4.63
   1  -3  -5   50.82    4.23
   1  -3  -5   45.16    4.70
   1  -3  -4  198.61    7.56
   1  -3  -4  194.30    8.40
   1  -3  -4  200.25    8.87
   1  -3  -4  204.47    8.27
   1  -3  -3  164.23    7.08
   1  -3  -3  153.38    6.11
   1  -3  -3  158.25    6.87
   1  -3  -3  162.06    7.14
   1  -3  -3  163.62    7.27
   1  -3  -2  278.03    8.59
   1  -3  -2  262.21    8.29
   1  -3  -2  284.99    9.04
   1  -3  -2  278.80    9.28
   1  -3  -1 1456.64   26.17
   1  -3  -1 1471.81   27.47
   1  -3  -1 1422.48   25.19
   1  -3   0  329.54    8.43
   1  -3   0  340.62    9.61
   1  -3   1  173.52    5.55
   1  -3   1  163.18    6.02
   1  -3   2  535.31   11.78
   1  -3   2  533.34   11.43
   1  -3   3    6.66    1.28
   1  -3   3    5.00    1.09
   1  -3   3    6.71    1.26
   1  -3   4 1028.06   19.44
   1  -3   4 1032.40   17.87
   1  -3   4 1036.88   21.82
   1  -3   5   83.24    5.39
   1  -3   6  810.75   20.69
   1  -3   7  148.10    8.32
   1  -3   8  347.19   13.44
   1  -3   9   66.28    4.69
   1  -3   9   69.56    5.32
   1  -3   9   61.37    4.42
   1  -3   9   68.08    5.96
   1  -3  10   76.07    5.24
   1  -3  10   75.10    5.81
   1  -3  10   74.89    5.23
   1  -3  11  292.16   11.11
   1  -3  11  287.38   10.30
   1  -3  12   48.90    4.56
   1  -3  12   46.76    3.89
   1  -3  12   49.73    4.03
   1  -3  13   20.09    2.23
   1  -3  13   24.78    2.47
   1  -2 -10  213.86   10.65
   1  -2  -9  140.64    8.78
   1  -2  -9  143.08    8.72
   1  -2  -9  132.42    8.93
   1  -2  -8 1133.08   28.05
   1  -2  -8 1059.31   27.50
   1  -2  -7   44.82    4.93
   1  -2  -7   46.32    4.96
   1  -2  -7   43.60    3.86
   1  -2  -6  504.31   15.70
   1  -2  -6  486.46   15.41
   1  -2  -6  471.69   12.78
   1  -2  -5  513.39   12.88
   1  -2  -5  503.37   14.69
   1  -2  -5  511.19   12.40
   1  -2  -4  396.16   10.81
   1  -2  -4  412.48   11.84
   1  -2  -4  415.10    9.91
   1  -2  -3   83.79    4.50
   1  -2  -3   91.59    4.53
   1  -2  -3   82.62    4.46
   1  -2  -3   89.26    3.65
   1  -2  -2 2262.24   36.57
   1  -2  -2 2253.34   37.04
   1  -2  -2 2287.68   36.55
   1  -2  -1  875.33    9.98
   1  -2  -1  910.19   11.53
   1  -2   0 3257.90   49.38
   1  -2   1 7340.15  105.40
   1  -2   1 7337.10  105.43
   1  -2   2 5998.65   86.01
   1  -2   3   78.80    2.46
   1  -2   3   74.24    2.30
   1  -2   4 2460.89   36.12
   1  -2   4 2632.19   42.35
   1  -2   5   75.42    5.02
   1  -2   6  165.78    8.06
   1  -2   7  574.28   17.29
   1  -2   8   20.40    3.43
   1  -2   9  240.84    8.83
   1  -2   9  236.70    9.61
   1  -2   9  235.18   10.99
   1  -2   9  243.06    8.81
   1  -2   9  226.60    7.93
   1  -2  10   63.17    4.79
   1  -2  10   64.93    5.64
   1  -2  10   57.88    4.65
   1  -2  10   57.27    4.27
   1  -2  11  256.81   10.37
   1  -2  11  246.40    9.51
   1  -2  11  237.59    8.42
   1  -2  12  319.19   10.22
   1  -2  12  327.92   10.18
   1  -2  12  316.64    8.97
   1  -2  13   67.84    3.64
   1  -2  13   66.52    3.57
   1  -2  13   56.35    2.65
   1  -1 -11  268.36   10.62
   1  -1 -10  954.82   23.68
   1  -1  -9  283.24   12.47
   1  -1  -9  276.14   12.07
   1  -1  -8  210.93   10.45
   1  -1  -8  199.19    9.37
   1  -1  -8  203.26    9.88
   1  -1  -7  813.59   20.08
   1  -1  -7  772.02   20.34
   1  -1  -7  785.91   17.63
   1  -1  -6  748.08   17.90
   1  -1  -5  626.33   14.91
   1  -1  -5  606.47   12.79
   1  -1  -4 1285.77   23.44
   1  -1  -4 1296.62   21.57
   1  -1  -4 1326.62   22.85
   1  -1  -3 1259.70   21.30
   1  -1  -3 1235.87   21.47
   1  -1  -2 9999.00  142.27
   1  -1  -1 2852.45   42.47
   1  -1   0    0.54    0.70
   1  -1   1 1900.55   27.88
   1  -1   3 1080.41   19.92
   1  -1   4 1736.18   30.73
   1  -1   5  309.96   10.15
   1  -1   6 2674.17   47.55
   1  -1   7  151.53    8.09
   1  -1   8  136.00    7.90
   1  -1   9  348.64   11.08
   1  -1   9  340.06   11.72
   1  -1   9  333.71   12.77
   1  -1   9  344.24   10.78
   1  -1   9  353.12   10.95
   1  -1   9  352.48   10.95
   1  -1  10   13.65    3.50
   1  -1  10   13.99    2.86
   1  -1  10   18.68    3.08
   1  -1  10   12.68    2.77
   1  -1  11  172.43    7.71
   1  -1  11  185.27    7.89
   1  -1  11  179.58    7.63
   1  -1  12  471.11   12.24
   1  -1  12  464.65   12.14
   1  -1  12  457.24   11.74
   1  -1  13  162.44    5.06
   1  -1  13  137.94    4.53
   1   0 -11  236.21    9.71
   1   0 -10  178.57    9.21
   1   0 -10  163.35    8.24
   1   0  -9  321.76   12.96
   1   0  -9  317.33   11.66
   1   0  -9  303.21   11.91
   1   0  -8  278.02   10.60
   1   0  -7  721.04   17.49
   1   0  -7  689.98   16.86
   1   0  -6  101.02    5.18
   1   0  -5  675.83   13.11
   1   0  -4  117.65    4.00
   1   0  -3 1053.23   17.68
   1   0  -2 1366.82   21.37
   1   0   1  818.58   12.53
   1   0   1  801.41   13.11
   1   0   2  248.90    6.07
   1   0   2  236.94    5.45
   1   0   2  237.61    5.91
   1   0   3   89.70    3.67
   1   0   3   89.84    3.92
   1   0   4  571.07   12.88
   1   0   4  574.44   13.28
   1   0   5  831.31   18.13
   1   0   5  828.67   18.55
   1   0   6  522.58   14.14
   1   0   6  513.68   14.63
   1   0   7  489.83   14.96
   1   0   8   10.19    2.72
   1   0   8    9.59    2.03
   1   0   8   13.11    2.79
   1   0   8    6.21    1.98
   1   0   8    2.67    2.02
   1   0   8    9.00    2.14
   1   0   9   82.32    4.63
   1   0   9   83.84    5.17
   1   0   9   83.01    5.42
   1   0   9   83.11    5.52
   1   0  10  369.90   10.27
   1   0  10  362.72   11.39
   1   0  10  376.56   11.72
   1   0  10  367.56   11.94
   1   0  10  348.02   11.66
   1   0  11   -0.26    1.87
   1   0  11    1.44    2.16
   1   0  11    2.68    2.09
   1   0  12   98.49    4.50
   1   0  12   92.27    4.78
   1   0  13   14.24    1.47
   1   1 -10  539.09   16.11
   1   1  -9   42.61    4.00
   1   1  -9   40.95    4.11
   1   1  -8  862.57   21.21
   1   1  -7  190.74    6.75
   1   1  -6   91.55    4.44
   1   1  -5   86.59    4.13
   1   1  -4  251.62    7.02
   1   1  -3  358.07    8.32
   1   1  -2 7512.67  104.82
   1   1  -2 7390.12  107.25
   1   1  -2 7395.32  106.76
   1   1  -1  153.10    4.14
   1   1   0 8394.16  119.47
   1   1   1  143.20    4.13
   1   1   1  141.82    3.32
   1   1   2  708.44   13.07
   1   1   2  715.82   12.94
   1   1   2  700.25   12.65
   1   1   3   96.53    4.21
   1   1   3  103.04    4.12
   1   1   3   91.09    4.27
   1   1   4 2609.23   42.66
   1   1   4 2591.83   42.43
   1   1   4 2583.30   42.96
   1   1   5   51.30    3.81
   1   1   5   49.26    3.75
   1   1   5   43.08    3.76
   1   1   6   27.73    3.09
   1   1   6   31.25    3.37
   1   1   7   62.84    4.82
   1   1   7   63.47    4.98
   1   1   8  319.03    9.53
   1   1   8  338.64    9.85
   1   1   8  334.71   10.28
   1   1   8  335.45   10.81
   1   1   8  325.91   11.13
   1   1   9   25.17    2.89
   1   1   9   28.04    3.37
   1   1   9   24.40    3.05
   1   1   9   30.12    3.78
   1   1   9   26.52    3.62
   1   1  10  647.72   14.56
   1   1  10  653.56   15.40
   1   1  10  611.02   16.71
   1   1  10  635.00   16.63
   1   1  11   49.87    3.39
   1   1  11   54.06    4.16
   1   1  11   51.73    4.14
   1   1  12   37.67    2.77
   1   2  -9    6.44    2.24
   1   2  -9    5.84    2.21
   1   2  -9    5.55    1.96
   1   2  -8  552.73   15.87
   1   2  -8  580.76   15.58
   1   2  -7    4.93    1.77
   1   2  -7    8.87    1.70
   1   2  -7    6.82    1.89
   1   2  -6 1023.05   20.03
   1   2  -6 1000.39   20.52
   1   2  -5  625.02   13.80
   1   2  -5  601.04   13.53
   1   2  -4 2234.58   38.40
   1   2  -4 2285.46   34.67
   1   2  -4 2319.67   37.60
   1   2  -4 2306.99   36.73
   1   2  -3  281.62    8.09
   1   2  -3  278.00    7.75
   1   2  -3  278.75    7.18
   1   2  -3  276.45    7.37
   1   2  -2 7766.35   34.42
   1   2  -2 7964.81   31.32
   1   2  -1   -0.37    0.63
   1   2   0 1943.39   32.83
   1   2   0 2028.72   31.69
   1   2   0 2013.62   30.73
   1   2   1 1725.16   29.32
   1   2   1 1740.30   29.01
   1   2   2  382.15    9.82
   1   2   3 1214.07   22.96
   1   2   3 1228.43   22.79
   1   2   4   52.36    3.76
   1   2   4   45.65    4.21
   1   2   5  142.68    6.77
   1   2   5  135.55    7.30
   1   2   5  146.79    5.55
   1   2   6   52.04    4.31
   1   2   7  305.76    9.22
   1   2   7  305.48    9.88
   1   2   7  300.49   10.58
   1   2   8   21.65    2.96
   1   2   8   20.41    2.47
   1   2   8   18.43    3.39
   1   2   8   18.06    2.89
   1   2   9  208.92    7.76
   1   2   9  208.81    7.29
   1   2   9  223.72    8.84
   1   2   9  204.63    9.16
   1   2  10    2.07    1.58
   1   2  10    0.39    2.10
   1   2  10    3.71    2.10
   1   2  11    1.80    1.65
   1   2  11    0.58    1.72
   1   2  12   16.97    1.43
   1   3  -9   67.95    5.20
   1   3  -9   68.45    5.68
   1   3  -9   63.66    5.43
   1   3  -8  347.23   13.00
   1   3  -8  335.68   12.06
   1   3  -7  621.53   15.40
   1   3  -7  624.17   17.18
   1   3  -7  638.33   15.13
   1   3  -7  639.42   15.06
   1   3  -6  210.66    8.81
   1   3  -6  207.24    7.70
   1   3  -6  209.97    7.74
   1   3  -6  205.73    7.28
   1   3  -5  384.60   11.82
   1   3  -5  388.70   10.96
   1   3  -5  399.02   10.61
   1   3  -5  362.67    7.90
   1   3  -4  584.22   14.79
   1   3  -4  587.06   14.24
   1   3  -4  583.71   13.45
   1   3  -3 1810.06   32.02
   1   3  -3 1776.03   30.94
   1   3  -2 2163.63   33.04
   1   3  -2 2220.84   36.61
   1   3  -2 2165.25   36.53
   1   3  -1 1380.05   24.13
   1   3  -1 1341.21   25.81
   1   3  -1 1339.64   22.63
   1   3   0  257.47    5.19
   1   3   0  262.07    8.82
   1   3   1  115.48    5.81
   1   3   2  506.02   13.63
   1   3   3  553.33   14.44
   1   3   4  346.88   11.20
   1   3   4  366.92   13.29
   1   3   5  187.29    8.01
   1   3   5  183.10    9.75
   1   3   6 1210.67   25.32
   1   3   6 1189.90   22.79
   1   3   7  189.68    7.73
   1   3   7  172.16    7.34
   1   3   7  188.65    8.67
   1   3   8  466.45   12.70
   1   3   8  460.33   12.88
   1   3   8  472.46   14.59
   1   3   9   73.32    4.26
   1   3   9   78.34    4.72
   1   3   9   77.72    5.48
   1   3  10  203.96    5.66
   1   3  10  205.39    6.66
   1   3  10  202.98    7.58
   1   3  11   54.13    2.34
   1   4 -11  611.49   16.79
   1   4 -10  122.12    7.35
   1   4  -9  232.38   10.90
   1   4  -9  214.75   10.39
   1   4  -8  415.09   14.57
   1   4  -8  389.99   13.78
   1   4  -8  394.16   14.56
   1   4  -7  593.97   17.61
   1   4  -7  582.39   17.27
   1   4  -7  591.27   18.01
   1   4  -7  584.96   15.11
   1   4  -6   21.23    2.85
   1   4  -6   16.39    3.07
   1   4  -6   18.56    1.85
   1   4  -5  185.72    5.92
   1   4  -5  191.95    9.09
   1   4  -5  186.38    7.60
   1   4  -4  493.92   10.95
   1   4  -4  485.17   14.42
   1   4  -4  493.01   13.31
   1   4  -3  452.47   10.33
   1   4  -3  457.44   13.48
   1   4  -3  429.44   13.11
   1   4  -2  557.53   12.51
   1   4  -2  563.42   14.65
   1   4  -2  566.31   15.48
   1   4  -2  575.11   12.24
   1   4  -1  349.98   11.86
   1   4  -1  352.63    9.02
   1   4   0   34.06    3.79
   1   4   1  928.38   21.93
   1   4   2  105.86    6.42
   1   4   2  121.72    5.19
   1   4   3  141.51    8.78
   1   4   4  182.53   10.36
   1   4   5  191.94   10.70
   1   4   5  213.05    8.78
   1   4   6  574.03   16.10
   1   4   7  258.63    9.18
   1   4   7  267.89    8.43
   1   4   7  265.34   10.40
   1   4   8  125.98    5.74
   1   4   8  128.71    5.44
   1   4   8  124.10    6.76
   1   4   9   10.73    1.67
   1   4   9    6.54    2.11
   1   4   9    5.49    1.36
   1   4  10  226.40    6.23
   1   5 -11   90.82    6.27
   1   5 -11  103.61    6.49
   1   5 -10  235.97   10.46
   1   5  -9  350.62   13.93
   1   5  -8  261.10   11.55
   1   5  -8  239.38   11.77
   1   5  -7  371.09   13.54
   1   5  -7  355.33   14.34
   1   5  -6  132.46    7.47
   1   5  -6  130.26    8.37
   1   5  -6  132.32    5.45
   1   5  -6  133.84    7.27
   1   5  -5    2.42    1.63
   1   5  -5    0.90    1.57
   1   5  -5    2.76    1.37
   1   5  -5    3.78    2.28
   1   5  -4  487.05   13.44
   1   5  -4  476.39   14.93
   1   5  -4  467.22   15.47
   1   5  -4  469.76   11.91
   1   5  -3  576.45   13.73
   1   5  -3  542.00   16.49
   1   5  -3  517.46   16.07
   1   5  -3  553.37   13.32
   1   5  -2  201.91    9.54
   1   5  -2  219.78    8.13
   1   5  -1   89.65    6.44
   1   5   0   92.82    6.64
   1   5   1  167.80    8.85
   1   5   2   13.54    3.21
   1   5   3  126.40    9.00
   1   5   3  119.08    5.47
   1   5   3  131.63    6.37
   1   5   4  685.71   22.08
   1   5   4  691.44   17.42
   1   5   5   25.49    4.45
   1   5   5   30.43    3.81
   1   5   6  110.69    6.48
   1   5   7  161.83    6.44
   1   5   7  156.46    7.12
   1   5   8  121.48    4.59
   1   5   8  132.49    5.63
   1   5   9   37.23    2.27
   1   6 -11   93.11    5.98
   1   6 -10  190.27    9.99
   1   6 -10  179.31    9.69
   1   6  -9  342.25   14.47
   1   6  -9  360.11   14.27
   1   6  -8  340.61   14.30
   1   6  -7  173.25   10.24
   1   6  -7  183.25    8.92
   1   6  -6  289.81   11.19
   1   6  -6  282.49   13.18
   1   6  -6  317.53   11.47
   1   6  -5  104.41    6.98
   1   6  -5   99.98    5.88
   1   6  -4   40.01    4.30
   1   6  -4   41.83    4.55
   1   6  -3  414.70   13.26
   1   6  -3  415.61   13.76
   1   6  -3  427.90   15.04
   1   6  -2  366.72   11.99
   1   6  -2  350.44   13.69
   1   6  -1   95.25    7.06
   1   6  -1   90.35    5.35
   1   6   0  168.00    9.54
   1   6   0  180.13    7.61
   1   6   1   80.19    6.44
   1   6   1   90.57    5.49
   1   6   2   77.92    7.31
   1   6   2   93.30    5.47
   1   6   2   79.93    5.21
   1   6   3  171.84   10.38
   1   6   3  173.69    7.31
   1   6   3  167.10    7.57
   1   6   4  113.46    8.04
   1   6   4  104.75    5.10
   1   6   5  100.25    5.75
   1   6   6  255.26    8.21
   1   6   6  266.64    8.52
   1   6   7    9.89    1.51
   1   6   7    9.58    1.70
   1   7 -10   74.85    5.84
   1   7  -9   52.56    5.45
   1   7  -9   47.12    5.15
   1   7  -8  291.57   13.52
   1   7  -8  349.52   13.96
   1   7  -7  310.07   13.82
   1   7  -7  291.00   12.94
   1   7  -7  275.57    9.28
   1   7  -6  104.38    7.83
   1   7  -6  108.26    7.51
   1   7  -6   95.87    5.66
   1   7  -5  210.48   10.65
   1   7  -5  201.93    9.92
   1   7  -5  203.80    8.39
   1   7  -4   91.50    6.81
   1   7  -4   82.24    5.79
   1   7  -4   75.48    5.31
   1   7  -3   39.28    4.12
   1   7  -3   38.99    4.05
   1   7  -2  941.40   21.67
   1   7  -1  461.67   13.77
   1   7  -1  446.75   11.96
   1   7   0  101.48    7.93
   1   7   0   96.73    6.16
   1   7   1   59.37    6.11
   1   7   1   58.03    4.69
   1   7   1   52.10    4.06
   1   7   2  101.70    7.73
   1   7   2   96.85    5.67
   1   7   2   97.10    5.34
   1   7   3   39.23    3.31
   1   7   3   35.38    3.32
   1   7   4  304.84    7.93
   1   7   4  284.12    8.50
   1   7   5   10.83    1.80
   1   7   5    9.04    1.68
   1   7   6    1.26    0.87
   1   8 -11   40.94    1.94
   1   8  -9   48.28    4.59
   1   8  -8  144.83    8.14
   1   8  -7  114.83    7.39
   1   8  -7  114.72    6.76
   1   8  -7  109.00    5.41
   1   8  -6   72.49    6.01
   1   8  -6   59.21    4.84
   1   8  -6   59.88    4.48
   1   8  -5   73.48    5.84
   1   8  -5   65.22    4.89
   1   8  -4  299.74   10.83
   1   8  -3  470.54   14.16
   1   8  -2   93.95    6.62
   1   8  -2   87.32    6.02
   1   8  -2   93.12    5.18
   1   8  -1  271.62   11.28
   1   8  -1  275.99   10.29
   1   8  -1  270.26    8.30
   1   8   0  127.43    6.72
   1   8   1   27.05    3.13
   1   8   2   54.97    3.58
   1   8   3  124.54    4.32
   1   8   4   24.16    1.90
   1   9 -10  138.02    3.72
   1   9  -9   68.55    3.40
   1   9  -8   56.12    3.63
   1   9  -7  153.06    5.40
   1   9  -7  161.44    6.49
   1   9  -6   13.92    2.26
   1   9  -6   18.02    2.72
   1   9  -5   77.87    4.61
   1   9  -5   75.80    4.62
   1   9  -4   15.07    2.69
   1   9  -4   19.18    2.67
   1   9  -3  172.34    7.25
   1   9  -3  174.12    6.27
   1   9  -2   39.33    3.59
   1   9  -2   43.04    2.77
   1   9  -1   17.40    2.54
   1   9   0   55.29    3.45
   1   9   1   69.18    3.18
   1  10  -7   16.90    1.51
   1  10  -6    3.74    0.84
   1  10  -6    6.40    1.20
   1  10  -5   24.68    1.84
   1  10  -5   24.75    1.80
   1  10  -4   94.40    3.52
   1  10  -4   91.68    2.87
   1  10  -3   18.48    1.75
   1  10  -2  105.94    3.49
   2 -10  -1   14.98    1.49
   2 -10  -1   18.75    1.43
   2 -10   0   63.58    3.21
   2 -10   0   61.79    2.74
   2 -10   1   23.83    2.33
   2 -10   1   21.55    1.78
   2 -10   2  166.58    6.05
   2 -10   2  149.29    4.33
   2 -10   3   33.46    2.90
   2 -10   4    0.59    1.35
   2 -10   5  249.91    6.43
   2 -10   5  257.84    7.52
   2 -10   6   63.90    2.78
   2 -10   6   73.84    3.70
   2 -10   7    4.60    0.91
   2 -10   7    5.43    1.44
   2 -10   8  131.43    3.94
   2  -9  -4   31.08    2.06
   2  -9  -3  106.48    4.06
   2  -9  -3   98.62    4.07
   2  -9  -2   79.07    4.17
   2  -9  -2   77.77    3.85
   2  -9  -1   84.00    4.75
   2  -9  -1   91.24    4.22
   2  -9   0  125.57    6.13
   2  -9   0  113.16    4.70
   2  -9   1  174.86    7.69
   2  -9   2  144.73    7.10
   2  -9   2  131.12    5.90
   2  -9   2  133.56    6.04
   2  -9   3  256.77    9.56
   2  -9   3  260.67    8.80
   2  -9   3  252.89    8.04
   2  -9   3  246.73    8.83
   2  -9   4  245.26    9.29
   2  -9   4  236.44    8.79
   2  -9   4  239.92    8.89
   2  -9   5  416.43   12.35
   2  -9   6   79.54    4.44
   2  -9   6   79.56    5.14
   2  -9   7   48.45    3.31
   2  -9   7   46.06    3.83
   2  -9   8  168.92    5.80
   2  -9   8  167.16    6.21
   2  -9   9   18.61    1.74
   2  -9   9   19.15    1.83
   2  -9  10  111.27    3.19
   2  -8  -6   16.73    1.88
   2  -8  -6   16.71    1.58
   2  -8  -5  104.22    4.97
   2  -8  -4   99.36    4.64
   2  -8  -4  105.75    5.68
   2  -8  -3   21.95    2.81
   2  -8  -3   25.21    3.38
   2  -8  -2  279.82    9.78
   2  -8  -2  300.39   10.46
   2  -8  -1  103.80    6.15
   2  -8  -1  108.87    6.20
   2  -8   0  319.39   11.06
   2  -8   0  336.87   10.94
   2  -8   0  308.76    9.34
   2  -8   1   75.77    5.51
   2  -8   1   83.01    4.52
   2  -8   1   85.26    4.84
   2  -8   1   76.22    4.97
   2  -8   2   68.44    5.19
   2  -8   2   66.88    4.82
   2  -8   2   68.57    4.85
   2  -8   3   50.64    4.60
   2  -8   3   53.35    4.48
   2  -8   3   47.52    4.43
   2  -8   4  342.80   11.58
   2  -8   4  320.52   11.17
   2  -8   4  332.55    9.98
   2  -8   4  319.17   11.17
   2  -8   5   55.29    4.75
   2  -8   5   55.60    4.97
   2  -8   5   54.14    4.94
   2  -8   6   42.32    4.33
   2  -8   7   71.72    4.77
   2  -8   7   61.58    4.76
   2  -8   8  393.44   11.29
   2  -8   8  378.41   11.16
   2  -8   9  140.86    5.93
   2  -8   9  142.82    5.54
   2  -8  10   20.37    2.18
   2  -8  11   38.70    2.18
   2  -7  -8   45.83    2.34
   2  -7  -7   40.41    3.09
   2  -7  -6   46.90    3.91
   2  -7  -5   19.72    3.46
   2  -7  -5   19.73    2.56
   2  -7  -5   22.10    3.25
   2  -7  -4  565.34   17.91
   2  -7  -4  571.32   14.21
   2  -7  -4  591.46   16.02
   2  -7  -3  112.66    7.30
   2  -7  -3  105.81    5.72
   2  -7  -3  111.49    6.42
   2  -7  -2  215.66   10.23
   2  -7  -2  208.27    8.35
   2  -7  -2  211.87    8.76
   2  -7  -1  187.07    9.32
   2  -7  -1  179.56    7.69
   2  -7  -1  177.69    7.88
   2  -7   0  110.60    7.94
   2  -7   0  108.57    6.89
   2  -7   0  103.17    5.82
   2  -7   0  107.39    5.92
   2  -7   0  100.76    5.10
   2  -7   1  118.72    8.08
   2  -7   1  123.14    6.40
   2  -7   1  124.88    5.57
   2  -7   1  132.56    6.25
   2  -7   1  122.30    5.94
   2  -7   2   83.65    6.49
   2  -7   2   78.12    5.90
   2  -7   2   76.42    5.15
   2  -7   2   85.33    4.85
   2  -7   2   91.71    5.33
   2  -7   3  235.31   10.21
   2  -7   3  224.44    9.56
   2  -7   3  245.84    9.12
   2  -7   3  246.44    8.88
   2  -7   3  218.53    8.71
   2  -7   4   67.71    4.76
   2  -7   4   68.37    5.01
   2  -7   4   63.89    4.01
   2  -7   4   65.61    4.88
   2  -7   5  125.18    6.53
   2  -7   5  121.02    6.74
   2  -7   5  128.35    5.58
   2  -7   5  130.91    6.77
   2  -7   6  218.44    8.80
   2  -7   7  127.52    6.64
   2  -7   7  137.21    6.71
   2  -7   8  403.66   12.34
   2  -7   8  397.81   11.51
   2  -7   9   51.38    3.78
   2  -7   9   54.64    4.33
   2  -7   9   53.12    3.73
   2  -7  10  155.10    5.89
   2  -7  10  246.43    8.82
   2  -7  11  137.04    4.50
   2  -7  11  145.71    5.53
   2  -7  12  162.39    4.69
   2  -6  -9  239.67    6.07
   2  -6  -8   10.55    2.03
   2  -6  -7   76.13    4.91
   2  -6  -6   96.35    7.42
   2  -6  -5  228.93   11.72
   2  -6  -4  123.32    8.77
   2  -6  -4  135.45    5.98
   2  -6  -3  156.23    9.54
   2  -6  -3  143.29    9.16
   2  -6  -3  151.25    6.20
   2  -6  -2  557.95   18.91
   2  -6  -2  544.91   17.92
   2  -6  -2  554.64   14.12
   2  -6  -1  139.40    8.14
   2  -6  -1  139.41    8.68
   2  -6   0  537.54   17.67
   2  -6   0  513.76   15.85
   2  -6   1    2.75    2.14
   2  -6   1   -0.29    1.93
   2  -6   2  214.47    9.98
   2  -6   3  735.73   18.26
   2  -6   3  718.03   18.84
   2  -6   3  695.34   17.99
   2  -6   4  116.03    6.36
   2  -6   4  117.74    7.23
   2  -6   5  244.98   10.89
   2  -6   5  251.55    9.00
   2  -6   6  436.62   14.87
   2  -6   6  410.02   11.62
   2  -6   7 1692.11   30.07
   2  -6   7 1746.91   32.45
   2  -6   7 1740.92   31.45
   2  -6   8  299.64    9.40
   2  -6   8  298.34   10.51
   2  -6   8  322.21    9.57
   2  -6   9  194.33    7.93
   2  -6   9  196.79    7.53
   2  -6   9  198.95    8.41
   2  -6  10  192.43    7.07
   2  -6  10  188.39    7.49
   2  -6  10  190.37    7.99
   2  -6  11   40.07    3.35
   2  -6  11   38.78    3.46
   2  -6  12  160.73    5.14
   2  -6  12  146.67    4.52
   2  -6  12  161.85    5.54
   2  -6  13   36.04    1.73
   2  -5 -10  152.83    4.18
   2  -5  -9  131.99    5.39
   2  -5  -8  131.81    8.28
   2  -5  -7   51.04    5.81
   2  -5  -6  256.66   12.93
   2  -5  -5   77.15    7.12
   2  -5  -5   64.38    5.58
   2  -5  -4  288.96   13.14
   2  -5  -4  307.78   12.82
   2  -5  -3   23.58    4.05
   2  -5  -3   20.07    3.58
   2  -5  -2   17.16    3.39
   2  -5  -2   18.00    3.32
   2  -5  -1  511.65   15.62
   2  -5  -1  541.13   16.76
   2  -5   0  400.71   13.60
   2  -5   0  374.20   12.66
   2  -5   1  375.47   12.71
   2  -5   1  394.31   12.41
   2  -5   2  202.95    8.62
   2  -5   2  211.00    8.52
   2  -5   3   80.83    5.15
   2  -5   3   75.80    4.90
   2  -5   4  303.71   10.43
   2  -5   5   62.41    4.67
   2  -5   5   54.58    4.98
   2  -5   6   81.76    6.28
   2  -5   7  134.26    5.71
   2  -5   7  127.36    6.12
   2  -5   8    4.38    1.95
   2  -5   8    6.41    2.43
   2  -5   9  156.39    7.46
   2  -5   9  166.17    7.23
   2  -5   9  158.30    7.55
   2  -5  10  252.38    9.49
   2  -5  10  248.39    9.04
   2  -5  10  251.33    9.45
   2  -5  11  104.48    5.70
   2  -5  11   99.79    5.25
   2  -5  11  106.59    5.78
   2  -5  12   57.07    3.74
   2  -5  12   53.28    3.55
   2  -5  13   12.17    1.37
   2  -5  13   10.51    1.22
   2  -4  -9   34.47    4.60
   2  -4  -8  171.10   10.30
   2  -4  -8  167.90    9.69
   2  -4  -7   87.31    7.70
   2  -4  -7   89.47    7.32
   2  -4  -7   98.77    7.30
   2  -4  -6  873.28   24.89
   2  -4  -6  824.02   20.91
   2  -4  -6  860.93   24.32
   2  -4  -6  874.70   23.42
   2  -4  -5  222.38   11.27
   2  -4  -5  237.93   10.44
   2  -4  -5  229.12   11.03
   2  -4  -5  244.13   10.83
   2  -4  -4  313.53   12.45
   2  -4  -4  294.43   11.63
   2  -4  -4  290.95   12.09
   2  -4  -3  371.86   12.88
   2  -4  -3  360.77   12.89
   2  -4  -2  436.49   13.36
   2  -4  -2  425.82   13.77
   2  -4  -1  130.30    6.56
   2  -4  -1  125.70    6.80
   2  -4   0   10.23    2.58
   2  -4   0   15.41    2.68
   2  -4   0   12.87    2.52
   2  -4   1 1427.62   27.84
   2  -4   1 1467.12   27.81
   2  -4   2   89.13    4.75
   2  -4   3 1065.36   21.73
   2  -4   3 1052.57   20.39
   2  -4   4 2285.38   40.18
   2  -4   5  629.25   17.89
   2  -4   6  196.20    9.67
   2  -4   7  105.14    7.21
   2  -4   8  249.57    8.92
   2  -4   8  261.84    9.32
   2  -4   8  243.17    8.92
   2  -4   8  256.92   11.67
   2  -4   9   32.57    3.95
   2  -4   9   41.11    3.82
   2  -4   9   30.35    3.52
   2  -4  10  140.66    6.94
   2  -4  10  132.50    7.26
   2  -4  10  129.38    6.79
   2  -4  11  116.61    6.10
   2  -4  11  127.19    6.75
   2  -4  12  164.94    6.41
   2  -4  13   44.13    2.44
   2  -4  13   49.62    2.59
   2  -3 -10   86.90    6.36
   2  -3  -9  304.09   13.36
   2  -3  -9  316.82   12.92
   2  -3  -8  209.88   11.37
   2  -3  -8  225.25   11.28
   2  -3  -8  210.66   10.83
   2  -3  -7   48.07    5.62
   2  -3  -7   54.66    5.47
   2  -3  -7   52.12    5.50
   2  -3  -6  132.27    8.32
   2  -3  -6  135.65    8.24
   2  -3  -6  136.48    7.15
   2  -3  -6  136.91    8.27
   2  -3  -5  489.39   15.40
   2  -3  -5  471.56   15.10
   2  -3  -5  469.74   14.10
   2  -3  -5  463.27   15.16
   2  -3  -4  301.16   10.82
   2  -3  -4  287.38   10.69
   2  -3  -4  276.87   10.27
   2  -3  -4  292.88   10.85
   2  -3  -3  868.51   19.39
   2  -3  -3  848.05   19.63
   2  -3  -3  823.84   19.53
   2  -3  -3  837.73   19.35
   2  -3  -2 1000.54   20.37
   2  -3  -2  968.16   21.14
   2  -3  -1  664.93   14.85
   2  -3  -1  648.59   15.41
   2  -3   0   14.26    2.11
   2  -3   0   10.04    2.10
   2  -3   1   91.00    4.38
   2  -3   1   93.81    4.69
   2  -3   2  358.39    8.76
   2  -3   3  964.74   19.81
   2  -3   3  987.94   17.25
   2  -3   3  990.31   16.46
   2  -3   4 1542.05   29.07
   2  -3   4 1548.64   30.72
   2  -3   5 1495.00   30.83
   2  -3   6  984.59   24.16
   2  -3   7   12.41    2.80
   2  -3   8  323.84   10.44
   2  -3   8  293.35    9.71
   2  -3   8  282.51    9.46
   2  -3   8  292.27   12.51
   2  -3   9  316.65   11.27
   2  -3   9  309.54   10.60
   2  -3   9  297.56   10.28
   2  -3  10  147.05    7.28
   2  -3  10  158.95    8.10
   2  -3  10  144.17    5.98
   2  -3  11   77.35    5.52
   2  -3  11   69.39    4.84
   2  -3  11   74.93    3.93
   2  -3  12   83.33    4.57
   2  -3  12   76.06    4.38
   2  -3  13    4.42    1.20
   2  -3  13    5.51    1.22
   2  -2 -10  137.55    7.56
   2  -2 -10  142.51    8.58
   2  -2  -9  805.39   23.03
   2  -2  -9  799.45   22.26
   2  -2  -9  801.05   22.88
   2  -2  -8  241.26   11.61
   2  -2  -8  241.03   11.22
   2  -2  -8  248.84   11.63
   2  -2  -7  128.67    8.06
   2  -2  -7  127.33    7.79
   2  -2  -7  131.96    7.95
   2  -2  -6  374.58   13.32
   2  -2  -6  380.77   11.48
   2  -2  -6  333.48   12.21
   2  -2  -6  366.89   12.73
   2  -2  -5   99.48    6.12
   2  -2  -5  103.43    5.60
   2  -2  -5  104.00    6.02
   2  -2  -5   96.45    5.87
   2  -2  -4  196.72    7.97
   2  -2  -4  202.06    7.71
   2  -2  -4  201.70    7.87
   2  -2  -4  199.61    7.56
   2  -2  -3  407.09   11.28
   2  -2  -3  401.03   11.32
   2  -2  -3  428.71   10.91
   2  -2  -2 8162.31  127.87
   2  -2  -2 8775.44  127.12
   2  -2  -1 8646.26  127.49
   2  -2  -1 8751.87  126.40
   2  -2   0    7.15    1.48
   2  -2   0   -0.12    0.70
   2  -2   1 7427.08  107.13
   2  -2   2 7679.96  110.65
   2  -2   2 7902.86  113.28
   2  -2   3 3191.02   45.85
   2  -2   3 3194.24   47.41
   2  -2   3 3212.56   50.93
   2  -2   4  208.72    8.10
   2  -2   5  149.00    7.28
   2  -2   6   33.23    3.77
   2  -2   7  130.25    7.70
   2  -2   8  462.50   12.84
   2  -2   8  508.45   14.01
   2  -2   8  483.06   16.09
   2  -2   8  482.59   12.64
   2  -2   8  476.86   12.08
   2  -2   9  254.57    9.51
   2  -2   9  267.12   10.44
   2  -2   9  265.53    9.17
   2  -2  10  600.45   15.99
   2  -2  10  584.58   16.79
   2  -2  10  605.82   15.57
   2  -2  10  576.63   14.77
   2  -2  11   43.14    3.76
   2  -2  11   41.91    3.44
   2  -2  12   27.19    2.74
   2  -2  12   30.89    2.74
   2  -2  12   28.29    2.36
   2  -2  13   24.07    1.74
   2  -1 -10  320.46   12.75
   2  -1  -9   24.32    3.73
   2  -1  -9   28.90    3.86
   2  -1  -9   28.22    4.14
   2  -1  -8  277.12   11.83
   2  -1  -8  275.42   11.12
   2  -1  -7   82.33    6.00
   2  -1  -7   71.07    5.22
   2  -1  -6  188.34    8.43
   2  -1  -6  187.77    7.09
   2  -1  -6  177.90    7.65
   2  -1  -5  740.81   17.48
   2  -1  -5  714.76   15.93
   2  -1  -5  722.19   16.31
   2  -1  -4 1876.66   33.00
   2  -1  -4 1887.37   32.60
   2  -1  -4 1887.36   31.82
   2  -1  -4 1884.43   31.75
   2  -1  -3   61.11    3.50
   2  -1  -3   53.92    3.42
   2  -1  -3   59.04    3.15
   2  -1  -2 5971.16   88.15
   2  -1  -1 4471.58   65.22
   2  -1  -1 4448.75   65.46
   2  -1   0 2814.48   42.84
   2  -1   1 1972.59   30.24
   2  -1   2 1428.09   21.96
   2  -1   2 1447.84   23.73
   2  -1   2 1437.00   24.69
   2  -1   3  477.70   10.82
   2  -1   3  485.93   11.68
   2  -1   4  218.03    7.84
   2  -1   5  631.26   16.23
   2  -1   6   77.22    5.41
   2  -1   7  398.60   13.55
   2  -1   8  721.58   19.34
   2  -1   8  687.29   16.67
   2  -1   8  720.83   18.14
   2  -1   8  730.46   17.10
   2  -1   8  732.00   16.04
   2  -1   9  588.15   15.50
   2  -1   9  587.57   15.00
   2  -1   9  614.04   15.77
   2  -1   9  604.33   15.08
   2  -1  10   71.09    4.79
   2  -1  10   81.14    5.25
   2  -1  10   77.83    4.91
   2  -1  11   28.57    3.10
   2  -1  11   36.21    3.24
   2  -1  11   35.09    3.36
   2  -1  12  128.78    4.95
   2  -1  12  129.66    5.00
   2   0 -10  313.91   12.16
   2   0  -9   51.81    5.06
   2   0  -8  559.65   16.48
   2   0  -8  548.66   15.01
   2   0  -7   54.04    4.50
   2   0  -7   50.81    3.50
   2   0  -7   48.74    3.83
   2   0  -6 1432.22   28.14
   2   0  -6 1465.58   25.77
   2   0  -6 1458.01   26.40
   2   0  -6 1476.53   26.78
   2   0  -5   22.41    2.51
   2   0  -5   20.71    1.87
   2   0  -5   22.86    2.50
   2   0  -5   24.49    2.23
   2   0  -4  408.28    9.94
   2   0  -4  406.76    7.99
   2   0  -4  409.75    8.87
   2   0  -3  438.85    8.41
   2   0  -3  417.84    9.29
   2   0  -2   20.35    2.77
   2   0  -1  254.18    6.33
   2   0   0 2263.28   34.22
   2   0   1 2342.50   36.02
   2   0   1 2253.34   33.93
   2   0   2  509.69    8.58
   2   0   2  532.79   11.71
   2   0   2  503.94   10.50
   2   0   3  343.54    9.61
   2   0   3  319.80    8.57
   2   0   4  220.36    7.55
   2   0   5  217.42    8.18
   2   0   6  525.21   14.79
   2   0   7   43.05    4.17
   2   0   8   17.65    2.70
   2   0   8   15.20    2.45
   2   0   8   14.39    2.88
   2   0   8   19.42    2.98
   2   0   9  181.37    7.39
   2   0   9  183.06    8.29
   2   0   9  178.81    7.86
   2   0  10   52.74    4.00
   2   0  10   53.74    4.07
   2   0  10   59.21    4.69
   2   0  10   56.78    4.40
   2   0  11   28.72    2.67
   2   0  11   25.21    2.97
   2   0  12  190.01    5.80
   2   1 -10  116.01    7.25
   2   1  -9  257.44   10.01
   2   1  -9  218.18   10.35
   2   1  -8   93.55    5.78
   2   1  -8   91.60    5.40
   2   1  -7  168.86    7.15
   2   1  -7  173.39    7.41
   2   1  -6  214.22    7.27
   2   1  -6  221.42    7.24
   2   1  -6  202.55    7.94
   2   1  -5  437.24   10.26
   2   1  -5  439.68   11.88
   2   1  -5  419.49   11.95
   2   1  -4  253.85    6.44
   2   1  -4  244.89    8.02
   2   1  -4  246.54    7.24
   2   1  -4  252.15    8.10
   2   1  -3   68.20    3.41
   2   1  -3   71.92    3.88
   2   1  -3   68.95    3.76
   2   1  -2 4832.84   69.91
   2   1  -2 4523.93   70.43
   2   1  -1  399.17    8.80
   2   1  -1  418.72    9.11
   2   1  -1  401.02    9.52
   2   1   0 1168.79   20.33
   2   1   0 1181.54   20.11
   2   1   1  743.79   11.99
   2   1   1  736.82   15.43
   2   1   1  736.55   11.95
   2   1   2  558.74   11.13
   2   1   2  551.45   10.37
   2   1   2  566.23   13.56
   2   1   2  545.11   10.57
   2   1   3  243.90    6.64
   2   1   3  243.92    6.21
   2   1   3  250.92    6.94
   2   1   4    6.89    1.62
   2   1   4    4.43    1.42
   2   1   4    6.28    1.88
   2   1   5  208.69    7.66
   2   1   5  199.37    7.70
   2   1   5  209.52    6.49
   2   1   6  356.64    9.72
   2   1   7  635.72   14.05
   2   1   7  676.64   16.33
   2   1   7  633.39   16.12
   2   1   8   82.21    4.59
   2   1   8   81.90    4.81
   2   1   8   95.64    5.81
   2   1   8   85.48    5.71
   2   1   9  195.96    7.21
   2   1   9  200.61    8.57
   2   1   9  201.80    8.64
   2   1  10   86.65    4.28
   2   1  10   86.34    5.33
   2   1  10   87.17    5.27
   2   1  11   13.06    2.05
   2   1  12   58.13    2.46
   2   2 -10  708.66   18.96
   2   2  -9   40.74    4.47
   2   2  -9   44.32    4.51
   2   2  -8  245.17   10.77
   2   2  -8  258.70    9.46
   2   2  -8  259.78   10.33
   2   2  -7  274.84    9.80
   2   2  -7  285.67    9.17
   2   2  -7  274.97   10.24
   2   2  -6 2207.69   39.13
   2   2  -6 2155.64   39.00
   2   2  -6 2164.33   36.77
   2   2  -5   27.03    3.20
   2   2  -5   24.74    2.87
   2   2  -5   24.03    2.51
   2   2  -5   25.75    3.05
   2   2  -4 1340.05   23.03
   2   2  -4 1317.55   25.77
   2   2  -4 1300.79   24.83
   2   2  -4 1295.22   25.55
   2   2  -4 1298.21   24.94
   2   2  -3  399.26   10.80
   2   2  -3  391.19   10.35
   2   2  -3  372.25   10.71
   2   2  -2 1694.67   29.16
   2   2  -2 1625.73   29.66
   2   2  -2 1668.55   28.96
   2   2  -1   60.86    3.77
   2   2  -1   64.01    3.50
   2   2  -1   59.38    3.66
   2   2   0  220.90    7.27
   2   2   0  212.40    5.37
   2   2   1  224.98    7.34
   2   2   1  215.80    7.80
   2   2   2 3432.43   52.46
   2   2   2 3461.86   54.29
   2   2   2 3467.21   57.15
   2   2   3  140.28    5.18
   2   2   3  121.79    5.30
   2   2   4   97.36    4.63
   2   2   4  102.76    6.06
   2   2   5  284.91   10.89
   2   2   5  281.60    8.88
   2   2   6  374.39   10.62
   2   2   6  349.78   11.42
   2   2   6  388.18   10.92
   2   2   7   90.35    5.46
   2   2   7   92.72    6.04
   2   2   8  794.46   18.85
   2   2   8  775.53   19.65
   2   2   9   22.35    3.43
   2   2   9   20.51    2.96
   2   2  10  140.89    5.80
   2   2  10  135.19    6.05
   2   2  11   15.80    1.69
   2   3 -10  297.84   11.59
   2   3  -9  210.18   10.20
   2   3  -9  198.60    9.31
   2   3  -8  192.18    9.56
   2   3  -8  173.77    7.86
   2   3  -8  187.72    8.41
   2   3  -8  178.21    8.52
   2   3  -7  215.90   10.03
   2   3  -7  227.19    9.41
   2   3  -7  228.34    9.25
   2   3  -6  282.77   11.29
   2   3  -6  304.79   10.76
   2   3  -6  299.83   10.60
   2   3  -5  838.29   20.86
   2   3  -5  875.33   20.23
   2   3  -5  841.71   19.81
   2   3  -4 2908.79   50.03
   2   3  -4 2901.59   49.74
   2   3  -4 2849.43   48.89
   2   3  -3  672.37   16.56
   2   3  -3  641.81   16.52
   2   3  -3  651.09   13.21
   2   3  -3  649.58   15.98
   2   3  -2 2464.46   37.86
   2   3  -2 2328.33   38.85
   2   3  -2 2328.67   39.79
   2   3  -2 2473.64   41.88
   2   3  -1  181.73    6.73
   2   3  -1  186.40    5.77
   2   3  -1  189.54    6.48
   2   3   0  832.43   18.93
   2   3   0  817.37   18.06
   2   3   0  823.64   15.64
   2   3   1  690.73   16.98
   2   3   1  713.33   13.94
   2   3   2   75.09    4.83
   2   3   3  205.51    7.93
   2   3   3  195.96    7.04
   2   3   4  224.96    8.15
   2   3   4  203.16    9.82
   2   3   5  722.84   16.76
   2   3   5  684.69   17.25
   2   3   5  679.00   14.89
   2   3   6  522.74   15.24
   2   3   6  528.84   13.52
   2   3   7   20.52    3.74
   2   3   7   19.97    2.83
   2   3   8  212.04    7.79
   2   3   8  193.09    8.75
   2   3   9   31.97    2.79
   2   3   9   27.17    3.32
   2   3  10    6.02    1.59
   2   3  10    2.35    1.15
   2   4 -11  297.49   11.08
   2   4 -10  348.02   13.88
   2   4  -9   22.22    3.70
   2   4  -9   24.05    3.72
   2   4  -9   21.25    3.82
   2   4  -8  260.05   11.70
   2   4  -8  276.76   10.20
   2   4  -8  269.57   10.89
   2   4  -7   14.68    3.11
   2   4  -7   13.51    2.76
   2   4  -7   14.56    2.74
   2   4  -7   10.54    1.76
   2   4  -6  256.27   11.25
   2   4  -6  261.61   10.54
   2   4  -6  256.11    7.92
   2   4  -6  274.51   10.66
   2   4  -5  313.41   12.09
   2   4  -5  308.85    8.82
   2   4  -5  311.21   11.50
   2   4  -4  387.95   13.10
   2   4  -4  393.44   10.24
   2   4  -4  392.03   13.08
   2   4  -3  409.21   10.60
   2   4  -3  423.14   12.99
   2   4  -2  709.05   18.72
   2   4  -2  730.29   15.32
   2   4  -2  673.80   15.09
   2   4  -2  714.50   17.00
   2   4  -1 1297.95   25.27
   2   4  -1 1297.84   23.94
   2   4  -1 1300.92   28.30
   2   4   0  170.36    8.33
   2   4   0  158.63    6.12
   2   4   1  199.70    8.90
   2   4   1  195.19    6.76
   2   4   2  403.17   13.08
   2   4   2  366.23   10.60
   2   4   3  494.11   17.24
   2   4   3  489.03   13.44
   2   4   3  481.45   12.66
   2   4   3  504.71   13.55
   2   4   4  143.36    8.96
   2   4   4  147.25    6.90
   2   4   4  145.39    7.40
   2   4   5  339.08   13.72
   2   4   5  355.35   12.24
   2   4   6  563.42   13.67
   2   4   6  562.47   16.32
   2   4   7   37.91    2.91
   2   4   7   47.37    4.57
   2   4   8   54.50    2.93
   2   4   8   51.22    4.03
   2   4   9   40.23    2.89
   2   5 -10  161.39    9.15
   2   5  -9  182.55   10.26
   2   5  -8   12.06    2.90
   2   5  -8   20.46    3.94
   2   5  -8   24.94    3.57
   2   5  -7  142.28    8.21
   2   5  -7  159.77    6.45
   2   5  -7  146.60    7.84
   2   5  -7  162.14    9.84
   2   5  -7  154.62    8.39
   2   5  -6  191.94    9.06
   2   5  -6  187.42    7.36
   2   5  -6  197.05    9.53
   2   5  -6  191.75   10.33
   2   5  -6  194.59    9.43
   2   5  -5  381.79   11.15
   2   5  -5  400.47   14.05
   2   5  -5  371.00   14.49
   2   5  -4  907.99   19.85
   2   5  -4  892.76   23.36
   2   5  -4  861.39   22.71
   2   5  -4  892.68   19.54
   2   5  -3  284.57   12.01
   2   5  -3  294.37   11.48
   2   5  -3  307.22    9.95
   2   5  -2  259.01   11.37
   2   5  -2  255.59    9.09
   2   5  -1  166.02    8.90
   2   5   0  423.72   14.61
   2   5   0  399.86   10.51
   2   5   1   22.01    3.42
   2   5   1   22.31    2.51
   2   5   1   25.99    3.15
   2   5   2  255.48   10.36
   2   5   2  252.33    8.08
   2   5   2  268.87    9.13
   2   5   3  334.50   14.52
   2   5   3  335.72   10.91
   2   5   3  328.77   11.44
   2   5   4  251.26   12.12
   2   5   4  265.31   10.30
   2   5   5   17.80    3.35
   2   5   5   19.89    3.50
   2   5   6    1.21    1.43
   2   5   6    0.16    2.16
   2   5   7   54.86    3.93
   2   5   8    9.08    1.62
   2   6 -11  149.10    7.90
   2   6 -10   56.46    5.53
   2   6  -9   27.11    4.14
   2   6  -8    3.67    2.62
   2   6  -7   10.55    2.22
   2   6  -7   11.10    3.25
   2   6  -6   91.33    7.36
   2   6  -6   89.40    5.36
   2   6  -6   91.67    6.53
   2   6  -5   50.09    4.44
   2   6  -5   52.73    5.71
   2   6  -5   56.18    5.53
   2   6  -4  163.23    9.24
   2   6  -4  134.67    5.59
   2   6  -3  146.49    8.90
   2   6  -3  150.56    7.69
   2   6  -3  152.78    6.22
   2   6  -2  130.26    8.43
   2   6  -2  139.74    6.83
   2   6  -2  133.20    6.24
   2   6  -1  213.60   10.68
   2   6  -1  218.84    8.71
   2   6  -1  229.89    8.67
   2   6   0 1037.93   22.28
   2   6   0  985.65   19.66
   2   6   0 1049.40   22.46
   2   6   1  434.21   12.61
   2   6   1  443.83   12.10
   2   6   2  198.13   11.03
   2   6   2  205.41    7.82
   2   6   2  193.71    8.54
   2   6   3   50.88    5.53
   2   6   3   56.76    4.83
   2   6   4  325.32   10.81
   2   6   5   12.88    1.92
   2   6   5   17.35    2.79
   2   6   6   37.33    2.95
   2   6   7    5.71    1.13
   2   7 -10   12.25    2.80
   2   7  -9   64.34    5.66
   2   7  -9   62.38    5.65
   2   7  -9   63.01    3.88
   2   7  -8  489.14   16.23
   2   7  -8  482.39   16.69
   2   7  -8  438.95   12.26
   2   7  -7  293.06   12.28
   2   7  -7  297.14   12.77
   2   7  -7  267.85    9.70
   2   7  -6   65.07    5.57
   2   7  -6   60.42    5.67
   2   7  -6   61.69    4.83
   2   7  -5  288.70   11.83
   2   7  -5  272.26   10.40
   2   7  -4   89.20    5.97
   2   7  -4   85.80    4.89
   2   7  -3  162.64    7.91
   2   7  -3  153.51    6.88
   2   7  -2   85.86    5.89
   2   7  -2   83.29    5.35
   2   7  -1   35.85    4.01
   2   7   0  326.58   13.84
   2   7   0  314.18   10.72
   2   7   0  300.14   10.12
   2   7   1   19.21    3.93
   2   7   1   20.37    2.85
   2   7   1   16.68    2.75
   2   7   2   23.19    2.68
   2   7   2   30.29    3.31
   2   7   3  147.47    6.14
   2   7   4  107.57    4.57
   2   7   5   26.99    1.93
   2   8  -9   99.33    4.01
   2   8  -8  108.58    6.31
   2   8  -8  103.84    4.96
   2   8  -7  128.04    6.92
   2   8  -7  121.96    5.95
   2   8  -6  171.88    7.78
   2   8  -6  166.74    7.42
   2   8  -5   94.29    5.87
   2   8  -4  144.13    7.32
   2   8  -3   39.30    4.30
   2   8  -3   38.65    3.57
   2   8  -2   60.58    4.77
   2   8  -1  237.50    8.78
   2   8  -1  214.77    7.04
   2   8   0   32.58    3.06
   2   8   0   37.43    2.81
   2   8   1   76.46    3.86
   2   8   1   71.73    3.48
   2   8   2  223.28    5.45
   2   8   2  219.88    5.50
   2   8   3   55.51    2.13
   2   9  -9   45.25    2.55
   2   9  -8   18.86    1.64
   2   9  -8   17.50    2.06
   2   9  -7   80.50    3.79
   2   9  -7   83.61    4.18
   2   9  -6    6.52    1.76
   2   9  -6    9.92    1.93
   2   9  -5  171.94    6.53
   2   9  -5  161.41    5.73
   2   9  -4   35.58    3.12
   2   9  -4   37.41    2.61
   2   9  -3   30.07    2.91
   2   9  -2   26.28    2.58
   2   9  -1   39.86    2.67
   2   9   0   78.34    2.95
   3 -10  -2   12.23    1.24
   3 -10  -1   48.56    2.52
   3 -10   0  290.93    7.28
   3 -10   0  292.31    7.28
   3 -10   1    6.29    1.33
   3 -10   2    5.60    1.36
   3 -10   3  123.52    4.23
   3 -10   5  117.84    4.38
   3 -10   6   88.64    3.52
   3 -10   7   89.82    3.17
   3  -9  -5  129.32    3.61
   3  -9  -4  189.94    5.57
   3  -9  -3    9.90    1.80
   3  -9  -3    5.35    1.17
   3  -9  -2   52.01    3.23
   3  -9  -2   57.78    3.56
   3  -9  -1  338.64    9.71
   3  -9  -1  351.50    9.50
   3  -9   0   90.65    5.09
   3  -9   0   97.06    4.60
   3  -9   1   46.92    4.06
   3  -9   1   44.62    3.02
   3  -9   2  356.51   11.31
   3  -9   2  342.23   10.61
   3  -9   2  367.45   10.75
   3  -9   3   51.29    4.40
   3  -9   3   50.89    3.85
   3  -9   3   47.61    4.18
   3  -9   4   81.50    4.38
   3  -9   4   79.30    5.32
   3  -9   5   45.86    3.11
   3  -9   5   50.20    4.23
   3  -9   6  256.36    8.45
   3  -9   6  237.25    8.57
   3  -9   7   49.58    3.46
   3  -9   7   48.37    3.49
   3  -9   8   14.59    1.93
   3  -9   8   10.30    1.73
   3  -9   9  151.38    4.69
   3  -8  -7   30.31    1.70
   3  -8  -6    2.54    1.38
   3  -8  -6    5.88    1.41
   3  -8  -6    2.10    1.23
   3  -8  -5  116.83    5.34
   3  -8  -5  110.28    4.77
   3  -8  -4   71.77    4.73
   3  -8  -3  209.07    7.27
   3  -8  -3  225.57    8.86
   3  -8  -3  219.06    7.62
   3  -8  -2  259.42    8.77
   3  -8  -2  267.21   10.05
   3  -8  -2  279.83    8.75
   3  -8  -1  183.97    7.61
   3  -8  -1  192.12    7.86
   3  -8  -1  192.31    8.42
   3  -8  -1  187.83    6.82
   3  -8   0  149.29    7.06
   3  -8   0  159.74    6.92
   3  -8   1  543.68   14.77
   3  -8   1  537.04   13.45
   3  -8   2  396.51   12.48
   3  -8   2  395.89   11.23
   3  -8   2  388.64   12.47
   3  -8   3  170.45    8.01
   3  -8   3  173.33    7.44
   3  -8   3  154.16    7.85
   3  -8   4   39.41    4.20
   3  -8   4   40.63    3.70
   3  -8   4   42.24    4.46
   3  -8   5  161.64    6.81
   3  -8   5  160.65    7.67
   3  -8   6   38.60    3.29
   3  -8   6   39.03    4.07
   3  -8   7  223.89    8.61
   3  -8   7  212.86    8.12
   3  -8   8   96.82    5.25
   3  -8   8   92.29    4.67
   3  -8   9    4.00    1.68
   3  -8   9   -0.34    1.10
   3  -8  10  108.01    4.34
   3  -7  -8   28.06    1.98
   3  -7  -8   25.58    1.82
   3  -7  -7  321.59    8.77
   3  -7  -6   33.36    3.37
   3  -7  -5    9.52    2.69
   3  -7  -4   40.95    4.16
   3  -7  -3   47.03    5.30
   3  -7  -3   40.89    3.46
   3  -7  -3   42.74    4.36
   3  -7  -2   33.48    4.80
   3  -7  -2   33.93    3.41
   3  -7  -2   31.82    3.79
   3  -7  -1   45.89    5.06
   3  -7  -1   44.91    3.96
   3  -7  -1   42.74    4.10
   3  -7  -1   39.66    3.50
   3  -7   0  870.38   23.01
   3  -7   0  851.68   19.17
   3  -7   0  876.09   19.76
   3  -7   0  822.68   18.94
   3  -7   0  834.91   17.28
   3  -7   1  186.30    9.70
   3  -7   1  183.28    7.76
   3  -7   1  194.88    7.16
   3  -7   1  181.99    7.81
   3  -7   2  549.96   16.93
   3  -7   2  540.90   16.62
   3  -7   2  569.48   14.91
   3  -7   2  556.55   12.96
   3  -7   2  585.95   13.73
   3  -7   2  545.11   14.79
   3  -7   3  105.87    6.85
   3  -7   3  115.24    6.31
   3  -7   3  119.30    6.01
   3  -7   3  119.11    6.33
   3  -7   4  671.59   18.29
   3  -7   4  682.64   17.16
   3  -7   4  693.21   16.62
   3  -7   4  675.22   16.96
   3  -7   5  376.83   11.35
   3  -7   5  382.65   11.93
   3  -7   6  264.48    9.17
   3  -7   6  290.28    9.95
   3  -7   7  129.76    5.83
   3  -7   7  127.57    6.66
   3  -7   7  114.50    5.57
   3  -7   7  130.53    6.30
   3  -7   8   37.41    3.14
   3  -7   8   43.25    3.96
   3  -7   8   45.32    3.57
   3  -7   9   81.43    4.18
   3  -7   9   77.98    5.02
   3  -7  10   30.60    2.41
   3  -7  10   28.75    2.81
   3  -7  11   27.95    2.27
   3  -6  -9   19.85    1.81
   3  -6  -9   17.16    1.51
   3  -6  -8   89.06    4.37
   3  -6  -7   19.61    3.88
   3  -6  -7   12.81    2.41
   3  -6  -6   53.36    5.89
   3  -6  -6   42.71    4.02
   3  -6  -5   17.38    4.10
   3  -6  -5   11.31    2.80
   3  -6  -4   43.25    5.68
   3  -6  -4   39.48    3.96
   3  -6  -3  191.29   10.57
   3  -6  -3  180.52   10.68
   3  -6  -3  176.99    7.72
   3  -6  -2  566.45   18.79
   3  -6  -2  537.62   18.22
   3  -6  -2  546.85   14.16
   3  -6  -1  303.95   13.12
   3  -6  -1  304.27   12.85
   3  -6   0   -1.37    1.74
   3  -6   0    1.84    2.22
   3  -6   1   13.49    2.84
   3  -6   1   14.00    3.08
   3  -6   2  285.83   11.24
   3  -6   3   92.66    6.41
   3  -6   4   87.10    6.23
   3  -6   4   92.71    5.24
   3  -6   4   89.85    5.02
   3  -6   5  152.44    8.85
   3  -6   5  143.77    6.25
   3  -6   5  143.41    6.46
   3  -6   6   92.09    5.12
   3  -6   6  100.44    5.28
   3  -6   7  273.62    9.34
   3  -6   7  270.38    9.90
   3  -6   7  259.08    8.96
   3  -6   7  285.47    8.85
   3  -6   8  300.91    9.94
   3  -6   8  302.18   10.63
   3  -6   9    0.80    1.66
   3  -6   9    1.70    1.89
   3  -6  10   79.07    4.48
   3  -6  10   80.21    4.05
   3  -6  10   90.61    5.14
   3  -6  11  210.58    6.51
   3  -6  11  219.22    7.10
   3  -6  12   78.00    2.83
   3  -6  12   89.48    3.29
   3  -5  -9  106.33    4.49
   3  -5  -8   44.83    5.10
   3  -5  -8   46.35    3.60
   3  -5  -7  338.23   14.74
   3  -5  -7  346.53   10.70
   3  -5  -6  334.45   15.09
   3  -5  -5  428.43   15.33
   3  -5  -5  405.30   16.52
   3  -5  -4  144.51    8.82
   3  -5  -4  136.32    9.21
   3  -5  -3   68.65    6.06
   3  -5  -3   75.96    6.75
   3  -5  -2  289.98   12.30
   3  -5  -2  280.45   12.28
   3  -5  -1 1081.45   25.84
   3  -5  -1 1050.73   25.72
   3  -5   0  198.12    9.26
   3  -5   0  216.70    9.84
   3  -5   1  401.95   13.13
   3  -5   1  421.59   14.05
   3  -5   2  249.31    9.35
   3  -5   3  108.46    6.73
   3  -5   4  142.60    7.84
   3  -5   5  148.68    8.60
   3  -5   6  649.28   19.81
   3  -5   6  639.95   14.85
   3  -5   7 1355.35   26.93
   3  -5   7 1368.70   27.01
   3  -5   8   10.13    2.53
   3  -5   8    7.50    2.22
   3  -5   8    7.41    2.28
   3  -5   9   29.50    3.44
   3  -5   9   36.49    3.76
   3  -5   9   36.72    3.84
   3  -5  10   96.30    5.52
   3  -5  10  106.51    5.43
   3  -5  10  100.67    5.62
   3  -5  11   35.20    3.13
   3  -5  12   12.64    1.69
   3  -4  -9   11.87    3.29
   3  -4  -8   69.81    6.52
   3  -4  -7  789.13   23.78
   3  -4  -6   29.76    4.84
   3  -4  -6   15.14    3.06
   3  -4  -5   73.41    6.61
   3  -4  -5   80.00    6.23
   3  -4  -4  312.18   12.85
   3  -4  -4  321.37   12.64
   3  -4  -3  781.86   20.86
   3  -4  -3  784.95   20.81
   3  -4  -2   93.22    6.43
   3  -4  -2   88.57    6.06
   3  -4  -1 1372.16   28.63
   3  -4  -1 1357.36   28.61
   3  -4  -1 1367.96   24.29
   3  -4   0  636.21   16.56
   3  -4   0  672.58   17.40
   3  -4   1  365.43   11.06
   3  -4   1  346.79   11.77
   3  -4   2  272.64    8.73
   3  -4   3 1489.36   30.39
   3  -4   4   26.19    3.55
   3  -4   5  684.91   19.60
   3  -4   6  119.14    7.71
   3  -4   7  234.50    8.57
   3  -4   7  233.17    7.90
   3  -4   7  226.91    8.26
   3  -4   7  225.38   10.89
   3  -4   8   87.94    5.47
   3  -4   8   92.55    5.54
   3  -4   8   91.72    5.44
   3  -4   9   30.99    3.58
   3  -4   9   30.53    3.85
   3  -4   9   27.81    3.37
   3  -4  10   91.32    5.59
   3  -4  10   94.79    5.62
   3  -4  10   89.62    5.34
   3  -4  11  126.02    5.94
   3  -4  11  126.78    5.64
   3  -4  12   77.94    3.77
   3  -4  12   80.60    3.56
   3  -3 -10    9.75    2.66
   3  -3  -9   48.11    5.30
   3  -3  -8  460.45   16.91
   3  -3  -7 1287.12   31.09
   3  -3  -7 1283.32   30.42
   3  -3  -6  335.31   13.38
   3  -3  -6  313.24   11.89
   3  -3  -6  322.87   12.90
   3  -3  -5  215.50    9.93
   3  -3  -5  226.33    9.83
   3  -3  -4  685.31   18.29
   3  -3  -4  699.91   18.45
   3  -3  -3 4828.24   78.78
   3  -3  -3 5049.83   79.74
   3  -3  -2 1597.24   30.92
   3  -3  -2 1654.50   31.82
   3  -3  -1  230.99    8.66
   3  -3  -1  220.19    6.93
   3  -3  -1  236.70    8.75
   3  -3   0  142.76    4.76
   3  -3   0  139.09    6.25
   3  -3   0  142.65    6.56
   3  -3   1 1055.31   20.59
   3  -3   2  732.20   17.72
   3  -3   2  821.08   15.88
   3  -3   3 3089.32   52.53
   3  -3   4 1092.09   24.81
   3  -3   5 1380.05   30.28
   3  -3   6  278.47   11.54
   3  -3   7  240.78    8.71
   3  -3   7  244.11    8.24
   3  -3   7  231.33   10.77
   3  -3   7  221.11    7.68
   3  -3   8  254.21    9.46
   3  -3   8  254.15    9.56
   3  -3   8  240.74    8.77
   3  -3   8  251.98    8.04
   3  -3   8  243.43    7.96
   3  -3   9   96.83    5.99
   3  -3   9  113.12    6.53
   3  -3   9  113.68    6.01
   3  -3   9  111.52    5.46
   3  -3  10   43.66    4.16
   3  -3  10   44.24    3.83
   3  -3  10   47.02    3.47
   3  -3  11   66.75    4.03
   3  -3  11   76.52    3.58
   3  -3  12  138.03    5.00
   3  -3  12  139.07    4.54
   3  -2 -10  174.70    8.95
   3  -2  -9  166.71    8.65
   3  -2  -9  164.83    9.19
   3  -2  -8  381.92   13.74
   3  -2  -8  346.55   14.00
   3  -2  -8  365.21   13.92
   3  -2  -7  133.25    6.83
   3  -2  -7  109.95    7.00
   3  -2  -7  134.56    8.26
   3  -2  -7  126.81    7.67
   3  -2  -6  188.23    8.44
   3  -2  -6  177.66    8.45
   3  -2  -6  184.17    9.17
   3  -2  -6  208.92    9.09
   3  -2  -5  324.39   11.05
   3  -2  -5  331.72   11.31
   3  -2  -5  317.19   10.85
   3  -2  -4 3482.75   58.54
   3  -2  -4 3533.19   57.05
   3  -2  -3  100.79    5.60
   3  -2  -3   86.52    4.84
   3  -2  -2  795.79   17.82
   3  -2  -2  788.81   16.36
   3  -2  -2  792.09   16.83
   3  -2  -1  492.22   11.39
   3  -2  -1  518.80   12.73
   3  -2  -1  496.84   12.28
   3  -2  -1  502.32   10.57
   3  -2   0   17.38    2.16
   3  -2   0   14.86    2.16
   3  -2   1  462.99   10.53
   3  -2   1  434.61   11.30
   3  -2   2   82.06    3.76
   3  -2   2   89.12    3.64
   3  -2   2   81.31    4.70
   3  -2   3  406.93   10.06
   3  -2   3  441.60   12.54
   3  -2   4  704.80   17.67
   3  -2   5  718.21   18.73
   3  -2   6    3.90    1.88
   3  -2   7  194.95    7.41
   3  -2   7  197.67    7.85
   3  -2   7  202.46    9.52
   3  -2   7  186.14    6.64
   3  -2   7  189.46    6.97
   3  -2   7  190.82    7.01
   3  -2   8   34.23    4.24
   3  -2   8   32.65    3.47
   3  -2   8   33.05    3.31
   3  -2   8   31.36    3.23
   3  -2   8   29.41    3.16
   3  -2   9   74.29    5.14
   3  -2   9   77.72    4.87
   3  -2   9   77.92    5.01
   3  -2  10   35.82    3.55
   3  -2  10   37.01    3.34
   3  -2  10   32.39    3.24
   3  -2  11   70.15    3.81
   3  -2  11   66.26    3.80
   3  -2  12   97.07    3.71
   3  -2  12   91.55    3.21
   3  -1  -9  489.20   16.50
   3  -1  -9  477.50   15.14
   3  -1  -8  213.79   10.28
   3  -1  -8  213.02    9.18
   3  -1  -8  217.36    9.51
   3  -1  -7  233.29   10.05
   3  -1  -7  212.30    8.53
   3  -1  -7  208.43    8.73
   3  -1  -7  209.72    8.76
   3  -1  -6  207.50    8.43
   3  -1  -6  214.69    8.18
   3  -1  -6  218.35    9.24
   3  -1  -6  215.06    8.17
   3  -1  -5  321.07   10.53
   3  -1  -5  308.12    9.44
   3  -1  -5  320.12    9.55
   3  -1  -4   58.60    4.30
   3  -1  -4   56.93    3.54
   3  -1  -3   25.13    2.88
   3  -1  -3   30.55    2.93
   3  -1  -3   24.91    2.36
   3  -1  -2  705.04   15.89
   3  -1  -2  725.44   15.20
   3  -1  -2  713.98   14.47
   3  -1  -2  725.94   14.93
   3  -1  -1  512.88   11.69
   3  -1  -1  512.80   11.29
   3  -1  -1  513.45   10.97
   3  -1   0  446.39   10.21
   3  -1   1  378.69    7.72
   3  -1   1  378.74    9.79
   3  -1   2  700.70   13.25
   3  -1   2  727.24   15.34
   3  -1   3  638.91   14.88
   3  -1   3  652.22   14.97
   3  -1   4  554.16   14.30
   3  -1   5  110.26    6.09
   3  -1   6  203.02    8.83
   3  -1   7   34.23    3.65
   3  -1   7   32.15    2.99
   3  -1   7   32.18    3.37
   3  -1   7   31.63    3.27
   3  -1   8  275.05    9.49
   3  -1   8  279.02    8.90
   3  -1   8  290.03   10.08
   3  -1   9  173.89    7.32
   3  -1   9  157.46    6.73
   3  -1   9  176.44    7.83
   3  -1   9  179.70    6.81
   3  -1  10   70.21    4.03
   3  -1  10   71.87    4.75
   3  -1  11  101.02    4.37
   3  -1  11  103.78    4.78
   3  -1  12   34.95    2.00
   3   0 -11  259.32   10.53
   3   0 -10  472.65   16.38
   3   0  -9  101.24    7.57
   3   0  -9   99.11    6.59
   3   0  -8   88.38    6.05
   3   0  -7  282.24    9.85
   3   0  -7  291.64   10.50
   3   0  -6  446.89   12.83
   3   0  -6  476.28   13.09
   3   0  -5  145.09    6.72
   3   0  -5  140.30    7.16
   3   0  -4  353.60   10.43
   3   0  -4  322.41   10.50
   3   0  -3 1474.53   26.40
   3   0  -3 1419.64   23.17
   3   0  -3 1436.11   26.48
   3   0  -2  162.38    6.20
   3   0  -2  176.59    6.41
   3   0  -1  790.62   14.90
   3   0  -1  825.84   16.17
   3   0   0  346.38    6.82
   3   0   0  339.69    8.31
   3   0   0  347.25    8.07
   3   0   0  349.57    7.80
   3   0   1  487.95   12.27
   3   0   1  485.32    9.87
   3   0   2  417.97   11.62
   3   0   2  394.64    9.40
   3   0   3  405.11   12.36
   3   0   3  409.65   10.34
   3   0   4 1624.27   29.43
   3   0   5  235.97    6.94
   3   0   6  385.43    9.92
   3   0   7   38.90    3.16
   3   0   7   39.43    3.78
   3   0   7   48.02    3.87
   3   0   8   12.02    2.82
   3   0   8   15.73    2.91
   3   0   9   78.16    4.28
   3   0   9   76.44    5.25
   3   0   9   80.94    4.95
   3   0  10   93.08    4.36
   3   0  10   94.21    5.36
   3   0  10   93.70    4.61
   3   0  11   19.94    2.21
   3   1 -10  392.52   13.48
   3   1 -10  409.19   14.54
   3   1  -9  934.05   23.34
   3   1  -9  945.60   22.07
   3   1  -9  927.70   24.42
   3   1  -8  151.29    8.00
   3   1  -8  166.81    8.34
   3   1  -8  160.83    8.83
   3   1  -7   81.21    5.12
   3   1  -7   79.31    5.67
   3   1  -7   79.81    5.75
   3   1  -7   92.91    6.51
   3   1  -6   94.01    5.72
   3   1  -6   92.30    5.87
   3   1  -6   87.70    5.96
   3   1  -5 1437.55   27.46
   3   1  -5 1410.88   28.77
   3   1  -5 1380.89   28.72
   3   1  -4  452.82   12.18
   3   1  -4  488.33   13.45
   3   1  -4  465.24   13.12
   3   1  -3  806.36   18.16
   3   1  -2  792.36   16.18
   3   1  -2  790.32   16.53
   3   1  -2  789.88   17.18
   3   1  -1   69.14    3.32
   3   1  -1   69.03    3.95
   3   1  -1   66.41    3.79
   3   1   0  154.13    5.68
   3   1   0  146.67    6.44
   3   1   0  155.17    5.75
   3   1   1  342.08   10.78
   3   1   2 1492.71   24.94
   3   1   2 1508.33   30.14
   3   1   3  137.85    7.74
   3   1   4  410.37   10.50
   3   1   5  350.85   10.08
   3   1   6  625.03   15.18
   3   1   6  622.68   14.29
   3   1   6  655.50   15.84
   3   1   7 1210.29   25.65
   3   1   7 1221.98   25.47
   3   1   8  521.09   14.68
   3   1   8  504.68   14.21
   3   1   9   17.05    2.70
   3   1   9   14.51    2.58
   3   1  10    8.75    1.80
   3   1  10    9.89    2.03
   3   1  11  239.12    6.01
   3   2 -11  129.06    7.26
   3   2 -10    8.29    2.36
   3   2 -10   11.83    3.23
   3   2 -10   17.25    3.15
   3   2  -9  201.68   10.42
   3   2  -9  210.22    8.86
   3   2  -9  188.69    9.66
   3   2  -8  117.23    7.86
   3   2  -8  117.56    6.51
   3   2  -8  126.15    7.31
   3   2  -8  131.33    7.81
   3   2  -7    3.60    2.14
   3   2  -7    4.48    1.86
   3   2  -7    6.02    2.06
   3   2  -7    1.97    2.18
   3   2  -6  398.67   13.59
   3   2  -6  379.73   11.30
   3   2  -6  380.39   12.95
   3   2  -6  369.35   12.76
   3   2  -5  438.29   13.76
   3   2  -5  419.80   13.45
   3   2  -5  439.86   13.77
   3   2  -4  179.10    7.93
   3   2  -4  175.82    7.93
   3   2  -4  181.25    8.15
   3   2  -3  542.26   14.11
   3   2  -3  522.31   14.34
   3   2  -3  542.71   14.73
   3   2  -2  827.21   17.90
   3   2  -2  858.59   19.20
   3   2  -2  840.03   18.80
   3   2  -1 2613.10   44.29
   3   2  -1 2592.86   43.99
   3   2  -1 2552.92   44.06
   3   2   0 1106.36   23.40
   3   2   0 1095.41   18.89
   3   2   1 1150.80   19.59
   3   2   1 1190.41   22.87
   3   2   1 1181.82   25.64
   3   2   2   78.71    6.12
   3   2   2   82.43    4.35
   3   2   2   90.45    4.23
   3   2   3  117.19    5.33
   3   2   4  696.15   16.13
   3   2   4  697.45   17.90
   3   2   5   95.30    5.45
   3   2   5   97.71    5.28
   3   2   5   99.31    5.83
   3   2   5   99.54    5.29
   3   2   6  367.15   11.30
   3   2   6  363.42   11.97
   3   2   6  378.16   11.54
   3   2   7  165.38    7.59
   3   2   7  172.87    8.12
   3   2   8   68.29    4.67
   3   2   8   70.53    5.15
   3   2   9   35.40    3.15
   3   2   9   29.25    3.09
   3   2  10   27.24    2.11
   3   2  10   22.45    1.98
   3   3 -10  158.79    8.69
   3   3  -9    9.06    2.77
   3   3  -9    4.02    2.20
   3   3  -8  371.16   14.24
   3   3  -8  335.72   13.35
   3   3  -8  370.54   13.11
   3   3  -7  408.54   15.03
   3   3  -7  404.34   14.52
   3   3  -7  435.33   14.38
   3   3  -6  200.70    9.79
   3   3  -6  189.00    9.44
   3   3  -6  211.89    9.79
   3   3  -5    6.51    2.43
   3   3  -5   13.61    3.10
   3   3  -5    8.76    2.47
   3   3  -4 2616.99   47.33
   3   3  -4 2639.31   47.84
   3   3  -4 2573.93   47.44
   3   3  -3   49.92    3.34
   3   3  -3   55.45    4.79
   3   3  -3   52.04    4.75
   3   3  -2  245.86    7.51
   3   3  -2  249.18    8.83
   3   3  -2  247.39    8.40
   3   3  -2  250.06   10.10
   3   3  -1  246.29    9.35
   3   3  -1  242.89    7.54
   3   3   0  657.64   14.01
   3   3   0  660.13   16.86
   3   3   0  660.90   17.61
   3   3   1   10.07    1.78
   3   3   1   14.92    2.69
   3   3   1   13.23    3.09
   3   3   1   13.57    2.12
   3   3   2  250.59    8.35
   3   3   3  105.98    5.69
   3   3   4  108.72    6.10
   3   3   4  111.01    7.21
   3   3   4  101.57    5.69
   3   3   4  114.11    6.46
   3   3   4  100.09    4.74
   3   3   5  104.29    6.08
   3   3   5  102.34    6.44
   3   3   5  110.34    5.49
   3   3   6  407.63   11.54
   3   3   6  387.51   13.02
   3   3   7  107.73    5.38
   3   3   7  100.00    6.22
   3   3   8   14.25    2.64
   3   3   8   21.64    2.35
   3   3   9    0.48    1.29
   3   3   9    0.89    0.97
   3   4 -10  394.66   15.14
   3   4 -10  395.71   13.25
   3   4  -9  173.48    9.61
   3   4  -9  148.51    8.65
   3   4  -8  412.71   11.57
   3   4  -8  463.21   16.29
   3   4  -8  441.36   14.47
   3   4  -8  402.10   14.99
   3   4  -7  547.73   17.98
   3   4  -7  536.24   16.85
   3   4  -7  506.39   13.28
   3   4  -7  507.42   17.07
   3   4  -6  351.16   10.65
   3   4  -6  350.63   13.34
   3   4  -6  362.76   13.85
   3   4  -5   81.91    4.86
   3   4  -5   87.37    6.50
   3   4  -5   83.44    6.58
   3   4  -4  415.74   13.70
   3   4  -4  418.24   11.81
   3   4  -4  405.26   14.80
   3   4  -3  418.63   11.90
   3   4  -3  438.62   11.96
   3   4  -3  439.53   13.41
   3   4  -2  303.46    9.59
   3   4  -2  312.21   12.09
   3   4  -2  301.07   10.33
   3   4  -2  318.20   10.33
   3   4  -1  102.17    6.62
   3   4  -1  110.43    6.37
   3   4  -1  109.59    5.46
   3   4  -1  108.03    4.47
   3   4   0   88.23    6.05
   3   4   0   86.29    4.74
   3   4   0   86.27    4.52
   3   4   1  458.66   14.11
   3   4   1  442.53   12.01
   3   4   2  243.45    9.11
   3   4   2  253.55    8.90
   3   4   2  256.37    8.81
   3   4   3   76.21    6.42
   3   4   3   70.89    5.17
   3   4   3   78.19    5.21
   3   4   3   82.82    5.90
   3   4   4  319.21   12.78
   3   4   4  332.85   11.32
   3   4   4  314.76   11.74
   3   4   5  163.99    8.27
   3   4   6   28.84    3.94
   3   4   7    0.45    2.05
   3   4   8   44.03    3.03
   3   5 -10  187.13    9.86
   3   5  -9  258.78   12.27
   3   5  -9  215.64    9.84
   3   5  -8   21.33    3.84
   3   5  -8   19.67    3.86
   3   5  -8   20.33    2.77
   3   5  -7  220.98    8.55
   3   5  -7  216.34   11.55
   3   5  -7  217.14   10.84
   3   5  -6  726.81   17.94
   3   5  -6  771.69   21.50
   3   5  -6  750.07   22.08
   3   5  -5  172.33    7.84
   3   5  -5  166.47    9.28
   3   5  -5  159.85    9.23
   3   5  -5  174.18    6.43
   3   5  -4  453.09   13.81
   3   5  -4  504.66   16.68
   3   5  -4  481.73   15.51
   3   5  -3  498.57   16.58
   3   5  -3  504.21   15.08
   3   5  -3  470.60   13.91
   3   5  -2  955.26   24.60
   3   5  -2  884.20   20.74
   3   5  -2  913.29   19.58
   3   5  -1  389.27   10.50
   3   5  -1  438.29   15.13
   3   5  -1  412.11   11.41
   3   5  -1  414.33   10.44
   3   5  -1  418.40   12.07
   3   5   0   45.52    3.70
   3   5   0   43.33    4.47
   3   5   0   49.42    3.70
   3   5   0   40.28    3.37
   3   5   0   48.02    4.19
   3   5   1  253.30    9.19
   3   5   1  259.22    8.24
   3   5   1  245.42    8.92
   3   5   1  261.09    9.69
   3   5   2  312.10   13.55
   3   5   2  299.13   10.24
   3   5   2  275.54   10.83
   3   5   3  134.90    8.56
   3   5   3  144.52    7.17
   3   5   3  149.64    7.91
   3   5   4   14.73    3.03
   3   5   4   15.34    3.43
   3   5   5   -0.11    2.36
   3   5   6   36.38    3.40
   3   5   7   11.26    1.76
   3   6  -9  285.29   12.22
   3   6  -8  183.31   10.07
   3   6  -8  188.43    7.39
   3   6  -7  109.10    7.82
   3   6  -7   95.77    5.61
   3   6  -6  128.22    6.78
   3   6  -6  116.94    5.48
   3   6  -5 1123.56   24.95
   3   6  -5 1116.88   22.67
   3   6  -4  188.52    8.79
   3   6  -4  182.01    7.60
   3   6  -3  756.42   18.04
   3   6  -2  300.29   10.46
   3   6  -2  292.93   10.32
   3   6  -1   58.05    4.62
   3   6  -1   62.06    3.97
   3   6  -1   65.09    5.13
   3   6   0   44.27    3.93
   3   6   0   42.57    3.60
   3   6   0   41.29    4.27
   3   6   1  264.44   12.34
   3   6   1  254.71    8.57
   3   6   1  253.43    8.93
   3   6   1  243.19    9.98
   3   6   2    3.69    2.07
   3   6   2   -0.04    2.32
   3   6   3   40.56    4.12
   3   6   4  385.86   11.14
   3   6   5   59.52    3.58
   3   6   6  102.01    3.44
   3   7 -10  197.72    6.24
   3   7  -9   -3.36    2.22
   3   7  -9    0.25    1.40
   3   7  -8  271.56   11.31
   3   7  -7   88.07    5.82
   3   7  -7   94.31    6.58
   3   7  -6   94.74    6.30
   3   7  -6   96.04    6.14
   3   7  -5  118.31    6.83
   3   7  -5  106.10    5.45
   3   7  -4   43.70    4.32
   3   7  -4   36.72    3.60
   3   7  -3  149.18    7.51
   3   7  -3  132.88    6.64
   3   7  -2  246.25    9.65
   3   7  -2  268.91    9.82
   3   7  -1    7.60    2.46
   3   7   0   23.29    2.83
   3   7   0   26.51    3.31
   3   7   1  162.12    5.83
   3   7   1  154.01    6.75
   3   7   2   32.08    3.17
   3   7   3    8.37    1.78
   3   7   4   94.58    3.32
   3   8  -9    3.75    1.31
   3   8  -8   25.66    2.63
   3   8  -7    2.01    1.82
   3   8  -6    5.91    2.20
   3   8  -5  166.80    7.41
   3   8  -4   31.59    3.50
   3   8  -3   58.14    4.33
   3   8  -2    7.81    2.13
   3   8  -2    4.10    1.70
   3   8  -1   88.69    4.37
   3   8  -1   80.91    3.99
   3   8   0  122.04    4.31
   3   8   0  118.88    4.46
   3   8   1   90.18    3.21
   3   9  -8   19.91    1.61
   3   9  -7   18.33    1.70
   3   9  -7   17.04    1.64
   3   9  -6  115.56    4.32
   3   9  -6  115.52    3.71
   3   9  -5   46.35    2.86
   3   9  -5   33.25    1.69
   3   9  -4    1.53    1.26
   3   9  -3   82.07    3.41
   3   9  -2    6.18    1.02
   4 -10  -2   30.69    1.79
   4 -10  -1  220.32    5.83
   4 -10   0   28.78    2.21
   4 -10   1  218.90    6.34
   4 -10   2    3.22    1.22
   4 -10   3   33.81    2.30
   4 -10   4   54.93    2.63
   4 -10   5   23.16    2.00
   4 -10   6  209.99    5.48
   4 -10   7    9.54    1.05
   4  -9  -5   66.76    2.55
   4  -9  -4   74.23    3.38
   4  -9  -4   61.71    2.50
   4  -9  -3   96.67    4.36
   4  -9  -3   92.69    3.53
   4  -9  -2  101.79    4.76
   4  -9  -2   93.93    3.77
   4  -9  -1    2.82    1.61
   4  -9  -1    3.89    1.50
   4  -9   0   69.84    4.07
   4  -9   0   69.17    3.95
   4  -9   1   27.51    2.97
   4  -9   1   31.20    3.42
   4  -9   2   40.77    3.68
   4  -9   3  305.01    9.63
   4  -9   4  229.11    7.84
   4  -9   4  228.28    8.60
   4  -9   5   19.27    2.25
   4  -9   5   16.62    2.57
   4  -9   6   47.13    3.45
   4  -9   6   42.80    2.80
   4  -9   6   40.67    3.26
   4  -9   7   21.36    2.29
   4  -9   8   64.08    3.18
   4  -9   9   71.41    2.60
   4  -8  -7   32.78    1.74
   4  -8  -7   31.83    1.75
   4  -8  -6   57.15    3.21
   4  -8  -6   57.82    3.08
   4  -8  -5  130.15    5.72
   4  -8  -5  124.88    5.25
   4  -8  -4    4.44    2.00
   4  -8  -4    4.22    1.81
   4  -8  -3  106.72    6.04
   4  -8  -3  102.60    5.29
   4  -8  -2  208.19    7.16
   4  -8  -2  229.25    8.77
   4  -8  -2  208.05    7.71
   4  -8  -1  217.07    7.94
   4  -8  -1  225.18    8.73
   4  -8  -1  231.26    7.99
   4  -8   0   71.05    4.70
   4  -8   0   68.72    4.71
   4  -8   0   75.86    4.36
   4  -8   1   23.87    3.62
   4  -8   1   23.74    2.99
   4  -8   1   26.67    3.25
   4  -8   1   24.35    3.44
   4  -8   2    7.62    2.45
   4  -8   2   13.32    2.73
   4  -8   2   13.78    3.01
   4  -8   2   13.25    2.97
   4  -8   3  165.63    7.60
   4  -8   3  151.64    7.71
   4  -8   4   28.76    3.48
   4  -8   4   23.55    3.60
   4  -8   5  243.48    8.83
   4  -8   5  241.64    9.28
   4  -8   6  833.55   16.96
   4  -8   6  868.73   19.58
   4  -8   6  827.11   18.11
   4  -8   6  849.32   18.80
   4  -8   7   47.58    3.05
   4  -8   7   48.78    3.88
   4  -8   7   46.12    3.32
   4  -8   8    2.61    1.12
   4  -8   8    1.85    1.54
   4  -8   9  124.98    3.62
   4  -8   9  137.57    5.03
   4  -8  10   76.33    2.90
   4  -7  -8  141.21    4.35
   4  -7  -8  144.00    4.84
   4  -7  -7   40.74    3.13
   4  -7  -7   40.20    2.80
   4  -7  -6   66.31    4.39
   4  -7  -6   57.67    3.91
   4  -7  -5    3.96    2.06
   4  -7  -4    1.26    2.12
   4  -7  -3  102.59    7.51
   4  -7  -3   92.26    5.93
   4  -7  -2   42.82    5.14
   4  -7  -2   55.50    4.68
   4  -7  -2   58.28    4.79
   4  -7  -2   59.56    4.43
   4  -7  -1  304.64   12.98
   4  -7  -1  283.80    9.13
   4  -7  -1  286.76   10.07
   4  -7  -1  301.69    9.84
   4  -7   0  301.28    9.67
   4  -7   0  296.54    9.97
   4  -7   0  294.23    9.42
   4  -7   0  265.13    9.95
   4  -7   1  575.98   14.71
   4  -7   1  557.11   14.34
   4  -7   1  540.57   15.10
   4  -7   1  560.52   13.42
   4  -7   2  271.51   12.02
   4  -7   2  286.32    9.91
   4  -7   2  284.11    9.20
   4  -7   2  284.44   10.30
   4  -7   3  245.86   11.23
   4  -7   3  263.89    9.66
   4  -7   3  257.10    9.84
   4  -7   4  153.72    8.62
   4  -7   4  153.75    7.31
   4  -7   4  144.43    7.14
   4  -7   5  203.01    8.37
   4  -7   5  211.10    8.51
   4  -7   6  234.81    8.85
   4  -7   6  250.27    8.87
   4  -7   7   39.15    3.49
   4  -7   7   46.20    4.11
   4  -7   7   39.01    3.29
   4  -7   8   45.22    3.50
   4  -7   8   63.71    4.45
   4  -7   9   13.12    1.88
   4  -7   9   16.62    2.37
   4  -7  10   22.86    1.91
   4  -7  10   22.15    2.14
   4  -7  11   73.01    2.58
   4  -6  -9   30.13    1.89
   4  -6  -8   23.09    2.40
   4  -6  -8   18.33    2.02
   4  -6  -7  127.62    5.68
   4  -6  -6   86.97    5.18
   4  -6  -5  147.74    9.32
   4  -6  -5  139.63    6.75
   4  -6  -4  192.58   10.66
   4  -6  -4  178.10    7.78
   4  -6  -3  592.89   19.91
   4  -6  -3  603.63   15.50
   4  -6  -2   11.08    3.27
   4  -6  -2    9.54    2.40
   4  -6  -1   29.78    4.15
   4  -6  -1   25.79    4.23
   4  -6  -1   28.30    3.23
   4  -6  -1   24.36    3.09
   4  -6  -1   31.33    3.06
   4  -6   0  222.71   10.56
   4  -6   0  235.09   11.42
   4  -6   0  228.00    7.99
   4  -6   0  202.21    7.98
   4  -6   1  184.22    9.00
   4  -6   1  176.91    7.33
   4  -6   2   20.49    3.72
   4  -6   2   20.03    2.61
   4  -6   2   18.19    2.77
   4  -6   3  392.64   14.96
   4  -6   3  395.13   11.76
   4  -6   3  412.94   11.92
   4  -6   4  476.29   16.73
   4  -6   4  512.06   13.89
   4  -6   4  519.21   13.65
   4  -6   5  934.43   20.98
   4  -6   5  957.99   20.21
   4  -6   6  366.91   11.63
   4  -6   6  383.20   11.88
   4  -6   6  398.81   10.92
   4  -6   7   10.80    2.38
   4  -6   7   10.07    2.45
   4  -6   8  353.29   11.25
   4  -6   8  374.82   11.45
   4  -6   9   86.52    4.99
   4  -6   9   89.19    4.99
   4  -6  10   58.63    3.65
   4  -6  10   59.65    3.58
   4  -6  11   35.96    2.21
   4  -5  -9   41.10    2.77
   4  -5  -8   39.16    4.76
   4  -5  -7   88.92    7.53
   4  -5  -7   90.97    4.90
   4  -5  -6   32.58    5.27
   4  -5  -6   28.64    3.10
   4  -5  -5  183.08   11.05
   4  -5  -5  186.42    7.15
   4  -5  -4   50.95    5.45
   4  -5  -4   42.81    5.81
   4  -5  -4   58.50    3.91
   4  -5  -3   56.54    4.57
   4  -5  -3   59.29    5.75
   4  -5  -3   50.95    5.74
   4  -5  -2  795.20   22.08
   4  -5  -2  794.97   22.75
   4  -5  -1  101.64    6.94
   4  -5  -1  105.06    7.47
   4  -5   0  171.67    8.56
   4  -5   0  185.43    9.74
   4  -5   1  315.05   11.53
   4  -5   2  116.22    6.00
   4  -5   2  106.38    7.30
   4  -5   3  147.66    8.74
   4  -5   4  911.74   24.48
   4  -5   5  923.17   24.64
   4  -5   5  903.55   19.98
   4  -5   6   54.36    4.09
   4  -5   6   48.69    4.13
   4  -5   7   72.47    5.05
   4  -5   7   67.24    4.69
   4  -5   8  419.60   12.80
   4  -5   8  413.55   12.12
   4  -5   9   44.55    4.05
   4  -5   9   47.08    3.88
   4  -5  10   25.04    2.81
   4  -5  11   39.19    2.42
   4  -4  -9  174.25    8.97
   4  -4  -8  161.12    9.54
   4  -4  -7   80.19    7.31
   4  -4  -6  188.95   10.81
   4  -4  -6  209.24   10.14
   4  -4  -5   83.45    7.16
   4  -4  -5   98.80    7.12
   4  -4  -4  540.13   18.31
   4  -4  -4  592.54   18.40
   4  -4  -3 2670.59   50.97
   4  -4  -3 2662.28   47.23
   4  -4  -3 2806.80   51.18
   4  -4  -3 2663.72   50.60
   4  -4  -2   61.71    4.43
   4  -4  -2   64.15    5.49
   4  -4  -2   69.20    5.82
   4  -4  -1  730.71   15.91
   4  -4  -1  703.30   19.10
   4  -4  -1  703.97   19.57
   4  -4   0   77.08    5.27
   4  -4   0   70.33    5.68
   4  -4   1 1337.47   26.77
   4  -4   2  227.97   10.31
   4  -4   2  248.24    8.30
   4  -4   3 1523.48   33.32
   4  -4   4   86.21    6.72
   4  -4   4   89.82    6.55
   4  -4   5  419.76   14.94
   4  -4   6  827.26   17.36
   4  -4   6  819.52   17.53
   4  -4   6  839.98   22.70
   4  -4   7  929.94   21.03
   4  -4   7  939.47   19.28
   4  -4   7  908.66   19.88
   4  -4   8  424.82   13.06
   4  -4   8  439.00   12.18
   4  -4   8  420.07   11.25
   4  -4   9   27.91    3.39
   4  -4   9   24.64    2.87
   4  -4  10  262.71    9.04
   4  -4  10  270.87    8.14
   4  -4  11   78.27    3.35
   4  -4  12   58.65    2.28
   4  -3  -9  136.35    8.30
   4  -3  -8  147.06    8.96
   4  -3  -7   36.43    4.85
   4  -3  -7   39.31    4.38
   4  -3  -6  190.39    9.99
   4  -3  -6  237.33   10.65
   4  -3  -5  217.77   10.31
   4  -3  -5  233.96   10.51
   4  -3  -4   56.35    5.32
   4  -3  -4   55.02    5.05
   4  -3  -3  458.83   14.60
   4  -3  -3  508.69   15.43
   4  -3  -3  500.85   14.08
   4  -3  -3  456.11   14.58
   4  -3  -2   54.72    4.64
   4  -3  -2   43.40    3.72
   4  -3  -2   48.69    4.40
   4  -3  -2   41.07    3.22
   4  -3  -1  463.08   13.88
   4  -3  -1  486.31   12.39
   4  -3  -1  485.76   14.38
   4  -3   0   10.00    2.15
   4  -3   1  981.85   22.49
   4  -3   1  989.70   20.42
   4  -3   2  131.45    7.35
   4  -3   2  136.72    5.37
   4  -3   3  775.23   20.59
   4  -3   4  479.23   15.07
   4  -3   5   19.19    3.08
   4  -3   6  515.23   13.41
   4  -3   6  500.51   16.00
   4  -3   6  496.17   12.64
   4  -3   6  492.20   11.78
   4  -3   7  307.11   10.31
   4  -3   7  298.18    9.12
   4  -3   7  303.10    9.85
   4  -3   7  289.59    9.18
   4  -3   8  183.55    8.04
   4  -3   8  166.24    6.89
   4  -3   8  164.59    7.06
   4  -3   8  170.42    6.96
   4  -3   9    1.49    1.77
   4  -3   9    3.40    1.82
   4  -3   9    3.17    1.64
   4  -3  10   84.10    4.79
   4  -3  10   86.59    4.15
   4  -3  10   79.06    3.92
   4  -3  11  144.84    4.19
   4  -2 -10   78.26    6.60
   4  -2  -9  141.29    7.88
   4  -2  -8   46.14    5.14
   4  -2  -7  185.88    9.20
   4  -2  -7  197.06    9.35
   4  -2  -6  332.10   12.02
   4  -2  -6  393.12   13.45
   4  -2  -5  364.21   12.14
   4  -2  -5  384.02   13.28
   4  -2  -4 2583.95   45.08
   4  -2  -4 2633.63   47.50
   4  -2  -4 2552.07   46.40
   4  -2  -3 2160.57   39.82
   4  -2  -3 2088.44   38.69
   4  -2  -3 2135.31   37.96
   4  -2  -3 2111.12   37.44
   4  -2  -2  374.97   12.02
   4  -2  -2  383.01   11.37
   4  -2  -2  381.77   11.42
   4  -2  -2  389.32   10.41
   4  -2  -1 1256.05   25.48
   4  -2   0   83.26    5.01
   4  -2   0   74.15    4.66
   4  -2   1  104.04    5.86
   4  -2   1  111.94    5.10
   4  -2   2   32.61    3.63
   4  -2   2   38.94    2.69
   4  -2   2   29.24    2.95
   4  -2   3  246.38    8.66
   4  -2   3  250.28    9.39
   4  -2   4  121.90    6.73
   4  -2   5  394.44   13.15
   4  -2   6  104.96    5.29
   4  -2   6   98.22    6.07
   4  -2   6   97.34    5.32
   4  -2   7  208.14    8.11
   4  -2   7  208.46    8.31
   4  -2   7  195.44    8.03
   4  -2   8  386.24   11.72
   4  -2   8  390.92   11.82
   4  -2   8  380.57   10.28
   4  -2   8  363.01   11.52
   4  -2   9  100.51    5.42
   4  -2   9   91.99    4.60
   4  -2   9  101.38    5.50
   4  -2  10   76.46    4.22
   4  -2  11    8.21    1.32
   4  -2  11    8.70    1.33
   4  -1 -10  151.21    9.17
   4  -1  -9  114.83    8.27
   4  -1  -9  110.86    8.05
   4  -1  -8  885.84   25.01
   4  -1  -8  925.56   25.28
   4  -1  -7  360.32   12.73
   4  -1  -7  350.45   14.21
   4  -1  -7  375.44   14.28
   4  -1  -6  446.01   14.20
   4  -1  -6  455.48   15.41
   4  -1  -6  450.53   15.31
   4  -1  -6  424.61   12.18
   4  -1  -5   71.80    5.48
   4  -1  -5   80.90    5.97
   4  -1  -5   81.94    5.86
   4  -1  -5   74.15    4.49
   4  -1  -4  550.45   15.78
   4  -1  -4  560.77   15.75
   4  -1  -4  562.44   13.53
   4  -1  -4  574.84   15.59
   4  -1  -3  429.81   13.12
   4  -1  -3  438.04   12.90
   4  -1  -3  437.53   11.30
   4  -1  -3  447.29   12.50
   4  -1  -2   84.72    4.76
   4  -1  -1  881.24   16.77
   4  -1  -1  947.12   18.34
   4  -1   0  229.15    6.86
   4  -1   0  214.79    7.54
   4  -1   1  282.78    9.29
   4  -1   2  309.23    8.27
   4  -1   2  312.74   10.40
   4  -1   2  310.13    9.33
   4  -1   3  141.23    7.10
   4  -1   3  150.04    6.51
   4  -1   4   42.48    3.61
   4  -1   4   47.60    2.98
   4  -1   5   19.99    2.21
   4  -1   6  214.63    7.31
   4  -1   6  223.36    8.57
   4  -1   6  213.68    7.69
   4  -1   7   13.18    2.35
   4  -1   7   13.64    2.80
   4  -1   7   12.31    2.65
   4  -1   8  163.85    6.75
   4  -1   8  154.88    7.51
   4  -1   9   46.58    3.98
   4  -1  10  142.01    4.97
   4  -1  10  149.33    5.99
   4  -1  11   42.05    2.35
   4   0 -11  156.37    7.93
   4   0 -10  270.93   12.07
   4   0 -10  296.48   12.68
   4   0  -9  332.63   13.52
   4   0  -9  308.71   11.91
   4   0  -9  311.27   13.44
   4   0  -8 1158.82   28.43
   4   0  -8 1164.65   27.79
   4   0  -8 1140.45   28.75
   4   0  -7  169.02    8.37
   4   0  -7  168.61    9.13
   4   0  -7  175.34    9.54
   4   0  -6  607.69   17.12
   4   0  -6  627.57   17.98
   4   0  -6  617.68   18.14
   4   0  -5  278.02   10.81
   4   0  -5  266.94   10.74
   4   0  -4  331.31   11.36
   4   0  -4  332.17   11.48
   4   0  -3  872.68   20.06
   4   0  -2   18.73    2.40
   4   0  -2   18.26    2.50
   4   0  -1  779.35   14.70
   4   0  -1  787.18   16.85
   4   0  -1  766.30   14.95
   4   0  -1  764.48   16.01
   4   0   0  479.56   11.34
   4   0   0  470.93   10.81
   4   0   1  468.75   13.84
   4   0   2   65.65    5.26
   4   0   3  916.89   23.40
   4   0   3 1005.40   19.04
   4   0   4  172.44    6.54
   4   0   5  580.07   14.07
   4   0   5  596.85   14.99
   4   0   5  596.77   14.44
   4   0   6    9.95    2.10
   4   0   6    6.71    2.19
   4   0   6    7.20    2.27
   4   0   6    6.57    2.08
   4   0   7  217.49    9.09
   4   0   7  226.49    7.98
   4   0   8  136.27    7.05
   4   0   8  139.33    5.93
   4   0   9  149.92    6.80
   4   0  10  287.63    8.11
   4   0  11  196.79    4.59
   4   1 -10  987.75   23.68
   4   1 -10  964.39   24.94
   4   1  -9    1.13    2.16
   4   1  -9   -3.21    2.06
   4   1  -9    0.90    2.37
   4   1  -8   20.82    3.74
   4   1  -8   21.68    3.76
   4   1  -8   14.59    3.73
   4   1  -7  245.49   10.22
   4   1  -7  242.60   10.48
   4   1  -7  236.81   10.73
   4   1  -7  237.84   11.18
   4   1  -6  378.03   12.91
   4   1  -6  384.08   13.73
   4   1  -6  388.18   14.02
   4   1  -5  156.99    7.80
   4   1  -5  154.58    8.11
   4   1  -5  150.26    8.13
   4   1  -4    6.49    2.23
   4   1  -4   10.41    2.50
   4   1  -3  362.85   10.90
   4   1  -3  356.36   11.40
   4   1  -3  372.33   11.98
   4   1  -2   92.54    4.68
   4   1  -2   90.89    5.34
   4   1  -2   83.03    5.01
   4   1  -1  346.02   10.40
   4   1  -1  336.51   10.20
   4   1   0   46.25    3.47
   4   1   0   48.07    4.50
   4   1   1  281.17   11.25
   4   1   2  240.24   10.66
   4   1   2  234.64    7.64
   4   1   3  534.75   17.61
   4   1   3  563.46   13.51
   4   1   4  712.51   16.48
   4   1   4  695.01   16.04
   4   1   4  703.69   16.39
   4   1   5   71.78    4.70
   4   1   5   69.30    4.43
   4   1   5   72.59    4.71
   4   1   5   76.38    5.07
   4   1   6  107.59    5.82
   4   1   6  111.88    5.58
   4   1   6  119.67    6.56
   4   1   6  118.51    6.26
   4   1   7  802.33   19.54
   4   1   7  842.81   18.81
   4   1   8    9.78    2.17
   4   1   8   14.59    2.65
   4   1   9   53.43    3.61
   4   1   9   55.95    3.17
   4   1  10   66.07    2.94
   4   2 -11   19.63    3.23
   4   2 -10  328.14   13.51
   4   2  -9   85.98    7.06
   4   2  -9   81.17    6.87
   4   2  -9   87.56    6.12
   4   2  -8  185.43   10.12
   4   2  -8  183.11   10.30
   4   2  -8  181.63    9.53
   4   2  -7  343.61   13.67
   4   2  -7  308.19   13.28
   4   2  -7  342.38   13.16
   4   2  -6   51.25    5.12
   4   2  -6   44.24    4.97
   4   2  -6   48.14    4.91
   4   2  -5  292.85   11.41
   4   2  -5  299.69   11.86
   4   2  -5  288.46   11.84
   4   2  -4   41.57    4.04
   4   2  -4   41.38    4.37
   4   2  -4   40.08    4.24
   4   2  -3  100.97    5.71
   4   2  -3  101.50    6.42
   4   2  -3   94.94    6.27
   4   2  -2  188.95    8.35
   4   2  -2  184.98    8.40
   4   2  -1   90.94    5.46
   4   2  -1   82.24    5.89
   4   2  -1   84.45    4.07
   4   2   0  633.29   15.74
   4   2   0  636.11   18.21
   4   2   0  619.46   13.12
   4   2   0  648.01   13.94
   4   2   1   54.62    5.41
   4   2   1   60.21    3.85
   4   2   2  315.23   13.26
   4   2   2  299.36    9.56
   4   2   3   80.96    5.15
   4   2   3   80.41    4.80
   4   2   4  298.64   10.37
   4   2   4  287.74    9.82
   4   2   4  290.64   10.20
   4   2   5  910.00   20.85
   4   2   5  895.02   19.98
   4   2   5  894.95   20.73
   4   2   5  884.53   20.07
   4   2   6  240.13    8.86
   4   2   6  249.84    9.19
   4   2   6  237.51    9.34
   4   2   7   66.36    4.50
   4   2   7   61.20    4.60
   4   2   8  246.36    7.95
   4   2   8  243.82    7.77
   4   2   9   53.80    2.72
   4   2   9   53.47    2.61
   4   3 -11  417.66   13.63
   4   3 -10   18.97    3.65
   4   3  -9  183.50   10.16
   4   3  -9  167.43    9.76
   4   3  -8  241.39   11.49
   4   3  -8  210.31   11.26
   4   3  -8  238.25   10.88
   4   3  -7  127.56    8.30
   4   3  -7  122.84    8.45
   4   3  -7  128.59    8.09
   4   3  -6  247.03   11.34
   4   3  -6  258.67   11.57
   4   3  -6  244.90   11.71
   4   3  -5  571.47   17.24
   4   3  -5  568.98   17.71
   4   3  -5  534.49   17.85
   4   3  -4  547.15   17.05
   4   3  -4  544.56   17.67
   4   3  -3    9.81    2.96
   4   3  -3   11.54    2.21
   4   3  -3   12.17    2.67
   4   3  -3   13.11    2.76
   4   3  -2  291.42   11.26
   4   3  -2  296.97    9.15
   4   3  -2  279.87    7.75
   4   3  -1  203.81    7.31
   4   3  -1  212.19    9.25
   4   3  -1  205.59    9.67
   4   3  -1  214.75    7.17
   4   3   0   56.23    4.48
   4   3   0   56.67    5.43
   4   3   0   51.47    3.59
   4   3   0   60.36    3.99
   4   3   1  109.14    7.64
   4   3   1  100.30    5.44
   4   3   2  153.83    7.22
   4   3   2  161.87    6.59
   4   3   2  152.38    6.29
   4   3   3  798.09   19.26
   4   3   3  784.91   18.61
   4   3   3  805.10   19.31
   4   3   3  760.57   16.52
   4   3   4   80.56    5.66
   4   3   4   79.10    5.41
   4   3   4   80.07    5.68
   4   3   4   82.89    4.81
   4   3   5  164.34    7.68
   4   3   5  163.88    8.09
   4   3   5  186.29    7.12
   4   3   6   45.58    3.45
   4   3   6   45.06    4.22
   4   3   7   56.03    3.32
   4   3   7   52.74    3.86
   4   3   8   -1.21    1.20
   4   3   8    0.64    0.83
   4   4 -10    5.98    2.44
   4   4 -10    3.42    2.27
   4   4  -9  246.05    8.70
   4   4  -9  253.45   11.81
   4   4  -8  129.15    6.52
   4   4  -8  139.13    8.93
   4   4  -7   96.23    5.86
   4   4  -7  106.57    7.45
   4   4  -7  103.41    7.98
   4   4  -6  125.59    6.72
   4   4  -6  146.97    8.77
   4   4  -6  131.39    8.89
   4   4  -5  130.16    6.95
   4   4  -5  141.55    8.23
   4   4  -5  139.67    9.06
   4   4  -4 1588.11   32.87
   4   4  -4 1547.79   30.88
   4   4  -3  111.99    6.25
   4   4  -3  123.39    7.75
   4   4  -3  118.56    6.91
   4   4  -2  212.46    8.41
   4   4  -2  218.99   10.26
   4   4  -2  196.13    9.16
   4   4  -2  207.21    6.96
   4   4  -2  206.40    7.74
   4   4  -1   84.01    4.71
   4   4  -1   82.64    6.05
   4   4  -1   85.63    6.21
   4   4  -1   80.10    5.03
   4   4  -1   88.74    4.72
   4   4  -1   78.80    4.93
   4   4   0    1.22    1.80
   4   4   0    2.78    2.19
   4   4   1   30.93    3.55
   4   4   1   31.84    3.56
   4   4   1   29.16    3.50
   4   4   2  361.28   11.92
   4   4   2  346.56   11.50
   4   4   2  346.79   11.04
   4   4   3  260.29   10.15
   4   4   3  255.58    9.92
   4   4   3  243.42   10.25
   4   4   4  209.80    8.77
   4   4   4  178.54    8.62
   4   4   5   22.84    3.42
   4   4   6   49.95    3.84
   4   4   7    4.27    1.43
   4   5  -9   44.12    3.51
   4   5  -9   50.80    4.99
   4   5  -9   56.75    5.74
   4   5  -8   59.63    4.49
   4   5  -8   64.79    6.15
   4   5  -8   67.10    6.08
   4   5  -7   36.33    3.84
   4   5  -7   34.07    4.54
   4   5  -6 1234.74   26.57
   4   5  -6 1219.28   29.28
   4   5  -6 1205.58   24.64
   4   5  -5   80.68    5.75
   4   5  -5   96.46    6.74
   4   5  -5   84.16    5.23
   4   5  -4  502.33   15.07
   4   5  -4  522.82   14.09
   4   5  -3  869.57   20.91
   4   5  -3  852.70   19.78
   4   5  -2  358.82   11.86
   4   5  -2  355.24   11.57
   4   5  -1  153.94    6.50
   4   5  -1  156.33    6.77
   4   5  -1  150.92    6.81
   4   5  -1  168.66    7.75
   4   5   0   46.26    3.95
   4   5   0   42.41    3.84
   4   5   0   52.99    4.68
   4   5   1  199.38    8.11
   4   5   1  189.38    8.22
   4   5   1  197.17    8.44
   4   5   2  131.32    7.66
   4   5   2  138.39    6.93
   4   5   2  136.01    7.63
   4   5   3    4.19    2.09
   4   5   3    1.97    2.39
   4   5   4    5.09    2.43
   4   5   5    4.48    1.96
   4   5   6   36.68    2.35
   4   6  -9   47.12    3.21
   4   6  -8   22.12    2.71
   4   6  -7  212.67    9.79
   4   6  -7  214.25    8.57
   4   6  -7  216.84    7.80
   4   6  -6  605.55   16.27
   4   6  -6  604.75   15.11
   4   6  -5   11.26    2.72
   4   6  -5    4.75    2.35
   4   6  -4  109.01    6.23
   4   6  -3  117.93    6.51
   4   6  -3  110.69    6.35
   4   6  -2  168.08    7.54
   4   6  -2  163.87    7.92
   4   6  -1   20.48    2.88
   4   6  -1   13.02    2.26
   4   6  -1   19.26    3.42
   4   6   0  144.80    5.94
   4   6   0  142.61    6.20
   4   6   1  107.78    5.48
   4   6   1  110.35    6.47
   4   6   2  222.42    8.63
   4   6   3    1.96    1.79
   4   6   4    2.37    1.37
   4   7 -10   40.53    2.69
   4   7  -9   88.85    4.70
   4   7  -8   87.13    5.10
   4   7  -7   20.69    3.11
   4   7  -7   20.68    2.27
   4   7  -6  113.24    6.35
   4   7  -6  111.17    5.21
   4   7  -5  162.99    7.66
   4   7  -5  155.83    6.56
   4   7  -4  191.80    8.14
   4   7  -4  184.70    7.53
   4   7  -3    3.64    2.03
   4   7  -3    5.13    2.14
   4   7  -2   32.02    3.12
   4   7  -1   97.79    4.54
   4   7  -1   92.59    5.30
   4   7   0   46.21    3.73
   4   7   1   50.66    3.49
   4   7   2  155.33    5.01
   4   8  -9    4.58    1.17
   4   8  -8    2.44    1.41
   4   8  -7  166.31    5.97
   4   8  -6  147.64    5.90
   4   8  -5  101.55    4.86
   4   8  -5   99.08    3.46
   4   8  -4   58.20    3.60
   4   8  -3   25.00    2.35
   4   8  -3   25.87    2.34
   4   8  -2    3.79    1.26
   4   8  -2    3.31    1.32
   4   8  -1   25.50    1.89
   5 -10  -1  181.97    4.84
   5 -10   0   24.64    1.91
   5 -10   1   19.36    1.85
   5 -10   2   -0.11    1.04
   5 -10   3  142.11    4.43
   5 -10   4   25.77    1.88
   5 -10   4   23.55    1.67
   5 -10   5  117.24    3.62
   5  -9  -4  140.57    4.51
   5  -9  -4  136.22    3.87
   5  -9  -4  142.63    4.36
   5  -9  -3   40.44    2.81
   5  -9  -3   41.98    2.42
   5  -9  -3   47.54    3.03
   5  -9  -2   14.01    1.94
   5  -9  -2   16.20    1.70
   5  -9  -2   13.84    2.23
   5  -9  -1  168.59    6.20
   5  -9  -1  173.23    5.41
   5  -9  -1  182.55    6.92
   5  -9   0  114.76    4.17
   5  -9   0  126.33    5.95
   5  -9   1  248.26    8.64
   5  -9   2   28.65    3.14
   5  -9   3  477.58   12.38
   5  -9   4  361.03    9.96
   5  -9   5   75.96    4.06
   5  -9   5   73.64    3.83
   5  -9   6   24.69    2.25
   5  -9   7   31.69    2.13
   5  -9   8   43.98    1.87
   5  -8  -7    5.06    0.85
   5  -8  -6   75.83    3.38
   5  -8  -6   71.72    3.36
   5  -8  -5   35.42    2.94
   5  -8  -5   39.21    2.99
   5  -8  -4  224.67    8.01
   5  -8  -4  222.59    7.61
   5  -8  -3   71.50    4.89
   5  -8  -3   69.18    4.32
   5  -8  -2   14.31    2.66
   5  -8  -2   18.78    2.63
   5  -8  -1  181.14    7.90
   5  -8  -1  195.26    7.35
   5  -8   0   54.20    5.17
   5  -8   0   52.99    4.25
   5  -8   0   56.87    3.95
   5  -8   1   10.74    2.60
   5  -8   1    7.28    1.70
   5  -8   1    9.98    2.60
   5  -8   2  133.64    7.56
   5  -8   2  130.36    5.40
   5  -8   2  129.61    6.89
   5  -8   3   95.89    6.07
   5  -8   3   99.49    5.93
   5  -8   4   45.01    4.14
   5  -8   5   23.18    3.06
   5  -8   6   58.37    3.51
   5  -8   6   53.43    3.81
   5  -8   7   42.81    2.81
   5  -8   7   43.36    3.15
   5  -8   8   85.49    3.34
   5  -8   8   88.34    3.76
   5  -8   9   99.33    3.11
   5  -7  -8   25.82    1.52
   5  -7  -8   28.68    2.10
   5  -7  -7  147.75    5.35
   5  -7  -7  148.98    5.78
   5  -7  -6   59.04    4.05
   5  -7  -6   64.02    4.43
   5  -7  -5  146.85    6.85
   5  -7  -5  141.64    6.84
   5  -7  -4  162.79    7.75
   5  -7  -4  165.90    7.51
   5  -7  -3   90.69    5.89
   5  -7  -3   97.63    5.89
   5  -7  -2  627.95   19.57
   5  -7  -2  617.76   16.38
   5  -7  -2  600.61   15.73
   5  -7  -1   91.19    5.78
   5  -7  -1   94.88    5.61
   5  -7   0   79.11    5.24
   5  -7   0   76.77    4.93
   5  -7   1   79.85    6.82
   5  -7   1   90.85    5.50
   5  -7   1   94.07    5.30
   5  -7   1   94.03    5.97
   5  -7   2  442.01   16.27
   5  -7   2  438.82   12.18
   5  -7   2  477.69   14.02
   5  -7   3  115.91    7.82
   5  -7   3  122.23    5.59
   5  -7   3  101.84    6.25
   5  -7   4  249.91   11.45
   5  -7   4  257.36    9.91
   5  -7   5  157.30    7.49
   5  -7   6  142.64    6.49
   5  -7   7  212.03    7.72
   5  -7   7  196.91    7.35
   5  -7   8    6.34    1.63
   5  -7   8    5.95    1.63
   5  -7   9  220.10    6.27
   5  -7   9  212.65    5.94
   5  -7  10  114.85    3.23
   5  -6  -9   14.64    1.87
   5  -6  -8  166.92    5.68
   5  -6  -8  176.52    6.61
   5  -6  -7  133.43    5.90
   5  -6  -6  123.73    6.24
   5  -6  -6  114.77    5.48
   5  -6  -5  134.12    8.53
   5  -6  -5  139.87    7.00
   5  -6  -5  129.94    6.19
   5  -6  -4   14.92    3.75
   5  -6  -4   19.97    3.15
   5  -6  -4   15.31    2.69
   5  -6  -4   18.34    3.40
   5  -6  -3   81.24    7.10
   5  -6  -3   82.16    5.48
   5  -6  -3   86.19    5.59
   5  -6  -2  574.24   19.54
   5  -6  -2  602.62   15.63
   5  -6  -2  577.26   15.26
   5  -6  -1  426.64   15.13
   5  -6  -1  446.78   12.84
   5  -6  -1  447.11   12.69
   5  -6   0  198.58    6.94
   5  -6   0  185.79    9.11
   5  -6   0  202.02    8.15
   5  -6   0  194.36    7.83
   5  -6   1  173.98   10.25
   5  -6   1  179.75    7.34
   5  -6   1  164.35    7.24
   5  -6   1  176.29    7.68
   5  -6   2  500.56   18.37
   5  -6   2  544.20   13.80
   5  -6   2  556.42   14.82
   5  -6   2  511.10   14.22
   5  -6   3  419.45   16.14
   5  -6   3  390.27   11.25
   5  -6   3  416.99   12.60
   5  -6   3  395.03   12.02
   5  -6   4  277.84   12.85
   5  -6   4  288.05    9.19
   5  -6   4  302.80   10.65
   5  -6   4  278.81    9.62
   5  -6   5  336.13    9.89
   5  -6   5  347.33   10.62
   5  -6   5  318.21   11.23
   5  -6   6    9.80    2.23
   5  -6   7  375.89   11.85
   5  -6   7  378.97   10.87
   5  -6   8  142.96    6.54
   5  -6   8  148.86    5.93
   5  -6   9  175.98    6.47
   5  -6   9  177.36    5.73
   5  -6  10  214.61    5.95
   5  -6  10  206.72    4.92
   5  -5 -10   27.50    2.10
   5  -5  -9  124.89    5.42
   5  -5  -8    8.64    1.81
   5  -5  -7  286.11   11.03
   5  -5  -7  284.01    9.23
   5  -5  -6   49.08    4.91
   5  -5  -6   54.26    5.69
   5  -5  -6   52.95    4.21
   5  -5  -5 1259.29   27.83
   5  -5  -5 1225.50   30.15
   5  -5  -5 1193.69   24.88
   5  -5  -5 1200.32   23.07
   5  -5  -4 1493.06   31.14
   5  -5  -4 1547.53   35.03
   5  -5  -4 1520.26   35.24
   5  -5  -4 1515.90   29.16
   5  -5  -4 1474.50   27.23
   5  -5  -3  452.33   16.33
   5  -5  -3  413.23   16.18
   5  -5  -3  444.04   12.45
   5  -5  -3  443.12   12.56
   5  -5  -2   82.28    6.55
   5  -5  -2   70.09    6.59
   5  -5  -2   90.18    5.13
   5  -5  -2   79.84    4.91
   5  -5  -1   28.42    3.93
   5  -5  -1   21.35    3.92
   5  -5   0  451.67   14.69
   5  -5   0  439.09   11.09
   5  -5   1  252.70    9.73
   5  -5   1  274.00   12.68
   5  -5   2   83.99    7.08
   5  -5   2   98.69    5.07
   5  -5   2   97.59    5.36
   5  -5   3  354.18   15.01
   5  -5   3  370.95   10.69
   5  -5   3  397.81   11.80
   5  -5   4  292.29   12.35
   5  -5   4  274.24    9.15
   5  -5   4  282.41   10.03
   5  -5   5  620.29   15.27
   5  -5   5  640.18   14.91
   5  -5   5  612.35   16.41
   5  -5   6  104.90    5.51
   5  -5   6  122.37    5.87
   5  -5   7  287.89   10.40
   5  -5   7  277.25    8.92
   5  -5   7  308.44    9.37
   5  -5   8  259.68    9.34
   5  -5   8  260.01    8.05
   5  -5   9    4.50    1.69
   5  -5  10  131.83    4.91
   5  -5  10  123.04    3.62
   5  -4 -10   33.35    2.62
   5  -4  -8   64.64    5.96
   5  -4  -7   23.58    4.15
   5  -4  -7   24.26    3.97
   5  -4  -7   22.34    3.53
   5  -4  -6  269.77    8.59
   5  -4  -6  259.70   11.97
   5  -4  -6  259.25   12.08
   5  -4  -6  285.29   11.12
   5  -4  -5  283.74    8.81
   5  -4  -5  298.03   12.21
   5  -4  -5  293.00   12.87
   5  -4  -5  270.18   12.24
   5  -4  -5  289.21   10.81
   5  -4  -4  303.28   11.77
   5  -4  -4  308.88   13.01
   5  -4  -4  295.82   12.94
   5  -4  -3   85.78    5.81
   5  -4  -3   87.05    6.75
   5  -4  -3   75.12    6.48
   5  -4  -2  335.51   11.36
   5  -4  -2  357.57   13.33
   5  -4  -2  341.42   13.52
   5  -4  -1  104.87    6.69
   5  -4   0  526.23   15.33
   5  -4   0  504.77   11.97
   5  -4   1  345.64   13.74
   5  -4   1  352.58    9.02
   5  -4   2  426.50   15.79
   5  -4   3   83.54    7.00
   5  -4   4   34.19    4.16
   5  -4   4   34.04    3.25
   5  -4   4   33.38    3.51
   5  -4   5  397.27   11.70
   5  -4   5  386.06   13.78
   5  -4   6  620.39   15.69
   5  -4   6  642.71   14.35
   5  -4   7   52.76    4.51
   5  -4   7   48.70    3.57
   5  -4   7   46.29    3.91
   5  -4   8  133.92    6.63
   5  -4   8  146.21    5.73
   5  -4   8  128.09    5.84
   5  -4   9   49.93    3.76
   5  -4   9   52.22    2.93
   5  -4  10   19.11    2.05
   5  -4  11    4.68    0.83
   5  -3  -9   97.04    7.34
   5  -3  -8   16.91    3.59
   5  -3  -8    9.31    3.38
   5  -3  -7  393.09   14.60
   5  -3  -7  414.50   16.04
   5  -3  -7  412.74   14.14
   5  -3  -7  414.78   15.01
   5  -3  -6  589.87   18.72
   5  -3  -6  589.84   19.20
   5  -3  -6  560.35   17.57
   5  -3  -6  610.77   18.14
   5  -3  -5  493.12   16.73
   5  -3  -5  453.65   16.02
   5  -3  -5  482.62   15.70
   5  -3  -5  517.10   15.54
   5  -3  -4   19.54    3.59
   5  -3  -4   26.34    4.02
   5  -3  -4   27.94    3.80
   5  -3  -4   22.83    3.25
   5  -3  -3  229.78   10.58
   5  -3  -3  209.26    9.45
   5  -3  -3  227.01    9.99
   5  -3  -3  247.78    8.89
   5  -3  -2  396.53   13.86
   5  -3  -2  391.80   13.61
   5  -3  -1  491.96   11.66
   5  -3  -1  488.16   14.92
   5  -3   0  119.81    7.25
   5  -3   0  128.31    5.13
   5  -3   0  126.15    6.62
   5  -3   1  615.20   18.43
   5  -3   1  632.47   13.41
   5  -3   1  669.41   16.00
   5  -3   2  300.55   12.50
   5  -3   3  376.30   13.30
   5  -3   4   46.25    3.71
   5  -3   4   49.19    4.52
   5  -3   5  448.60   12.74
   5  -3   5  435.10   13.89
   5  -3   6  182.96    7.70
   5  -3   6  184.66    7.82
   5  -3   7   85.92    5.28
   5  -3   7   90.99    5.47
   5  -3   7   79.88    4.88
   5  -3   8    3.53    1.97
   5  -3   8    4.27    1.97
   5  -3   8    3.74    1.76
   5  -3   9  166.39    6.43
   5  -3   9  169.54    5.94
   5  -3  10   53.33    2.44
   5  -2  -9  177.66   10.15
   5  -2  -8  119.42    8.66
   5  -2  -8  145.19    8.95
   5  -2  -7   29.29    4.85
   5  -2  -7   36.35    4.50
   5  -2  -7   36.82    4.73
   5  -2  -6  165.90    9.08
   5  -2  -6  146.93    9.27
   5  -2  -6  140.03    7.26
   5  -2  -6  154.51    8.68
   5  -2  -5 1139.50   27.15
   5  -2  -5 1074.44   26.93
   5  -2  -5 1096.15   24.38
   5  -2  -5 1065.44   25.57
   5  -2  -4  403.52   14.33
   5  -2  -4  387.88   13.98
   5  -2  -4  400.36   12.51
   5  -2  -4  378.87   12.62
   5  -2  -3   50.74    4.83
   5  -2  -3   51.54    4.88
   5  -2  -3   47.23    4.23
   5  -2  -3   42.76    3.91
   5  -2  -2  373.02    9.61
   5  -2  -2  356.13   12.72
   5  -2  -1  644.01   16.59
   5  -2  -1  646.71   17.22
   5  -2   0  124.35    6.83
   5  -2   0  135.89    5.19
   5  -2   0  114.96    6.21
   5  -2   1  452.27   14.37
   5  -2   1  470.44   10.99
   5  -2   1  485.43   12.79
   5  -2   1  466.25   13.66
   5  -2   2   32.40    2.71
   5  -2   2   31.14    3.48
   5  -2   3  407.69   10.25
   5  -2   3  413.87   12.93
   5  -2   3  415.76   12.65
   5  -2   4  586.37   13.05
   5  -2   4  608.04   14.79
   5  -2   5  477.31   12.20
   5  -2   5  479.45   13.42
   5  -2   5  450.54   11.98
   5  -2   6   19.22    2.62
   5  -2   6   23.20    3.22
   5  -2   6   20.16    2.73
   5  -2   7   34.62    3.21
   5  -2   7   31.67    3.72
   5  -2   7   33.03    3.55
   5  -2   8   63.50    4.10
   5  -2   8   70.82    4.70
   5  -2   9    4.25    1.74
   5  -2  10   19.27    1.50
   5  -2  10   26.30    1.97
   5  -1 -10   14.29    3.31
   5  -1  -9  414.48   15.90
   5  -1  -9  420.85   15.94
   5  -1  -8   83.04    6.13
   5  -1  -8   91.45    7.56
   5  -1  -8   84.38    7.07
   5  -1  -7  416.97   14.90
   5  -1  -7  428.86   16.26
   5  -1  -7  437.92   15.96
   5  -1  -6  514.44   16.86
   5  -1  -6  523.55   17.64
   5  -1  -6  535.02   17.31
   5  -1  -5   77.88    6.26
   5  -1  -5   80.01    6.49
   5  -1  -5   87.40    6.40
   5  -1  -5   82.89    4.38
   5  -1  -4   68.23    5.69
   5  -1  -4   54.33    5.44
   5  -1  -4   61.86    5.13
   5  -1  -4   62.41    3.75
   5  -1  -3   77.49    5.91
   5  -1  -3   83.70    4.15
   5  -1  -2  320.08   11.72
   5  -1  -2  320.37    9.70
   5  -1  -2  325.03   10.80
   5  -1  -2  328.74    9.73
   5  -1  -1  487.11   12.77
   5  -1  -1  461.90   12.66
   5  -1   0  206.59    8.42
   5  -1   0  205.06    8.19
   5  -1   0  217.62    6.91
   5  -1   1  178.20    7.16
   5  -1   1  177.17    8.55
   5  -1   1  170.56    6.23
   5  -1   2   37.46    4.16
   5  -1   2   38.92    3.14
   5  -1   3  209.10    9.70
   5  -1   3  208.41    7.35
   5  -1   4  307.03    9.56
   5  -1   4  332.77   10.47
   5  -1   4  335.61   10.04
   5  -1   5 1444.28   26.70
   5  -1   5 1448.73   28.76
   5  -1   5 1430.41   27.95
   5  -1   6   19.26    2.97
   5  -1   6   15.80    3.01
   5  -1   7  283.47   10.34
   5  -1   8   63.20    4.55
   5  -1   9  483.08   11.88
   5  -1  10  143.44    4.42
   5   0 -10  283.36   12.03
   5   0  -9  106.86    7.85
   5   0  -9   92.76    7.56
   5   0  -8  125.76    7.36
   5   0  -8  122.32    8.49
   5   0  -8  122.54    8.00
   5   0  -8  123.19    8.42
   5   0  -7  133.33    8.11
   5   0  -7  134.23    8.71
   5   0  -7  157.05    9.06
   5   0  -7  148.86    9.12
   5   0  -6  347.75   13.24
   5   0  -6  349.39   13.77
   5   0  -6  335.41   13.36
   5   0  -6  340.07   13.65
   5   0  -6  326.37    8.79
   5   0  -5  138.38    8.06
   5   0  -5  137.73    8.20
   5   0  -5  121.46    4.95
   5   0  -4  455.01   14.21
   5   0  -4  461.83   15.01
   5   0  -4  451.50   10.69
   5   0  -3 1230.14   26.23
   5   0  -3 1308.86   27.55
   5   0  -3 1276.62   22.89
   5   0  -2  725.26   17.40
   5   0  -2  755.47   18.26
   5   0  -2  767.50   15.50
   5   0  -1  529.38   13.89
   5   0  -1  547.36   13.44
   5   0   0  244.17   10.70
   5   0   0  264.04    8.15
   5   0   1  153.28    8.51
   5   0   1  162.99    6.38
   5   0   2 1527.92   33.36
   5   0   2 1477.14   27.71
   5   0   3  144.90    8.71
   5   0   3  157.35    6.80
   5   0   3  149.15    6.56
   5   0   4  337.38   10.42
   5   0   4  332.84    9.27
   5   0   4  322.34   10.69
   5   0   4  335.68   10.78
   5   0   5  409.59   11.81
   5   0   5  424.41   13.04
   5   0   5  441.36   12.89
   5   0   6   68.47    4.36
   5   0   6   81.10    5.62
   5   0   7   15.75    2.85
   5   0   8   72.99    4.62
   5   0   9   77.67    3.88
   5   1 -11  100.29    6.91
   5   1 -10   16.75    3.57
   5   1  -9   70.28    6.75
   5   1  -9   85.26    7.15
   5   1  -8  531.11   15.97
   5   1  -8  504.99   18.49
   5   1  -8  501.16   17.18
   5   1  -7  319.60   12.89
   5   1  -7  298.69   13.52
   5   1  -6  102.75    6.90
   5   1  -6   90.91    7.09
   5   1  -6  104.26    7.25
   5   1  -5 1112.94   25.47
   5   1  -5 1069.40   26.57
   5   1  -5 1117.08   26.89
   5   1  -5 1088.09   19.81
   5   1  -4  389.52   12.60
   5   1  -4  400.08   13.81
   5   1  -4  389.61   13.71
   5   1  -4  398.26    9.65
   5   1  -3    5.40    1.86
   5   1  -3   10.56    2.66
   5   1  -3    5.71    2.17
   5   1  -2  390.33   12.46
   5   1  -2  397.61   12.62
   5   1  -2  398.13   10.30
   5   1  -1  184.52    7.78
   5   1  -1  165.92    9.15
   5   1  -1  175.76    7.75
   5   1  -1  172.61    6.57
   5   1   0  159.91    9.25
   5   1   0  174.30    6.75
   5   1   1  154.37    9.10
   5   1   1  156.13    6.69
   5   1   2  389.89   15.26
   5   1   2  392.73   11.85
   5   1   2  405.18   11.36
   5   1   3  140.94    6.91
   5   1   3  144.88    6.44
   5   1   3  142.82    6.07
   5   1   3  139.10    6.79
   5   1   4  138.05    6.96
   5   1   4  138.45    6.50
   5   1   4  128.35    6.60
   5   1   4  145.26    6.41
   5   1   4  142.22    7.05
   5   1   5   99.64    5.80
   5   1   5  102.49    5.49
   5   1   5  120.02    5.90
   5   1   5  114.78    6.45
   5   1   6  212.86    7.79
   5   1   6  212.29    7.45
   5   1   6  221.61    8.99
   5   1   6  227.65    7.92
   5   1   7  329.22   10.40
   5   1   7  328.75    8.85
   5   1   8   54.26    3.47
   5   1   9   66.34    2.76
   5   2 -10   26.16    4.11
   5   2  -9  285.32   13.34
   5   2  -8   28.60    4.07
   5   2  -8   19.79    4.27
   5   2  -7  505.35   17.12
   5   2  -7  482.73   17.81
   5   2  -7  516.26   17.58
   5   2  -6  315.50   12.63
   5   2  -6  320.43   13.87
   5   2  -6  334.70   13.41
   5   2  -5  164.34    8.46
   5   2  -5  180.70    9.53
   5   2  -5  164.72    9.53
   5   2  -4   96.18    6.12
   5   2  -4   96.69    6.73
   5   2  -4   95.92    7.02
   5   2  -4   94.00    4.20
   5   2  -3   27.09    3.97
   5   2  -3   24.86    3.57
   5   2  -3   26.58    2.48
   5   2  -2  217.19    7.63
   5   2  -2  233.15    9.75
   5   2  -2  208.62   10.42
   5   2  -2  197.28    9.64
   5   2  -2  211.37    7.36
   5   2  -1  425.59   11.23
   5   2  -1  441.82   15.79
   5   2  -1  459.50   11.95
   5   2   0  458.38   16.62
   5   2   0  464.09   12.68
   5   2   1   -0.20    1.68
   5   2   1   -2.19    2.14
   5   2   1    0.68    1.87
   5   2   1    1.53    1.68
   5   2   2  207.13    8.74
   5   2   2  221.57    8.48
   5   2   2  212.76    8.33
   5   2   3   21.35    3.36
   5   2   3   21.81    3.16
   5   2   3   20.83    3.13
   5   2   3   22.19    3.22
   5   2   4   21.10    3.24
   5   2   4   26.78    3.36
   5   2   4   26.93    3.47
   5   2   4   25.21    3.09
   5   2   5   84.06    5.27
   5   2   5   84.55    5.17
   5   2   5   85.15    5.19
   5   2   5   83.08    5.17
   5   2   6   35.30    3.27
   5   2   6   37.08    3.25
   5   2   7   23.40    2.36
   5   2   7   25.20    2.37
   5   2   8   13.40    1.40
   5   3 -10    8.05    1.75
   5   3 -10    9.30    2.91
   5   3  -9   78.06    6.92
   5   3  -9   81.12    5.11
   5   3  -8    0.57    2.27
   5   3  -7  127.41    9.03
   5   3  -7  130.97    8.31
   5   3  -6    6.23    2.43
   5   3  -6    2.21    2.62
   5   3  -6    4.15    2.22
   5   3  -5  220.67   11.50
   5   3  -5  230.82    7.45
   5   3  -5  239.85   11.35
   5   3  -4   35.63    3.08
   5   3  -4   35.41    4.92
   5   3  -4   37.49    4.37
   5   3  -4   40.83    4.66
   5   3  -4   41.62    3.97
   5   3  -3  378.91   10.06
   5   3  -3  382.37   10.43
   5   3  -3  359.41   11.54
   5   3  -3  355.08   13.59
   5   3  -2  350.47   10.29
   5   3  -2  371.40   12.94
   5   3  -2  357.67   13.86
   5   3  -2  357.55   10.94
   5   3  -2  369.31   10.58
   5   3  -1  467.37   12.75
   5   3  -1  468.30   12.41
   5   3  -1  467.14   16.50
   5   3  -1  479.51   13.01
   5   3  -1  479.75   12.78
   5   3   0  715.45   17.55
   5   3   0  735.54   22.01
   5   3   0  733.77   15.91
   5   3   0  731.24   17.48
   5   3   0  728.93   15.83
   5   3   0  727.16   16.91
   5   3   1  558.21   15.23
   5   3   1  540.19   13.91
   5   3   1  533.22   13.76
   5   3   2   60.38    5.08
   5   3   2   59.63    4.76
   5   3   2   60.79    4.23
   5   3   3   45.48    4.37
   5   3   3   49.98    4.48
   5   3   3   47.34    4.51
   5   3   3   47.10    3.67
   5   3   4    4.27    2.05
   5   3   4    5.73    2.21
   5   3   4    1.67    2.24
   5   3   4    2.32    1.40
   5   3   5  165.15    6.01
   5   3   5  160.15    6.94
   5   3   6   39.16    2.53
   5   3   6   41.53    3.06
   5   3   7  102.09    3.39
   5   4 -10  145.48    5.91
   5   4  -9   39.42    4.88
   5   4  -9   40.83    4.78
   5   4  -9   43.68    3.68
   5   4  -8    3.24    1.91
   5   4  -8    2.22    2.32
   5   4  -8    8.07    2.74
   5   4  -7  534.31   18.88
   5   4  -7  535.31   17.85
   5   4  -7  540.91   15.48
   5   4  -6  218.43   11.75
   5   4  -6  228.91   10.74
   5   4  -6  221.89    9.56
   5   4  -5  314.77   11.68
   5   4  -5  289.43   11.09
   5   4  -4  889.06   21.13
   5   4  -4  855.71   18.16
   5   4  -3  228.23    9.13
   5   4  -3  227.94   10.13
   5   4  -3  216.83    8.07
   5   4  -3  219.78    8.85
   5   4  -2   45.60    3.63
   5   4  -2   39.38    4.55
   5   4  -2   47.46    4.03
   5   4  -2   45.09    3.98
   5   4  -2   45.77    4.21
   5   4  -1  271.82    9.30
   5   4  -1  284.11   12.10
   5   4  -1  280.34    9.35
   5   4  -1  272.91    9.68
   5   4  -1  284.70   10.12
   5   4   0  158.42    7.40
   5   4   0  167.37    7.50
   5   4   1  116.15    6.34
   5   4   1  106.37    6.28
   5   4   1  115.21    6.04
   5   4   2   71.94    5.05
   5   4   2   73.46    5.24
   5   4   2   68.43    5.41
   5   4   3  121.00    6.38
   5   4   3  104.19    6.31
   5   4   4   52.04    4.13
   5   4   5  172.17    6.16
   5   4   6   94.42    3.35
   5   5 -10   31.51    2.40
   5   5  -9  126.55    5.82
   5   5  -9  122.63    5.53
   5   5  -8  182.12    7.63
   5   5  -8  167.51    6.98
   5   5  -7   46.78    4.20
   5   5  -7   46.19    4.55
   5   5  -7   47.51    4.06
   5   5  -6  234.63    9.56
   5   5  -6  207.20    8.64
   5   5  -5  174.00    8.25
   5   5  -5  163.27    7.78
   5   5  -4  741.31   18.73
   5   5  -4  735.45   18.60
   5   5  -3   21.37    3.16
   5   5  -3   17.65    3.10
   5   5  -2   47.75    3.95
   5   5  -2   44.78    4.38
   5   5  -1   37.98    3.27
   5   5  -1   32.51    3.37
   5   5  -1   35.72    4.00
   5   5   0  313.95    9.76
   5   5   0  312.75   10.41
   5   5   0  318.47   10.76
   5   5   1   17.70    2.87
   5   5   1   23.03    3.49
   5   5   2   19.94    2.77
   5   5   2   17.45    3.00
   5   5   3   53.22    3.91
   5   5   4  233.35    6.86
   5   6  -8  190.06    6.97
   5   6  -8  174.34    6.32
   5   6  -7   17.95    2.51
   5   6  -7   20.89    2.63
   5   6  -6    6.22    1.95
   5   6  -6    7.40    2.33
   5   6  -5   14.86    2.91
   5   6  -4    5.67    2.25
   5   6  -4    8.35    2.46
   5   6  -3   35.21    3.46
   5   6  -3   27.83    3.48
   5   6  -2   97.62    4.90
   5   6  -2  100.99    4.78
   5   6  -2  111.95    6.26
   5   6  -1    4.74    1.67
   5   6   0   48.07    3.31
   5   6   0   38.82    3.74
   5   6   1   43.20    3.54
   5   6   2  135.96    5.18
   5   6   3   36.27    2.12
   5   7 -10   44.61    2.30
   5   7  -9   78.32    3.75
   5   7  -8  250.39    7.72
   5   7  -7   15.83    2.47
   5   7  -7   18.94    1.95
   5   7  -6   42.49    3.48
   5   7  -6   40.34    2.91
   5   7  -5  337.90    9.65
   5   7  -5  319.91    9.11
   5   7  -4   17.94    2.35
   5   7  -4   19.50    2.56
   5   7  -3   10.74    1.79
   5   7  -2   50.10    2.48
   5   7  -2   59.81    3.83
   5   7  -1   59.43    3.48
   5   7   0   30.42    2.23
   5   8  -7   63.97    2.58
   5   8  -6   65.19    2.69
   5   8  -5  120.98    3.59
   6 -10   0   49.23    2.06
   6 -10   1   55.65    2.33
   6 -10   2   53.41    2.10
   6 -10   2   55.49    2.33
   6  -9  -3    3.95    1.10
   6  -9  -3    5.45    1.03
   6  -9  -2  105.00    3.77
   6  -9  -2  111.99    4.32
   6  -9  -1   22.00    1.89
   6  -9  -1   17.60    2.18
   6  -9   0   71.65    3.12
   6  -9   0   77.42    4.15
   6  -9   1  137.07    4.18
   6  -9   1  164.03    6.14
   6  -9   2  184.50    6.64
   6  -9   3    9.79    1.85
   6  -9   4  139.71    4.11
   6  -9   4  151.85    4.94
   6  -9   4  148.77    5.36
   6  -9   5   32.49    1.67
   6  -9   5   38.92    2.24
   6  -9   6   75.53    2.53
   6  -8  -6   29.36    1.93
   6  -8  -5  301.14    7.91
   6  -8  -5  300.30    6.79
   6  -8  -5  298.98    7.88
   6  -8  -4   13.23    1.63
   6  -8  -4   13.17    2.15
   6  -8  -4   13.41    1.83
   6  -8  -4   13.43    2.08
   6  -8  -3   55.98    3.00
   6  -8  -3   52.03    3.84
   6  -8  -3   56.68    3.79
   6  -8  -3   54.96    3.65
   6  -8  -2   24.59    2.94
   6  -8  -2   23.90    2.84
   6  -8  -2   23.76    2.83
   6  -8  -1   92.82    4.98
   6  -8  -1   94.81    5.38
   6  -8   0  218.07    7.68
   6  -8   0  227.78    8.61
   6  -8   1   26.97    2.70
   6  -8   1   31.39    3.54
   6  -8   2   50.12    3.36
   6  -8   2   50.16    4.23
   6  -8   3   91.76    4.22
   6  -8   3   89.66    5.36
   6  -8   4  584.65   13.42
   6  -8   4  605.43   14.85
   6  -8   5    1.23    1.25
   6  -8   6  162.21    5.42
   6  -8   6  157.05    5.07
   6  -8   7  327.85    7.42
   6  -8   7  326.01    6.93
   6  -7  -8   56.99    2.37
   6  -7  -7   94.49    3.88
   6  -7  -7   88.81    3.52
   6  -7  -7   94.14    4.08
   6  -7  -6  103.19    4.73
   6  -7  -6  113.67    5.26
   6  -7  -5  188.52    7.36
   6  -7  -5  197.44    7.71
   6  -7  -4  130.15    6.61
   6  -7  -4  128.11    6.61
   6  -7  -3  214.85    8.82
   6  -7  -3  222.41    8.83
   6  -7  -2   88.47    4.78
   6  -7  -2   82.90    5.58
   6  -7  -2   91.01    5.68
   6  -7  -2   91.35    5.45
   6  -7  -1   15.24    3.47
   6  -7  -1   11.99    2.13
   6  -7  -1   11.87    2.65
   6  -7  -1   12.94    2.76
   6  -7  -1   10.86    2.68
   6  -7   0   60.02    5.93
   6  -7   0   67.74    4.83
   6  -7   0   66.83    4.96
   6  -7   1    5.52    2.41
   6  -7   1    5.02    2.34
   6  -7   1    3.41    1.98
   6  -7   2   95.36    7.16
   6  -7   2   83.92    5.07
   6  -7   2   90.61    5.88
   6  -7   3    9.37    2.74
   6  -7   3   11.27    2.59
   6  -7   3    8.00    1.90
   6  -7   4  106.57    5.11
   6  -7   4   95.97    5.87
   6  -7   5  137.87    5.36
   6  -7   5  143.21    5.71
   6  -7   6  379.68   10.83
   6  -7   6  392.46    9.67
   6  -7   7  119.09    5.16
   6  -7   7  123.68    4.36
   6  -7   8   79.71    3.47
   6  -7   8   69.73    2.38
   6  -6  -9  129.20    3.84
   6  -6  -8    8.35    1.25
   6  -6  -8   11.59    1.96
   6  -6  -7   43.96    3.05
   6  -6  -7   47.53    3.67
   6  -6  -6  182.63    7.24
   6  -6  -6  194.61    7.95
   6  -6  -5  307.46   10.31
   6  -6  -5  315.31   10.82
   6  -6  -4   66.11    4.97
   6  -6  -4   76.92    5.38
   6  -6  -3  109.42    6.32
   6  -6  -3  109.88    6.40
   6  -6  -2  630.26   15.69
   6  -6  -2  634.50   16.83
   6  -6  -2  638.80   16.61
   6  -6  -1   12.26    2.41
   6  -6  -1   13.68    2.88
   6  -6  -1   15.79    2.44
   6  -6  -1   16.10    2.83
   6  -6  -1   11.67    2.67
   6  -6   0   41.60    5.27
   6  -6   0   38.07    3.18
   6  -6   0   34.73    3.66
   6  -6   0   39.55    3.89
   6  -6   1  133.24    8.96
   6  -6   1  136.88    6.73
   6  -6   1  123.35    6.61
   6  -6   2  171.08   10.22
   6  -6   2  172.28    7.57
   6  -6   2  166.90    7.90
   6  -6   3  117.33    8.30
   6  -6   3  131.34    6.43
   6  -6   3  123.64    6.85
   6  -6   4  119.10    5.95
   6  -6   4  111.32    5.25
   6  -6   4  109.27    6.50
   6  -6   5  188.61    7.26
   6  -6   5  192.77    6.85
   6  -6   6  124.96    6.30
   6  -6   6  119.75    5.32
   6  -6   6  121.06    5.04
   6  -6   7   88.99    4.94
   6  -6   7   88.51    3.77
   6  -6   7   84.17    3.77
   6  -6   8  201.56    6.71
   6  -6   9  441.25    9.22
   6  -5  -9  121.21    4.82
   6  -5  -9  113.23    4.50
   6  -5  -8  176.35    6.72
   6  -5  -7  132.06    5.71
   6  -5  -7  133.96    6.41
   6  -5  -6   25.30    3.49
   6  -5  -6   36.77    3.52
   6  -5  -6   31.80    3.67
   6  -5  -5  130.63    8.37
   6  -5  -5  120.97    6.25
   6  -5  -5  122.18    6.65
   6  -5  -4  151.35    9.24
   6  -5  -4  143.22    6.97
   6  -5  -4  152.39    7.34
   6  -5  -3  332.91   10.91
   6  -5  -3  333.93   11.13
   6  -5  -2  237.61    8.97
   6  -5  -2  228.04    8.88
   6  -5  -2  235.99    9.04
   6  -5  -2  230.97    7.96
   6  -5  -1   37.48    4.31
   6  -5  -1   32.55    3.40
   6  -5  -1   35.76    3.46
   6  -5  -1   35.70    3.33
   6  -5  -1   28.93    3.51
   6  -5   0   52.78    6.03
   6  -5   0   62.30    4.19
   6  -5   0   55.22    4.35
   6  -5   0   55.89    3.87
   6  -5   0   55.77    4.20
   6  -5   1  213.06   11.57
   6  -5   1  188.91    6.85
   6  -5   1  212.73    8.33
   6  -5   1  193.76    7.94
   6  -5   2  679.31   21.95
   6  -5   2  689.11   16.85
   6  -5   2  651.41   16.69
   6  -5   3  100.41    5.75
   6  -5   3   90.06    5.77
   6  -5   4  145.45    6.94
   6  -5   4  142.26    7.33
   6  -5   5  111.72    6.01
   6  -5   6   37.12    3.81
   6  -5   6   37.33    3.45
   6  -5   7   25.07    3.03
   6  -5   7   22.70    2.51
   6  -5   8    4.05    1.55
   6  -5   8    4.63    1.28
   6  -5   9   34.96    2.35
   6  -4 -10   35.89    2.37
   6  -4  -9   17.73    2.17
   6  -4  -8   53.16    3.87
   6  -4  -7  106.86    7.40
   6  -4  -7  103.15    5.58
   6  -4  -6   50.17    5.37
   6  -4  -6   45.36    4.77
   6  -4  -6   52.22    3.69
   6  -4  -6   55.47    4.39
   6  -4  -5 1112.15   27.18
   6  -4  -5 1113.63   27.51
   6  -4  -5 1079.97   22.15
   6  -4  -5 1158.50   23.43
   6  -4  -4  404.69   14.35
   6  -4  -4  437.48   15.92
   6  -4  -4  406.85   15.09
   6  -4  -4  421.10   11.63
   6  -4  -4  422.20   12.18
   6  -4  -3  774.40   21.96
   6  -4  -3  733.22   16.84
   6  -4  -3  730.31   17.20
   6  -4  -2  177.35    7.53
   6  -4  -2  183.50    9.54
   6  -4  -2  183.60    7.27
   6  -4  -2  180.47    7.43
   6  -4  -1  740.72   22.02
   6  -4  -1  748.87   17.26
   6  -4  -1  759.38   20.45
   6  -4  -1  783.62   17.60
   6  -4  -1  767.74   16.75
   6  -4   0  383.48   15.35
   6  -4   0  402.44   11.29
   6  -4   0  423.54   13.22
   6  -4   0  414.69   11.92
   6  -4   0  396.12   10.59
   6  -4   0  421.79   10.97
   6  -4   1   83.10    6.96
   6  -4   1   83.15    4.62
   6  -4   1   80.54    5.01
   6  -4   1   83.21    4.73
   6  -4   1   80.82    4.46
   6  -4   2  118.54    8.40
   6  -4   2  123.69    6.29
   6  -4   2  131.55    6.32
   6  -4   2  122.50    5.38
   6  -4   3   39.95    3.76
   6  -4   3   33.63    3.51
   6  -4   3   41.39    3.17
   6  -4   4   45.50    4.13
   6  -4   5    0.69    1.80
   6  -4   6  320.76   10.66
   6  -4   6  306.90   10.47
   6  -4   6  321.59    9.21
   6  -4   7   62.29    4.34
   6  -4   7   62.75    4.26
   6  -4   8   18.53    2.28
   6  -4   9  102.33    3.89
   6  -3 -10   65.57    3.41
   6  -3  -9  208.83    7.55
   6  -3  -8  154.56    9.15
   6  -3  -7   27.15    4.56
   6  -3  -7   23.84    3.74
   6  -3  -7   27.90    2.79
   6  -3  -6  560.01   18.88
   6  -3  -6  567.88   16.73
   6  -3  -6  572.07   13.65
   6  -3  -5  208.74   10.88
   6  -3  -5  203.52   10.63
   6  -3  -5  207.31    9.55
   6  -3  -5  177.65    8.54
   6  -3  -5  203.79    7.22
   6  -3  -4   29.88    4.32
   6  -3  -4   31.26    3.50
   6  -3  -4   31.87    3.04
   6  -3  -3  301.27    9.99
   6  -3  -3  282.89   12.31
   6  -3  -2   56.80    5.16
   6  -3  -2   59.03    4.28
   6  -3  -2   59.59    5.64
   6  -3  -1   55.14    5.18
   6  -3  -1   54.27    3.96
   6  -3  -1   61.68    5.35
   6  -3   0   90.98    6.78
   6  -3   0   92.32    5.03
   6  -3   0  103.96    6.24
   6  -3   1  412.64   15.24
   6  -3   1  427.04   11.54
   6  -3   1  432.05   13.03
   6  -3   1  415.36   11.76
   6  -3   2   31.26    3.04
   6  -3   2   26.62    2.82
   6  -3   2   32.54    3.17
   6  -3   2   29.67    3.37
   6  -3   3   40.87    3.26
   6  -3   3   51.31    4.21
   6  -3   3   47.77    3.68
   6  -3   4  122.28    6.63
   6  -3   4  128.12    5.88
   6  -3   5  134.24    6.32
   6  -3   5  134.58    6.98
   6  -3   5  129.95    5.93
   6  -3   6  182.31    7.39
   6  -3   6  179.75    8.01
   6  -3   6  195.53    7.62
   6  -3   7   53.47    3.75
   6  -3   7   46.64    4.02
   6  -3   7   52.68    3.78
   6  -3   8   42.95    2.92
   6  -3   8   44.68    3.02
   6  -3   9  164.06    4.35
   6  -2  -9   94.22    7.28
   6  -2  -9   91.67    4.89
   6  -2  -8  101.12    7.77
   6  -2  -8  102.36    5.55
   6  -2  -7  581.53   19.67
   6  -2  -7  581.99   18.22
   6  -2  -7  564.89   14.82
   6  -2  -6  619.28   19.44
   6  -2  -6  595.36   19.83
   6  -2  -6  612.19   18.50
   6  -2  -6  591.80   15.51
   6  -2  -5  463.59   16.60
   6  -2  -5  467.55   12.97
   6  -2  -4  111.77    7.78
   6  -2  -4  100.28    5.55
   6  -2  -3  309.74   12.66
   6  -2  -3  300.31   10.77
   6  -2  -3  289.26    9.66
   6  -2  -2  300.95   12.04
   6  -2  -2  304.64   10.66
   6  -2  -2  296.16   10.99
   6  -2  -2  310.80    9.87
   6  -2  -1  541.50   16.45
   6  -2  -1  540.60   16.04
   6  -2  -1  570.36   14.01
   6  -2   0  591.37   15.97
   6  -2   0  565.96   16.88
   6  -2   0  590.58   14.36
   6  -2   1   21.45    3.25
   6  -2   2  513.40   13.23
   6  -2   2  528.13   16.07
   6  -2   2  522.98   13.74
   6  -2   2  517.37   13.33
   6  -2   3  412.03   11.63
   6  -2   3  428.51   13.77
   6  -2   3  418.23   12.48
   6  -2   3  434.92   12.23
   6  -2   4  115.51    5.25
   6  -2   4  112.11    5.47
   6  -2   4  107.56    6.22
   6  -2   4  112.59    5.98
   6  -2   5   93.45    4.87
   6  -2   5   93.17    5.86
   6  -2   5   94.58    5.33
   6  -2   6  146.25    5.97
   6  -2   6  143.04    7.29
   6  -2   6  140.19    6.22
   6  -2   6  151.75    7.15
   6  -2   7   11.71    1.77
   6  -2   7   16.27    2.73
   6  -2   7   13.49    2.41
   6  -2   8  105.33    4.83
   6  -2   9  253.25    6.20
   6  -1  -9  220.82   11.19
   6  -1  -8  252.69   12.39
   6  -1  -8  252.73   11.92
   6  -1  -8  244.13    8.30
   6  -1  -7  239.37   12.24
   6  -1  -7  233.45   11.47
   6  -1  -7  234.10    8.45
   6  -1  -6  103.30    7.56
   6  -1  -6  109.24    7.68
   6  -1  -6  109.49    5.60
   6  -1  -5   94.18    7.41
   6  -1  -5   84.24    6.67
   6  -1  -5   92.47    5.09
   6  -1  -4  319.42   13.12
   6  -1  -4  324.25   11.76
   6  -1  -4  312.43   12.33
   6  -1  -4  336.95   10.18
   6  -1  -3  146.01    8.46
   6  -1  -3  154.49    7.34
   6  -1  -3  148.37    8.02
   6  -1  -3  146.40    6.44
   6  -1  -2  325.23   12.47
   6  -1  -2  314.13   10.82
   6  -1  -2  313.59    9.84
   6  -1  -1  182.19    8.89
   6  -1   0  201.23    8.62
   6  -1   0  188.11    9.75
   6  -1   0  185.26    7.48
   6  -1   1  133.94    8.24
   6  -1   1  124.32    6.20
   6  -1   1  136.94    6.15
   6  -1   2  105.01    5.70
   6  -1   2   91.83    6.91
   6  -1   2  104.13    5.57
   6  -1   2  100.25    5.71
   6  -1   3 1110.34   22.95
   6  -1   3 1105.46   26.78
   6  -1   3 1086.72   23.29
   6  -1   3 1099.25   23.29
   6  -1   4  439.66   12.26
   6  -1   4  455.05   13.49
   6  -1   4  438.02   13.01
   6  -1   5   13.18    2.16
   6  -1   5   10.82    2.55
   6  -1   5   13.82    2.86
   6  -1   6  124.00    6.67
   6  -1   6  117.92    6.59
   6  -1   7   32.28    3.33
   6  -1   8  230.15    7.24
   6  -1   9   85.78    3.06
   6   0 -10  152.88    8.98
   6   0  -9   50.88    5.69
   6   0  -8  201.52   11.06
   6   0  -7  322.26   13.84
   6   0  -7  310.95   13.21
   6   0  -7  312.04    9.22
   6   0  -6   81.04    6.94
   6   0  -6   82.88    6.75
   6   0  -6   79.62    6.62
   6   0  -6   80.72    4.63
   6   0  -6   86.95    4.37
   6   0  -5   48.87    4.46
   6   0  -5   48.79    5.45
   6   0  -5   47.33    5.27
   6   0  -5   45.18    4.99
   6   0  -5   44.92    3.56
   6   0  -4   78.45    5.87
   6   0  -4   81.77    6.20
   6   0  -4   69.58    4.40
   6   0  -3  690.86   18.75
   6   0  -3  692.16   18.25
   6   0  -3  672.62   15.82
   6   0  -2   28.44    3.42
   6   0  -1   44.48    5.17
   6   0  -1   38.15    3.53
   6   0   0   32.16    4.59
   6   0   0   27.62    3.23
   6   0   0   31.03    3.30
   6   0   1  234.25    8.95
   6   0   1  240.79   11.69
   6   0   1  232.08    7.69
   6   0   1  233.62    7.99
   6   0   1  244.67    8.85
   6   0   2  276.34    9.96
   6   0   2  290.04   12.78
   6   0   2  286.31    9.44
   6   0   2  272.22    8.84
   6   0   2  268.65    9.64
   6   0   3  107.07    6.14
   6   0   3   90.60    5.56
   6   0   3   90.45    5.77
   6   0   4  258.30    9.41
   6   0   4  262.30    8.48
   6   0   4  267.82    9.88
   6   0   4  273.36   10.16
   6   0   5  197.78    7.44
   6   0   5  198.84    8.39
   6   0   5  187.39    8.31
   6   0   6   43.32    2.96
   6   0   6   35.93    3.78
   6   0   7  129.32    5.80
   6   0   8  160.61    5.23
   6   1 -10  172.03    9.60
   6   1  -9  262.51   12.43
   6   1  -8  407.20   16.15
   6   1  -7   16.21    3.08
   6   1  -7   25.34    4.29
   6   1  -6  160.58    8.49
   6   1  -6  169.22    9.86
   6   1  -6  174.46    9.67
   6   1  -5  150.87    7.62
   6   1  -5  147.45    8.89
   6   1  -5  164.39    9.05
   6   1  -4   62.74    5.69
   6   1  -4   69.24    4.36
   6   1  -4   64.77    5.60
   6   1  -3  522.63   16.09
   6   1  -3  508.98   13.31
   6   1  -3  515.15   13.31
   6   1  -3  548.51   16.16
   6   1  -2   67.06    5.22
   6   1  -2   60.63    4.33
   6   1  -2   64.51    6.29
   6   1  -2   70.90    4.52
   6   1  -1  183.15    7.74
   6   1  -1  179.39   10.31
   6   1  -1  175.95    6.43
   6   1  -1  190.16    7.61
   6   1  -1  180.12    6.96
   6   1   0  160.39    7.56
   6   1   0  148.34    9.49
   6   1   0  159.71    7.09
   6   1   0  156.59    6.88
   6   1   1  557.36   15.53
   6   1   1  554.23   19.12
   6   1   1  559.96   14.60
   6   1   1  570.28   14.88
   6   1   2  217.53    9.14
   6   1   2  233.47   11.78
   6   1   2  233.35    8.66
   6   1   2  223.08    8.21
   6   1   2  230.69    9.11
   6   1   3  213.67    8.89
   6   1   3  211.63    8.23
   6   1   3  209.11    8.19
   6   1   3  208.19    8.79
   6   1   4   59.43    4.49
   6   1   4   61.00    4.25
   6   1   4   68.71    5.12
   6   1   5   70.55    4.39
   6   1   5   70.48    4.11
   6   1   5   68.07    4.75
   6   1   6   45.34    3.63
   6   1   7    6.72    1.42
   6   2 -11   35.54    2.53
   6   2 -10   49.50    5.23
   6   2  -9   83.44    6.82
   6   2  -8  161.17    9.82
   6   2  -7  195.21   10.92
   6   2  -6  355.47   14.86
   6   2  -6  365.33   11.03
   6   2  -6  339.93   12.40
   6   2  -5  131.07    8.66
   6   2  -5  138.98    6.60
   6   2  -4   20.29    2.57
   6   2  -4   24.55    3.01
   6   2  -4   19.48    3.66
   6   2  -4   27.63    3.89
   6   2  -3  933.88   19.94
   6   2  -3  939.10   22.72
   6   2  -3  911.58   25.37
   6   2  -3  965.77   20.90
   6   2  -3  919.01   20.49
   6   2  -2  263.33    9.39
   6   2  -2  267.12    8.98
   6   2  -2  262.61   12.52
   6   2  -2  272.29    9.54
   6   2  -2  270.79    8.21
   6   2  -1  161.12    7.42
   6   2  -1  161.03    6.32
   6   2  -1  158.70    9.80
   6   2  -1  159.09    7.24
   6   2  -1  149.25    6.54
   6   2  -1  164.30    6.61
   6   2   0  133.09    7.02
   6   2   0  142.99    9.26
   6   2   0  136.66    6.88
   6   2   0  129.98    5.88
   6   2   0  143.20    6.63
   6   2   1    4.14    2.32
   6   2   1    3.79    2.45
   6   2   1    4.42    2.27
   6   2   1    1.18    1.72
   6   2   2   26.84    3.62
   6   2   2   19.29    3.05
   6   2   2   30.16    3.59
   6   2   3  239.06    9.36
   6   2   3  225.23    8.78
   6   2   3  227.37    8.41
   6   2   4   20.91    2.78
   6   2   4   18.89    2.70
   6   2   4   17.55    2.56
   6   2   4   19.04    2.63
   6   2   5  164.79    5.87
   6   2   5  149.31    5.89
   6   2   5  150.22    5.39
   6   2   6  136.47    4.71
   6   3 -10  210.47    7.47
   6   3  -9   81.35    6.62
   6   3  -9   74.13    4.89
   6   3  -8  402.98   15.47
   6   3  -8  401.26   12.68
   6   3  -7  273.69   12.81
   6   3  -7  255.94    8.51
   6   3  -7  266.86   10.43
   6   3  -6  392.74   15.60
   6   3  -6  379.11   11.10
   6   3  -6  350.58   12.70
   6   3  -6  378.83   12.73
   6   3  -5  806.55   23.29
   6   3  -5  771.94   17.86
   6   3  -5  773.54   19.54
   6   3  -5  761.10   21.19
   6   3  -4  160.80    6.33
   6   3  -4  164.62    7.24
   6   3  -4  149.94    8.80
   6   3  -4  154.72    7.49
   6   3  -3   71.39    4.57
   6   3  -3   72.94    4.98
   6   3  -3   69.84    4.91
   6   3  -2  104.82    5.76
   6   3  -2  101.90    5.52
   6   3  -2  109.76    6.15
   6   3  -2  104.54    5.99
   6   3  -1  205.01    8.41
   6   3  -1  208.30   10.72
   6   3  -1  217.26    8.97
   6   3  -1  207.51    8.35
   6   3  -1  214.39    7.44
   6   3   0  148.57    7.28
   6   3   0  138.01    7.18
   6   3   0  143.84    6.42
   6   3   0  140.34    6.53
   6   3   1   86.86    5.62
   6   3   1   93.75    5.93
   6   3   1   88.24    4.94
   6   3   2   70.64    4.91
   6   3   2   74.75    5.21
   6   3   2   67.83    4.84
   6   3   2   66.90    4.01
   6   3   3  143.63    6.52
   6   3   3  140.14    6.62
   6   3   3  142.19    6.30
   6   3   3  136.26    5.34
   6   3   4   30.28    2.88
   6   3   4   31.82    2.27
   6   3   4   33.67    2.85
   6   3   5   81.13    3.28
   6   4 -11   21.93    1.88
   6   4 -10   23.12    2.19
   6   4  -9   58.97    4.04
   6   4  -8   16.42    3.44
   6   4  -8   15.57    2.55
   6   4  -7  141.89    7.11
   6   4  -6    3.39    1.99
   6   4  -6    5.44    1.87
   6   4  -5  141.83    7.20
   6   4  -5  129.79    6.05
   6   4  -5  133.72    7.13
   6   4  -4    2.17    1.96
   6   4  -4    1.56    2.02
   6   4  -4    4.70    2.53
   6   4  -3  173.46    6.49
   6   4  -3  157.27    7.94
   6   4  -3  161.70    7.17
   6   4  -3  171.10    7.47
   6   4  -3  164.82    7.96
   6   4  -2  177.88    7.04
   6   4  -2  158.99    8.23
   6   4  -2  173.87    7.01
   6   4  -2  183.75    7.86
   6   4  -2  184.71    8.08
   6   4  -1   55.86    4.04
   6   4  -1   60.00    4.68
   6   4   0  134.16    6.33
   6   4   0  132.01    6.78
   6   4   0  134.44    6.39
   6   4   1   74.98    4.63
   6   4   1   72.05    4.95
   6   4   1   67.72    4.97
   6   4   2   50.85    3.62
   6   4   2   50.82    3.89
   6   4   2   59.64    4.24
   6   4   3   81.44    4.28
   6   4   3   83.06    4.22
   6   4   4   34.85    2.23
   6   5 -10   42.17    2.48
   6   5  -9   18.75    2.24
   6   5  -8   51.62    3.62
   6   5  -8   47.09    3.65
   6   5  -7  149.79    6.56
   6   5  -7  148.21    6.74
   6   5  -6  198.01    7.84
   6   5  -6  187.17    7.89
   6   5  -5   99.10    5.49
   6   5  -5   92.37    5.83
   6   5  -4   47.43    3.68
   6   5  -4   40.75    4.04
   6   5  -3   41.64    3.24
   6   5  -3   46.52    3.56
   6   5  -3   41.86    4.05
   6   5  -2  126.03    5.86
   6   5  -2  123.22    6.30
   6   5  -1   67.72    3.63
   6   5  -1   58.93    4.00
   6   5  -1   64.34    4.36
   6   5   0    2.82    1.66
   6   5   0    3.05    2.02
   6   5   1   51.39    3.42
   6   5   1   44.39    3.50
   6   5   2    3.65    1.47
   6   5   3  171.38    4.34
   6   6 -10   35.88    2.29
   6   6  -9   18.28    1.54
   6   6  -8  208.56    6.13
   6   6  -7   20.04    2.30
   6   6  -6   69.25    4.21
   6   6  -6   76.38    4.28
   6   6  -5    4.02    1.60
   6   6  -5    5.00    1.91
   6   6  -4   58.66    3.42
   6   6  -4   61.34    4.04
   6   6  -3   53.79    2.79
   6   6  -3   57.97    2.75
   6   6  -2   34.37    2.24
   6   6  -1   47.76    2.55
   6   6  -1   37.55    3.06
   6   6   0   12.78    1.77
   6   6   1   24.90    1.68
   6   7  -8  148.80    4.10
   6   7  -7    8.77    1.30
   6   7  -6   65.34    2.75
   6   7  -5   12.59    1.17
   6   7  -4   88.17    3.46
   6   7  -3   21.99    1.74
   7  -9  -2  154.61    3.85
   7  -9  -2  152.03    3.80
   7  -9  -1   50.24    2.16
   7  -9  -1   57.90    2.60
   7  -9   0   96.92    3.05
   7  -9   0  108.02    3.85
   7  -9   1  342.50    8.04
   7  -9   2   69.42    2.28
   7  -9   2   68.54    3.14
   7  -9   3   35.76    1.71
   7  -8  -5   45.07    2.32
   7  -8  -4   91.70    3.92
   7  -8  -3   66.07    3.65
   7  -8  -3   67.49    3.18
   7  -8  -2   67.49    3.85
   7  -8  -2   67.13    3.56
   7  -8  -1  105.87    4.86
   7  -8  -1  109.93    4.89
   7  -8   0  257.31    7.77
   7  -8   0  244.84    7.99
   7  -8   1   66.71    3.70
   7  -8   1   66.52    4.18
   7  -8   2  243.89    7.01
   7  -8   2  244.82    8.00
   7  -8   3   80.57    3.50
   7  -8   3   79.43    3.12
   7  -8   3   76.25    4.25
   7  -8   4   19.09    1.42
   7  -8   5  126.15    4.36
   7  -8   6   65.64    2.55
   7  -7  -7   22.82    1.69
   7  -7  -7   19.59    1.49
   7  -7  -6  371.91    8.69
   7  -7  -6  373.84    9.12
   7  -7  -6  364.48    8.33
   7  -7  -5  338.68    8.81
   7  -7  -5  341.91    9.56
   7  -7  -5  328.13    8.34
   7  -7  -4  246.54    7.52
   7  -7  -4  236.31    8.33
   7  -7  -4  237.43    7.10
   7  -7  -3   99.60    4.68
   7  -7  -3  112.76    5.79
   7  -7  -3   99.29    4.42
   7  -7  -3  101.00    4.65
   7  -7  -2  156.21    5.85
   7  -7  -2  160.82    7.10
   7  -7  -2  147.60    6.10
   7  -7  -2  147.34    5.32
   7  -7  -1   64.11    5.38
   7  -7  -1   68.61    4.73
   7  -7  -1   66.03    4.33
   7  -7   0  167.43    8.73
   7  -7   0  176.40    7.44
   7  -7   0  166.12    7.05
   7  -7   1   87.21    6.23
   7  -7   1   93.99    5.29
   7  -7   1   98.67    5.44
   7  -7   2   27.32    2.96
   7  -7   2   31.12    3.33
   7  -7   3  187.86    6.87
   7  -7   3  176.97    7.36
   7  -7   4  273.08    7.91
   7  -7   5  530.66   12.31
   7  -7   5  483.96   10.63
   7  -7   6    4.91    1.39
   7  -7   7   54.70    2.50
   7  -6  -9    9.02    1.03
   7  -6  -8   56.55    2.71
   7  -6  -7  264.44    7.74
   7  -6  -7  266.77    7.65
   7  -6  -6  125.41    5.76
   7  -6  -6  124.58    5.69
   7  -6  -5   26.16    3.07
   7  -6  -5   26.28    3.29
   7  -6  -4  116.34    5.95
   7  -6  -4  114.45    6.27
   7  -6  -3   56.42    5.45
   7  -6  -3   56.44    4.20
   7  -6  -3   51.99    4.40
   7  -6  -3   54.65    4.05
   7  -6  -3   48.53    3.45
   7  -6  -2   90.91    6.86
   7  -6  -2   84.37    4.92
   7  -6  -2   83.50    5.60
   7  -6  -2   81.14    4.84
   7  -6  -2   81.54    4.72
   7  -6  -1   45.42    5.06
   7  -6  -1   44.41    3.50
   7  -6  -1   52.61    4.50
   7  -6  -1   42.39    3.68
   7  -6  -1   50.06    3.67
   7  -6   0  122.70    8.13
   7  -6   0  117.51    5.25
   7  -6   0  116.91    6.55
   7  -6   0  119.27    6.02
   7  -6   0  123.28    5.35
   7  -6   1   63.27    6.14
   7  -6   1   62.95    4.81
   7  -6   1   62.40    4.58
   7  -6   2    7.61    2.16
   7  -6   2    5.13    2.18
   7  -6   3   45.96    3.88
   7  -6   3   42.41    4.01
   7  -6   4  496.28   13.04
   7  -6   5  167.09    6.35
   7  -6   6   18.14    2.35
   7  -6   6   15.33    1.87
   7  -6   7   62.88    3.22
   7  -6   7   48.02    2.14
   7  -6   8   65.51    2.42
   7  -5 -10  141.12    3.81
   7  -5  -9  219.73    5.83
   7  -5  -8  157.03    5.88
   7  -5  -8  148.68    5.28
   7  -5  -7  270.90    8.96
   7  -5  -7  255.85    8.21
   7  -5  -6   48.50    4.15
   7  -5  -6   49.69    3.98
   7  -5  -5   11.49    2.62
   7  -5  -5   14.06    2.70
   7  -5  -4  113.03    6.40
   7  -5  -4  103.37    6.06
   7  -5  -3   37.10    4.70
   7  -5  -3   41.02    4.04
   7  -5  -3   31.80    3.64
   7  -5  -3   37.87    3.99
   7  -5  -2   34.45    4.67
   7  -5  -2   31.78    3.52
   7  -5  -2   38.50    3.98
   7  -5  -2   36.03    3.53
   7  -5  -1  188.78   10.28
   7  -5  -1  189.23    7.73
   7  -5  -1  174.88    8.10
   7  -5  -1  181.82    7.14
   7  -5  -1  190.61    7.65
   7  -5   0   43.12    5.26
   7  -5   0   47.33    3.78
   7  -5   0   58.34    4.77
   7  -5   0   53.42    4.11
   7  -5   0   54.35    4.05
   7  -5   1  332.82   14.01
   7  -5   1  316.53   11.05
   7  -5   1  315.52   10.36
   7  -5   1  313.94    9.57
   7  -5   2   85.42    5.60
   7  -5   2   87.22    5.51
   7  -5   2   89.54    4.57
   7  -5   3   37.98    3.88
   7  -5   4    0.24    1.86
   7  -5   5  186.20    7.53
   7  -5   5  202.01    7.78
   7  -5   6   92.20    4.72
   7  -5   6   90.36    4.62
   7  -5   7   75.34    3.62
   7  -5   7   69.07    3.34
   7  -5   8   70.79    2.71
   7  -4  -9    3.71    1.47
   7  -4  -8   84.70    4.81
   7  -4  -8   85.75    4.13
   7  -4  -7  148.10    7.06
   7  -4  -7  141.04    6.01
   7  -4  -6  261.11   10.03
   7  -4  -6  277.02    9.13
   7  -4  -5   25.77    3.61
   7  -4  -5   27.44    3.25
   7  -4  -4  645.22   19.05
   7  -4  -4  666.32   17.52
   7  -4  -4  657.53   16.21
   7  -4  -3  127.41    8.08
   7  -4  -3  124.70    6.87
   7  -4  -3  141.76    6.78
   7  -4  -3  138.31    6.96
   7  -4  -2   88.83    6.84
   7  -4  -2   91.14    5.83
   7  -4  -2   84.79    5.43
   7  -4  -2   90.73    5.50
   7  -4  -1   71.50    6.44
   7  -4  -1   80.81    5.26
   7  -4  -1   77.42    5.24
   7  -4  -1   82.21    5.10
   7  -4   0   98.07    7.40
   7  -4   0   81.86    5.11
   7  -4   0   92.93    5.74
   7  -4   0   83.71    4.63
   7  -4   0   92.37    5.39
   7  -4   1   59.26    5.88
   7  -4   1   45.99    4.31
   7  -4   1   51.55    3.95
   7  -4   1   46.78    3.95
   7  -4   2   12.44    2.16
   7  -4   2   11.81    2.39
   7  -4   2   15.76    3.06
   7  -4   3  197.78    8.52
   7  -4   3  190.63    7.27
   7  -4   4   53.77    4.48
   7  -4   4   52.45    3.61
   7  -4   5   15.89    2.39
   7  -4   5   19.48    2.97
   7  -4   6  134.08    5.54
   7  -4   6  135.44    6.12
   7  -4   6  136.82    4.94
   7  -4   7  101.16    4.05
   7  -4   7   91.62    4.32
   7  -4   8    9.15    0.94
   7  -3 -11  157.68    4.14
   7  -3  -9   19.30    2.25
   7  -3  -8  175.67    7.18
   7  -3  -7   87.46    5.49
   7  -3  -6   94.90    6.03
   7  -3  -6   93.02    4.84
   7  -3  -5  226.28    9.28
   7  -3  -5  192.92    7.37
   7  -3  -4  528.43   15.16
   7  -3  -4  518.98   13.39
   7  -3  -4  542.48   14.87
   7  -3  -3   25.63    3.49
   7  -3  -3   28.30    3.65
   7  -3  -3   33.17    3.79
   7  -3  -3   29.27    3.22
   7  -3  -2  127.77    7.81
   7  -3  -2  137.05    7.03
   7  -3  -2  138.95    6.49
   7  -3  -2  138.83    6.76
   7  -3  -1  321.47   12.82
   7  -3  -1  337.72   11.20
   7  -3  -1  333.17   10.64
   7  -3  -1  324.24   10.65
   7  -3   0  332.11   13.26
   7  -3   0  353.13   11.13
   7  -3   0  339.11   10.97
   7  -3   1   50.93    4.11
   7  -3   1   41.31    4.02
   7  -3   1   43.37    3.93
   7  -3   2    4.77    1.96
   7  -3   2    3.57    2.13
   7  -3   2    3.18    2.01
   7  -3   3  286.90    8.93
   7  -3   3  298.62   10.71
   7  -3   3  282.53    9.53
   7  -3   4  706.43   15.92
   7  -3   4  715.86   17.96
   7  -3   4  667.97   15.92
   7  -3   5   54.20    3.60
   7  -3   5   48.12    4.27
   7  -3   5   51.35    3.62
   7  -3   6   20.23    2.15
   7  -3   6   18.40    2.71
   7  -3   6   20.06    2.38
   7  -3   7  243.44    6.69
   7  -2 -10   60.08    3.51
   7  -2  -9   22.22    2.31
   7  -2  -8   79.09    4.66
   7  -2  -7   21.66    3.11
   7  -2  -6   72.64    5.83
   7  -2  -6   63.45    4.90
   7  -2  -5  466.90   13.89
   7  -2  -5  490.64   13.79
   7  -2  -4  550.36   15.24
   7  -2  -4  538.92   14.70
   7  -2  -3  119.51    6.69
   7  -2  -3  121.17    5.33
   7  -2  -3  114.03    6.15
   7  -2  -2  178.22    8.03
   7  -2  -2  167.42    8.86
   7  -2  -2  170.90    6.70
   7  -2  -2  168.14    7.46
   7  -2  -1   35.69    3.39
   7  -2  -1   41.81    3.40
   7  -2  -1   35.10    3.67
   7  -2   0  472.24   13.69
   7  -2   0  445.84   15.47
   7  -2   0  463.40   11.47
   7  -2   0  447.65   12.70
   7  -2   0  475.99   13.38
   7  -2   1  678.68   17.09
   7  -2   1  692.65   19.36
   7  -2   1  686.52   16.86
   7  -2   1  697.28   17.30
   7  -2   2   17.98    3.10
   7  -2   2   22.29    3.00
   7  -2   2   20.61    3.12
   7  -2   2   23.51    3.25
   7  -2   3  161.52    6.87
   7  -2   3  171.91    7.96
   7  -2   3  173.37    7.67
   7  -2   4  524.84   12.56
   7  -2   4  505.92   14.55
   7  -2   4  504.30   13.78
   7  -2   5   27.89    3.49
   7  -2   5   31.15    3.17
   7  -2   6   29.52    3.09
   7  -2   6   28.56    2.99
   7  -2   7   10.94    1.67
   7  -2   8   16.51    1.27
   7  -1  -9  140.13    5.76
   7  -1  -8   20.77    3.63
   7  -1  -8   20.91    2.53
   7  -1  -8   27.66    3.24
   7  -1  -7   32.82    4.46
   7  -1  -7   31.19    3.30
   7  -1  -7   36.12    3.57
   7  -1  -6  194.14    9.76
   7  -1  -6  196.96    8.05
   7  -1  -6  188.11    7.79
   7  -1  -5  156.17    8.22
   7  -1  -5  143.01    7.09
   7  -1  -5  152.87    7.05
   7  -1  -4   37.35    4.27
   7  -1  -4   38.90    3.93
   7  -1  -4   37.08    3.63
   7  -1  -3  102.59    6.07
   7  -1  -3  104.45    5.87
   7  -1  -2  519.92   16.37
   7  -1  -2  552.07   14.20
   7  -1  -2  531.96   14.31
   7  -1  -1  261.66   10.06
   7  -1  -1  274.78   12.52
   7  -1  -1  264.68    9.06
   7  -1  -1  252.15    8.19
   7  -1  -1  273.07    9.74
   7  -1   0   90.80    5.85
   7  -1   0   90.35    7.01
   7  -1   0   90.79    5.07
   7  -1   0   85.23    4.95
   7  -1   0   84.54    5.47
   7  -1   1   72.64    5.16
   7  -1   1   80.58    6.43
   7  -1   1   77.05    4.92
   7  -1   1   93.00    5.02
   7  -1   1   76.33    5.39
   7  -1   2  480.37   13.76
   7  -1   2  485.11   16.10
   7  -1   2  487.21   13.60
   7  -1   2  490.38   12.20
   7  -1   2  477.54   14.14
   7  -1   3 1124.38   23.00
   7  -1   3 1056.68   23.39
   7  -1   3 1113.00   24.03
   7  -1   4  132.27    5.78
   7  -1   4  128.33    6.56
   7  -1   4  132.49    6.72
   7  -1   5  161.41    5.52
   7  -1   5  160.37    7.03
   7  -1   5  164.06    7.30
   7  -1   6    7.44    1.90
   7  -1   7   39.47    2.55
   7   0  -9  276.29   11.50
   7   0  -8    5.90    2.57
   7   0  -7  196.49   10.31
   7   0  -6   81.32    6.58
   7   0  -6   79.46    4.71
   7   0  -5  200.08    9.69
   7   0  -5  183.12    7.33
   7   0  -4  369.68   11.11
   7   0  -3   12.71    2.72
   7   0  -3   11.25    2.61
   7   0  -3   13.17    2.44
   7   0  -2  617.09   16.39
   7   0  -2  621.94   20.41
   7   0  -2  606.26   15.55
   7   0  -2  601.00   15.41
   7   0  -1  109.10    6.36
   7   0  -1  109.38    8.03
   7   0  -1  116.18    6.15
   7   0  -1  111.25    6.18
   7   0   0   90.91    5.98
   7   0   0   84.72    7.06
   7   0   0   89.28    5.33
   7   0   0   85.00    5.53
   7   0   1  219.69    9.40
   7   0   1  247.16   11.71
   7   0   1  232.69    8.34
   7   0   1  241.96    8.75
   7   0   1  233.48    9.36
   7   0   2  126.55    6.74
   7   0   2  132.83    8.21
   7   0   2  131.12    6.15
   7   0   2  130.45    6.26
   7   0   2  136.96    7.13
   7   0   3  299.73   10.02
   7   0   3  294.85    9.08
   7   0   3  276.44    9.65
   7   0   3  294.87   10.60
   7   0   4   49.03    3.61
   7   0   4   45.73    2.99
   7   0   4   47.21    4.14
   7   0   5   43.16    2.84
   7   0   5   42.56    3.57
   7   0   6   88.01    4.18
   7   0   7   73.23    2.83
   7   1 -11   11.45    1.48
   7   1  -8  100.64    7.31
   7   1  -7  149.30    8.94
   7   1  -6  217.02    7.71
   7   1  -6  247.48   11.45
   7   1  -5  373.80   13.92
   7   1  -5  362.21   10.87
   7   1  -5  372.79   11.99
   7   1  -4  348.56   12.80
   7   1  -4  371.47   11.38
   7   1  -4  376.42   12.01
   7   1  -4  370.66   10.50
   7   1  -3   62.36    4.74
   7   1  -3   65.77    6.28
   7   1  -3   61.15    4.83
   7   1  -3   59.09    4.21
   7   1  -2   15.03    2.87
   7   1  -2   16.94    2.19
   7   1  -2   17.12    3.76
   7   1  -2   16.74    2.89
   7   1  -2   14.77    2.50
   7   1  -1  410.11   13.00
   7   1  -1  401.60   15.67
   7   1  -1  412.44   12.58
   7   1  -1  402.31   12.02
   7   1   0  218.57    9.23
   7   1   0  200.63   10.74
   7   1   0  220.23    8.84
   7   1   0  211.74    8.59
   7   1   1  526.62   14.94
   7   1   1  498.87   17.33
   7   1   1  520.93   14.16
   7   1   1  495.59   14.33
   7   1   2   30.68    3.58
   7   1   2   32.20    3.78
   7   1   3   48.73    3.95
   7   1   3   46.89    3.62
   7   1   3   44.97    4.10
   7   1   4   15.23    2.19
   7   1   4   17.46    2.09
   7   1   4   19.87    2.59
   7   1   5   52.81    3.32
   7   1   6    8.74    1.21
   7   2 -10   38.16    2.96
   7   2  -9  268.67    8.24
   7   2  -8  204.51   10.04
   7   2  -8  179.63    7.13
   7   2  -7   33.89    3.46
   7   2  -7   37.25    4.79
   7   2  -6  135.11    8.50
   7   2  -6  134.98    6.74
   7   2  -6  146.54    8.35
   7   2  -5    8.80    2.13
   7   2  -5    8.07    2.44
   7   2  -5   10.58    3.04
   7   2  -5    7.76    2.66
   7   2  -5    3.71    2.02
   7   2  -4  136.30    6.24
   7   2  -4  132.58    6.90
   7   2  -4  147.36    8.89
   7   2  -4  131.21    6.53
   7   2  -3   73.49    4.89
   7   2  -3   80.12    6.60
   7   2  -3   74.68    4.70
   7   2  -3   78.48    5.45
   7   2  -2  167.68    7.52
   7   2  -2  161.00    9.50
   7   2  -2  153.22    7.60
   7   2  -2  184.27    7.41
   7   2  -2  153.64    6.64
   7   2  -1  112.26    6.29
   7   2  -1  104.41    7.59
   7   2  -1  117.17    6.52
   7   2  -1   99.77    5.35
   7   2  -1  111.25    5.58
   7   2   0  109.40    6.20
   7   2   0  125.57    7.98
   7   2   0  123.13    6.65
   7   2   0  114.31    5.87
   7   2   1  347.49   11.29
   7   2   1  326.42    9.47
   7   2   1  351.49   10.85
   7   2   2  139.94    6.54
   7   2   2  146.84    6.58
   7   2   3   23.56    2.65
   7   2   3   26.25    2.69
   7   2   3   24.62    2.49
   7   2   4   41.50    2.58
   7   2   4   33.85    2.39
   7   3  -9   23.18    2.52
   7   3  -8   33.93    3.21
   7   3  -8   35.46    2.85
   7   3  -7  324.95   10.66
   7   3  -7  327.47    9.66
   7   3  -6  209.38    8.44
   7   3  -6  197.47    7.66
   7   3  -5  651.51   16.42
   7   3  -5  666.11   16.22
   7   3  -4   26.66    2.64
   7   3  -4   22.69    2.77
   7   3  -4   20.39    3.03
   7   3  -4   23.98    3.42
   7   3  -3    8.04    1.96
   7   3  -3    9.39    1.95
   7   3  -3   13.41    2.90
   7   3  -3    9.79    2.62
   7   3  -2  162.05    6.86
   7   3  -2  174.49    7.77
   7   3  -2  166.57    7.21
   7   3  -1   99.70    5.45
   7   3  -1   95.41    5.85
   7   3  -1  106.48    4.92
   7   3  -1  103.97    5.26
   7   3   0    5.04    1.77
   7   3   0    7.24    2.32
   7   3   0    6.46    1.79
   7   3   0    5.25    1.94
   7   3   1   45.40    3.52
   7   3   1   42.29    3.70
   7   3   1   35.07    2.97
   7   3   2   44.82    3.16
   7   3   2   41.77    3.29
   7   3   2   39.80    2.76
   7   3   3   36.68    2.55
   7   4 -10   21.30    2.03
   7   4  -9   54.65    3.57
   7   4  -8   21.09    2.34
   7   4  -8   16.93    2.43
   7   4  -7   25.19    2.71
   7   4  -7   27.57    3.21
   7   4  -6  100.10    5.15
   7   4  -6   93.17    4.47
   7   4  -6   95.59    5.65
   7   4  -5    1.34    1.45
   7   4  -5    0.83    1.42
   7   4  -5    2.48    2.04
   7   4  -4   96.49    4.72
   7   4  -4   92.26    5.00
   7   4  -4   87.48    5.44
   7   4  -3   57.12    4.29
   7   4  -2    3.94    1.34
   7   4  -2    6.84    2.05
   7   4  -1    1.29    1.21
   7   4  -1    0.27    1.60
   7   4  -1    2.93    1.69
   7   4  -1    3.33    1.84
   7   4   0  173.00    5.83
   7   4   0  167.33    6.44
   7   4   0  159.87    5.97
   7   4   1   43.28    2.98
   7   4   1   36.54    2.59
   7   4   2   16.46    1.34
   7   5  -9   69.74    3.07
   7   5  -8    1.82    1.26
   7   5  -7   93.33    4.54
   7   5  -6   50.45    3.60
   7   5  -5   15.55    1.94
   7   5  -5   15.20    1.63
   7   5  -5   14.93    2.34
   7   5  -4   18.83    1.94
   7   5  -4   19.77    2.48
   7   5  -3   74.78    3.59
   7   5  -3   80.87    4.27
   7   5  -2   86.54    3.75
   7   5  -2   84.27    4.20
   7   5  -2   84.64    3.96
   7   5  -1   13.16    1.57
   7   5  -1    7.47    1.61
   7   5   0   32.02    1.95
   7   5   0   26.86    1.86
   7   6  -7    4.54    0.92
   7   6  -7    4.23    0.97
   7   6  -6   26.17    1.90
   7   6  -5   60.25    2.81
   7   6  -4   12.83    1.55
   7   6  -3   12.37    1.35
   8  -8  -4   65.28    2.40
   8  -8  -3   32.06    1.98
   8  -8  -2   75.20    3.25
   8  -8  -1   75.62    3.34
   8  -8  -1   68.11    2.60
   8  -8   0  115.61    4.14
   8  -8   1   41.26    2.35
   8  -8   2  117.67    3.68
   8  -8   3   35.92    2.06
   8  -8   4   41.45    1.85
   8  -7  -6  118.37    3.46
   8  -7  -5  136.08    4.55
   8  -7  -5  126.85    3.84
   8  -7  -4   -0.16    1.04
   8  -7  -4    2.03    0.99
   8  -7  -4    1.19    1.32
   8  -7  -3   39.49    2.37
   8  -7  -3   45.38    3.22
   8  -7  -3   44.10    2.48
   8  -7  -2   10.50    1.28
   8  -7  -2   14.83    2.29
   8  -7  -1   32.87    3.07
   8  -7  -1   29.76    2.34
   8  -7   0  104.10    5.06
   8  -7   0   96.67    4.36
   8  -7   1  108.62    5.01
   8  -7   2  169.24    6.04
   8  -7   3   64.05    3.28
   8  -7   4    3.14    1.22
   8  -7   4    0.95    0.88
   8  -7   5    2.67    0.86
   8  -6  -8   42.13    1.85
   8  -6  -7  164.69    4.45
   8  -6  -7  168.67    5.05
   8  -6  -6  137.00    5.01
   8  -6  -6  143.10    4.99
   8  -6  -6  139.66    5.18
   8  -6  -5   75.29    4.00
   8  -6  -5   76.14    4.11
   8  -6  -5   77.28    4.10
   8  -6  -4  373.81   10.10
   8  -6  -4  380.99   10.63
   8  -6  -4  374.90   10.08
   8  -6  -3  205.89    7.15
   8  -6  -3  211.25    7.88
   8  -6  -3  202.80    7.08
   8  -6  -2   97.07    4.64
   8  -6  -2   96.10    5.41
   8  -6  -2   84.21    4.47
   8  -6  -1  169.88    7.34
   8  -6  -1  162.47    5.81
   8  -6  -1  160.24    5.99
   8  -6   0  226.56    8.60
   8  -6   0  238.22    7.52
   8  -6   0  219.93    6.83
   8  -6   1    4.78    2.00
   8  -6   2   19.09    2.56
   8  -6   3   23.17    2.57
   8  -6   4  113.61    4.82
   8  -6   4  117.54    4.86
   8  -6   5  111.03    4.12
   8  -6   5  102.54    3.84
   8  -6   6    6.50    0.94
   8  -5  -9   42.22    2.06
   8  -5  -8  197.19    5.56
   8  -5  -8  203.20    6.16
   8  -5  -7  106.09    4.63
   8  -5  -7   97.65    3.96
   8  -5  -7  108.69    4.98
   8  -5  -6   47.52    3.58
   8  -5  -6   46.10    3.20
   8  -5  -6   50.08    3.83
   8  -5  -5  315.70    9.90
   8  -5  -5  304.04    9.28
   8  -5  -5  309.91   10.08
   8  -5  -4  117.92    6.03
   8  -5  -4  113.58    5.72
   8  -5  -4  120.58    6.13
   8  -5  -3    5.58    2.13
   8  -5  -3    4.36    2.19
   8  -5  -3    6.28    2.11
   8  -5  -2  365.57   12.40
   8  -5  -2  351.65   10.78
   8  -5  -2  356.53   11.36
   8  -5  -2  358.05   10.91
   8  -5  -1    1.24    1.75
   8  -5  -1    3.17    1.96
   8  -5  -1    5.05    2.16
   8  -5   0  367.77   11.67
   8  -5   0  348.80   10.26
   8  -5   1   59.62    4.65
   8  -5   1   60.19    3.92
   8  -5   2  112.25    6.05
   8  -5   2  104.59    4.64
   8  -5   3   12.72    2.41
   8  -5   4    0.37    1.22
   8  -5   4    0.86    1.43
   8  -5   5   49.71    2.79
   8  -5   5   46.77    3.08
   8  -5   6   69.44    2.53
   8  -5   6   65.12    2.84
   8  -4  -9  342.18    8.29
   8  -4  -8   67.31    3.61
   8  -4  -8   83.55    4.35
   8  -4  -7   51.05    3.68
   8  -4  -7   53.01    4.08
   8  -4  -6   65.11    4.54
   8  -4  -6   69.91    3.95
   8  -4  -6   66.24    4.76
   8  -4  -5  178.93    7.88
   8  -4  -5  188.60    7.06
   8  -4  -5  184.76    8.06
   8  -4  -4   11.32    2.53
   8  -4  -4   16.12    3.07
   8  -4  -4   12.58    2.45
   8  -4  -3  102.65    6.06
   8  -4  -3  104.19    5.71
   8  -4  -3  102.89    6.12
   8  -4  -2  154.29    7.68
   8  -4  -2  165.34    7.57
   8  -4  -2  168.87    7.44
   8  -4  -2  168.42    7.61
   8  -4  -1   27.35    3.41
   8  -4  -1   29.92    3.52
   8  -4   0  110.28    5.68
   8  -4   0  121.39    6.46
   8  -4   0  112.75    6.00
   8  -4   1   98.67    4.95
   8  -4   1  108.76    6.20
   8  -4   1   99.16    5.43
   8  -4   2  558.09   12.47
   8  -4   2  567.44   15.22
   8  -4   2  562.96   13.67
   8  -4   3  134.72    6.53
   8  -4   3  128.36    5.36
   8  -4   4    0.67    1.10
   8  -4   4    0.30    1.11
   8  -4   4    1.28    1.67
   8  -4   5   80.67    3.25
   8  -4   5   77.65    4.17
   8  -4   5   68.97    2.97
   8  -4   6    5.12    1.28
   8  -3 -10   67.11    2.73
   8  -3  -9  101.45    3.81
   8  -3  -9  113.29    4.61
   8  -3  -8    1.69    1.32
   8  -3  -8    3.72    1.76
   8  -3  -7  154.07    6.59
   8  -3  -7  150.03    6.80
   8  -3  -6  435.96   12.73
   8  -3  -6  429.88   12.76
   8  -3  -5  270.71   10.04
   8  -3  -5  273.50   10.05
   8  -3  -4   74.89    5.46
   8  -3  -4   76.75    4.54
   8  -3  -4   81.24    5.55
   8  -3  -3  188.24    8.55
   8  -3  -3  201.10    7.70
   8  -3  -3  202.47    8.64
   8  -3  -2  147.06    7.63
   8  -3  -2  138.52    6.44
   8  -3  -2  143.73    6.18
   8  -3  -2  153.81    7.46
   8  -3  -1   33.04    3.47
   8  -3  -1   38.63    3.98
   8  -3   0  205.46    8.27
   8  -3   0  203.22    8.28
   8  -3   0  214.46    8.67
   8  -3   1  364.91   10.89
   8  -3   1  372.05   11.67
   8  -3   1  364.43   11.47
   8  -3   2  103.17    5.02
   8  -3   2  100.84    5.85
   8  -3   2  102.57    5.62
   8  -3   3   60.04    4.47
   8  -3   3   58.63    4.06
   8  -3   4    0.15    1.28
   8  -3   4   -0.01    1.53
   8  -3   5    9.08    1.91
   8  -3   5    8.32    1.54
   8  -3   6   89.59    3.11
   8  -2 -10    5.65    1.08
   8  -2  -9   14.24    1.94
   8  -2  -8   98.22    4.71
   8  -2  -8   92.86    4.82
   8  -2  -7  425.16   11.73
   8  -2  -7  408.82   11.78
   8  -2  -6   58.04    4.44
   8  -2  -6   61.29    4.62
   8  -2  -5   87.47    5.68
   8  -2  -5   87.46    5.73
   8  -2  -4  211.47    9.03
   8  -2  -4  211.48    8.79
   8  -2  -3   13.95    2.55
   8  -2  -3   11.89    2.75
   8  -2  -2   88.26    5.85
   8  -2  -2   83.24    6.41
   8  -2  -2   81.93    4.95
   8  -2  -2   83.84    4.77
   8  -2  -2   86.83    5.71
   8  -2  -1  145.64    7.36
   8  -2  -1  150.32    8.17
   8  -2  -1  147.35    6.53
   8  -2  -1  151.63    6.48
   8  -2  -1  142.68    7.32
   8  -2   0  212.23    8.58
   8  -2   0  196.59    8.96
   8  -2   0  202.34    7.91
   8  -2   0  223.58    7.45
   8  -2   0  207.00    8.76
   8  -2   1  312.49   10.35
   8  -2   1  322.78   10.38
   8  -2   1  320.68   10.88
   8  -2   2   97.83    5.10
   8  -2   2   93.81    5.50
   8  -2   2  103.33    5.87
   8  -2   3    3.94    1.48
   8  -2   3    5.08    2.00
   8  -2   3    7.84    2.07
   8  -2   4   50.03    3.72
   8  -2   4   52.07    3.55
   8  -2   5   35.65    2.76
   8  -2   6   12.03    1.33
   8  -1  -8  106.52    4.91
   8  -1  -7  338.49    9.98
   8  -1  -6  145.59    6.62
   8  -1  -5   85.91    5.30
   8  -1  -4  272.75   10.04
   8  -1  -4  286.09   10.04
   8  -1  -3  195.61    8.63
   8  -1  -3  196.77   10.31
   8  -1  -3  195.71    8.15
   8  -1  -3  198.16    8.35
   8  -1  -2   83.90    5.65
   8  -1  -2   84.76    6.74
   8  -1  -2   88.74    5.39
   8  -1  -2   84.82    5.64
   8  -1  -1   18.27    3.09
   8  -1  -1   18.18    3.11
   8  -1  -1   16.10    2.69
   8  -1  -1   16.20    3.01
   8  -1   0  321.01   11.08
   8  -1   0  324.79   12.21
   8  -1   0  319.59    9.77
   8  -1   0  312.96    9.79
   8  -1   0  332.73   11.32
   8  -1   1   83.76    5.26
   8  -1   1   88.60    4.92
   8  -1   1   86.28    4.58
   8  -1   1   87.55    5.60
   8  -1   2  276.67    9.06
   8  -1   2  279.82    9.06
   8  -1   2  274.33    9.86
   8  -1   3   20.14    2.25
   8  -1   3   20.86    2.78
   8  -1   3   20.25    2.52
   8  -1   4   40.25    2.39
   8  -1   5   94.69    4.11
   8  -1   6   75.06    2.61
   8   0 -11    1.91    0.91
   8   0 -10   23.41    2.28
   8   0  -7   81.00    4.22
   8   0  -7   80.85    5.33
   8   0  -6  229.67    8.08
   8   0  -6  238.16    9.28
   8   0  -6  227.17    7.83
   8   0  -5  273.51    9.44
   8   0  -5  280.13   10.26
   8   0  -5  281.71    9.20
   8   0  -4   96.36    5.66
   8   0  -4   94.61    7.29
   8   0  -4   99.11    6.05
   8   0  -4   83.47    5.07
   8   0  -3  119.03    6.44
   8   0  -3  128.01    8.21
   8   0  -3  120.58    6.61
   8   0  -3  132.79    6.45
   8   0  -2  360.03   11.82
   8   0  -2  349.61   13.82
   8   0  -2  348.42   11.43
   8   0  -2  354.26   11.32
   8   0  -1  438.57   13.42
   8   0  -1  441.31   15.24
   8   0  -1  437.76   12.70
   8   0  -1  447.18   13.14
   8   0   0   18.87    2.91
   8   0   0   14.80    2.54
   8   0   0   14.59    2.77
   8   0   1  220.83    8.38
   8   0   1  219.78    7.67
   8   0   1  220.69    7.17
   8   0   1  219.94    8.65
   8   0   2  398.26   10.93
   8   0   2  380.35    9.81
   8   0   2  380.22   11.42
   8   0   3    8.93    1.66
   8   0   3    7.00    1.33
   8   0   3    7.76    1.97
   8   0   4   41.52    2.98
   8   0   5   69.29    2.84
   8   1 -10   79.66    3.49
   8   1  -9   88.08    4.44
   8   1  -8   92.98    5.00
   8   1  -7  603.06   15.23
   8   1  -6    0.45    1.33
   8   1  -6    4.40    2.28
   8   1  -5   55.85    3.84
   8   1  -5   58.68    4.13
   8   1  -5   56.66    4.66
   8   1  -4    4.20    1.75
   8   1  -4    4.83    1.61
   8   1  -4    4.09    2.29
   8   1  -4    3.04    1.70
   8   1  -3  530.90   14.23
   8   1  -3  547.88   15.02
   8   1  -3  523.96   13.16
   8   1  -3  518.00   13.21
   8   1  -2   57.17    4.37
   8   1  -2   58.89    4.66
   8   1  -2   66.41    3.89
   8   1  -2   54.88    4.07
   8   1  -1  179.29    7.70
   8   1  -1  181.48    7.76
   8   1  -1  179.38    7.31
   8   1   0  105.12    5.70
   8   1   0  105.82    5.68
   8   1   0  101.97    5.52
   8   1   1    9.54    2.04
   8   1   1   10.24    2.02
   8   1   1    8.77    2.09
   8   1   2  265.00    8.02
   8   1   2  268.28    7.63
   8   1   3   64.52    2.82
   8   1   3   59.77    3.29
   8   1   4   57.15    2.46
   8   2  -9   45.33    2.77
   8   2  -8  143.24    5.59
   8   2  -8  131.97    5.60
   8   2  -7   89.65    4.82
   8   2  -7   88.75    4.82
   8   2  -6    8.27    2.26
   8   2  -6    9.85    1.99
   8   2  -5  118.65    4.84
   8   2  -5  116.49    5.43
   8   2  -5  118.97    6.21
   8   2  -4    1.46    1.51
   8   2  -4   -1.51    1.05
   8   2  -4    3.19    2.09
   8   2  -4    1.61    2.05
   8   2  -3  358.59   10.29
   8   2  -3  358.47   11.36
   8   2  -3  377.75   10.43
   8   2  -2  124.09    5.77
   8   2  -2  115.31    6.13
   8   2  -2  123.59    5.19
   8   2  -2  121.01    5.19
   8   2  -1  192.12    7.24
   8   2  -1  207.40    7.91
   8   2  -1  194.96    6.67
   8   2   0  140.48    5.86
   8   2   0  151.35    6.32
   8   2   0  133.58    5.40
   8   2   1  330.07    8.61
   8   2   1  316.38    8.66
   8   2   2   13.71    1.66
   8   2   2   13.52    1.66
   8   2   2    9.64    1.27
   8   3 -10   76.34    3.17
   8   3  -9  128.10    4.97
   8   3  -8   61.04    2.88
   8   3  -8   65.00    3.88
   8   3  -7  182.21    5.99
   8   3  -7  191.16    7.10
   8   3  -6   48.09    3.34
   8   3  -6   50.61    3.82
   8   3  -5  147.48    6.02
   8   3  -5  143.76    6.23
   8   3  -4   56.37    3.87
   8   3  -4   51.77    3.66
   8   3  -3  126.57    4.64
   8   3  -3  128.70    5.80
   8   3  -3  129.16    5.33
   8   3  -2    5.89    1.36
   8   3  -2    6.94    1.61
   8   3  -2    8.75    1.65
   8   3  -1   58.24    3.24
   8   3  -1   59.64    3.74
   8   3   0   12.84    1.56
   8   3   0   12.81    1.84
   8   3   1   11.32    1.47
   8   4  -9   80.97    3.01
   8   4  -8   56.28    2.97
   8   4  -7  124.37    4.81
   8   4  -6   45.46    2.23
   8   4  -6   51.13    3.19
   8   4  -5   16.67    2.08
   8   4  -4    2.96    1.29
   8   4  -4    2.01    1.24
   8   4  -3    8.96    1.57
   8   4  -3    6.92    1.41
   8   4  -3   10.95    1.48
   8   4  -2   47.20    2.61
   8   4  -2   32.91    1.87
   8   4  -1   72.66    2.93
   8   5  -6   23.54    1.55
   8   5  -5   65.19    2.47
   9  -7  -3   72.07    2.82
   9  -7  -2   40.81    2.29
   9  -7  -1  113.11    3.98
   9  -7   0   15.62    1.61
   9  -7   1  166.75    4.65
   9  -7   2  168.19    4.29
   9  -7   2  177.14    4.37
   9  -6  -6   85.19    2.79
   9  -6  -5  223.34    5.37
   9  -6  -5  213.51    5.54
   9  -6  -4   14.95    1.63
   9  -6  -4   14.03    1.62
   9  -6  -3  115.36    4.53
   9  -6  -3  103.67    3.95
   9  -6  -2   82.86    3.19
   9  -6  -2   82.91    4.09
   9  -6  -2   81.11    3.44
   9  -6  -1  180.99    6.16
   9  -6  -1  173.61    4.99
   9  -6   0   22.75    2.35
   9  -6   1   28.13    2.39
   9  -6   2  148.52    4.97
   9  -6   3    2.76    0.80
   9  -6   3    2.29    0.95
   9  -5  -7   84.44    3.25
   9  -5  -6   39.46    2.44
   9  -5  -6   31.97    1.70
   9  -5  -6   28.97    1.61
   9  -5  -6   37.16    2.61
   9  -5  -5  106.68    4.45
   9  -5  -5  106.12    4.02
   9  -5  -5  113.09    4.78
   9  -5  -4   24.19    2.22
   9  -5  -4   22.17    2.53
   9  -5  -3  254.44    7.77
   9  -5  -3  264.53    8.07
   9  -5  -2    3.21    1.31
   9  -5  -2   -0.08    1.32
   9  -5  -2    0.78    1.47
   9  -5  -1  181.34    5.89
   9  -5  -1  187.98    6.84
   9  -5  -1  179.30    6.23
   9  -5   0   66.56    2.99
   9  -5   0   73.72    4.25
   9  -5   0   72.29    3.64
   9  -5   1   89.58    4.50
   9  -5   1   82.95    3.56
   9  -5   2   84.24    3.43
   9  -5   2   93.45    4.31
   9  -5   3   22.17    1.49
   9  -5   3   22.13    2.02
   9  -5   4   55.37    2.49
   9  -4  -8   50.30    2.50
   9  -4  -7  128.73    4.93
   9  -4  -6   92.80    4.64
   9  -4  -5  132.06    4.90
   9  -4  -5  133.92    4.57
   9  -4  -4   29.45    2.37
   9  -4  -4   32.42    2.61
   9  -4  -4   30.83    3.21
   9  -4  -3  274.45    8.16
   9  -4  -3  270.33    9.04
   9  -4  -2  101.35    5.05
   9  -4  -2   98.58    4.82
   9  -4  -2   99.40    5.32
   9  -4  -1  249.78    7.86
   9  -4  -1  254.56    8.27
   9  -4  -1  256.93    8.49
   9  -4   0  294.70    8.19
   9  -4   0  288.82    8.95
   9  -4   0  293.68    8.84
   9  -4   1    3.51    1.21
   9  -4   1    4.21    1.48
   9  -4   1    3.58    1.71
   9  -4   2  104.74    4.78
   9  -4   2   94.74    3.99
   9  -4   3  112.24    4.50
   9  -4   3   96.67    3.27
   9  -4   4   29.06    2.00
   9  -3  -9   32.41    1.97
   9  -3  -9   36.53    1.70
   9  -3  -8   20.65    1.95
   9  -3  -7   43.62    3.17
   9  -3  -6  133.73    5.55
   9  -3  -6  133.04    5.85
   9  -3  -5   54.15    3.69
   9  -3  -5   59.00    4.19
   9  -3  -4   60.99    3.79
   9  -3  -4   65.31    4.47
   9  -3  -3   44.85    3.68
   9  -3  -3   46.13    3.19
   9  -3  -3   42.55    3.03
   9  -3  -3   46.04    4.03
   9  -3  -2   41.34    3.59
   9  -3  -2   37.05    2.98
   9  -3  -2   36.83    2.69
   9  -3  -2   36.60    3.61
   9  -3  -1   69.44    4.30
   9  -3  -1   75.57    4.23
   9  -3  -1   75.51    4.78
   9  -3   0   95.18    4.66
   9  -3   0   96.32    4.76
   9  -3   0   94.03    5.12
   9  -3   1  468.66   10.90
   9  -3   1  474.74   11.70
   9  -3   1  474.79   11.95
   9  -3   2  260.46    6.43
   9  -3   2  273.89    7.83
   9  -3   3   66.34    3.39
   9  -3   3   60.40    2.94
   9  -3   4   11.67    1.19
   9  -2 -10  134.76    3.64
   9  -2  -9   34.26    2.39
   9  -2  -8   49.09    3.23
   9  -2  -8   47.81    2.70
   9  -2  -7   42.94    2.90
   9  -2  -7   44.28    3.39
   9  -2  -7   39.67    2.98
   9  -2  -6   69.55    4.08
   9  -2  -6   75.27    4.48
   9  -2  -6   75.42    4.37
   9  -2  -5   88.46    4.84
   9  -2  -5   78.13    4.64
   9  -2  -5   81.83    4.80
   9  -2  -4   17.09    2.52
   9  -2  -4   11.38    2.22
   9  -2  -4   15.45    2.80
   9  -2  -3  170.08    7.13
   9  -2  -3  160.08    6.37
   9  -2  -3  156.13    7.06
   9  -2  -2  333.30   10.43
   9  -2  -2  336.24    9.34
   9  -2  -2  341.28   10.80
   9  -2  -1  364.57   10.59
   9  -2  -1  353.81    9.22
   9  -2  -1  343.13    9.04
   9  -2  -1  356.01   10.95
   9  -2   0  157.93    6.22
   9  -2   0  153.05    5.71
   9  -2   0  154.85    6.72
   9  -2   1    2.39    1.39
   9  -2   1    3.70    1.74
   9  -2   1    0.52    1.22
   9  -2   2   29.63    2.11
   9  -2   2   26.83    2.33
   9  -2   2   27.55    2.55
   9  -2   3    1.66    1.11
   9  -2   4   34.30    1.92
   9  -1 -10   27.47    1.67
   9  -1  -9   59.59    3.15
   9  -1  -8  275.70    8.12
   9  -1  -7   30.71    2.31
   9  -1  -7   36.53    3.32
   9  -1  -7   36.30    2.60
   9  -1  -6  106.77    4.80
   9  -1  -6  107.21    5.54
   9  -1  -6  100.92    4.72
   9  -1  -5   24.65    2.73
   9  -1  -5   26.40    2.96
   9  -1  -5   30.23    2.94
   9  -1  -4    0.97    1.53
   9  -1  -4    0.67    1.64
   9  -1  -4    3.92    1.74
   9  -1  -3   91.69    5.14
   9  -1  -3  100.49    5.24
   9  -1  -3   94.58    5.25
   9  -1  -2  166.64    7.02
   9  -1  -2  171.22    6.64
   9  -1  -2  182.26    7.34
   9  -1  -1  116.31    5.59
   9  -1  -1  124.50    5.20
   9  -1  -1  124.33    6.05
   9  -1   0   69.03    4.04
   9  -1   0   63.08    3.35
   9  -1   0   63.93    4.23
   9  -1   1  107.91    4.59
   9  -1   1  103.72    3.81
   9  -1   1  110.36    5.17
   9  -1   2   58.51    2.84
   9  -1   2   57.76    3.42
   9  -1   3   15.98    1.69
   9   0  -9  179.76    5.37
   9   0  -8   50.54    3.25
   9   0  -7    4.50    1.83
   9   0  -6   13.70    1.78
   9   0  -6   16.56    2.54
   9   0  -6   14.78    1.76
   9   0  -5   16.17    2.17
   9   0  -5   12.57    2.32
   9   0  -5   10.24    1.67
   9   0  -4   46.39    3.39
   9   0  -4   43.69    3.74
   9   0  -4   47.46    2.86
   9   0  -4   44.32    3.21
   9   0  -3    3.60    1.52
   9   0  -3    4.14    1.88
   9   0  -3    5.57    1.72
   9   0  -2  212.27    7.58
   9   0  -2  213.19    7.50
   9   0  -2  215.90    7.47
   9   0  -1   87.13    4.53
   9   0  -1   85.01    4.33
   9   0  -1   88.49    4.65
   9   0   0   74.66    3.93
   9   0   0   69.60    3.95
   9   0   1   80.92    3.69
   9   0   1   76.63    3.08
   9   0   1   83.85    4.03
   9   0   2   29.22    2.12
   9   1  -9   93.48    3.28
   9   1  -8  202.78    6.05
   9   1  -7  128.61    5.25
   9   1  -6   27.39    2.75
   9   1  -5   17.91    1.78
   9   1  -5   16.33    2.45
   9   1  -5   14.45    1.96
   9   1  -4  165.90    5.73
   9   1  -4  170.72    5.44
   9   1  -4  159.08    5.09
   9   1  -3  231.25    7.08
   9   1  -3  227.18    7.70
   9   1  -3  214.91    6.42
   9   1  -2   29.94    2.48
   9   1  -2   30.69    2.76
   9   1  -2   28.22    2.33
   9   1  -1  144.40    5.17
   9   1  -1  129.97    4.76
   9   1   0   14.58    1.72
   9   1   0   15.68    1.72
   9   1   1   35.84    1.79
   9   1   1   30.85    1.81
   9   2  -9   95.67    3.24
   9   2  -8   50.64    2.28
   9   2  -8   54.13    2.75
   9   2  -7   41.88    2.49
   9   2  -7   46.24    2.76
   9   2  -6   10.42    1.69
   9   2  -6    7.44    1.55
   9   2  -5   19.40    2.12
   9   2  -5   14.65    1.77
   9   2  -4   45.84    3.10
   9   2  -4   42.96    2.41
   9   2  -3   42.62    2.96
   9   2  -2    4.50    1.34
   9   2  -1  339.43    7.80
   9   2   0   54.98    2.25
   9   3  -7   42.01    2.10
   9   3  -6   36.04    2.02
   9   3  -5   21.36    1.50
   9   3  -4   51.61    2.45
   9   3  -3   38.44    2.05
   9   3  -2    7.40    0.98
  10  -5  -4   12.27    1.21
  10  -5  -3  148.42    4.10
  10  -5  -2   90.82    2.75
  10  -5  -2   96.78    3.10
  10  -5  -1  118.71    3.35
  10  -4  -6   23.77    1.56
  10  -4  -5  145.22    4.40
  10  -4  -4  128.80    4.39
  10  -4  -3   17.18    1.74
  10  -4  -2  117.25    3.27
  10  -4  -2  127.28    4.37
  10  -4  -1  275.42    5.93
  10  -4  -1  282.16    6.75
  10  -4   0  105.51    3.14
  10  -4   0  111.79    3.50
  10  -3  -6  146.32    3.97
  10  -3  -6  172.40    4.68
  10  -3  -5   47.21    2.18
  10  -3  -5   50.21    2.70
  10  -3  -4   42.74    2.49
  10  -3  -4   37.35    2.54
  10  -3  -3    3.34    1.14
  10  -3  -3    4.01    1.34
  10  -3  -2   16.50    1.62
  10  -3  -2   16.50    1.94
  10  -3  -1   90.19    3.79
  10  -3   0  134.00    4.26
  10  -3   1  141.48    3.79
  10  -2  -7   72.51    2.78
  10  -2  -6  150.52    4.51
  10  -2  -6  148.53    4.32
  10  -2  -5   15.84    1.69
  10  -2  -5   16.86    1.71
  10  -2  -4   73.49    3.30
  10  -2  -4   65.91    2.96
  10  -2  -4   64.76    3.29
  10  -2  -3   55.39    2.92
  10  -2  -3   47.50    2.34
  10  -2  -3   51.58    3.02
  10  -2  -2   35.01    2.29
  10  -2  -2   33.82    2.46
  10  -2  -1   58.96    3.04
  10  -2   0  166.80    4.85
  10  -2   1   55.56    2.21
  10  -1  -7   20.84    1.60
  10  -1  -6   19.58    1.80
  10  -1  -5  244.89    6.42
  10  -1  -5  243.95    5.86
  10  -1  -4   22.67    1.94
  10  -1  -4   22.99    1.84
  10  -1  -3   46.90    2.45
  10  -1  -3   48.41    2.64
  10  -1  -2   17.69    1.42
  10  -1  -2   23.72    1.90
  10  -1  -1   47.31    2.44
  10  -1   0  103.38    3.31
  10   0  -7   83.83    2.88
  10   0  -6   72.92    2.94
  10   0  -5   72.47    3.09
  10   0  -4   12.97    1.46
  10   0  -3   16.94    1.51
  10   0  -3   13.56    1.14
  10   0  -2   44.39    1.93
  10   1  -5    7.10    1.00


TITL qyan1CuLT in P1
REM P1 (#1 in standard setting)
CELL 1.54184   8.369799   8.602410  11.696310 103.4385 103.1109 102.9769
ZERR    2.00   0.000191   0.000195   0.000241   0.0019   0.0019   0.0019
LATT -1
SFAC C H N O S
UNIT 40.00 34.00 2.00 2.00 2.00
TREF
HKLF 4
END
_computing_structure_solution     'SHELXT 2014/4 (Sheldrick, 2014)'
_computing_structure_solution     'SHELXT 2014/4 (Sheldrick, 2014)'
;
_shelx_hkl_checksum              6730
_olex2_date_sample_data_collection 2021-07-11
_olex2_submission_special_instructions 'No special instructions were received'
_oxdiff_exptl_absorpt_empirical_details
;
Empirical correction (ABSPACK) includes:
- Absorption correction using spherical harmonics
- Frame scaling
;
_oxdiff_exptl_absorpt_empirical_full_max 1.156
_oxdiff_exptl_absorpt_empirical_full_min 0.909
loop_
_space_group_symop_operation_xyz
'x, y, z'
loop_
_atom_site_label
_atom_site_type_symbol
_atom_site_fract_x
_atom_site_fract_y
_atom_site_fract_z
_atom_site_U_iso_or_equiv
_atom_site_adp_type
_atom_site_occupancy
_atom_site_site_symmetry_order
_atom_site_calc_flag
_atom_site_refinement_flags_posn
_atom_site_refinement_flags_adp
_atom_site_refinement_flags_occupancy
_atom_site_disorder_assembly
_atom_site_disorder_group
S1 S 0.40660(10) 0.46320(10) 0.62131(8) 0.0225(2) Uani 0.9 1 d D U P A 1
S1B S 0.4983(16) 0.2676(14) 0.4252(11) 0.023(3) Uani 0.1 1 d D U P A 2
N1 N 0.7305(3) 0.5356(3) 0.8717(2) 0.0155(5) Uani 1 1 d . . . . .
H1 H 0.6419 0.4801 0.8891 0.019 Uiso 1 1 calc R U . . .
C1 C 0.5355(4) 0.3485(3) 0.5758(3) 0.0165(5) Uani 1 1 d D U . . .
C2 C 0.4864(7) 0.2816(6) 0.4463(5) 0.0244(14) Uani 0.9 1 d D U P A 1
H2 H 0.5414 0.2143 0.4021 0.029 Uiso 0.9 1 calc R U P A 1
C2B C 0.4079(18) 0.428(2) 0.585(3) 0.022(2) Uani 0.1 1 d D U P A 2
H2B H 0.4015 0.4830 0.6638 0.026 Uiso 0.1 1 calc R U P A 2
C3 C 0.3401(4) 0.3306(4) 0.3910(3) 0.0268(7) Uani 1 1 d D U . . .
H3A H 0.2873 0.2993 0.3048 0.032 Uiso 0.9 1 calc R U P A 1
H3B H 0.2773 0.3010 0.3066 0.032 Uiso 0.1 1 calc R U P A 2
C4 C 0.2867(4) 0.4257(4) 0.4752(3) 0.0221(6) Uani 1 1 d D U . . .
H4A H 0.1914 0.4672 0.4543 0.026 Uiso 0.9 1 calc R U P A 1
H4B H 0.1963 0.4760 0.4649 0.026 Uiso 0.1 1 calc R U P A 2
C5 C 0.6174(4) 0.1764(3) 0.7180(3) 0.0143(6) Uani 1 1 d . . . . .
C6 C 0.4637(4) 0.0507(4) 0.6546(3) 0.0182(6) Uani 1 1 d . . . . .
H6 H 0.3915 0.0583 0.5819 0.022 Uiso 1 1 calc R U . . .
C7 C 0.4153(4) -0.0853(4) 0.6968(3) 0.0237(7) Uani 1 1 d . . . . .
H7 H 0.3103 -0.1702 0.6528 0.028 Uiso 1 1 calc R U . . .
C8 C 0.5195(4) -0.0979(4) 0.8031(3) 0.0233(7) Uani 1 1 d . . . . .
H8 H 0.4851 -0.1903 0.8326 0.028 Uiso 1 1 calc R U . . .
C9 C 0.6743(4) 0.0252(4) 0.8662(3) 0.0205(6) Uani 1 1 d . . . . .
H9 H 0.7471 0.0164 0.9381 0.025 Uiso 1 1 calc R U . . .
C10 C 0.7220(4) 0.1613(4) 0.8235(3) 0.0178(6) Uani 1 1 d . . . . .
H10 H 0.8277 0.2455 0.8670 0.021 Uiso 1 1 calc R U . . .
C11 C 0.6779(3) 0.3214(3) 0.6678(3) 0.0142(6) Uani 1 1 d . . . . .
H11 H 0.7587 0.2894 0.6219 0.017 Uiso 1 1 calc R U . . .
C12 C 0.7792(3) 0.4825(3) 0.7673(3) 0.0138(5) Uani 1 1 d . . . . .
C13 C 0.9203(4) 0.6015(4) 0.7686(3) 0.0147(6) Uani 1 1 d . . . . .
C14 C 0.9617(4) 0.7358(4) 0.8804(3) 0.0148(6) Uani 1 1 d . . . . .
C15 C 1.0914(4) 0.8891(4) 0.9337(3) 0.0187(6) Uani 1 1 d . . . . .
H15 H 1.1720 0.9239 0.8924 0.022 Uiso 1 1 calc R U . . .
C16 C 1.0990(4) 0.9885(4) 1.0480(3) 0.0205(6) Uani 1 1 d . . . . .
H16 H 1.1846 1.0935 1.0844 0.025 Uiso 1 1 calc R U . . .
C17 C 0.9828(4) 0.9370(4) 1.1108(3) 0.0205(6) Uani 1 1 d . . . . .
H17 H 0.9928 1.0068 1.1896 0.025 Uiso 1 1 calc R U . . .
C18 C 0.8529(4) 0.7859(4) 1.0602(3) 0.0186(6) Uani 1 1 d . . . . .
H18 H 0.7748 0.7505 1.1031 0.022 Uiso 1 1 calc R U . . .
C19 C 0.8427(4) 0.6892(3) 0.9442(3) 0.0150(6) Uani 1 1 d . . . . .
C20 C 1.0185(4) 0.5926(4) 0.6766(3) 0.0202(6) Uani 1 1 d . . . . .
H20A H 1.0191 0.6869 0.6429 0.030 Uiso 1 1 calc R U . . .
H20B H 0.9641 0.4874 0.6099 0.030 Uiso 1 1 calc R U . . .
H20C H 1.1367 0.5978 0.7167 0.030 Uiso 1 1 calc R U . . .
S1A S 0.0098(3) 0.4328(3) 0.1820(2) 0.0328(6) Uani 0.5 1 d D U P B 1
S1C S 0.1006(3) 0.7528(3) 0.35314(18) 0.0203(5) Uani 0.5 1 d D U P B 2
N1A N 0.5095(3) 0.7496(3) 0.3899(2) 0.0181(5) Uani 1 1 d . . . . .
H1A H 0.4511 0.6693 0.4122 0.022 Uiso 1 1 calc R U . . .
C1A C 0.1475(4) 0.6218(4) 0.2372(3) 0.0202(6) Uani 1 1 d D U . . .
C2A C 0.1027(14) 0.7231(15) 0.3348(9) 0.0248(18) Uani 0.5 1 d D U P B 1
H2A H 0.1630 0.8361 0.3808 0.030 Uiso 0.5 1 calc R U P B 1
C2C C 0.0251(13) 0.4671(15) 0.2018(10) 0.037(2) Uani 0.5 1 d D U P B 2
H2C H 0.0232 0.3734 0.1390 0.044 Uiso 0.5 1 calc R U P B 2
C3A C -0.0611(5) 0.6156(5) 0.3516(4) 0.0368(8) Uani 1 1 d D U . . .
H3AA H -0.1210 0.6512 0.4079 0.044 Uiso 0.5 1 calc R U P B 1
H3AB H -0.1275 0.6403 0.4057 0.044 Uiso 0.5 1 calc R U P B 2
C4A C -0.1019(5) 0.4631(5) 0.2717(4) 0.0357(8) Uani 1 1 d D U . . .
H4AA H -0.1960 0.3756 0.2693 0.043 Uiso 0.5 1 calc R U P B 1
H4AB H -0.1952 0.3697 0.2618 0.043 Uiso 0.5 1 calc R U P B 2
C5A C 0.3185(4) 0.5404(4) 0.0928(3) 0.0175(6) Uani 1 1 d . . . . .
C6A C 0.2070(4) 0.4770(4) -0.0272(3) 0.0267(8) Uani 1 1 d . . . . .
H6A H 0.1162 0.5235 -0.0500 0.032 Uiso 1 1 calc R U . . .
C7A C 0.2264(5) 0.3494(4) -0.1120(3) 0.0290(8) Uani 1 1 d . . . . .
H7A H 0.1478 0.3058 -0.1924 0.035 Uiso 1 1 calc R U . . .
C8A C 0.3601(4) 0.2839(4) -0.0808(3) 0.0257(7) Uani 1 1 d . . . . .
H8A H 0.3743 0.1960 -0.1402 0.031 Uiso 1 1 calc R U . . .
C9A C 0.4724(4) 0.3446(4) 0.0348(4) 0.0253(7) Uani 1 1 d . . . . .
H9A H 0.5648 0.2988 0.0540 0.030 Uiso 1 1 calc R U . . .
C10A C 0.4561(4) 0.4675(4) 0.1228(3) 0.0194(6) Uani 1 1 d . . . . .
H10A H 0.5341 0.5057 0.2033 0.023 Uiso 1 1 calc R U . . .
C11A C 0.2902(4) 0.6833(4) 0.1843(3) 0.0175(6) Uani 1 1 d . . . . .
H11A H 0.2520 0.7580 0.1368 0.021 Uiso 1 1 calc R U . . .
C12A C 0.4551(4) 0.7876(4) 0.2818(3) 0.0176(6) Uani 1 1 d . . . . .
C13A C 0.5780(4) 0.9183(4) 0.2760(3) 0.0168(6) Uani 1 1 d . . . . .
C14A C 0.7175(4) 0.9640(4) 0.3873(3) 0.0162(6) Uani 1 1 d . . . . .
C15A C 0.8797(4) 1.0844(4) 0.4341(3) 0.0196(6) Uani 1 1 d . . . . .
H15A H 0.9155 1.1579 0.3895 0.023 Uiso 1 1 calc R U . . .
C16A C 0.9858(4) 1.0935(4) 0.5464(3) 0.0214(7) Uani 1 1 d . . . . .
H16A H 1.0962 1.1732 0.5782 0.026 Uiso 1 1 calc R U . . .
C17A C 0.9336(4) 0.9871(4) 0.6142(3) 0.0215(7) Uani 1 1 d . . . . .
H17A H 1.0088 0.9972 0.6915 0.026 Uiso 1 1 calc R U . . .
C18A C 0.7740(4) 0.8673(4) 0.5705(3) 0.0189(6) Uani 1 1 d . . . . .
H18A H 0.7383 0.7956 0.6164 0.023 Uiso 1 1 calc R U . . .
C19A C 0.6697(4) 0.8572(4) 0.4571(3) 0.0176(6) Uani 1 1 d . . . . .
C20A C 0.5695(4) 0.9987(4) 0.1750(3) 0.0215(6) Uani 1 1 d . . . . .
H20D H 0.5304 1.0978 0.1965 0.032 Uiso 1 1 calc R U . . .
H20E H 0.4890 0.9192 0.0983 0.032 Uiso 1 1 calc R U . . .
H20F H 0.6837 1.0318 0.1640 0.032 Uiso 1 1 calc R U . . .
loop_
_atom_site_aniso_label
_atom_site_aniso_U_11
_atom_site_aniso_U_22
_atom_site_aniso_U_33
_atom_site_aniso_U_23
_atom_site_aniso_U_13
_atom_site_aniso_U_12
S1 0.0235(4) 0.0261(4) 0.0196(5) 0.0058(3) 0.0052(3) 0.0125(3)
S1B 0.029(4) 0.026(5) 0.016(2) 0.007(2) 0.0042(19) 0.017(4)
N1 0.0162(11) 0.0144(11) 0.0164(13) 0.0044(10) 0.0071(10) 0.0035(9)
C1 0.0172(12) 0.0150(12) 0.0177(13) 0.0066(10) 0.0044(9) 0.0048(10)
C2 0.030(2) 0.027(3) 0.0204(18) 0.0081(15) 0.0039(13) 0.019(2)
C2B 0.022(3) 0.021(4) 0.022(2) 0.0068(17) 0.0049(15) 0.008(3)
C3 0.0310(14) 0.0263(15) 0.0209(13) 0.0063(11) 0.0014(11) 0.0116(12)
C4 0.0214(13) 0.0214(14) 0.0250(13) 0.0103(11) 0.0048(10) 0.0078(11)
C5 0.0161(13) 0.0126(12) 0.0160(15) 0.0035(11) 0.0072(11) 0.0056(10)
C6 0.0183(14) 0.0159(14) 0.0181(16) 0.0027(12) 0.0035(12) 0.0049(11)
C7 0.0229(15) 0.0185(14) 0.0269(18) 0.0047(13) 0.0084(13) 0.0018(12)
C8 0.0338(17) 0.0143(14) 0.0272(18) 0.0098(12) 0.0136(14) 0.0089(12)
C9 0.0259(15) 0.0203(15) 0.0181(16) 0.0078(12) 0.0069(12) 0.0098(12)
C10 0.0187(14) 0.0162(13) 0.0183(16) 0.0041(11) 0.0046(12) 0.0066(11)
C11 0.0143(12) 0.0149(13) 0.0135(14) 0.0039(11) 0.0042(11) 0.0047(10)
C12 0.0156(12) 0.0145(13) 0.0120(14) 0.0051(11) 0.0028(11) 0.0060(10)
C13 0.0153(12) 0.0163(13) 0.0141(15) 0.0064(11) 0.0034(11) 0.0064(10)
C14 0.0170(13) 0.0158(13) 0.0137(15) 0.0071(11) 0.0036(11) 0.0071(11)
C15 0.0168(13) 0.0169(14) 0.0221(17) 0.0071(12) 0.0040(12) 0.0046(11)
C16 0.0188(14) 0.0148(13) 0.0238(17) 0.0047(12) 0.0012(12) 0.0033(11)
C17 0.0255(15) 0.0178(15) 0.0162(16) 0.0020(12) 0.0016(12) 0.0101(12)
C18 0.0222(14) 0.0197(14) 0.0185(16) 0.0084(12) 0.0075(12) 0.0107(12)
C19 0.0148(13) 0.0131(13) 0.0171(15) 0.0056(11) 0.0029(11) 0.0051(10)
C20 0.0231(14) 0.0175(14) 0.0218(17) 0.0060(12) 0.0107(13) 0.0053(12)
S1A 0.0328(9) 0.0326(11) 0.0333(11) 0.0091(9) 0.0091(8) 0.0114(8)
S1C 0.0236(8) 0.0214(10) 0.0164(9) 0.0018(7) 0.0044(7) 0.0131(6)
N1A 0.0190(12) 0.0177(12) 0.0171(13) 0.0066(10) 0.0025(10) 0.0057(10)
C1A 0.0213(12) 0.0238(12) 0.0171(13) 0.0057(10) 0.0021(10) 0.0134(10)
C2A 0.026(2) 0.027(2) 0.024(3) 0.0086(16) 0.0022(19) 0.0164(15)
C2C 0.037(3) 0.033(2) 0.037(3) 0.0081(16) 0.009(2) 0.0088(16)
C3A 0.0334(13) 0.0505(15) 0.0340(15) 0.0160(11) 0.0097(11) 0.0231(11)
C4A 0.0288(13) 0.0440(14) 0.0344(15) 0.0194(11) 0.0023(11) 0.0098(11)
C5A 0.0181(13) 0.0161(14) 0.0170(16) 0.0046(12) 0.0034(12) 0.0045(11)
C6A 0.0257(16) 0.0196(15) 0.0278(19) 0.0072(14) -0.0054(13) 0.0064(13)
C7A 0.0338(18) 0.0275(17) 0.0190(17) 0.0031(14) 0.0044(14) 0.0036(14)
C8A 0.0312(17) 0.0187(14) 0.0271(18) 0.0026(13) 0.0178(14) 0.0022(13)
C9A 0.0247(16) 0.0257(16) 0.035(2) 0.0152(15) 0.0150(14) 0.0125(13)
C10A 0.0141(13) 0.0306(16) 0.0061(14) 0.0042(12) 0.0004(11) -0.0036(12)
C11A 0.0181(13) 0.0152(13) 0.0172(15) 0.0046(12) 0.0008(11) 0.0055(11)
C12A 0.0193(14) 0.0162(13) 0.0172(16) 0.0043(11) 0.0031(12) 0.0080(11)
C13A 0.0172(13) 0.0165(13) 0.0157(15) 0.0016(11) 0.0040(11) 0.0070(11)
C14A 0.0189(13) 0.0162(13) 0.0145(15) 0.0025(11) 0.0051(11) 0.0093(11)
C15A 0.0217(15) 0.0172(14) 0.0209(17) 0.0038(12) 0.0077(12) 0.0082(12)
C16A 0.0190(14) 0.0194(14) 0.0207(17) -0.0004(12) 0.0032(12) 0.0050(11)
C17A 0.0209(15) 0.0242(16) 0.0186(16) 0.0035(13) 0.0037(12) 0.0102(12)
C18A 0.0238(15) 0.0182(14) 0.0171(15) 0.0056(12) 0.0070(12) 0.0099(12)
C19A 0.0184(13) 0.0170(13) 0.0181(16) 0.0033(12) 0.0059(11) 0.0079(11)
C20A 0.0224(15) 0.0212(15) 0.0210(17) 0.0069(13) 0.0054(13) 0.0072(12)
loop_
_atom_type_symbol
_atom_type_description
_atom_type_scat_dispersion_real
_atom_type_scat_dispersion_imag
_atom_type_scat_source
C C 0.0181 0.0091 'International Tables Vol C Tables 4.2.6.8 and 6.1.1.4'
H H 0.0000 0.0000 'International Tables Vol C Tables 4.2.6.8 and 6.1.1.4'
N N 0.0311 0.0180 'International Tables Vol C Tables 4.2.6.8 and 6.1.1.4'
S S 0.3331 0.5567 'International Tables Vol C Tables 4.2.6.8 and 6.1.1.4'
loop_
_geom_angle_atom_site_label_1
_geom_angle_atom_site_label_2
_geom_angle_atom_site_label_3
_geom_angle
_geom_angle_site_symmetry_1
_geom_angle_site_symmetry_3
_geom_angle_publ_flag
C4 S1 C1 92.66(16) . . ?
C3 S1B C1 93.8(7) . . ?
C12 N1 H1 125.3 . . ?
C19 N1 H1 125.3 . . ?
C19 N1 C12 109.4(2) . . ?
C2 C1 S1 111.4(3) . . ?
C2 C1 C11 126.8(3) . . ?
C2B C1 S1B 104.4(13) . . ?
C2B C1 C11 134.4(12) . . ?
C11 C1 S1 121.8(2) . . ?
C11 C1 S1B 121.2(5) . . ?
C1 C2 H2 125.0 . . ?
C1 C2 C3 110.1(4) . . ?
C3 C2 H2 125.0 . . ?
C1 C2B H2B 120.2 . . ?
C1 C2B C4 120(2) . . ?
C4 C2B H2B 120.2 . . ?
S1B C3 H3B 118.4 . . ?
C2 C3 H3A 123.6 . . ?
C4 C3 S1B 123.2(5) . . ?
C4 C3 C2 112.7(3) . . ?
C4 C3 H3A 123.6 . . ?
C4 C3 H3B 118.4 . . ?
S1 C4 H4A 123.4 . . ?
C2B C4 H4B 130.6 . . ?
C3 C4 S1 113.1(3) . . ?
C3 C4 C2B 98.9(12) . . ?
C3 C4 H4A 123.4 . . ?
C3 C4 H4B 130.6 . . ?
C6 C5 C11 121.0(3) . . ?
C10 C5 C6 118.6(3) . . ?
C10 C5 C11 120.2(3) . . ?
C5 C6 H6 119.7 . . ?
C7 C6 C5 120.5(3) . . ?
C7 C6 H6 119.7 . . ?
C6 C7 H7 119.8 . . ?
C6 C7 C8 120.3(3) . . ?
C8 C7 H7 119.8 . . ?
C7 C8 H8 120.2 . . ?
C9 C8 C7 119.7(3) . . ?
C9 C8 H8 120.2 . . ?
C8 C9 H9 120.2 . . ?
C8 C9 C10 119.7(3) . . ?
C10 C9 H9 120.2 . . ?
C5 C10 H10 119.5 . . ?
C9 C10 C5 121.1(3) . . ?
C9 C10 H10 119.5 . . ?
C1 C11 C5 113.8(2) . . ?
C1 C11 H11 106.1 . . ?
C5 C11 H11 106.1 . . ?
C12 C11 C1 110.7(2) . . ?
C12 C11 C5 113.2(2) . . ?
C12 C11 H11 106.1 . . ?
N1 C12 C11 122.0(2) . . ?
C13 C12 N1 109.7(3) . . ?
C13 C12 C11 128.2(3) . . ?
C12 C13 C14 106.4(3) . . ?
C12 C13 C20 127.6(3) . . ?
C14 C13 C20 126.0(3) . . ?
C15 C14 C13 133.4(3) . . ?
C15 C14 C19 119.1(3) . . ?
C19 C14 C13 107.5(3) . . ?
C14 C15 H15 120.8 . . ?
C16 C15 C14 118.5(3) . . ?
C16 C15 H15 120.8 . . ?
C15 C16 H16 119.4 . . ?
C15 C16 C17 121.3(3) . . ?
C17 C16 H16 119.4 . . ?
C16 C17 H17 119.3 . . ?
C18 C17 C16 121.5(3) . . ?
C18 C17 H17 119.3 . . ?
C17 C18 H18 121.5 . . ?
C19 C18 C17 117.0(3) . . ?
C19 C18 H18 121.5 . . ?
N1 C19 C14 106.9(3) . . ?
N1 C19 C18 130.4(3) . . ?
C18 C19 C14 122.6(3) . . ?
C13 C20 H20A 109.5 . . ?
C13 C20 H20B 109.5 . . ?
C13 C20 H20C 109.5 . . ?
H20A C20 H20B 109.5 . . ?
H20A C20 H20C 109.5 . . ?
H20B C20 H20C 109.5 . . ?
C4A S1A C1A 96.1(2) . . ?
C3A S1C C1A 94.4(2) . . ?
C12A N1A H1A 125.4 . . ?
C19A N1A H1A 125.4 . . ?
C19A N1A C12A 109.2(3) . . ?
C2A C1A S1A 110.4(6) . . ?
C2A C1A C11A 125.2(6) . . ?
C2C C1A S1C 107.2(6) . . ?
C2C C1A C11A 130.4(6) . . ?
C11A C1A S1A 124.2(2) . . ?
C11A C1A S1C 122.1(2) . . ?
C1A C2A H2A 125.9 . . ?
C1A C2A C3A 108.2(8) . . ?
C3A C2A H2A 125.9 . . ?
C1A C2C H2C 123.4 . . ?
C1A C2C C4A 113.2(9) . . ?
C4A C2C H2C 123.4 . . ?
S1C C3A H3AB 121.1 . . ?
C2A C3A H3AA 126.5 . . ?
C4A C3A S1C 117.8(3) . . ?
C4A C3A C2A 106.9(5) . . ?
C4A C3A H3AA 126.5 . . ?
C4A C3A H3AB 121.1 . . ?
S1A C4A H4AA 120.8 . . ?
C2C C4A H4AB 126.3 . . ?
C3A C4A S1A 118.4(3) . . ?
C3A C4A C2C 107.4(6) . . ?
C3A C4A H4AA 120.8 . . ?
C3A C4A H4AB 126.3 . . ?
C6A C5A C10A 117.5(3) . . ?
C6A C5A C11A 118.9(3) . . ?
C10A C5A C11A 123.6(3) . . ?
C5A C6A H6A 119.4 . . ?
C7A C6A C5A 121.1(3) . . ?
C7A C6A H6A 119.4 . . ?
C6A C7A H7A 120.1 . . ?
C6A C7A C8A 119.9(3) . . ?
C8A C7A H7A 120.1 . . ?
C7A C8A H8A 119.8 . . ?
C9A C8A C7A 120.4(3) . . ?
C9A C8A H8A 119.8 . . ?
C8A C9A H9A 119.0 . . ?
C10A C9A C8A 122.0(3) . . ?
C10A C9A H9A 119.0 . . ?
C5A C10A H10A 120.5 . . ?
C9A C10A C5A 119.1(3) . . ?
C9A C10A H10A 120.5 . . ?
C1A C11A C5A 112.1(2) . . ?
C1A C11A H11A 106.7 . . ?
C5A C11A H11A 106.7 . . ?
C12A C11A C1A 112.9(3) . . ?
C12A C11A C5A 111.4(2) . . ?
C12A C11A H11A 106.7 . . ?
N1A C12A C11A 121.8(3) . . ?
C13A C12A N1A 110.0(3) . . ?
C13A C12A C11A 127.9(3) . . ?
C12A C13A C14A 106.2(3) . . ?
C12A C13A C20A 127.1(3) . . ?
C14A C13A C20A 126.7(3) . . ?
C15A C14A C13A 133.8(3) . . ?
C15A C14A C19A 118.6(3) . . ?
C19A C14A C13A 107.6(3) . . ?
C14A C15A H15A 120.6 . . ?
C16A C15A C14A 118.7(3) . . ?
C16A C15A H15A 120.6 . . ?
C15A C16A H16A 119.4 . . ?
C15A C16A C17A 121.2(3) . . ?
C17A C16A H16A 119.4 . . ?
C16A C17A H17A 119.3 . . ?
C18A C17A C16A 121.4(3) . . ?
C18A C17A H17A 119.3 . . ?
C17A C18A H18A 121.5 . . ?
C19A C18A C17A 117.0(3) . . ?
C19A C18A H18A 121.5 . . ?
N1A C19A C14A 107.0(3) . . ?
N1A C19A C18A 130.0(3) . . ?
C18A C19A C14A 123.0(3) . . ?
C13A C20A H20D 109.5 . . ?
C13A C20A H20E 109.5 . . ?
C13A C20A H20F 109.5 . . ?
H20D C20A H20E 109.5 . . ?
H20D C20A H20F 109.5 . . ?
H20E C20A H20F 109.5 . . ?
loop_
_geom_bond_atom_site_label_1
_geom_bond_atom_site_label_2
_geom_bond_distance
_geom_bond_site_symmetry_2
_geom_bond_publ_flag
S1 C1 1.708(3) . ?
S1 C4 1.689(3) . ?
S1B C1 1.664(12) . ?
S1B C3 1.546(13) . ?
N1 H1 0.8800 . ?
N1 C12 1.384(4) . ?
N1 C19 1.381(4) . ?
C1 C2 1.414(6) . ?
C1 C2B 1.40(2) . ?
C1 C11 1.514(4) . ?
C2 H2 0.9500 . ?
C2 C3 1.447(6) . ?
C2B H2B 0.9500 . ?
C2B C4 1.44(2) . ?
C3 H3A 0.9500 . ?
C3 H3B 0.9500 . ?
C3 C4 1.353(5) . ?
C4 H4A 0.9500 . ?
C4 H4B 0.9500 . ?
C5 C6 1.394(4) . ?
C5 C10 1.393(4) . ?
C5 C11 1.532(4) . ?
C6 H6 0.9500 . ?
C6 C7 1.386(4) . ?
C7 H7 0.9500 . ?
C7 C8 1.390(5) . ?
C8 H8 0.9500 . ?
C8 C9 1.389(5) . ?
C9 H9 0.9500 . ?
C9 C10 1.390(4) . ?
C10 H10 0.9500 . ?
C11 H11 1.0000 . ?
C11 C12 1.507(4) . ?
C12 C13 1.373(4) . ?
C13 C14 1.441(4) . ?
C13 C20 1.493(4) . ?
C14 C15 1.405(4) . ?
C14 C19 1.416(4) . ?
C15 H15 0.9500 . ?
C15 C16 1.389(5) . ?
C16 H16 0.9500 . ?
C16 C17 1.401(5) . ?
C17 H17 0.9500 . ?
C17 C18 1.392(4) . ?
C18 H18 0.9500 . ?
C18 C19 1.390(4) . ?
C20 H20A 0.9800 . ?
C20 H20B 0.9800 . ?
C20 H20C 0.9800 . ?
S1A C1A 1.650(4) . ?
S1A C4A 1.572(5) . ?
S1C C1A 1.730(4) . ?
S1C C3A 1.577(5) . ?
N1A H1A 0.8800 . ?
N1A C12A 1.382(4) . ?
N1A C19A 1.378(4) . ?
C1A C2A 1.443(11) . ?
C1A C2C 1.389(11) . ?
C1A C11A 1.515(4) . ?
C2A H2A 0.9500 . ?
C2A C3A 1.553(12) . ?
C2C H2C 0.9500 . ?
C2C C4A 1.481(13) . ?
C3A H3AA 0.9500 . ?
C3A H3AB 0.9500 . ?
C3A C4A 1.340(6) . ?
C4A H4AA 0.9500 . ?
C4A H4AB 0.9500 . ?
C5A C6A 1.399(4) . ?
C5A C10A 1.445(4) . ?
C5A C11A 1.532(4) . ?
C6A H6A 0.9500 . ?
C6A C7A 1.364(5) . ?
C7A H7A 0.9500 . ?
C7A C8A 1.377(5) . ?
C8A H8A 0.9500 . ?
C8A C9A 1.363(5) . ?
C9A H9A 0.9500 . ?
C9A C10A 1.348(5) . ?
C10A H10A 0.9500 . ?
C11A H11A 1.0000 . ?
C11A C12A 1.505(4) . ?
C12A C13A 1.369(4) . ?
C13A C14A 1.441(4) . ?
C13A C20A 1.499(4) . ?
C14A C15A 1.408(4) . ?
C14A C19A 1.416(4) . ?
C15A H15A 0.9500 . ?
C15A C16A 1.382(5) . ?
C16A H16A 0.9500 . ?
C16A C17A 1.405(5) . ?
C17A H17A 0.9500 . ?
C17A C18A 1.391(5) . ?
C18A H18A 0.9500 . ?
C18A C19A 1.385(5) . ?
C20A H20D 0.9800 . ?
C20A H20E 0.9800 . ?
C20A H20F 0.9800 . ?
loop_
_geom_torsion_atom_site_label_1
_geom_torsion_atom_site_label_2
_geom_torsion_atom_site_label_3
_geom_torsion_atom_site_label_4
_geom_torsion
_geom_torsion_site_symmetry_1
_geom_torsion_site_symmetry_2
_geom_torsion_site_symmetry_3
_geom_torsion_site_symmetry_4
_geom_torsion_publ_flag
S1 C1 C2 C3 -0.2(4) . . . . ?
S1 C1 C11 C5 83.9(3) . . . . ?
S1 C1 C11 C12 -45.0(3) . . . . ?
S1B C1 C2B C4 -0.9(5) . . . . ?
S1B C1 C11 C5 -96.3(6) . . . . ?
S1B C1 C11 C12 134.8(5) . . . . ?
S1B C3 C4 C2B -3.8(9) . . . . ?
N1 C12 C13 C14 0.1(3) . . . . ?
N1 C12 C13 C20 177.5(3) . . . . ?
C1 S1 C4 C3 -0.7(3) . . . . ?
C1 S1B C3 C4 3.3(8) . . . . ?
C1 C2 C3 C4 -0.4(5) . . . . ?
C1 C2B C4 C3 2.6(8) . . . . ?
C1 C11 C12 N1 86.8(3) . . . . ?
C1 C11 C12 C13 -88.9(3) . . . . ?
C2 C1 C11 C5 -93.6(4) . . . . ?
C2 C1 C11 C12 137.5(3) . . . . ?
C2 C3 C4 S1 0.7(4) . . . . ?
C2B C1 C11 C5 80.5(6) . . . . ?
C2B C1 C11 C12 -48.4(6) . . . . ?
C3 S1B C1 C2B -1.1(4) . . . . ?
C3 S1B C1 C11 176.6(3) . . . . ?
C4 S1 C1 C2 0.5(2) . . . . ?
C4 S1 C1 C11 -177.3(2) . . . . ?
C5 C6 C7 C8 0.1(5) . . . . ?
C5 C11 C12 N1 -42.4(4) . . . . ?
C5 C11 C12 C13 141.9(3) . . . . ?
C6 C5 C10 C9 -0.7(4) . . . . ?
C6 C5 C11 C1 20.6(4) . . . . ?
C6 C5 C11 C12 148.2(3) . . . . ?
C6 C7 C8 C9 -1.0(5) . . . . ?
C7 C8 C9 C10 1.1(5) . . . . ?
C8 C9 C10 C5 -0.2(5) . . . . ?
C10 C5 C6 C7 0.8(4) . . . . ?
C10 C5 C11 C1 -164.3(3) . . . . ?
C10 C5 C11 C12 -36.7(4) . . . . ?
C11 C1 C2 C3 177.5(3) . . . . ?
C11 C1 C2B C4 -178.1(4) . . . . ?
C11 C5 C6 C7 176.0(3) . . . . ?
C11 C5 C10 C9 -176.0(3) . . . . ?
C11 C12 C13 C14 176.3(3) . . . . ?
C11 C12 C13 C20 -6.4(5) . . . . ?
C12 N1 C19 C14 2.1(3) . . . . ?
C12 N1 C19 C18 -175.2(3) . . . . ?
C12 C13 C14 C15 179.1(3) . . . . ?
C12 C13 C14 C19 1.1(3) . . . . ?
C13 C14 C15 C16 -177.1(3) . . . . ?
C13 C14 C19 N1 -2.0(3) . . . . ?
C13 C14 C19 C18 175.6(3) . . . . ?
C14 C15 C16 C17 1.2(4) . . . . ?
C15 C14 C19 N1 179.7(3) . . . . ?
C15 C14 C19 C18 -2.8(4) . . . . ?
C15 C16 C17 C18 -1.3(5) . . . . ?
C16 C17 C18 C19 -0.6(4) . . . . ?
C17 C18 C19 N1 179.6(3) . . . . ?
C17 C18 C19 C14 2.6(4) . . . . ?
C19 N1 C12 C11 -177.8(3) . . . . ?
C19 N1 C12 C13 -1.4(3) . . . . ?
C19 C14 C15 C16 0.7(4) . . . . ?
C20 C13 C14 C15 1.7(5) . . . . ?
C20 C13 C14 C19 -176.3(3) . . . . ?
S1A C1A C2A C3A -0.2(4) . . . . ?
S1A C1A C11A C5A -12.9(4) . . . . ?
S1A C1A C11A C12A -139.6(3) . . . . ?
S1C C1A C2C C4A -0.1(4) . . . . ?
S1C C1A C11A C5A 174.0(2) . . . . ?
S1C C1A C11A C12A 47.2(3) . . . . ?
S1C C3A C4A C2C -0.3(5) . . . . ?
N1A C12A C13A C14A 0.2(3) . . . . ?
N1A C12A C13A C20A -179.6(3) . . . . ?
C1A S1A C4A C3A 2.6(4) . . . . ?
C1A S1C C3A C4A 0.3(3) . . . . ?
C1A C2A C3A C4A 1.8(5) . . . . ?
C1A C2C C4A C3A 0.2(5) . . . . ?
C1A C11A C12A N1A 38.2(4) . . . . ?
C1A C11A C12A C13A -148.1(3) . . . . ?
C2A C1A C11A C5A 173.1(3) . . . . ?
C2A C1A C11A C12A 46.4(4) . . . . ?
C2A C3A C4A S1A -2.9(5) . . . . ?
C2C C1A C11A C5A -11.9(5) . . . . ?
C2C C1A C11A C12A -138.6(4) . . . . ?
C3A S1C C1A C2C -0.1(3) . . . . ?
C3A S1C C1A C11A 175.2(3) . . . . ?
C4A S1A C1A C2A -1.2(3) . . . . ?
C4A S1A C1A C11A -175.9(3) . . . . ?
C5A C6A C7A C8A -1.6(5) . . . . ?
C5A C11A C12A N1A -89.0(3) . . . . ?
C5A C11A C12A C13A 84.7(4) . . . . ?
C6A C5A C10A C9A 0.8(4) . . . . ?
C6A C5A C11A C1A 79.3(4) . . . . ?
C6A C5A C11A C12A -153.2(3) . . . . ?
C6A C7A C8A C9A 0.7(5) . . . . ?
C7A C8A C9A C10A 1.0(5) . . . . ?
C8A C9A C10A C5A -1.7(5) . . . . ?
C10A C5A C6A C7A 0.9(5) . . . . ?
C10A C5A C11A C1A -101.4(3) . . . . ?
C10A C5A C11A C12A 26.1(4) . . . . ?
C11A C1A C2A C3A 174.5(3) . . . . ?
C11A C1A C2C C4A -174.9(4) . . . . ?
C11A C5A C6A C7A -179.8(3) . . . . ?
C11A C5A C10A C9A -178.5(3) . . . . ?
C11A C12A C13A C14A -174.2(3) . . . . ?
C11A C12A C13A C20A 6.1(5) . . . . ?
C12A N1A C19A C14A -1.0(3) . . . . ?
C12A N1A C19A C18A 179.7(3) . . . . ?
C12A C13A C14A C15A 178.5(3) . . . . ?
C12A C13A C14A C19A -0.8(3) . . . . ?
C13A C14A C15A C16A -179.1(3) . . . . ?
C13A C14A C19A N1A 1.1(3) . . . . ?
C13A C14A C19A C18A -179.6(3) . . . . ?
C14A C15A C16A C17A -0.9(4) . . . . ?
C15A C14A C19A N1A -178.3(3) . . . . ?
C15A C14A C19A C18A 1.0(4) . . . . ?
C15A C16A C17A C18A 0.8(5) . . . . ?
C16A C17A C18A C19A 0.3(5) . . . . ?
C17A C18A C19A N1A 178.0(3) . . . . ?
C17A C18A C19A C14A -1.2(4) . . . . ?
C19A N1A C12A C11A 175.3(3) . . . . ?
C19A N1A C12A C13A 0.6(3) . . . . ?
C19A C14A C15A C16A 0.1(4) . . . . ?
C20A C13A C14A C15A -1.7(5) . . . . ?
C20A C13A C14A C19A 179.0(3) . . . . ?
