#------------------------------------------------------------------------------
#$Date: 2022-04-20 01:23:03 +0300 (Wed, 20 Apr 2022) $
#$Revision: 274584 $
#$URL: file:///home/coder/svn-repositories/cod/cif/1/56/68/1566824.cif $
#------------------------------------------------------------------------------
#
# This file is available in the Crystallography Open Database (COD),
# http://www.crystallography.net/
#
# All data on this site have been placed in the public domain by the
# contributors.
#
data_1566824
loop_
_publ_author_name
'Zhou, Jun'
'Mao, Lijun'
'Wu, Meng-Xiang'
'Peng, Zhiyong'
'Yang, Yiming'
'Zhou, Manfei'
'Zhao, Xiao-Li'
'Shi, Xueliang'
'Yang, Hai-Bo'
_publ_section_title
;
 Extended phenothiazines: synthesis, photophysical and redox properties,
 and efficient photocatalytic oxidative coupling of amines
;
_journal_name_full               'Chemical Science'
_journal_paper_doi               10.1039/D2SC01086K
_journal_year                    2022
_chemical_absolute_configuration unk
_chemical_formula_moiety         '2(C11 H10 O S)'
_chemical_formula_sum            'C22 H20 O2 S2'
_chemical_formula_weight         380.50
_space_group_crystal_system      triclinic
_space_group_IT_number           1
_space_group_name_Hall           'P 1'
_space_group_name_H-M_alt        'P 1'
_atom_sites_solution_hydrogens   geom
_atom_sites_solution_primary     dual
_audit_creation_date             2022-01-30
_audit_creation_method
;
Olex2 1.3
(compiled 2020.11.12 svn.r5f609507 for OlexSys, GUI svn.r6408)
;
_audit_update_record
;
2022-02-08 deposited with the CCDC.	2022-04-08 downloaded from the CCDC.
;
_cell_angle_alpha                106.659(7)
_cell_angle_beta                 105.234(5)
_cell_angle_gamma                101.170(6)
_cell_formula_units_Z            1
_cell_length_a                   7.0221(4)
_cell_length_b                   7.9102(7)
_cell_length_c                   9.5017(5)
_cell_measurement_reflns_used    4153
_cell_measurement_temperature    229(80)
_cell_measurement_theta_max      73.4170
_cell_measurement_theta_min      6.0250
_cell_volume                     466.74(6)
_computing_cell_refinement       'CrysAlisPro 1.171.39.28b (Rigaku OD, 2015)'
_computing_data_collection       'CrysAlisPro 1.171.39.28b (Rigaku OD, 2015)'
_computing_data_reduction        'CrysAlisPro 1.171.39.28b (Rigaku OD, 2015)'
_computing_molecular_graphics    'Olex2 1.3 (Dolomanov et al., 2009)'
_computing_publication_material  'Olex2 1.3 (Dolomanov et al., 2009)'
_computing_structure_refinement  'SHELXL 2018/1 (Sheldrick, 2015)'
_computing_structure_solution    'SHELXT 2014/5 (Sheldrick, 2014)'
_diffrn_ambient_environment      N~2~
_diffrn_ambient_temperature      229(80)
_diffrn_detector                 'CCD plate'
_diffrn_measured_fraction_theta_full 0.987
_diffrn_measured_fraction_theta_max 0.987
_diffrn_measurement_details
;
List of Runs (angles in degrees, time in seconds):

  # Type    Start    End  Width  t~exp~   \w     \q     \k     \f   Frames
#--------------------------------------------------------------------------
  1  \w     55.00  80.00   0.50    2.00    --    0.00  82.00 150.00   50
  2  \w    -87.00 -57.00   0.50    2.00    --    0.00 -82.00 120.00   60
  3  \w    -32.00  19.00   0.50    2.00    --    0.00  82.00 150.00  102
  4  \w     15.00  77.00   0.50    2.00    --    0.00  37.00-120.00  124
  5  \w     20.00  87.00   0.50    2.00    --    0.00  57.00   0.00  134
  6  \w    -19.00   8.00   0.50    2.00    --    0.00  37.00-120.00   54
  7  \w    -23.00  11.00   0.50    2.00    --    0.00  57.00   0.00   68
  8  \w     39.00  64.00   0.50    2.00    --    0.00  37.00  90.00   50
  9  \w     -1.00  24.00   0.50    2.00    --    0.00 -82.00 120.00   50
 10  \w    -52.00 -26.00   0.50    2.00    --    0.00 -82.00 120.00   52
 11  \w    115.00 184.00   0.50    2.00    --   95.80  82.00-120.00  138
 12  \w     64.00  93.00   0.50    2.00    --   95.80  82.00-120.00   58
 13  \w     77.00 120.00   0.50    2.00    --   95.80  61.00   0.00   86
 14  \w      8.00 128.00   0.50    2.00    --   95.80 -82.00 -90.00  240
 15  \w    153.00 179.00   0.50    2.00    --   95.80  77.00-150.00   52
 16  \w     72.00 108.00   0.50    2.00    --   95.80  61.00 -60.00   72
 17  \w     63.00  88.00   0.50    2.00    --   95.80  82.00   0.00   50
 18  \w     77.00 124.00   0.50    2.00    --   95.80  30.00  90.00   94
 19  \w     29.00 127.00   0.50    2.00    --   95.80 -82.00  60.00  196
 20  \w     66.00  92.00   0.50    2.00    --   95.80  77.00 -60.00   52
 21  \w     71.00 116.00   0.50    2.00    --   95.80  61.00 -30.00   90
 22  \w     71.00 122.00   0.50    2.00    --   95.80  61.00 120.00  102
 23  \w     65.00  91.00   0.50    2.00    --   95.80  77.00 120.00   52
 24  \w     77.00 156.00   0.50    2.00    --   95.80  45.00-120.00  158
 25  \w     75.00 152.00   0.50    2.00    --   95.80  45.00 120.00  154
 26  \w    157.00 183.00   0.50    2.00    --   95.80  45.00 120.00   52
 27  \w    142.00 168.00   0.50    2.00    --   95.80  77.00 -30.00   52
 28  \w    128.00 175.00   0.50    2.00    --   95.80  61.00   0.00   94
 29  \w     71.00 123.00   0.50    2.00    --   95.80  61.00 150.00  104
 30  \w    128.00 182.00   0.50    2.00    --   95.80  61.00 150.00  108
 31  \w     72.00 103.00   0.50    2.00    --   95.80  61.00  60.00   62
 32  \w     66.00  92.00   0.50    2.00    --   95.80  77.00 -30.00   52
 33  \w    124.00 185.00   0.50    2.00    --   95.80  45.00 -60.00  122
 34  \w     75.00 101.00   0.50    2.00    --   95.80  45.00 -60.00   52
 35  \w     81.00 128.00   0.50    2.00    --   95.80 -82.00 150.00   94
 36  \w     68.00  94.00   0.50    2.00    --   95.80  77.00  30.00   52
 37  \w     17.00  47.00   0.50    2.00    --   95.80 -30.00   0.00   60
 38  \w     75.00 101.00   0.50    2.00    --   95.80  45.00 -90.00   52
 39  \w     48.00 115.00   0.50    2.00    --   95.80 -61.00 -90.00  134
 40  \w     66.00  96.00   0.50    2.00    --   95.80  77.00  60.00   60
 41  \w     65.00  91.00   0.50    2.00    --   95.80  77.00 150.00   52
 42  \w    103.00 128.00   0.50    2.00    --   95.80 -82.00  90.00   50
 43  \w      6.00  41.00   0.50    2.00    --   95.80 -61.00 -90.00   70
 44  \w     66.00 121.00   0.50    2.00    --   95.80  82.00 150.00  110
 45  \w     13.00  49.00   0.50    2.00    --   95.80 -82.00 150.00   72
 46  \w     67.00  92.00   0.50    2.00    --   95.80  77.00-150.00   50
 47  \w     63.00 115.00   0.50    2.00    --   95.80  82.00-180.00  104
 48  \w     73.00  98.00   0.50    2.00    --   95.80  53.00 -63.66   50
 49  \w     73.00 147.00   0.50    2.00    --   95.80  54.00  25.66  148
;
_diffrn_measurement_device       'four-circle diffractometer'
_diffrn_measurement_device_type  'XtaLAB AFC12 (RINC): Kappa dual home/near'
_diffrn_measurement_method       '\w scans'
_diffrn_orient_matrix_type
'CrysAlisPro convention (1999,Acta A55,543-557)'
_diffrn_orient_matrix_UB_11      -0.1542613000
_diffrn_orient_matrix_UB_12      -0.1763539000
_diffrn_orient_matrix_UB_13      -0.1304545000
_diffrn_orient_matrix_UB_21      0.1082687000
_diffrn_orient_matrix_UB_22      -0.1185177000
_diffrn_orient_matrix_UB_23      0.0772652000
_diffrn_orient_matrix_UB_31      -0.1448000000
_diffrn_orient_matrix_UB_32      -0.0022557000
_diffrn_orient_matrix_UB_33      0.0967681000
_diffrn_radiation_monochromator  graphite
_diffrn_radiation_probe          x-ray
_diffrn_radiation_type           'Cu K\a'
_diffrn_radiation_wavelength     1.54184
_diffrn_reflns_av_R_equivalents  0.0616
_diffrn_reflns_av_unetI/netI     0.0652
_diffrn_reflns_Laue_measured_fraction_full 0.987
_diffrn_reflns_Laue_measured_fraction_max 0.987
_diffrn_reflns_limit_h_max       8
_diffrn_reflns_limit_h_min       -8
_diffrn_reflns_limit_k_max       9
_diffrn_reflns_limit_k_min       -9
_diffrn_reflns_limit_l_max       11
_diffrn_reflns_limit_l_min       -11
_diffrn_reflns_number            6840
_diffrn_reflns_point_group_measured_fraction_full 0.880
_diffrn_reflns_point_group_measured_fraction_max 0.880
_diffrn_reflns_theta_full        67.037
_diffrn_reflns_theta_max         67.037
_diffrn_reflns_theta_min         5.164
_diffrn_source                   'fine-focus sealed X-ray tube'
_diffrn_source_type              'Enhance (Cu) X-ray Source'
_exptl_absorpt_coefficient_mu    2.686
_exptl_absorpt_correction_T_max  1.00000
_exptl_absorpt_correction_T_min  0.53540
_exptl_absorpt_correction_type   multi-scan
_exptl_absorpt_process_details
;
CrysAlisPro 1.171.39.28b (Rigaku Oxford Diffraction, 2015)
Empirical absorption correction using spherical harmonics,
 implemented in SCALE3 ABSPACK scaling algorithm.
;
_exptl_crystal_colour            'clear light colourless'
_exptl_crystal_colour_lustre     clear
_exptl_crystal_colour_modifier   light
_exptl_crystal_colour_primary    colourless
_exptl_crystal_density_diffrn    1.354
_exptl_crystal_description       block
_exptl_crystal_F_000             200
_exptl_crystal_size_max          0.26
_exptl_crystal_size_mid          0.24
_exptl_crystal_size_min          0.12
_refine_diff_density_max         0.996
_refine_diff_density_min         -0.501
_refine_diff_density_rms         0.132
_refine_ls_abs_structure_details
;
 Flack x determined using 1017 quotients [(I+)-(I-)]/[(I+)+(I-)]
 (Parsons, Flack and Wagner, Acta Cryst. B69 (2013) 249-259).
;
_refine_ls_abs_structure_Flack   0.06(3)
_refine_ls_extinction_method     none
_refine_ls_goodness_of_fit_ref   1.034
_refine_ls_hydrogen_treatment    constr
_refine_ls_matrix_type           full
_refine_ls_number_parameters     239
_refine_ls_number_reflns         2942
_refine_ls_number_restraints     3
_refine_ls_restrained_S_all      1.034
_refine_ls_R_factor_all          0.0827
_refine_ls_R_factor_gt           0.0794
_refine_ls_shift/su_max          0.000
_refine_ls_shift/su_mean         0.000
_refine_ls_structure_factor_coef Fsqd
_refine_ls_weighting_details
'w=1/[\s^2^(Fo^2^)+(0.1896P)^2^+0.2547P] where P=(Fo^2^+2Fc^2^)/3'
_refine_ls_weighting_scheme      calc
_refine_ls_wR_factor_gt          0.2371
_refine_ls_wR_factor_ref         0.2415
_reflns_Friedel_coverage         0.783
_reflns_Friedel_fraction_full    0.773
_reflns_Friedel_fraction_max     0.773
_reflns_number_gt                2683
_reflns_number_total             2942
_reflns_threshold_expression     'I > 2\s(I)'
_cod_data_source_file            d2sc01086k2.cif
_cod_data_source_block           exp_2558
_cod_database_code               1566824
_shelx_shelxl_version_number     2018/1
_shelx_space_group_comment
;
The symmetry employed for this shelxl refinement is uniquely defined
by the following loop, which should always be used as a source of
symmetry information in preference to the above space-group names.
They are only intended as comments.
;
_shelx_estimated_absorpt_t_max   0.739
_shelx_estimated_absorpt_t_min   0.542
_reflns_odcompleteness_completeness 99.34
_reflns_odcompleteness_iscentric 1
_reflns_odcompleteness_theta     66.97
_olex2_refinement_description
;
1. Fixed Uiso
 At 1.2 times of:
  All C(H) groups, All S(H) groups
 At 1.5 times of:
  All C(H,H,H) groups
2.a Aromatic/amide H refined with riding coordinates:
 C2(H2), C3(H3), C4(H4), C5(H5), C7(H7), C10(H10), C13(H13), C16(H16),
 C18(H18), C19(H19), C20(H20), C21(H21)
2.b Idealised Me refined as rotating group:
 C11(H11A,H11B,H11C), C22(H22A,H22B,H22C)
2.c Idealised tetrahedral OH refined as rotating group:
 S1(H1), S2(H2A)
;
_shelx_res_file
;
TITL exp_2558_a.res in P1
    exp_2558.res
    created by SHELXL-2018/1 at 17:59:18 on 30-Jan-2022
REM Old TITL exp_2558 in P-1
REM SHELXT solution in P1
REM R1 0.160, Rweak 0.045, Alpha 0.000, Orientation as input
REM Flack x = 0.195 ( 0.023 ) from Parsons' quotients
REM Formula found by SHELXT: C22 O2 S2
CELL 1.54184 7.0221 7.9102 9.5017 106.659 105.234 101.17
ZERR 1 0.0004 0.0007 0.0005 0.007 0.005 0.006
LATT -1
SFAC C H O S
UNIT 22 20 2 2

L.S. 64
PLAN  1
SIZE 0.26 0.24 0.12
CONF
BOND $H
list 4
fmap 2 53
MORE -1
ACTA
SHEL 999 0.837
OMIT 4 -1 4
OMIT 0 -1 0
OMIT -2 -1 2
OMIT 0 -2 0
OMIT -4 1 -4
OMIT -2 2 -6
OMIT -3 3 -5
OMIT 3 -3 5
OMIT -2 0 7
OMIT 0 0 5
OMIT -1 3 -1
OMIT 2 -2 1
OMIT 0 -1 5
OMIT 0 2 0
OMIT 0 -4 -5
OMIT 3 8 -5
OMIT -1 3 6
OMIT -4 2 1
OMIT 4 -2 -1
OMIT 4 1 4
OMIT 4 -4 -1
OMIT 0 4 5
OMIT 1 0 -6
OMIT 4 -6 -1
OMIT -4 1 6
OMIT -2 4 -6
OMIT 1 5 -6
REM <olex2.extras>
REM <HklSrc "%.\\exp_2558.hkl">
REM </olex2.extras>

WGHT    0.189600    0.254700
FVAR       0.87757
S1    4   -0.100707    0.346684   -0.055013    11.00000    0.02645    0.04373 =
         0.04366    0.01967    0.01402    0.01538
AFIX 147
H1    2   -0.244951    0.211833   -0.099616    11.00000   -1.20000
AFIX   0
O1    3    0.145905    0.190969   -0.206898    11.00000    0.03035    0.04383 =
         0.03321    0.01392    0.01509    0.01719
C1    1    0.489442    0.222093    0.177867    11.00000    0.02317    0.02917 =
         0.03485    0.01142    0.01314    0.00452
C2    1    0.672115    0.186520    0.246965    11.00000    0.02850    0.03551 =
         0.05819    0.02004    0.01047    0.01144
AFIX  43
H2    2    0.745189    0.135910    0.185742    11.00000   -1.20000
AFIX   0
C3    1    0.743615    0.226767    0.406327    11.00000    0.03340    0.05044 =
         0.04592    0.02415    0.00201    0.00757
AFIX  43
H3    2    0.860749    0.196486    0.450933    11.00000   -1.20000
AFIX   0
C4    1    0.641538    0.313104    0.502327    11.00000    0.04624    0.04472 =
         0.03931    0.01942   -0.00148    0.00136
AFIX  43
H4    2    0.694140    0.344872    0.610037    11.00000   -1.20000
AFIX   0
C5    1    0.462413    0.349844    0.434246    11.00000    0.03904    0.03341 =
         0.03385    0.01102    0.00806    0.00272
AFIX  43
H5    2    0.392326    0.403445    0.496760    11.00000   -1.20000
AFIX   0
C6    1    0.384416    0.307790    0.272658    11.00000    0.02502    0.02135 =
         0.04058    0.00948    0.01150    0.00263
C7    1    0.199139    0.344710    0.196838    11.00000    0.02276    0.02363 =
         0.04099    0.00578    0.01213    0.00696
AFIX  43
H7    2    0.128330    0.399869    0.257914    11.00000   -1.20000
AFIX   0
C8    1    0.125010    0.303497    0.043689    11.00000    0.02352    0.02229 =
         0.04945    0.01350    0.01853    0.00505
C9    1    0.233445    0.222540   -0.049445    11.00000    0.02556    0.02605 =
         0.03382    0.00697    0.01164    0.00483
C10   1    0.411775    0.182091    0.011814    11.00000    0.02253    0.02699 =
         0.03113    0.00966    0.01135    0.00744
AFIX  43
H10   2    0.480859    0.130094   -0.052328    11.00000   -1.20000
AFIX   0
C11   1    0.263798    0.141249   -0.305153    11.00000    0.03957    0.05844 =
         0.03636    0.01696    0.02299    0.01856
AFIX 137
H11A  2    0.181264    0.111044   -0.411991    11.00000   -1.50000
H11B  2    0.305837    0.036322   -0.292951    11.00000   -1.50000
H11C  2    0.383662    0.242909   -0.276664    11.00000   -1.50000
AFIX   0

S2    4    0.160091   -0.370867   -0.289660    11.00000    0.02571    0.05368 =
         0.06251    0.03001    0.01571    0.00947
AFIX 147
H2A   2    0.053296   -0.483495   -0.259406    11.00000   -1.20000
AFIX   0
O2    3    0.502268   -0.205409   -0.352613    11.00000    0.02747    0.04881 =
         0.03665    0.02039    0.01071    0.01092
C12   1    0.679215   -0.280759    0.073665    11.00000    0.03707    0.02317 =
         0.04228    0.01399    0.01727    0.00917
C13   1    0.471340   -0.332362   -0.024542    11.00000    0.02115    0.03131 =
         0.05374    0.02324    0.01761    0.00457
AFIX  43
H13   2    0.368136   -0.387061    0.006628    11.00000   -1.20000
AFIX   0
C14   1    0.417320   -0.305231   -0.161486    11.00000    0.01923    0.03408 =
         0.05242    0.01360    0.01892    0.00876
C15   1    0.574115   -0.223985   -0.210533    11.00000    0.02950    0.03310 =
         0.04482    0.01651    0.01411    0.01403
C16   1    0.779852   -0.175363   -0.122399    11.00000    0.02987    0.02505 =
         0.03726    0.01546    0.01618    0.00432
AFIX  43
H16   2    0.881073   -0.128148   -0.158813    11.00000   -1.20000
AFIX   0
C17   1    0.837104   -0.198519    0.027772    11.00000    0.02856    0.02381 =
         0.03357    0.00976    0.01336    0.00437
C18   1    1.043822   -0.146479    0.120441    11.00000    0.03015    0.03608 =
         0.05430    0.01386    0.01252    0.00155
AFIX  43
H18   2    1.145889   -0.092975    0.087686    11.00000   -1.20000
AFIX   0
C19   1    1.097257   -0.174233    0.260725    11.00000    0.04571    0.04500 =
         0.03588    0.01402    0.00582   -0.00125
AFIX  43
H19   2    1.235133   -0.138475    0.323107    11.00000   -1.20000
AFIX   0
C20   1    0.941792   -0.257184    0.309335    11.00000    0.05399    0.04436 =
         0.03919    0.01778    0.01305    0.01051
AFIX  43
H20   2    0.978176   -0.278155    0.402908    11.00000   -1.20000
AFIX   0
C21   1    0.738282   -0.306905    0.219998    11.00000    0.04672    0.03557 =
         0.04481    0.01882    0.02100    0.01229
AFIX  43
H21   2    0.637368   -0.358219    0.254798    11.00000   -1.20000
AFIX   0
C22   1    0.649071   -0.139936   -0.414935    11.00000    0.03691    0.06041 =
         0.03705    0.02153    0.01736    0.01285
AFIX 137
H22A  2    0.581304   -0.154961   -0.521494    11.00000   -1.50000
H22B  2    0.748019   -0.208428   -0.410668    11.00000   -1.50000
H22C  2    0.718264   -0.011653   -0.355255    11.00000   -1.50000
AFIX   0
HKLF 4




REM  exp_2558_a.res in P1
REM R1 =  0.0794 for    2683 Fo > 4sig(Fo)  and  0.0827 for all    2942 data
REM    239 parameters refined using      3 restraints

END

WGHT      0.1845      0.2434

REM Highest difference peak  0.996,  deepest hole -0.501,  1-sigma level  0.132
Q1    1   0.2548  0.3621  0.3429  11.00000  0.05    1.00
;
_shelx_res_checksum              28506
_shelx_hkl_file
;
   0   0  -1  761.85   40.57
   0   0   1  819.50   40.60
   0   0  -2   86.15    4.83
   0   0   2   82.95    5.32
   0   0   2   83.48    4.79
   0   0   3  205.50   12.13
   0   0  -3  208.17   11.39
   0   0  -4  316.23   19.12
   0   0   4  339.39   18.95
   0   0   5   39.85    3.81
   0   0  -5   35.74    3.72
   0   0   5   44.73    4.29
   0   0   5   44.84    4.17
   0   0  -5   37.69    3.74
   0   0  -5   40.53    4.35
   0   0   5   42.37    4.16
   0   0  -6   10.33    2.20
   0   0   6   13.39    3.66
   0   0  -6    9.46    2.32
   0   0  -6    8.70    2.09
   0   0   6   13.14    2.62
   0   0   6   13.54    2.60
   0   0   6    8.40    1.96
   0   0   7   19.40    3.36
   0   0   7   18.25    3.30
   0   0   7   20.91    3.13
   0   0  -7   18.35    3.83
   0   0  -7   20.48    3.47
   0   0  -7   15.71    2.96
   0   0  -7   17.43    2.97
   0   0   7   17.20    4.61
   0   0   8   21.95    5.42
   0   0  -8   26.11    4.10
   0   0  -8   34.50    4.99
   0   0   8   27.20    3.93
   0   0  -8   35.87    5.50
   0   0   8   26.00    3.52
   0   0  -8   24.24    3.60
   0   0   8   24.62    3.80
   0   0   9   10.32    3.76
   0   0   9   10.78    2.46
   0   0  -9   18.41    3.98
   0   0  -9   20.04    3.87
   0   0   9   10.88    2.10
   0   0  -9   12.36    3.15
   0   0 -10    4.68    1.94
   0   0  10    1.55    1.06
   0   0  10    0.53    1.88
   0   0 -10    6.14    2.14
   0   0 -10    7.68    2.44
   0   1 -11    0.46    0.81
   0   1 -10    3.38    2.41
   0   1 -10    3.95    2.20
   0   1 -10    2.24    1.92
   0  -1   9   49.49    4.70
   0   1  -9   45.71    5.51
   0   1  -9   58.34    6.53
   0   1  -9   56.05    6.57
   0  -1   9   47.30    5.23
   0  -1   9   42.25    6.89
   0   1  -9   42.07    5.01
   0  -1   9   44.11    4.64
   0  -1   8  110.22    8.58
   0   1  -8  103.87    8.89
   0  -1   8  107.29    9.14
   0   1  -8  101.11    8.62
   0  -1   8  113.44   11.60
   0   1  -8  121.17    9.77
   0  -1   8  111.48    8.54
   0  -1   7   47.28    5.19
   0  -1   7   41.16    4.61
   0   1  -7   46.68    5.08
   0   1  -7   47.66    5.18
   0  -1   7   54.69    7.17
   0   1  -7   56.34    5.79
   0  -1   7   46.21    4.83
   0  -1   6   15.74    2.57
   0  -1   6   18.65    2.81
   0  -1   6   17.71    2.97
   0  -1   6   20.13    2.77
   0   1  -6   18.81    2.84
   0   1  -6   17.06    2.80
   0  -1   5  112.07    7.25
   0  -1   5  106.45    6.94
   0  -1   5  144.52    7.95
   0  -1   5  112.00    7.42
   0   1  -5  113.61    7.68
   0   1  -5  100.78    6.87
   0  -1   5  111.60    7.19
   0   1  -5   44.31    5.87
   0  -1   5   65.51    6.09
   0  -1   5  118.02    6.98
   0  -1   4  605.78   33.12
   0  -1   4  572.32   32.84
   0  -1   4  595.91   33.04
   0   1  -4  673.35   33.13
   0  -1   3   79.69    5.84
   0   1  -3  111.90    6.27
   0   1  -3  104.90    6.15
   0  -1   3   84.98    5.89
   0  -1   2  529.77   26.91
   0   1  -2  575.11   26.98
   0  -1   1  179.82    9.17
   0  -1   1  164.43    9.21
   0  -1   0   88.48    5.79
   0  -1   0   97.91    5.77
   0   1   1  370.62    9.38
   0  -1  -1  353.15    9.39
   0  -1  -2  575.47   30.42
   0  -1  -2  571.81   30.60
   0  -1  -3   31.23    2.69
   0   1   3   28.37    2.97
   0  -1  -4  299.79   10.45
   0   1   4  290.62   11.05
   0   1   4  295.80   11.14
   0   1   4  262.97   10.04
   0   1   4  280.46   10.10
   0   1   4  276.31   10.49
   0  -1  -5  308.66   18.60
   0  -1  -5  259.73   17.39
   0   1   5  325.78   18.57
   0   1   5  317.19   17.82
   0  -1  -5  304.65   17.87
   0   1   5  276.33   17.78
   0  -1  -5  278.31   17.41
   0   1   6   36.46    4.27
   0  -1  -6   34.54    4.11
   0   1   6   32.19    3.78
   0   1   6   33.76    5.77
   0   1   6   35.83    4.47
   0  -1  -6   30.92    3.82
   0  -1  -6   36.79    4.71
   0   1   7   14.89    2.71
   0   1   7   12.99    4.41
   0  -1  -7   14.18    2.89
   0  -1  -7   10.98    2.48
   0   1   7   14.93    3.31
   0   1   7   12.24    2.71
   0  -1  -7   14.18    3.41
   0   1   8    0.44    2.91
   0  -1  -8    1.54    1.92
   0   1   8    1.33    1.86
   0   1   8    0.53    1.23
   0  -1  -9    4.25    2.20
   0   1   9    3.67    2.84
   0   1   9    7.17    2.14
   0  -1  -9    7.87    3.00
   0  -1  -9    9.48    2.46
   0  -1 -10    3.87    1.26
   0  -1 -10    7.88    2.07
   0   2 -11    4.95    1.59
   0  -2  11    2.16    1.69
   0   2 -11    4.82    1.55
   0   2 -11    4.24    1.46
   0  -2  10   17.19    2.26
   0   2 -10   22.29    3.87
   0   2 -10   21.70    3.19
   0   2 -10   23.05    3.82
   0  -2  10   18.33    2.96
   0   2 -10   23.10    3.55
   0   2 -10   19.72    3.74
   0  -2  10   13.25    3.77
   0  -2   9   15.52    3.23
   0  -2   9   11.32    2.45
   0  -2   9   12.51    4.36
   0   2  -9    8.09    2.59
   0   2  -9   15.91    3.75
   0   2  -9   13.72    3.26
   0   2  -8   19.89    4.16
   0   2  -8   15.03    3.55
   0   2  -8   10.06    3.06
   0  -2   8   12.18    3.18
   0  -2   8    7.55    2.19
   0  -2   8    9.99    2.72
   0  -2   8   14.31    4.42
   0  -2   7   17.58    3.01
   0  -2   7   16.54    3.05
   0  -2   7   17.61    2.65
   0   2  -7   17.74    3.24
   0  -2   7   20.88    3.44
   0  -2   6  108.07    7.46
   0  -2   6  106.64    8.14
   0  -2   6   99.80    7.89
   0  -2   6  102.91    8.05
   0   2  -6  109.89    8.28
   0   2  -5  113.89    8.20
   0  -2   5  119.81    8.10
   0  -2   5  112.94    8.16
   0   2  -4  237.44   13.64
   0  -2   4  216.90   13.52
   0   2  -3  244.13   11.14
   0   2  -3  215.57   10.99
   0   2  -2  910.13   49.82
   0   2  -2  990.93   50.04
   0   2  -2  923.61   49.75
   0  -2   2  978.00   49.38
   0  -2   1 1051.27   55.88
   0   2  -1 1087.01   56.25
   0  -2   1 1107.35   56.17
   0   2  -1 1080.89   55.97
   0  -2   0 9999.00  530.74
   0   2   0 9576.69  531.00
   0  -2   0 9650.63  531.12
   0  -2   0 9908.98  531.00
   0  -2  -1   30.66    2.60
   0  -2  -1   19.14    2.16
   0  -2  -2  185.62    6.80
   0   2   2  168.00    6.95
   0  -2  -2  182.80    7.10
   0  -2  -2  190.20    7.77
   0  -2  -3  282.59   15.70
   0  -2  -3  238.42   14.92
   0   2   3  230.82   14.50
   0   2   3  227.46   14.59
   0   2   3  247.11   15.20
   0  -2  -3  193.25   17.63
   0  -2  -3  299.68   16.11
   0  -2  -3  264.02   15.28
   0   2   3  227.39   14.18
   0  -2  -3  269.21   14.77
   0  -2  -4   37.30    4.41
   0  -2  -4   46.44    4.89
   0   2   4   41.39    4.16
   0   2   4   52.74    6.12
   0  -2  -4   43.97    4.08
   0  -2  -4   54.69    5.37
   0   2   4   42.80    3.82
   0   2   5   32.08    4.29
   0   2   5   27.10    5.11
   0   2   5   23.58    3.28
   0  -2  -5   33.20    4.58
   0  -2  -5   28.56    4.13
   0  -2  -5   23.98    3.79
   0  -2  -6   87.58    8.22
   0   2   6   72.68    7.33
   0   2   6   69.95    8.62
   0   2   6   65.33    6.17
   0  -2  -6   78.70    7.66
   0  -2  -6   64.78    6.91
   0  -2  -7   35.05    5.16
   0  -2  -7   26.45    4.26
   0  -2  -7   31.91    5.26
   0   2   7   26.16    4.44
   0   2   7   22.73    3.30
   0   2   7   22.37    5.31
   0  -2  -7   31.32    4.90
   0   2   7   16.82    2.79
   0  -2  -8   22.29    3.85
   0  -2  -8   15.17    3.38
   0   2   8   16.96    3.31
   0   2   8   16.22    3.10
   0  -2  -8   16.98    3.28
   0   2   8   11.37    3.85
   0   2   9    1.98    1.39
   0  -2  -9    0.65    1.26
   0  -2  -9    0.52    1.25
   0  -3  11   -0.46    1.56
   0   3 -11    0.93    1.15
   0   3 -11    1.51    1.05
   0   3 -11    1.48    1.19
   0  -3  11    1.45    1.09
   0  -3  10   28.43    3.82
   0   3 -10   20.63    3.19
   0  -3  10   33.81    3.13
   0   3 -10   38.12    4.64
   0   3 -10   29.51    4.02
   0  -3  10   22.09    4.42
   0  -3   9  119.23   11.52
   0  -3   9  137.71   10.11
   0   3  -9  125.24   10.24
   0  -3   9  125.84    9.20
   0   3  -9  110.73    9.78
   0   3  -8   80.74    7.69
   0   3  -8   71.96    7.48
   0  -3   8   78.34    8.96
   0  -3   8   81.09    7.41
   0  -3   8   77.40    6.89
   0  -3   7    3.57    1.84
   0   3  -7    6.74    2.53
   0  -3   7    5.89    2.29
   0  -3   6   30.72    3.83
   0  -3   6   27.40    3.75
   0   3  -6   32.02    3.62
   0   3  -6   31.90    3.82
   0  -3   6   27.90    3.58
   0  -3   5   42.19    4.49
   0   3  -5   48.82    4.65
   0   3  -5   48.23    4.24
   0  -3   5   44.80    4.28
   0  -3   5   45.37    4.44
   0   3  -5   55.05    4.67
   0   3  -5   46.14    4.44
   0  -3   4  282.81   17.88
   0  -3   4  328.84   19.05
   0   3  -4  313.38   18.14
   0   3  -4  324.40   18.15
   0   3  -4  329.94   18.68
   0   3  -3   17.63    2.07
   0  -3   3   13.02    1.41
   0   3  -3   13.90    1.99
   0   3  -3   16.68    2.29
   0   3  -2   64.53    5.04
   0  -3   2   84.86    5.06
   0   3  -2   68.08    5.32
   0  -3   2   87.93    5.27
   0  -3   1   16.96    1.97
   0   3  -1    6.95    1.43
   0  -3   1   20.87    1.84
   0   3  -1   11.14    1.88
   0   3   0   35.03    3.42
   0  -3   0   39.73    3.55
   0  -3   0   36.37    3.50
   0   3   0   48.13    5.04
   0  -3   0   38.95    3.15
   0   3   1   18.52    2.31
   0  -3  -1   18.67    2.51
   0   3   1   16.08    2.15
   0   3   2   47.47    4.34
   0   3   2   55.34    4.71
   0   3   2   48.78    4.88
   0  -3  -2   60.52    4.44
   0  -3  -2   61.03    4.95
   0   3   2   45.87    4.35
   0  -3  -2   68.52    5.70
   0  -3  -2   46.87    4.59
   0   3   2   38.00    4.19
   0  -3  -2   51.55    4.83
   0   3   2   48.70    4.44
   0  -3  -2   51.32    5.02
   0  -3  -2   62.10    5.18
   0   3   3   23.47    3.03
   0  -3  -3   23.82    3.46
   0   3   3   21.69    4.02
   0   3   3   22.85    2.95
   0  -3  -3   23.25    3.62
   0  -3  -3   17.90    3.02
   0   3   3   20.80    2.87
   0   3   3   22.64    3.51
   0   3   3   21.00    2.74
   0  -3  -3   26.31    3.87
   0  -3  -4   98.67    8.42
   0   3   4   86.16    7.27
   0   3   4   98.88    8.56
   0   3   4   95.38    7.16
   0   3   4  102.86    9.64
   0  -3  -4  122.18    9.45
   0  -3  -4  103.74    8.81
   0   3   4   86.63    7.37
   0   3   5   61.80    5.87
   0  -3  -5   90.19    8.26
   0  -3  -5   67.97    7.17
   0   3   5   74.91    5.85
   0  -3  -5   69.72    7.01
   0  -3  -5   80.45    7.99
   0   3   5   61.82    6.16
   0   3   5   61.30    7.97
   0   3   6    2.06    2.71
   0  -3  -6    3.56    2.59
   0   3   6    1.19    1.21
   0  -3  -6    1.32    2.59
   0  -3  -6    3.32    2.38
   0  -3  -6    0.82    2.04
   0  -3  -7   20.99    4.22
   0   3   7   16.38    3.70
   0  -3  -7   21.97    4.02
   0  -3  -7   17.93    3.43
   0  -3  -8   26.62    4.16
   0   3   8   31.30    3.66
   0   3   8   31.48    3.89
   0  -3  -8   37.96    4.21
   0  -3  -8   24.37    3.27
   0  -4  11    8.62    1.67
   0   4 -11    9.93    2.02
   0   4 -11    6.63    1.62
   0   4 -11    6.02    1.49
   0   4 -10   18.41    3.26
   0   4 -10   10.58    2.50
   0  -4  10   10.04    3.05
   0   4 -10   23.11    3.62
   0  -4   9    6.18    2.41
   0   4  -9   14.46    3.50
   0  -4   9    6.51    3.12
   0   4  -9   10.12    2.92
   0   4  -9   12.99    3.31
   0  -4   9    8.30    2.17
   0   4  -8   82.16    8.02
   0  -4   8   75.94    7.17
   0  -4   8   78.76    7.56
   0  -4   8   85.80    8.99
   0  -4   8   81.78    7.54
   0  -4   7   37.03    4.69
   0   4  -7   36.38    4.41
   0  -4   7   32.37    4.62
   0  -4   7   33.64    4.39
   0   4  -7   35.15    4.53
   0  -4   7   39.06    4.61
   0  -4   6    1.60    1.52
   0   4  -6    1.70    1.89
   0  -4   6    2.50    1.62
   0   4  -6    1.65    1.47
   0  -4   6    1.44    1.48
   0  -4   5  307.50   21.03
   0   4  -5  425.57   22.17
   0   4  -5  384.52   21.58
   0  -4   5  380.32   22.83
   0  -4   5  336.76   21.06
   0   4  -5  379.22   21.74
   0   4  -4  267.58   15.16
   0   4  -4  251.84   15.43
   0   4  -4  252.33   15.53
   0  -4   4  216.49   14.69
   0   4  -4  238.68   14.87
   0  -4   4  244.27   16.08
   0   4  -4  269.39   15.42
   0   4  -3   97.51    7.31
   0   4  -3  114.44    7.62
   0  -4   3   94.37    7.00
   0  -4   3   96.77    7.32
   0   4  -3  116.00    8.06
   0  -4   3  100.12    6.64
   0   4  -3   96.83    7.10
   0   4  -3   99.15    7.05
   0  -4   2  101.24    6.97
   0   4  -2  103.00    7.17
   0  -4   2   89.45    6.90
   0   4  -2  105.40    7.72
   0  -4   2  120.71    6.65
   0  -4   2   89.78    6.67
   0   4  -2   87.20    6.54
   0   4  -2  107.88    7.48
   0  -4   2   98.80    6.81
   0   4  -2   76.15    6.54
   0  -4   2   77.70    7.14
   0   4  -1  110.42    7.84
   0  -4   1   93.28    7.45
   0  -4   1  110.79    7.94
   0   4  -1  108.53    7.65
   0   4  -1  119.45    8.62
   0  -4   1   96.02    7.95
   0  -4   1   96.72    8.15
   0   4  -1  113.62    7.87
   0   4  -1  109.32    7.66
   0  -4   1  105.73    7.80
   0  -4   1  131.94    7.39
   0  -4   1  106.12    7.83
   0   4  -1  138.71    8.59
   0  -4   0  186.10   11.79
   0   4   0  212.14   12.16
   0   4   0  173.21   12.02
   0  -4   0  199.82   12.41
   0   4   0  239.92   13.22
   0  -4   0  153.13   11.98
   0  -4   0  187.74   12.45
   0  -4   0  194.13   11.33
   0  -4   0  177.09   12.04
   0   4   0  206.91   11.92
   0  -4   0  160.80   12.24
   0  -4   0  174.31   11.88
   0   4   0  172.38   11.80
   0   4   1   17.43    2.54
   0  -4  -1   20.74    3.32
   0   4   1   16.95    2.98
   0   4   1   17.79    2.38
   0  -4  -1   17.35    2.86
   0  -4  -1   14.84    3.07
   0  -4  -1   17.35    2.45
   0   4   1   23.13    3.43
   0   4   2    8.42    2.03
   0  -4  -2   11.03    2.87
   0  -4  -2    5.65    2.10
   0   4   2    7.18    1.94
   0   4   2    9.99    2.52
   0   4   2    6.76    2.46
   0  -4  -2    7.79    2.69
   0  -4  -3   20.93    4.06
   0  -4  -3   17.81    3.43
   0  -4  -3   18.32    3.87
   0   4   3   19.41    3.77
   0   4   3   18.95    2.94
   0   4   3   16.29    2.96
   0   4   3   15.12    2.71
   0  -4  -4   40.48    5.78
   0  -4  -4   34.93    4.88
   0   4   4   41.21    5.78
   0   4   4   31.42    3.93
   0   4   4   33.94    4.02
   0  -4  -4   36.15    5.58
   0  -4  -5   54.89    7.53
   0  -4  -5   54.55    6.42
   0   4   5   81.03    8.04
   0  -4  -5   79.70    8.03
   0   4   5   60.70    5.43
   0  -4  -6   16.43    3.03
   0  -4  -6   16.22    3.80
   0   4   6   15.95    3.82
   0  -4  -6   12.37    3.56
   0  -4  -6   14.75    3.12
   0  -4  -7   13.80    2.89
   0  -4  -7   10.57    3.01
   0   4   7   12.34    3.04
   0   5 -11    6.97    1.48
   0   5 -11    7.20    1.61
   0   5 -11    5.36    1.41
   0  -5  11    7.75    1.49
   0   5 -10    4.42    1.95
   0   5 -10    4.13    2.01
   0  -5  10    4.47    1.82
   0   5 -10    2.74    1.84
   0  -5   9   16.94    2.74
   0  -5   9   17.19    3.25
   0  -5   9   16.70    3.20
   0   5  -9   15.45    3.36
   0  -5   8    7.47    2.49
   0  -5   8    3.69    2.31
   0  -5   8    3.13    1.80
   0   5  -8    3.98    2.20
   0   5  -8    4.47    2.23
   0  -5   7   62.76    6.55
   0  -5   7   65.01    6.58
   0   5  -7   73.31    6.95
   0   5  -7   68.12    6.43
   0  -5   7   73.21    6.82
   0   5  -7   75.20    7.04
   0   5  -6   75.67    6.83
   0   5  -6   62.63    6.32
   0  -5   6   67.28    6.18
   0   5  -6   60.59    6.08
   0  -5   6   55.38    5.81
   0  -5   6   55.92    6.00
   0   5  -5   33.32    4.04
   0   5  -5   41.65    4.80
   0  -5   5   28.99    3.78
   0  -5   5   36.27    5.04
   0  -5   5   28.13    3.76
   0   5  -5   35.87    4.39
   0   5  -5   35.77    4.43
   0  -5   4    3.19    1.60
   0   5  -4    4.34    2.20
   0   5  -4    5.77    2.04
   0   5  -4    5.09    2.05
   0   5  -3   69.68    6.98
   0  -5   3   78.37    6.14
   0  -5   3   70.23    6.25
   0   5  -3   57.25    5.43
   0   5  -3   84.29    6.78
   0  -5   3   75.01    7.20
   0  -5   2   20.07    2.94
   0  -5   2   14.40    3.16
   0   5  -2   15.03    2.40
   0  -5   2   20.34    2.86
   0   5  -2   18.02    3.52
   0  -5   1   29.68    3.59
   0  -5   1   24.40    3.50
   0   5  -1   21.34    3.17
   0   5  -1   21.44    3.26
   0  -5   1   27.26    4.31
   0  -5   0   74.17    7.82
   0  -5   0   71.82    7.47
   0  -5   0   80.34    7.74
   0   5   0   88.98    6.92
   0   5   0   84.33    7.06
   0  -5   0   74.67    7.03
   0  -5  -1   55.35    6.22
   0  -5  -1   56.79    6.86
   0  -5  -1   71.13    7.07
   0   5   1   75.39    7.20
   0   5   1   58.38    5.35
   0   5   2   59.98    5.97
   0  -5  -2   59.47    7.26
   0   5   2   48.52    6.07
   0  -5  -2   63.06    6.84
   0  -5  -2   62.19    7.53
   0   5   2   53.44    6.53
   0  -5  -2   66.05    7.05
   0   5   3    0.49    2.39
   0  -5  -3    2.47    2.94
   0  -5  -3    2.49    2.35
   0   5   3    1.75    1.69
   0   5   3    1.21    2.06
   0  -5  -3    1.11    2.70
   0  -5  -4   17.42    4.37
   0  -5  -4   19.29    3.75
   0   5   4   16.55    4.20
   0  -5  -4   20.92    4.68
   0  -5  -5   29.47    4.96
   0  -5  -5   26.27    4.93
   0  -5  -5   29.13    3.97
   0  -5  -5   35.62    4.54
   0  -5  -6    1.64    1.97
   0   5   6    3.89    2.44
   0  -5  -6    2.26    2.21
   0  -6  10    8.83    1.92
   0   6 -10    5.92    1.96
   0   6 -10    8.08    1.89
   0   6  -9   13.25    2.97
   0   6  -9   18.39    3.24
   0  -6   9   14.89    2.86
   0  -6   9   12.96    2.76
   0  -6   9   12.40    2.18
   0  -6   8    3.91    1.85
   0  -6   8    6.18    2.25
   0   6  -8    4.37    2.23
   0  -6   8    4.21    2.30
   0  -6   7    3.27    1.97
   0   6  -7    3.16    2.33
   0   6  -7    2.43    2.10
   0   6  -7    3.46    2.43
   0  -6   7    4.41    2.10
   0  -6   7    6.32    2.38
   0  -6   6   59.27    6.04
   0  -6   6   57.31    5.96
   0   6  -6   64.86    6.60
   0  -6   6   46.37    5.76
   0   6  -6   62.49    6.51
   0   6  -6   72.16    7.07
   0  -6   5   76.90    7.38
   0   6  -5  103.28    8.59
   0   6  -5   94.47    8.93
   0   6  -5   90.32    8.12
   0   6  -5  112.33    8.87
   0  -6   5   89.35    7.70
   0  -6   4   23.49    3.50
   0   6  -4   22.98    3.89
   0   6  -4   21.97    4.49
   0   6  -4   23.21    4.03
   0  -6   3   12.63    2.68
   0   6  -3   15.64    3.99
   0   6  -3   15.67    3.32
   0   6  -3    2.39    2.43
   0   6  -3   14.31    3.20
   0  -6   3    8.50    2.53
   0  -6   3   11.93    3.45
   0   6  -3   12.39    2.97
   0   6  -2   42.17    5.19
   0   6  -2   43.19    6.40
   0  -6   2   36.34    4.69
   0   6  -2   39.52    4.58
   0   6  -2   46.38    5.17
   0  -6   2   35.98    4.63
   0  -6   1  159.90   13.62
   0   6  -1  164.54   11.92
   0   6  -1  168.07   11.68
   0  -6   1  166.29   12.14
   0  -6   1  191.51   12.46
   0   6  -1  144.35   10.66
   0  -6   0  288.81   21.89
   0  -6   0  305.63   20.29
   0   6   0  338.03   20.38
   0   6   0  290.33   18.95
   0   6   0  305.00   19.58
   0  -6   0  331.69   20.51
   0   6   1    9.89    3.52
   0  -6  -1    9.82    3.29
   0  -6  -1    8.83    2.95
   0  -6  -1   11.13    3.04
   0  -6  -2   22.44    5.34
   0  -6  -2   21.10    4.22
   0  -6  -2   20.72    4.80
   0  -6  -2   24.28    4.25
   0   6   2   25.50    4.71
   0  -6  -3   68.16    6.95
   0   6   3   54.08    6.42
   0  -6  -3   67.55    7.87
   0  -6  -3   80.27    7.22
   0  -6  -3   71.91    8.34
   0   6   4   37.71    5.51
   0  -6  -4   26.35    4.83
   0  -6  -4   23.83    4.49
   0  -6  -5   45.17    5.39
   0   6   5   45.91    5.33
   0  -6  -5   52.01    4.67
   0   7 -10   10.49    1.87
   0  -7  10   13.03    1.71
   0   7 -10   14.18    1.98
   0   7  -9   22.34    2.76
   0  -7   9   27.74    3.17
   0   7  -9   25.61    3.30
   0  -7   9   24.86    3.25
   0   7  -9   22.48    3.29
   0   7  -8   21.05    3.42
   0  -7   8   20.66    3.00
   0  -7   8   30.95    3.78
   0   7  -8   26.46    3.86
   0  -7   8   22.17    3.66
   0  -7   7    8.08    2.40
   0  -7   7   10.04    2.56
   0  -7   7    7.57    2.32
   0   7  -7    8.00    2.67
   0   7  -7   10.91    2.89
   0   7  -7   11.01    3.24
   0  -7   6   19.84    3.27
   0  -7   6   14.71    3.18
   0   7  -6   19.55    3.83
   0   7  -6   11.99    3.42
   0  -7   6   15.96    3.11
   0  -7   5  109.47    8.08
   0   7  -5  100.40    9.04
   0  -7   5   92.29    8.04
   0   7  -5   93.97    8.71
   0   7  -4   44.11    5.46
   0  -7   4   30.03    4.36
   0   7  -4   39.28    5.46
   0  -7   4   31.20    5.62
   0   7  -4   37.55    6.17
   0  -7   3    5.28    2.30
   0  -7   3    7.13    2.43
   0   7  -3    0.17    2.82
   0   7  -3    8.08    2.87
   0   7  -3    2.63    3.36
   0   7  -3    6.88    2.48
   0  -7   3    5.53    3.43
   0  -7   2   19.86    3.57
   0  -7   2   22.50    4.95
   0   7  -2   14.31    2.80
   0   7  -2   16.57    3.43
   0   7  -2   18.36    5.14
   0  -7   2   16.47    3.25
   0  -7   1   27.89    4.21
   0  -7   1   26.13    4.10
   0   7  -1   27.11    3.86
   0  -7   0   90.99    8.27
   0  -7   0   95.78    8.52
   0  -7   0   88.89   10.48
   0   7   0  117.94   11.04
   0   7   1    9.63    3.60
   0  -7  -1   11.57    2.96
   0   7   1    4.06    2.92
   0   7   2    2.52    2.53
   0   7   2    0.40    2.46
   0   7   2    1.11    3.43
   0  -7  -2    2.69    1.82
   0  -7  -3   13.75    2.33
   0  -7  -3   12.55    3.34
   0   7   3    5.92    3.20
   0   7   3    4.70    2.50
   0   7   4   44.78    4.30
   0   7   4   33.61    3.84
   0  -8   9    5.07    1.38
   0   8  -9    5.64    1.27
   0   8  -8   51.12    4.69
   0  -8   8   41.95    3.66
   0   8  -8   53.62    4.34
   0   8  -8   37.13    4.07
   0  -8   7   15.24    2.51
   0   8  -7   12.98    2.90
   0  -8   7   14.03    2.45
   0   8  -6   12.08    3.04
   0   8  -6   13.50    3.39
   0  -8   6   10.37    2.35
   0   8  -6   16.20    3.27
   0  -8   6    8.54    2.43
   0  -8   5   48.45    6.28
   0  -8   5   47.86    4.86
   0   8  -5   29.08    5.33
   0   8  -5   44.97    5.41
   0   8  -4   54.26    6.20
   0  -8   4   61.33    7.35
   0   8  -4   49.64    5.71
   0   8  -4   54.08    6.23
   0  -8   4   56.89    5.62
   0   8  -4   50.61    7.16
   0   8  -3   30.23    4.61
   0   8  -3   22.12    5.50
   0   8  -3   18.30    3.14
   0   8  -3   24.81    3.97
   0  -8   3   23.34    3.57
   0  -8   3   28.31    5.12
   0  -8   2   15.91    4.12
   0   8  -2   10.16    4.36
   0   8  -2   16.45    3.43
   0   8  -2   11.99    2.67
   0  -8   2   14.04    2.87
   0   8  -1   25.94    3.11
   0   8  -1   34.07    4.21
   0  -8   1   41.36    4.27
   0  -8   1   40.99    5.72
   0   8   0   62.15    7.06
   0  -8   0   50.16    4.52
   0  -8   0   62.12    6.44
   0   8   0   52.61    4.48
   0  -8  -1   11.62    2.77
   0   8   1   11.91    3.24
   0   8   2    0.71    1.18
   0   9  -7    9.20    1.77
   0   9  -7   10.99    2.01
   0  -9   7   12.83    2.06
   0   9  -6   17.08    2.79
   0  -9   6   19.63    2.45
   0  -9   5   68.76    5.73
   0   9  -4   18.85    3.08
   0   9  -4   12.61    3.35
   0   9  -3    4.40    3.06
   0   9  -3    9.95    2.32
   0  -9   3    8.24    2.66
   0   9  -2   10.64    3.30
   0   9  -2   11.90    2.20
   0  -9   2   10.50    2.69
   0  -9   1    0.74    1.45
   0   9  -1   -1.18    1.84
   0   9   0    2.82    1.45
   0   9   0   -0.44    1.48
  -1   9   1    0.74    1.46
  -1   9   0   10.30    2.75
   1  -9   0   11.20    1.70
   1  -9   1    1.71    1.29
   1  -9   1    1.97    1.57
  -1   9  -1    0.58    2.26
   1  -9   2    6.51    1.95
  -1   9  -2    4.72    1.82
  -1   9  -2    0.87    1.97
   1  -9   2    1.36    1.79
  -1   9  -2    4.35    3.17
  -1   9  -3   28.67    3.76
   1  -9   3   33.34    3.70
   1  -9   4   27.57    3.26
  -1   9  -4   24.12    3.72
   1  -9   4   30.80    3.59
   1  -9   5    8.55    2.02
  -1   9  -5    8.40    2.46
  -1   9  -6    2.91    1.29
   1  -9   6    1.01    1.13
  -1   9  -7    3.79    1.28
   1  -9   7    7.33    1.64
  -1   9  -7    3.72    1.63
  -1   8   3    3.23    1.86
  -1   8   2   -0.53    1.69
   1  -8  -2   -0.32    1.44
  -1   8   1    4.14    3.51
   1  -8  -1    4.28    2.05
  -1   8   1    5.44    3.05
   1  -8   0   30.30    4.54
   1  -8   0   41.64    4.78
  -1   8   0   34.16    5.98
  -1   8   0   32.18    3.63
   1  -8   1   10.24    3.23
  -1   8  -1    9.23    2.56
   1  -8   1   12.12    3.00
  -1   8  -2    1.53    1.80
   1  -8   2    2.31    2.22
  -1   8  -2   -0.55    3.14
  -1   8  -2    4.04    3.75
   1  -8   2    4.95    2.89
  -1   8  -2    3.02    2.20
   1  -8   3   56.80    6.03
   1  -8   3   57.51    6.82
  -1   8  -3   61.14    6.40
  -1   8  -3   47.35    5.77
  -1   8  -3   46.31    7.75
  -1   8  -4   36.26    5.09
  -1   8  -4   35.36    5.08
   1  -8   4   37.82    5.53
   1  -8   4   36.86    4.81
  -1   8  -4   24.13    5.54
   1  -8   5   22.84    3.22
   1  -8   5   17.20    2.97
   1  -8   5   21.71    3.50
   1  -8   6   -0.47    1.15
   1  -8   6   -0.37    1.34
  -1   8  -6    0.87    2.11
   1  -8   6    0.95    1.63
  -1   8  -7   48.90    5.13
   1  -8   7   61.13    5.10
   1  -8   7   58.61    5.22
  -1   8  -7   49.77    5.41
  -1   8  -7   42.16    4.25
   1  -8   8    7.47    1.67
  -1   8  -8    5.58    1.84
   1  -8   8    7.62    1.83
  -1   8  -8    3.22    1.29
  -1   8  -9    5.44    1.42
  -1   7   4    0.31    2.05
   1  -7  -4   -0.08    1.34
  -1   7   4    0.43    2.03
  -1   7   3    4.07    2.86
  -1   7   3   10.85    4.11
  -1   7   3    6.07    2.37
   1  -7  -3   13.14    2.97
   1  -7  -3    7.76    3.28
  -1   7   2    6.51    3.25
   1  -7  -2   14.57    3.37
  -1   7   2   11.52    3.63
   1  -7  -2   14.79    4.24
  -1   7   2   10.39    4.94
  -1   7   1   10.06    4.19
   1  -7  -1   13.59    3.39
  -1   7   1    5.93    4.81
  -1   7   1    7.23    2.11
   1  -7  -1    7.94    3.59
  -1   7   1   13.51    4.38
  -1   7   0    7.42    4.25
   1  -7   0   10.62    4.05
   1  -7   0   12.95    3.73
   1  -7   0   14.05    3.46
  -1   7   0    4.68    4.42
   1  -7   1   31.45    4.64
  -1   7  -1   22.66    3.65
   1  -7   1   32.39    5.31
  -1   7  -1   27.65    4.17
   1  -7   2   38.39    4.72
  -1   7  -2   38.96    4.95
  -1   7  -2   31.73    4.17
   1  -7   2   42.35    5.28
  -1   7  -2   43.95    5.41
   1  -7   2   43.79    5.96
  -1   7  -2   42.43    7.24
   1  -7   3   39.04    4.94
  -1   7  -3   30.33    6.03
  -1   7  -3   36.58    5.12
   1  -7   3   40.27    5.86
  -1   7  -3   33.98    4.80
   1  -7   3   36.01    4.32
  -1   7  -3   31.59    4.47
   1  -7   4   35.09    4.75
  -1   7  -4   34.93    5.20
  -1   7  -4   27.95    5.85
   1  -7   4   34.62    5.64
  -1   7  -4   33.75    5.01
  -1   7  -4   36.92    5.20
  -1   7  -5   23.25    4.78
  -1   7  -5   30.54    5.12
  -1   7  -5   30.65    5.05
   1  -7   5   31.12    4.48
   1  -7   5   40.70    4.74
  -1   7  -6   26.69    4.55
   1  -7   6   24.49    3.90
   1  -7   6   17.76    3.09
   1  -7   6   27.63    3.97
   1  -7   7   45.86    5.15
   1  -7   7   49.27    5.21
  -1   7  -7   32.90    5.03
  -1   7  -8   75.48    6.97
  -1   7  -8   59.85    6.48
   1  -7   8   94.96    7.12
   1  -7   8   77.84    6.63
  -1   7  -8   78.82    6.65
   1  -7   9    8.02    1.87
   1  -7   9    6.61    1.69
  -1   7  -9    6.91    1.87
  -1   7 -10    4.05    1.16
   1  -6  -6   36.49    3.44
   1  -6  -6   24.46    3.53
   1  -6  -5   43.71    4.50
  -1   6   5   36.77    4.57
  -1   6   4    1.74    2.88
   1  -6  -4    2.44    2.18
   1  -6  -4    1.52    2.15
  -1   6   4    1.00    2.78
   1  -6  -3    4.59    2.79
  -1   6   3    4.06    3.90
   1  -6  -3    2.35    2.43
  -1   6   3    2.68    2.52
   1  -6  -3    5.27    3.54
  -1   6   2   34.23    6.96
  -1   6   2   22.23    4.69
   1  -6  -2   25.38    5.35
   1  -6  -2   27.97    5.15
   1  -6  -1   83.59    8.64
   1  -6  -1   83.87    8.87
   1  -6  -1   90.23    8.14
  -1   6   0   10.01    3.21
  -1   6   0    8.11    3.63
   1  -6   0    5.27    2.95
   1  -6   0    7.57    2.70
   1  -6   0    4.42    2.81
  -1   6   0    6.72    2.01
   1  -6   1   26.94    4.10
   1  -6   1   25.02    4.56
  -1   6  -1   21.35    3.13
  -1   6  -1   26.21    3.74
  -1   6  -1   15.78    4.70
   1  -6   1   29.52    3.43
   1  -6   2   47.95    5.97
  -1   6  -2   46.90    5.06
  -1   6  -2   58.73    7.41
   1  -6   2   51.30    4.86
  -1   6  -2   51.83    5.47
   1  -6   2   50.85    5.42
  -1   6  -3  325.29   15.56
   1  -6   3  289.56   14.54
  -1   6  -3  340.44   15.70
  -1   6  -3  308.75   15.11
   1  -6   3  272.70   13.87
   1  -6   3  310.35   16.04
  -1   6  -3  323.72   17.95
   1  -6   4   42.38    5.06
  -1   6  -4   38.15    6.07
   1  -6   4   48.98    6.20
   1  -6   4   44.88    4.91
  -1   6  -4   42.94    5.50
  -1   6  -5    8.47    2.97
  -1   6  -5   11.39    3.21
   1  -6   5    7.35    2.57
  -1   6  -5    5.73    2.91
   1  -6   6   54.24    5.57
  -1   6  -6   57.63    6.70
  -1   6  -6   69.60    7.11
   1  -6   6   59.17    6.38
   1  -6   6   69.75    6.56
   1  -6   7  154.88   11.55
  -1   6  -7  185.36   13.66
   1  -6   7  207.67   13.29
   1  -6   7  186.58   13.29
  -1   6  -8    2.39    2.15
   1  -6   8    1.53    1.79
   1  -6   8    1.50    1.92
  -1   6  -8    2.10    1.78
   1  -6   9    3.26    1.83
   1  -6   9    4.20    1.69
  -1   6  -9    0.84    1.52
  -1   6  -9    2.18    2.00
  -1   6  -9    1.46    1.84
   1  -6  10   11.29    1.94
  -1   6 -10    9.42    1.94
  -1   6 -10    9.13    2.01
  -1   6 -10    7.55    1.57
  -1   6 -10    6.38    1.47
  -1   5   7    0.66    1.69
   1  -5  -7    0.96    1.57
   1  -5  -7   -0.07    1.18
   1  -5  -6   84.68    8.29
   1  -5  -6   95.10    9.01
   1  -5  -6   92.94    8.22
   1  -5  -5  104.93   10.07
   1  -5  -5  132.44   10.68
  -1   5   5  133.31   10.73
   1  -5  -4    3.22    2.58
   1  -5  -4    3.42    2.55
  -1   5   4    1.71    1.72
  -1   5   4    2.77    3.31
  -1   5   3   11.16    3.16
   1  -5  -3   17.42    4.24
   1  -5  -3   14.14    3.72
   1  -5  -3   13.48    3.48
  -1   5   3   12.50    2.88
   1  -5  -2   43.14    5.64
   1  -5  -2   29.93    5.00
   1  -5  -2   27.61    4.51
  -1   5   2   34.03    5.02
  -1   5   2   36.14    4.50
   1  -5  -1   81.32    8.08
  -1   5   1   93.48    9.03
   1  -5  -1   77.21    7.98
  -1   5   0   34.30    3.72
   1  -5   0   32.46    4.66
   1  -5   0   37.33    4.82
   1  -5   0   40.50    3.89
  -1   5   0   37.44    5.38
   1  -5   1   43.32    5.21
  -1   5  -1   48.12    6.00
  -1   5  -1   42.50    4.73
   1  -5   1   49.79    4.97
  -1   5  -1   45.41    4.46
  -1   5  -1   48.82    4.79
   1  -5   1   68.49    5.02
   1  -5   1   52.16    5.64
   1  -5   1   54.40    4.62
   1  -5   2    4.26    1.41
  -1   5  -2    5.61    1.85
  -1   5  -2    4.54    1.93
   1  -5   2    4.30    1.99
   1  -5   2    4.21    1.65
  -1   5  -2    4.58    1.81
  -1   5  -2    4.07    2.47
  -1   5  -2    2.72    2.36
   1  -5   2    3.72    1.40
   1  -5   3  117.96    8.44
   1  -5   3  117.30    9.56
  -1   5  -3  134.11    9.42
  -1   5  -3  115.30   10.12
  -1   5  -3  126.70    9.30
   1  -5   3  122.71    8.93
   1  -5   3  108.70    8.54
  -1   5  -4  181.79   12.66
  -1   5  -4  180.30   12.67
   1  -5   4  187.26   12.28
   1  -5   4  197.48   13.64
   1  -5   4  188.32   12.50
  -1   5  -4  160.55   13.30
  -1   5  -5   23.32    3.86
   1  -5   5   21.23    3.20
   1  -5   5   27.76    3.88
  -1   5  -5   24.60    3.97
  -1   5  -5   20.17    3.63
   1  -5   6    6.83    2.19
   1  -5   6    6.93    2.45
   1  -5   6    6.19    1.93
  -1   5  -6    8.07    3.06
  -1   5  -6    8.38    2.82
   1  -5   7  152.45   11.36
  -1   5  -7  155.34   11.72
   1  -5   7  156.56   11.05
   1  -5   7  117.50    9.46
   1  -5   8  125.59    9.79
  -1   5  -8  135.15   10.51
  -1   5  -8  116.59   10.63
  -1   5  -8  128.91   10.20
  -1   5  -9   19.93    3.73
   1  -5   9   20.36    3.06
  -1   5  -9   21.95    3.84
   1  -5   9   20.51    4.12
  -1   5  -9   21.28    3.45
   1  -5  10    1.11    1.26
  -1   5 -10    1.08    1.33
  -1   5 -10    1.42    1.43
  -1   5 -10    1.39    1.59
  -1   4   8    3.42    1.74
   1  -4  -8    3.18    1.73
   1  -4  -8    7.64    2.17
   1  -4  -7   25.50    3.77
   1  -4  -7   24.12    4.26
  -1   4   7   18.41    2.55
   1  -4  -7   18.01    3.64
  -1   4   7   23.06    4.01
  -1   4   6   91.60    7.66
   1  -4  -6   98.68    9.07
   1  -4  -6   89.47    7.68
   1  -4  -6  111.48    9.77
  -1   4   5   30.43    4.20
   1  -4  -5   32.54    5.40
   1  -4  -5   21.70    3.59
   1  -4  -5   28.80    4.79
  -1   4   5   40.94    5.48
   1  -4  -4   79.01    7.50
  -1   4   4   68.99    6.66
  -1   4   4   67.58    7.56
   1  -4  -4   71.36    6.53
  -1   4   3   33.26    4.30
   1  -4  -3   34.30    4.46
  -1   4   3   35.65    5.01
  -1   4   3   32.85    4.38
   1  -4  -3   40.63    5.26
   1  -4  -3   34.67    3.98
  -1   4   2   37.75    4.29
  -1   4   2   37.88    4.70
   1  -4  -2   37.64    4.32
  -1   4   2   38.02    4.01
   1  -4  -2   35.18    4.66
  -1   4   2   37.77    4.77
  -1   4   1 1203.49   66.74
   1  -4  -1 1285.56   67.51
  -1   4   1 1278.13   68.51
  -1   4   1 1297.87   66.40
   1  -4  -1 1238.48   67.31
   1  -4  -1 1225.63   66.63
   1  -4   0  339.22   21.54
  -1   4   0  415.08   21.52
  -1   4   0  313.60   21.02
  -1   4   0  330.12   21.12
   1  -4   0  432.05   21.62
  -1   4   0  345.23   20.89
   1  -4   0  439.57   22.27
   1  -4   0  400.70   21.70
   1  -4   0  385.47   22.10
  -1   4   0  382.94   22.55
  -1   4  -1  166.07   10.48
   1  -4   1  129.65   10.31
  -1   4  -1  161.90   10.54
  -1   4  -1  134.58   12.25
   1  -4   1  166.53   10.46
  -1   4  -1  179.44   11.72
   1  -4   1  154.16   10.30
  -1   4  -1  186.31   10.83
  -1   4  -1  170.95   10.31
   1  -4   1  166.52   10.03
  -1   4  -2   27.48    3.93
   1  -4   2   25.03    2.98
   1  -4   2   28.43    2.88
   1  -4   2   24.08    3.38
  -1   4  -2   27.15    3.18
  -1   4  -2   30.76    3.41
  -1   4  -2   26.96    3.19
   1  -4   2   26.81    2.89
  -1   4  -2   31.40    2.64
   1  -4   2   23.18    2.66
  -1   4  -2   27.06    3.30
   1  -4   3  145.64    8.61
  -1   4  -3  143.69    9.71
  -1   4  -3  116.68    9.72
   1  -4   3  149.80    8.87
   1  -4   3  134.79    9.79
  -1   4  -3  124.87    8.26
   1  -4   3  127.10    8.67
   1  -4   3  132.88    9.11
  -1   4  -3  128.16    9.15
  -1   4  -3  131.42    9.27
   1  -4   3  136.84    9.10
   1  -4   4   27.42    3.52
   1  -4   4   20.76    2.45
  -1   4  -4   24.18    3.81
  -1   4  -4   18.00    3.00
  -1   4  -4   14.26    2.88
   1  -4   4   27.51    4.18
   1  -4   5  149.57   10.96
   1  -4   5  183.12   11.99
  -1   4  -5  183.75   12.09
  -1   4  -5  186.48   12.25
   1  -4   5  162.94   10.50
  -1   4  -5  170.38   11.61
   1  -4   6   51.27    5.46
  -1   4  -6   43.74    5.29
   1  -4   6   39.25    4.22
  -1   4  -6   39.44    4.79
   1  -4   7   24.45    3.76
  -1   4  -7   22.00    4.37
   1  -4   7   26.78    3.74
   1  -4   8    6.98    2.41
   1  -4   8    6.77    2.67
  -1   4  -8    4.00    2.72
  -1   4  -8    9.76    3.03
  -1   4  -9   27.56    4.14
  -1   4  -9   25.86    4.32
   1  -4   9   22.44    3.70
   1  -4   9   26.61    5.00
  -1   4  -9   25.40    4.26
   1  -4  10    8.69    2.06
  -1   4 -10    7.76    2.19
  -1   4 -10    8.57    2.31
  -1   4 -10   10.09    2.48
   1  -4  10    6.72    2.62
  -1   4 -10    8.41    2.31
  -1   4 -10    5.79    1.61
   1  -3  -9    0.85    1.42
   1  -3  -9    2.54    1.49
  -1   3   8    1.87    1.19
   1  -3  -8    2.52    2.17
  -1   3   8    2.92    2.11
  -1   3   8    3.13    2.17
   1  -3  -8    4.42    2.50
   1  -3  -7    7.07    3.09
   1  -3  -7    4.83    2.06
  -1   3   7    6.61    2.25
  -1   3   7    6.62    2.92
  -1   3   7    4.42    1.96
   1  -3  -7    5.48    2.44
   1  -3  -7    6.02    2.74
  -1   3   7    8.26    3.05
   1  -3  -6  179.37   13.44
  -1   3   6  204.54   12.75
  -1   3   6  221.14   14.32
   1  -3  -6  131.39   12.31
   1  -3  -6  158.14   12.19
  -1   3   5   70.93    7.33
   1  -3  -5   76.24    7.29
   1  -3  -5   73.56    6.91
  -1   3   5   70.11    6.35
   1  -3  -5   63.95    6.37
  -1   3   5   64.41    8.46
   1  -3  -4   22.15    3.38
  -1   3   4   24.80    4.94
   1  -3  -4   23.95    3.68
   1  -3  -4   20.30    3.01
  -1   3   3  142.94    7.93
  -1   3   3  168.64    8.43
   1  -3  -3  179.86    8.33
  -1   3   3  166.27    7.83
  -1   3   3  170.48    8.23
  -1   3   3  177.96   10.76
   1  -3  -3  186.18    8.96
  -1   3   3  151.54    7.60
   1  -3  -3  146.97    7.53
   1  -3  -3  168.79    8.84
   1  -3  -3  168.96    8.24
   1  -3  -3  196.40    8.89
  -1   3   2  134.91    8.63
  -1   3   2  131.83    8.02
  -1   3   2  120.73    9.06
  -1   3   2  125.31    8.56
  -1   3   2  121.49    8.61
   1  -3  -2  136.89    8.86
  -1   3   1  634.72   31.41
  -1   3   1  519.34   31.73
   1  -3   0  140.85    9.24
  -1   3   0  154.56    9.28
   1  -3   0  156.88    9.35
   1  -3   1   86.20    4.17
  -1   3  -1    8.98    2.45
  -1   3  -2   34.61    3.19
  -1   3  -2   34.93    2.64
   1  -3   2   33.05    2.89
  -1   3  -3  129.12    4.59
  -1   3  -3  134.42    5.88
  -1   3  -4  282.47   16.38
  -1   3  -4  285.29   16.17
  -1   3  -4  289.90   16.42
   1  -3   4  259.70   15.40
   1  -3   5   45.75    3.83
   1  -3   5   46.63    4.51
   1  -3   5   46.33    4.19
   1  -3   5   46.19    4.03
  -1   3  -5   52.50    5.08
  -1   3  -5   54.99    4.89
  -1   3  -6   86.67    7.33
  -1   3  -6   86.50    7.32
   1  -3   6   78.75    6.64
   1  -3   6   70.89    6.44
   1  -3   6   65.55    5.77
   1  -3   7   75.12    7.27
   1  -3   7   80.47    7.18
   1  -3   7   83.87    6.61
  -1   3  -7   81.75    7.95
  -1   3  -7   95.01    8.34
  -1   3  -8    3.81    2.60
  -1   3  -8    3.61    2.48
  -1   3  -8    4.11    2.67
   1  -3   8    3.85    1.68
   1  -3   8    4.12    2.20
  -1   3  -9    8.62    2.94
   1  -3   9    8.30    3.55
   1  -3   9    8.87    2.59
  -1   3  -9   13.23    3.28
  -1   3  -9   15.89    3.42
  -1   3 -10    3.82    1.91
  -1   3 -10    2.20    1.58
   1  -3  10    2.39    2.27
  -1   3 -10    3.79    1.68
   1  -3  10    4.63    1.64
  -1   3 -10    3.71    1.99
  -1   2   9    6.39    1.95
   1  -2  -9    3.12    1.48
   1  -2  -9   12.41    2.91
   1  -2  -9    9.74    2.51
   1  -2  -9    6.90    2.43
   1  -2  -8    6.61    2.92
   1  -2  -8    6.10    2.62
  -1   2   8    7.67    2.55
  -1   2   8    9.26    2.34
  -1   2   8    5.76    2.46
   1  -2  -8    5.59    2.28
   1  -2  -7    2.35    2.51
   1  -2  -7    2.48    2.12
  -1   2   7    2.49    1.80
  -1   2   7    0.72    2.94
  -1   2   7    1.78    1.98
   1  -2  -7    1.64    1.84
  -1   2   6   66.21    6.50
   1  -2  -6   54.80    6.08
  -1   2   6   46.96    7.40
  -1   2   6   59.24    5.62
   1  -2  -6   50.69    5.60
  -1   2   5   18.76    2.89
   1  -2  -5   12.82    2.53
  -1   2   5   20.10    4.63
  -1   2   5   19.85    3.43
  -1   2   4   34.16    3.75
   1  -2  -4   38.75    4.35
  -1   2   4   30.02    3.93
   1  -2  -4   41.80    4.16
  -1   2   4   41.42    5.61
   1  -2  -4   39.77    3.66
   1  -2  -4   34.53    3.76
  -1   2   3   18.92    2.31
  -1   2   3   19.95    2.41
   1  -2  -3   19.09    2.24
  -1   2   3   16.42    2.22
   1  -2  -3   20.72    2.56
  -1   2   3   17.77    2.56
  -1   2   3   14.44    1.46
   1  -2  -3   20.28    2.59
  -1   2   2  115.43    5.59
   1  -2  -2  111.73    5.63
  -1   2   2  154.53    5.97
   1  -2  -2  119.37    5.54
  -1   2   2  145.19    4.85
  -1   2   1 5645.03  280.89
  -1   2   1 5599.85  280.35
  -1   2   0 1308.97   69.23
   1  -2   0 1367.41   69.23
   1  -2   0 1320.70   69.30
  -1   2   0 1329.73   69.14
  -1   2  -1  790.14   36.16
  -1   2  -1  686.09   35.07
  -1   2  -2  561.81   29.92
   1  -2   2  577.12   30.28
   1  -2   3  222.94   14.34
   1  -2   3  242.26   13.86
   1  -2   4  360.42    9.17
   1  -2   4  319.56   11.20
   1  -2   4  138.15    9.93
   1  -2   4   83.17    9.06
   1  -2   4   59.06    8.92
  -1   2  -4   92.97    9.36
   1  -2   5   10.70    1.95
  -1   2  -5    9.49    2.20
   1  -2   5    7.85    1.54
   1  -2   5    9.42    1.65
   1  -2   5    9.91    2.04
   1  -2   5    8.56    1.75
   1  -2   5    9.86    2.28
   1  -2   5    5.35    1.68
   1  -2   6   27.61    3.59
  -1   2  -6   29.06    3.89
   1  -2   6   23.81    2.91
   1  -2   6   22.39    3.15
  -1   2  -6   27.66    3.87
  -1   2  -7   59.45    6.51
   1  -2   7   58.52    5.74
  -1   2  -7   61.03    6.50
   1  -2   7   64.19    5.37
   1  -2   7   54.93    5.92
   1  -2   8    0.73    1.67
  -1   2  -8    3.62    2.42
  -1   2  -8    3.60    2.55
   1  -2   8    2.80    1.71
  -1   2  -9    8.65    3.35
   1  -2   9    3.54    3.15
  -1   2  -9    7.64    2.95
   1  -2   9    1.44    1.58
   1  -2   9    3.72    1.68
  -1   2  -9    2.39    2.07
  -1   2  -9    7.76    2.86
  -1   2  -9    8.97    2.98
  -1   2  -9    4.47    2.49
  -1   2 -10    4.18    1.75
   1  -2  10    6.78    1.56
  -1   2 -10    4.94    1.86
  -1   2 -10    6.64    2.07
   1  -2  10    4.47    2.57
  -1   2 -10    5.78    2.09
   1  -1 -10   12.18    2.69
   1  -1 -10   18.70    2.77
   1  -1 -10   12.99    2.52
   1  -1 -10    6.52    1.68
  -1   1   9   23.93    5.37
   1  -1  -9   36.66    4.94
   1  -1  -9   39.25    5.39
   1  -1  -9   28.56    4.04
  -1   1   9   35.19    3.91
  -1   1   9   29.48    3.87
  -1   1   8    4.19    2.14
   1  -1  -8    3.63    1.75
   1  -1  -8    5.28    2.71
   1  -1  -8    2.95    1.99
  -1   1   8    4.69    3.70
  -1   1   8    3.36    1.96
   1  -1  -7    1.70    1.75
  -1   1   7   -0.24    1.72
  -1   1   7    0.72    1.57
  -1   1   7    1.09    1.54
  -1   1   7    0.93    3.34
   1  -1  -7    0.49    1.32
  -1   1   6   11.12    3.73
  -1   1   6   15.10    2.92
   1  -1  -6   11.31    2.28
  -1   1   6   16.18    2.82
  -1   1   6   16.99    2.99
   1  -1  -5  263.82   16.26
  -1   1   5  299.51   19.57
  -1   1   5  297.62   17.34
  -1   1   5  273.99   17.06
  -1   1   5  276.59   16.84
   1  -1  -4  113.39    7.00
   1  -1  -4  123.76    8.42
  -1   1   4  102.62    7.60
  -1   1   4  114.16    7.95
  -1   1   4  101.75    7.66
  -1   1   4  118.85    9.48
   1  -1  -3   55.96    4.00
   1  -1  -3   59.81    4.62
  -1   1   3   58.87    4.46
   1  -1  -3   58.52    4.71
  -1   1   2   41.22    3.35
   1  -1  -2   47.58    3.58
  -1   1   2   52.53    3.53
  -1   1   1 3111.21  175.30
  -1   1   1 3199.43  175.52
  -1   1   0  298.40   15.95
  -1   1  -1  382.21   19.40
   1  -1   1  371.69   19.21
   1  -1   1  380.52   18.94
  -1   1  -2    0.29    1.23
   1  -1   2    1.71    0.71
   1  -1   3  177.46    7.52
  -1   1  -3  182.44    7.56
  -1   1  -4  419.93   17.33
  -1   1  -4  567.65   17.76
   1  -1   4  407.94   17.02
   1  -1   4  427.71   15.36
   1  -1   4  419.61   16.91
   1  -1   4  403.31   16.42
  -1   1  -4  461.29   17.52
   1  -1   4  495.36   17.52
  -1   1  -4  521.55   18.70
   1  -1   5   45.68    4.33
   1  -1   5   55.07    4.90
   1  -1   5   54.04    4.96
   1  -1   5   49.78    4.79
  -1   1  -5   66.72    5.43
   1  -1   5   44.76    4.18
  -1   1  -5   57.26    5.21
  -1   1  -6    0.46    1.64
   1  -1   6    0.49    1.42
   1  -1   6    0.43    0.98
  -1   1  -6    1.38    1.66
   1  -1   6    0.49    1.46
  -1   1  -6    0.78    1.53
   1  -1   7   80.57    7.18
  -1   1  -7   80.17    7.68
  -1   1  -7   75.55    7.31
   1  -1   7   75.43    6.15
   1  -1   7   81.32    7.12
  -1   1  -7   81.86    7.58
  -1   1  -8   25.34    4.64
   1  -1   8   24.14    3.66
  -1   1  -8   22.69    4.33
  -1   1  -8   18.62    3.63
  -1   1  -8   21.74    3.89
   1  -1   8   28.40    3.97
  -1   1  -8   30.10    4.90
  -1   1  -9   18.41    3.33
   1  -1   9   18.29    2.74
   1  -1   9   20.21    3.05
  -1   1  -9   18.64    3.60
  -1   1  -9   17.69    2.89
  -1   1  -9   22.91    4.01
  -1   1 -10    1.11    1.46
   1  -1  10    1.35    1.94
  -1   1 -10    0.83    1.37
   1  -1  10    0.10    0.80
   1   0 -11   12.01    1.89
   1   0 -10    2.10    2.03
   1   0 -10    0.76    1.40
  -1   0  10   -0.07    1.04
   1   0  -9   14.90    3.82
  -1   0   9    8.92    2.53
  -1   0   9    9.99    2.46
   1   0  -9   10.75    2.99
   1   0  -9   12.43    2.66
  -1   0   9    8.28    2.23
  -1   0   8   16.62    3.44
  -1   0   8   19.92    3.42
   1   0  -8   22.18    3.52
  -1   0   8   14.09    2.92
   1   0  -8   22.93    4.12
   1   0  -7   56.23    5.59
  -1   0   7   55.44    5.49
   1   0  -7   49.89    4.89
  -1   0   7   49.01    5.50
  -1   0   7   48.39    5.15
   1   0  -6  104.07    7.76
  -1   0   6  115.20    8.36
  -1   0   6  121.49    8.73
  -1   0   6  114.25    8.77
  -1   0   6  116.40   10.48
   1   0  -5  150.53   10.11
  -1   0   5  180.32   12.35
  -1   0   5  145.22    9.99
  -1   0   5  149.24   10.18
  -1   0   5  169.46   10.54
  -1   0   5  136.06    9.66
   1   0  -4   99.96    5.61
   1   0  -4   91.52    6.64
  -1   0   4   94.00    6.74
   1   0  -3  479.65   28.00
  -1   0   3  551.87   28.18
   1   0  -3  520.30   27.28
   1   0  -3  548.72   28.19
  -1   0   2  327.05   16.47
   1   0  -2  299.62   16.31
   1   0  -2  307.63   16.41
   1   0  -2  278.80   16.61
  -1   0   1    1.55    0.35
   1   0  -1    1.33    0.47
   1   0  -1    2.28    0.37
   1   0   0   41.56    2.75
   1   0   0   87.53    4.03
   1   0   1 1028.37   42.51
  -1   0  -1  467.93   43.07
  -1   0  -2  888.10   39.86
  -1   0  -2  831.61   39.01
   1   0   2  794.29   39.06
   1   0   2  821.37   39.23
  -1   0  -3   94.15    6.66
   1   0   3   88.04    6.32
   1   0   3   98.35    6.23
   1   0   3   77.87    5.54
  -1   0  -3  105.68    6.02
  -1   0  -4   76.21    5.32
  -1   0  -4   69.00    4.14
  -1   0  -4    0.28    2.26
   1   0   4   58.45    3.80
   1   0   4  118.10    4.40
  -1   0  -4   60.30    4.62
  -1   0  -4   67.74    4.71
  -1   0  -4    0.73    3.42
  -1   0  -4   78.45    5.12
  -1   0  -5  151.52   10.39
  -1   0  -5  134.59   10.01
  -1   0  -5  146.39   10.06
   1   0   5  151.94    9.83
   1   0   5  144.33    9.40
   1   0   5  126.51    9.13
   1   0   5  161.58   10.45
  -1   0  -6   44.70    5.14
   1   0   6   51.90    5.38
   1   0   6   47.59    4.48
   1   0   6   46.16    4.79
   1   0   6   41.00    4.21
  -1   0  -6   53.33    5.37
  -1   0  -6   48.74    5.44
   1   0   7   10.44    2.52
  -1   0  -7   16.64    3.53
  -1   0  -7    8.37    2.75
   1   0   7   10.86    4.11
  -1   0  -7   17.83    4.12
   1   0   7   13.90    2.39
   1   0   7   16.15    3.56
  -1   0  -7   19.45    4.46
  -1   0  -7   10.12    2.78
  -1   0  -8    9.25    2.50
  -1   0  -8   12.37    2.87
  -1   0  -8   16.97    3.95
   1   0   8    9.25    2.11
   1   0   8   11.42    4.25
   1   0   8   14.48    3.04
  -1   0  -8   13.38    3.54
   1   0   9   14.98    2.66
  -1   0  -9   14.20    3.31
  -1   0  -9   17.32    3.32
  -1   0  -9   19.59    3.50
   1   0   9    7.27    3.25
  -1   0 -10    3.07    1.42
  -1   0 -10    5.05    1.53
   1   1 -11   24.42    3.12
  -1  -1  11   19.10    1.92
   1   1 -11   17.44    2.41
  -1  -1  10   19.71    4.69
  -1  -1  10   35.05    3.72
  -1  -1  10   27.93    3.77
   1   1 -10   25.04    3.99
   1   1 -10   28.11    3.73
  -1  -1   9    7.25    3.92
  -1  -1   9   10.60    2.92
   1   1  -9   13.32    3.12
  -1  -1   9   13.57    2.88
   1   1  -9    6.26    2.15
  -1  -1   8   31.79    4.35
  -1  -1   8   30.46    4.40
   1   1  -8   30.27    4.04
  -1  -1   8   29.13    3.68
  -1  -1   8   29.19    5.94
  -1  -1   7   78.27    6.60
  -1  -1   7   88.27    9.32
  -1  -1   7   89.29    7.44
  -1  -1   7   93.04    7.63
  -1  -1   6  239.10   15.39
  -1  -1   6  210.52   12.83
  -1  -1   6  204.85   12.78
   1   1  -5  258.18   15.90
  -1  -1   5  271.86   16.06
  -1  -1   5  258.73   16.00
  -1  -1   5  253.73   15.93
   1   1  -4    0.95    0.78
  -1  -1   4    1.02    0.87
  -1  -1   3  237.12   13.87
   1   1  -3  249.32   13.43
   1   1  -2  926.41   11.80
  -1  -1   2  968.54   13.73
  -1  -1   1 2673.10  152.08
  -1  -1   1 2678.45  151.82
   1   1  -1 2757.09  152.11
   1   1   0  414.56   23.08
  -1  -1   0  396.77   23.35
   1   1   1  562.11   32.28
  -1  -1  -1  587.74   32.48
  -1  -1  -1  630.68   31.54
   1   1   2   67.89    4.71
  -1  -1  -2   83.69    5.20
  -1  -1  -3   24.15    2.19
  -1  -1  -3   23.28    2.70
  -1  -1  -3   19.58    2.62
   1   1   3   32.44    2.87
  -1  -1  -3   18.54    2.57
  -1  -1  -3   24.75    3.11
   1   1   3   39.37    3.51
   1   1   3   29.83    2.73
   1   1   3   31.18    2.64
  -1  -1  -4   64.50    5.57
  -1  -1  -4   75.50    6.35
  -1  -1  -4   63.16    5.46
  -1  -1  -4   77.83    6.63
   1   1   4   51.94    4.69
   1   1   4   57.52    4.97
  -1  -1  -4   57.03    5.21
   1   1   5   37.68    4.39
  -1  -1  -5   30.18    4.45
  -1  -1  -5   25.24    3.54
   1   1   5   27.03    3.21
  -1  -1  -5   26.89    3.69
  -1  -1  -5   28.64    4.15
   1   1   5   31.86    3.54
  -1  -1  -5   25.40    3.57
  -1  -1  -5   27.95    4.18
  -1  -1  -6   57.59    6.07
   1   1   6   72.25    8.42
  -1  -1  -6   69.69    7.25
  -1  -1  -6   74.03    7.29
  -1  -1  -6   83.52    7.91
   1   1   6   54.30    5.27
  -1  -1  -6   58.59    6.02
   1   1   6   71.90    7.05
  -1  -1  -7  265.95   17.18
  -1  -1  -7  188.58   14.23
  -1  -1  -7  204.71   14.48
   1   1   7  226.66   17.70
  -1  -1  -7  250.21   16.61
   1   1   7  185.87   13.41
  -1  -1  -7  242.47   16.18
   1   1   7  264.84   16.12
  -1  -1  -7  264.24   16.04
   1   1   8   19.26    4.46
  -1  -1  -8   21.25    4.04
   1   1   8   28.17    4.01
  -1  -1  -8   21.92    3.98
  -1  -1  -8   27.63    4.63
  -1  -1  -9    0.63    1.94
  -1  -1  -9    0.91    1.39
   1   1   9    0.34    1.76
   1   1   9    1.13    1.33
   1   2 -11    8.40    2.23
  -1  -2  11   10.83    1.55
   1   2 -11    7.40    1.84
   1   2 -11    8.83    2.13
   1   2 -11   10.58    2.39
  -1  -2  10   23.20    4.84
  -1  -2  10   32.61    4.10
   1   2 -10   39.77    4.71
  -1  -2  10   30.62    3.88
   1   2 -10   31.24    3.74
  -1  -2   9   63.85    6.55
   1   2  -9   70.32    6.83
  -1  -2   9   52.27    7.94
   1   2  -8   46.15    5.05
  -1  -2   8   46.50    5.44
  -1  -2   8   46.32    6.94
  -1  -2   7   -1.52    2.71
   1   2  -7    0.10    1.28
  -1  -2   7    0.11    1.58
  -1  -2   7   -1.01    1.75
  -1  -2   7    0.95    1.56
  -1  -2   6  194.70   13.38
  -1  -2   6  213.48   13.83
  -1  -2   6  242.29   15.87
  -1  -2   5  529.03   31.03
  -1  -2   5  552.06   31.45
   1   2  -5  626.81   32.10
  -1  -2   5  548.02   31.20
  -1  -2   5  502.16   31.37
  -1  -2   4   48.69    4.20
   1   2  -4   53.63    4.46
   1   2  -4   56.37    4.38
   1   2  -3    0.20    0.51
  -1  -2   3    0.07    0.60
   1   2  -3   13.21    1.54
   1   2  -3   14.51    1.79
  -1  -2   3   12.08    1.52
  -1  -2   2  342.96   18.64
   1   2  -2  358.04   18.81
   1   2  -2  331.48   18.65
   1   2  -2  372.07   18.90
   1   2  -1 6351.62  317.15
  -1  -2   1 6326.57  317.55
   1   2  -1 5845.97  317.43
  -1  -2   1 6185.12  317.33
   1   2   0   63.55    4.51
  -1  -2   0   69.42    4.69
  -1  -2   0   66.34    4.88
  -1  -2   0   71.97    3.91
   1   2   1    7.86    1.34
  -1  -2  -1    6.79    1.48
  -1  -2  -1    8.65    1.55
   1   2   1    9.60    1.56
   1   2   2   79.06    6.07
  -1  -2  -2  112.18    7.30
  -1  -2  -2   94.61    6.59
   1   2   2   85.67    6.57
   1   2   2   78.55    5.95
  -1  -2  -2  109.11    7.31
  -1  -2  -2   80.87    6.62
  -1  -2  -3  230.88   15.92
   1   2   3  294.68   16.81
   1   2   3  252.39   15.08
  -1  -2  -3  297.11   17.20
  -1  -2  -3  254.37   16.50
  -1  -2  -3  272.41   16.27
   1   2   3  237.29   15.49
  -1  -2  -3  237.90   15.76
   1   2   3  266.50   15.48
   1   2   3  272.52   16.09
   1   2   3  313.70   17.89
  -1  -2  -3  318.39   17.30
   1   2   4   10.67    2.18
  -1  -2  -4   22.02    3.39
   1   2   4   16.16    2.87
   1   2   4   12.72    3.38
   1   2   4   14.69    2.31
  -1  -2  -4   13.19    2.85
  -1  -2  -4    8.33    2.61
   1   2   4   12.19    2.88
  -1  -2  -5   31.02    4.07
   1   2   5   26.42    3.49
   1   2   5   37.47    4.92
   1   2   5   33.78    3.39
  -1  -2  -5   37.44    4.98
   1   2   5   33.31    5.49
  -1  -2  -5   32.77    4.68
  -1  -2  -5   33.30    5.27
  -1  -2  -6    9.88    3.76
   1   2   6   11.03    3.75
  -1  -2  -6   10.14    3.08
  -1  -2  -6   10.19    2.48
  -1  -2  -6    7.23    3.03
  -1  -2  -7   14.75    4.02
   1   2   7   16.10    4.14
  -1  -2  -7   15.46    3.34
  -1  -2  -7   12.29    3.28
  -1  -2  -8    5.34    2.06
   1   2   8    8.15    2.34
  -1  -2  -8    7.58    2.85
  -1  -2  -9    1.52    1.34
   1   2   9    3.31    1.10
   1   3 -11    0.65    1.00
   1   3 -11    2.51    1.54
   1   3 -11    0.72    1.40
  -1  -3  11    1.31    0.92
   1   3 -10    6.31    2.65
  -1  -3  10    4.43    2.88
   1   3 -10    7.33    2.37
  -1  -3  10    5.44    2.02
  -1  -3   9   32.41    4.55
   1   3  -9   32.39    4.70
  -1  -3   9   22.83    5.22
  -1  -3   9   37.91    4.77
   1   3  -9   24.83    3.88
   1   3  -8   63.78    6.50
  -1  -3   8   67.72    6.74
  -1  -3   8   65.89    8.02
  -1  -3   8   62.93    6.38
  -1  -3   8   67.51    6.75
  -1  -3   7   72.30    6.69
  -1  -3   7   85.62    8.64
   1   3  -7   76.63    6.39
  -1  -3   7   75.62    7.13
  -1  -3   6  117.27    9.15
  -1  -3   6  112.99    8.45
  -1  -3   6  107.92    8.52
  -1  -3   5   76.02    5.87
  -1  -3   5   81.64    6.12
  -1  -3   5   82.87    6.25
  -1  -3   5   87.37    7.07
  -1  -3   5   84.97    5.64
   1   3  -5   61.19    5.97
   1   3  -5   86.01    6.42
  -1  -3   5   74.82    6.46
   1   3  -5   67.43    5.71
   1   3  -4  144.24    5.62
   1   3  -4  123.98    5.74
  -1  -3   4  136.61    6.75
   1   3  -4  127.40    5.40
   1   3  -4  134.88    5.93
  -1  -3   4  124.69    4.95
  -1  -3   4  131.34    5.43
   1   3  -3  138.77    8.02
  -1  -3   3   90.28    6.29
   1   3  -3  119.37    7.07
   1   3  -3  109.23    7.00
   1   3  -2  170.28    9.48
  -1  -3   2  170.48    9.81
   1   3  -2  152.10    9.64
   1   3  -1  881.22   49.81
  -1  -3   1  922.53   49.94
  -1  -3   1  985.80   49.85
   1   3  -1  850.89   49.54
   1   3   0  160.97    9.36
  -1  -3   0  149.67    7.72
  -1  -3   0  146.04    9.66
   1   3   0  123.02    8.53
  -1  -3   0  151.23    9.40
  -1  -3   0  182.50    9.49
  -1  -3   0  126.23    9.53
   1   3   0  145.02    8.85
   1   3   0  163.81    9.26
  -1  -3   0  141.51    9.32
   1   3   1  136.77    8.89
   1   3   1  106.61    8.42
  -1  -3  -1  150.25    9.94
  -1  -3  -1  140.91    7.59
   1   3   1  127.63    8.88
   1   3   1  133.23    9.09
   1   3   1  122.95    8.50
  -1  -3  -1  135.42    9.88
  -1  -3  -1  139.35    9.49
  -1  -3  -1  123.26    8.62
  -1  -3  -1  151.25    9.36
   1   3   2    6.50    1.57
  -1  -3  -2    9.94    2.14
  -1  -3  -2    8.68    2.62
   1   3   2    8.46    1.95
   1   3   2    6.69    1.88
   1   3   2    9.16    2.24
  -1  -3  -2    9.57    2.54
   1   3   2    7.12    1.75
  -1  -3  -2    5.56    2.05
  -1  -3  -3  184.00   13.03
   1   3   3  202.78   12.80
  -1  -3  -3  199.56   14.45
  -1  -3  -3  182.72   13.64
  -1  -3  -3  220.21   14.48
   1   3   3  197.82   13.64
   1   3   3  192.48   12.55
  -1  -3  -4   26.22    4.47
  -1  -3  -4   25.46    4.96
   1   3   4   29.44    4.50
  -1  -3  -4   22.20    4.11
   1   3   4   25.45    3.30
   1   3   5   25.98    3.19
  -1  -3  -5   27.86    4.80
   1   3   5   24.04    4.37
  -1  -3  -5   19.86    3.98
  -1  -3  -6   26.01    4.38
  -1  -3  -6   22.00    4.08
   1   3   6   21.80    4.27
  -1  -3  -7   65.85    6.02
   1   3   7   60.67    6.15
  -1  -3  -7   64.05    6.21
   1   4 -11    9.72    2.15
  -1  -4  11    9.02    1.90
   1   4 -11    5.67    1.60
  -1  -4  11    8.17    1.44
  -1  -4  10   34.55    4.20
   1   4 -10   36.81    4.40
  -1  -4  10   36.65    4.07
   1   4 -10   28.18    3.62
   1   4  -9   18.51    3.49
  -1  -4   9   19.96    3.65
  -1  -4   9   20.45    3.55
  -1  -4   9   25.15    3.81
  -1  -4   8    5.06    2.35
  -1  -4   8    3.44    2.28
   1   4  -8    0.63    1.53
  -1  -4   7   38.74    5.12
  -1  -4   7   40.23    4.89
  -1  -4   6   18.01    2.91
  -1  -4   6   16.03    2.66
   1   4  -6   15.10    2.66
   1   4  -6   13.70    2.60
  -1  -4   6   15.27    3.10
  -1  -4   5   99.32    6.78
  -1  -4   5   78.92    6.35
   1   4  -5   98.97    6.91
  -1  -4   5   94.17    7.99
  -1  -4   5   91.22    6.81
   1   4  -4   49.09    4.48
  -1  -4   4   43.66    3.96
  -1  -4   4   35.60    3.66
  -1  -4   4   42.74    4.19
   1   4  -4   42.97    3.95
  -1  -4   4   41.14    4.25
   1   4  -4   47.82    4.48
  -1  -4   4   36.60    4.73
  -1  -4   4   37.05    4.43
   1   4  -4   44.72    4.60
   1   4  -4   45.01    4.06
  -1  -4   3  174.32   11.83
  -1  -4   3  211.02   13.21
  -1  -4   3  225.87   13.07
   1   4  -3  247.02   13.79
   1   4  -3  173.43   12.06
  -1  -4   3  187.52   12.10
   1   4  -3  226.91   12.64
   1   4  -3  244.17   13.61
  -1  -4   3  210.66   13.35
   1   4  -2  741.85   37.61
   1   4  -2  849.65   39.06
  -1  -4   2  550.77   38.12
  -1  -4   2  697.32   37.76
   1   4  -2  651.36   37.35
  -1  -4   2  687.49   37.55
  -1  -4   2  666.69   37.11
  -1  -4   2  709.52   38.35
   1   4  -2  704.26   37.60
  -1  -4   1 1001.00   54.30
   1   4  -1 1260.45   55.31
  -1  -4   1  991.24   54.84
  -1  -4   1  937.64   53.14
  -1  -4   1  894.63   53.27
  -1  -4   1  869.94   54.62
  -1  -4   1  954.33   54.08
  -1  -4   1  848.35   53.49
   1   4  -1 1048.05   53.96
  -1  -4   1  959.78   54.20
   1   4  -1 1188.73   54.10
  -1  -4   0   13.90    2.57
   1   4   0   12.66    2.08
  -1  -4   0   12.53    2.93
  -1  -4   0   13.96    2.53
  -1  -4   0   13.91    2.68
   1   4   0   17.77    2.99
  -1  -4   0   12.97    2.18
  -1  -4   0   13.04    2.80
   1   4   0   16.51    2.59
  -1  -4   0   19.42    2.82
  -1  -4   0   13.60    3.24
   1   4   1   79.14    6.25
  -1  -4  -1   64.85    6.33
  -1  -4  -1   75.25    7.82
  -1  -4  -1   75.74    7.55
  -1  -4  -1   80.63    6.99
   1   4   1   87.59    7.16
  -1  -4  -1   68.58    6.06
   1   4   1   72.69    6.58
   1   4   1   74.04    5.80
  -1  -4  -2  190.59   13.26
  -1  -4  -2  197.20   13.56
  -1  -4  -2  193.08   13.91
  -1  -4  -2  221.31   15.11
   1   4   2  175.52   13.30
  -1  -4  -2  197.59   14.85
   1   4   2  189.20   13.16
   1   4   2  182.38   12.70
  -1  -4  -3   90.77    8.09
   1   4   3  100.17    8.23
  -1  -4  -3  110.04    9.93
   1   4   3   91.93    8.79
  -1  -4  -3   94.77    9.91
   1   4   3  102.49    7.98
  -1  -4  -3   97.40    9.05
   1   4   4    8.96    3.12
  -1  -4  -4   10.84    3.58
   1   4   4   12.41    2.62
  -1  -4  -4    7.11    2.84
  -1  -4  -4   10.49    4.16
  -1  -4  -5   11.83    3.45
  -1  -4  -5   15.02    4.47
   1   4   5   12.78    3.54
  -1  -4  -5   14.06    3.40
  -1  -4  -6   15.70    3.26
  -1  -4  -6   16.56    4.00
   1   4   6   18.33    3.33
   1   4   7    4.37    1.82
  -1  -4  -7    3.49    1.43
  -1  -4  -7    1.47    1.86
  -1  -5  11   22.98    2.56
   1   5 -11   24.58    2.83
   1   5 -11   18.96    2.47
  -1  -5  10   56.77    5.08
   1   5 -10   47.37    4.98
   1   5 -10   40.74    4.53
  -1  -5  10   52.87    4.71
  -1  -5   9   24.60    3.67
   1   5  -9   23.34    3.77
  -1  -5   9   26.71    3.76
   1   5  -9   19.12    3.06
  -1  -5   8    6.26    2.31
  -1  -5   8    5.90    2.43
   1   5  -8    5.92    2.34
  -1  -5   7    7.41    2.19
   1   5  -7    9.22    2.76
  -1  -5   7    9.21    2.54
   1   5  -7    7.76    2.41
  -1  -5   7   11.99    3.05
   1   5  -7    6.54    2.34
  -1  -5   6   64.55    6.14
   1   5  -6   60.46    5.99
  -1  -5   6   52.61    5.37
  -1  -5   6   55.62    6.20
   1   5  -6   66.79    5.88
  -1  -5   6   65.54    7.21
   1   5  -6   69.08    6.36
   1   5  -5  143.76    9.76
  -1  -5   5  128.00    9.07
  -1  -5   5  129.76   10.59
   1   5  -4    7.66    1.84
  -1  -5   4    6.40    1.76
   1   5  -4    9.00    2.49
  -1  -5   4   10.41    2.46
  -1  -5   4    9.44    2.97
   1   5  -4   10.87    2.59
  -1  -5   4    8.51    2.39
   1   5  -3   15.91    3.30
  -1  -5   3   17.81    3.15
  -1  -5   3   14.27    2.35
  -1  -5   3   18.59    3.31
   1   5  -3   15.81    3.05
   1   5  -3   13.86    2.27
   1   5  -3   15.73    2.60
  -1  -5   3   15.86    3.08
  -1  -5   2   22.01    3.63
   1   5  -2   27.83    4.29
  -1  -5   2   21.24    3.34
   1   5  -2   35.42    4.11
  -1  -5   2   19.18    2.85
   1   5  -2   27.66    3.61
   1   5  -2   27.98    3.51
  -1  -5   2   19.15    3.54
   1   5  -1  117.52    8.96
  -1  -5   1  109.01   10.19
  -1  -5   1  101.29    8.37
   1   5  -1  123.10    8.92
  -1  -5   1  118.05    9.35
   1   5  -1  123.04    9.03
  -1  -5   1  104.98    8.29
  -1  -5   1  109.58    9.40
   1   5   0    7.78    2.17
   1   5   0    8.81    2.90
  -1  -5   0    8.34    3.26
  -1  -5   0    6.78    3.34
  -1  -5   0    9.60    2.59
  -1  -5   0    7.98    2.88
   1   5   0    7.15    2.23
  -1  -5  -1   12.68    3.14
  -1  -5  -1   11.03    2.70
   1   5   1   11.59    3.25
   1   5   1    9.26    2.14
   1   5   1    9.38    2.71
  -1  -5  -1   11.92    4.06
  -1  -5  -1   13.25    3.68
  -1  -5  -1   12.52    4.08
  -1  -5  -2   66.63    6.55
  -1  -5  -2   64.47    8.45
   1   5   2   62.15    6.76
  -1  -5  -2   66.61    8.29
   1   5   2   70.03    6.67
  -1  -5  -2   66.67    7.64
   1   5   2   68.40    7.15
   1   5   3   82.21    7.27
   1   5   3   74.94    7.71
  -1  -5  -3   76.79    9.30
   1   5   3   84.55    7.62
  -1  -5  -3   81.72    9.06
  -1  -5  -3   82.01    8.59
  -1  -5  -4   13.78    3.65
  -1  -5  -4   11.77    4.19
   1   5   4   10.76    2.96
  -1  -5  -4   11.02    3.36
  -1  -5  -5    0.59    2.31
  -1  -5  -5    0.88    1.77
  -1  -5  -5    0.63    1.82
   1   5   5    0.11    1.83
   1   5   6    0.23    1.54
   1   6 -11   10.15    1.54
   1   6 -10    4.33    1.59
  -1  -6  10    4.27    1.62
   1   6 -10    7.10    1.90
  -1  -6  10    5.87    1.65
  -1  -6  10    6.44    1.59
   1   6  -9   37.28    4.22
   1   6  -9   34.96    4.45
  -1  -6   9   44.62    4.57
  -1  -6   9   37.33    4.32
  -1  -6   8    8.17    2.67
   1   6  -8    9.93    2.78
  -1  -6   8   11.19    2.61
   1   6  -8    6.47    2.06
  -1  -6   8    7.67    2.58
   1   6  -8    4.85    1.92
  -1  -6   7   16.86    2.95
   1   6  -7   17.80    3.35
  -1  -6   7   17.96    3.30
   1   6  -7   19.94    3.43
  -1  -6   7   16.06    3.49
   1   6  -7   21.13    3.96
  -1  -6   6  208.48   15.33
  -1  -6   6  257.73   16.15
   1   6  -6  294.97   17.70
  -1  -6   6  234.01   17.56
   1   6  -6  266.45   16.86
   1   6  -6  262.38   16.40
   1   6  -6  250.29   16.46
  -1  -6   6  220.93   16.49
  -1  -6   5   37.58    4.42
  -1  -6   5   42.09    6.06
   1   6  -5   40.17    5.36
   1   6  -5   50.49    5.61
   1   6  -5   52.54    5.87
   1   6  -4   45.43    5.95
  -1  -6   4   38.03    5.97
   1   6  -4   42.98    5.32
  -1  -6   4   37.57    4.37
  -1  -6   4   37.16    5.06
  -1  -6   3   25.36    3.55
   1   6  -3   37.09    5.65
   1   6  -3   28.13    3.62
  -1  -6   3   28.95    4.52
   1   6  -2  107.43    8.76
  -1  -6   2   94.67    8.81
   1   6  -2   90.80    9.47
  -1  -6   2   90.09    7.63
   1   6  -2   92.78    8.04
  -1  -6   1   27.47    5.77
  -1  -6   1   18.21    3.31
   1   6  -1   32.72    4.57
   1   6  -1   25.30    4.21
  -1  -6   1   18.60    4.07
  -1  -6   0   18.68    5.13
  -1  -6   0   23.02    3.68
  -1  -6   0   28.37    4.91
   1   6   0   27.20    4.28
   1   6   0   31.55    5.37
   1   6   0   23.81    3.32
   1   6   0   25.66    3.70
  -1  -6  -1    9.70    4.11
   1   6   1    9.32    3.39
  -1  -6  -1    6.35    2.38
  -1  -6  -1   10.59    3.44
   1   6   2    8.75    3.21
  -1  -6  -2   13.57    4.22
   1   6   2    9.53    2.74
  -1  -6  -2   10.64    3.37
  -1  -6  -2   11.08    2.67
  -1  -6  -3    1.02    2.56
   1   6   3    0.57    1.59
  -1  -6  -3    0.18    1.34
  -1  -6  -3   -0.65    1.99
  -1  -6  -4    5.98    2.44
  -1  -6  -4    7.86    2.11
   1   6   5    1.27    1.38
   1   7 -10    2.99    1.24
   1   7 -10    2.91    1.15
   1   7  -9    0.85    1.44
  -1  -7   9    3.06    1.60
  -1  -7   9    3.15    1.40
   1   7  -8   42.71    4.88
  -1  -7   8   36.08    4.46
  -1  -7   8   37.36    4.33
   1   7  -8   29.21    3.74
   1   7  -7   12.02    3.27
   1   7  -7    9.93    2.68
   1   7  -7   10.58    2.87
  -1  -7   7   19.02    3.45
   1   7  -6  142.60   10.84
  -1  -7   6   98.58    9.63
   1   7  -6  155.06   10.97
   1   7  -6  129.24   10.04
  -1  -7   6  103.09   10.46
   1   7  -5    0.68    2.43
   1   7  -5    1.45    2.60
  -1  -7   5    1.83    3.05
   1   7  -5    0.14    2.22
   1   7  -5    0.40    2.23
   1   7  -4   30.35    4.97
   1   7  -4   32.06    4.69
   1   7  -4   28.16    5.20
  -1  -7   4   28.51    5.66
   1   7  -4   33.95    5.07
  -1  -7   4   29.06    4.60
   1   7  -3   18.69    4.78
   1   7  -3   18.17    3.36
   1   7  -3   22.94    4.13
  -1  -7   3   16.07    3.61
   1   7  -2    7.05    3.87
   1   7  -2    7.89    2.80
   1   7  -2    5.67    1.93
   1   7  -2    7.90    2.69
  -1  -7   2    5.44    2.66
  -1  -7   1   20.47    4.08
   1   7  -1   17.90    3.42
   1   7  -1   19.69    3.22
   1   7   0   10.50    3.89
  -1  -7   0    9.24    2.94
   1   7   1   16.47    4.03
  -1  -7  -1   22.54    3.82
   1   7   2    3.78    2.31
   1   7   2    7.67    2.44
  -1  -7  -2   10.98    2.37
   1   7   3    2.56    1.74
   1   7   3    1.18    2.03
   1   8  -9    1.69    1.01
  -1  -8   9    0.52    0.92
   1   8  -9    1.44    0.94
  -1  -8   8    2.20    1.52
   1   8  -8    1.07    1.51
  -1  -8   8    2.23    1.28
   1   8  -8    1.18    1.18
  -1  -8   7   41.00    4.42
   1   8  -7   41.06    4.49
   1   8  -7   39.34    4.28
   1   8  -6  165.31   11.82
  -1  -8   6  148.87   11.47
   1   8  -6  172.70   11.87
   1   8  -6  164.25   11.54
   1   8  -5   10.75    2.85
  -1  -8   5   13.00    3.79
   1   8  -5    7.24    2.90
   1   8  -5   13.12    3.10
   1   8  -5   13.22    3.24
   1   8  -4    5.63    3.37
   1   8  -4    2.55    1.91
   1   8  -4    5.45    2.66
   1   8  -3    8.06    2.02
   1   8  -3   11.65    4.00
   1   8  -3   12.89    2.88
   1   8  -3    9.89    2.95
   1   8  -2    5.22    3.34
  -1  -8   2   10.13    3.54
  -1  -8   2    6.43    2.24
   1   8  -2    5.09    1.90
   1   8  -2    0.31    2.72
  -1  -8   1   12.48    3.55
  -1  -8   1   10.24    2.35
   1   8  -1    8.21    3.68
   1   8   0    1.32    2.16
   1   8   0    2.69    1.36
  -1  -8   0    0.39    2.05
   1   8   0   -2.63    2.64
  -1  -8  -1    3.14    1.83
   1   8   1    0.21    1.92
   1   8   1    1.64    1.62
  -1  -9   6   17.78    2.50
  -1  -9   6   21.07    2.43
   1   9  -5    6.49    1.89
  -1  -9   5    4.54    1.73
   1   9  -4    1.69    1.79
   1   9  -4    5.56    1.80
   1   9  -3   -0.43    1.80
  -1  -9   3    1.88    1.88
   1   9  -3    1.36    1.30
   1   9  -2    4.29    2.01
  -1  -9   2    6.95    2.05
   1   9  -2    6.58    1.47
   2  -9  -1    3.28    1.24
  -2   9   1    1.76    1.91
  -2   9   0    7.76    2.95
   2  -9   0   10.84    2.18
  -2   9   0    5.79    2.70
   2  -9   1   11.78    2.48
  -2   9  -1    7.81    3.01
  -2   9  -2    1.43    2.78
   2  -9   2    6.40    2.16
  -2   9  -2    3.15    1.63
  -2   9  -2    0.22    2.02
   2  -9   3   16.66    2.93
  -2   9  -3   12.54    2.69
   2  -9   4   14.48    2.73
  -2   9  -4   16.37    3.07
  -2   9  -5   11.55    2.72
   2  -9   5   10.64    2.28
  -2   9  -6    2.04    1.18
   2  -9   6    3.57    1.43
   2  -8  -3    7.72    1.86
  -2   8   3    5.19    2.41
  -2   8   2    3.98    2.30
   2  -8  -2    9.18    2.42
  -2   8   1   -0.35    2.59
   2  -8  -1    0.73    1.88
  -2   8   1   -1.29    3.32
   2  -8   0    5.43    2.60
   2  -8   0    0.61    1.83
  -2   8   0    3.03    3.57
  -2   8   0   -0.20    3.41
   2  -8   1   10.06    2.85
   2  -8   1   16.68    3.57
   2  -8   1   15.60    3.28
  -2   8  -1   16.61    3.05
   2  -8   2   32.12    4.37
   2  -8   2   34.01    4.80
   2  -8   2   28.14    4.31
  -2   8  -2   38.90    4.69
  -2   8  -2   31.22    6.57
  -2   8  -3   14.87    5.04
   2  -8   3   18.12    3.34
   2  -8   3   22.26    4.01
  -2   8  -3   23.44    4.10
   2  -8   4    9.23    2.88
  -2   8  -4    4.23    3.45
  -2   8  -4   10.82    3.28
   2  -8   5   27.37    4.10
  -2   8  -5   22.86    3.47
  -2   8  -5   29.93    4.56
   2  -8   5   33.81    4.10
   2  -8   6   18.32    3.03
   2  -8   6   16.90    3.13
  -2   8  -6   15.37    2.90
   2  -8   7   62.64    5.44
   2  -8   7   61.65    5.22
  -2   8  -7   46.02    4.92
   2  -8   7   53.00    4.83
  -2   8  -7   57.69    5.73
   2  -8   8    0.04    0.77
   2  -8   8    0.35    0.97
  -2   8  -8    0.46    1.19
   2  -7  -5   -0.09    1.35
   2  -7  -5    0.47    1.16
  -2   7   4    0.84    2.44
   2  -7  -4    3.00    1.92
   2  -7  -4    4.35    2.04
   2  -7  -4    2.14    2.25
  -2   7   4    3.56    2.56
   2  -7  -3   13.69    3.49
   2  -7  -3   15.08    3.45
  -2   7   3    3.33    2.98
   2  -7  -3    9.82    3.37
  -2   7   3    7.29    2.78
  -2   7   3   14.67    4.32
   2  -7  -2   30.63    5.42
   2  -7  -2   37.94    5.42
  -2   7   2   28.67    5.43
  -2   7   2   34.33    5.76
   2  -7  -2   37.61    5.84
  -2   7   1   15.07    4.26
  -2   7   1   48.50    8.30
  -2   7   1   34.03    6.43
   2  -7  -1   46.41    5.85
   2  -7  -1   37.10    6.10
   2  -7  -1   24.50    5.04
   2  -7  -1   37.43    3.97
   2  -7   0    2.15    1.65
  -2   7   0    3.44    3.57
   2  -7   0    2.55    2.60
   2  -7   0    1.13    2.01
   2  -7   0    1.62    2.49
  -2   7   0    2.52    1.80
  -2   7   0    3.51    4.28
   2  -7   1    5.83    2.14
   2  -7   1    3.24    2.17
  -2   7  -1   10.37    4.48
  -2   7  -1    3.57    2.26
   2  -7   1    3.59    2.59
  -2   7  -2   85.97   10.78
  -2   7  -2   92.51    8.37
   2  -7   2  108.48    8.82
   2  -7   2   93.07    8.31
   2  -7   2   88.27    8.42
   2  -7   2  114.50    8.24
  -2   7  -3   45.53    7.54
   2  -7   3   61.04    6.19
   2  -7   3   64.45    6.12
   2  -7   3   54.79    6.28
  -2   7  -3   46.90    5.78
   2  -7   4   12.77    3.18
  -2   7  -4    6.34    3.80
  -2   7  -4   11.61    3.52
   2  -7   5    3.61    2.34
   2  -7   6   43.71    5.16
  -2   7  -6   33.60    4.79
  -2   7  -6   36.00    4.29
   2  -7   6   36.95    5.01
  -2   7  -7   14.91    2.77
   2  -7   7   17.92    3.36
  -2   7  -7   12.84    3.09
   2  -7   7   14.79    3.06
  -2   7  -7   18.77    3.84
   2  -7   8   10.31    1.93
   2  -7   8   10.79    2.40
  -2   7  -8    7.64    2.10
  -2   7  -8    9.54    2.53
   2  -7   9    0.47    0.98
  -2   7  -9    0.47    0.93
  -2   7  -9    0.21    1.21
   2  -6  -6    7.98    2.09
   2  -6  -6    4.59    2.19
   2  -6  -6    9.21    2.27
  -2   6   5    8.59    3.44
   2  -6  -5   14.37    3.58
   2  -6  -5   17.09    3.49
  -2   6   5    8.06    2.83
  -2   6   4    7.93    4.26
   2  -6  -4    9.29    3.38
   2  -6  -4   11.25    3.67
  -2   6   4   11.80    4.05
  -2   6   3    0.93    3.34
   2  -6  -3    6.51    3.19
   2  -6  -3    2.79    2.75
  -2   6   3    2.05    2.38
  -2   6   3    4.85    4.00
  -2   6   2   69.91    9.01
   2  -6  -2  102.80    9.91
  -2   6   2   80.51    9.50
   2  -6  -1  159.78   11.86
   2  -6  -1  193.34   11.30
  -2   6   1  140.47   12.94
   2  -6  -1  130.83   11.60
  -2   6   1   92.89   10.71
  -2   6   0   16.60    3.72
  -2   6   0   15.75    4.62
  -2   6   0   16.28    3.04
   2  -6   0   11.30    3.20
   2  -6   0   15.24    3.40
   2  -6   0   15.04    3.22
  -2   6   0   17.66    5.25
   2  -6   0   20.04    3.10
   2  -6   1   14.00    2.66
   2  -6   1    9.47    2.71
  -2   6  -1   10.19    4.21
   2  -6   1    7.73    2.73
   2  -6   1   10.84    2.81
  -2   6  -1    9.25    2.58
  -2   6  -1   10.02    2.67
   2  -6   2   53.89    5.99
   2  -6   2   54.97    5.94
  -2   6  -2   47.86    7.47
   2  -6   2   54.31    5.78
  -2   6  -2   47.52    5.47
  -2   6  -2   50.49    5.77
  -2   6  -2   58.55    5.98
   2  -6   2   63.54    5.67
  -2   6  -2   43.37    6.28
   2  -6   3   21.59    3.63
  -2   6  -3   11.84    4.34
  -2   6  -3   11.53    3.18
   2  -6   3   24.17    4.14
  -2   6  -3   11.95    3.24
   2  -6   3   23.74    3.34
  -2   6  -3   14.28    3.43
  -2   6  -3    9.81    3.22
   2  -6   4   68.20    6.64
  -2   6  -4   56.61    7.87
  -2   6  -4   64.75    7.11
  -2   6  -4   77.23    7.47
   2  -6   5   13.88    2.31
  -2   6  -6   94.86    8.59
   2  -6   6   93.43    8.15
  -2   6  -6   80.53    7.70
  -2   6  -6   98.23    9.19
   2  -6   7   48.71    5.45
  -2   6  -7   42.81    5.10
  -2   6  -7   37.20    4.31
  -2   6  -7   43.13    5.62
   2  -6   7   44.00    4.81
  -2   6  -7   44.06    5.92
   2  -6   8   20.54    2.83
  -2   6  -8   23.13    3.56
  -2   6  -8   21.12    3.80
  -2   6  -8   17.91    2.79
  -2   6  -9    8.78    2.13
   2  -6   9    8.43    2.03
   2  -6  10    0.40    0.67
  -2   6 -10    0.10    0.80
  -2   5   7    7.33    2.57
   2  -5  -7    9.40    2.41
  -2   5   6   26.57    3.55
   2  -5  -6   36.56    5.03
   2  -5  -6   29.26    4.80
   2  -5  -5   10.59    3.67
  -2   5   5    9.66    2.88
  -2   5   5   10.12    3.28
  -2   5   4   19.77    5.15
   2  -5  -4   37.29    5.75
  -2   5   4   37.17    5.07
  -2   5   4   39.00    6.16
  -2   5   3   14.90    4.42
   2  -5  -3   23.02    4.50
  -2   5   3   24.70    4.10
  -2   5   3   16.21    3.86
  -2   5   3   27.13    5.54
  -2   5   2  312.57   22.10
  -2   5   2  295.30   22.08
   2  -5  -2  317.23   21.43
  -2   5   2  343.03   21.31
  -2   5   1   93.03    8.66
   2  -5  -1  101.66    8.53
  -2   5   1   96.77    9.70
   2  -5   0  101.02    8.40
   2  -5   0   83.17    7.51
  -2   5   0   82.66    9.06
   2  -5   0   84.93    7.37
  -2   5   0   91.26    7.17
  -2   5   0   84.28    6.97
  -2   5   0  102.03    8.24
  -2   5  -1   66.70    6.21
   2  -5   1   72.75    6.73
   2  -5   1   68.68    6.94
  -2   5  -1   78.83    8.66
  -2   5  -1   92.68    5.76
  -2   5  -1   79.22    6.71
  -2   5  -1   78.77    6.70
   2  -5   1   57.97    6.19
   2  -5   1   87.01    6.60
  -2   5  -2  173.63   12.61
  -2   5  -2  176.20   14.70
  -2   5  -2  166.84   12.42
   2  -5   2  189.28   12.76
  -2   5  -2  196.70   13.83
   2  -5   2  187.99   12.81
  -2   5  -2  182.36   12.65
   2  -5   2  208.27   12.35
  -2   5  -3   87.34    9.08
  -2   5  -3   79.79    7.58
   2  -5   3   91.69    7.59
   2  -5   3   88.35    7.87
   2  -5   3   94.30    7.24
  -2   5  -3  100.28    8.01
  -2   5  -4   45.87    6.27
   2  -5   4   48.83    4.71
   2  -5   4   49.35    5.20
   2  -5   4   41.94    4.29
   2  -5   5   26.69    3.46
  -2   5  -5   26.87    3.58
   2  -5   5   23.21    3.15
  -2   5  -5   29.46    4.61
  -2   5  -6  145.60   11.28
  -2   5  -6  141.19   10.54
  -2   5  -6  165.26   12.12
   2  -5   7   26.04    4.08
  -2   5  -7   22.79    4.06
  -2   5  -7   20.71    4.33
  -2   5  -7   22.62    3.73
   2  -5   7   21.09    3.33
  -2   5  -8   33.59    4.58
  -2   5  -8   27.01    3.95
   2  -5   8   32.58    4.38
   2  -5   8   26.34    3.30
   2  -5   9    8.58    2.79
  -2   5  -9    7.61    2.12
  -2   5  -9    7.65    2.51
   2  -5   9    8.29    2.19
  -2   5  -9   10.62    2.20
  -2   5  -9    9.05    2.52
  -2   5 -10    3.53    1.40
   2  -5  10    3.22    1.10
  -2   5 -10    2.63    1.27
  -2   4   8    1.81    1.84
   2  -4  -8    3.78    1.89
   2  -4  -8    3.36    1.65
  -2   4   8    3.07    1.23
  -2   4   7   35.01    5.05
   2  -4  -7   28.88    4.24
  -2   4   7   33.83    4.14
  -2   4   6   26.09    5.38
  -2   4   6   34.69    4.95
   2  -4  -6   44.78    5.34
   2  -4  -6   53.67    6.75
  -2   4   5    4.23    3.34
   2  -4  -5    3.55    2.78
   2  -4  -5    4.85    2.31
  -2   4   5    4.63    2.45
  -2   4   5    7.94    3.50
  -2   4   5    4.67    2.19
  -2   4   5    0.83    2.53
   2  -4  -4   10.15    2.62
   2  -4  -4   14.86    3.65
  -2   4   4   11.53    3.17
  -2   4   4    9.41    3.40
  -2   4   4   13.06    2.76
  -2   4   4   12.25    3.72
  -2   4   3   46.28    5.77
   2  -4  -3   55.37    6.07
  -2   4   3   53.77    5.80
  -2   4   3   52.68    5.15
  -2   4   3   58.12    6.95
  -2   4   2  277.80   20.48
   2  -4  -2  316.60   19.84
   2  -4  -1  276.80   18.38
  -2   4   1  304.09   18.87
  -2   4   1  296.27   18.65
  -2   4   1  315.76   19.50
  -2   4   1  278.42   20.05
  -2   4   1  355.33   17.84
   2  -4  -1  310.25   18.97
   2  -4  -1  325.17   18.91
  -2   4   0   60.09    5.49
  -2   4   0   36.62    4.38
  -2   4   0   49.42    6.07
   2  -4   0   60.74    5.38
  -2   4   0   70.93    4.47
   2  -4   0   49.68    4.84
  -2   4   0   50.61    4.69
  -2   4   0   51.51    4.58
   2  -4   1  137.57    9.56
  -2   4  -1  164.56   12.11
  -2   4  -1  142.97    9.98
   2  -4   1  134.57   10.04
   2  -4   1  138.97    9.77
  -2   4  -1  177.61    9.36
  -2   4  -1  147.33   10.03
  -2   4  -1  141.23   10.10
  -2   4  -1  145.34   10.01
   2  -4   1  140.50   10.02
   2  -4   2  668.61   37.38
   2  -4   2  639.55   37.06
  -2   4  -2  726.68   38.43
  -2   4  -2  634.52   37.41
  -2   4  -2  727.67   36.36
   2  -4   2  779.85   37.16
  -2   4  -2  680.32   37.54
   2  -4   2  617.65   37.22
  -2   4  -2  619.47   37.37
  -2   4  -2  614.47   38.95
  -2   4  -2  696.25   37.47
   2  -4   2  678.76   36.83
  -2   4  -3    5.54    2.04
   2  -4   3    2.65    1.48
   2  -4   3    4.05    1.69
  -2   4  -3    4.73    2.54
   2  -4   3    0.07    1.22
   2  -4   4   17.16    2.20
  -2   4  -4   13.34    2.97
   2  -4   4   21.15    3.22
   2  -4   4   16.76    2.52
   2  -4   4   16.50    2.68
  -2   4  -4   18.84    3.31
   2  -4   5   63.72    5.23
  -2   4  -5   77.82    7.01
   2  -4   5   70.90    6.64
   2  -4   5   66.13    5.72
  -2   4  -5   70.53    7.01
  -2   4  -5   68.53    6.32
   2  -4   5   65.80    6.06
   2  -4   6  404.38   27.43
  -2   4  -6  609.43   31.46
   2  -4   6  489.03   28.69
   2  -4   6  553.54   30.43
   2  -4   6  478.57   29.18
  -2   4  -6  625.20   30.82
  -2   4  -6  507.82   29.64
   2  -4   7    9.42    2.31
  -2   4  -7    5.77    2.57
   2  -4   7   11.52    2.94
  -2   4  -7    4.79    2.59
  -2   4  -8    1.28    2.08
   2  -4   8    0.53    1.29
  -2   4  -8    2.33    2.53
   2  -4   8    1.54    1.97
  -2   4  -8    2.30    2.62
  -2   4  -9    7.24    2.60
   2  -4   9    6.07    2.92
  -2   4  -9    7.82    2.33
   2  -4   9    8.23    2.14
  -2   4  -9    8.62    2.44
  -2   4 -10   24.41    2.92
   2  -4  10   29.10    2.61
   2  -4  10   19.26    3.22
  -2   4 -10   22.19    2.92
  -2   4 -10   24.75    2.70
   2  -3  -9    2.31    1.60
  -2   3   9    2.54    1.07
  -2   3   8    2.44    2.22
   2  -3  -8    2.15    2.60
  -2   3   8    0.30    1.45
   2  -3  -8    2.16    1.93
  -2   3   7   92.95    8.62
   2  -3  -7   75.42    7.78
   2  -3  -7   68.33    6.99
  -2   3   7   92.39    8.45
  -2   3   6  224.47   16.10
   2  -3  -6  241.66   15.44
   2  -3  -6  190.64   14.33
  -2   3   6  228.60   14.80
  -2   3   6  190.07   15.07
   2  -3  -5   46.48    4.83
   2  -3  -5   52.81    5.35
  -2   3   5   53.20    5.22
  -2   3   5   45.06    5.68
   2  -3  -4   -0.38    1.29
   2  -3  -4    0.34    1.05
  -2   3   4    0.38    1.82
  -2   3   4    0.37    1.33
  -2   3   4   -0.30    2.12
  -2   3   3  101.85    6.00
   2  -3  -3  111.58    6.13
  -2   3   3  102.06    7.08
  -2   3   3  106.02    5.46
  -2   3   3  108.47    6.10
  -2   3   3  100.09    6.82
   2  -3  -3  114.80    6.58
  -2   3   3  111.34    8.12
  -2   3   2  890.76   54.75
   2  -3  -2 1053.71   53.75
  -2   3   2  985.02   52.84
  -2   3   2  983.11   53.39
   2  -3  -2 1093.33   54.04
  -2   3   2 1019.91   55.74
  -2   3   1  101.87    6.40
  -2   3   1  103.87    7.47
   2  -3   0  352.84   18.81
  -2   3   0  303.43   18.25
  -2   3  -1   27.34    2.75
   2  -3   1   13.09    2.34
  -2   3  -2  347.40   10.45
   2  -3   2  298.76    8.33
  -2   3  -2  284.25    9.23
   2  -3   2  245.18    7.80
  -2   3  -3  275.20    9.15
   2  -3   3  265.37    8.59
   2  -3   3  270.52    7.53
   2  -3   4   24.17    2.74
  -2   3  -4   26.50    3.50
   2  -3   4   25.24    3.38
  -2   3  -4   31.99    3.63
   2  -3   4   23.76    3.25
   2  -3   4   22.87    2.92
   2  -3   4   24.97    2.62
  -2   3  -4   28.92    3.82
   2  -3   5   15.19    2.27
  -2   3  -5   13.16    2.93
   2  -3   5   14.67    2.91
   2  -3   5   14.14    2.58
  -2   3  -5   16.32    3.10
   2  -3   5   15.62    2.51
  -2   3  -5   15.58    2.99
  -2   3  -5   13.30    3.18
   2  -3   6  451.95   26.05
   2  -3   6  475.05   27.17
  -2   3  -6  507.82   28.12
  -2   3  -6  504.66   28.01
   2  -3   6  404.80   25.85
  -2   3  -7   61.36    7.17
   2  -3   7   70.90    6.78
  -2   3  -7   60.31    6.76
  -2   3  -8   19.87    4.07
  -2   3  -8   22.53    4.13
  -2   3  -8   22.86    3.66
   2  -3   8   25.03    3.75
   2  -3   8   27.47    3.63
  -2   3  -8   26.18    4.40
  -2   3  -9    1.78    2.04
  -2   3  -9    3.07    2.15
   2  -3   9   -0.51    2.59
   2  -3   9    1.32    1.45
   2  -3   9    1.46    1.29
  -2   3  -9    0.79    1.70
  -2   3 -10    5.52    1.63
  -2   3 -10    4.08    1.33
   2  -3  10    2.78    1.89
  -2   3 -10    2.75    1.29
   2  -2 -10    8.33    1.95
   2  -2 -10    3.00    1.43
  -2   2   9    5.76    1.90
   2  -2  -9    6.60    2.35
   2  -2  -9   10.09    2.46
  -2   2   9    7.38    2.01
  -2   2   8   18.02    3.72
   2  -2  -8   20.50    3.68
   2  -2  -8   21.55    4.17
  -2   2   8   15.16    3.28
   2  -2  -7  105.85    9.54
  -2   2   7   95.20    9.29
   2  -2  -7  112.38    8.92
  -2   2   6  155.35   11.45
  -2   2   6  128.81   12.78
  -2   2   6  128.48    9.72
  -2   2   6  123.18   10.06
   2  -2  -6  114.48    9.07
  -2   2   5   35.80    4.04
  -2   2   5   31.48    4.37
  -2   2   5   31.33    5.73
   2  -2  -4  106.20    7.05
  -2   2   4  102.41    9.24
   2  -2  -4  114.11    6.73
  -2   2   4  108.16    7.07
  -2   2   4   95.72    7.31
   2  -2  -4  125.61    7.84
  -2   2   4   98.74    6.69
  -2   2   3  119.03    8.16
  -2   2   3  136.25    8.15
  -2   2   3  123.91    8.32
  -2   2   3  105.98    8.49
   2  -2  -3  135.11    8.37
  -2   2   2   86.86    5.44
   2  -2  -2   83.79    5.79
  -2   2   1   67.76    3.35
   2  -2  -1   59.68    4.14
   2  -2  -1   55.31    3.70
   2  -2   0  254.18   14.23
  -2   2   0  243.76   13.96
  -2   2  -1  265.54   19.45
   2  -2   1  559.77   20.80
   2  -2   2  220.75    5.42
   2  -2   2  218.08    6.59
   2  -2   2   67.13    5.10
  -2   2  -2  260.14    7.94
  -2   2  -3  165.75   11.44
   2  -2   3  176.82   10.75
  -2   2  -3  162.39   11.32
   2  -2   3  198.19   10.80
   2  -2   3  196.73   11.38
  -2   2  -3  178.08   11.39
   2  -2   3  187.69   11.50
   2  -2   3  194.43   11.22
  -2   2  -3  179.04   11.46
   2  -2   3  163.89   10.37
   2  -2   4  397.50   22.40
   2  -2   4  416.54   23.16
  -2   2  -4  412.49   23.49
  -2   2  -4  424.54   23.48
  -2   2  -4  394.54   23.49
   2  -2   4  423.69   22.43
   2  -2   4  413.88   23.34
   2  -2   4  423.38   22.93
   2  -2   4  327.88   22.01
   2  -2   5  123.05    8.77
   2  -2   5  130.53    9.24
  -2   2  -5  140.57   10.10
  -2   2  -5  126.09    9.66
  -2   2  -5  123.53    9.81
  -2   2  -6  378.57   21.37
  -2   2  -6  405.42   21.51
  -2   2  -7    3.05    2.58
  -2   2  -7    4.48    2.49
  -2   2  -7    3.92    2.32
  -2   2  -7    4.57    2.69
   2  -2   7    6.85    2.25
   2  -2   7    9.56    2.63
  -2   2  -7    5.80    2.81
  -2   2  -7    4.81    2.48
  -2   2  -8   34.31    5.07
  -2   2  -8   35.50    4.64
  -2   2  -8   34.98    4.67
  -2   2  -8   36.03    5.10
   2  -2   8   40.48    4.64
  -2   2  -8   39.20    5.27
  -2   2  -9   11.13    2.66
  -2   2  -9   12.59    2.83
  -2   2  -9    9.17    2.26
  -2   2  -9   11.71    2.76
   2  -2   9   10.77    2.20
   2  -2  10    3.62    1.86
  -2   2 -10    8.43    1.72
   2  -1 -10    7.72    2.13
  -2   1  10    8.73    1.82
   2  -1 -10    7.68    2.34
   2  -1  -9    7.27    3.09
   2  -1  -9    8.60    2.75
  -2   1   9    5.20    2.12
   2  -1  -9    3.79    1.76
  -2   1   8   36.15    4.63
  -2   1   8   31.05    4.23
   2  -1  -8   25.18    3.88
  -2   1   7  284.90   18.54
  -2   1   7  296.92   18.51
   2  -1  -7  257.11   17.55
  -2   1   7  271.86   17.89
  -2   1   6   79.20    7.25
  -2   1   6   79.84    6.95
  -2   1   6   71.37    6.82
  -2   1   5   13.76    3.11
  -2   1   5   12.30    2.22
  -2   1   5   12.06    2.55
   2  -1  -5   12.95    2.29
  -2   1   5    9.07    2.17
  -2   1   5   11.15    2.25
  -2   1   4  292.33   16.11
   2  -1  -4  244.79   14.71
  -2   1   4  246.76   16.90
  -2   1   4  230.38   14.66
   2  -1  -4  246.34   14.02
  -2   1   4  235.51   14.65
  -2   1   3  542.94   27.98
   2  -1  -3  497.69   27.73
  -2   1   3  511.22   27.88
  -2   1   2  229.27   14.44
   2  -1  -2  285.39   14.59
   2  -1  -2  271.29   13.91
   2  -1  -2  270.74   14.49
  -2   1   1  218.95   10.19
   2  -1  -1  146.02    9.63
  -2   1   0  481.72   25.74
   2  -1   0  494.65   26.06
  -2   1  -1   38.20    2.70
  -2   1  -1   53.85    3.99
   2  -1   2   26.40    2.24
   2  -1   2   25.85    2.40
  -2   1  -2   41.28    2.94
  -2   1  -2    6.65    2.84
  -2   1  -2    6.82    2.47
  -2   1  -3    1.97    2.86
   2  -1   3   29.47    2.79
   2  -1   3   31.30    2.63
  -2   1  -3   53.27    3.92
  -2   1  -3   29.23    3.26
  -2   1  -3   32.32    3.43
   2  -1   3   34.08    2.93
   2  -1   3   26.30    2.67
  -2   1  -3    6.51    2.73
   2  -1   4   50.25    4.24
  -2   1  -4   46.35    4.70
  -2   1  -4   48.64    4.78
   2  -1   4   49.75    4.12
  -2   1  -4   52.82    4.70
   2  -1   4   50.81    3.93
   2  -1   4   43.01    3.49
   2  -1   4   50.46    4.17
   2  -1   4   37.52    3.78
   2  -1   4   51.08    4.27
   2  -1   4   48.37    3.74
  -2   1  -4    8.08    4.76
  -2   1  -4   54.35    4.95
  -2   1  -4   12.38    3.57
  -2   1  -5  122.83    9.94
   2  -1   5  130.12    9.23
  -2   1  -5  140.12   10.41
  -2   1  -5  137.42   10.12
   2  -1   5  132.50    8.89
  -2   1  -5  126.24   10.04
  -2   1  -5  146.06   10.70
  -2   1  -6  465.03   31.51
   2  -1   6  509.83   30.57
  -2   1  -6  486.94   31.43
   2  -1   6  519.06   30.03
  -2   1  -6  572.71   32.46
  -2   1  -6  611.01   32.81
   2  -1   6  643.89   32.45
  -2   1  -6  582.64   32.65
  -2   1  -7   12.43    3.33
  -2   1  -7   12.25    3.29
  -2   1  -7   12.21    3.31
   2  -1   7   12.12    2.42
  -2   1  -7   12.20    3.31
   2  -1   7   18.95    3.52
  -2   1  -7   14.49    3.53
  -2   1  -8    5.76    2.43
  -2   1  -8    5.10    2.28
  -2   1  -8    3.72    2.25
   2  -1   8    5.35    3.41
  -2   1  -8    5.17    2.51
   2  -1   8    8.41    2.42
  -2   1  -8    5.08    2.67
  -2   1  -9    6.17    2.11
   2  -1   9    6.17    2.82
   2  -1   9    8.79    2.03
  -2   1  -9    7.87    1.99
  -2   1  -9   11.45    2.64
   2   0 -11    1.93    1.33
  -2   0  11    1.76    0.89
   2   0 -11    4.38    1.45
   2   0 -11    5.49    1.64
  -2   0  11    3.15    1.02
   2   0 -10   33.10    4.46
  -2   0  10   31.40    3.66
   2   0 -10   23.37    3.21
  -2   0   9   20.81    5.53
   2   0  -9   24.93    3.45
   2   0  -9   22.01    3.74
  -2   0   9   33.93    4.35
  -2   0   8    8.23    4.08
   2   0  -8    4.88    2.04
  -2   0   8    5.05    2.35
  -2   0   8    3.51    2.16
  -2   0   7   86.34    9.61
  -2   0   7   71.05    6.65
  -2   0   6  190.86   15.13
  -2   0   6  183.13   12.54
  -2   0   5   28.95    3.43
  -2   0   5   26.88    4.57
  -2   0   5   26.84    3.39
  -2   0   5   26.41    3.26
   2   0  -4   21.44    2.37
   2   0  -4   23.74    2.65
   2   0  -3  315.27   12.33
   2   0  -3  313.18   11.71
   2   0  -3  350.07   13.10
   2   0  -3  365.99   10.97
   2   0  -2 1560.85   82.76
   2   0  -2 1435.34   81.76
   2   0  -2 1530.88   82.44
  -2   0   1  682.75   36.39
   2   0   0  268.24   13.90
  -2   0   0  215.45   12.13
  -2   0  -1  207.94   11.86
  -2   0  -1  206.40   12.17
   2   0   1  185.72   12.17
  -2   0  -2  590.15   12.88
   2   0   2  535.27   11.59
  -2   0  -2  623.76   11.81
  -2   0  -3  216.57    7.71
   2   0   3  168.56    6.94
  -2   0  -3  182.17    7.90
  -2   0  -3  157.42    7.66
   2   0   3  187.40    6.77
   2   0   3  188.16    7.46
  -2   0  -3  195.28    8.60
  -2   0  -3  197.44    8.52
  -2   0  -3  162.96    7.65
   2   0   3  176.36    6.86
   2   0   3  175.86    6.48
   2   0   3  176.50    6.68
  -2   0  -3  171.32    8.10
  -2   0  -4   72.98    6.84
   2   0   4   84.60    6.37
  -2   0  -4   92.20    7.69
  -2   0  -4   84.72    7.36
  -2   0  -4   85.57    7.09
   2   0   4   80.16    6.16
  -2   0  -4   92.27    7.54
  -2   0  -5    5.09    2.28
  -2   0  -5    5.92    2.60
  -2   0  -5    5.16    2.33
  -2   0  -5    4.72    2.18
   2   0   5    5.66    1.69
  -2   0  -5    6.64    2.47
  -2   0  -6  114.06   10.50
  -2   0  -6  145.30   11.85
  -2   0  -6  111.89   10.44
  -2   0  -6  153.66   11.89
   2   0   6  159.86   10.36
   2   0   6  196.70   12.16
  -2   0  -6  133.23   11.44
  -2   0  -7   -0.40    1.86
   2   0   7    2.59    3.05
  -2   0  -7   -0.16    2.15
  -2   0  -7   -0.31    2.09
  -2   0  -7   -0.13    1.84
   2   0   7    2.62    2.15
  -2   0  -7    0.46    2.13
   2   0   8   11.30    3.69
  -2   0  -8    9.15    2.86
  -2   0  -8   11.96    2.58
   2   0   8   13.16    2.91
  -2   0  -8    7.98    2.76
   2   0   9    1.22    1.69
   2   0   9    1.54    1.29
  -2   0  -9    1.42    1.50
  -2   0  -9    1.52    1.48
   2   1 -11    4.38    1.78
  -2  -1  11    3.74    1.24
   2   1 -11    2.56    1.17
   2   1 -10    8.67    2.24
  -2  -1  10   11.49    2.55
   2   1 -10    6.72    2.30
  -2  -1   9    6.42    3.77
   2   1  -9   11.44    2.87
  -2  -1   9   12.00    3.12
  -2  -1   8    7.66    2.76
   2   1  -8   10.27    2.35
  -2  -1   8    8.21    4.11
  -2  -1   8    8.27    2.54
  -2  -1   7   56.09    5.93
  -2  -1   7   47.18    7.13
   2   1  -6  101.77    7.98
  -2  -1   6  135.13    9.25
  -2  -1   6  132.96    9.18
  -2  -1   6  135.02   11.29
   2   1  -5  171.90   11.62
  -2  -1   5  209.85   12.70
  -2  -1   5  218.04   14.55
   2   1  -5  197.67   12.78
  -2  -1   5  208.10   12.70
  -2  -1   5  213.13   12.86
   2   1  -4  121.13    8.01
   2   1  -4  134.16    7.58
   2   1  -4  126.27    8.77
   2   1  -3   95.04    5.76
   2   1  -3  106.87    6.13
   2   1  -3  105.95    6.72
   2   1  -2  228.63   16.17
  -2  -1   2  488.39   17.50
   2   1  -1  128.35    7.48
   2   1  -1  112.23    6.46
   2   1   0   77.52    7.31
  -2  -1   0   91.83    5.43
   2   1   1  109.46    7.67
  -2  -1  -1  133.85    7.91
   2   1   2  315.42   18.06
  -2  -1  -2  300.49   18.65
  -2  -1  -2  327.84   19.12
   2   1   2  329.70   18.19
  -2  -1  -2  290.98   18.42
  -2  -1  -2  328.08   18.93
  -2  -1  -2  324.25   17.32
   2   1   2  295.41   17.99
   2   1   2  310.19   17.98
   2   1   2  330.39   18.12
  -2  -1  -2  321.61   18.87
  -2  -1  -3  159.07   11.03
  -2  -1  -3  158.34   10.94
   2   1   3  140.33   10.00
  -2  -1  -3  184.92   12.11
  -2  -1  -3  175.17   11.63
   2   1   3  148.59   10.25
   2   1   3  166.70   10.92
   2   1   3  147.98   10.21
  -2  -1  -3  172.58   11.47
  -2  -1  -4   51.59    5.65
  -2  -1  -4   55.33    5.66
  -2  -1  -4   62.26    6.60
  -2  -1  -4   58.75    6.26
   2   1   4   54.46    5.21
   2   1   4   52.36    4.58
  -2  -1  -4   67.56    6.43
   2   1   4   58.88    5.78
  -2  -1  -5   17.57    4.13
  -2  -1  -5   16.60    3.74
  -2  -1  -5   14.76    3.20
  -2  -1  -5   16.50    3.37
   2   1   5   15.39    3.39
   2   1   5   14.84    2.84
  -2  -1  -5   16.22    3.59
  -2  -1  -6   31.90    4.80
   2   1   6   39.64    6.30
  -2  -1  -6   48.44    6.64
  -2  -1  -6   36.38    4.84
  -2  -1  -6   50.12    6.34
  -2  -1  -6   35.79    5.52
   2   1   7    5.77    3.21
  -2  -1  -7    7.80    3.32
  -2  -1  -7    5.09    2.09
   2   1   8    5.25    2.34
  -2  -1  -8    7.57    2.80
   2   1   8   10.92    2.49
   2   2 -11    3.21    1.43
  -2  -2  11    3.03    1.34
   2   2 -11    3.65    1.54
  -2  -2  10    2.77    2.71
  -2  -2  10    4.09    1.93
   2   2 -10    4.26    2.18
  -2  -2  10    7.61    2.39
  -2  -2   9    1.12    3.00
  -2  -2   9   -0.49    1.86
   2   2  -9   -0.11    1.53
  -2  -2   9   -0.13    1.93
  -2  -2   8   35.21    6.27
  -2  -2   8   35.02    4.64
  -2  -2   8   37.14    5.01
  -2  -2   7   62.71    6.13
  -2  -2   7   66.87    6.40
  -2  -2   7   56.12    7.53
  -2  -2   6    0.18    1.31
  -2  -2   6   -0.81    2.12
  -2  -2   6    1.37    1.38
   2   2  -5   16.80    1.99
  -2  -2   5   17.80    2.55
  -2  -2   5   16.14    2.49
  -2  -2   5   15.34    2.64
   2   2  -4  280.04   15.05
  -2  -2   4  197.85   14.96
  -2  -2   4  226.21   15.38
   2   2  -4  254.97   15.46
   2   2  -4  296.23   15.30
   2   2  -4  272.78   13.97
   2   2  -3  610.29    9.37
   2   2  -3  566.23    7.40
   2   2  -2   72.70    4.93
   2   2  -2   64.90    4.07
   2   2  -1   19.77    1.76
  -2  -2   1   20.70    1.84
  -2  -2   0  174.44   11.81
   2   2   0  243.64   11.78
  -2  -2   0  185.94   11.46
  -2  -2   0  231.45   10.86
  -2  -2  -1  342.66   18.07
  -2  -2  -1  312.01   18.60
   2   2   1  308.25   18.20
  -2  -2  -1  278.32   18.00
  -2  -2  -1  316.31   19.27
   2   2   1  304.49   17.95
   2   2   1  314.09   18.00
  -2  -2  -1  317.34   18.74
   2   2   2  247.73   15.49
  -2  -2  -2  278.62   16.64
  -2  -2  -2  280.89   17.06
  -2  -2  -2  304.25   17.20
  -2  -2  -2  298.17   18.10
   2   2   2  265.58   16.32
   2   2   2  285.65   16.69
  -2  -2  -2  238.72   15.84
  -2  -2  -2  267.96   17.18
   2   2   3    3.83    1.31
  -2  -2  -3    3.96    2.00
  -2  -2  -3    7.05    2.37
  -2  -2  -3    8.15    2.93
   2   2   3    3.47    1.80
   2   2   3    3.57    1.58
   2   2   3    4.14    1.50
  -2  -2  -4   24.54    4.08
  -2  -2  -4   29.23    4.36
   2   2   4   25.48    4.54
  -2  -2  -4   29.28    5.27
   2   2   4   32.82    4.40
   2   2   4   28.51    3.42
   2   2   4   31.76    4.11
  -2  -2  -5   47.08    5.62
  -2  -2  -5   47.00    5.71
   2   2   5   51.76    6.45
  -2  -2  -5   51.04    6.99
   2   2   5   53.24    5.53
   2   2   5   52.49    6.08
   2   2   5   50.69    4.58
  -2  -2  -6   51.47    5.58
   2   2   6   45.80    6.12
  -2  -2  -6   68.27    7.78
   2   2   6   65.83    6.74
  -2  -2  -7   21.38    4.31
   2   2   7   25.91    3.85
  -2  -2  -7   23.73    3.92
  -2  -2  -8    2.86    1.80
  -2  -2  -8    5.03    1.64
  -2  -3  11   14.29    2.42
   2   3 -11   17.24    2.65
  -2  -3  11   18.11    2.48
  -2  -3  10   10.41    2.57
   2   3 -10    6.96    2.17
  -2  -3  10   13.79    2.89
  -2  -3   9   19.50    3.58
  -2  -3   9   19.10    4.54
  -2  -3   9   27.43    4.26
  -2  -3   8   26.16    4.20
  -2  -3   8   33.82    5.70
  -2  -3   8   33.09    4.68
  -2  -3   8   32.86    4.40
  -2  -3   7  172.78   12.30
  -2  -3   7  175.56   12.23
  -2  -3   6  136.98   10.24
  -2  -3   6  161.67   10.65
  -2  -3   5    5.30    1.51
  -2  -3   5    7.42    1.79
  -2  -3   5    6.39    2.06
  -2  -3   5    8.09    1.65
  -2  -3   5    4.54    1.75
   2   3  -5    6.07    1.67
   2   3  -5    7.52    1.74
   2   3  -4   19.13    2.65
  -2  -3   4   13.85    2.20
  -2  -3   4   12.04    2.18
  -2  -3   4   11.49    2.45
   2   3  -4   15.45    1.98
  -2  -3   4   14.33    2.06
   2   3  -4   17.69    2.67
  -2  -3   4   13.53    2.61
   2   3  -4   16.00    1.77
   2   3  -3  511.35   28.73
  -2  -3   3  546.73   29.96
   2   3  -3  608.90   29.62
  -2  -3   3  506.91   30.12
   2   3  -3  558.24   28.74
  -2  -3   3  505.52   30.29
  -2  -3   2  428.02   26.85
  -2  -3   2  448.86   27.25
  -2  -3   2  452.35   27.28
  -2  -3   2  477.86   26.90
   2   3  -1   17.95    2.09
  -2  -3   1   23.16    3.30
  -2  -3   1   26.35    2.91
  -2  -3   1   26.51    3.33
  -2  -3   1   29.42    3.31
   2   3  -1   23.74    2.69
  -2  -3   1   23.28    3.34
   2   3  -1   27.35    3.07
  -2  -3   0   89.92    7.18
  -2  -3   0   90.64    7.47
   2   3   0   91.65    6.89
  -2  -3   0   89.86    6.38
   2   3   0   64.55    5.68
  -2  -3   0   84.27    6.93
  -2  -3   0   90.89    7.26
   2   3   0   94.77    6.73
  -2  -3   0   97.87    6.56
   2   3   0   93.56    6.69
   2   3   1  227.58   14.33
  -2  -3  -1  220.98   13.90
  -2  -3  -1  256.49   16.09
  -2  -3  -1  216.22   14.68
   2   3   1  244.12   14.92
   2   3   1  243.45   14.82
   2   3   1  241.07   14.89
   2   3   1  250.68   14.86
  -2  -3  -2   68.37    7.83
  -2  -3  -2   56.03    5.50
  -2  -3  -2   65.04    7.01
   2   3   2   72.00    6.43
   2   3   2   77.00    6.17
   2   3   2   72.82    6.37
   2   3   2   70.98    5.76
   2   3   3   36.31    4.22
  -2  -3  -3   36.82    5.24
  -2  -3  -3   39.85    6.31
   2   3   3   27.87    4.17
   2   3   3   30.92    4.44
   2   3   3   32.35    3.94
   2   3   3   29.70    3.51
  -2  -3  -4    3.88    2.44
   2   3   4    2.85    2.19
  -2  -3  -4    3.43    3.54
   2   3   4    4.76    1.78
  -2  -3  -4    1.61    2.34
  -2  -3  -5   19.75    3.42
  -2  -3  -5   15.85    3.41
  -2  -3  -5   24.51    5.16
   2   3   5   19.11    3.78
   2   3   5   19.46    2.71
  -2  -3  -5   18.32    3.95
  -2  -3  -6   31.27    5.21
   2   3   6   29.58    4.15
  -2  -3  -6   32.17    4.51
  -2  -3  -7    0.33    1.77
   2   3   7   -0.14    1.26
  -2  -4  11    1.82    1.26
   2   4 -11    1.14    1.39
   2   4 -11    1.84    1.09
  -2  -4  11    2.00    1.13
  -2  -4  10   21.19    3.28
   2   4 -10   25.81    3.58
  -2  -4  10   23.99    3.48
   2   4  -9    7.57    2.23
  -2  -4   9    6.69    2.62
  -2  -4   9    6.79    2.43
  -2  -4   9    7.75    2.74
   2   4  -8   16.00    2.95
  -2  -4   8   12.43    3.09
  -2  -4   8   13.89    3.07
  -2  -4   8   14.18    3.38
  -2  -4   7  277.93   18.96
  -2  -4   7  298.48   19.10
   2   4  -7  331.32   18.72
  -2  -4   6  238.43   14.39
  -2  -4   6  237.50   14.75
  -2  -4   6  210.96   15.30
   2   4  -6  213.49   14.08
  -2  -4   5   36.43    4.03
  -2  -4   5   30.00    3.76
  -2  -4   5   33.64    4.42
  -2  -4   5   27.14    4.08
   2   4  -4   11.85    2.07
   2   4  -4   14.16    2.52
  -2  -4   4    7.28    2.14
  -2  -4   4   11.40    2.43
  -2  -4   4   11.42    2.86
   2   4  -3   27.43    3.37
   2   4  -3   28.53    3.84
  -2  -4   3   31.74    4.09
   2   4  -3   29.02    3.20
   2   4  -2  385.60   22.61
  -2  -4   2  385.29   22.78
   2   4  -2  392.22   22.64
   2   4  -1   59.48    5.27
  -2  -4   1   47.77    5.38
  -2  -4   1   44.24    5.74
  -2  -4   1   53.68    5.19
   2   4  -1   53.39    4.80
  -2  -4   1   48.35    5.50
   2   4  -1   64.86    5.58
  -2  -4   0   11.43    2.87
  -2  -4   0   13.64    3.46
  -2  -4   0   13.72    3.87
   2   4   0   16.06    2.80
  -2  -4   0   12.80    2.82
  -2  -4   0   13.13    2.47
  -2  -4   0   12.50    3.36
   2   4   0   14.08    2.77
   2   4   0   16.75    2.89
   2   4   1    0.66    1.51
  -2  -4  -1    0.14    1.75
  -2  -4  -1    1.23    2.10
   2   4   1    0.52    1.86
   2   4   1    0.41    1.41
  -2  -4  -1    6.46    2.14
  -2  -4  -1    0.16    1.14
   2   4   1    1.39    1.55
  -2  -4  -2   37.94    5.28
  -2  -4  -2   43.49    6.39
   2   4   2   47.13    5.36
   2   4   2   51.14    5.36
   2   4   2   48.10    4.92
   2   4   2   53.89    5.77
  -2  -4  -3    9.40    2.78
   2   4   3   10.61    2.71
  -2  -4  -3    9.86    3.62
   2   4   3    6.86    2.62
   2   4   3   10.03    2.56
  -2  -4  -3   10.48    3.46
  -2  -4  -4    8.49    2.47
  -2  -4  -4    7.64    3.11
   2   4   4    7.86    2.82
   2   4   4    9.86    2.31
   2   4   5    0.10    1.58
   2   4   6   14.21    2.34
  -2  -4  -6   21.57    3.12
   2   5 -11    8.15    1.57
  -2  -5  11    9.90    1.60
  -2  -5  11    8.52    1.51
  -2  -5  10   15.60    2.58
   2   5 -10   13.31    2.23
  -2  -5  10   17.47    2.83
  -2  -5   9   59.75    5.72
   2   5  -9   54.40    5.27
  -2  -5   9   52.12    5.65
  -2  -5   9   59.89    6.07
  -2  -5   8   24.07    3.63
  -2  -5   8   14.34    3.23
   2   5  -8   17.99    3.37
  -2  -5   8   18.42    3.74
  -2  -5   7  267.75   16.14
  -2  -5   7  234.86   16.13
   2   5  -7  284.70   16.27
  -2  -5   6   10.45    2.58
   2   5  -6    5.69    2.09
  -2  -5   6    5.96    2.84
   2   5  -6    2.93    1.86
  -2  -5   5  108.32    8.54
  -2  -5   5   98.33    8.40
   2   5  -5   97.28    8.13
  -2  -5   5   85.16    8.72
   2   5  -4   34.08    4.70
  -2  -5   4   35.19    5.28
  -2  -5   4   37.14    4.92
  -2  -5   4   41.79    4.99
  -2  -5   4   31.75    4.83
   2   5  -4   33.71    4.14
   2   5  -3  221.76   14.42
  -2  -5   3  196.35   14.07
   2   5  -3  187.33   12.55
  -2  -5   3  170.83   13.58
   2   5  -3  186.46   12.94
  -2  -5   2  465.56   27.43
  -2  -5   2  453.35   28.18
   2   5  -2  447.53   26.91
   2   5  -2  518.43   28.83
  -2  -5   2  440.73   28.12
   2   5  -2  450.04   27.12
  -2  -5   1   27.07    5.39
  -2  -5   1   31.70    4.18
  -2  -5   1   30.49    4.69
   2   5  -1   38.04    4.64
  -2  -5   1   32.73    5.28
   2   5  -1   31.92    4.36
   2   5   0   57.38    6.78
  -2  -5   0   55.16    6.50
  -2  -5   0   59.33    6.31
   2   5   0   56.19    5.62
   2   5   0   59.24    6.19
  -2  -5   0   64.01    7.75
   2   5   0   55.23    5.83
  -2  -5   0   54.21    7.67
  -2  -5  -1   19.02    3.90
   2   5   1   22.74    4.21
  -2  -5  -1   15.71    4.70
  -2  -5  -1   19.97    3.41
   2   5   1   16.24    2.75
  -2  -5  -1   21.69    5.75
  -2  -5  -1   22.27    4.88
  -2  -5  -2   30.64    4.56
  -2  -5  -2   28.80    5.69
   2   5   2   35.16    4.94
   2   5   2   26.19    3.89
   2   5   2   36.60    4.58
  -2  -5  -2   39.91    6.17
  -2  -5  -2   32.72    6.66
  -2  -5  -3   10.39    2.49
   2   5   3   13.82    2.88
  -2  -5  -3   12.66    3.72
  -2  -5  -3   12.86    4.46
   2   5   3    7.84    2.35
   2   5   3   11.84    2.65
  -2  -5  -3   14.84    3.91
  -2  -5  -4    9.03    2.78
  -2  -5  -4   11.35    3.82
  -2  -5  -4   15.82    3.36
  -2  -5  -5   12.39    2.32
   2   6 -10    2.95    1.22
  -2  -6  10    2.86    1.37
  -2  -6   9    2.41    1.83
   2   6  -9    1.70    1.61
  -2  -6   9    2.90    1.83
  -2  -6   8   26.67    3.93
   2   6  -8   27.18    4.03
   2   6  -8   20.88    3.19
  -2  -6   8   18.54    3.55
   2   6  -7  172.00   11.95
   2   6  -7  148.28   10.52
  -2  -6   7  140.55   11.33
   2   6  -7  162.37   11.24
   2   6  -7  122.53   10.03
  -2  -6   6   54.84    6.92
   2   6  -6   74.38    6.88
   2   6  -6   72.86    7.06
   2   6  -6   60.49    6.24
   2   6  -5    6.75    2.62
   2   6  -5    9.88    2.98
  -2  -6   5    4.37    3.09
  -2  -6   5    3.67    2.65
   2   6  -4   75.98    7.97
  -2  -6   4   68.95    8.20
   2   6  -4   76.70    7.57
  -2  -6   4   65.88    7.56
   2   6  -3  157.25   12.61
   2   6  -3  128.65   10.14
  -2  -6   3  148.64   12.11
   2   6  -3  147.98   11.03
   2   6  -2  119.40   10.94
  -2  -6   2  114.85   10.47
   2   6  -2  118.90    9.76
   2   6  -2  108.46    9.20
  -2  -6   2  113.68   10.57
  -2  -6   1   13.54    3.49
  -2  -6   1   11.04    3.71
   2   6  -1   11.27    2.90
   2   6  -1   13.51    3.03
   2   6   0    7.91    2.40
   2   6   0    8.05    3.51
  -2  -6   0   12.75    3.98
   2   6   0    5.42    2.54
   2   6   1   56.05    6.59
  -2  -6  -1   64.99    7.46
   2   6   2   23.46    3.92
   2   6   2   24.61    3.49
  -2  -6  -2   25.57    4.42
  -2  -6  -3    0.61    1.60
  -2  -7  10   14.83    1.80
  -2  -7   9    3.06    1.49
   2   7  -9    1.66    1.40
  -2  -7   9    2.70    1.44
  -2  -7   8    7.99    2.19
   2   7  -8    9.95    2.50
   2   7  -8    8.27    2.07
  -2  -7   8    6.86    2.23
  -2  -7   7   22.12    3.60
  -2  -7   7   20.10    3.74
   2   7  -7   31.41    4.08
   2   7  -7   24.33    3.35
   2   7  -6   23.68    4.16
  -2  -7   6   16.39    3.97
   2   7  -6   19.38    3.48
   2   7  -6   21.43    3.89
   2   7  -6   20.91    3.54
   2   7  -5   14.28    3.52
  -2  -7   5   19.74    4.32
   2   7  -5   18.95    3.78
   2   7  -5   20.98    3.96
   2   7  -4    5.01    3.16
   2   7  -4    3.94    2.34
  -2  -7   4   13.51    5.07
   2   7  -4    5.60    2.95
  -2  -7   4   10.23    3.70
   2   7  -3   19.28    3.24
   2   7  -3   19.34    4.59
  -2  -7   3   28.82    5.76
   2   7  -3   17.36    3.78
   2   7  -3   17.89    3.71
  -2  -7   3   26.90    4.67
   2   7  -2  145.11   12.40
   2   7  -2  135.52   10.63
   2   7  -2  136.40   10.36
  -2  -7   2  151.87   11.91
   2   7  -1    4.52    2.00
   2   7  -1    9.09    2.16
   2   7  -1    6.80    2.21
   2   7   0    8.95    3.19
  -2  -7   0   11.67    3.04
   2   7   1   29.68    4.23
  -2  -7  -1   33.06    4.10
  -2  -7  -2   15.89    2.13
   2   7   2    0.78    2.06
  -2  -8   8    0.76    0.98
   2   8  -8    1.23    1.28
  -2  -8   8    0.59    1.13
  -2  -8   7    1.53    1.30
   2   8  -7    1.29    1.57
   2   8  -7    0.85    1.43
  -2  -8   7    0.96    1.47
   2   8  -7    0.76    1.21
   2   8  -6    6.24    2.24
  -2  -8   6    3.83    1.63
   2   8  -6    3.83    1.94
   2   8  -6    4.06    1.79
   2   8  -5   14.13    2.98
   2   8  -5    9.30    2.35
  -2  -8   5   19.08    3.80
   2   8  -5   12.44    2.82
   2   8  -5   11.84    2.72
   2   8  -4   10.84    2.16
  -2  -8   4   14.12    3.50
   2   8  -4    9.03    3.11
   2   8  -4   14.91    2.85
   2   8  -4   13.72    2.90
   2   8  -3   12.67    3.56
  -2  -8   3   17.75    3.91
   2   8  -3   14.80    2.58
  -2  -8   3   16.25    3.04
   2   8  -2    3.65    2.41
   2   8  -2    3.73    1.35
  -2  -8   2    6.57    2.20
  -2  -8   1   18.06    2.52
   2   8  -1   -0.64    2.12
   2   8   0    2.14    1.54
  -2  -8   0    4.00    1.76
   2   8   0    0.34    1.61
   3  -9  -1    2.30    1.22
  -3   9   1    1.99    1.90
   3  -9   0   21.66    2.96
   3  -9   0   20.50    2.59
   3  -9   1  102.86    6.73
  -3   9  -1   46.39    5.06
   3  -9   1   94.20    6.00
  -3   9  -1   39.36    5.67
   3  -9   2   21.60    3.22
  -3   9  -2   12.09    2.67
   3  -9   3    3.29    1.77
  -3   9  -3    0.96    1.49
   3  -9   4    4.11    1.76
   3  -9   4    5.23    1.52
  -3   9  -4    2.58    1.66
  -3   9  -4    7.21    2.16
   3  -9   5   33.32    3.37
   3  -9   5   33.11    3.05
   3  -9   6   11.04    1.81
   3  -9   6   12.00    1.69
  -3   8   3   51.99    5.52
   3  -8  -1   24.33    3.92
   3  -8  -1   20.78    2.59
  -3   8   1   20.45    5.01
  -3   8   0   27.42    5.99
   3  -8   0   23.93    4.21
   3  -8   0   32.96    3.82
   3  -8   1   58.13    6.15
  -3   8  -1   51.08    5.03
  -3   8  -1   42.85    6.94
   3  -8   2   14.37    3.26
  -3   8  -2    6.53    2.50
  -3   8  -2    5.37    3.28
   3  -8   3    9.01    2.62
   3  -8   3    7.18    1.81
  -3   8  -3   11.12    2.99
  -3   8  -4    4.63    2.56
   3  -8   5   38.02    4.24
  -3   8  -5   33.12    4.75
  -3   8  -6   18.78    2.51
  -3   8  -6   10.92    2.23
   3  -8   7   12.75    2.14
  -3   8  -7    9.83    1.85
   3  -7  -5    1.34    1.35
   3  -7  -5    4.18    1.59
  -3   7   5   -0.07    1.26
   3  -7  -4    1.69    2.10
   3  -7  -4    1.43    1.86
   3  -7  -4    0.97    1.84
  -3   7   4    1.55    2.35
   3  -7  -3   13.62    3.54
   3  -7  -3   24.71    4.18
  -3   7   3   22.70    4.97
   3  -7  -3   26.69    3.16
  -3   7   2   19.18    4.77
   3  -7  -2   26.58    4.58
   3  -7  -2   38.28    5.14
  -3   7   2   11.97    2.61
   3  -7  -2   43.46    4.33
   3  -7  -1   37.60    5.53
  -3   7   1   71.91    9.37
   3  -7  -1   63.01    6.80
  -3   7   1   46.94    7.64
   3  -7  -1   69.77    6.19
   3  -7   0   75.04    8.45
   3  -7   0   89.68    8.32
   3  -7   1   31.02    4.98
   3  -7   1   38.53    5.55
  -3   7  -1   30.90    4.37
   3  -7   1   42.25    4.95
  -3   7  -1   39.09    6.91
  -3   7  -2   32.41    7.00
   3  -7   2   34.47    4.97
   3  -7   2   35.44    4.99
  -3   7  -2   35.06    4.98
   3  -7   2   39.23    4.94
  -3   7  -2   31.74    5.84
   3  -7   3   35.61    4.81
   3  -7   3   30.49    4.74
  -3   7  -3   37.14    5.23
  -3   7  -3   18.97    4.37
  -3   7  -4   19.10    3.15
   3  -7   4   18.40    3.66
   3  -7   4   15.89    2.68
  -3   7  -4   17.84    4.19
  -3   7  -5   26.58    3.93
   3  -7   5   30.55    4.37
   3  -7   5   21.34    2.89
  -3   7  -5   28.86    4.89
   3  -7   6    9.28    2.72
  -3   7  -6   10.67    2.71
   3  -7   6    9.98    2.63
  -3   7  -7   20.91    3.36
  -3   7  -8   16.41    2.61
   3  -7   8   17.39    2.45
   3  -6  -6    0.41    1.49
   3  -6  -6    1.47    1.71
   3  -6  -6    2.02    1.60
  -3   6   5    0.75    2.99
   3  -6  -5    3.63    2.39
   3  -6  -5    5.05    2.76
  -3   6   5    3.01    2.46
  -3   6   4    2.74    3.50
   3  -6  -4    7.06    2.96
  -3   6   4    4.38    3.15
   3  -6  -3  156.59   11.01
  -3   6   3   86.09    9.59
   3  -6  -3  110.17    9.89
  -3   6   3  145.40   12.48
  -3   6   3   65.58    9.29
   3  -6  -2  107.73    9.74
   3  -6  -2  143.67   10.74
   3  -6  -2  139.91   11.46
  -3   6   2   91.14   10.72
  -3   6   2  161.96   13.71
  -3   6   2   69.34    9.52
  -3   6   1    0.18    3.09
  -3   6   1   -0.24    3.19
   3  -6  -1    0.55    1.90
   3  -6  -1    1.54    2.57
   3  -6  -1    1.24    2.18
  -3   6   1    2.15    1.27
  -3   6   1    1.66    3.88
   3  -6   0   21.97    3.92
   3  -6   0   27.06    4.82
  -3   6   0   21.06    2.92
  -3   6   0   36.06    4.66
   3  -6   0   25.47    3.91
   3  -6   1  119.22    9.92
  -3   6  -1  139.50    8.92
  -3   6  -1  114.16    9.70
  -3   6  -1  133.85   12.48
   3  -6   1  131.26    9.87
   3  -6   2    5.06    2.07
  -3   6  -2    6.79    4.10
   3  -6   2    5.64    2.54
   3  -6   2    3.44    2.37
  -3   6  -2    7.12    2.80
  -3   6  -2    7.01    3.63
  -3   6  -3   21.79    3.53
   3  -6   3   27.68    4.31
   3  -6   3   28.54    4.30
  -3   6  -3   33.08    4.98
   3  -6   3   32.21    4.28
  -3   6  -3   27.03    4.84
  -3   6  -4   64.13    6.62
   3  -6   4   71.06    6.54
   3  -6   4   66.10    6.81
   3  -6   4   66.40    6.13
  -3   6  -4   77.92    7.94
  -3   6  -5  165.99   10.97
  -3   6  -5  146.63    9.45
   3  -6   5  112.95    9.89
   3  -6   5  103.75    8.89
   3  -6   5   91.15    8.24
  -3   6  -6   53.78    6.24
   3  -6   6   53.85    6.09
   3  -6   6   55.55    5.93
  -3   6  -6   58.27    5.30
  -3   6  -6   47.99    5.38
  -3   6  -7    1.04    1.76
   3  -6   7    0.21    1.65
  -3   6  -7    0.52    2.15
  -3   6  -8    8.43    2.41
   3  -6   8   10.57    2.22
  -3   6  -8    8.55    2.16
  -3   6  -9   19.37    2.60
   3  -6   9   25.21    2.44
  -3   6  -9   20.19    2.35
   3  -5  -8    3.28    1.24
   3  -5  -7   20.40    3.48
   3  -5  -7   27.03    3.89
  -3   5   6    8.37    3.46
   3  -5  -6   10.12    3.05
  -3   5   6   12.56    2.98
  -3   5   6   15.71    2.12
   3  -5  -5    2.77    2.58
  -3   5   5    1.70    2.42
  -3   5   5    1.22    1.29
  -3   5   5    2.37    2.84
  -3   5   4   18.38    5.29
   3  -5  -4   30.73    4.93
  -3   5   4   23.35    5.46
  -3   5   3   54.19    7.84
  -3   5   3   66.95    7.92
   3  -5  -3   87.33    7.88
  -3   5   3   46.28    5.55
  -3   5   3  110.10    7.01
  -3   5   3   82.15    9.38
  -3   5   2   17.52    4.50
  -3   5   2   11.91    4.26
   3  -5  -2   23.43    3.80
   3  -5  -2   26.82    4.56
  -3   5   2   23.55    3.98
  -3   5   2   25.19    3.16
  -3   5   2   23.18    5.68
  -3   5   1   33.98    6.22
   3  -5  -1   32.76    4.26
   3  -5  -1   42.45    4.88
  -3   5   1   55.01    4.55
   3  -5  -1   45.37    5.51
  -3   5   1   44.94    6.13
  -3   5   0    1.97    3.05
   3  -5   0    3.55    1.96
   3  -5   0    1.94    1.64
  -3   5   0    2.19    1.30
  -3   5   0    1.79    1.69
  -3   5   0    4.41    3.36
  -3   5  -1   64.60    8.57
   3  -5   1   71.20    6.41
  -3   5  -1   79.41    5.89
  -3   5  -1   61.88    6.37
   3  -5   1   77.47    6.50
   3  -5   2   91.32    7.73
   3  -5   2   82.06    7.90
  -3   5  -2  113.42    7.43
  -3   5  -2   92.01    8.22
  -3   5  -2   79.82    9.78
  -3   5  -2  119.29    9.92
  -3   5  -3   10.81    2.59
   3  -5   3    8.99    2.44
   3  -5   3   10.79    2.80
  -3   5  -3   12.85    3.26
  -3   5  -4    6.45    2.48
   3  -5   4    9.14    2.52
   3  -5   4    9.69    2.70
  -3   5  -4    5.61    2.15
   3  -5   4    7.91    2.21
   3  -5   4    9.58    1.93
  -3   5  -4    9.22    3.20
   3  -5   5  223.74   14.50
  -3   5  -5  258.11   16.85
   3  -5   5  267.75   16.59
   3  -5   5  219.91   15.63
  -3   5  -5  246.54   15.95
   3  -5   5  226.79   15.33
  -3   5  -6   59.56    5.81
   3  -5   6   60.37    5.29
  -3   5  -6   60.94    7.00
   3  -5   6   65.90    6.84
   3  -5   6   63.54    6.43
  -3   5  -6   63.36    6.61
  -3   5  -7    4.55    2.68
  -3   5  -7    5.01    2.72
   3  -5   7    3.67    2.19
   3  -5   8    0.73    1.45
  -3   5  -8    1.23    2.17
  -3   5  -8    1.99    1.92
   3  -5   8    1.78    1.20
   3  -5   9    6.54    2.12
   3  -5   9    4.56    1.30
  -3   5  -9    4.23    1.61
   3  -4  -8    2.69    1.95
  -3   4   8    3.42    1.65
  -3   4   8    3.29    1.17
  -3   4   7   13.37    3.79
   3  -4  -7   22.28    4.07
  -3   4   7   22.24    3.87
  -3   4   6   15.45    4.63
   3  -4  -6   30.72    4.95
  -3   4   6   25.42    4.32
  -3   4   6   24.94    3.73
  -3   4   5   19.86    5.02
   3  -4  -5   31.68    4.93
  -3   4   5   26.37    3.88
   3  -4  -4   23.31    4.02
  -3   4   4   22.66    3.44
  -3   4   3    6.21    3.30
   3  -4  -3    6.37    2.22
  -3   4   3    6.77    2.52
  -3   4   3    6.57    3.03
  -3   4   3    4.60    1.75
  -3   4   3    7.33    2.02
  -3   4   3    7.05    3.76
  -3   4   2   34.38    5.67
   3  -4  -2   24.10    3.50
  -3   4   2   46.06    4.09
  -3   4   2   39.91    4.65
  -3   4   2   34.66    5.66
  -3   4   2   38.35    5.52
  -3   4   1   15.59    3.60
  -3   4   1   15.88    4.23
   3  -4  -1   18.06    2.98
  -3   4   1   16.13    2.74
  -3   4   1   17.82    2.46
  -3   4   0   31.73    3.71
  -3   4   0   49.96    6.80
   3  -4   0   44.09    4.55
   3  -4   0   41.98    4.13
  -3   4   0   33.92    3.57
  -3   4   0   48.66    4.62
  -3   4   0   53.64    6.25
   3  -4   1   45.16    4.41
  -3   4  -1   41.89    6.28
  -3   4  -1   56.59    4.35
  -3   4  -1   44.14    4.77
  -3   4  -1   41.03    4.25
  -3   4  -1   55.33    6.26
   3  -4   1   43.47    4.29
  -3   4  -2   63.60    6.04
   3  -4   2   83.50    6.49
  -3   4  -2   82.13    5.96
  -3   4  -2   67.46    6.66
  -3   4  -2   82.91    7.93
   3  -4   2   84.36    6.33
  -3   4  -3  199.05   14.36
   3  -4   3  238.56   14.52
  -3   4  -3  199.42   13.74
  -3   4  -3  238.19   15.35
   3  -4   3  235.16   14.14
   3  -4   4   91.45    6.92
  -3   4  -4   95.96    8.17
   3  -4   4   94.94    7.92
   3  -4   4  100.25    7.94
  -3   4  -4   75.50    6.72
  -3   4  -4   84.06    7.45
  -3   4  -4   72.80    6.95
   3  -4   4   94.17    6.67
   3  -4   4  101.09    7.61
   3  -4   5  333.95   19.29
  -3   4  -5  351.11   21.42
   3  -4   5  328.02   20.52
   3  -4   5  320.84   20.43
  -3   4  -5  328.51   19.98
  -3   4  -5  320.31   20.53
   3  -4   5  327.65   18.93
   3  -4   5  330.78   19.88
  -3   4  -5  266.97   19.00
   3  -4   6   61.05    5.46
   3  -4   6   66.79    6.26
  -3   4  -6   45.42    5.63
  -3   4  -6   50.39    6.10
  -3   4  -6   55.03    6.72
  -3   4  -6   50.81    5.66
  -3   4  -7   44.07    6.07
   3  -4   7   52.64    5.51
  -3   4  -7   51.58    6.04
  -3   4  -7   42.85    5.12
   3  -4   8   16.95    2.82
  -3   4  -8   17.84    3.57
   3  -4   8   16.44    2.71
  -3   4  -8   15.95    2.79
  -3   4  -9    2.46    1.64
   3  -4   9    3.22    2.12
  -3   4  -9    2.47    1.63
   3  -3  -9    9.88    2.49
  -3   3   9    9.40    2.00
   3  -3  -8   12.50    3.34
   3  -3  -8    5.88    2.09
  -3   3   8    7.73    2.50
  -3   3   8    9.53    2.35
  -3   3   7    9.46    3.75
   3  -3  -7   13.42    2.89
  -3   3   7   12.65    2.90
  -3   3   6   10.99    4.18
   3  -3  -6    9.49    2.56
  -3   3   6   13.57    2.96
  -3   3   5   88.11    8.30
  -3   3   5   84.32    6.19
  -3   3   4   56.55    6.59
  -3   3   4   46.16    4.34
  -3   3   3   74.69    6.32
  -3   3   3   78.55    6.12
  -3   3   3   79.58    7.85
  -3   3   3   99.66    6.61
   3  -3  -3   78.77    6.34
  -3   3   2   22.66    4.38
  -3   3   2   30.85    3.58
   3  -3  -2   28.80    3.20
  -3   3   2   16.09    3.97
  -3   3   2   35.22    4.71
  -3   3   1   89.44    8.88
  -3   3   1   95.13    7.04
  -3   3   1  107.91    7.40
  -3   3   1  119.31    7.26
   3  -3  -1   88.28    7.28
  -3   3   1  121.61    9.00
  -3   3   0  233.24   17.10
   3  -3   0  177.38   13.66
  -3   3   0  206.43   13.34
  -3   3   0  201.98   15.14
  -3   3   0  194.59   13.30
   3  -3   1  116.29    7.79
   3  -3   1  127.75    8.43
  -3   3  -1  119.52    7.67
   3  -3   1   83.75    7.84
  -3   3  -1  110.14    7.80
  -3   3  -1  107.88    8.30
  -3   3  -1  117.82    9.53
   3  -3   1  115.28    7.75
   3  -3   2    4.21    1.27
   3  -3   2    3.22    1.32
  -3   3  -2    2.94    1.60
  -3   3  -2    3.19    1.34
   3  -3   2    2.78    1.46
  -3   3  -2    4.25    1.34
   3  -3   2    4.13    1.32
   3  -3   2    0.35    1.16
  -3   3  -2    3.95    1.37
  -3   3  -2    2.79    1.75
   3  -3   2    1.13    1.55
  -3   3  -3   64.85    6.18
   3  -3   3   67.14    6.06
   3  -3   3   69.23    5.71
  -3   3  -3   67.49    5.93
  -3   3  -3   55.28    5.48
   3  -3   3   72.27    5.85
  -3   3  -3   60.37    5.33
  -3   3  -3   70.20    6.51
   3  -3   4   94.66    7.40
  -3   3  -4   99.72    8.61
   3  -3   4  101.83    8.43
   3  -3   4  101.27    7.99
  -3   3  -4   95.79    8.21
   3  -3   4   99.95    7.31
   3  -3   4  102.71    7.92
  -3   3  -4  114.55    7.84
  -3   3  -4   88.86    7.76
   3  -3   5  729.75   39.40
  -3   3  -5  697.09   40.84
  -3   3  -5  681.68   40.18
  -3   3  -5  698.59   40.49
   3  -3   5  744.64   39.78
  -3   3  -5  681.01   40.06
   3  -3   6   16.92    3.05
  -3   3  -6   17.26    4.21
   3  -3   6   19.01    3.34
  -3   3  -6   18.98    3.87
  -3   3  -6   16.75    3.92
  -3   3  -6   16.83    3.51
  -3   3  -7   45.26    5.75
  -3   3  -7   33.20    4.70
   3  -3   7   35.12    4.30
  -3   3  -8   32.13    4.65
   3  -3   8   26.52    3.21
   3  -3   8   32.66    3.97
  -3   3  -8   32.65    4.11
  -3   3  -9    1.17    1.38
   3  -3   9    0.61    1.05
  -3   3  -9    0.50    1.01
   3  -2 -10    0.77    0.93
  -3   2  10    2.11    1.13
   3  -2  -9    1.20    1.63
   3  -2  -9    1.67    1.35
  -3   2   9    2.05    1.60
   3  -2  -8   50.21    5.71
   3  -2  -8   45.58    5.12
  -3   2   8   50.75    5.51
   3  -2  -7   56.12    5.73
  -3   2   7   51.96    5.80
  -3   2   7   44.30    6.58
  -3   2   6   19.35    4.59
  -3   2   6   21.09    3.56
  -3   2   5   30.68    5.10
  -3   2   5   15.66    2.85
  -3   2   4  132.66    8.86
  -3   2   4  126.59    6.81
  -3   2   3   38.87    3.50
  -3   2   3   34.85    3.87
  -3   2   3   48.01    3.96
   3  -2  -3   43.43    3.65
  -3   2   3   43.84    5.14
   3  -2  -2   83.03    5.12
   3  -2  -2   79.24    4.38
   3  -2  -2   71.12    5.90
  -3   2   1   60.52    4.62
   3  -2  -1   57.80    5.07
   3  -2  -1   99.14    6.39
  -3   2   1   93.15    7.08
   3  -2   0  399.73   27.47
  -3   2   0  420.37   26.99
  -3   2  -1 1510.02   77.66
   3  -2   1 1511.30   77.58
  -3   2  -1 1363.07   77.64
   3  -2   1 1591.97   78.49
  -3   2  -2   56.45    5.14
  -3   2  -2   56.65    4.90
  -3   2  -2   47.15    4.59
  -3   2  -2   54.06    4.59
   3  -2   2   58.11    4.29
   3  -2   2   56.62    4.76
   3  -2   2   59.90    4.42
   3  -2   2   49.41    3.38
   3  -2   3    2.68    1.32
  -3   2  -3    3.74    1.82
   3  -2   3    5.50    1.59
  -3   2  -3    2.41    1.50
  -3   2  -3    6.14    1.65
  -3   2  -3    4.24    1.83
  -3   2  -3    2.28    1.26
   3  -2   3    2.32    1.12
   3  -2   3    3.21    1.10
   3  -2   4   36.63    4.06
  -3   2  -4   36.67    4.75
   3  -2   4   33.42    3.74
  -3   2  -4   34.68    4.49
  -3   2  -4   45.03    4.08
  -3   2  -4   39.91    4.84
   3  -2   4   33.61    3.80
   3  -2   4   40.53    4.36
  -3   2  -4   40.80    4.69
   3  -2   5  853.49   41.63
  -3   2  -5  652.47   41.84
  -3   2  -5  709.93   42.26
   3  -2   5  780.45   40.59
   3  -2   5  750.12   40.99
  -3   2  -5  660.06   41.81
   3  -2   6   49.35    4.77
  -3   2  -6   42.72    5.77
   3  -2   6   51.94    4.43
  -3   2  -6   39.03    5.33
  -3   2  -7   16.48    3.94
  -3   2  -7   13.49    2.88
   3  -2   7   21.87    3.81
  -3   2  -7   14.82    3.40
  -3   2  -8    5.12    2.35
   3  -2   8    7.00    3.36
  -3   2  -8    6.24    2.49
   3  -2   8    4.61    1.92
  -3   2  -8    6.25    2.23
  -3   2  -9    9.46    1.95
   3  -2   9    5.83    2.31
   3  -2   9   13.06    1.93
  -3   2  -9   10.54    1.87
   3  -1 -10    6.03    2.03
   3  -1 -10    5.03    1.72
   3  -1  -9    7.10    2.39
  -3   1   9    5.90    2.24
  -3   1   8  104.84    8.91
  -3   1   7  230.62   15.14
  -3   1   7  205.24   15.78
  -3   1   6  118.88    9.52
  -3   1   6  127.39   10.68
  -3   1   5   73.30    6.45
  -3   1   5   75.33    7.46
  -3   1   4  159.43    6.72
  -3   1   4  209.65    7.97
   3  -1  -4  223.64    8.81
   3  -1  -4  197.50    6.25
  -3   1   4  217.01    9.96
   3  -1  -3  873.36   48.98
   3  -1  -3  932.66   49.89
   3  -1  -3  866.03   48.59
  -3   1   2  130.68    7.87
   3  -1  -2  129.96    7.99
  -3   1   1  162.88    8.92
   3  -1  -1  158.84    9.66
   3  -1  -1  201.06    9.97
   3  -1  -1  133.83    8.73
   3  -1  -1  228.69   10.83
  -3   1   0    2.51    0.74
   3  -1   0    2.66    0.96
   3  -1   1  866.37   47.50
  -3   1  -1  911.43   47.13
   3  -1   1  888.10   46.36
   3  -1   1  864.71   47.04
  -3   1  -2  131.43    8.84
   3  -1   2  138.99    8.06
   3  -1   2  142.58    8.77
  -3   1  -2  136.63    7.99
  -3   1  -2  137.41    8.74
   3  -1   2  137.66    7.53
   3  -1   2  145.29    8.19
   3  -1   2  144.84    8.34
  -3   1  -3   68.02    6.34
  -3   1  -3   59.06    5.55
  -3   1  -3   72.21    5.46
  -3   1  -3   73.37    6.48
   3  -1   3   58.32    5.10
   3  -1   3   63.90    5.44
   3  -1   3   67.08    6.16
   3  -1   3   69.67    5.75
  -3   1  -3   73.34    6.19
  -3   1  -4   -0.11    1.45
  -3   1  -4    0.62    1.68
   3  -1   4    0.74    1.11
   3  -1   4    0.90    1.17
   3  -1   4    0.51    0.95
  -3   1  -4   -0.12    1.60
  -3   1  -5  289.86   20.73
  -3   1  -5  301.44   20.41
   3  -1   5  354.86   19.69
  -3   1  -5  288.16   20.32
   3  -1   5  344.52   19.14
  -3   1  -5  329.25   21.11
  -3   1  -6   18.04    3.79
  -3   1  -6   18.50    3.70
  -3   1  -6   17.23    3.47
   3  -1   6   17.74    2.83
   3  -1   6   19.28    3.79
  -3   1  -6   19.79    3.97
  -3   1  -7   15.13    3.58
  -3   1  -7   12.56    3.07
  -3   1  -7   15.64    3.48
   3  -1   7   19.72    3.51
  -3   1  -7   16.52    3.47
  -3   1  -8    4.80    2.05
   3  -1   8    3.79    2.48
   3  -1   8    4.65    1.99
  -3   1  -8    4.28    2.01
   3  -1   9    6.38    1.35
   3   0 -11    4.36    1.55
   3   0 -11    6.65    1.46
   3   0 -10    4.10    2.00
  -3   0   9   10.64    2.86
   3   0  -9    7.64    2.08
  -3   0   8  123.29   10.63
  -3   0   8  149.87   11.18
  -3   0   7   86.95    7.98
  -3   0   7   82.80   10.16
  -3   0   7   98.34    8.13
  -3   0   6    7.06    3.55
  -3   0   6    8.19    2.31
  -3   0   6    6.25    2.03
  -3   0   5  101.97    8.03
   3   0  -5  114.59    8.08
  -3   0   5  102.05    7.93
  -3   0   4  237.67   14.06
  -3   0   4  206.90   13.54
   3   0  -4  240.97   13.83
  -3   0   4  233.71   13.98
   3   0  -4  213.01   12.45
   3   0  -3    0.48    0.69
   3   0  -3    0.31    0.80
   3   0  -2   71.83    5.14
   3   0  -2   89.67    5.57
   3   0  -1  304.67   20.58
   3   0  -1  332.62   20.09
   3   0   0  423.31   25.99
  -3   0   0  614.80   26.35
  -3   0  -1  546.35   25.04
  -3   0  -1  509.03   26.16
   3   0   1  473.97   25.07
   3   0   1  506.22   25.70
  -3   0  -1  549.40   25.60
  -3   0  -1  486.65   25.86
   3   0   1  517.66   25.49
   3   0   1  501.87   25.24
  -3   0  -2   19.30    2.40
   3   0   2   24.13    2.71
  -3   0  -2   20.66    3.15
  -3   0  -2   20.91    2.99
  -3   0  -2   19.98    3.07
   3   0   2   23.51    2.71
   3   0   2   23.52    2.76
  -3   0  -2   21.05    2.96
   3   0   3  210.41   13.02
  -3   0  -3  196.14   13.77
  -3   0  -3  178.65   13.29
   3   0   3  219.81   13.11
   3   0   3  198.78   12.89
   3   0   3  202.49   12.82
  -3   0  -3  198.85   13.73
  -3   0  -4  120.83   10.07
  -3   0  -4  110.99   10.05
  -3   0  -4  116.12    9.99
   3   0   4  138.32    9.41
   3   0   4  128.38    9.09
  -3   0  -4  126.10   10.32
  -3   0  -5  225.09   16.72
  -3   0  -5  224.56   17.16
   3   0   5  292.70   16.31
  -3   0  -5  217.14   16.76
   3   0   5  304.43   17.46
  -3   0  -5  219.76   16.58
  -3   0  -5  239.88   17.20
  -3   0  -6   44.09    5.73
   3   0   6   53.82    5.09
  -3   0  -6   36.79    5.69
  -3   0  -6   41.09    5.55
  -3   0  -6   42.64    5.83
  -3   0  -7   10.64    3.01
   3   0   7   14.95    3.90
  -3   0  -7   13.06    3.02
  -3   0  -7   13.46    3.20
  -3   0  -8   13.08    2.24
   3   0   8    6.76    2.21
   3   0   8   14.55    2.46
  -3   0  -8   11.69    2.41
   3   1 -11    3.70    1.58
  -3  -1  11    4.35    1.41
   3   1 -10    6.82    1.83
   3   1 -10    5.21    1.68
  -3  -1   9   13.34    3.15
  -3  -1   9   19.78    3.74
  -3  -1   8  440.69   28.78
  -3  -1   8  549.45   29.73
  -3  -1   7  118.26    9.49
  -3  -1   7  121.56   11.90
  -3  -1   7  113.76    9.48
  -3  -1   6    1.92    2.61
  -3  -1   6    3.09    1.79
  -3  -1   6    3.28    1.71
  -3  -1   5   75.68    6.08
  -3  -1   5   58.29    5.10
   3   1  -5   71.11    6.09
  -3  -1   5   64.15    5.92
  -3  -1   4  688.14   37.64
  -3  -1   4  674.22   37.65
   3   1  -4  729.48   37.01
  -3  -1   4  671.79   37.82
   3   1  -4  687.80   37.78
   3   1  -3  652.41   34.15
   3   1  -3  674.86   33.94
  -3  -1   2   18.30    2.73
   3   1  -2   18.35    2.26
  -3  -1   1   61.86    5.32
   3   1  -1   55.26    4.96
   3   1  -1  114.30    8.24
  -3  -1   1   97.78    6.54
  -3  -1   0  210.99   13.80
  -3  -1   0  208.81   14.00
  -3  -1   0  203.01   13.14
   3   1   0  218.33   12.92
  -3  -1   0  200.82   13.32
  -3  -1   0  205.08   11.99
   3   1   1  271.42   11.50
  -3  -1  -1  262.20   12.89
  -3  -1  -1  247.45   11.24
  -3  -1  -1  318.78   11.83
  -3  -1  -1  246.60   12.96
   3   1   1  287.64   12.35
  -3  -1  -1  221.37   12.18
   3   1   1  282.29   12.04
   3   1   1  270.36   11.64
  -3  -1  -1  262.27   12.62
  -3  -1  -2    0.55    1.20
   3   1   2    2.00    1.18
  -3  -1  -2    1.66    1.92
   3   1   2    1.47    1.08
   3   1   2    1.62    1.20
  -3  -1  -2    2.03    1.74
  -3  -1  -3   26.73    4.29
  -3  -1  -3   34.33    5.10
  -3  -1  -3   29.26    4.34
   3   1   3   30.35    3.83
   3   1   3   31.83    4.01
   3   1   3   34.17    3.90
  -3  -1  -3   32.05    4.62
  -3  -1  -4   80.42    8.17
  -3  -1  -4   94.95    9.45
   3   1   4   97.95    7.83
   3   1   4   88.86    7.89
   3   1   4   88.51    7.50
   3   1   4   87.15    6.93
  -3  -1  -4   92.81    8.86
  -3  -1  -5  134.13   11.37
   3   1   5  140.27   12.22
  -3  -1  -5  137.78   12.56
   3   1   5  147.98   11.56
   3   1   5  167.51   11.31
  -3  -1  -5  152.64   12.30
  -3  -1  -6   15.02    3.37
   3   1   6    9.30    3.16
  -3  -1  -6   13.24    3.82
   3   1   6    9.83    2.94
  -3  -1  -6   13.74    3.49
  -3  -1  -7    9.91    2.92
   3   1   7   10.53    2.48
  -3  -1  -7    8.78    2.56
   3   1   8    5.17    1.35
   3   2 -11   14.99    2.05
  -3  -2  11   19.35    2.55
  -3  -2  10   10.64    2.59
  -3  -2   9    0.72    1.74
  -3  -2   8  185.59   16.10
  -3  -2   8  422.50   19.51
  -3  -2   7  224.01   14.90
  -3  -2   7  214.88   14.63
  -3  -2   7  225.40   15.10
  -3  -2   6   12.23    2.48
  -3  -2   6   12.86    2.01
  -3  -2   6   11.13    2.44
  -3  -2   6   13.00    2.69
  -3  -2   5   42.68    4.32
  -3  -2   5   55.80    4.74
  -3  -2   5   46.17    4.31
   3   2  -5   42.94    4.15
  -3  -2   5   50.08    5.06
   3   2  -4   58.62    4.54
  -3  -2   4   67.08    5.35
  -3  -2   4   69.23    5.46
   3   2  -4   61.07    4.55
  -3  -2   4   65.69    5.05
  -3  -2   4   65.08    5.40
  -3  -2   4   68.23    5.68
   3   2  -4   44.26    4.78
  -3  -2   3   41.27    3.96
  -3  -2   3   49.08    4.38
   3   2  -3   46.17    3.92
  -3  -2   3   46.90    4.49
   3   2  -3   44.02    3.10
  -3  -2   3   38.89    4.13
  -3  -2   3   32.01    3.75
  -3  -2   2   83.84    6.80
   3   2  -2  110.09    7.13
  -3  -2   2   88.46    7.34
  -3  -2   2   94.31    7.03
  -3  -2   2   87.01    7.03
  -3  -2   2  104.52    7.45
  -3  -2   1   46.58    4.39
   3   2  -1   51.51    4.57
  -3  -2   1   44.11    4.80
   3   2  -1   47.30    4.13
  -3  -2   1   39.67    4.54
  -3  -2   0   44.02    4.95
  -3  -2   0   40.73    5.46
  -3  -2   0   50.27    4.48
  -3  -2   0   38.50    4.71
   3   2   0   53.82    4.57
   3   2   0   59.37    4.38
  -3  -2   0   41.36    4.96
  -3  -2  -1   33.12    5.18
  -3  -2  -1   32.05    3.44
  -3  -2  -1   34.78    4.27
   3   2   1   43.10    4.30
   3   2   1   43.01    4.14
   3   2   1   43.58    4.37
  -3  -2  -1   38.80    4.88
   3   2   2   71.41    5.89
  -3  -2  -2   72.18    7.09
  -3  -2  -2   79.29    8.48
  -3  -2  -2   64.25    6.24
   3   2   2   79.66    6.65
   3   2   2   76.03    6.42
  -3  -2  -2   69.95    7.33
  -3  -2  -3   41.43    5.55
  -3  -2  -3   52.38    7.22
   3   2   3   45.78    5.24
   3   2   3   52.68    5.45
   3   2   3   47.42    4.88
  -3  -2  -3   49.86    6.33
   3   2   3   44.24    4.32
  -3  -2  -4    0.58    1.75
  -3  -2  -4    3.61    3.44
   3   2   4    1.80    2.09
   3   2   4    0.13    1.85
   3   2   4    0.37    1.32
  -3  -2  -4    1.51    2.37
  -3  -2  -5   23.64    4.06
  -3  -2  -5   29.23    5.69
   3   2   5   33.35    4.51
   3   2   5   28.36    3.23
  -3  -2  -5   28.95    4.92
  -3  -2  -6   10.26    2.43
  -3  -2  -6    9.07    3.43
   3   2   6   12.47    2.68
  -3  -2  -6   15.69    3.25
  -3  -2  -7    3.13    1.91
   3   2   7    5.31    1.51
   3   3 -11   11.67    2.07
  -3  -3  11   12.42    2.20
  -3  -3  10   21.91    3.26
   3   3 -10   18.74    2.64
  -3  -3   9    5.59    2.21
  -3  -3   8  250.86   17.14
  -3  -3   8  250.96   17.03
  -3  -3   8  305.07   18.38
  -3  -3   7   15.63    3.08
  -3  -3   7   17.90    3.22
  -3  -3   7   18.93    3.47
  -3  -3   6  164.26   11.83
  -3  -3   6  198.88   11.92
  -3  -3   6  164.47   12.22
  -3  -3   5   65.86    5.79
  -3  -3   5   81.65    6.37
  -3  -3   5   65.74    5.96
  -3  -3   5   66.88    6.20
  -3  -3   5   70.21    6.63
  -3  -3   4   56.88    5.21
  -3  -3   4   54.18    5.31
  -3  -3   4   52.04    5.15
  -3  -3   4   47.60    5.20
  -3  -3   3  107.67    6.67
   3   3  -3  123.86    6.47
  -3  -3   3  109.09    7.01
  -3  -3   2   48.25    5.09
  -3  -3   2   55.24    5.08
   3   3  -2   50.33    4.46
  -3  -3   2   49.62    5.34
  -3  -3   1   34.23    4.29
  -3  -3   1   33.37    4.41
  -3  -3   1   33.47    3.78
   3   3  -1   25.80    3.31
   3   3  -1   29.49    3.34
  -3  -3   1   32.39    4.52
  -3  -3   0    0.13    1.68
  -3  -3   0    0.87    2.54
  -3  -3   0    0.48    1.68
   3   3   0    2.24    1.48
  -3  -3   0    1.35    1.39
   3   3   0    1.13    1.26
   3   3   1   11.48    2.38
  -3  -3  -1    9.20    2.94
  -3  -3  -1   11.60    3.96
  -3  -3  -1    8.32    2.46
   3   3   1    8.72    2.31
   3   3   1   10.25    2.45
  -3  -3  -2   90.79   10.30
  -3  -3  -2   83.42    7.22
   3   3   2   84.53    7.53
   3   3   2   77.65    7.11
   3   3   2   87.01    7.36
  -3  -3  -2   94.87    9.05
   3   3   2   78.45    6.77
   3   3   3   56.31    5.66
  -3  -3  -3   58.81    8.31
   3   3   3   49.73    5.66
   3   3   3   46.42    5.35
   3   3   3   53.88    5.45
  -3  -3  -3   51.29    6.80
  -3  -3  -4   25.51    4.12
  -3  -3  -4   24.22    5.82
   3   3   4   24.32    3.85
   3   3   4   29.01    3.62
  -3  -3  -4   33.25    5.24
  -3  -3  -5   15.43    2.92
  -3  -3  -5   18.23    4.53
   3   3   5   23.54    3.34
   3   3   5   17.76    2.29
  -3  -3  -6   -0.66    2.02
   3   3   6    0.98    1.10
  -3  -4  11    0.56    1.06
  -3  -4  10    1.92    1.54
  -3  -4   9    8.21    2.33
  -3  -4   8   80.25    7.03
  -3  -4   8   72.36    7.04
  -3  -4   8   83.43    7.76
  -3  -4   7   33.90    4.50
  -3  -4   7   40.26    4.34
  -3  -4   7   36.15    4.91
  -3  -4   6    6.97    2.19
  -3  -4   6    5.93    2.04
  -3  -4   6    7.06    2.31
  -3  -4   6    7.03    2.40
  -3  -4   6    6.48    2.37
  -3  -4   5  134.34    9.61
  -3  -4   5  100.74    9.09
  -3  -4   5  110.49    9.47
  -3  -4   5  124.66   10.17
   3   4  -4  118.62    8.80
  -3  -4   4   95.43    8.59
  -3  -4   4  106.22    8.50
  -3  -4   4   88.79    8.40
  -3  -4   3   52.89    5.98
  -3  -4   3   50.20    5.79
   3   4  -3   45.62    4.75
  -3  -4   2   27.35    4.26
  -3  -4   2   31.51    4.11
  -3  -4   2   31.09    4.64
   3   4  -2   27.48    3.41
  -3  -4   2   29.55    4.59
   3   4  -2   26.20    3.72
  -3  -4   1   18.15    3.15
   3   4  -1   20.83    2.97
  -3  -4   1   19.97    3.83
   3   4  -1   20.35    3.16
   3   4  -1   24.97    3.66
  -3  -4   1   19.76    4.27
   3   4   0   72.23    6.77
  -3  -4   0   83.93    8.15
  -3  -4   0   79.16    6.71
  -3  -4   0   68.13    7.30
   3   4   0   62.32    6.38
   3   4   0   82.18    7.21
  -3  -4   0   95.98    9.38
  -3  -4  -1   45.77    6.15
   3   4   1   54.46    6.13
  -3  -4  -1   43.63    6.36
  -3  -4  -1   49.86    8.12
  -3  -4  -1   51.20    5.71
   3   4   1   45.06    5.31
   3   4   1   46.80    5.41
  -3  -4  -1   53.46    7.48
   3   4   1   52.15    5.35
   3   4   2    5.36    1.97
  -3  -4  -2    3.54    2.64
   3   4   2    4.09    2.27
  -3  -4  -2    3.07    2.69
  -3  -4  -2    3.75    4.28
   3   4   2    3.46    2.06
  -3  -4  -3    6.50    2.35
   3   4   3    6.58    2.29
  -3  -4  -3    5.62    4.12
   3   4   3    3.92    1.77
   3   4   3    5.56    2.12
  -3  -4  -4   26.33    3.47
  -3  -4  -4   21.74    4.84
   3   4   4   20.92    2.91
   3   4   4   27.54    3.19
  -3  -4  -5   24.43    3.47
  -3  -5  11   11.98    1.75
  -3  -5   9   17.28    2.99
   3   5  -9   19.57    2.92
  -3  -5   8   36.27    4.55
  -3  -5   8   40.35    5.05
   3   5  -8   39.88    4.09
  -3  -5   7   28.70    4.19
  -3  -5   7   34.54    4.23
  -3  -5   7   24.45    4.37
  -3  -5   6   21.98    3.56
  -3  -5   6   28.34    4.17
  -3  -5   6   27.21    4.02
  -3  -5   6   21.29    3.78
  -3  -5   6   18.85    3.81
   3   5  -5   16.18    3.37
  -3  -5   5   16.94    3.95
  -3  -5   5   17.52    3.80
  -3  -5   5   18.79    4.09
  -3  -5   5   22.10    4.50
   3   5  -5   17.57    3.27
   3   5  -4  100.38    8.25
  -3  -5   4  104.62    9.44
  -3  -5   4   87.29    8.99
   3   5  -4  113.03    9.27
  -3  -5   4   85.14    8.80
   3   5  -3   25.54    4.50
  -3  -5   3   20.12    3.91
   3   5  -3   23.17    3.50
  -3  -5   3   13.40    3.91
   3   5  -3   24.14    3.76
  -3  -5   2   36.55    4.89
   3   5  -2   35.54    5.37
  -3  -5   2   37.23    5.72
   3   5  -2   29.19    4.22
   3   5  -2   34.78    4.57
  -3  -5   1   43.81    6.08
  -3  -5   1   42.19    5.17
  -3  -5   1   42.78    5.91
   3   5  -1   45.60    5.34
  -3  -5   0  209.42   15.84
   3   5   0  224.90   15.83
  -3  -5   0  218.00   15.33
   3   5   0  201.72   14.02
   3   5   0  227.03   15.07
   3   5   0  223.41   14.82
  -3  -5  -1   11.67    3.24
   3   5   1   18.95    3.75
  -3  -5  -1   12.53    2.74
  -3  -5  -2   17.00    3.20
   3   5   2   17.81    3.38
  -3  -5  -2   17.65    4.19
   3   5   2   15.28    2.93
   3   5   3    0.08    1.20
   3   5   3   -0.15    1.14
  -3  -5  -3    1.26    2.10
  -3  -5  -4   -0.47    1.35
  -3  -6  10    5.22    1.57
  -3  -6   9    2.92    1.61
   3   6  -9    4.00    1.66
  -3  -6   8   12.51    2.55
   3   6  -8   16.82    3.07
   3   6  -8   10.02    2.18
  -3  -6   8   14.73    3.09
  -3  -6   7   38.42    4.63
   3   6  -7   44.77    4.76
  -3  -6   7   37.82    5.02
   3   6  -7   42.31    4.84
  -3  -6   6    9.97    2.58
  -3  -6   6   10.29    3.08
   3   6  -6   11.19    2.94
  -3  -6   6   11.30    3.19
   3   6  -5   12.98    2.57
   3   6  -5   12.28    3.10
  -3  -6   5   15.68    3.69
  -3  -6   5   11.22    3.56
   3   6  -5   16.81    3.64
   3   6  -4   37.09    5.51
  -3  -6   4   37.70    5.76
  -3  -6   4   32.95    5.75
   3   6  -4   30.37    4.34
   3   6  -3  158.20   12.72
  -3  -6   3  140.27   11.63
   3   6  -3  158.85   11.94
   3   6  -3  144.32   10.71
   3   6  -3  158.54   11.47
   3   6  -2   48.80    6.55
  -3  -6   2   48.36    6.29
   3   6  -2   46.38    5.46
   3   6  -2   46.94    5.21
  -3  -6   2   44.96    6.49
   3   6  -2   45.70    5.40
  -3  -6   1    7.62    2.73
   3   6  -1    5.32    2.15
  -3  -6   1    8.20    3.68
   3   6  -1    3.16    2.03
   3   6   0   48.76    5.87
   3   6   0   35.51    3.91
   3   6   0   41.48    4.82
  -3  -6   0   50.70    6.45
   3   6   1    7.25    2.48
  -3  -6  -1    3.81    2.53
   3   6   2    4.65    1.69
  -3  -6  -2    4.95    2.06
   3   7  -9    5.16    1.45
  -3  -7   8   29.94    3.13
   3   7  -8   31.82    3.72
  -3  -7   8   36.24    3.94
   3   7  -8   26.61    3.04
   3   7  -7    9.15    2.03
   3   7  -7    7.91    2.25
  -3  -7   7   11.81    2.66
   3   7  -7    4.93    1.55
   3   7  -6   19.53    3.43
  -3  -7   6   17.86    3.57
   3   7  -6   21.96    3.36
   3   7  -6   18.52    3.40
  -3  -7   6   15.94    3.40
   3   7  -6   16.83    2.84
   3   7  -5   19.12    3.64
  -3  -7   5   24.84    4.40
   3   7  -5   16.21    3.61
  -3  -7   5   24.37    4.38
   3   7  -4   41.02    5.47
   3   7  -4   41.49    4.50
  -3  -7   4   34.30    5.43
   3   7  -4   42.71    5.01
  -3  -7   4   44.18    5.60
   3   7  -3   46.08    5.79
   3   7  -3   38.83    4.04
  -3  -7   3   51.53    6.54
   3   7  -3   46.55    5.07
   3   7  -3   48.83    5.07
  -3  -7   3   55.06    6.16
   3   7  -2   13.15    3.34
  -3  -7   2   15.74    3.94
   3   7  -2   13.54    2.59
   3   7  -2   14.01    2.48
  -3  -7   2   14.79    3.43
  -3  -7   1   51.77    5.73
   3   7   0   82.33    7.15
  -3  -7   0  100.88    7.49
  -3  -7  -1    9.17    2.12
   3   8  -7    7.81    1.68
   3   8  -7    7.58    1.54
  -3  -8   7    8.98    1.81
   3   8  -6    1.31    1.15
   3   8  -6    1.36    1.34
  -3  -8   6    0.98    1.30
   3   8  -6    0.50    1.01
   3   8  -5   93.78    7.14
   3   8  -5  109.83    7.26
   3   8  -4   65.68    6.44
  -3  -8   4  111.75    7.63
  -3  -8   4   91.82    6.80
   3   8  -4   85.42    6.23
   3   8  -4   89.26    6.41
   3   8  -3   31.68    3.79
  -3  -8   3   25.97    3.07
   3   8  -3   29.05    2.71
   3   8  -2    0.07    1.28
  -3  -8   2    0.22    1.22
   3   8  -2    1.11    0.96
   4  -9  -1    4.38    1.20
   4  -9   0   16.74    2.25
   4  -9   0   14.85    2.20
   4  -9   1    1.35    1.24
  -4   9  -1    3.90    1.29
  -4   9  -1    2.51    1.42
   4  -9   2   16.45    2.55
   4  -9   3    5.14    1.61
  -4   9  -3    3.46    1.71
   4  -9   4   20.17    2.31
   4  -9   4   18.48    2.15
  -4   9  -4   20.35    2.49
   4  -9   5    3.01    1.08
   4  -8  -3   18.85    2.48
   4  -8  -3   18.73    2.67
   4  -8  -2    1.59    1.12
   4  -8  -2    2.38    1.60
   4  -8  -2    0.30    1.66
   4  -8  -1   61.84    5.67
   4  -8  -1   65.52    6.02
   4  -8  -1   73.03    5.42
  -4   8   1   66.77    7.53
   4  -8   0   28.37    4.04
   4  -8   0   33.11    4.46
   4  -8   0   37.03    3.99
  -4   8   0   31.99    5.72
   4  -8   1    7.63    2.44
   4  -8   1    6.45    2.53
  -4   8  -1    5.17    2.50
   4  -8   2   10.84    2.32
   4  -8   2   11.89    2.80
   4  -8   2   16.51    3.17
  -4   8  -2   10.68    2.58
   4  -8   3   23.25    3.50
   4  -8   3   23.15    2.95
  -4   8  -3   17.28    3.62
   4  -8   4   39.52    4.31
  -4   8  -4   36.23    4.45
   4  -8   4   34.01    3.40
   4  -8   5   16.23    2.66
   4  -8   5   22.51    2.98
  -4   8  -5   22.45    2.84
   4  -7  -5   11.55    1.91
   4  -7  -4   52.54    5.51
   4  -7  -4   56.46    4.93
   4  -7  -4   59.69    4.43
   4  -7  -3   12.48    2.43
   4  -7  -3   11.45    3.30
   4  -7  -3   11.01    2.78
  -4   7   3    4.57    3.54
   4  -7  -2    2.08    1.79
   4  -7  -2    5.35    2.35
  -4   7   2    1.65    1.56
   4  -7  -1  156.70   11.80
  -4   7   1  119.77   10.93
  -4   7   1  220.50   16.09
   4  -7  -1  185.21   12.00
   4  -7   0  148.39   11.17
   4  -7   0  139.68   11.51
  -4   7   0  168.64   14.51
   4  -7   0  184.31   11.75
   4  -7   1   13.59    3.09
   4  -7   1   11.35    3.06
   4  -7   1   13.90    3.66
  -4   7  -1   11.44    2.88
  -4   7  -1   10.84    4.60
   4  -7   2    3.66    2.18
   4  -7   2    1.95    2.09
   4  -7   2    0.68    2.26
  -4   7  -2    2.58    2.22
   4  -7   3   11.60    2.74
   4  -7   3   16.50    3.30
   4  -7   3   13.95    2.78
  -4   7  -3    9.54    3.24
  -4   7  -3   15.18    3.64
   4  -7   4  164.99   11.54
   4  -7   4  172.85   11.99
  -4   7  -4  151.73   12.11
   4  -7   4  168.34   11.30
  -4   7  -5   28.92    3.77
   4  -7   5   39.37    4.50
  -4   7  -5   26.97    3.78
   4  -7   5   34.88    3.74
  -4   7  -6    2.93    1.59
   4  -7   6    3.82    1.67
  -4   7  -6    3.34    1.34
   4  -7   6    3.43    1.71
  -4   7  -7    3.53    1.45
   4  -7   7    5.97    1.57
   4  -6  -6    8.20    1.60
   4  -6  -6    4.40    1.67
   4  -6  -6    9.72    2.49
   4  -6  -6    9.23    1.93
   4  -6  -5   11.56    2.60
   4  -6  -5   19.60    3.76
   4  -6  -5   18.41    3.08
   4  -6  -4    9.57    2.78
   4  -6  -4   13.35    3.84
   4  -6  -4   14.26    3.19
  -4   6   4   18.74    2.56
  -4   6   4   10.00    3.95
   4  -6  -3   10.52    3.50
   4  -6  -3   11.45    3.00
  -4   6   3   19.14    2.75
  -4   6   3    4.53    1.91
  -4   6   3   10.18    4.74
   4  -6  -2   34.03    5.36
   4  -6  -2   27.96    4.24
  -4   6   2   38.03    3.99
  -4   6   2   17.47    3.56
  -4   6   2   29.11    6.78
   4  -6  -1  191.61   13.59
   4  -6  -1  200.41   12.90
  -4   6   1  188.99   13.23
  -4   6   1  102.57   10.48
  -4   6   1  289.35   18.70
   4  -6  -1  254.51   13.82
  -4   6   0  192.08   11.87
  -4   6   0  200.17   16.27
   4  -6   0  175.97   12.55
   4  -6   1   29.35    4.22
  -4   6  -1   34.44    3.98
  -4   6  -1   26.14    4.30
  -4   6  -1   32.28    6.53
   4  -6   2   50.52    5.51
  -4   6  -2   44.11    5.98
   4  -6   3   25.04    3.83
  -4   6  -3   17.76    4.23
  -4   6  -3   25.36    4.76
   4  -6   3   19.88    3.69
   4  -6   4  180.93   11.39
  -4   6  -4  149.69   11.88
   4  -6   4  177.28   12.56
   4  -6   4  186.55   12.61
  -4   6  -4  151.49   12.56
   4  -6   4  177.46   12.17
   4  -6   5   47.78    4.24
  -4   6  -5   29.66    4.59
   4  -6   5   42.71    4.99
   4  -6   5   49.02    5.33
  -4   6  -5   42.02    4.82
   4  -6   5   48.43    4.93
  -4   6  -6   40.87    5.12
   4  -6   6   50.39    5.12
  -4   6  -6   52.33    4.55
  -4   6  -7    8.05    2.34
  -4   6  -7    7.81    1.84
   4  -6   7   10.71    2.09
  -4   6  -8    3.28    1.30
   4  -6   8    3.27    1.00
   4  -5  -7    0.70    1.49
   4  -5  -7    2.06    1.85
   4  -5  -7    2.07    1.33
  -4   5   7    1.75    0.97
   4  -5  -6   23.53    3.70
  -4   5   6   23.84    2.85
   4  -5  -5    8.69    2.88
  -4   5   5   18.60    2.90
  -4   5   5   13.70    3.62
  -4   5   5    4.21    2.99
   4  -5  -4    0.13    1.67
  -4   5   4    1.53    2.34
  -4   5   4    0.30    1.43
  -4   5   4    0.88    3.58
   4  -5  -3   27.59    4.74
   4  -5  -3   23.17    3.89
  -4   5   3   22.02    4.14
  -4   5   3   28.86    3.71
  -4   5   3   13.57    3.02
  -4   5   3   15.00    5.27
   4  -5  -2  110.95    9.73
   4  -5  -2  101.43    8.68
  -4   5   2  113.97    9.41
  -4   5   2   79.13    8.51
  -4   5   2  145.32    9.15
  -4   5   2  121.18   12.31
   4  -5  -1  312.37   19.50
   4  -5  -1  340.04   19.02
  -4   5   1  365.42   20.67
   4  -5   0   40.52    4.61
  -4   5   0   47.51    4.54
   4  -5   0   37.97    4.67
  -4   5   0   36.48    4.56
  -4   5   0   43.04    7.22
   4  -5   1   17.69    3.07
   4  -5   1   19.97    3.66
  -4   5  -1   19.60    2.92
  -4   5  -1   13.77    3.41
  -4   5  -1   21.54    5.06
   4  -5   1   19.04    3.17
   4  -5   2   49.73    5.14
  -4   5  -2   34.97    5.70
   4  -5   2   47.44    5.58
  -4   5  -2   52.09    6.18
   4  -5   2   50.52    5.14
  -4   5  -3   65.68    6.60
   4  -5   3   76.52    7.23
   4  -5   3   71.72    6.71
  -4   5  -3   57.26    6.96
   4  -5   3   71.64    5.79
   4  -5   3   72.56    6.76
  -4   5  -3   83.01    8.28
   4  -5   4  320.38   17.55
  -4   5  -4  292.70   18.67
   4  -5   4  301.79   18.83
   4  -5   4  307.54   18.23
   4  -5   4  322.46   17.11
   4  -5   4  328.33   18.40
   4  -5   5   50.78    4.89
  -4   5  -5   42.41    5.78
   4  -5   5   44.19    5.28
  -4   5  -5   36.12    4.86
   4  -5   5   49.56    5.38
   4  -5   6   32.51    3.52
  -4   5  -6   27.59    4.53
   4  -5   6   28.55    3.84
  -4   5  -6   20.69    3.63
  -4   5  -7   42.86    5.08
   4  -5   7   37.94    4.01
  -4   5  -7   39.11    4.49
  -4   5  -8    8.18    2.04
  -4   5  -8    6.08    1.69
   4  -5   8    6.84    1.40
   4  -4  -8    5.61    2.07
  -4   4   8   10.76    1.72
   4  -4  -7    1.24    1.81
   4  -4  -6   18.44    3.65
  -4   4   6   17.67    3.79
  -4   4   5   17.26    5.35
  -4   4   5   22.72    4.38
   4  -4  -5   15.62    3.41
  -4   4   5   22.20    3.32
   4  -4  -4  106.45    8.21
  -4   4   4  121.80    9.34
  -4   4   4  111.91    7.71
  -4   4   3   51.86    5.71
  -4   4   3   33.88    4.71
  -4   4   3   65.59    5.52
  -4   4   3   20.74    5.90
   4  -4  -2   20.88    3.16
  -4   4   2   28.60    3.97
  -4   4   2   23.41    4.11
  -4   4   2   38.81    4.03
  -4   4   2   25.53    5.70
   4  -4  -1  253.86   13.98
   4  -4  -1  243.37   13.38
   4  -4   0  432.68   27.14
  -4   4   0  509.64   27.50
  -4   4   0  504.17   28.40
  -4   4   0  517.39   31.20
   4  -4   1   39.31    4.17
   4  -4   1   38.91    4.66
  -4   4  -1   37.63    5.35
  -4   4  -1   51.05    4.56
  -4   4  -1   45.49    5.39
   4  -4   1   43.15    4.37
   4  -4   2   12.81    2.36
  -4   4  -2   11.75    2.52
   4  -4   2   10.83    2.24
   4  -4   2    9.65    2.55
  -4   4  -2    9.53    2.94
  -4   4  -3   70.84    6.93
   4  -4   3   63.64    6.00
   4  -4   3   71.22    6.98
   4  -4   3   67.41    6.16
  -4   4  -3   62.54    5.96
  -4   4  -3   54.33    6.42
   4  -4   3   70.52    5.91
   4  -4   3   76.56    6.75
  -4   4  -4  202.02   12.67
   4  -4   4  175.12   11.92
  -4   4  -4  146.86   12.70
   4  -4   4  196.28   13.48
   4  -4   4  169.03   12.07
  -4   4  -4  133.24   11.78
   4  -4   4  180.90   11.71
   4  -4   4  192.39   12.73
   4  -4   5   51.01    5.02
  -4   4  -5   34.73    5.45
   4  -4   5   48.68    5.07
  -4   4  -5   46.91    4.83
  -4   4  -5   32.31    4.94
   4  -4   6   10.79    2.40
  -4   4  -6   13.51    3.59
  -4   4  -6    9.24    2.86
   4  -4   6   12.93    2.59
  -4   4  -7   13.83    3.29
  -4   4  -7   11.63    2.85
   4  -4   7   10.89    2.07
  -4   4  -8   13.95    2.66
  -4   4  -8   11.13    2.29
   4  -4   8   15.60    2.24
   4  -3  -9   27.45    3.44
   4  -3  -8   30.35    4.39
  -4   3   8   35.11    3.94
  -4   3   7   16.17    3.04
  -4   3   6   13.38    2.80
  -4   3   5   65.82    5.34
  -4   3   5   60.72    7.68
  -4   3   4  146.36    9.22
  -4   3   4  200.66    9.77
  -4   3   3   83.43    6.52
  -4   3   3   68.81    6.37
  -4   3   2   92.92    6.77
  -4   3   2   89.32    7.76
  -4   3   1   51.52    5.84
  -4   3   0  670.88   37.94
   4  -3   0  618.80   36.14
   4  -3   0  670.33   36.11
   4  -3   1  121.57    8.98
  -4   3  -1  148.02    8.99
   4  -3   1  125.32    8.62
  -4   3  -2   45.65    5.03
   4  -3   2   38.94    3.95
  -4   3  -2   57.17    5.24
  -4   3  -2   39.08    4.20
  -4   3  -2   36.11    4.72
   4  -3   2   43.38    4.62
   4  -3   2   45.27    4.26
   4  -3   3    2.23    1.51
  -4   3  -3    3.55    2.24
   4  -3   3    1.21    1.26
  -4   3  -3    2.42    1.74
  -4   3  -3    5.00    2.08
   4  -3   3    1.16    1.40
  -4   3  -3    2.62    1.71
   4  -3   4   10.19    2.52
   4  -3   4    9.28    2.98
  -4   3  -4    7.36    2.34
  -4   3  -4   11.24    3.17
  -4   3  -4   11.68    3.44
   4  -3   4   13.12    2.55
   4  -3   4    9.79    2.67
   4  -3   5  177.20   12.25
  -4   3  -5  164.74   13.48
   4  -3   5  150.24   11.39
  -4   3  -5  198.24   11.93
  -4   3  -5  172.40   13.18
   4  -3   5  164.94   11.24
  -4   3  -6    5.54    2.80
  -4   3  -6    3.32    2.71
  -4   3  -7    3.43    2.48
  -4   3  -7    3.72    2.48
   4  -3   7    3.65    2.07
   4  -3   8    3.61    2.29
   4  -3   8    5.67    1.64
   4  -2 -10    1.84    1.25
  -4   2  10    0.86    1.07
  -4   2   9   18.88    2.80
   4  -2  -8   23.56    3.43
  -4   2   8   26.63    3.73
  -4   2   7    6.34    2.24
  -4   2   6   55.90    5.78
  -4   2   5   30.06    3.55
  -4   2   5    0.87    2.93
  -4   2   4   74.97    6.22
  -4   2   4   93.95    6.25
  -4   2   3   36.08    4.21
  -4   2   3   51.37    3.78
   4  -2  -2   68.90    6.58
  -4   2   2  121.29    7.54
  -4   2   2   87.56    7.89
  -4   2   2  111.82    7.18
  -4   2   1  117.83    8.12
   4  -2  -1  114.03    7.56
  -4   2   1  114.66    7.83
   4  -2  -1  140.95    8.84
  -4   2   0   83.36    6.25
  -4   2   0   57.34    6.09
   4  -2   0   57.05    5.13
  -4   2   0   79.18    5.68
   4  -2   0   69.91    5.18
   4  -2   1    9.30    1.66
  -4   2  -1    9.43    2.14
  -4   2  -1   13.18    2.37
  -4   2  -1   10.50    2.02
  -4   2  -1   12.84    2.12
   4  -2   1   10.89    1.81
  -4   2  -1    7.94    2.37
  -4   2  -2  197.20   13.72
   4  -2   2  207.11   13.64
  -4   2  -2  220.20   13.15
  -4   2  -2  205.72   13.25
   4  -2   2  214.46   13.09
  -4   2  -3  107.99    9.39
   4  -2   3  103.38    9.00
  -4   2  -3  113.95    8.35
  -4   2  -3   98.62    8.78
   4  -2   3  106.97    8.26
   4  -2   3  109.35    8.52
   4  -2   4   11.72    2.70
  -4   2  -4   15.14    3.85
  -4   2  -4   11.48    2.48
  -4   2  -4   13.07    3.47
   4  -2   4   11.01    2.44
   4  -2   4   12.05    2.67
   4  -2   4    9.23    2.03
   4  -2   5    9.53    2.79
  -4   2  -5   11.16    3.55
  -4   2  -5   11.77    3.54
   4  -2   5    8.91    2.18
  -4   2  -5    6.92    2.35
  -4   2  -6   17.89    3.86
   4  -2   6   19.63    2.74
  -4   2  -6   15.87    3.18
  -4   2  -7   31.08    4.38
   4  -2   7   30.56    3.98
  -4   2  -7   23.57    3.39
   4  -2   8   -0.31    1.56
   4  -2   8    0.51    1.15
  -4   2  -8    0.93    1.33
   4  -1 -10    1.59    1.20
  -4   1  10    5.26    1.50
   4  -1  -9   27.90    3.52
  -4   1   9   43.77    4.46
  -4   1   8   48.60    5.54
  -4   1   7   15.13    3.16
  -4   1   6  104.30    8.50
  -4   1   5  147.02   10.46
  -4   1   5  171.03   11.22
  -4   1   4  106.50    8.01
   4  -1  -4   93.95    7.64
  -4   1   3   14.89    2.09
  -4   1   3    9.96    2.45
   4  -1  -3   10.83    2.00
   4  -1  -3    8.55    2.21
   4  -1  -2   46.07    4.15
  -4   1   2   56.91    4.72
  -4   1   2   39.51    4.81
  -4   1   2   55.69    4.41
  -4   1   1  509.87   31.53
  -4   1   1  689.58   33.16
   4  -1  -1  663.53   31.62
  -4   1   1  499.82   31.07
  -4   1   0  227.56   14.74
  -4   1   0  204.76   15.08
  -4   1   0  276.50   14.69
   4  -1   0  265.95   13.98
   4  -1   0  228.95   14.44
  -4   1  -1    0.71    1.50
   4  -1   1    1.72    1.42
  -4   1  -1    2.02    1.33
  -4   1  -1    2.13    1.52
  -4   1  -1    1.24    1.41
   4  -1   1    0.96    1.03
   4  -1   2   59.67    5.24
  -4   1  -2   64.09    6.34
  -4   1  -2   57.26    5.18
  -4   1  -2   53.21    5.74
   4  -1   2   61.35    5.86
  -4   1  -2   44.06    4.71
   4  -1   2   59.24    5.30
   4  -1   3  176.17   11.79
  -4   1  -3  176.84   13.04
  -4   1  -3  182.00   13.00
   4  -1   3  166.56   11.67
   4  -1   3  175.09   11.52
  -4   1  -3  149.19   11.78
   4  -1   4  168.81   11.79
  -4   1  -4  128.69   11.94
  -4   1  -4  128.60   12.00
   4  -1   4  187.18   11.74
   4  -1   4  177.19   11.15
  -4   1  -4  136.92   11.63
  -4   1  -5   86.84    8.72
   4  -1   5   98.00    7.55
  -4   1  -5   72.51    7.76
  -4   1  -6   34.61    5.16
   4  -1   6   46.85    4.43
   4  -1   6   44.23    5.19
  -4   1  -6   30.21    4.60
  -4   1  -7   27.68    3.91
   4  -1   7   29.43    4.37
  -4   1  -7   25.48    3.45
   4  -1   8    8.81    1.58
  -4   0  11    6.43    1.25
  -4   0  10    1.50    1.35
  -4   0   9  186.12   12.91
  -4   0   8  104.31    8.74
  -4   0   7    3.70    1.93
  -4   0   6   78.51    7.00
  -4   0   5   38.13    4.11
  -4   0   5   40.75    4.39
  -4   0   4   73.38    6.00
  -4   0   4   62.73    5.32
   4   0  -4   50.95    4.70
   4   0  -4   56.68    4.97
   4   0  -4   66.03    5.43
   4   0  -3   16.50    2.36
  -4   0   3   12.82    2.59
   4   0  -3   20.68    2.43
   4   0  -3   15.71    1.99
   4   0  -2    6.23    1.19
  -4   0   2    9.50    1.92
   4   0  -2    6.13    1.15
  -4   0   2    8.09    1.51
   4   0  -2    7.99    1.69
   4   0  -2    7.81    1.40
  -4   0   1  110.33    7.75
  -4   0   1  108.88    7.90
  -4   0   1  111.69    8.36
   4   0  -1   90.97    7.56
  -4   0   1  110.35    7.24
  -4   0   0  452.44   26.16
   4   0   0  450.32   25.23
   4   0   0  460.32   25.69
  -4   0   0  416.18   25.84
  -4   0   0  481.03   25.06
   4   0   0  446.60   25.13
  -4   0  -1   56.29    5.85
   4   0   1   53.56    4.72
  -4   0  -1   52.49    4.90
   4   0   1   57.62    5.14
  -4   0  -1   51.38    4.94
   4   0   2   11.06    2.20
  -4   0  -2   10.18    2.86
   4   0   2   11.36    2.36
   4   0   2   13.50    2.50
  -4   0  -2    7.53    2.34
   4   0   3   36.70    4.26
  -4   0  -3   29.20    4.81
  -4   0  -3   23.13    4.37
  -4   0  -3   25.96    3.93
   4   0   3   30.06    4.07
   4   0   3   37.95    4.45
   4   0   3   34.44    4.22
  -4   0  -3   29.34    4.59
  -4   0  -4  259.49   21.50
   4   0   4  405.76   21.77
   4   0   4  366.32   21.77
   4   0   4  378.79   21.30
  -4   0  -4  303.75   21.92
  -4   0  -5    5.25    2.87
  -4   0  -5    3.48    2.55
   4   0   5    3.15    1.82
   4   0   5    0.62    1.96
  -4   0  -5    0.15    2.13
  -4   0  -6    6.67    2.49
   4   0   6    5.21    2.54
   4   0   6    6.11    1.85
   4   0   6    6.63    2.24
  -4   0  -6    6.32    2.49
   4   0   7    1.61    1.40
  -4   0  -7    2.13    1.45
   4   1 -11    6.22    1.39
  -4  -1  11    8.26    1.54
  -4  -1  10    4.98    1.83
  -4  -1   9   55.48    6.03
  -4  -1   8  119.40    9.63
  -4  -1   7  137.40   10.49
  -4  -1   6   70.65    5.86
  -4  -1   6   74.67    6.64
  -4  -1   5   18.18    2.83
  -4  -1   5   15.21    2.69
  -4  -1   4  101.32    7.78
  -4  -1   4   90.48    7.43
  -4  -1   4   98.51    7.27
  -4  -1   3   82.53    6.03
   4   1  -3   65.84    5.71
  -4  -1   3  101.52    7.27
  -4  -1   3   92.34    7.28
   4   1  -3   77.81    6.11
  -4  -1   2   30.81    3.37
   4   1  -2   20.74    4.14
  -4  -1   2   35.76    3.99
  -4  -1   2   29.62    4.04
  -4  -1   2   30.32    3.30
  -4  -1   1   41.08    4.52
  -4  -1   1   40.75    4.30
   4   1   0  183.18   11.51
  -4  -1   0  199.86   13.19
  -4  -1   0  192.02   12.28
  -4  -1   0  169.12   12.81
   4   1   0  187.40   11.88
   4   1   1   72.15    6.00
  -4  -1  -1   73.11    7.26
  -4  -1  -1   68.35    7.28
  -4  -1  -1   72.55    5.99
  -4  -1  -1   65.97    6.76
   4   1   1   82.67    6.58
   4   1   1   78.74    6.31
  -4  -1  -1   83.42    7.17
  -4  -1  -2   60.58    6.66
  -4  -1  -2   55.42    7.00
  -4  -1  -2   45.28    5.44
   4   1   2   55.34    5.42
   4   1   2   65.85    6.02
  -4  -1  -2   58.22    6.44
  -4  -1  -3   34.38    6.00
  -4  -1  -3   37.40    4.58
   4   1   3   44.58    5.13
   4   1   3   40.98    4.82
   4   1   3   47.55    5.21
  -4  -1  -3   38.79    5.69
  -4  -1  -4  170.11   13.93
  -4  -1  -4  152.24   14.45
   4   1   4  219.32   13.79
   4   1   4  178.16   13.13
   4   1   4  213.82   12.74
  -4  -1  -4  183.13   14.40
  -4  -1  -5    8.84    2.93
  -4  -1  -5    5.66    3.01
   4   1   5   12.45    2.67
   4   1   5   12.34    2.73
  -4  -1  -5    9.41    2.99
   4   1   6   20.92    3.03
  -4  -1  -6   21.80    3.40
  -4  -2  11   22.76    2.60
  -4  -2  10   10.40    2.36
  -4  -2   9  180.88   12.66
  -4  -2   8   48.60    5.57
  -4  -2   7    8.11    2.34
  -4  -2   7    9.75    2.61
  -4  -2   6   82.47    6.85
  -4  -2   6   86.37    7.34
  -4  -2   5  108.60    8.03
  -4  -2   5   92.96    7.54
  -4  -2   5   88.24    7.47
  -4  -2   4  114.76    8.27
  -4  -2   4  103.99    8.24
  -4  -2   4   90.28    7.36
  -4  -2   4   92.76    7.63
  -4  -2   3   91.55    7.32
  -4  -2   3  103.33    8.41
  -4  -2   3   91.11    7.42
  -4  -2   2  130.11   10.00
  -4  -2   2  155.92   10.31
  -4  -2   2  148.49   10.91
   4   2  -2  138.89    9.24
  -4  -2   2  126.39    9.90
  -4  -2   1  358.49   21.65
  -4  -2   1  356.70   20.89
  -4  -2   1  330.29   21.69
   4   2  -1  333.28   20.24
  -4  -2   1  360.29   21.66
  -4  -2   0  133.30    9.57
  -4  -2   0  132.24   10.58
   4   2   0  139.08    9.74
   4   2   0  123.70    9.05
   4   2   0  146.62    9.98
  -4  -2   0  137.03   11.07
  -4  -2  -1    3.19    2.94
  -4  -2  -1    3.26    2.03
   4   2   1    5.78    2.02
  -4  -2  -1    4.83    1.59
   4   2   1    3.89    1.88
   4   2   2   46.30    4.62
  -4  -2  -2   39.67    6.85
  -4  -2  -2   40.23    5.03
   4   2   2   50.77    5.40
   4   2   2   40.40    4.58
  -4  -2  -2   53.62    6.65
  -4  -2  -3   98.45   10.94
   4   2   3  100.49    8.26
   4   2   3  108.97    8.43
  -4  -2  -3  111.39   10.27
  -4  -2  -4  150.11   14.26
   4   2   4  204.16   13.16
   4   2   4  167.34   12.32
   4   2   4  214.46   12.40
  -4  -2  -4  171.78   13.76
  -4  -2  -5    4.15    2.01
  -4  -2  -5    4.45    2.78
   4   2   5    6.43    1.90
  -4  -2  -6    3.90    1.21
   4   2   6    2.98    1.01
  -4  -2  -6    5.04    1.80
   4   3 -11    4.81    1.21
  -4  -3  11   11.65    1.80
  -4  -3  10    2.51    1.54
  -4  -3   9  161.64   11.58
  -4  -3   8   38.46    4.79
  -4  -3   7    7.40    1.99
  -4  -3   7    5.67    2.24
  -4  -3   6   51.93    5.13
  -4  -3   6   54.56    5.51
  -4  -3   6   44.66    5.09
  -4  -3   6   55.52    5.70
  -4  -3   5  201.77   13.93
  -4  -3   5  184.90   13.37
  -4  -3   5  187.86   13.75
  -4  -3   4  109.06    9.21
  -4  -3   4   94.51    8.05
  -4  -3   4   99.31    8.64
  -4  -3   3   38.96    4.77
  -4  -3   3   47.47    5.54
   4   3  -3   37.54    3.95
  -4  -3   3   35.58    4.74
  -4  -3   2   42.33    5.29
  -4  -3   2   43.52    4.99
   4   3  -2   44.94    4.31
   4   3  -2   42.10    4.46
  -4  -3   2   45.94    5.56
  -4  -3   1  425.10   26.82
  -4  -3   1  438.77   25.55
  -4  -3   1  432.00   26.80
   4   3  -1  413.82   25.00
   4   3  -1  430.00   25.40
  -4  -3   1  454.30   27.29
  -4  -3   0  149.76   12.37
  -4  -3   0  155.20   10.82
  -4  -3   0  149.07   11.91
   4   3   0  143.42   10.80
   4   3   0  159.12   11.30
  -4  -3   0  161.11   13.09
   4   3   1    2.94    1.73
  -4  -3  -1    0.95    1.81
   4   3   1    1.92    1.82
   4   3   1    2.65    1.88
  -4  -3  -1    1.97    3.13
   4   3   1    2.05    1.96
   4   3   2   12.37    2.51
  -4  -3  -2   11.83    3.56
  -4  -3  -2   10.42    2.58
   4   3   2   12.62    2.94
  -4  -3  -2   13.83    4.46
   4   3   2   13.96    2.96
  -4  -3  -3   10.52    3.06
   4   3   3   10.23    2.46
   4   3   3    7.18    2.27
   4   3   3    6.97    1.94
  -4  -3  -3   13.88    4.22
   4   3   3    6.34    1.97
  -4  -3  -4   37.38    4.46
   4   3   4   30.12    3.36
   4   3   4   44.21    3.86
  -4  -3  -4   50.91    5.77
  -4  -3  -5    4.59    1.38
  -4  -3  -5    8.16    2.12
  -4  -4  11    6.27    1.30
  -4  -4  10    1.01    1.36
   4   4  -9   39.81    3.94
  -4  -4   9   39.86    4.58
  -4  -4   8   59.52    6.10
  -4  -4   7    8.58    2.36
  -4  -4   7   11.97    2.64
  -4  -4   7   11.26    2.81
  -4  -4   6   14.12    3.04
  -4  -4   6   17.69    3.39
  -4  -4   6   13.62    3.05
   4   4  -5   92.59    7.82
  -4  -4   5  115.49    9.01
  -4  -4   5   95.83    8.59
  -4  -4   5   85.79    7.92
  -4  -4   5   83.24    8.26
  -4  -4   4   97.93    9.10
  -4  -4   4   82.27    7.91
  -4  -4   4   86.31    8.52
   4   4  -4  108.39    7.74
  -4  -4   3   96.01    8.12
  -4  -4   3   82.09    8.54
  -4  -4   3   71.98    7.90
   4   4  -3   79.22    7.03
  -4  -4   2   29.56    4.94
  -4  -4   2   32.89    4.49
  -4  -4   2   32.36    5.10
   4   4  -2   26.64    3.65
  -4  -4   2   30.94    5.20
   4   4  -2   29.40    4.08
   4   4  -1  266.40   16.55
  -4  -4   1  246.04   17.87
  -4  -4   1  256.05   16.46
  -4  -4   1  249.12   17.56
   4   4  -1  216.96   15.45
   4   4  -1  241.65   16.18
  -4  -4   1  277.77   18.86
   4   4  -1  267.64   16.60
   4   4   0    0.33    1.66
  -4  -4   0   -0.44    2.15
   4   4   0    0.61    1.41
  -4  -4   0    1.66    1.67
  -4  -4   0    1.40    3.01
   4   4   0    0.47    1.85
  -4  -4  -1   34.59    5.31
   4   4   1   41.37    5.04
  -4  -4  -1   38.05    4.67
   4   4   1   31.11    4.01
   4   4   1   32.88    4.35
  -4  -4  -1   33.39    6.11
   4   4   1   31.01    4.03
  -4  -4  -2    6.63    2.58
   4   4   2    9.00    2.57
  -4  -4  -2    7.49    3.42
   4   4   2    8.80    2.30
  -4  -4  -3    9.77    2.35
   4   4   3    6.73    1.79
  -4  -4  -3    8.76    2.97
   4   4   3    7.35    1.75
  -4  -4  -4   28.70    3.46
  -4  -5  10    9.37    1.83
   4   5  -9   61.72    5.24
  -4  -5   9   66.50    5.78
   4   5  -8    3.43    1.44
  -4  -5   8    4.78    2.02
  -4  -5   7   53.27    5.45
   4   5  -7   50.27    5.16
  -4  -5   7   43.45    5.24
  -4  -5   6   24.78    4.01
  -4  -5   6   17.11    3.50
   4   5  -6   21.84    3.06
   4   5  -5   19.14    3.52
  -4  -5   5   19.39    4.08
  -4  -5   5   21.21    4.08
  -4  -5   5   17.32    3.41
  -4  -5   5   14.91    3.71
  -4  -5   5   16.14    3.47
   4   5  -5   20.25    3.22
   4   5  -4    4.08    2.24
   4   5  -4    5.00    2.60
  -4  -5   4    6.68    2.92
  -4  -5   4    5.79    2.83
  -4  -5   4    6.08    3.06
   4   5  -4    5.04    1.74
   4   5  -3   29.09    4.73
  -4  -5   3   22.99    4.11
   4   5  -3   25.44    3.64
  -4  -5   3   24.35    4.84
   4   5  -3   23.95    3.82
  -4  -5   2   61.25    6.21
   4   5  -2   57.11    6.66
  -4  -5   2   56.01    6.76
   4   5  -2   49.52    5.46
  -4  -5   2   61.56    7.50
   4   5  -2   46.51    5.49
  -4  -5   1  170.27   12.49
  -4  -5   1  183.80   13.78
   4   5  -1  186.21   12.84
  -4  -5   1  207.62   15.38
   4   5  -1  190.19   12.95
   4   5   0   15.32    3.35
  -4  -5   0   19.40    3.33
   4   5   0   13.93    2.39
  -4  -5   0   24.04    4.77
   4   5   0   13.43    2.76
   4   5   0   17.20    2.96
   4   5   1   20.62    3.41
  -4  -5  -1   26.11    4.50
   4   5   2   24.87    3.10
   4   5   2   27.55    3.06
  -4  -5  -2   33.15    4.21
  -4  -5  -3    4.74    1.44
  -4  -6  10    7.97    1.35
   4   6  -9   27.31    2.97
  -4  -6   9   30.00    3.22
   4   6  -8    5.19    2.00
   4   6  -8    3.46    1.41
  -4  -6   8    3.43    1.71
   4   6  -7    3.78    1.81
   4   6  -7    3.14    1.77
  -4  -6   7    4.60    2.05
   4   6  -6   53.04    5.39
  -4  -6   6   48.42    5.32
   4   6  -5   94.50    8.22
  -4  -6   5  126.06    9.37
  -4  -6   5  126.34    9.66
  -4  -6   5   76.41    7.85
   4   6  -5  110.83    8.74
  -4  -6   5  100.10    8.76
  -4  -6   5  108.68    9.27
   4   6  -5   96.85    7.68
   4   6  -4    7.57    2.23
   4   6  -4    8.71    2.79
  -4  -6   4    8.62    3.12
  -4  -6   4    8.58    2.92
  -4  -6   4    5.88    2.69
  -4  -6   4    8.28    2.63
  -4  -6   4    7.81    2.99
   4   6  -3    1.18    1.54
   4   6  -3    0.69    2.01
  -4  -6   3    1.55    2.34
  -4  -6   3    0.95    2.37
   4   6  -3    2.98    1.95
  -4  -6   3    0.31    2.44
   4   6  -3    1.23    1.28
   4   6  -2   12.76    3.19
  -4  -6   2   12.54    3.04
   4   6  -2   10.96    2.35
  -4  -6   2   10.75    3.43
   4   6  -2   10.61    2.29
   4   6  -1   65.32    5.24
   4   6  -1   59.84    5.40
  -4  -6   1   71.69    7.10
   4   6   0   -0.18    1.54
   4   6   0    0.85    1.09
   4   6   1    1.22    1.09
   4   7  -8    7.83    1.62
  -4  -7   8    6.12    1.47
   4   7  -7    7.10    1.85
   4   7  -7    4.58    1.33
   4   7  -7    6.33    1.59
  -4  -7   7    5.41    1.65
   4   7  -6   15.28    2.53
   4   7  -6   14.88    2.47
  -4  -7   6   15.46    2.63
   4   7  -6   14.41    2.52
   4   7  -5   40.59    3.84
   4   7  -5   42.99    4.18
  -4  -7   5   31.50    3.88
   4   7  -5   37.47    3.68
   4   7  -4    1.00    1.54
   4   7  -4    0.80    0.99
  -4  -7   4    0.09    1.56
   4   7  -4    2.93    1.60
   4   7  -4    3.40    1.63
  -4  -7   4    0.39    1.40
   4   7  -3    6.64    2.24
  -4  -7   3    7.62    2.19
   4   7  -3    5.19    1.51
   4   7  -3    5.26    1.54
   4   7  -2    2.11    1.59
  -4  -7   2    0.84    1.58
   4   7  -2    1.68    0.88
  -4  -7   1    6.68    1.61
  -5   9  -1    0.31    0.85
  -5   9  -2    6.14    1.25
  -5   9  -2    3.29    1.25
   5  -8  -3    4.15    1.32
   5  -8  -2    6.39    1.51
   5  -8  -2    3.12    1.19
   5  -8  -2    3.82    1.66
   5  -8  -1    3.94    1.50
   5  -8  -1    4.36    1.49
  -5   8   1    1.38    1.35
   5  -8   0   12.76    2.32
  -5   8   0   10.72    2.57
   5  -8   1    5.80    1.84
   5  -8   1    7.38    1.90
  -5   8  -1    8.40    2.10
   5  -8   2    8.93    2.00
  -5   8  -2    8.52    2.22
   5  -8   2    7.37    1.90
   5  -8   2    7.43    1.82
  -5   8  -2    6.46    2.33
   5  -8   3   34.80    3.27
   5  -8   3   20.68    2.86
  -5   8  -3   19.81    3.41
   5  -8   3   31.37    3.15
   5  -8   4   19.02    2.30
   5  -8   4   24.47    2.79
  -5   8  -4   20.57    2.57
   5  -8   5   10.82    1.71
   5  -7  -5    4.39    1.23
   5  -7  -4    3.73    1.39
   5  -7  -4    3.03    1.18
   5  -7  -4    2.32    1.58
   5  -7  -3   16.13    2.58
   5  -7  -3   19.18    3.30
   5  -7  -3   20.27    2.97
   5  -7  -2   14.12    2.83
   5  -7  -2   10.29    2.31
   5  -7  -2   12.58    3.08
  -5   7   2    8.82    1.80
  -5   7   2   10.82    2.50
   5  -7  -1   36.70    4.33
  -5   7   1   39.93    4.13
  -5   7   1   29.33    4.47
   5  -7  -1   41.17    5.14
  -5   7   1   48.43    4.26
   5  -7  -1   51.67    5.20
   5  -7   0    3.36    1.88
  -5   7   0    5.38    2.14
   5  -7   0    4.84    2.37
  -5   7   0    4.71    2.73
   5  -7   1   24.07    3.57
  -5   7  -1   35.56    4.41
   5  -7   1   28.01    4.25
   5  -7   2   32.30    4.24
   5  -7   2   27.74    3.66
  -5   7  -2   28.17    4.77
   5  -7   2   28.26    3.86
   5  -7   3   66.22    5.26
   5  -7   3   68.82    6.25
   5  -7   3   60.15    5.65
  -5   7  -3   80.25    6.80
  -5   7  -3   56.38    6.47
   5  -7   3   66.65    5.93
   5  -7   4   43.21    4.56
   5  -7   4   46.19    4.43
  -5   7  -4   35.02    4.41
   5  -7   4   48.43    4.53
   5  -7   5   16.08    2.46
  -5   7  -5   16.60    2.37
   5  -7   6   18.77    2.17
   5  -6  -6   16.43    2.63
   5  -6  -6   21.57    2.42
   5  -6  -5   15.99    3.08
   5  -6  -5   16.96    2.45
   5  -6  -4    7.10    2.57
   5  -6  -4    8.47    2.11
  -5   6   4   10.51    2.12
   5  -6  -3    5.46    2.35
   5  -6  -3    6.63    2.12
  -5   6   3    9.48    2.19
  -5   6   3    3.08    1.79
  -5   6   3    1.78    3.97
   5  -6  -2   36.17    4.86
   5  -6  -2   44.69    4.75
  -5   6   2   31.59    3.75
  -5   6   2   41.93    5.21
  -5   6   2   43.07    4.48
   5  -6  -1    1.26    1.55
  -5   6   1    3.67    2.02
   5  -6  -1    3.05    2.45
  -5   6   1    4.06    1.88
  -5   6   1    3.62    2.53
   5  -6   0   34.19    4.39
  -5   6   0   37.93    6.00
   5  -6   0   40.20    5.28
  -5   6   0   44.76    4.70
   5  -6   0   38.85    4.81
   5  -6   1   10.54    2.70
   5  -6   1    7.92    2.33
  -5   6  -1   13.42    3.32
   5  -6   1    9.19    2.95
  -5   6  -1    7.02    3.44
   5  -6   2   29.62    4.56
   5  -6   2   32.60    4.04
  -5   6  -2   34.16    5.47
   5  -6   3   25.18    3.25
   5  -6   3   25.98    4.17
  -5   6  -3   27.19    4.23
   5  -6   3   24.49    3.77
  -5   6  -3   15.77    3.79
   5  -6   4   18.76    2.67
   5  -6   4   21.99    3.54
   5  -6   4   15.36    2.69
  -5   6  -4   19.24    3.31
   5  -6   4   20.48    3.24
  -5   6  -4    8.87    2.58
   5  -6   5    2.49    1.26
  -5   6  -5    3.55    1.62
   5  -6   5    2.46    1.41
  -5   6  -6   10.57    2.06
   5  -6   6   13.54    1.99
   5  -5  -7    3.68    1.68
   5  -5  -6   19.99    3.61
   5  -5  -6   21.01    2.72
  -5   5   6   22.47    3.53
  -5   5   6   31.63    3.30
   5  -5  -5  119.27   10.19
   5  -5  -5  114.04    8.75
  -5   5   5  114.74    9.84
   5  -5  -4   12.58    3.27
   5  -5  -4   15.95    2.74
  -5   5   4   15.38    3.37
  -5   5   4   24.33    3.50
  -5   5   4    7.20    2.11
  -5   5   4    4.29    3.94
   5  -5  -3    0.14    1.70
   5  -5  -3    1.71    1.52
  -5   5   3    2.74    1.87
  -5   5   3    1.03    1.77
  -5   5   3   -0.26    4.05
   5  -5  -2  179.46   13.10
   5  -5  -2  194.14   12.63
  -5   5   2  181.52   12.71
   5  -5  -1  359.54   24.32
  -5   5   1  443.26   25.75
  -5   5   1  339.42   26.36
   5  -5  -1  450.99   26.29
  -5   5   1  499.26   25.59
   5  -5  -1  476.10   25.89
   5  -5   0   59.70    5.84
  -5   5   0   70.34    7.06
   5  -5   0   73.01    7.04
  -5   5   0   66.37    6.26
   5  -5   0   66.44    6.39
   5  -5   1   14.47    2.81
  -5   5  -1   24.58    4.30
   5  -5   1   16.83    3.55
  -5   5  -1   28.42    3.76
  -5   5  -1   16.55    4.37
   5  -5   1   20.91    3.38
   5  -5   2    8.41    2.28
   5  -5   2    6.89    2.78
   5  -5   2    5.79    1.94
  -5   5  -2    8.13    3.00
  -5   5  -2    4.76    2.98
   5  -5   3   14.56    2.75
   5  -5   3   17.30    3.60
   5  -5   3   11.06    2.39
  -5   5  -3   12.79    3.17
   5  -5   3   16.64    2.64
   5  -5   3   15.95    3.19
  -5   5  -3    5.06    2.75
   5  -5   4   51.03    5.22
  -5   5  -4   50.16    5.64
   5  -5   4   53.93    6.16
   5  -5   4   48.03    4.93
   5  -5   4   54.10    4.94
   5  -5   4   57.26    5.87
   5  -5   5    5.77    1.76
  -5   5  -5    4.26    2.12
  -5   5  -5    5.42    1.95
   5  -5   5    4.21    1.75
  -5   5  -6    4.98    2.04
   5  -5   6    3.51    1.28
  -5   5  -7   20.19    2.80
   5  -5   7   34.45    2.99
   5  -4  -8    5.89    1.82
  -5   4   8    5.27    1.71
  -5   4   8    8.19    1.48
  -5   4   7   21.71    3.39
  -5   4   7   15.88    2.60
  -5   4   6   23.23    4.30
  -5   4   6   44.92    4.58
  -5   4   5    0.28    2.11
  -5   4   5    3.32    2.20
  -5   4   4   12.91    3.29
  -5   4   4   11.28    2.80
   5  -4  -3   45.38    5.25
  -5   4   3   52.99    4.75
  -5   4   3   44.25    5.26
  -5   4   3   34.97    5.26
  -5   4   2  108.02    9.18
  -5   4   2  125.12    9.49
  -5   4   1  181.57   14.05
  -5   4   1  195.66   15.74
   5  -4   0    2.28    1.53
  -5   4   0    3.61    2.41
   5  -4   0    1.78    1.86
  -5   4   0    5.50    3.13
  -5   4  -1   64.26    8.03
   5  -4   1   69.49    6.63
   5  -4   1   72.93    6.19
  -5   4  -2   21.75    3.88
   5  -4   2   20.37    3.41
  -5   4  -2    9.98    3.29
   5  -4   3   24.43    3.59
  -5   4  -3   20.89    3.74
  -5   4  -3   29.85    4.32
   5  -4   3   23.32    3.32
  -5   4  -3   16.86    3.47
   5  -4   4   42.09    4.82
  -5   4  -4   39.11    5.42
   5  -4   4   45.56    5.84
   5  -4   4   44.88    4.54
  -5   4  -4   54.94    5.42
  -5   4  -4   30.30    4.42
   5  -4   4   48.95    4.81
   5  -4   5   66.39    5.82
  -5   4  -5   52.50    6.21
  -5   4  -5   72.21    5.72
  -5   4  -5   46.34    5.48
  -5   4  -6   47.81    5.52
  -5   4  -7    6.36    1.87
   5  -4   7    8.16    1.73
  -5   3   9   12.78    2.08
  -5   3   9   18.91    2.10
   5  -3  -8    3.05    1.53
  -5   3   8    3.69    1.92
  -5   3   8    3.91    1.62
   5  -3  -7   29.72    4.05
  -5   3   7   40.80    5.02
  -5   3   7   36.14    3.89
  -5   3   6   54.29    6.28
  -5   3   6   50.26    4.96
  -5   3   5   56.05    6.17
  -5   3   5   41.77    4.69
  -5   3   4   10.15    2.66
  -5   3   4    7.07    2.52
  -5   3   3   88.20    6.78
  -5   3   3   70.44    6.62
  -5   3   3   72.17    7.79
  -5   3   3   95.92    7.35
  -5   3   2  915.67   46.62
  -5   3   2  922.81   46.12
  -5   3   1  339.39   21.76
   5  -3  -1  393.56   21.32
  -5   3   1  329.18   20.96
   5  -3   0    1.91    1.24
  -5   3   0    3.70    2.30
   5  -3   0    3.07    1.53
  -5   3   0    3.38    1.67
  -5   3   0    2.66    2.60
   5  -3   1   54.96    5.90
  -5   3  -1   39.79    5.68
   5  -3   1   51.59    5.28
   5  -3   1   48.81    4.66
  -5   3  -2  136.76   10.95
   5  -3   2  150.34   11.50
  -5   3  -2  115.60   10.71
   5  -3   2  154.68   11.01
   5  -3   3  102.09    7.68
  -5   3  -3   95.23    8.40
   5  -3   3   72.82    7.65
  -5   3  -3   39.36    5.86
  -5   3  -3   89.27    7.53
  -5   3  -3   43.81    5.79
   5  -3   3  108.13    7.66
   5  -3   3  101.87    8.01
   5  -3   4    2.77    1.90
  -5   3  -4    1.44    2.44
  -5   3  -4    3.82    1.99
  -5   3  -4    1.23    2.12
   5  -3   4    2.98    1.68
   5  -3   4    2.78    1.82
   5  -3   5   49.13    5.08
  -5   3  -5   38.02    5.38
  -5   3  -5   37.26    5.09
   5  -3   5   43.11    4.23
  -5   3  -6   60.36    6.21
  -5   3  -7   36.17    3.89
   5  -3   7   38.13    3.64
  -5   2  10   42.15    3.38
  -5   2   9   47.42    4.73
  -5   2   9   53.07    4.26
  -5   2   8    2.87    1.44
  -5   2   7   19.33    2.99
  -5   2   6   19.74    3.06
  -5   2   5    3.79    1.87
  -5   2   4   19.80    3.11
  -5   2   4   13.36    3.26
  -5   2   3   87.24    6.69
  -5   2   3   63.80    7.24
  -5   2   3   81.54    6.64
  -5   2   2  262.55   17.64
  -5   2   2  308.76   19.38
  -5   2   2  286.76   17.35
   5  -2  -1  227.59   15.52
  -5   2   1  356.51   18.16
  -5   2   1  211.34   17.51
  -5   2   1  328.94   16.99
  -5   2   0   37.35    4.59
  -5   2   0   27.44    4.53
  -5   2   0   38.70    3.99
   5  -2   0   25.79    3.40
  -5   2  -1    0.23    1.49
   5  -2   1   -0.36    1.50
  -5   2  -1   -0.34    1.68
  -5   2  -1   -0.38    1.65
   5  -2   1    0.87    1.25
  -5   2  -2   90.76    8.65
   5  -2   2   98.44    7.89
   5  -2   2  106.93    8.88
  -5   2  -2  115.76    8.70
  -5   2  -2   76.03    7.58
   5  -2   2  112.50    8.36
   5  -2   2   92.24    7.81
   5  -2   3  169.51   11.59
  -5   2  -3  136.48   12.20
  -5   2  -3  144.11   11.14
   5  -2   3  183.22   12.02
  -5   2  -4   49.56    6.54
   5  -2   4   55.49    5.62
   5  -2   4   53.95    5.78
   5  -2   4   55.39    5.03
  -5   2  -5   14.85    3.62
   5  -2   5   17.42    2.72
  -5   2  -6    8.30    2.59
   5  -2   6    8.58    1.61
   5  -2   6   10.61    2.39
   5  -2   7   20.82    2.81
  -5   1  10    6.36    1.61
  -5   1  10    5.46    1.21
  -5   1   9   24.20    3.00
  -5   1   8   24.41    3.39
  -5   1   7   17.62    3.05
  -5   1   6    9.96    2.24
  -5   1   6   14.09    2.62
  -5   1   5  120.78    9.42
  -5   1   4  135.22   11.10
  -5   1   4  160.63   10.55
  -5   1   3   76.02    6.24
  -5   1   3   62.35    6.85
  -5   1   3   75.14    6.08
  -5   1   2    5.86    2.04
  -5   1   2    4.73    1.56
   5  -1  -1   89.58    7.46
  -5   1   1  138.42    8.83
  -5   1   1   89.10    8.37
  -5   1   1  127.84    7.87
   5  -1  -1   79.40    6.79
  -5   1   0   80.54    6.97
   5  -1   0   77.64    6.91
  -5   1   0   70.89    7.25
   5  -1   0   87.81    6.67
  -5   1  -1   56.46    6.27
   5  -1   1   63.44    5.65
   5  -1   1   60.00    5.95
  -5   1  -1   66.52    6.11
  -5   1  -1   54.22    5.64
   5  -1   1   62.99    5.93
   5  -1   1   56.78    5.39
   5  -1   2   21.43    3.27
  -5   1  -2   22.10    4.19
  -5   1  -2   18.55    3.01
   5  -1   2   26.82    3.76
   5  -1   3   11.42    2.71
  -5   1  -3   14.85    3.94
  -5   1  -3    5.81    2.50
   5  -1   3   11.73    2.90
   5  -1   3   10.40    2.58
  -5   1  -4   84.07    8.66
   5  -1   4   94.34    7.74
   5  -1   4   90.89    7.29
  -5   1  -5   28.94    4.49
   5  -1   5   31.08    3.76
   5  -1   5   30.60    4.01
   5  -1   6    3.58    1.84
   5  -1   6    6.35    1.43
   5  -1   6    7.49    1.99
  -5   0  10   21.25    2.49
  -5   0   9    9.13    2.10
  -5   0   8    6.85    2.09
  -5   0   7   47.65    5.04
  -5   0   6   25.97    3.51
  -5   0   6   23.87    3.41
  -5   0   5   -0.23    1.56
  -5   0   4   75.45    7.16
  -5   0   4   67.37    6.78
  -5   0   4   85.27    6.34
  -5   0   3  178.26   12.71
  -5   0   3  202.00   11.52
  -5   0   2  295.48   17.37
  -5   0   2  240.24   15.13
   5   0  -1   27.76    3.12
  -5   0   1   30.85    4.20
  -5   0   0   37.06    4.51
   5   0   0   24.47    3.18
  -5   0   0   31.48    4.03
   5   0   0   25.81    3.45
   5   0   1   59.98    5.43
  -5   0  -1   71.69    7.24
  -5   0  -1   56.04    5.49
  -5   0  -1   46.46    6.21
   5   0   1   62.21    5.85
   5   0   2   99.22    7.56
  -5   0  -2   92.90    9.03
   5   0   2  103.60    8.01
   5   0   2   96.14    7.89
  -5   0  -3    4.80    3.25
  -5   0  -3    3.34    2.22
   5   0   3    6.13    2.35
   5   0   3    6.56    2.24
   5   0   3    7.72    2.39
  -5   0  -4    9.06    3.06
   5   0   4    7.75    2.48
   5   0   4    6.49    2.10
   5   0   4    9.09    2.20
   5   0   4    6.80    1.74
   5   0   5    5.04    1.73
   5   0   5    3.97    1.72
   5   0   6   25.81    2.73
  -5  -1  10   17.07    2.40
  -5  -1   9    2.54    1.52
  -5  -1   8    0.62    1.40
  -5  -1   7   43.89    4.35
  -5  -1   7   45.64    4.91
  -5  -1   6   59.02    5.55
  -5  -1   6   47.36    5.07
  -5  -1   5  147.51   10.72
  -5  -1   5  127.23    9.96
  -5  -1   4   41.45    4.96
  -5  -1   4   38.39    4.98
  -5  -1   3   41.94    5.43
  -5  -1   2  693.27   40.08
  -5  -1   2  757.10   40.85
  -5  -1   2  713.44   42.00
  -5  -1   1  159.22   11.92
  -5  -1   1  159.61   11.60
   5   1  -1  166.59   10.88
   5   1   0    3.11    1.35
  -5  -1   0    3.85    2.45
   5   1   0    2.50    1.68
  -5  -1   0    4.12    1.88
   5   1   0    3.76    1.65
  -5  -1   0    3.91    2.12
  -5  -1  -1   30.57    4.93
  -5  -1  -1   22.09    3.18
  -5  -1  -1   19.94    3.95
   5   1   1   26.64    3.80
   5   1   1   26.38    3.55
  -5  -1  -1   23.20    4.17
   5   1   2   42.61    4.32
  -5  -1  -2   48.82    6.37
  -5  -1  -2   42.53    5.33
   5   1   2   49.34    5.35
   5   1   2   40.40    4.45
   5   1   2   49.48    5.38
  -5  -1  -3   26.27    4.71
   5   1   3   13.40    2.60
   5   1   3   26.00    3.91
   5   1   3   23.22    3.24
   5   1   4   47.70    4.79
   5   1   4   36.83    4.03
   5   1   4   44.28    4.00
  -5  -1  -4   39.54    5.17
  -5  -1  -5    3.66    1.77
   5   1   5    5.19    1.36
  -5  -1  -5    5.62    1.86
  -5  -2  10   28.70    3.11
  -5  -2   9    6.99    2.02
  -5  -2   8    4.97    1.95
  -5  -2   7   18.75    2.95
  -5  -2   7   18.95    3.13
  -5  -2   6   50.22    5.22
  -5  -2   6   39.35    4.48
  -5  -2   6   44.85    4.78
  -5  -2   5   23.48    3.83
  -5  -2   5   22.48    3.76
  -5  -2   4   39.42    4.87
  -5  -2   4   33.67    4.94
  -5  -2   4   28.10    3.75
  -5  -2   3    6.21    2.12
  -5  -2   3    5.69    2.70
  -5  -2   3    7.47    2.62
  -5  -2   3    5.52    1.98
  -5  -2   2  148.50   11.13
  -5  -2   2  140.01   10.50
   5   2  -2  130.19    9.56
  -5  -2   2  134.65   10.45
  -5  -2   1   84.52    8.46
  -5  -2   1   83.42    7.52
  -5  -2   1   91.17    8.79
   5   2  -1   98.57    7.55
   5   2  -1  108.27    8.08
  -5  -2   1   78.26    7.92
  -5  -2   0   63.27    7.28
  -5  -2   0   61.84    5.76
  -5  -2   0   61.60    6.77
   5   2   0   55.06    5.62
   5   2   0   57.87    6.00
  -5  -2   0   59.45    7.02
   5   2   1    0.19    1.38
  -5  -2  -1    1.54    2.48
  -5  -2  -1    1.38    2.10
   5   2   1    1.20    1.68
  -5  -2  -1    1.95    2.71
  -5  -2  -2   18.91    4.27
   5   2   2   18.41    3.23
  -5  -2  -2   16.31    3.17
   5   2   2   19.87    3.14
  -5  -2  -2   20.96    4.50
   5   2   2   21.67    2.83
   5   2   3   42.43    4.74
   5   2   3   52.26    4.75
  -5  -2  -3   53.00    6.23
  -5  -2  -4    8.93    2.37
  -5  -2  -4   11.20    2.62
   5   2   4    8.23    1.45
  -5  -3  10    4.85    1.45
  -5  -3   9   16.01    2.61
  -5  -3   8   38.04    4.29
  -5  -3   7   21.46    3.26
  -5  -3   7   17.25    3.05
  -5  -3   6   26.86    3.96
  -5  -3   6   22.14    3.49
  -5  -3   6   18.20    3.11
  -5  -3   5   26.23    4.17
  -5  -3   5   22.34    3.98
  -5  -3   5   19.82    3.19
  -5  -3   4   46.85    6.07
   5   3  -4   47.54    4.53
  -5  -3   4   38.92    5.01
  -5  -3   3   56.99    6.02
  -5  -3   3   51.23    6.59
   5   3  -3   51.86    5.04
  -5  -3   3   44.74    5.61
  -5  -3   2  324.83   20.48
  -5  -3   2  316.12   19.38
   5   3  -2  283.35   17.98
   5   3  -2  285.51   18.52
  -5  -3   2  321.23   20.33
  -5  -3   1   87.21    8.46
  -5  -3   1   80.78    6.90
  -5  -3   1   75.29    7.81
   5   3  -1   62.71    6.03
   5   3  -1   63.60    6.34
  -5  -3   1   84.33    8.37
   5   3   0   41.14    4.56
  -5  -3   0   42.34    5.95
  -5  -3   0   31.31    4.00
  -5  -3   0   39.83    5.21
   5   3   0   36.44    4.32
   5   3   0   41.33    4.81
  -5  -3   0   43.33    6.14
  -5  -3  -1   38.39    5.56
  -5  -3  -1   38.95    4.76
   5   3   1   34.34    4.09
   5   3   1   39.53    4.54
  -5  -3  -1   46.92    6.32
   5   3   1   39.91    4.25
   5   3   2   18.86    3.05
   5   3   2   15.41    2.65
   5   3   2   23.02    3.08
  -5  -3  -2   17.47    3.88
  -5  -3  -3   79.31    6.90
   5   3   3   88.07    6.14
  -5  -3  -3   91.45    7.51
  -5  -4  10   63.25    4.70
   5   4  -9   10.04    1.75
  -5  -4   9   13.28    2.26
  -5  -4   8   17.75    2.59
  -5  -4   8   13.01    2.46
  -5  -4   7   53.39    5.33
  -5  -4   7   40.39    4.70
   5   4  -6   55.04    5.17
  -5  -4   6   63.41    6.27
  -5  -4   6   53.60    5.75
  -5  -4   6   47.26    5.24
   5   4  -5    6.07    2.14
  -5  -4   5    6.57    2.85
  -5  -4   5   11.07    3.06
  -5  -4   5    7.90    2.28
  -5  -4   5    6.53    2.47
  -5  -4   4   16.82    3.92
   5   4  -4   19.78    2.89
  -5  -4   4   15.26    3.45
   5   4  -3   37.33    4.59
  -5  -4   3   45.52    5.35
   5   4  -3   37.46    4.05
  -5  -4   3   38.37    5.38
   5   4  -3   39.90    4.57
  -5  -4   2   47.81    5.32
  -5  -4   2   48.58    6.34
   5   4  -2   47.86    4.80
  -5  -4   2   54.86    6.61
   5   4  -2   43.19    4.89
  -5  -4   1   24.00    4.53
  -5  -4   1   19.70    3.24
  -5  -4   1   25.31    4.17
   5   4  -1   30.53    3.84
  -5  -4   1   30.37    5.05
   5   4  -1   25.48    3.59
   5   4   0    1.11    1.44
  -5  -4   0    0.29    2.24
   5   4   0    3.08    2.12
  -5  -4   0    2.07    1.85
  -5  -4   0    1.29    2.49
   5   4   1   19.41    2.98
  -5  -4  -1   14.44    2.41
   5   4   1   17.26    2.59
  -5  -4  -1   21.94    3.99
   5   4   2   42.67    3.78
   5   4   2   42.00    3.72
  -5  -4  -2   46.54    4.68
   5   5  -9   13.49    1.85
  -5  -5   9   12.47    1.90
  -5  -5   8    2.98    1.44
  -5  -5   7   28.38    3.71
   5   5  -7   24.43    3.22
  -5  -5   7   17.43    2.86
  -5  -5   6  128.42   10.06
  -5  -5   6  117.60    9.31
   5   5  -6  135.25    9.07
  -5  -5   5   20.21    3.85
   5   5  -5   22.56    3.38
   5   5  -5   26.14    3.40
   5   5  -4   13.27    2.68
   5   5  -4   11.19    2.82
  -5  -5   4   18.32    3.91
  -5  -5   4   18.47    3.38
  -5  -5   4   13.18    3.25
   5   5  -3    3.23    1.83
   5   5  -3    4.28    2.21
  -5  -5   3    4.09    2.11
  -5  -5   3    2.71    2.30
   5   5  -3    3.58    1.52
   5   5  -2   17.28    3.32
  -5  -5   2   19.93    3.06
  -5  -5   2   25.40    3.92
   5   5  -2   16.20    2.66
  -5  -5   2   24.36    4.20
  -5  -5   1   51.74    5.04
   5   5  -1   41.26    3.88
   5   5  -1   44.64    4.30
  -5  -5   1   54.89    5.91
   5   5  -1   45.61    4.35
   5   5   0    1.13    1.43
  -5  -5   0    0.42    1.63
   5   5   0    1.89    1.15
   5   5   1    0.30    0.89
  -5  -5  -1    0.61    1.18
   5   6  -8   12.22    1.90
   5   6  -7    5.34    1.52
   5   6  -6    9.99    2.16
   5   6  -5   33.96    3.86
   5   6  -4   17.45    2.84
   5   6  -4   20.78    2.81
   5   6  -3    5.28    1.90
   5   6  -3    5.97    1.55
  -5  -6   3    9.06    2.47
   5   6  -2    4.18    1.63
   5   6  -2    2.30    0.94
  -5  -6   2    2.50    1.65
   5   6  -2    2.79    0.96
  -5  -6   1   13.95    2.15
   6  -8  -1    3.03    1.14
  -6   8   1    2.78    1.08
   6  -8  -1    5.00    1.22
   6  -8   0    2.36    1.16
  -6   8   0    4.04    1.08
  -6   8   0    1.85    1.24
   6  -8   0    4.59    1.28
  -6   8  -1    9.57    1.68
   6  -8   1    7.79    1.50
   6  -8   2   10.68    1.73
  -6   8  -2   22.65    2.41
  -6   8  -2   12.42    2.13
   6  -8   2   20.13    2.07
   6  -8   3   21.21    2.10
  -6   8  -3   18.40    2.12
   6  -7  -4    1.55    0.86
   6  -7  -3   27.29    3.03
  -6   7   2   42.70    4.48
   6  -7  -2   68.79    5.30
  -6   7   1   28.61    3.07
  -6   7   1   24.39    3.74
   6  -7  -1   36.42    3.98
   6  -7  -1   36.72    3.92
   6  -7   0    8.06    2.10
  -6   7   0    7.31    1.96
   6  -7   0    6.94    2.15
  -6   7   0    5.22    2.50
   6  -7   1    6.45    1.60
   6  -7   1    7.76    2.24
  -6   7  -1    8.51    2.33
  -6   7  -1    5.69    2.47
   6  -7   1    6.98    1.95
   6  -7   2   26.42    2.71
   6  -7   2   22.87    3.23
  -6   7  -2   16.17    3.26
   6  -7   2   22.56    2.97
   6  -7   3   13.45    1.79
   6  -7   3   12.20    2.21
  -6   7  -3   19.91    2.75
  -6   7  -3    8.44    2.05
   6  -7   3   15.38    2.23
  -6   7  -4    6.33    1.47
   6  -7   4    3.56    1.08
   6  -6  -6    0.26    0.60
   6  -6  -5    3.28    1.19
  -6   6   5    5.97    1.29
   6  -6  -4   13.58    2.43
  -6   6   4   20.51    2.58
   6  -6  -3    9.55    2.29
   6  -6  -3    9.54    2.38
  -6   6   3   12.54    2.30
  -6   6   3    7.03    2.10
   6  -6  -2    0.99    1.54
  -6   6   2    0.07    1.15
   6  -6  -2    0.21    1.57
  -6   6   2    0.78    1.34
  -6   6   2   -0.48    1.76
   6  -6  -1    9.84    2.43
  -6   6   1   13.90    2.64
   6  -6  -1    7.80    2.44
  -6   6   1   14.69    2.72
  -6   6   1    5.99    2.85
  -6   6   0   26.62    3.88
   6  -6   0   24.69    3.69
   6  -6   0   23.93    3.43
   6  -6   1    4.54    2.28
  -6   6  -1    5.33    2.43
  -6   6  -1    3.83    2.59
   6  -6   2    4.53    1.62
   6  -6   2    3.14    2.05
   6  -6   2    5.68    1.52
  -6   6  -2    6.50    2.65
   6  -6   3   56.08    4.76
   6  -6   3   60.17    5.56
  -6   6  -3   71.99    5.94
   6  -6   3   56.43    5.12
   6  -6   4   37.51    3.42
   6  -6   4   31.16    3.16
  -6   5   7    6.38    1.07
   6  -5  -6    6.34    1.64
  -6   5   6   13.41    2.02
   6  -5  -5    6.38    1.88
  -6   5   5   14.86    2.51
   6  -5  -4   10.36    2.42
  -6   5   4   10.31    2.33
   6  -5  -3   38.06    4.53
  -6   5   3   27.25    4.36
   6  -5  -3   28.66    4.02
  -6   5   2   40.08    4.30
  -6   5   2   32.05    5.27
   6  -5  -2   26.14    3.93
  -6   5   2   46.30    4.90
   6  -5  -2   35.06    4.31
   6  -5  -1    2.94    1.63
  -6   5   1    2.47    2.02
   6  -5  -1    4.32    2.02
  -6   5   1    3.83    2.08
  -6   5   1    2.85    2.97
  -6   5   0   55.35    6.27
  -6   5   0   58.07    7.37
   6  -5   0   48.25    5.31
   6  -5   0   49.32    5.02
  -6   5  -1   76.79    8.66
   6  -5   1   77.32    7.33
   6  -5   2   71.92    6.47
  -6   5  -2   60.42    7.03
   6  -5   2   71.75    6.17
   6  -5   2   83.52    7.03
   6  -5   3    5.31    1.81
  -6   5  -3    3.51    2.08
   6  -5   3    3.28    1.45
  -6   5  -3    1.71    1.59
   6  -5   4   22.54    2.91
  -6   5  -4   24.82    3.19
   6  -5   6    2.24    0.88
  -6   4   8    4.65    1.02
   6  -4  -7   19.08    2.64
  -6   4   7   36.70    3.32
   6  -4  -6    2.42    1.45
  -6   4   6    0.72    1.39
  -6   4   6    1.55    1.74
  -6   4   5    1.60    1.64
  -6   4   5    0.41    1.24
  -6   4   4   16.45    3.32
  -6   4   3   20.65    2.97
   6  -4  -3   14.65    2.82
  -6   4   3   20.82    4.27
   6  -4  -2    2.10    1.63
  -6   4   2    8.84    2.64
   6  -4  -2    2.53    1.74
  -6   4   2   10.14    2.72
  -6   4   2   10.20    3.83
  -6   4   1   46.49    5.74
   6  -4  -1   51.40    5.04
  -6   4   1   49.79    5.28
   6  -4  -1   43.50    4.67
   6  -4   0    0.88    1.26
  -6   4   0    1.61    2.44
  -6   4   0    0.95    1.79
  -6   4   0    3.17    3.06
   6  -4   0    1.69    1.75
   6  -4   1   60.65    6.42
  -6   4  -1   49.96    6.82
   6  -4   1   58.24    5.81
   6  -4   2   42.06    5.18
  -6   4  -2   48.97    5.60
  -6   4  -2   26.14    4.33
   6  -4   2   35.58    4.24
   6  -4   2   33.71    4.42
   6  -4   3   27.02    3.69
  -6   4  -3   34.47    4.32
   6  -4   3   27.09    3.54
   6  -4   3   31.95    4.06
   6  -4   4    1.76    1.44
  -6   4  -4   -0.38    1.40
   6  -4   4    0.40    0.92
  -6   4  -5   14.30    2.45
  -6   3   8    5.43    1.52
  -6   3   8   10.01    1.83
  -6   3   7    7.19    2.02
  -6   3   7   13.94    2.54
  -6   3   6   41.74    4.94
  -6   3   6   72.82    6.02
  -6   3   5   32.66    4.12
  -6   3   5   33.94    4.29
  -6   3   4    5.70    2.58
  -6   3   4    9.26    2.57
  -6   3   3  272.55   17.27
  -6   3   3  279.98   19.49
  -6   3   3  273.64   17.52
  -6   3   2  330.72   18.84
  -6   3   2  324.80   20.73
  -6   3   2  319.42   18.11
  -6   3   1  103.71    8.55
  -6   3   1   80.02    8.89
  -6   3   1   87.97    7.23
   6  -3   0   38.16    4.91
  -6   3   0   53.99    6.12
  -6   3   0   40.28    5.95
  -6   3   0   44.24    4.89
   6  -3   0   28.56    4.04
   6  -3   1    4.22    1.89
   6  -3   1    3.71    2.17
  -6   3  -1    3.58    2.50
   6  -3   1    4.65    1.91
   6  -3   2   15.13    2.95
   6  -3   2   17.04    3.43
  -6   3  -2   13.65    3.24
   6  -3   2   16.54    3.11
  -6   3  -2    8.61    2.61
   6  -3   2   16.31    2.99
  -6   3  -3   41.94    5.19
   6  -3   3   49.65    4.99
   6  -3   3   56.47    5.37
   6  -3   3   49.80    4.50
  -6   3  -4   14.33    2.98
  -6   3  -4   11.03    2.61
   6  -3   4   20.73    2.73
  -6   3  -5   16.58    2.86
   6  -3   5   18.67    2.14
   6  -3   5   24.25    3.05
   6  -3   6   12.52    1.73
  -6   2   9    8.55    1.51
  -6   2   9   12.40    1.71
  -6   2   8   20.35    2.82
  -6   2   8   18.10    2.71
  -6   2   7   33.71    4.23
  -6   2   7   56.51    5.07
  -6   2   6   12.24    2.56
  -6   2   6   11.36    2.30
  -6   2   6   17.97    3.13
  -6   2   5   45.24    5.58
  -6   2   5   62.44    5.81
  -6   2   4   75.79    8.29
  -6   2   4  106.88    8.02
  -6   2   3   35.70    5.29
  -6   2   3   10.58    2.74
  -6   2   2  188.11   11.37
  -6   2   2  154.08   10.01
   6  -2  -1   21.58    3.44
  -6   2   1   43.55    5.21
  -6   2   1   32.34    5.09
  -6   2   1   35.27    4.09
   6  -2  -1   17.46    2.88
   6  -2   0   44.35    4.81
   6  -2   0   48.93    5.38
  -6   2   0   48.54    6.01
   6  -2   0   42.82    4.58
  -6   2  -1   20.67    3.38
   6  -2   1   28.17    3.69
   6  -2   1   27.77    4.08
  -6   2  -1   20.50    3.76
   6  -2   1   27.57    3.62
   6  -2   2    4.69    1.97
  -6   2  -2    3.25    2.09
  -6   2  -2    2.92    1.69
   6  -2   3   22.17    3.30
  -6   2  -3   18.00    3.55
  -6   2  -3   10.24    3.00
   6  -2   3   20.15    3.17
   6  -2   3   17.48    2.77
  -6   2  -4   28.36    4.21
   6  -2   4   38.38    3.93
   6  -2   5   73.79    5.17
   6  -2   5   79.79    5.79
  -6   1   9    2.14    1.14
  -6   1   9    3.62    1.28
  -6   1   8   16.31    2.59
  -6   1   8    7.24    2.02
  -6   1   7   55.72    5.41
  -6   1   6   21.11    3.33
  -6   1   6   31.08    3.97
  -6   1   5    1.96    2.11
  -6   1   5    0.50    1.44
  -6   1   4   69.07    7.14
  -6   1   4   70.23    6.06
  -6   1   3 1461.63   63.92
  -6   1   3  986.25   59.78
  -6   1   2  272.37   19.62
  -6   1   2  308.61   17.98
   6  -1  -1    1.59    1.27
   6  -1  -1    0.20    1.27
  -6   1   1    1.72    2.16
   6  -1   0   30.02    3.70
  -6   1   0   27.86    4.33
   6  -1   0   36.40    4.44
   6  -1   1   89.01    7.09
  -6   1  -1   76.27    7.68
  -6   1  -1   75.57    7.05
   6  -1   1  100.21    7.82
   6  -1   2    3.15    1.62
  -6   1  -2    3.88    2.75
  -6   1  -2    1.73    2.23
   6  -1   2    2.80    1.90
   6  -1   2    3.45    1.88
   6  -1   2    2.71    1.88
  -6   1  -3    4.08    2.50
  -6   1  -3    2.81    1.91
   6  -1   3    4.57    1.87
   6  -1   3    3.54    1.75
   6  -1   3    4.03    1.67
  -6   1  -4   14.68    3.10
   6  -1   4   17.52    2.56
   6  -1   4   13.98    2.34
   6  -1   5   26.40    2.50
   6  -1   5   22.98    2.48
  -6   0   9    4.10    1.31
  -6   0   8    0.61    1.24
  -6   0   7   50.23    4.81
  -6   0   7   65.67    5.48
  -6   0   6   65.71    6.45
  -6   0   6   75.12    6.21
  -6   0   5   20.68    3.42
  -6   0   5   21.05    3.79
  -6   0   5   29.02    3.39
  -6   0   4    5.96    2.66
  -6   0   4    3.93    2.68
  -6   0   3   47.97    6.30
  -6   0   2  116.00    9.81
  -6   0   2  113.32   10.61
  -6   0   1   39.06    4.61
   6   0  -1   34.07    3.65
  -6   0   1   47.70    5.42
   6   0  -1   37.80    4.28
  -6   0   0   -0.14    1.69
   6   0   0    0.56    1.07
  -6   0   0    1.15    2.30
   6   0   0    1.47    1.61
  -6   0   0    1.57    1.68
   6   0   0    1.78    1.37
   6   0   1   53.80    5.07
  -6   0  -1   56.03    5.25
  -6   0  -1   49.85    6.40
   6   0   1   60.56    5.88
   6   0   1   59.87    5.62
   6   0   1   64.32    6.04
  -6   0  -2   70.82    7.23
   6   0   2   78.25    6.40
  -6   0  -3   21.98    3.12
   6   0   3   28.74    3.60
   6   0   3   24.14    2.91
   6   0   3   29.11    3.45
  -6   0  -4    3.17    1.77
   6   0   4    5.64    1.53
   6   0   4    4.48    1.21
  -6  -1   7   11.14    2.32
  -6  -1   6   37.07    4.64
  -6  -1   5   99.99    8.42
  -6  -1   5   79.65    7.62
  -6  -1   4   70.29    7.09
  -6  -1   4   60.99    6.94
  -6  -1   3  261.05   16.21
  -6  -1   3  271.58   17.39
  -6  -1   2   53.93    5.42
  -6  -1   2   54.20    5.85
  -6  -1   2   62.54    7.12
   6   1  -2   47.26    4.82
   6   1  -2   45.24    4.50
  -6  -1   1   52.25    5.96
  -6  -1   1   49.12    5.42
  -6  -1   1   51.36    6.55
   6   1  -1   53.55    5.31
   6   1  -1   53.77    4.92
  -6  -1   0   44.46    5.74
  -6  -1   0   43.05    4.61
  -6  -1   0   38.34    5.46
   6   1   0   43.72    4.75
   6   1   0   37.56    4.12
  -6  -1  -1   26.01    4.41
  -6  -1  -1   19.44    3.62
   6   1   1   23.36    3.38
  -6  -1  -2   20.62    3.92
  -6  -1  -2   19.48    3.14
   6   1   2   21.02    3.09
   6   1   2   24.69    3.34
  -6  -1  -3   39.74    4.81
   6   1   3   45.85    3.83
  -6  -1  -4   24.14    2.86
  -6  -2   7   54.20    5.22
  -6  -2   6    5.95    2.00
  -6  -2   6    7.49    2.41
  -6  -2   5   30.97    4.54
  -6  -2   5   28.01    4.38
  -6  -2   4   63.35    7.21
  -6  -2   3   37.41    5.03
  -6  -2   3   40.33    5.78
  -6  -2   2   14.36    3.22
   6   2  -2   14.55    2.49
  -6  -2   2   19.78    3.40
   6   2  -2   17.42    2.91
  -6  -2   1   11.48    3.12
  -6  -2   1   12.09    3.42
   6   2  -1    8.60    2.01
  -6  -2   1   14.32    2.74
   6   2  -1    8.65    2.35
  -6  -2   0   41.38    5.44
  -6  -2   0   33.10    3.72
  -6  -2   0   32.72    4.62
   6   2   0   32.84    3.87
   6   2   0   35.90    4.25
  -6  -2  -1   36.77    5.14
  -6  -2  -1   36.94    4.36
   6   2   1   38.87    4.03
   6   2   1   38.68    4.06
   6   2   1   37.07    3.64
  -6  -2  -2   26.84    3.88
   6   2   2   26.90    3.16
   6   2   2   26.16    2.97
   6   2   2   26.81    2.96
  -6  -2  -3    0.97    1.22
  -6  -3   8   26.95    2.90
  -6  -3   7   64.00    5.84
  -6  -3   6   40.36    4.82
  -6  -3   6   39.57    4.58
  -6  -3   5   17.66    3.62
  -6  -3   5   20.28    3.64
  -6  -3   4    5.35    2.58
   6   3  -4    4.67    1.51
  -6  -3   3   29.11    4.05
  -6  -3   3   34.22    5.08
   6   3  -3   23.37    3.18
  -6  -3   2   18.89    3.11
  -6  -3   2   20.89    4.05
   6   3  -2   16.71    2.74
  -6  -3   2   21.85    3.48
   6   3  -2   18.00    2.93
   6   3  -1    2.78    1.57
  -6  -3   1    3.72    2.34
  -6  -3   1    4.29    2.23
   6   3  -1    2.42    1.19
  -6  -3   1    3.10    1.58
   6   3  -1    2.23    1.46
  -6  -3   1    3.67    1.99
   6   3  -1    2.52    1.57
   6   3   0    2.74    1.32
  -6  -3   0    4.61    2.34
  -6  -3   0    3.90    1.85
   6   3   0    2.71    1.20
  -6  -3   0    4.04    2.03
  -6  -3  -1   18.01    2.99
   6   3   1   16.84    2.44
  -6  -3  -1   13.77    2.14
   6   3   1   16.82    2.27
   6   3   2    1.26    0.75
  -6  -4   8    2.34    1.14
  -6  -4   7    9.51    2.30
   6   4  -6   19.59    2.72
  -6  -4   6   31.07    3.96
  -6  -4   6   26.53    3.55
   6   4  -5   21.31    3.07
   6   4  -5   23.92    3.10
   6   4  -4    7.04    1.94
   6   4  -4    9.60    2.43
  -6  -4   4    8.12    2.75
  -6  -4   4    9.35    2.56
   6   4  -4    5.26    1.46
   6   4  -3   14.17    2.56
   6   4  -3   16.02    2.90
  -6  -4   3   16.14    2.87
   6   4  -3   15.31    2.38
  -6  -4   3   14.55    2.75
   6   4  -2   43.81    4.66
  -6  -4   2   39.09    4.06
  -6  -4   2   42.20    4.86
   6   4  -2   40.49    3.96
  -6  -4   2   40.82    4.54
   6   4  -2   43.09    4.10
  -6  -4   1   33.33    3.71
   6   4  -1   23.48    2.49
   6   4  -1   25.81    2.91
  -6  -4   1   26.81    3.39
   6   4  -1   27.06    2.93
   6   4   0    2.70    1.31
   6   4   0    1.80    1.01
   6   5  -7    3.51    1.11
   6   5  -7    1.87    0.92
  -6  -5   6    1.83    1.54
   6   5  -6    4.37    1.44
  -6  -5   5   26.08    3.48
   6   5  -5   22.72    2.92
   6   5  -5   23.08    2.65
   6   5  -4   31.46    3.43
  -6  -5   4   39.65    3.83
   6   5  -4   33.06    3.42
   6   5  -4   31.44    3.24
   6   5  -3   51.13    4.49
  -6  -5   3   55.68    4.85
   6   5  -3   46.66    3.96
   6   5  -3   47.73    4.02
   6   5  -2    6.84    1.60
  -6  -5   2    8.23    1.66
   7  -7  -2    0.65    0.81
   7  -7  -2    1.20    0.72
   7  -7  -1   26.99    2.40
   7  -7  -1   24.16    2.43
   7  -7   0   38.71    3.29
  -7   7   0   38.21    3.23
   7  -7   0   42.62    3.49
   7  -7   1   11.14    1.43
   7  -7   1    7.56    1.56
  -7   7  -1   10.87    1.70
  -7   7  -1    5.84    1.56
   7  -7   1    9.75    1.53
  -7   6   4   24.28    2.31
   7  -6  -4   18.70    2.17
   7  -6  -3    1.24    1.05
  -7   6   3    0.95    1.07
  -7   6   3    2.56    1.17
   7  -6  -2    7.17    1.69
  -7   6   2    7.66    2.11
   7  -6  -2    7.64    1.69
   7  -6  -1    5.71    1.92
  -7   6   1    4.92    1.59
  -7   6   1    7.34    2.39
   7  -6  -1    7.00    1.73
   7  -6   0   26.90    3.06
   7  -6   0   30.91    3.66
  -7   6   0   28.39    3.36
  -7   6   0   25.75    3.83
   7  -6   0   22.90    2.66
   7  -6   0   29.53    3.27
   7  -6   1   46.86    3.96
   7  -6   1   40.58    4.26
  -7   6  -1   35.28    4.36
   7  -6   1   40.74    3.50
   7  -6   1   43.45    4.04
   7  -6   2    4.65    1.26
   7  -6   2    5.10    1.38
   7  -6   3    8.06    1.28
  -7   5   6   10.84    1.39
   7  -5  -6    8.08    1.24
   7  -5  -5    0.44    0.89
  -7   5   5    0.55    1.05
  -7   5   4   49.98    4.72
   7  -5  -4   76.27    5.30
  -7   5   3   84.27    7.57
   7  -5  -3  103.75    7.13
  -7   5   2   34.16    3.63
  -7   5   2   39.97    5.15
   7  -5  -2   28.44    3.53
   7  -5  -2   40.07    3.92
   7  -5  -1   46.84    4.85
  -7   5   1   38.89    4.43
   7  -5  -1   39.80    4.16
   7  -5  -1   33.24    3.51
   7  -5   0   -0.41    1.47
  -7   5   0    0.74    1.82
  -7   5   0   -0.27    1.94
   7  -5   0    0.67    1.18
   7  -5   1    7.18    2.10
  -7   5  -1    8.53    2.56
   7  -5   1    6.55    1.64
  -7   5  -1    5.05    2.25
   7  -5   1    7.47    1.89
   7  -5   2   22.64    2.69
  -7   5  -2   15.26    2.55
   7  -5   2   22.29    2.57
   7  -5   3   22.94    2.44
   7  -5   3   16.33    1.83
  -7   4   7   13.50    1.65
   7  -4  -6   24.42    2.76
  -7   4   6   36.59    3.32
  -7   4   5   52.46    4.40
   7  -4  -5   39.95    3.70
   7  -4  -4    5.61    1.58
  -7   4   4    6.60    2.23
  -7   4   4    9.29    2.24
  -7   4   3   24.48    3.33
  -7   4   3   16.78    3.69
   7  -4  -3   14.04    2.38
   7  -4  -3   17.48    2.49
   7  -4  -2   19.54    3.38
  -7   4   2   37.69    4.19
  -7   4   2   42.25    5.60
  -7   4   2   34.23    3.99
   7  -4  -2   21.31    3.07
   7  -4  -2   19.90    2.69
   7  -4  -1   56.83    5.66
   7  -4  -1   36.60    4.57
   7  -4   0    5.25    1.74
   7  -4   0    6.55    2.12
  -7   4   0    7.22    2.69
  -7   4   0    4.00    2.64
   7  -4   0    4.06    1.63
   7  -4   1   31.47    3.62
   7  -4   1   28.56    3.89
  -7   4  -1   25.97    3.86
   7  -4   1   32.98    3.67
   7  -4   1   30.55    3.54
   7  -4   2   47.43    4.35
   7  -4   2   53.84    4.49
  -7   4  -3   23.16    3.44
   7  -4   3   39.08    3.21
   7  -4   4   40.89    3.38
  -7   3   8    3.14    0.83
  -7   3   7    1.70    1.20
  -7   3   6    5.76    1.84
  -7   3   5   17.00    2.86
  -7   3   4  176.67   12.46
   7  -3  -4  134.31   10.20
   7  -3  -3  134.60   11.13
  -7   3   3  175.19   13.47
   7  -3  -2    1.05    1.48
  -7   3   2    1.58    1.72
   7  -3  -2    0.72    1.09
   7  -3  -1   28.05    3.53
   7  -3  -1   31.68    3.95
  -7   3   1   37.91    5.47
   7  -3  -1   23.85    3.17
   7  -3   0   56.62    5.18
   7  -3   0   56.01    5.53
  -7   3   0   57.90    6.24
   7  -3   0   50.16    4.87
   7  -3   1   23.52    3.23
  -7   3  -1   19.64    3.33
   7  -3   2    0.23    1.13
  -7   3  -2    0.38    1.87
   7  -3   2    0.31    1.14
   7  -3   2    1.43    1.36
   7  -3   2    1.05    0.99
   7  -3   3   15.10    2.18
  -7   3  -3   10.16    2.28
   7  -3   3   13.60    2.00
   7  -3   4   36.23    3.01
  -7   2   8   38.25    3.23
  -7   2   7   35.99    3.62
  -7   2   6    8.31    1.90
  -7   2   6   13.59    2.39
  -7   2   5    1.44    1.78
  -7   2   5    0.97    1.34
  -7   2   4   68.67    7.00
  -7   2   4   78.71    6.10
  -7   2   3   14.11    3.63
  -7   2   3   20.85    3.00
  -7   2   3   20.95    4.31
   7  -2  -2   15.99    2.51
  -7   2   2   16.72    2.77
  -7   2   2   14.55    3.81
   7  -2  -1    0.08    1.15
   7  -2  -1   -0.76    1.31
  -7   2   1    0.57    1.99
   7  -2   0   44.16    4.38
  -7   2   0   39.28    4.92
   7  -2   0   49.91    4.90
   7  -2   1   91.93    6.89
  -7   2  -1   84.04    6.84
  -7   2  -1   78.10    8.15
   7  -2   1   96.42    7.33
   7  -2   2   48.92    4.35
  -7   2  -2   37.57    4.88
   7  -2   2   46.64    4.47
   7  -2   2   48.41    4.58
   7  -2   2   46.62    4.23
  -7   2  -3    1.53    1.19
   7  -2   3    2.59    1.17
   7  -2   3    1.91    1.04
   7  -2   3    2.68    0.90
  -7   1   8   25.01    2.44
  -7   1   7   33.30    3.35
  -7   1   6   42.53    4.45
  -7   1   6   39.92    3.96
  -7   1   5   16.04    3.26
  -7   1   5   17.88    2.59
  -7   1   4   -0.63    1.77
  -7   1   4    2.29    2.39
  -7   1   4    0.66    1.17
  -7   1   3   14.89    3.63
  -7   1   3   16.18    2.41
   7  -1  -2   32.97    3.50
  -7   1   2   47.04    5.67
  -7   1   2   43.67    6.08
   7  -1  -1   34.25    3.64
  -7   1   1   41.69    5.04
  -7   1   1   38.55    5.93
   7  -1  -1   42.99    4.42
   7  -1   0    8.21    1.78
  -7   1   0    5.70    2.88
   7  -1   0    9.10    2.28
  -7   1   0    8.98    2.29
   7  -1   0    7.17    1.92
   7  -1   1    6.05    1.59
  -7   1  -1    3.94    2.40
   7  -1   1    5.64    1.92
   7  -1   1    8.47    2.02
   7  -1   1    7.41    2.00
  -7   1  -2   39.11    4.29
  -7   1  -2   42.87    4.61
  -7   1  -3   20.02    2.58
   7  -1   3   28.61    2.74
  -7   0   7    0.13    1.02
  -7   0   6   38.65    4.49
  -7   0   5   50.28    5.57
  -7   0   5   42.61    4.73
  -7   0   4   59.47    6.49
  -7   0   4   52.19    6.12
  -7   0   3  105.21    8.74
  -7   0   3  105.98    9.33
   7   0  -3   82.66    6.77
  -7   0   2   25.91    3.90
  -7   0   2   24.02    4.62
   7   0  -2   18.84    2.87
   7   0  -2   22.71    2.92
  -7   0   1   66.56    5.93
   7   0  -1   65.67    5.59
   7   0  -1   50.56    4.97
  -7   0   0   15.39    3.33
   7   0   0   15.88    2.62
   7   0   0   14.00    2.31
  -7   0   0   14.10    2.40
   7   0   0   15.15    2.69
  -7   0  -1   24.29    3.43
  -7   0  -1   25.18    3.65
   7   0   1   24.97    3.08
   7   0   1   26.37    3.22
  -7   0  -2    0.93    1.25
  -7   0  -2    0.95    1.13
   7   0   2    1.97    1.15
   7   0   2    1.53    1.03
   7   0   2    1.05    0.92
  -7  -1   7   17.71    2.56
  -7  -1   6    7.99    2.47
  -7  -1   5   25.56    3.89
  -7  -1   5   19.12    3.33
  -7  -1   4  254.26   17.29
  -7  -1   3    9.31    3.15
   7   1  -3   11.03    1.93
  -7  -1   3    8.90    2.64
  -7  -1   2    3.08    2.39
   7   1  -2    1.25    1.11
  -7  -1   2    2.27    1.79
   7   1  -2    1.87    1.49
  -7  -1   1   25.97    3.31
  -7  -1   1   23.95    4.22
   7   1  -1   27.55    3.22
   7   1  -1   23.25    3.47
   7   1   0   31.95    3.23
  -7  -1   0   35.00    4.04
  -7  -1   0   36.97    4.37
   7   1   0   35.38    3.55
  -7  -1  -1    1.32    1.35
  -7  -1  -1    2.21    1.35
   7   1   1    3.36    1.26
   7   1   1    4.35    1.47
   7   1   1    4.79    1.36
   7   1   2    6.49    1.18
  -7  -2   7   40.69    3.95
  -7  -2   6   31.74    3.94
  -7  -2   5    0.22    1.57
  -7  -2   5    2.88    1.98
  -7  -2   4   66.45    6.20
  -7  -2   4   75.27    6.85
   7   2  -4   53.12    4.86
  -7  -2   3   86.16    7.09
  -7  -2   3   90.93    8.14
   7   2  -3   80.67    6.40
  -7  -2   2   32.59    3.68
   7   2  -2   31.72    3.47
   7   2  -1    7.22    1.69
  -7  -2   1    9.30    2.49
   7   2  -1    6.50    1.40
  -7  -2   1    6.87    1.59
   7   2  -1    6.07    1.62
   7   2  -1    7.29    1.78
  -7  -2   0   36.31    3.66
   7   2   0   32.30    2.88
   7   2   0   36.47    2.92
   7   2   1   18.03    1.84
  -7  -3   7    7.40    1.79
   7   3  -6   57.99    4.49
  -7  -3   6   44.30    4.31
   7   3  -5   58.31    5.00
  -7  -3   5   72.42    6.05
   7   3  -4  115.17    8.14
   7   3  -4  116.39    8.31
  -7  -3   4  129.39    8.88
  -7  -3   4  130.71    9.43
   7   3  -3   15.59    2.53
  -7  -3   3   18.24    2.59
  -7  -3   3   19.06    3.16
   7   3  -3   12.55    1.94
   7   3  -2   24.35    2.89
  -7  -3   2   17.77    2.25
  -7  -3   2   23.37    3.19
   7   3  -2   23.77    2.50
   7   3  -2   21.24    2.42
  -7  -3   1   30.46    3.28
   7   3  -1   35.76    3.01
   7   3  -1   35.45    2.88
  -7  -4   6    8.44    1.74
  -7  -4   5   32.00    3.11
  -7  -4   5   28.77    3.02
   7   4  -5   24.14    2.42
  -7  -4   4   32.12    3.08
  -7  -4   4   40.03    3.68
   7   4  -4   31.61    2.86
   8  -5  -3    3.67    0.96
  -8   5   3    6.20    1.49
   8  -5  -2   39.84    3.35
  -8   5   2   48.68    4.11
   8  -5  -2   41.37    3.47
   8  -5  -1   64.37    4.39
   8  -5  -1   40.53    3.98
  -8   5   1   93.67    5.68
  -8   5   1   77.93    5.16
   8  -5  -1   50.53    4.14
   8  -5   0    3.08    0.95
  -8   5   0   -0.20    1.03
  -8   5   0    1.70    1.11
   8  -5   0    3.10    0.94
   8  -5   1    3.05    0.82
  -8   4   5   56.07    4.04
   8  -4  -4   17.98    1.86
  -8   4   4   14.07    2.09
  -8   4   3    3.15    1.53
   8  -4  -2    4.25    1.24
  -8   4   2    5.03    1.63
   8  -4  -1   21.41    2.42
  -8   4   1   24.73    3.28
  -8   4   1   23.45    3.31
   8  -4   0   46.18    3.64
  -8   4   0   41.09    3.87
   8  -4   0   47.65    3.78
   8  -4   1    7.82    1.32
  -8   4  -1    7.69    1.92
   8  -4   1    9.01    1.41
   8  -4   1   10.44    1.51
  -8   3   5    9.94    1.71
  -8   3   5   16.06    1.92
  -8   3   4    3.50    1.63
   8  -3  -3   17.05    2.07
  -8   3   3   18.73    2.69
   8  -3  -2   25.65    2.61
  -8   3   2   26.02    3.65
  -8   3   2   23.81    3.49
   8  -3  -2   23.71    2.87
   8  -3  -1    3.49    1.14
  -8   3   1    4.22    2.06
  -8   3   1    2.54    1.64
   8  -3  -1    4.29    1.37
   8  -3   0   21.40    2.33
  -8   3   0   19.78    2.53
   8  -3   0   23.62    2.64
   8  -3   0   22.33    2.41
   8  -3   1   33.36    2.81
   8  -3   1   39.82    3.19
   8  -3   1   35.48    2.75
  -8   2   6   21.95    2.14
  -8   2   5   21.37    2.76
  -8   2   4   20.04    3.08
  -8   2   4   11.29    2.00
  -8   2   3   23.25    3.29
   8  -2  -3   20.01    2.59
  -8   2   2   78.79    6.62
  -8   2   2   78.91    6.99
   8  -2  -2   68.99    5.58
  -8   2   1    5.84    2.36
   8  -2  -1    5.21    1.49
  -8   2   1    5.66    1.81
   8  -2  -1    5.89    1.50
   8  -2   0    1.73    1.12
  -8   2   0    0.35    0.90
   8  -2   0    1.38    1.01
   8  -2   0    1.22    0.96
  -8   2  -1   11.01    2.04
   8  -2   1   11.03    1.47
  -8   1   6   20.58    2.39
  -8   1   5   82.73    6.54
  -8   1   4   29.31    3.42
   8  -1  -4   24.27    2.62
  -8   1   3    0.11    1.62
   8  -1  -3    0.06    0.89
  -8   1   3   -0.20    1.60
   8  -1  -3   -0.17    0.84
  -8   1   2   27.44    3.46
  -8   1   2   28.52    4.08
   8  -1  -2   24.79    2.84
   8  -1  -2   27.87    2.83
  -8   1   1   33.32    3.38
   8  -1  -1   34.19    3.26
   8  -1  -1   31.29    3.01
   8  -1  -1   33.52    3.38
  -8   1   0   34.87    4.03
   8  -1   0   42.78    3.57
   8  -1   0   44.41    3.65
   8  -1   1    3.76    0.95
  -8   0   6    0.95    1.08
  -8   0   5   27.44    3.40
  -8   0   4   11.32    2.37
  -8   0   3   24.37    3.22
  -8   0   3   23.04    3.48
   8   0  -3   18.36    2.48
  -8   0   2    7.11    2.39
   8   0  -2    4.71    1.17
  -8   0   2    6.08    1.68
   8   0  -2    6.25    1.53
  -8   0   1   26.63    2.68
   8   0  -1   34.70    2.89
   8   0  -1   36.20    3.21
  -8   0   0   29.97    3.08
   8   0   0   30.57    2.75
   8   0   0   32.43    2.70
  -8  -1   6   30.67    3.11
  -8  -1   5    6.38    1.41
  -8  -1   5    7.98    1.90
  -8  -1   4    4.83    1.79
  -8  -1   4    5.40    1.73
   8   1  -4    4.12    1.08
  -8  -1   3   27.92    3.02
  -8  -1   3   27.01    3.39
   8   1  -3   24.26    2.53
   8   1  -2   34.70    2.93
  -8  -1   2   33.33    2.97
  -8  -1   2   34.92    3.82
   8   1  -2   36.07    3.05
   8   1  -2   31.98    2.96
  -8  -1   1   14.71    2.12
   8   1  -1   12.47    1.59
   8   1  -1   17.39    1.77
   8   2  -5   44.12    3.37
   8   2  -4   16.75    1.91
  -8  -2   4   19.46    2.25
   8   2  -3    4.70    1.00
   0   0   0    0.00    0.00


TITL exp_2558 in P-1
REM P-1 (#2 in standard setting)
CELL 1.54184   7.022132   7.910153   9.501712 106.6592 105.2344 101.1700
ZERR    2.00   0.000420   0.000679   0.000503   0.0067   0.0053   0.0061
LATT  1
SFAC C H N O
UNIT 22.00 20.00 2.00 2.00
TREF
HKLF 4
END
_computing_structure_solution     'SHELXT 2014/5 (Sheldrick, 2014)'
;
_shelx_hkl_checksum              87340
_olex2_submission_special_instructions 'No special instructions were received'
_oxdiff_exptl_absorpt_empirical_details
;
Empirical correction (ABSPACK) includes:
- Absorption correction using spherical harmonics
- Frame scaling
;
_oxdiff_exptl_absorpt_empirical_full_max 3.023
_oxdiff_exptl_absorpt_empirical_full_min 0.609
loop_
_space_group_symop_operation_xyz
'x, y, z'
loop_
_atom_site_label
_atom_site_type_symbol
_atom_site_fract_x
_atom_site_fract_y
_atom_site_fract_z
_atom_site_U_iso_or_equiv
_atom_site_adp_type
_atom_site_occupancy
_atom_site_site_symmetry_order
_atom_site_calc_flag
_atom_site_refinement_flags_posn
_atom_site_refinement_flags_adp
_atom_site_refinement_flags_occupancy
_atom_site_disorder_assembly
_atom_site_disorder_group
S1 S -0.1007(3) 0.3467(3) -0.0550(2) 0.0358(6) Uani 1 1 d . . . . .
H1 H -0.244951 0.211833 -0.099616 0.043 Uiso 1 1 calc R U . . .
O1 O 0.1459(9) 0.1910(8) -0.2069(7) 0.0339(14) Uani 1 1 d . . . . .
C1 C 0.4894(12) 0.2221(11) 0.1779(10) 0.0288(17) Uani 1 1 d . . . . .
C2 C 0.6721(14) 0.1865(12) 0.2470(13) 0.041(2) Uani 1 1 d . . . . .
H2 H 0.745189 0.135910 0.185742 0.049 Uiso 1 1 calc R U . . .
C3 C 0.7436(15) 0.2268(14) 0.4063(12) 0.045(2) Uani 1 1 d . . . . .
H3 H 0.860749 0.196486 0.450933 0.054 Uiso 1 1 calc R U . . .
C4 C 0.6415(17) 0.3131(14) 0.5023(12) 0.048(3) Uani 1 1 d . . . . .
H4 H 0.694140 0.344872 0.610037 0.057 Uiso 1 1 calc R U . . .
C5 C 0.4624(15) 0.3498(12) 0.4342(11) 0.038(2) Uani 1 1 d . . . . .
H5 H 0.392326 0.403445 0.496760 0.045 Uiso 1 1 calc R U . . .
C6 C 0.3844(12) 0.3078(11) 0.2727(10) 0.0299(17) Uani 1 1 d . . . . .
C7 C 0.1991(13) 0.3447(11) 0.1968(11) 0.0301(18) Uani 1 1 d . . . . .
H7 H 0.128330 0.399869 0.257914 0.036 Uiso 1 1 calc R U . . .
C8 C 0.1250(12) 0.3035(10) 0.0437(11) 0.0305(18) Uani 1 1 d . . . . .
C9 C 0.2334(12) 0.2225(10) -0.0494(10) 0.0294(17) Uani 1 1 d . . . . .
C10 C 0.4118(12) 0.1821(11) 0.0118(10) 0.0265(16) Uani 1 1 d . . . . .
H10 H 0.480859 0.130094 -0.052328 0.032 Uiso 1 1 calc R U . . .
C11 C 0.2638(16) 0.1412(15) -0.3052(12) 0.042(2) Uani 1 1 d . . . . .
H11A H 0.181264 0.111044 -0.411991 0.063 Uiso 1 1 calc R U . . .
H11B H 0.305837 0.036322 -0.292951 0.063 Uiso 1 1 calc R U . . .
H11C H 0.383662 0.242909 -0.276664 0.063 Uiso 1 1 calc R U . . .
S2 S 0.1601(3) -0.3709(3) -0.2897(3) 0.0453(7) Uani 1 1 d . . . . .
H2A H 0.053296 -0.483495 -0.259406 0.054 Uiso 1 1 calc R U . . .
O2 O 0.5023(9) -0.2054(9) -0.3526(7) 0.0365(14) Uani 1 1 d . . . . .
C12 C 0.6792(14) -0.2808(11) 0.0737(11) 0.0328(18) Uani 1 1 d . . . . .
C13 C 0.4713(13) -0.3324(12) -0.0245(12) 0.0330(19) Uani 1 1 d . . . . .
H13 H 0.368136 -0.387061 0.006628 0.040 Uiso 1 1 calc R U . . .
C14 C 0.4173(12) -0.3052(12) -0.1615(12) 0.0341(19) Uani 1 1 d . . . . .
C15 C 0.5741(14) -0.2240(12) -0.2105(11) 0.0341(19) Uani 1 1 d . . . . .
C16 C 0.7799(13) -0.1754(11) -0.1224(10) 0.0293(18) Uani 1 1 d . . . . .
H16 H 0.881073 -0.128148 -0.158813 0.035 Uiso 1 1 calc R U . . .
C17 C 0.8371(13) -0.1985(11) 0.0278(10) 0.0287(17) Uani 1 1 d . . . . .
C18 C 1.0438(15) -0.1465(13) 0.1204(13) 0.042(2) Uani 1 1 d . . . . .
H18 H 1.145889 -0.092975 0.087686 0.051 Uiso 1 1 calc R U . . .
C19 C 1.0973(17) -0.1742(14) 0.2607(11) 0.046(2) Uani 1 1 d . . . . .
H19 H 1.235133 -0.138475 0.323107 0.055 Uiso 1 1 calc R U . . .
C20 C 0.9418(17) -0.2572(14) 0.3093(12) 0.046(2) Uani 1 1 d . . . . .
H20 H 0.978176 -0.278155 0.402908 0.056 Uiso 1 1 calc R U . . .
C21 C 0.7383(16) -0.3069(12) 0.2200(11) 0.040(2) Uani 1 1 d . . . . .
H21 H 0.637368 -0.358219 0.254798 0.048 Uiso 1 1 calc R U . . .
C22 C 0.6491(16) -0.1399(15) -0.4149(12) 0.043(2) Uani 1 1 d . . . . .
H22A H 0.581304 -0.154961 -0.521494 0.065 Uiso 1 1 calc R U . . .
H22B H 0.748019 -0.208428 -0.410668 0.065 Uiso 1 1 calc R U . . .
H22C H 0.718264 -0.011653 -0.355255 0.065 Uiso 1 1 calc R U . . .
loop_
_atom_site_aniso_label
_atom_site_aniso_U_11
_atom_site_aniso_U_22
_atom_site_aniso_U_33
_atom_site_aniso_U_23
_atom_site_aniso_U_13
_atom_site_aniso_U_12
S1 0.0264(10) 0.0437(12) 0.0437(12) 0.0197(9) 0.0140(9) 0.0154(9)
O1 0.030(3) 0.044(3) 0.033(3) 0.014(2) 0.015(3) 0.017(3)
C1 0.023(4) 0.029(4) 0.035(4) 0.011(3) 0.013(3) 0.005(3)
C2 0.029(4) 0.036(5) 0.058(6) 0.020(4) 0.010(4) 0.011(4)
C3 0.033(5) 0.050(5) 0.046(5) 0.024(4) 0.002(4) 0.008(4)
C4 0.046(5) 0.045(5) 0.039(5) 0.019(4) -0.001(4) 0.001(4)
C5 0.039(5) 0.033(4) 0.034(4) 0.011(4) 0.008(4) 0.003(4)
C6 0.025(4) 0.021(3) 0.041(4) 0.009(3) 0.011(3) 0.003(3)
C7 0.023(4) 0.024(4) 0.041(5) 0.006(3) 0.012(3) 0.007(3)
C8 0.024(4) 0.022(4) 0.049(5) 0.014(3) 0.019(4) 0.005(3)
C9 0.026(4) 0.026(4) 0.034(4) 0.007(3) 0.012(3) 0.005(3)
C10 0.023(4) 0.027(4) 0.031(4) 0.010(3) 0.011(3) 0.007(3)
C11 0.040(5) 0.058(6) 0.036(5) 0.017(4) 0.023(4) 0.019(4)
S2 0.0257(11) 0.0537(14) 0.0625(16) 0.0300(12) 0.0157(11) 0.0095(9)
O2 0.027(3) 0.049(4) 0.037(3) 0.020(3) 0.011(3) 0.011(3)
C12 0.037(4) 0.023(4) 0.042(4) 0.014(3) 0.017(4) 0.009(3)
C13 0.021(4) 0.031(4) 0.054(5) 0.023(4) 0.018(4) 0.005(3)
C14 0.019(4) 0.034(4) 0.052(5) 0.014(4) 0.019(4) 0.009(3)
C15 0.030(4) 0.033(4) 0.045(5) 0.017(4) 0.014(4) 0.014(3)
C16 0.030(4) 0.025(4) 0.037(4) 0.015(3) 0.016(4) 0.004(3)
C17 0.029(4) 0.024(4) 0.034(4) 0.010(3) 0.013(3) 0.004(3)
C18 0.030(5) 0.036(5) 0.054(6) 0.014(4) 0.013(4) 0.002(4)
C19 0.046(6) 0.045(5) 0.036(5) 0.014(4) 0.006(4) -0.001(4)
C20 0.054(6) 0.044(5) 0.039(5) 0.018(4) 0.013(4) 0.011(4)
C21 0.047(5) 0.036(5) 0.045(5) 0.019(4) 0.021(5) 0.012(4)
C22 0.037(5) 0.060(6) 0.037(5) 0.022(4) 0.017(4) 0.013(4)
loop_
_atom_type_symbol
_atom_type_description
_atom_type_scat_dispersion_real
_atom_type_scat_dispersion_imag
_atom_type_scat_source
C C 0.0181 0.0091 'International Tables Vol C Tables 4.2.6.8 and 6.1.1.4'
H H 0.0000 0.0000 'International Tables Vol C Tables 4.2.6.8 and 6.1.1.4'
O O 0.0492 0.0322 'International Tables Vol C Tables 4.2.6.8 and 6.1.1.4'
S S 0.3331 0.5567 'International Tables Vol C Tables 4.2.6.8 and 6.1.1.4'
loop_
_geom_angle_atom_site_label_1
_geom_angle_atom_site_label_2
_geom_angle_atom_site_label_3
_geom_angle
_geom_angle_site_symmetry_1
_geom_angle_site_symmetry_3
_geom_angle_publ_flag
C8 S1 H1 109.5 . . ?
C9 O1 C11 117.7(7) . . ?
C2 C1 C6 119.8(8) . . ?
C2 C1 C10 121.0(8) . . ?
C6 C1 C10 119.1(7) . . ?
C1 C2 H2 120.1 . . ?
C3 C2 C1 119.8(10) . . ?
C3 C2 H2 120.1 . . ?
C2 C3 H3 119.5 . . ?
C2 C3 C4 120.9(9) . . ?
C4 C3 H3 119.5 . . ?
C3 C4 H4 120.4 . . ?
C5 C4 C3 119.1(9) . . ?
C5 C4 H4 120.4 . . ?
C4 C5 H5 119.4 . . ?
C4 C5 C6 121.2(10) . . ?
C6 C5 H5 119.4 . . ?
C1 C6 C7 117.9(8) . . ?
C5 C6 C1 119.0(8) . . ?
C5 C6 C7 123.1(9) . . ?
C6 C7 H7 118.6 . . ?
C8 C7 C6 122.9(8) . . ?
C8 C7 H7 118.6 . . ?
C7 C8 S1 124.7(7) . . ?
C7 C8 C9 118.9(7) . . ?
C9 C8 S1 116.4(7) . . ?
O1 C9 C8 114.0(7) . . ?
C10 C9 O1 123.4(7) . . ?
C10 C9 C8 122.7(8) . . ?
C1 C10 H10 120.7 . . ?
C9 C10 C1 118.5(7) . . ?
C9 C10 H10 120.7 . . ?
O1 C11 H11A 109.5 . . ?
O1 C11 H11B 109.5 . . ?
O1 C11 H11C 109.5 . . ?
H11A C11 H11B 109.5 . . ?
H11A C11 H11C 109.5 . . ?
H11B C11 H11C 109.5 . . ?
C14 S2 H2A 109.5 . . ?
C15 O2 C22 117.5(7) . . ?
C13 C12 C21 123.0(9) . . ?
C17 C12 C13 119.4(8) . . ?
C17 C12 C21 117.6(8) . . ?
C12 C13 H13 118.8 . . ?
C14 C13 C12 122.5(8) . . ?
C14 C13 H13 118.8 . . ?
C13 C14 S2 124.1(7) . . ?
C13 C14 C15 119.0(8) . . ?
C15 C14 S2 116.8(7) . . ?
O2 C15 C14 114.2(8) . . ?
O2 C15 C16 124.4(8) . . ?
C16 C15 C14 121.4(8) . . ?
C15 C16 H16 120.3 . . ?
C15 C16 C17 119.4(8) . . ?
C17 C16 H16 120.3 . . ?
C12 C17 C16 118.2(8) . . ?
C18 C17 C12 121.3(8) . . ?
C18 C17 C16 120.4(8) . . ?
C17 C18 H18 120.0 . . ?
C19 C18 C17 120.1(10) . . ?
C19 C18 H18 120.0 . . ?
C18 C19 H19 120.1 . . ?
C18 C19 C20 119.8(10) . . ?
C20 C19 H19 120.1 . . ?
C19 C20 H20 119.7 . . ?
C21 C20 C19 120.6(9) . . ?
C21 C20 H20 119.7 . . ?
C12 C21 H21 119.7 . . ?
C20 C21 C12 120.6(10) . . ?
C20 C21 H21 119.7 . . ?
O2 C22 H22A 109.5 . . ?
O2 C22 H22B 109.5 . . ?
O2 C22 H22C 109.5 . . ?
H22A C22 H22B 109.5 . . ?
H22A C22 H22C 109.5 . . ?
H22B C22 H22C 109.5 . . ?
loop_
_geom_bond_atom_site_label_1
_geom_bond_atom_site_label_2
_geom_bond_distance
_geom_bond_site_symmetry_2
_geom_bond_publ_flag
S1 H1 1.2000 . ?
S1 C8 1.767(9) . ?
O1 C9 1.386(10) . ?
O1 C11 1.426(11) . ?
C1 C2 1.400(12) . ?
C1 C6 1.417(12) . ?
C1 C10 1.443(11) . ?
C2 H2 0.9300 . ?
C2 C3 1.381(14) . ?
C3 H3 0.9300 . ?
C3 C4 1.410(17) . ?
C4 H4 0.9300 . ?
C4 C5 1.381(15) . ?
C5 H5 0.9300 . ?
C5 C6 1.401(13) . ?
C6 C7 1.440(11) . ?
C7 H7 0.9300 . ?
C7 C8 1.326(13) . ?
C8 C9 1.411(12) . ?
C9 C10 1.374(11) . ?
C10 H10 0.9300 . ?
C11 H11A 0.9600 . ?
C11 H11B 0.9600 . ?
C11 H11C 0.9600 . ?
S2 H2A 1.2000 . ?
S2 C14 1.770(9) . ?
O2 C15 1.372(11) . ?
O2 C22 1.404(12) . ?
C12 C13 1.415(12) . ?
C12 C17 1.407(13) . ?
C12 C21 1.429(13) . ?
C13 H13 0.9300 . ?
C13 C14 1.347(13) . ?
C14 C15 1.418(12) . ?
C15 C16 1.379(13) . ?
C16 H16 0.9300 . ?
C16 C17 1.452(12) . ?
C17 C18 1.393(13) . ?
C18 H18 0.9300 . ?
C18 C19 1.379(14) . ?
C19 H19 0.9300 . ?
C19 C20 1.413(16) . ?
C20 H20 0.9300 . ?
C20 C21 1.368(15) . ?
C21 H21 0.9300 . ?
C22 H22A 0.9600 . ?
C22 H22B 0.9600 . ?
C22 H22C 0.9600 . ?
loop_
_geom_torsion_atom_site_label_1
_geom_torsion_atom_site_label_2
_geom_torsion_atom_site_label_3
_geom_torsion_atom_site_label_4
_geom_torsion
_geom_torsion_site_symmetry_1
_geom_torsion_site_symmetry_2
_geom_torsion_site_symmetry_3
_geom_torsion_site_symmetry_4
_geom_torsion_publ_flag
S1 C8 C9 O1 0.8(9) . . . . ?
S1 C8 C9 C10 179.7(6) . . . . ?
O1 C9 C10 C1 179.6(7) . . . . ?
C1 C2 C3 C4 -3.6(14) . . . . ?
C1 C6 C7 C8 -0.6(12) . . . . ?
C2 C1 C6 C5 -2.1(11) . . . . ?
C2 C1 C6 C7 178.9(7) . . . . ?
C2 C1 C10 C9 -179.0(7) . . . . ?
C2 C3 C4 C5 3.0(15) . . . . ?
C3 C4 C5 C6 -1.9(14) . . . . ?
C4 C5 C6 C1 1.5(12) . . . . ?
C4 C5 C6 C7 -179.6(8) . . . . ?
C5 C6 C7 C8 -179.5(8) . . . . ?
C6 C1 C2 C3 3.2(13) . . . . ?
C6 C1 C10 C9 -2.4(11) . . . . ?
C6 C7 C8 S1 -179.7(6) . . . . ?
C6 C7 C8 C9 -1.0(12) . . . . ?
C7 C8 C9 O1 -178.0(7) . . . . ?
C7 C8 C9 C10 0.9(12) . . . . ?
C8 C9 C10 C1 0.8(11) . . . . ?
C10 C1 C2 C3 179.7(7) . . . . ?
C10 C1 C6 C5 -178.7(7) . . . . ?
C10 C1 C6 C7 2.3(11) . . . . ?
C11 O1 C9 C8 168.9(7) . . . . ?
C11 O1 C9 C10 -10.0(12) . . . . ?
S2 C14 C15 O2 0.8(10) . . . . ?
S2 C14 C15 C16 -177.2(7) . . . . ?
O2 C15 C16 C17 178.9(7) . . . . ?
C12 C13 C14 S2 178.9(7) . . . . ?
C12 C13 C14 C15 0.8(14) . . . . ?
C12 C17 C18 C19 -0.4(15) . . . . ?
C13 C12 C17 C16 -2.0(11) . . . . ?
C13 C12 C17 C18 -179.7(8) . . . . ?
C13 C12 C21 C20 179.0(8) . . . . ?
C13 C14 C15 O2 179.0(8) . . . . ?
C13 C14 C15 C16 1.1(13) . . . . ?
C14 C15 C16 C17 -3.4(13) . . . . ?
C15 C16 C17 C12 3.8(12) . . . . ?
C15 C16 C17 C18 -178.6(8) . . . . ?
C16 C17 C18 C19 -178.0(8) . . . . ?
C17 C12 C13 C14 -0.2(13) . . . . ?
C17 C12 C21 C20 -1.5(13) . . . . ?
C17 C18 C19 C20 0.6(16) . . . . ?
C18 C19 C20 C21 -1.3(16) . . . . ?
C19 C20 C21 C12 1.8(16) . . . . ?
C21 C12 C13 C14 179.3(9) . . . . ?
C21 C12 C17 C16 178.5(8) . . . . ?
C21 C12 C17 C18 0.8(13) . . . . ?
C22 O2 C15 C14 -174.9(8) . . . . ?
C22 O2 C15 C16 2.9(13) . . . . ?
