#------------------------------------------------------------------------------
#$Date: 2022-03-22 01:14:23 +0200 (Tue, 22 Mar 2022) $
#$Revision: 273877 $
#$URL: file:///home/coder/svn-repositories/cod/cif/1/56/66/1566672.cif $
#------------------------------------------------------------------------------
#
# This file is available in the Crystallography Open Database (COD),
# http://www.crystallography.net/
#
# All data on this site have been placed in the public domain by the
# contributors.
#
data_1566672
loop_
_publ_author_name
'Nguyen, Vu T.'
'Haug, Graham C.'
'Nguyen, Viet D.'
'Vuong, Ngan T. H.'
'Karki, Guna B.'
'Arman, Hadi'
'Larionov, Oleg V.'
_publ_section_title
;
 Functional Group Divergence and the Structural Basis of Acridine
 Photocatalysis Revealed by Direct Decarboxysulfonylation
;
_journal_name_full               'Chemical Science'
_journal_paper_doi               10.1039/D2SC00789D
_journal_year                    2022
_chemical_formula_moiety         'C11 H14 O3 S'
_chemical_formula_sum            'C11 H14 O3 S'
_chemical_formula_weight         226.28
_space_group_crystal_system      triclinic
_space_group_IT_number           2
_space_group_name_Hall           '-P 1'
_space_group_name_H-M_alt        'P -1'
_atom_sites_solution_hydrogens   geom
_atom_sites_solution_primary     dual
_audit_creation_date             2020-06-24
_audit_creation_method
;
Olex2 1.3-ac4
(compiled 2019.10.09 svn.r3662 for Rigaku Oxford Diffraction, GUI svn.r5959)
;
_audit_update_record
;
2020-11-05 deposited with the CCDC.	2022-03-21 downloaded from the CCDC.
;
_cell_angle_alpha                91.8184(16)
_cell_angle_beta                 91.4466(15)
_cell_angle_gamma                103.4125(17)
_cell_formula_units_Z            2
_cell_length_a                   5.72076(11)
_cell_length_b                   8.13039(16)
_cell_length_c                   11.8424(2)
_cell_measurement_reflns_used    7153
_cell_measurement_temperature    100.00(10)
_cell_measurement_theta_max      76.0380
_cell_measurement_theta_min      3.7250
_cell_volume                     535.219(18)
_computing_cell_refinement       'CrysAlisPro 1.171.40.63a (Rigaku OD, 2019)'
_computing_data_collection       'CrysAlisPro 1.171.40.63a (Rigaku OD, 2019)'
_computing_data_reduction        'CrysAlisPro 1.171.40.63a (Rigaku OD, 2019)'
_computing_molecular_graphics    'Olex2 1.3-ac4 (Dolomanov et al., 2009)'
_computing_publication_material  'Olex2 1.3-ac4 (Dolomanov et al., 2009)'
_computing_structure_refinement  'ShelXL 2018/3 (Sheldrick, 2015)'
_computing_structure_solution    'ShelXT n/a (Sheldrick, 2015)'
_diffrn_ambient_environment      N~2~
_diffrn_ambient_temperature      100.00(10)
_diffrn_detector                 'Hybrid Pixel Array Detector'
_diffrn_detector_area_resol_mean 10.0000
_diffrn_detector_type            HyPix
_diffrn_measured_fraction_theta_full 0.997
_diffrn_measured_fraction_theta_max 0.955
_diffrn_measurement_details
;
List of Runs (angles in degrees, time in seconds):

  # Type    Start    End  Width  t~exp~   \w     \q     \k     \f   Frames
#--------------------------------------------------------------------------
  1  \w    -57.00  26.00   0.50    0.05    --  -46.87  50.00 -73.00  166
  2  \w    -57.00 -15.00   0.50    0.05    --  -88.50  50.00 -73.00   84
  3  \w    -51.00 -16.00   0.50    0.05    --  -88.50  45.00-150.00   70
  4  \w    -51.00 -16.00   0.50    0.05    --  -88.50  45.00-120.00   70
  5  \w    -71.00 -15.00   0.50    0.05    --  -88.50  61.00 -30.00  112
  6  \w    -86.00 -15.00   0.50    0.05    --  -88.50 125.00  30.00  142
  7  \w   -119.00 -33.00   0.50    0.05    --  -46.87 -44.00-163.96  172
  8  \w     32.00 120.00   0.50    0.05    --   46.87  50.00 -73.00  176
  9  \w     92.00 178.00   0.50    0.05    --  106.69  50.00 -73.00  172
 10  \w     34.00 101.00   0.50    0.05    --  106.69 -77.00 120.00  134
 11  \w     34.00 105.00   0.50    0.05    --  106.69 -94.00 150.00  142
 12  \w     34.00 101.00   0.50    0.05    --  106.69 -77.00  30.00  134
 13  \w     34.00 178.00   0.50    0.05    --  106.69   0.00  90.00  288
 14  \w     34.00  71.00   0.50    0.05    --  106.69 -61.00  30.00   74
 15  \w     34.00 106.00   0.50    0.05    --  106.69-100.00  29.22  144
 16  \w     34.00 111.00   0.50    0.05    --  106.69-125.00 150.00  154
 17  \w     34.00 111.00   0.50    0.05    --  106.69-125.00  30.00  154
 18  \w     34.00  71.00   0.50    0.05    --  106.69 -61.00 150.00   74
 19  \w     32.00 120.00   0.50    0.05    --   46.87  51.00  95.14  176
 20  \w     34.00  71.00   0.50    0.05    --  106.69 -61.00 -60.00   74
 21  \w     34.00 105.00   0.50    0.05    --  106.69 -94.00 -90.00  142
 22  \w     34.00 108.00   0.50    0.05    --  106.69-107.00-124.10  148
 23  \w     32.00 120.00   0.50    0.05    --   46.87  49.00 -30.13  176
 24  \w     32.00 120.00   0.50    0.05    --   46.87  54.00 133.94  176
 25  \w     32.00 120.00   0.50    0.05    --   46.87  53.00  23.01  176
 26  \w     32.00 120.00   0.50    0.05    --   46.87  53.00-177.98  176
 27  \w    -28.00  30.00   0.50    0.05    --   46.87 -19.00   0.00  116
 28  \w    -25.00  57.00   0.50    0.05    --   46.87 -50.00 139.00  164
 29  \w    -28.00  30.00   0.50    0.05    --   46.87 -19.00 150.00  116
 30  \w    -28.00  30.00   0.50    0.05    --   46.87 -19.00  30.00  116
 31  \w   -120.00 -32.00   0.50    0.05    --  -46.87 -50.00 139.00  176
 32  \w   -160.00 -73.00   0.50    0.05    --  -88.50 -50.00 139.00  174
 33  \w   -160.00 -91.00   0.50    0.05    --  -88.50 -61.00  90.00  138
 34  \w   -160.00 -73.00   0.50    0.05    --  -88.50 -55.00 -15.55  174
 35  \w   -160.00-101.00   0.50    0.05    --  -88.50 -77.00-150.00  118
 36  \w   -160.00 -87.00   0.50    0.05    --  -88.50-125.00 -90.00  146
 37  \w   -160.00 -72.00   0.50    0.05    --  -88.50 -54.00-130.79  176
;
_diffrn_measurement_device       'four-circle diffractometer'
_diffrn_measurement_device_type  'XtaLAB Synergy, Dualflex, HyPix'
_diffrn_measurement_method       '\w scans'
_diffrn_orient_matrix_type
'CrysAlisPro convention (1999,Acta A55,543-557)'
_diffrn_orient_matrix_UB_11      0.1069627000
_diffrn_orient_matrix_UB_12      -0.1290777000
_diffrn_orient_matrix_UB_13      -0.0669140000
_diffrn_orient_matrix_UB_21      -0.2542305000
_diffrn_orient_matrix_UB_22      -0.0923971000
_diffrn_orient_matrix_UB_23      -0.0432786000
_diffrn_orient_matrix_UB_31      0.0255891000
_diffrn_orient_matrix_UB_32      0.1131529000
_diffrn_orient_matrix_UB_33      -0.1029988000
_diffrn_radiation_monochromator  mirror
_diffrn_radiation_probe          x-ray
_diffrn_radiation_type           'Cu K\a'
_diffrn_radiation_wavelength     1.54184
_diffrn_reflns_av_R_equivalents  0.0272
_diffrn_reflns_av_unetI/netI     0.0185
_diffrn_reflns_Laue_measured_fraction_full 0.997
_diffrn_reflns_Laue_measured_fraction_max 0.955
_diffrn_reflns_limit_h_max       6
_diffrn_reflns_limit_h_min       -7
_diffrn_reflns_limit_k_max       10
_diffrn_reflns_limit_k_min       -9
_diffrn_reflns_limit_l_max       13
_diffrn_reflns_limit_l_min       -14
_diffrn_reflns_number            9842
_diffrn_reflns_point_group_measured_fraction_full 0.997
_diffrn_reflns_point_group_measured_fraction_max 0.955
_diffrn_reflns_theta_full        67.684
_diffrn_reflns_theta_max         76.351
_diffrn_reflns_theta_min         3.736
_diffrn_source                   'micro-focus sealed X-ray tube'
_diffrn_source_type              'PhotonJet (Cu) X-ray Source'
_exptl_absorpt_coefficient_mu    2.571
_exptl_absorpt_correction_T_max  1.000
_exptl_absorpt_correction_T_min  0.354
_exptl_absorpt_correction_type   gaussian
_exptl_absorpt_process_details
;
CrysAlisPro 1.171.40.63a (Rigaku Oxford Diffraction, 2019)
Numerical absorption correction based on gaussian integration over
			a multifaceted crystal model
Empirical absorption correction using spherical harmonics,
 implemented in SCALE3 ABSPACK scaling algorithm.
;
_exptl_crystal_colour            'clear colourless'
_exptl_crystal_colour_lustre     clear
_exptl_crystal_colour_primary    colourless
_exptl_crystal_density_diffrn    1.404
_exptl_crystal_description       plate
_exptl_crystal_F_000             240
_exptl_crystal_size_max          0.182
_exptl_crystal_size_mid          0.144
_exptl_crystal_size_min          0.133
_refine_diff_density_max         0.327
_refine_diff_density_min         -0.376
_refine_diff_density_rms         0.049
_refine_ls_extinction_coef       0.0041(8)
_refine_ls_extinction_expression Fc^*^=kFc[1+0.001xFc^2^\l^3^/sin(2\q)]^-1/4^
_refine_ls_extinction_method     'SHELXL-2018/3 (Sheldrick 2018)'
_refine_ls_goodness_of_fit_ref   1.038
_refine_ls_hydrogen_treatment    constr
_refine_ls_matrix_type           full
_refine_ls_number_parameters     138
_refine_ls_number_reflns         2143
_refine_ls_number_restraints     0
_refine_ls_restrained_S_all      1.038
_refine_ls_R_factor_all          0.0291
_refine_ls_R_factor_gt           0.0287
_refine_ls_shift/su_max          0.001
_refine_ls_shift/su_mean         0.000
_refine_ls_structure_factor_coef Fsqd
_refine_ls_weighting_details
'w=1/[\s^2^(Fo^2^)+(0.0416P)^2^+0.2889P] where P=(Fo^2^+2Fc^2^)/3'
_refine_ls_weighting_scheme      calc
_refine_ls_wR_factor_gt          0.0777
_refine_ls_wR_factor_ref         0.0780
_reflns_Friedel_coverage         0.000
_reflns_number_gt                2088
_reflns_number_total             2143
_reflns_threshold_expression     'I > 2\s(I)'
_cod_data_source_file            d2sc00789d2.cif
_cod_data_source_block           hpd133
_cod_original_cell_volume        535.218(18)
_cod_database_code               1566672
_shelx_shelxl_version_number     2018/3
_chemical_oxdiff_formula         'C H O S'
_chemical_oxdiff_usercomment     'VNY 130-1'
_shelx_space_group_comment
;
The symmetry employed for this shelxl refinement is uniquely defined
by the following loop, which should always be used as a source of
symmetry information in preference to the above space-group names.
They are only intended as comments.
;
_shelx_estimated_absorpt_t_max   0.726
_shelx_estimated_absorpt_t_min   0.652
_reflns_odcompleteness_completeness 100.00
_reflns_odcompleteness_iscentric 1
_reflns_odcompleteness_theta     66.97
_olex2_refinement_description
;
1. Fixed Uiso
 At 1.2 times of:
  All C(H) groups, All C(H,H) groups
 At 1.5 times of:
  All C(H,H,H) groups
2.a Secondary CH2 refined with riding coordinates:
 C8(H8A,H8B), C9(H9A,H9B), C10(H10A,H10B)
2.b Aromatic/amide H refined with riding coordinates:
 C6(H6), C5(H5), C2(H2), C3(H3), C4(H4)
2.c Idealised Me refined as rotating group:
 C11(H11A,H11B,H11C)
;
_shelx_res_file
;
TITL hpd133_a.res in P-1
    hpd133.res
    created by SHELXL-2018/3 at 17:05:55 on 24-Jun-2020
REM Old TITL hpd133 in P-1
REM SHELXT solution in P-1: R1 0.080, Rweak 0.007, Alpha 0.037
REM <I/s> 0.000 for 0 systematic absences, Orientation as input
REM Formula found by SHELXT: C11 O1 S
CELL 1.54184 5.72076 8.130387 11.842371 91.8184 91.4466 103.4125
ZERR 2 0.000107 0.000164 0.000217 0.0016 0.0015 0.0017
LATT 1
SFAC C H O S
UNIT 22 28 6 2

L.S. 4
PLAN  1
SIZE 0.133 0.144 0.182
TEMP -173.15(10)
CONF
BOND $H
MORE -1
fmap 2
acta
REM <olex2.extras>
REM <HklSrc "%.\\hpd133.hkl">
REM </olex2.extras>

WGHT    0.041600    0.288900
EXTI    0.004146
FVAR      10.52875
S1    4    0.950229    0.736971    0.916399    11.00000    0.01097    0.01567 =
         0.01207    0.00313    0.00043    0.00215
O2    3    0.952602    0.891149    0.858312    11.00000    0.02100    0.01566 =
         0.01678    0.00421   -0.00132    0.00079
O3    3    1.178172    0.711654    0.959567    11.00000    0.01256    0.02808 =
         0.01897    0.00352   -0.00143    0.00497
O1    3    0.222589    0.598258    0.612729    11.00000    0.01305    0.02640 =
         0.01908    0.00523    0.00144    0.00009
C8    1    0.644912    0.672393    0.653413    11.00000    0.01260    0.01544 =
         0.01342    0.00221    0.00096    0.00277
AFIX  23
H8A   2    0.726036    0.790985    0.674783    11.00000   -1.20000
H8B   2    0.756828    0.623759    0.607745    11.00000   -1.20000
AFIX   0
C1    1    0.448286    0.759686    0.472782    11.00000    0.01506    0.01321 =
         0.01333   -0.00072    0.00113    0.00526
C7    1    0.421503    0.670829    0.582259    11.00000    0.01456    0.01275 =
         0.01368   -0.00101    0.00099    0.00319
C9    1    0.591144    0.572654    0.760520    11.00000    0.01339    0.01635 =
         0.01223    0.00168    0.00077    0.00227
AFIX  23
H9A   2    0.494999    0.457413    0.739807    11.00000   -1.20000
H9B   2    0.493560    0.628538    0.810098    11.00000   -1.20000
AFIX   0
C10   1    0.820146    0.559252    0.825853    11.00000    0.01575    0.01500 =
         0.01334    0.00184    0.00082    0.00483
AFIX  23
H10A  2    0.940873    0.542749    0.770808    11.00000   -1.20000
H10B  2    0.782308    0.457427    0.871829    11.00000   -1.20000
AFIX   0
C6    1    0.669836    0.855731    0.439966    11.00000    0.01542    0.01647 =
         0.01586    0.00091    0.00117    0.00486
AFIX  43
H6    2    0.809387    0.864190    0.487043    11.00000   -1.20000
AFIX   0
C5    1    0.686858    0.938987    0.338662    11.00000    0.02010    0.01838 =
         0.01947    0.00338    0.00578    0.00555
AFIX  43
H5    2    0.837861    1.004443    0.316907    11.00000   -1.20000
AFIX   0
C2    1    0.244536    0.747275    0.402367    11.00000    0.01583    0.01626 =
         0.01676   -0.00128    0.00031    0.00535
AFIX  43
H2    2    0.093330    0.681676    0.423761    11.00000   -1.20000
AFIX   0
C3    1    0.262589    0.830559    0.301264    11.00000    0.02219    0.01979 =
         0.01689   -0.00163   -0.00416    0.01030
AFIX  43
H3    2    0.123613    0.821945    0.253765    11.00000   -1.20000
AFIX   0
C4    1    0.483957    0.926768    0.269231    11.00000    0.03055    0.01920 =
         0.01339    0.00367    0.00391    0.01288
AFIX  43
H4    2    0.495911    0.983803    0.200082    11.00000   -1.20000
AFIX   0
C11   1    0.755850    0.726936    1.030602    11.00000    0.01615    0.02163 =
         0.01413    0.00127    0.00264    0.00343
AFIX 137
H11A  2    0.818074    0.822656    1.083948    11.00000   -1.50000
H11B  2    0.746220    0.620700    1.069036    11.00000   -1.50000
H11C  2    0.595293    0.731880    1.002252    11.00000   -1.50000
AFIX   0
HKLF 4




REM  hpd133_a.res in P-1
REM wR2 = 0.0780, GooF = S = 1.038, Restrained GooF = 1.038 for all data
REM R1 = 0.0287 for 2088 Fo > 4sig(Fo) and 0.0291 for all 2143 data
REM 138 parameters refined using 0 restraints

END

WGHT      0.0411      0.2872

REM Highest difference peak  0.327,  deepest hole -0.376,  1-sigma level  0.049
Q1    1   0.4367  0.7221  0.5258  11.00000  0.05    0.33
;
_shelx_res_checksum              21185
_shelx_hkl_file
;
   0   0   1 93.2689 11.5133  23
   0   0   1 109.252 10.9716  29
   0   0   1 76.9942 14.9287  25
   0   0   2 26760.5 594.194  29
   0   0  -2 27811.7 616.180   7
   0   0   2 26937.3 602.746  23
   0   0   2 28943.7 649.196  25
   0   0  -2 28329.5 624.833  27
   0   0   3 43627.2 966.606  23
   0   0   3 43049.6 951.840  29
   0   0  -3 45588.2 986.569   7
   0   0   3 43550.1 1034.21  25
   0   0  -4 41562.9 962.495  27
   0   0   4 42304.2 1008.51  25
   0   0   4 38723.1 884.749  29
   0   0   4 40493.6 905.058  23
   0   0  -5 174.193 42.5001  27
   0   0   5 237.089 36.6805  23
   0   0   5 247.119 33.2283  29
   0   0   5 316.473 67.3261  25
   0   0  -6 37379.1 1084.77  36
   0   0  -6 37289.3 973.591  27
   0   0  -6 36194.0 951.508  30
   0   0  -6 35540.3 1019.38   6
   0   0   6 35239.4 1027.56  25
   0   0  -7 1241.99 144.078  35
   0   0   7 1218.74 162.115  25
   0   0  -7 1375.37 165.668   6
   0   0  -7 1293.10 178.183  36
   0   0  -7 1283.39 153.730  37
   0   0  -7 1326.69 140.525  27
   0   0  -7 1111.37 124.213  30
   0   0  -8 5550.01 356.557   6
   0   0  -8 5422.70 388.286  15
   0   0  -8 5237.76 387.556  36
   0   0   8 4868.01 349.956  25
   0   0  -8 5168.97 350.968  20
   0   0  -8 5072.57 305.546  27
   0   0  -8 5055.78 333.858  37
   0   0  -9 5827.59 406.056  17
   0   0  -9 6593.04 426.484   6
   0   0  -9 6994.85 473.439  15
   0   0  -9 6749.84 474.299  36
   0   0   9 6167.84 419.897  25
   0   0 -10 739.098 180.425  36
   0   0 -10 690.449 166.833  12
   0   0 -10 492.995 141.450  15
   0   0 -10 534.708 133.846  17
   0   0 -10 598.068 137.625   6
   0   0  11 601.554 151.858  19
   0   0 -11 524.460 155.705  36
   0   0 -11 575.726 133.368   6
   0   0 -11 652.494 166.666  15
   0   0 -11 730.930 177.695  12
   0   0 -11 672.269 146.089  17
   0   0 -12 17728.5 825.488  15
   0   0 -12 15930.3 680.878   6
   0   0 -12 15021.3 683.473  17
   0   0 -12 15613.1 728.508  14
   0   0 -12 16837.3 804.826  12
   0   0 -12 16362.9 796.736  36
   0   0 -13 3073.98 300.596  15
   0   0 -13 2839.18 285.130  12
   0   0 -13 3222.77 304.992  36
   0   0 -14 347.493 87.3896  36
   0   0 -14 137.084 62.3884  12
   0   0 -14 266.910 86.6446  15
   0   1 -14 22270.4 769.460  15
   0   1 -14 19369.1 671.321  12
   0   1 -13 35.3840 42.0660  36
   0   1 -13 18.3881 57.8338  15
   0   1 -13 28.3879 47.7265  17
   0   1 -13 79.6153 73.3090  12
   0   1 -12 2170.93 261.030  17
   0   1 -12 2135.94 228.433  14
   0   1 -12 1758.62 262.468  15
   0   1 -12 1980.28 259.695  12
   0   1 -12 2114.81 279.280  36
   0   1 -11 21098.7 938.591  36
   0  -1  11 17714.6 856.044  19
   0   1 -11 19853.5 847.228   6
   0   1 -11 19729.7 875.770  17
   0   1 -11 17551.1 745.043  16
   0   1 -11 21041.1 945.162  15
   0   1 -11 18441.9 798.005  14
   0   1 -11 21420.0 920.541  12
   0  -1  10 17377.3 821.443  19
   0   1 -10 18143.7 826.443  17
   0   1 -10 18610.2 847.519  12
   0   1 -10 17108.0 785.170   6
   0   1 -10 17770.0 775.162  14
   0   1 -10 15657.9 715.305  16
   0   1 -10 17964.0 851.571  36
   0   1 -10 17152.1 801.355  21
   0   1 -10 18130.5 854.330  15
   0   1  -9 1138.84 188.693  17
   0   1  -9 1444.61 201.110   6
   0   1  -9 1559.80 228.564  36
   0   1  -9 1246.88 204.780  12
   0   1  -9 1138.07 175.757  20
   0   1  -9 1253.95 201.292  15
   0   1  -9 1126.22 169.483  16
   0   1  -9 1365.51 203.063  21
   0   1  -8 15010.1 643.447  20
   0   1  -8 17163.0 726.289  12
   0   1  -8 16432.9 699.680  17
   0   1  -8 16631.5 694.658   6
   0   1  -8 16422.0 702.960  22
   0  -1   8 15169.0 639.639  25
   0   1  -8 16142.2 690.563  21
   0   1  -8 17587.6 742.125  15
   0   1  -8 16487.0 723.488  36
   0  -1   7 78.7355 48.2563  25
   0   1  -7 189.287 71.9713   6
   0   1  -7 157.308 68.0311  36
   0   1  -7 94.8963 33.1398  27
   0   1  -6 100028. 2300.15  36
   0   1  -6 100669. 2260.08   6
   0   1  -6 93729.0 2066.34  27
   0  -1   6 99943.5 2215.33  25
   0   1  -5 141618. 2952.51  30
   0   1  -5 140875. 2979.41  27
   0  -1   5 150594. 3106.39  25
   0  -1   5 139371. 2964.90  23
   0  -1   4 52427.2 1133.25   8
   0   1  -4 53113.2 1157.54  27
   0   1  -4 52025.0 1138.32  30
   0  -1   4 55998.5 1187.20  23
   0   1  -3 96857.1 2017.22  30
   0   1  -3 103452. 2051.61   1
   0   1  -3 105382. 2054.94  28
   0   1  -3 92224.9 2026.05  27
   0   1  -2 115625. 2413.34   1
   0   1  -2 117318. 2420.28  28
   0   1  -1 28473.8 621.870  29
   0  -1   0 9216.99 242.674   7
   0  -1   0 8483.00 224.865  26
   0   1   0 8690.06 197.385  19
   0  -1   0 8261.65 198.047  24
   0   1   0 9220.37 241.552   1
   0   1   1 74012.1 1530.05  28
   0  -1  -1 73373.4 1533.65  26
   0   1   1 75770.6 1522.44   1
   0   1   1 70803.4 1558.45  25
   0  -1  -2 233498. 4817.26   7
   0   1   2 238677. 4766.03   1
   0   1   2 230776. 4809.85  29
   0   1   2 225992. 4773.54  28
   0   1   2 240467. 4817.63  23
   0  -1  -3 103249. 2115.36   7
   0   1   3 96813.8 2019.27   1
   0   1   3 97659.1 2097.96  29
   0   1   3 94607.6 2029.50  28
   0   1   3 99424.4 2096.30  23
   0   1   3 93121.0 2159.27  25
   0   1   4 22749.8 580.055  23
   0  -1  -4 23336.7 607.218   7
   0   1   4 23008.9 664.617  25
   0  -1  -4 20318.8 481.870  31
   0   1   4 22219.8 581.693  29
   0  -1  -4 19472.5 474.328   8
   0  -1  -4 22476.6 621.634  27
   0  -1  -5 30420.0 868.245  27
   0  -1  -5 32731.2 846.249   7
   0   1   5 30868.9 809.388  29
   0   1   5 31580.9 919.356  25
   0   1   6 6396.16 280.286  29
   0  -1  -6 7081.18 344.115   6
   0   1   6 6310.76 362.472  25
   0  -1  -6 6847.24 342.296  27
   0  -1  -6 7109.71 365.655  37
   0  -1  -6 6995.38 312.654   7
   0  -1  -6 6474.64 378.338  36
   0   1   7 75716.2 1966.27  25
   0  -1  -7 70675.0 1848.07  35
   0  -1  -7 75403.7 1883.57   6
   0  -1  -7 76387.4 1896.42  27
   0  -1  -7 74912.9 1922.78  37
   0  -1  -7 79677.9 2033.97  36
   0  -1  -8 4612.05 356.176  15
   0  -1  -8 4574.67 326.948  27
   0  -1  -8 3913.59 309.106  20
   0   1   8 4413.84 343.509  25
   0  -1  -8 4183.41 305.669  30
   0  -1  -8 4234.75 360.177  36
   0  -1  -8 4591.43 317.931   6
   0  -1  -8 3858.61 312.202  37
   0   1   9 25806.1 1002.95  25
   0  -1  -9 27784.2 1089.19  36
   0  -1  -9 25590.9 936.908  27
   0  -1  -9 27345.2 943.545   6
   0  -1  -9 27279.4 1036.43  15
   0  -1  -9 25841.5 967.385  37
   0  -1 -10 887.102 152.785   6
   0  -1 -10 958.201 167.846  37
   0  -1 -10 769.521 183.840  36
   0   1  10 721.186 155.281  25
   0   1  10 847.515 187.331  19
   0  -1 -10 997.864 190.265  15
   0   1  11 20160.4 955.731  19
   0  -1 -11 19705.9 928.996  36
   0  -1 -11 20946.2 920.484  15
   0  -1 -11 19195.7 765.677   6
   0  -1 -12 1028.12 186.692  15
   0  -1 -12 968.584 186.107  36
   0  -1 -13 3411.02 290.293  14
   0  -1 -13 3681.76 321.604  36
   0  -1 -13 3766.19 329.158  12
   0  -1 -13 4470.85 340.917  15
   0  -1 -14 104.060 53.2347  36
   0  -1 -14 10.0037 33.6411  15
   0  -1 -14 33.9114 40.3164  12
   0   2 -14 1369.86 137.540  17
   0   2 -13 11212.9 517.942  12
   0   2 -13 12001.5 577.132  17
   0   2 -12 11503.0 631.667  36
   0   2 -12 11743.9 641.305  17
   0   2 -12 10909.5 575.731  12
   0   2 -12 9818.79 520.123  16
   0   2 -11 45.0845 59.9487  36
   0   2 -11 168.237 88.9017  16
   0   2 -11 68.1834 81.0721  17
   0   2 -11 281.992 112.319  21
   0   2 -11 79.6393 62.6462  12
   0   2 -10 979.550 197.937  36
   0   2 -10 1317.24 213.749  21
   0   2 -10 1163.34 196.847  12
   0   2 -10 1478.85 224.794   6
   0   2 -10 1280.37 220.068  17
   0   2 -10 1585.96 225.334  22
   0   2 -10 1302.90 210.151  16
   0   2  -9 6829.50 461.116  21
   0   2  -9 7871.28 490.403   6
   0   2  -9 7517.20 486.609  16
   0   2  -9 8003.05 495.599  12
   0   2  -9 8055.47 522.325  17
   0   2  -9 6946.96 485.981  36
   0   2  -9 6957.81 463.185  22
   0   2  -8 28056.3 998.353  12
   0   2  -8 29075.8 1021.30  22
   0   2  -8 29093.5 1044.48  17
   0   2  -8 29325.6 1015.59  21
   0   2  -8 30293.4 1059.89  15
   0   2  -8 27651.7 1009.08  16
   0   2  -8 31007.9 1041.71   6
   0   2  -8 26797.9 928.844  20
   0   2  -8 27876.3 1031.31  36
   0   2  -7 18084.8 692.626   6
   0   2  -7 16956.2 698.149  36
   0   2  -6 6453.42 355.806   6
   0  -2   6 5568.08 290.812  25
   0   2  -5 1130.38 133.381   6
   0  -2   5 1085.53 103.334  23
   0   2  -4 63.9327 26.6362   1
   0   2  -4 90.4893 29.9947  28
   0   2  -3 72557.1 1633.65   1
   0   2  -3 74463.6 1648.22  28
   0  -2   2 35300.8 806.159  26
   0  -2   2 34682.6 765.931  24
   0   2  -2 35552.3 870.115  28
   0   2  -2 33920.4 797.705  29
   0   2  -2 34956.6 855.890   1
   0  -2   1 428196. 8280.66  26
   0  -2   1 398902. 8204.39  24
   0   2  -1 416649. 8306.78  29
   0  -2   0 241169. 4978.21  26
   0   2   0 245716. 5018.87   1
   0   2   0 248249. 5018.45  29
   0  -2   0 249562. 5023.70   7
   0   2   0 233396. 4899.62  19
   0   2   0 261271. 5025.83  25
   0  -2  -1 109182. 2361.68   7
   0  -2  -1 105882. 2325.57  26
   0   2   1 102993. 2354.43  28
   0   2   2 944765. 18750.6  28
   0   2   2 924991. 18721.8   1
   0   2   3 10179.4 374.135  29
   0  -2  -3 10103.7 375.644   7
   0  -2  -3 9384.54 360.268  26
   0   2   3 10119.0 401.233  25
   0   2   3 9897.00 323.807   1
   0  -2  -3 9748.67 368.658  27
   0   2   3 9439.76 333.002  28
   0   2   4 1904.44 129.405  28
   0  -2  -4 2337.29 174.222  26
   0   2   4 1991.10 175.987  25
   0   2   4 2083.82 160.697  29
   0   2   4 1976.39 120.497   1
   0  -2  -4 2280.37 169.024   7
   0  -2  -5 71957.5 1741.27  27
   0  -2  -5 72400.3 1775.13  37
   0  -2  -5 74321.0 1728.05   7
   0   2   5 73095.2 1805.27  25
   0   2   5 73406.5 1704.60  29
   0  -2  -6 79992.8 2030.44  35
   0  -2  -6 79005.6 1974.16   6
   0  -2  -6 83165.8 2064.14  27
   0  -2  -6 84973.4 2020.72   7
   0   2   6 84773.9 1994.16  29
   0   2   6 82428.8 2115.03  25
   0  -2  -6 86202.3 2150.37  36
   0  -2  -6 83862.2 2097.30  37
   0   2   7 10494.9 544.052  25
   0  -2  -7 10394.7 510.311  27
   0  -2  -7 9612.84 453.055   6
   0  -2  -7 10053.1 552.944  36
   0  -2  -7 10040.3 463.870   7
   0  -2  -7 9890.55 520.195  37
   0   2   7 9034.15 426.746  29
   0  -2  -7 10303.3 493.532  35
   0   2   8 13751.2 684.790  25
   0  -2  -8 15482.6 689.092  27
   0  -2  -8 15194.8 750.615  36
   0  -2  -8 14158.0 681.549  37
   0  -2  -8 14942.4 607.359   6
   0  -2  -8 14674.2 671.639  30
   0  -2  -9 3018.64 310.460  37
   0  -2  -9 3233.74 317.023  15
   0  -2  -9 3423.19 355.532  36
   0  -2  -9 2793.67 294.314  27
   0  -2  -9 2656.71 280.014  30
   0   2   9 2933.88 315.589  25
   0  -2 -10 14983.4 730.333  37
   0  -2 -10 16575.4 843.847  36
   0   2  10 14920.9 758.127  25
   0  -2 -10 14651.2 725.372  27
   0  -2 -10 15750.6 761.798  15
   0  -2 -11 5336.98 413.823  15
   0  -2 -11 4542.71 416.356  36
   0  -2 -12 41.8430 55.6185  36
   0  -2 -12 102.669 70.4683  15
   0  -2 -12 20.8789 65.6715  12
   0  -2 -13 111.747 57.1970  15
   0  -2 -13 63.2658 59.4870  36
   0  -2 -13 130.579 66.8247  14
   0  -2 -14 94.4695 39.6297  14
   0   3 -14 765.563 120.640  15
   0   3 -13 3911.77 325.551  15
   0   3 -13 4257.19 324.819  17
   0   3 -12 5734.46 429.301  15
   0   3 -12 4796.54 333.417  12
   0   3 -12 4481.83 351.181  16
   0   3 -12 5876.66 437.055  17
   0   3 -11 19493.8 836.583  21
   0   3 -11 19194.9 881.038  15
   0   3 -11 18261.4 833.588  16
   0   3 -11 19779.8 908.441  17
   0   3 -11 17113.9 750.985  12
   0   3 -10 7344.41 489.418  21
   0   3 -10 6908.64 457.199  12
   0   3 -10 7255.43 496.530  22
   0   3 -10 7731.71 531.272  15
   0   3 -10 6397.30 489.339  16
   0   3 -10 7613.54 540.845  17
   0   3  -9 32482.2 1174.98   6
   0   3  -9 32064.4 1163.91  22
   0   3  -9 32269.4 1143.12  21
   0   3  -9 31278.2 1093.49  12
   0   3  -9 29068.9 1042.90  11
   0   3  -9 31432.0 1186.18  16
   0   3  -9 32349.5 1210.71  17
   0   3  -9 30929.2 1170.27  15
   0   3  -8 40423.9 1319.47  22
   0   3  -8 37124.2 1233.64  11
   0   3  -8 39848.3 1339.92  16
   0   3  -8 40396.5 1304.41   6
   0   3  -8 39062.9 1269.97  21
   0   3  -8 39607.2 1333.75  17
   0   3  -8 40383.3 1318.36  15
   0   3  -8 38097.4 1221.66  12
   0   3  -7 19066.1 768.112  15
   0   3  -7 19223.3 797.212  16
   0   3  -7 18296.5 748.281  11
   0   3  -7 19066.4 765.289   6
   0   3  -7 18713.9 746.994  21
   0   3  -7 17891.1 762.080  22
   0   3  -6 100.029 45.9042   5
   0   3  -5 4457.28 240.127   1
   0  -3   5 4722.40 225.891  26
   0  -3   5 4552.24 221.870   7
   0   3  -5 4834.48 267.853   5
   0  -3   4 289968. 6078.46  24
   0  -3   4 299285. 6162.66   7
   0   3  -4 289356. 6199.28   1
   0  -3   4 298590. 6128.79  26
   0   3  -4 305704. 6221.43  28
   0   3  -4 297456. 6271.84   6
   0  -3   3 34222.9 825.329  26
   0  -3   3 37100.0 890.506   7
   0   3  -3 36160.6 938.036  28
   0   3  -3 36030.7 917.750   1
   0  -3   2 391.515 37.1917  27
   0  -3   2 346.322 66.4177   7
   0   3  -2 493.899 87.3564  28
   0   3  -2 400.545 71.5585   1
   0  -3   2 465.556 58.5540  26
   0   3  -2 420.716 64.6601  29
   0  -3   1 13556.8 417.627  26
   0  -3   1 13865.9 468.734   7
   0  -3   1 14856.1 400.018  27
   0   3  -1 13744.6 462.343  29
   0  -3   0 17070.6 463.820  26
   0   3   0 17421.0 518.061  29
   0   3   0 17496.3 528.094  25
   0  -3   0 18059.2 526.789   7
   0   3   1 1148.37 124.761  28
   0  -3  -1 1288.11 112.303  26
   0   3   1 1084.63 81.6898  19
   0  -3  -1 1226.11 124.655   7
   0   3   1 1247.64 120.843   1
   0   3   1 1078.63 117.944  25
   0  -3  -2 84663.6 1959.60  27
   0   3   2 90688.6 1961.29   1
   0  -3  -2 80102.1 1928.15  26
   0   3   2 82470.8 1996.36  29
   0   3   2 87601.0 1992.92  28
   0  -3  -3 87655.0 2085.63   7
   0  -3  -3 84400.7 2039.82  26
   0  -3  -3 86491.8 2096.58  37
   0  -3  -3 88003.3 2066.80  27
   0   3   3 89132.7 2088.69  29
   0   3   3 86824.0 2041.57  28
   0   3   3 91518.3 2011.94   1
   0   3   4 120960. 2762.80  28
   0   3   4 120130. 2841.46  29
   0   3   4 124065. 2783.99  33
   0  -3  -4 127098. 2844.35  26
   0   3   4 125775. 2734.61   1
   0   3   4 120899. 2905.05  25
   0  -3  -4 123466. 2847.82  27
   0  -3  -4 126977. 2863.64   7
   0  -3  -5 66778.3 1799.36  37
   0   3   5 70040.1 1759.92  29
   0  -3  -5 69365.0 1766.76   7
   0   3   5 64835.5 1802.44  25
   0  -3  -5 66767.1 1761.04  26
   0   3   5 68285.9 1671.14  33
   0  -3  -5 68373.0 1765.49  27
   0   3   6 10192.3 495.560  29
   0   3   6 9836.50 436.556  33
   0   3   6 10583.3 549.028  25
   0  -3  -6 11096.3 557.251  37
   0  -3  -6 10089.1 503.783   7
   0  -3  -7 16050.2 762.932  36
   0  -3  -7 16462.2 724.119  27
   0   3   7 15123.6 714.877  13
   0  -3  -7 15358.2 670.096   7
   0   3   7 15516.4 731.116  25
   0   3   7 15423.5 656.882  29
   0  -3  -7 16074.4 690.655  35
   0  -3  -7 16297.3 740.743  37
   0  -3  -8 34222.4 1202.52  27
   0   3   8 32253.5 1201.04  19
   0   3   8 33501.6 1221.76  25
   0  -3  -8 34621.7 1228.53  37
   0  -3  -8 33465.2 1111.03   7
   0  -3  -8 37587.3 1320.30  36
   0  -3  -8 32381.7 1109.52  35
   0   3   8 33982.7 1204.45  13
   0   3   9 33942.0 1268.19  25
   0  -3  -9 34368.5 1246.44  27
   0   3   9 33968.7 1262.37  19
   0  -3  -9 33474.6 1235.00  30
   0  -3  -9 34446.5 1187.41  15
   0  -3  -9 34454.1 1263.36  37
   0  -3  -9 38095.8 1378.29  36
   0   3   9 34954.4 1235.60  13
   0  -3 -10 6658.44 480.918  37
   0   3  10 6659.36 499.803  19
   0  -3 -10 5918.23 456.910  27
   0  -3 -10 5871.85 447.718  30
   0  -3 -10 5898.96 423.423  15
   0   3  10 5690.73 456.467  25
   0  -3 -10 6202.25 498.153  36
   0   3  10 5816.71 429.612  13
   0  -3 -11 20876.1 818.969  15
   0  -3 -11 21001.3 935.134  36
   0  -3 -11 19033.6 818.802  37
   0  -3 -12 33042.3 1040.43  15
   0  -3 -12 35688.8 1194.85  12
   0  -3 -12 34166.7 1182.51  36
   0  -3 -13 9876.04 482.089  36
   0  -3 -13 10197.8 480.305  14
   0  -3 -13 10264.4 484.457  12
   0  -3 -14 634.824 85.4882  12
   0   4 -13 471.038 104.329  17
   0   4 -13 120.838 89.6838  15
   0   4 -12 6566.24 416.403  16
   0   4 -12 6909.39 439.819  15
   0   4 -12 6425.13 444.151  17
   0   4 -11 6334.22 465.078  16
   0   4 -11 6600.07 437.039  21
   0   4 -11 6620.70 489.830  17
   0   4 -11 6741.00 475.881  15
   0   4 -11 7153.25 465.562  22
   0   4 -10 14918.1 775.027  16
   0   4 -10 15768.7 757.211  22
   0   4 -10 15353.0 724.734  21
   0   4 -10 13199.3 646.802  11
   0   4 -10 14097.9 726.168  15
   0   4 -10 15466.9 795.534  17
   0   4  -9 6078.14 464.036  22
   0   4  -9 6827.95 516.302  16
   0   4  -9 6459.91 472.197  15
   0   4  -9 6024.91 399.222  12
   0   4  -9 6862.53 467.981  11
   0   4  -9 6157.98 446.248  21
   0   4  -8 16628.1 753.058  21
   0   4  -8 17192.9 802.257  22
   0   4  -8 15783.4 756.762  15
   0   4  -8 16547.5 781.169  11
   0   4  -7 23405.6 948.138  17
   0   4  -7 22572.0 887.020  21
   0   4  -7 25352.9 981.415  22
   0   4  -7 22239.7 894.833  10
   0   4  -7 24402.6 922.468  15
   0   4  -7 23726.9 949.075  11
   0   4  -6 35795.8 1082.39   5
   0   4  -6 36542.1 1168.08  15
   0   4  -6 38046.9 1244.40  22
   0   4  -6 35397.2 1196.19  17
   0   4  -6 35548.6 1220.42  11
   0   4  -6 37478.3 1213.27  10
   0   4  -6 38792.2 1253.65  16
   0   4  -6 36603.2 1160.61  21
   0   4  -5 3829.05 265.916   1
   0   4  -5 4209.50 281.703   5
   0   4  -5 3809.00 264.627   2
   0   4  -5 4275.94 337.748  11
   0   4  -5 3953.57 320.730  16
   0   4  -4 36208.9 1036.67   5
   0   4  -4 34451.2 1028.00   1
   0  -4   4 36214.8 991.952   7
   0   4  -4 35089.4 1050.14  28
   0   4  -4 33928.5 1006.85   4
   0   4  -4 33661.4 1012.80   2
   0   4  -3 85818.0 2061.84   5
   0   4  -3 81990.4 2052.98   2
   0   4  -3 89053.2 2125.04  28
   0  -4   3 82115.4 1910.37  26
   0   4  -3 87594.9 2078.35   4
   0   4  -3 87454.5 2086.27   1
   0  -4   3 86289.0 2031.37   7
   0   4  -2 79853.9 1944.20  29
   0  -4   2 86037.1 2001.76   7
   0   4  -2 81528.7 2019.57   1
   0   4  -2 82628.3 2027.27  33
   0   4  -2 88058.5 2078.21  28
   0  -4   2 83366.6 1881.29  26
   0   4  -2 80809.9 2001.11   2
   0   4  -1 46003.4 1179.57  29
   0   4  -1 44844.9 1216.30  33
   0  -4   1 42692.2 1046.29  27
   0  -4   1 43031.1 1177.74   7
   0  -4   1 41724.0 1082.68  26
   0  -4   0 8815.87 405.397   7
   0   4   0 8968.39 407.588   1
   0   4   0 8409.37 396.609  29
   0   4   0 8378.25 417.892  28
   0  -4   0 8001.35 342.380  26
   0   4   0 8576.07 393.006   2
   0  -4   0 8192.75 337.521  27
   0   4   1 83336.7 1912.73  25
   0  -4  -1 80109.2 1816.59  27
   0  -4  -1 78667.9 1803.50  26
   0   4   1 79289.6 1886.96  33
   0   4   1 81483.9 1923.73  28
   0  -4  -1 78756.5 1883.94  37
   0  -4  -1 80568.3 1900.72   7
   0   4   1 80341.0 1861.09   2
   0   4   1 76041.2 1883.01  29
   0  -4  -2 35778.1 1001.11  26
   0   4   2 37134.6 1091.01  25
   0  -4  -2 35672.3 1068.31  37
   0   4   2 36184.0 1054.25  33
   0   4   2 37603.3 1041.33   1
   0   4   2 34169.2 897.476  19
   0  -4  -2 35050.4 1070.04   7
   0  -4  -2 36305.5 1028.75  27
   0   4   2 35557.6 1018.39   2
   0   4   2 36798.4 1083.50  28
   0   4   3 22555.1 813.082  29
   0   4   3 22568.0 743.082   2
   0  -4  -3 23751.8 793.904  27
   0   4   3 23177.6 834.149  25
   0  -4  -3 22972.0 820.398  37
   0   4   3 24330.0 793.844  33
   0  -4  -3 22946.6 771.661  26
   0   4   3 23652.9 797.395  28
   0   4   3 23574.5 758.669   1
   0   4   3 22688.8 698.291  19
   0  -4  -4 285.887 93.1435  37
   0   4   4 173.027 72.9808  29
   0   4   4 348.439 77.8467   2
   0  -4  -4 345.776 92.4331   7
   0   4   4 336.073 77.2051  19
   0   4   4 356.728 82.4037   1
   0   4   4 324.157 88.1913  33
   0  -4  -4 417.515 103.063  26
   0   4   4 180.693 71.8636  28
   0  -4  -4 545.524 112.487  27
   0  -4  -5 31274.1 1056.93  27
   0   4   5 31507.7 1101.56  13
   0   4   5 30070.4 1047.83  29
   0   4   5 30223.8 976.639  19
   0  -4  -5 30443.4 1029.35  26
   0   4   5 30520.3 974.664  33
   0   4   5 31654.0 1099.08  25
   0  -4  -5 31657.4 1057.78   7
   0  -4  -6 591.770 134.027  27
   0   4   6 751.173 158.395  25
   0   4   6 988.838 156.617  19
   0   4   6 564.250 132.638  29
   0  -4  -6 792.175 161.522  37
   0   4   6 822.805 162.088  13
   0   4   6 978.162 144.611  33
   0  -4  -6 842.245 155.467   7
   0   4   7 54169.0 1489.89  33
   0   4   7 55573.0 1714.20  13
   0  -4  -7 55447.9 1707.26  37
   0   4   7 54366.2 1613.11  29
   0  -4  -7 55520.6 1737.19  36
   0   4   7 53572.8 1599.90  19
   0  -4  -7 50317.2 1588.89  35
   0   4   7 54016.6 1699.21  25
   0  -4  -7 52561.1 1615.32   7
   0  -4  -8 3730.33 381.266  36
   0   4   8 2917.79 331.434  25
   0  -4  -8 3254.03 312.636   7
   0  -4  -8 2819.72 288.350  35
   0   4   8 2960.71 333.587  13
   0  -4  -8 3494.28 352.950  27
   0  -4  -8 3990.87 376.801  37
   0  -4  -8 2965.62 331.159  30
   0   4   8 2678.08 296.489  19
   0  -4  -9 2322.50 297.840  37
   0   4   9 2634.64 310.580  13
   0  -4  -9 2587.54 306.316  27
   0   4   9 2396.42 300.376  25
   0  -4  -9 2411.36 298.799  30
   0   4   9 1941.79 256.345  19
   0  -4  -9 2566.01 328.307  36
   0   4  10 3015.36 310.984  13
   0  -4 -10 2370.37 287.904  37
   0  -4 -10 2670.69 316.138  36
   0   4  11 5624.03 373.714  13
   0  -4 -11 5748.35 398.671  37
   0  -4 -12 9796.66 490.636  12
   0  -4 -12 9998.09 509.367  36
   0  -4 -13 10800.9 432.674  14
   0  -4 -13 10591.8 417.121  12
   0   5 -12 2176.31 220.181  15
   0   5 -11 3127.14 300.671  15
   0   5 -11 3422.55 275.890  21
   0   5 -11 3469.64 320.259  16
   0   5 -11 3740.43 305.672  22
   0   5 -10 493.255 131.696  11
   0   5 -10 409.394 151.680  15
   0   5 -10 834.386 151.221  21
   0   5  -9 38093.1 1367.78  17
   0   5  -9 38138.7 1342.72  22
   0   5  -9 36523.5 1297.35  11
   0   5  -9 36564.3 1272.57  15
   0   5  -9 38418.4 1268.90  21
   0   5  -8 5023.64 427.650  11
   0   5  -8 4547.55 384.162  10
   0   5  -8 4544.80 425.756  16
   0   5  -8 5148.91 432.165  17
   0   5  -8 4410.96 370.258  21
   0   5  -8 3775.88 355.540  15
   0   5  -8 4282.88 397.210  22
   0   5  -7 4088.74 384.444  22
   0   5  -7 3566.01 357.575  17
   0   5  -7 3912.39 364.744  10
   0   5  -7 3396.08 318.459  21
   0   5  -7 3671.90 343.728  15
   0   5  -7 4037.26 384.641  11
   0   5  -7 3721.52 377.930  16
   0   5  -6-16.7751 39.8807  18
   0   5  -6 52.2444 54.7691  21
   0   5  -6 21.0268 61.2233  16
   0   5  -6-82.8514 123.007  15
   0   5  -6 43.4672 63.2811  22
   0   5  -6 20.8659 60.7546  10
   0   5  -6 38.4996 60.5400  17
   0   5  -6 43.0326 62.6484  11
   0   5  -5 36287.0 1221.27  18
   0   5  -5 36286.0 1227.25  17
   0   5  -5 37532.5 1265.94  16
   0   5  -5 35693.8 1160.66  15
   0   5  -5 39167.5 1219.70  21
   0   5  -5 39364.9 1314.42  10
   0   5  -4 17906.9 729.005  21
   0   5  -4 18837.2 808.229  11
   0   5  -4 18205.3 734.167  17
   0   5  -4 18062.9 800.102  10
   0  -5   4 18951.5 692.998   7
   0   5  -4 17762.5 755.348  18
   0   5  -4 17326.4 739.701  28
   0   5  -4 17577.2 721.614   1
   0   5  -4 17617.6 755.206  16
   0   5  -4 16734.3 695.796   4
   0   5  -4 17688.6 711.177   2
   0   5  -3 755.241 150.369  22
   0  -5   3 706.341 125.283   7
   0   5  -3 594.960 120.844   1
   0   5  -3 921.895 157.261  18
   0   5  -3 778.086 138.896   2
   0   5  -3 822.108 151.310  11
   0   5  -3 737.871 144.007  28
   0   5  -3 753.831 134.942   4
   0   5  -2 17249.7 692.514   2
   0   5  -2 16394.7 696.078  33
   0   5  -2 18134.4 714.027   1
   0  -5   2 17865.1 687.586   7
   0   5  -2 17197.4 745.048  10
   0   5  -2 17872.9 742.156  28
   0  -5   2 16528.9 566.460  26
   0   5  -1 23793.5 874.691  33
   0  -5   1 23627.8 730.956  26
   0   5  -1 23094.9 817.921  29
   0  -5   1 24512.2 852.014   7
   0   5   0 30721.0 995.796   1
   0  -5   0 28945.2 965.541  37
   0   5   0 31106.0 998.651  29
   0  -5   0 29665.4 872.966  27
   0   5   0 29562.2 974.973   2
   0   5   0 31061.9 1044.36  28
   0  -5   0 29351.6 989.305   7
   0  -5   0 28863.8 874.372  26
   0   5   1 48654.0 1431.40  28
   0   5   1 48414.3 1415.91  33
   0   5   1 45453.3 1391.10  29
   0   5   1 46194.4 1359.22   2
   0  -5  -1 49225.6 1416.05   7
   0   5   1 47807.1 1378.62   1
   0  -5  -1 46170.0 1279.08  26
   0  -5  -1 49650.0 1316.92  27
   0  -5  -1 48814.8 1394.28  37
   0   5   2 143398. 3361.80  25
   0   5   2 144207. 3334.07  33
   0   5   2 141659. 3340.54  28
   0  -5  -2 140661. 3208.54  26
   0   5   2 139773. 3268.49   1
   0  -5  -2 141218. 3251.20  27
   0  -5  -2 133426. 3325.25   7
   0   5   2 137884. 3253.04   2
   0  -5  -2 137003. 3320.28  37
   0  -5  -3 4929.68 367.275  37
   0  -5  -3 5015.67 347.720  27
   0   5   3 4944.67 382.897  13
   0   5   3 4382.29 353.531  29
   0  -5  -3 4864.10 331.142  26
   0   5   3 4930.29 374.682  25
   0   5   3 4612.97 317.767   2
   0   5   3 4861.52 351.180  33
   0   5   3 4536.10 321.036   1
   0   5   3 4154.48 331.063  28
   0   5   4 3268.10 274.480   1
   0   5   4 3227.26 285.145  33
   0   5   4 3617.58 342.966  13
   0  -5  -4 3572.17 327.467  37
   0   5   4 3167.94 309.497  29
   0  -5  -4 3622.96 322.435   7
   0  -5  -4 3114.37 283.911  26
   0   5   4 3483.49 272.112   2
   0   5   4 3536.88 327.026  25
   0  -5  -4 3469.31 309.178  27
   0  -5  -5 2354.52 262.045  26
   0  -5  -5 2059.11 250.073  27
   0   5   5 2183.70 238.867  33
   0   5   5 2283.42 268.724  29
   0  -5  -5 2567.78 292.338  37
   0  -5  -5 2503.99 284.041   7
   0   5   6 495.754 144.695  13
   0   5   6 765.032 144.731  33
   0  -5  -6 740.076 158.774  27
   0   5   6 450.616 124.667  29
   0  -5  -6 477.537 128.744   7
   0   5   7 92.9001 67.6708  25
   0   5   7 93.8455 73.8284  13
   0  -5  -7 193.025 99.3852  36
   0  -5  -7 78.4701 70.0028  35
   0  -5  -7 66.3255 64.4222  27
   0  -5  -7 115.288 86.7092  37
   0  -5  -7 146.472 82.5321   7
   0  -5  -8 18570.7 870.785  37
   0   5   8 18016.3 864.476  13
   0  -5  -8 17341.9 850.714  30
   0   5   8 15738.6 819.277  25
   0  -5  -8 17965.8 880.172  36
   0  -5  -8 15205.0 718.642  35
   0   5   9 22124.0 954.963  13
   0  -5  -9 22286.7 980.620  36
   0  -5  -9 22800.3 964.500  37
   0   5  10 29148.3 1039.65  13
   0  -5 -10 28397.8 1073.45  36
   0  -5 -10 26906.7 1020.14  37
   0  -5 -11 3949.41 295.718  37
   0   5  11 4185.03 290.293  13
   0  -5 -11 3875.23 311.711  36
   0  -5 -11 4331.36 305.013  12
   0  -5 -12 1459.53 138.530  12
   0   6 -11 124.881 58.8760  22
   0   6 -10 379.006 109.845  11
   0   6 -10 367.872 104.403  22
   0   6  -9 7839.42 525.747  16
   0   6  -9 7842.43 510.806  22
   0   6  -9 8358.07 517.181  11
   0   6  -9 7397.98 430.309  21
   0   6  -9 7787.35 504.824  17
   0   6  -8 364.694 104.356  21
   0   6  -8 273.480 103.931  10
   0   6  -8 135.771 107.678  16
   0   6  -8 164.090 84.5680  17
   0   6  -8 111.651 84.0471  22
   0   6  -8 355.299 132.050  11
   0   6  -7 7820.11 547.418  11
   0   6  -7 7146.40 459.676  21
   0   6  -7 5830.61 452.913  17
   0   6  -7 7564.41 539.293  22
   0   6  -7 6837.91 505.300  10
   0   6  -7 7443.50 527.097  16
   0   6  -6 16123.6 794.764  16
   0   6  -6 15102.3 735.567  18
   0   6  -6 15791.3 754.905  17
   0   6  -6 16021.8 725.087  21
   0   6  -6 16445.1 819.203  10
   0   6  -5 3346.59 357.778  10
   0   6  -5 3040.03 318.819  18
   0   6  -5 3620.69 368.892  11
   0   6  -5 3221.89 333.166  16
   0   6  -5 2816.07 286.543  21
   0   6  -4 2464.65 278.011  16
   0   6  -4 2559.16 268.843  21
   0   6  -4 2662.71 305.971  11
   0   6  -4 2745.35 282.289   4
   0   6  -4 2923.15 315.373  18
   0   6  -4 2887.11 330.427  10
   0   6  -3 18.7061 44.4739   1
   0   6  -3 22.3784 70.3807  22
   0   6  -3 17.9771 47.7852   2
   0   6  -3 16.9812 40.3734  21
   0   6  -3 20.5094 54.5156  18
   0  -6   3 50.0008 48.5310   7
   0   6  -3 19.1575 45.5469   4
   0   6  -3 40.2735 75.6946  11
   0  -6   2 44553.3 1344.43  37
   0   6  -2 43985.4 1473.00  28
   0   6  -2 46148.9 1511.46  10
   0   6  -2 44493.2 1496.69  22
   0   6  -2 43791.5 1401.60   2
   0  -6   2 45046.2 1398.94   7
   0   6  -2 44309.0 1422.13   1
   0   6  -2 46746.2 1474.52   4
   0   6  -2 46038.5 1437.85  11
   0   6  -1 78884.0 2230.47  10
   0   6  -1 80808.9 2201.85  33
   0  -6   1 80426.4 2105.35  37
   0   6  -1 76986.4 2183.41  18
   0   6  -1 78997.6 2125.13  11
   0  -6   1 80305.7 2156.77   7
   0  -6   0 71463.5 1860.30  26
   0   6   0 73037.8 2029.77  29
   0  -6   0 76805.3 2026.30  37
   0   6   0 74628.5 2073.50  18
   0   6   0 72129.5 2034.80   1
   0   6   0 74857.4 2034.35   2
   0  -6   0 77517.9 2078.69   7
   0   6   0 74633.5 2108.63  10
   0   6   0 72080.3 2099.87  28
   0   6   1 439.131 127.993  10
   0  -6  -1 391.729 110.236  37
   0   6   1 244.002 93.9114  28
   0   6   1 400.936 113.721  29
   0   6   1 445.223 117.171  13
   0   6   1 467.729 127.107  33
   0  -6  -1 309.737 87.9997  26
   0  -6  -1 310.246 110.794   7
   0   6   1 389.381 115.847   2
   0   6   1 420.636 117.310  18
   0   6   1 457.881 120.489   1
   0   6   2 9255.86 548.357  33
   0   6   2 8481.51 529.207  13
   0   6   2 8216.66 501.510   1
   0  -6  -2 8144.03 528.692   7
   0   6   2 8821.95 545.903  29
   0  -6  -2 9475.86 502.471  27
   0  -6  -2 8770.05 475.297  26
   0   6   2 9638.59 523.393   2
   0  -6  -2 8501.88 523.926  37
   0   6   2 8402.64 504.547  18
   0   6   3 7416.12 459.105  18
   0   6   3 7139.55 479.079  33
   0  -6  -3 6781.35 447.457  27
   0   6   3 6992.84 490.099  13
   0  -6  -3 7290.92 448.388  26
   0  -6  -3 7898.75 506.777  37
   0   6   4 14073.8 687.207  33
   0  -6  -4 12339.0 632.429  26
   0   6   4 12852.7 699.575  13
   0  -6  -4 13771.2 716.533   7
   0   6   4 11810.4 672.192  29
   0   6   4 14520.9 741.675  25
   0  -6  -4 13839.3 715.711  37
   0  -6  -4 13452.2 674.438  27
   0  -6  -5 1602.90 230.885  27
   0  -6  -5 1748.32 256.635  37
   0   6   5 1802.99 258.736  25
   0  -6  -5 1965.45 265.502   7
   0   6   5 1765.35 233.335  33
   0  -6  -5 1816.76 233.012  31
   0   6   5 1743.05 258.198  13
   0  -6  -6 9356.43 586.258  27
   0   6   6 10579.6 557.348  33
   0   6   6 9480.97 610.488  25
   0  -6  -6 9793.18 620.477  37
   0  -6  -6 8884.23 581.927   7
   0  -6  -7 15638.4 737.472  35
   0   6   7 16258.8 822.732  13
   0   6   7 17165.2 709.328  33
   0   6   8 10465.9 609.402  13
   0  -6  -8 9601.30 591.232  36
   0  -6  -8 10527.7 604.841  37
   0  -6  -9 4842.78 378.802  37
   0   6   9 5439.94 401.594  13
   0  -6  -9 5823.84 417.291  36
   0  -6 -10 4859.48 332.496  37
   0   6  10 5118.75 341.880  13
   0  -6 -10 5251.21 352.440  36
   0   6  11 11087.0 409.101  13
   0   7 -10 6588.69 344.192  22
   0   7  -9 3956.09 309.709  11
   0   7  -9 3929.14 308.511  22
   0   7  -8 73.0783 65.1667  22
   0   7  -8 73.2361 75.4056  11
   0   7  -7 2916.51 315.051  22
   0   7  -7 2840.70 307.853  10
   0   7  -6 1456.34 190.569  21
   0   7  -6 1359.42 229.982  11
   0   7  -6 2003.74 272.057  10
   0   7  -5 2541.79 317.892  10
   0   7  -5 2080.91 235.048  21
   0   7  -5 2295.31 276.364  18
   0   7  -5 1996.16 274.529  11
   0   7  -4 17754.9 834.757  18
   0   7  -4 16010.3 710.551  21
   0   7  -4 17776.7 831.875  11
   0   7  -4 17020.3 859.727  22
   0  -7   4 15095.9 811.895   8
   0   7  -4 15520.7 731.313   4
   0   7  -3 7222.86 512.328  18
   0   7  -3 6753.63 442.668  21
   0   7  -3 7063.02 534.004  10
   0   7  -3 7279.46 503.263  11
   0   7  -3 6783.42 482.454   4
   0   7  -3 6404.82 510.004  22
   0   7  -2 3450.45 359.602  18
   0  -7   2 3457.16 305.571  37
   0   7  -2 3267.65 363.133  22
   0   7  -2 3841.47 373.644   4
   0  -7   2 3492.74 339.573   7
   0   7  -2 4199.56 403.761  10
   0   7  -2 3710.01 347.381  11
   0   7  -2 3138.86 301.211  21
   0   7  -1 3779.12 372.261   4
   0   7  -1 3316.78 360.521  22
   0   7  -1 3306.09 343.832  18
   0  -7   1 3331.65 312.193  37
   0  -7   1 3086.47 328.145   7
   0   7  -1 3162.63 309.467  11
   0   7  -1 2966.76 343.313  10
   0   7   0 26839.2 1109.29  10
   0  -7   0 29335.4 1064.50  37
   0   7   0 29592.6 1163.63   4
   0   7   0 28213.2 1102.98  18
   0  -7   0 28462.4 1114.93   7
   0  -7  -1 43635.0 1488.31   7
   0  -7  -1 46575.3 1460.28  37
   0   7   1 45463.0 1499.01  33
   0   7   1 41640.5 1361.22  13
   0   7   1 42873.7 1439.15  18
   0   7   2 53842.0 1677.39  33
   0   7   2 50992.9 1589.70  18
   0  -7  -2 52206.0 1679.21   7
   0   7   2 48894.5 1578.24  13
   0  -7  -2 54108.4 1653.43  37
   0   7   3 1050.00 174.323  18
   0   7   3 1097.54 196.733  13
   0  -7  -3 1233.67 213.773   7
   0   7   3 1232.96 206.133  33
   0  -7  -3 1176.47 213.644   8
   0  -7  -3 1156.78 211.239  37
   0  -7  -4 20481.5 893.203  37
   0   7   4 19154.5 842.780  33
   0   7   4 17729.0 846.535  13
   0   7   5 128.402 80.4806  13
   0   7   5 162.299 90.2647   4
   0  -7  -5 21.4041 67.3604  37
   0   7   5 324.280 109.222  33
   0   7   6 13301.7 692.317  13
   0   7   6 13263.2 619.352  33
   0   7   6 13978.0 668.122   4
   0  -7  -6 13977.4 707.373  37
   0  -7  -7 10836.8 591.401  36
   0  -7  -7 10941.0 589.575  37
   0   7   7 10406.8 519.090   4
   0   7   8 12444.1 599.266  13
   0  -7  -8 13369.2 616.973  36
   0   7   9 6735.43 373.913  13
   0  -7  -9 7155.74 385.978  36
   0  -7  -9 6841.95 377.403  37
   0   7  10 2654.78 176.143  13
   0   8  -9 1480.12 132.334  22
   0   8  -8 6947.81 369.658  22
   0   8  -7 14938.8 642.072  11
   0   8  -6 2221.46 245.425  11
   0   8  -5 355.654 117.777  11
   0   8  -5 156.928 84.1914  22
   0   8  -4 63.1723 66.2494  22
   0   8  -4 126.930 77.7358  11
   0   8  -3 1410.70 224.808  10
   0   8  -3 1095.95 206.667  22
   0   8  -3 1274.62 193.331  11
   0   8  -3 1223.23 188.955   4
   0   8  -2 53294.0 1650.78   4
   0   8  -2 53018.0 1667.14  18
   0   8  -2 53088.6 1572.13  11
   0   8  -2 57929.3 1763.00  22
   0   8  -1 4188.47 323.472  11
   0   8  -1 4392.23 394.929   4
   0   8  -1 4067.26 311.624  21
   0   8  -1 4923.05 421.864  22
   0   8  -1 4590.60 387.961  18
   0   8  -1 4280.05 348.609   3
   0   8   0 1425.18 231.062   4
   0  -8   0 1906.10 229.229  37
   0   8   0 1508.01 187.287  21
   0   8   0 1856.93 257.870  22
   0   8   0 1631.96 227.787  18
   0   8   1 3999.81 366.128  22
   0  -8  -1 3845.73 337.216  37
   0   8   1 3971.36 371.593   4
   0   8   2 7830.55 513.848  22
   0   8   2 7127.47 436.541  13
   0   8   3 8042.83 478.656  13
   0   8   3 9620.05 566.586   4
   0  -8  -3 9633.00 544.185  37
   0  -8  -4 18716.2 786.679  37
   0   8   4 19181.3 801.979   4
   0   8   4 16989.1 732.581  13
   0   8   5 16113.0 694.114   4
   0   8   5 16644.3 692.682  13
   0  -8  -5 16728.3 716.338  37
   0   8   6 16233.5 642.851   4
   0  -8  -6 17255.1 693.478  37
   0   8   6 17153.0 674.330  13
   0  -8  -6 16628.0 686.057  36
   0   8   7 898.790 107.857  22
   0   8   7 1015.96 139.274  13
   0  -8  -7 961.791 137.732  36
   0  -8  -7 1048.54 143.447  37
   0   9  -5 4129.84 280.863  22
   0   9  -4 13223.0 571.724  22
   0   9  -3 16237.1 671.665  22
   0   9  -2 1609.79 200.207  22
   0   9  -2 1641.82 184.414   4
   0   9  -1 5797.12 375.573   4
   0   9  -1 6771.38 413.114  22
   0   9   0 3290.17 280.591  22
   0   9   0 2943.46 268.948   4
   0   9   1 3355.18 288.548   4
   0   9   1 3673.92 291.120  22
   0  -9  -2 21226.1 736.740  37
   0   9   2 21699.7 760.060   3
   0   9   2 23700.5 802.923  22
   0   9   3 10498.6 496.943   4
   0   9   3 10677.1 466.239  22
   0   9   4 16249.0 561.710  22
  -1  10   2 2845.57 180.127  22
  -1  10   1 2278.71 172.810  22
  -1  10   0 716.015 100.491  22
  -1  10  -3 364.522 64.4189  22
  -1   9   6 13730.5 458.732  13
  -1   9   6 15886.0 504.039  22
  -1   9   5 5384.60 306.513  22
  -1   9   4 407.439 94.2896   4
  -1   9   4 465.657 101.756  22
   1  -9  -4 321.909 79.0039  36
  -1   9   3 6669.04 404.696   4
  -1   9   3 6790.41 405.840  22
  -1   9   3 6181.50 398.425   3
  -1   9   2 5387.72 378.661   3
  -1   9   2 5149.83 368.272  22
  -1   9   2 5189.36 372.724   4
  -1   9   1 895.403 156.437   3
  -1   9   1 898.827 145.168  18
  -1   9   1 675.464 142.883  22
  -1   9   0 2009.14 225.165   3
  -1   9   0 2116.33 243.969   4
  -1   9   0 2020.64 237.463  22
  -1   9   0 1682.11 208.250  18
  -1   9  -1 15.7881 56.3051  18
  -1   9  -1 51.7133 57.9591   4
  -1   9  -2 424.820 109.388  18
  -1   9  -3 1843.86 186.337  11
  -1   9  -3 1990.71 229.193  22
  -1   9  -4 1731.87 183.319  11
  -1   9  -4 1881.28 213.430  22
  -1   9  -5 12308.3 513.594  11
  -1   9  -5 11685.3 527.690  22
  -1   9  -6 147.485 53.6146  22
  -1   9  -6 89.3492 60.2224  11
  -1   8   7 3588.86 275.626  13
   1  -8  -7 3402.52 270.758  37
   1  -8  -7 3367.74 255.214  36
  -1   8   6 31867.5 1052.05  13
   1  -8  -6 32448.9 1036.36  36
   1  -8  -6 28609.4 1022.69  35
  -1   8   6 31212.8 990.327   4
   1  -8  -6 32312.2 1054.83  37
   1  -8  -5 10625.5 553.643  37
  -1   8   5 10169.0 543.043  13
  -1   8   5 10160.4 536.848   4
  -1   8   4 3868.09 342.185   4
  -1   8   4 3528.38 317.178  13
   1  -8  -4 4083.91 342.987  37
  -1   8   3 1514.43 208.648  13
   1  -8  -3 1308.90 192.351  37
  -1   8   3 1484.09 194.055  18
  -1   8   3 1549.10 232.596   4
  -1   8   2 129.311 69.3391  13
  -1   8   2 334.505 127.162   4
  -1   8   2 106.130 69.7971  18
   1  -8  -2 152.110 77.8645  37
  -1   8   1 4916.92 398.792  18
  -1   8   0 15823.1 768.147  10
  -1   8   0 16928.4 835.235   4
  -1   8   0 15862.8 764.716  18
  -1   8  -1 16444.2 798.806  10
  -1   8  -1 15586.2 689.145  11
  -1   8  -1 16902.2 806.968   3
  -1   8  -1 16795.6 793.247  18
  -1   8  -1 17483.0 842.721   4
  -1   8  -2 999.742 179.653   3
  -1   8  -2 898.848 183.778   4
  -1   8  -2 732.566 169.674  10
  -1   8  -2 549.081 149.321  18
  -1   8  -2 829.350 158.518  11
  -1   8  -2 722.871 175.991  22
  -1   8  -3 863.734 181.924  22
  -1   8  -3 777.225 157.872  11
  -1   8  -3 851.719 173.564  18
  -1   8  -3 808.481 147.961   3
  -1   8  -3 694.383 171.209  10
  -1   8  -3 710.979 161.852   4
  -1   8  -4 130.549 85.8370  22
  -1   8  -4 177.064 96.4732  18
  -1   8  -4 133.387 81.7281  11
  -1   8  -4 198.044 94.3619  10
  -1   8  -5 2879.81 304.773  22
  -1   8  -5 2863.95 295.281  11
  -1   8  -5 2420.42 265.324  18
  -1   8  -6 15509.3 734.821  10
  -1   8  -6 16005.6 727.787  22
  -1   8  -6 16449.1 732.538  11
  -1   8  -7 269.950 96.4015  10
  -1   8  -7 294.604 94.4496  22
  -1   8  -7 253.213 90.3835  11
  -1   8  -8 2290.32 206.061  22
  -1   8  -8 2501.47 221.390  10
  -1   8  -9 271.982 74.0822  11
  -1   7  10 5156.63 282.971  13
   1  -7  -9 23166.8 826.292  37
   1  -7  -9 22550.1 777.561  36
  -1   7   8 10734.6 564.181  13
   1  -7  -8 10289.6 524.078  36
   1  -7  -8 10826.9 559.012  37
   1  -7  -8 9217.48 493.543  35
   1  -7  -7 19936.9 842.730  36
   1  -7  -7 21699.2 889.377  37
   1  -7  -7 19650.6 846.938  35
  -1   7   6 4360.27 388.936  13
   1  -7  -6 4253.88 379.220  37
   1  -7  -6 3918.62 353.693  36
  -1   7   6 3531.59 320.479   4
   1  -7  -5 425.017 131.435  37
  -1   7   5 217.321 96.8975  13
  -1   7   5 480.486 130.524   4
   1  -7  -4 2546.28 285.065  26
   1  -7  -4 2326.04 281.015  31
  -1   7   4 2496.79 302.279   4
   1  -7  -4 2685.89 321.222   7
   1  -7  -4 2846.25 299.638  27
   1  -7  -4 2885.65 311.955  37
  -1   7   4 2746.88 310.633  13
  -1   7   3 18548.2 860.616  28
   1  -7  -3 18572.4 815.896  26
   1  -7  -3 20426.4 916.655  31
   1  -7  -3 18658.6 809.676  27
  -1   7   3 20139.7 909.262   4
   1  -7  -3 18283.6 833.088  37
   1  -7  -3 19312.8 900.033   7
  -1   7   3 18404.6 843.007  13
  -1   7   3 18410.7 793.100  18
  -1   7   3 20618.7 905.273  29
  -1   7   2 13587.8 726.142  29
   1  -7  -2 15809.5 788.315   7
  -1   7   2 16028.9 804.872   4
   1  -7  -2 13848.2 688.776  37
  -1   7   2 14736.5 710.687  18
  -1   7   2 14859.8 714.876  13
   1  -7  -2 14249.8 775.569  31
   1  -7  -2 14854.0 686.711  26
  -1   7   2 14452.3 704.076  10
  -1   7   2 15196.9 770.843  28
  -1   7   1 9091.50 551.687  18
  -1   7   1 8670.11 546.360  10
  -1   7   1 8906.60 516.906  13
   1  -7  -1 8913.36 515.312  37
  -1   7   1 8603.56 570.289  28
  -1   7   1 8942.91 590.398   4
   1  -7  -1 9216.67 507.157  26
  -1   7   1 7533.62 518.565  29
   1  -7  -1 8269.01 554.356   7
   1  -7  -1 9117.72 607.320  31
   1  -7   0 21287.7 816.524  26
  -1   7   0 22833.2 950.956  10
  -1   7   0 21748.4 899.961  29
  -1   7   0 20721.9 943.275  28
   1  -7   0 21403.6 918.182   7
  -1   7   0 20430.0 902.335  18
   1  -7   0 20819.2 823.923  37
   1  -7   1 40940.2 1362.52   7
  -1   7  -1 37846.3 1292.01  29
  -1   7  -1 42927.8 1482.69   4
   1  -7   1 41922.5 1493.83  31
  -1   7  -1 41810.2 1324.58  11
  -1   7  -1 41007.3 1424.83  10
  -1   7  -1 40539.5 1405.06  18
  -1   7  -2 6186.42 474.067   3
  -1   7  -2 6268.11 488.845  10
  -1   7  -2 5716.27 466.131  28
   1  -7   2 6832.64 527.360  31
  -1   7  -2 6177.95 498.029  22
  -1   7  -2 6603.56 459.800  11
  -1   7  -2 6448.72 494.381   4
  -1   7  -3 5706.19 455.925   4
  -1   7  -3 5242.00 415.863   3
  -1   7  -3 5578.05 464.154  10
  -1   7  -3 5264.29 432.290  18
  -1   7  -3 4514.68 402.197  11
  -1   7  -3 5704.46 458.189  28
   1  -7   3 4572.18 436.376  31
  -1   7  -3 4938.42 447.568  22
  -1   7  -4 21802.6 931.284  11
  -1   7  -4 19493.8 814.365  16
   1  -7   4 19251.2 923.160  31
  -1   7  -4 18608.6 916.176  10
  -1   7  -4 21219.6 914.702  18
  -1   7  -4 20884.5 908.653   4
  -1   7  -4 21603.3 969.388  22
  -1   7  -4 18969.0 883.602  28
  -1   7  -4 19131.2 821.075   3
  -1   7  -5 2925.79 336.638  22
  -1   7  -5 2856.90 298.188  16
  -1   7  -5 2879.93 326.145  11
  -1   7  -5 2647.44 298.375  18
  -1   7  -6 5027.65 444.410  10
  -1   7  -6 4951.08 390.248  18
  -1   7  -6 5187.70 405.569  16
  -1   7  -6 6079.43 475.801  11
  -1   7  -6 5764.74 458.070  22
  -1   7  -7 57.4962 64.4407  16
  -1   7  -7 42.6365 76.0259  10
  -1   7  -7 20.3530 59.2662  22
  -1   7  -8 17372.6 775.977  10
  -1   7  -8 17862.6 767.882  22
  -1   7  -8 17829.1 780.535  16
  -1   7  -9 1586.72 205.991  16
  -1   7  -9 1485.08 180.581  22
  -1   7  -9 1872.92 219.352  11
  -1   7 -10 11752.4 491.940  11
  -1   6  11 2661.31 197.113  13
  -1   6  10 2834.19 259.996  13
   1  -6 -10 2482.97 250.789  37
   1  -6 -10 2744.01 249.291  36
  -1   6   9 336.043 115.459  13
   1  -6  -9 302.407 95.2856  35
   1  -6  -9 246.873 100.696  36
   1  -6  -8 9634.54 568.662  36
  -1   6   8 10136.4 602.252  13
   1  -6  -8 9546.57 585.532  37
   1  -6  -8 9284.00 555.507  35
   1  -6  -7 6482.87 497.164  35
   1  -6  -7 7821.16 542.368  37
   1  -6  -7 7464.74 513.835  36
  -1   6   7 6933.68 509.505  13
   1  -6  -6 15313.0 802.702   7
  -1   6   6 14641.1 761.554  29
  -1   6   6 16359.7 810.848  25
   1  -6  -6 15676.1 767.638  26
  -1   6   6 15931.2 733.690   4
   1  -6  -6 16151.6 783.227  27
   1  -6  -6 17447.7 832.217  37
   1  -6  -5 5537.16 410.794  31
  -1   6   5 5317.50 432.246  29
  -1   6   5 5519.00 392.920  33
   1  -6  -5 5937.76 472.204   7
  -1   6   5 5903.13 432.747   4
   1  -6  -5 5915.18 456.739  37
   1  -6  -5 5528.14 423.179  26
  -1   6   5 6251.21 479.952  13
  -1   6   5 5535.79 443.819  25
   1  -6  -5 6381.21 458.844  27
  -1   6   4 117189. 3127.05  29
  -1   6   4 123492. 3139.09  25
   1  -6  -4 126002. 3086.64  26
  -1   6   4 126659. 3185.59  13
  -1   6   4 130700. 3175.91   4
   1  -6  -4 120043. 3116.83  31
  -1   6   4 121967. 3054.45  33
   1  -6  -4 128929. 3122.72  27
  -1   6   4 118296. 3068.88  28
   1  -6  -4 129689. 3178.91  37
  -1   6   3 12778.6 662.169  13
  -1   6   3 10913.3 569.504  18
   1  -6  -3 10923.9 631.206  31
   1  -6  -3 12299.8 635.920  37
  -1   6   3 10988.0 603.601  25
  -1   6   3 13880.5 692.788   4
   1  -6  -3 11207.5 645.244   7
  -1   6   3 11448.2 604.130  33
   1  -6  -3 12462.1 600.208  26
   1  -6  -3 14419.4 648.680  27
  -1   6   3 11137.2 612.229  28
  -1   6   2 1533.74 218.484  13
   1  -6  -2 2364.70 274.554   7
   1  -6  -2 2159.86 232.073  27
  -1   6   2 2253.13 261.304  28
  -1   6   2 2383.71 279.242   4
   1  -6  -2 2249.09 236.041  26
  -1   6   2 2091.11 241.017  18
  -1   6   2 2350.09 268.611  29
  -1   6   2 2316.96 259.038  33
   1  -6  -2 1975.96 237.680  37
  -1   6   2 1653.53 215.607  25
  -1   6   1 2489.35 258.651  13
  -1   6   1 2506.50 266.575  18
  -1   6   1 2354.26 280.564   4
  -1   6   1 2608.73 272.246  29
   1  -6  -1 2303.93 227.559  27
   1  -6  -1 2580.09 245.561  26
   1  -6  -1 2602.19 279.531   7
   1  -6  -1 2412.61 250.104  37
  -1   6   1 2603.45 280.006  10
  -1   6   1 2415.02 272.565  28
  -1   6   0 42163.5 1346.47  29
  -1   6   0 42934.5 1396.92  10
   1  -6   0 42917.6 1298.74  37
   1  -6   0 45712.8 1317.45  26
  -1   6   0 46583.1 1459.17  28
   1  -6   0 43528.9 1382.36   7
  -1   6   0 44460.7 1399.15  18
  -1   6  -1 25291.9 977.276  18
  -1   6  -1 25796.4 920.080  29
  -1   6  -1 26323.6 1020.76   4
   1  -6   1 25618.2 938.954   7
  -1   6  -1 24068.8 909.075  11
  -1   6  -1 24128.2 973.513  10
   1  -6   1 25956.0 879.949  26
   1  -6   2 23181.5 858.134   7
  -1   6  -2 23391.9 946.076  28
  -1   6  -2 22821.7 897.571  11
   1  -6   2 22985.5 804.061  26
  -1   6  -2 20227.1 789.460  29
  -1   6  -2 24268.4 967.099   4
  -1   6  -2 21667.3 921.293  10
  -1   6  -3 503.281 139.788   4
  -1   6  -3 328.382 96.9533  16
  -1   6  -3 499.808 130.437  28
  -1   6  -3 525.409 139.349  10
  -1   6  -3 379.078 121.622   3
  -1   6  -3 441.903 118.972  11
  -1   6  -3 406.022 129.799  22
  -1   6  -3 370.802 118.589  18
   1  -6   3 411.868 95.9172  26
   1  -6   3 477.379 136.746  31
  -1   6  -4 3239.21 308.260   3
  -1   6  -4 3536.84 336.000   4
  -1   6  -4 3621.38 356.925  22
  -1   6  -4 3209.69 324.462  18
  -1   6  -4 3889.16 365.002  11
   1  -6   4 3555.48 354.403  31
  -1   6  -4 3308.27 327.631  28
  -1   6  -4 3673.82 326.508  16
  -1   6  -5 9204.81 551.949  18
  -1   6  -5 8970.73 544.778  16
  -1   6  -5 8875.05 573.141  22
  -1   6  -5 8444.55 522.838  28
  -1   6  -5 8831.01 580.798  10
   1  -6   5 8056.89 538.046  31
  -1   6  -5 9304.75 586.520  11
  -1   6  -6 4836.34 410.957  16
  -1   6  -6 4285.02 407.692  10
  -1   6  -6 5205.27 433.248  22
  -1   6  -6 4623.14 373.379  18
  -1   6  -7 688.725 171.117  10
  -1   6  -7 758.358 144.354  18
  -1   6  -7 684.834 158.311  22
  -1   6  -7 748.561 178.713  11
  -1   6  -7 711.486 171.973  16
  -1   6  -8 6540.53 486.696  11
  -1   6  -8 6453.99 486.805  15
  -1   6  -8 5650.43 433.483  22
  -1   6  -8 5625.04 456.802  16
  -1   6  -8 5281.90 432.568  10
  -1   6  -9 293.768 111.608  16
  -1   6  -9 247.149 89.1055  22
  -1   6  -9 86.1877 73.9695  10
  -1   6  -9 97.8615 80.6774  11
  -1   6 -10 5872.90 425.342  16
  -1   6 -10 5555.75 380.855  11
  -1   6 -10 6009.07 370.337  22
  -1   6 -11 13984.1 614.386  16
   1  -5 -12 1622.56 170.086  12
  -1   5  11 6116.03 367.731  13
   1  -5 -11 6346.48 406.213  37
  -1   5  11 5835.33 357.137  34
   1  -5 -11 6885.37 407.224  36
   1  -5 -11 6459.93 335.025  15
   1  -5 -10 49342.6 1591.18  37
  -1   5  10 52302.2 1573.26  13
   1  -5 -10 54409.0 1478.64  15
   1  -5 -10 50400.5 1573.91  36
   1  -5  -9 10426.8 593.251  35
   1  -5  -9 11461.5 647.664  36
  -1   5   9 11955.8 659.432  13
   1  -5  -9 11263.7 660.083  37
   1  -5  -8 8642.91 559.018  35
  -1   5   8 8260.29 525.607  29
   1  -5  -8 7785.44 547.167   7
   1  -5  -8 8394.39 563.664  36
  -1   5   8 9388.67 603.840  13
   1  -5  -7 17101.3 842.326  35
  -1   5   7 15437.1 706.448  19
  -1   5   7 17447.3 804.177  29
   1  -5  -7 18177.9 830.334  27
   1  -5  -7 17951.4 853.099   7
   1  -5  -7 18006.2 868.746  37
  -1   5   7 17099.1 845.651  25
   1  -5  -7 18713.3 861.568  36
  -1   5   7 17940.5 867.756  13
   1  -5  -6 3942.11 350.171  26
  -1   5   6 3675.88 361.300  25
  -1   5   6 3431.24 307.715   4
  -1   5   6 3526.17 360.430  13
   1  -5  -6 3738.84 360.895   7
   1  -5  -6 3601.17 358.758  37
  -1   5   6 3996.04 354.620  29
   1  -5  -6 3489.88 331.302  27
  -1   5   5 1213.09 189.046  29
   1  -5  -5 911.697 160.021  26
   1  -5  -5 880.840 172.803  37
   1  -5  -5 1137.20 171.934  31
   1  -5  -5 1039.41 172.949  27
  -1   5   5 1055.84 156.773  33
   1  -5  -5 940.331 184.582   7
  -1   5   5 1029.50 160.568  28
  -1   5   5 959.536 175.800  25
   1  -5  -4 416.901 106.489  27
  -1   5   4 556.588 130.119  25
  -1   5   4 476.954 123.667  13
  -1   5   4 572.566 111.492  34
   1  -5  -4 419.859 106.551  26
  -1   5   4 318.592 92.3765  28
  -1   5   4 534.226 123.225  29
   1  -5  -4 275.897 98.7628  31
  -1   5   4 431.014 105.645  33
   1  -5  -4 646.903 145.140  37
   1  -5  -3 7320.12 445.969  37
  -1   5   3 7434.23 449.630  25
  -1   5   3 7921.32 452.459  28
   1  -5  -3 7667.73 474.831   7
  -1   5   3 7966.65 466.589  29
   1  -5  -3 7765.79 430.598  26
  -1   5   3 7785.15 470.598  13
  -1   5   2 25289.3 887.951  25
   1  -5  -2 25506.8 862.709  26
  -1   5   2 24795.9 885.795  33
   1  -5  -2 25358.0 897.236  37
  -1   5   2 26382.7 923.324  28
   1  -5  -2 25969.5 934.156   7
   1  -5  -1 31554.6 985.705  26
  -1   5   1 34466.7 1085.98  28
  -1   5   1 33287.2 1047.48  29
   1  -5  -1 31432.8 1047.77   7
   1  -5  -1 30678.4 995.964  37
  -1   5   1 32345.0 1044.38  33
  -1   5   1 31387.5 996.837  25
  -1   5   0 1961.52 220.370  28
  -1   5   0 2359.34 204.196  25
   1  -5   0 2131.94 195.050  26
  -1   5   0 2117.86 209.920  29
   1  -5   0 2152.40 199.813  37
   1  -5   0 2073.99 211.483   7
  -1   5   0 2168.94 225.580  33
   1  -5   1 13436.6 534.417  26
  -1   5  -1 12141.9 535.260  29
  -1   5  -1 12844.8 604.920   4
   1  -5   1 12831.4 554.887   7
  -1   5  -2 20398.3 700.466  29
   1  -5   2 20212.0 725.108   7
  -1   5  -2 19770.6 796.564   4
   1  -5   2 20603.7 707.424  26
  -1   5  -2 21564.2 815.587  28
  -1   5  -3 119869. 2980.76  10
  -1   5  -3 117677. 2754.22  29
  -1   5  -3 125108. 2985.69   4
  -1   5  -3 123615. 2982.36  28
   1  -5   3 124295. 2822.25  26
  -1   5  -3 122964. 2972.81  11
  -1   5  -3 124176. 2999.35  22
   1  -5   3 116060. 2795.14   7
  -1   5  -3 123732. 2962.56   3
  -1   5  -3 125063. 2969.11  18
  -1   5  -4 18140.3 796.859  10
  -1   5  -4 18360.4 772.983  17
   1  -5   4 19524.3 680.526  26
  -1   5  -4 18497.0 730.347  12
   1  -5   4 18956.3 795.875  31
  -1   5  -4 19582.5 778.783  18
  -1   5  -4 17819.5 756.646  15
  -1   5  -4 19809.0 768.194   3
  -1   5  -4 19213.2 805.719  22
  -1   5  -4 17966.7 752.585   4
  -1   5  -4 19183.8 805.582  11
  -1   5  -4 20278.2 785.222  28
  -1   5  -4 19372.7 761.603  16
  -1   5  -5 293.121 90.1657  28
   1  -5   5 370.858 106.307  31
  -1   5  -5 365.016 100.949  12
  -1   5  -5 439.373 111.384  18
   1  -5   5 431.928 92.3642  26
  -1   5  -5 383.360 115.582  16
  -1   5  -5 330.098 107.068  17
  -1   5  -5 406.231 117.499  10
  -1   5  -5 344.378 132.868  15
  -1   5  -5 357.947 114.445  22
  -1   5  -5 506.067 112.161   3
  -1   5  -6 1710.54 211.441  18
  -1   5  -6 1589.39 225.271  22
  -1   5  -6 1670.18 214.041  12
  -1   5  -6 1641.45 233.439  17
  -1   5  -6 1649.10 232.240  16
  -1   5  -6 1853.77 249.509  10
  -1   5  -6 1654.97 241.162  11
  -1   5  -6 1536.43 236.676  15
  -1   5  -7 19535.5 876.323  16
  -1   5  -7 18227.7 864.900  11
  -1   5  -7 18611.4 789.524  12
  -1   5  -7 19101.4 864.602  10
  -1   5  -7 19167.4 850.253  22
  -1   5  -7 18232.5 837.955  15
  -1   5  -8 35747.9 1230.83  12
  -1   5  -8 37684.4 1314.23  10
  -1   5  -8 37470.5 1340.93  15
  -1   5  -8 39660.0 1385.91  16
  -1   5  -8 39678.8 1368.33  11
  -1   5  -8 38008.8 1309.69  22
  -1   5  -9 19653.7 890.285  15
  -1   5  -9 19776.1 869.803  11
  -1   5  -9 20091.6 849.124  22
  -1   5  -9 20405.7 934.439  17
  -1   5  -9 21345.3 946.420  16
  -1   5  -9 18656.6 814.023  10
  -1   5  -9 18098.1 728.367  21
  -1   5  -9 18096.5 784.668  12
  -1   5 -10 25264.3 924.619  12
  -1   5 -10 28384.6 1112.89  17
  -1   5 -10 26793.6 969.501  22
  -1   5 -10 25921.8 970.844  11
  -1   5 -10 27535.7 1075.03  15
  -1   5 -11-17.5292 133.426  15
  -1   5 -11 92.1477 72.6693  16
  -1   5 -12 3644.84 303.570  15
  -1   5 -12 2948.96 262.285  16
   1  -4 -13 4579.86 273.647  12
   1  -4 -12 7114.89 372.652  15
   1  -4 -12 6287.15 387.445  36
   1  -4 -11 10666.0 594.354  37
  -1   4  11 11524.9 550.955  13
   1  -4 -11 11575.6 613.524  36
   1  -4 -11 12008.0 577.370  15
   1  -4 -10 1801.92 257.883  37
   1  -4 -10 1677.24 247.269  36
  -1   4  10 1937.03 250.537  13
   1  -4 -10 1718.00 220.233  35
  -1   4   9 7147.60 535.996  25
   1  -4  -9 8374.08 560.586  36
  -1   4   9 7612.81 525.570  13
   1  -4  -9 7467.77 510.338  35
   1  -4  -9 7787.76 525.253  27
   1  -4  -9 7725.63 548.727  37
   1  -4  -8 10342.7 643.112  37
  -1   4   8 10853.7 633.858  13
  -1   4   8 10042.1 626.527  25
   1  -4  -8 9817.08 585.772  27
   1  -4  -8 10535.0 614.969   7
   1  -4  -8 10737.0 628.848  35
  -1   4   8 10096.9 555.048  29
   1  -4  -8 9983.21 620.730  36
   1  -4  -7 52242.7 1632.16  27
  -1   4   7 53099.1 1684.43  13
   1  -4  -7 53739.5 1686.61  36
   1  -4  -7 56018.3 1716.39  35
  -1   4   7 54553.2 1600.48  29
   1  -4  -7 54898.2 1670.61   7
  -1   4   6 20527.4 866.353  13
   1  -4  -6 20721.2 862.154   7
   1  -4  -6 20480.3 880.828  37
   1  -4  -6 21369.1 827.635  26
  -1   4   6 18934.3 789.973  29
  -1   4   5 45305.8 1250.54  28
  -1   4   5 46636.7 1410.80  13
   1  -4  -5 43101.1 1258.97  31
  -1   4   5 43508.2 1380.10  25
   1  -4  -5 45043.1 1395.62   7
   1  -4  -5 44895.2 1394.43  37
  -1   4   5 44601.0 1236.90  33
  -1   4   5 47196.1 1360.82  29
   1  -4  -4 171493. 3966.02  31
   1  -4  -4 168723. 4035.30  37
  -1   4   4 189053. 4022.78  29
   1  -4  -4 167842. 3959.42  26
  -1   4   4 174052. 3914.11  33
  -1   4   4 182484. 4049.78  25
  -1   4   4 184611. 3943.62  28
   1  -4  -3 270174. 6047.68  37
  -1   4   3 282551. 5995.65  28
   1  -4  -3 274690. 6086.07   7
   1  -4  -3 282810. 5993.35  26
  -1   4   3 288678. 6057.33  25
  -1   4   3 293326. 6048.76  29
  -1   4   3 267552. 5964.95  33
   1  -4  -2 74773.6 1858.07  26
   1  -4  -2 75103.4 1892.59  37
  -1   4   2 72581.4 1858.50  33
   1  -4  -2 77461.6 1932.73   7
  -1   4   2 75147.3 1891.60  25
  -1   4   1 94.4796 46.3718  25
   1  -4  -1 114.222 37.8946  24
   1  -4  -1 120.503 57.3076  26
  -1   4   1 187.427 64.3624  29
  -1   4   1 104.981 57.2393  33
  -1   4   1 132.763 54.2802  28
   1  -4  -1 165.536 65.6371   7
  -1   4   0 35610.1 972.044  29
  -1   4   0 34173.5 1008.98  28
   1  -4   0 30931.4 830.138  24
   1  -4   0 34506.7 947.481  26
   1  -4   0 33300.1 975.056   7
  -1   4   0 34188.4 916.601  25
  -1   4   0 30719.6 958.307  33
  -1   4   0 36901.6 1039.85   4
  -1   4  -1 7832.86 397.238   4
   1  -4   1 7384.57 280.332  24
   1  -4   1 8148.31 369.307   7
   1  -4   1 7826.18 347.060  26
  -1   4  -1 8476.58 370.423  29
  -1   4  -2 84364.1 1993.54  28
   1  -4   2 78998.1 1778.87  24
   1  -4   2 77899.3 1881.39  26
   1  -4   2 79359.1 1885.79   7
  -1   4  -2 75493.3 1958.51   4
  -1   4  -2 83003.2 1875.26  29
  -1   4  -3 3994.51 278.803   3
  -1   4  -3 3925.11 212.490  29
  -1   4  -3 4137.56 285.259   4
   1  -4   3 3483.95 190.721  24
   1  -4   3 4163.98 251.190  26
   1  -4   3 3972.41 226.809   7
  -1   4  -3 3833.80 271.344  28
  -1   4  -4 17890.6 685.002   4
   1  -4   4 20647.2 682.830  26
   1  -4   4 19750.4 723.592  31
  -1   4  -4 18673.2 694.497   3
  -1   4  -4 19431.4 676.769   6
  -1   4  -4 19664.7 705.786  28
  -1   4  -5 15175.5 606.990   3
  -1   4  -5 14698.3 587.667  28
  -1   4  -5 15319.7 612.166   6
   1  -4   5 14849.1 605.788  31
   1  -4   5 15581.6 588.347  26
  -1   4  -6 24966.0 925.223  10
   1  -4   6 26354.4 840.783  26
  -1   4  -6 23972.2 926.560  17
  -1   4  -6 24624.8 934.086  11
  -1   4  -6 23474.6 914.781  16
  -1   4  -6 24811.3 876.450   6
  -1   4  -6 22869.3 767.263  28
  -1   4  -6 23276.8 891.946  22
  -1   4  -6 24275.3 913.421  15
  -1   4  -6 23718.9 871.496  12
  -1   4  -7 11781.2 550.630  21
  -1   4  -7 13430.0 666.529  11
  -1   4  -7 12701.5 662.610  17
  -1   4  -7 12683.4 625.400  22
  -1   4  -7 11910.1 610.080   6
  -1   4  -7 12147.5 649.017  16
  -1   4  -7 11968.1 601.496  12
  -1   4  -7 12424.4 629.993  10
  -1   4  -7 12181.0 637.751  15
  -1   4  -8 2142.98 265.202   6
  -1   4  -8 2235.08 262.083  12
  -1   4  -8 2248.29 258.653  22
  -1   4  -8 2136.90 253.906  10
  -1   4  -8 1781.90 255.586  17
  -1   4  -8 2231.73 273.558  11
  -1   4  -8 1440.82 190.958  21
  -1   4  -8 1906.65 258.899  15
  -1   4  -9 34475.9 1196.70  10
  -1   4  -9 37538.2 1258.04  22
  -1   4  -9 36847.0 1265.47  11
  -1   4  -9 37786.6 1357.31  15
  -1   4  -9 37861.7 1209.32  21
  -1   4  -9 38618.6 1289.45  12
  -1   4  -9 37318.0 1370.57  17
  -1   4 -10 26128.4 1069.40  16
  -1   4 -10 25309.5 1062.15  15
  -1   4 -10 24687.3 978.893  12
  -1   4 -10 24824.5 919.855  21
  -1   4 -10 26623.0 972.063  22
  -1   4 -10 24167.1 926.568  11
  -1   4 -10 26251.7 1085.05  17
  -1   4 -11 12875.9 679.947  16
  -1   4 -11 12290.4 611.716  12
  -1   4 -11 12125.1 675.161  17
  -1   4 -12 16922.3 721.620  16
  -1   4 -12 16982.3 662.552  12
  -1   4 -13 468.403 90.3401  16
   1  -3 -14 1450.48 126.426  12
   1  -3 -13 4595.40 307.535  36
   1  -3 -13 5247.94 312.434  15
   1  -3 -12 64.5437 63.6184  15
   1  -3 -12 17.2997 50.3760  36
   1  -3 -11 9495.09 557.420  15
   1  -3 -11 8257.08 537.582  37
   1  -3 -11 8883.47 560.670  36
   1  -3 -10 26434.0 1014.26  35
   1  -3 -10 30715.5 1167.28  36
   1  -3 -10 29501.5 1141.36  37
   1  -3 -10 26787.6 1050.32  27
  -1   3  10 26296.1 1119.03  25
   1  -3  -9 8473.68 530.070  27
   1  -3  -9 8085.34 560.489  37
   1  -3  -9 8427.02 565.243  36
  -1   3   9 7240.96 540.103  25
   1  -3  -9 8914.93 551.018  35
  -1   3   9 9703.52 565.673  13
  -1   3   8 164378. 3881.69  13
  -1   3   8 168275. 3946.93  25
   1  -3  -8 164247. 3932.83  36
   1  -3  -8 158263. 3746.13  20
   1  -3  -8 157807. 3823.59  27
   1  -3  -8 154565. 3868.37  35
   1  -3  -8 156430. 3921.68  37
  -1   3   7 8447.87 510.933  13
   1  -3  -7 8745.52 488.683  27
   1  -3  -7 8422.72 449.973  20
   1  -3  -7 8166.31 492.465   7
  -1   3   7 8320.40 521.613  25
   1  -3  -7 8935.19 527.954  36
   1  -3  -7 8375.38 521.634  35
   1  -3  -7 8255.36 519.473  37
  -1   3   7 9141.01 467.047  29
  -1   3   6 801.921 132.059  29
   1  -3  -6 704.250 131.465  27
   1  -3  -6 586.006 131.135  36
   1  -3  -6 775.391 146.941   7
  -1   3   6 615.516 137.008  25
   1  -3  -6 600.922 136.702  35
   1  -3  -6 661.940 124.894  26
  -1   3   5 33436.2 929.235  28
   1  -3  -5 34655.2 1098.67  37
   1  -3  -5 35522.7 1039.18  26
   1  -3  -5 32201.3 935.729  31
   1  -3  -5 35807.0 1095.83   7
  -1   3   5 35271.5 1036.56  29
   1  -3  -4 31075.6 1008.83  37
  -1   3   4 29602.5 1003.47  25
  -1   3   4 33728.1 928.718  28
  -1   3   4 35079.8 995.128  29
   1  -3  -4 33768.9 1026.13   7
   1  -3  -4 33008.3 944.650  31
   1  -3  -3 19452.4 638.642  31
  -1   3   3 19221.5 639.836  29
  -1   3   3 19348.9 680.124  23
  -1   3   3 18863.9 660.948  25
  -1   3   3 18824.0 610.070  28
  -1   3   2 18913.2 630.291  25
  -1   3   2 20254.6 678.216  23
   1  -3  -2 19037.6 570.676  24
   1  -3  -2 19189.3 607.120  26
  -1   3   2 19489.7 618.593  28
   1  -3  -2 20268.3 655.126   7
  -1   3   2 20396.9 636.113  29
   1  -3  -1 41117.3 1003.17  24
   1  -3  -1 43240.3 1100.77   7
  -1   3   1 41283.3 1066.24  25
  -1   3   1 40890.3 1085.71  28
   1  -3  -1 41712.8 1054.72  26
  -1   3   0 7407.40 284.367  25
  -1   3   0 6989.30 306.704  29
  -1   3   0 7499.90 332.751  28
   1  -3   0 7139.58 312.774   7
   1  -3   0 7725.96 274.667  24
   1  -3   0 7472.90 303.112  26
  -1   3  -1 32272.5 840.892  29
   1  -3   1 32122.0 850.043  26
   1  -3   1 32479.6 844.407   7
  -1   3  -1 32616.8 776.647  25
   1  -3   1 31081.5 793.567  24
  -1   3  -2 4023.93 198.804  29
   1  -3   2 4145.48 200.638   7
  -1   3  -2 3872.73 231.188  28
   1  -3   2 3966.99 192.516  24
   1  -3   2 4254.48 225.057  26
   1  -3   3 91429.4 1999.11  31
   1  -3   3 83692.6 1830.13   7
  -1   3  -3 87033.9 1961.57  28
   1  -3   3 91435.8 1897.23  24
  -1   3  -3 86460.5 1830.10  29
   1  -3   4 4905.56 270.374  31
  -1   3  -4 4596.59 267.894   6
   1  -3   4 4834.06 248.445  24
   1  -3   4 4254.25 186.285  19
  -1   3  -4 4511.37 254.219  28
   1  -3   5 62688.0 1487.28  24
   1  -3   5 60719.6 1453.48  31
  -1   3  -5 58863.0 1436.13  28
  -1   3  -5 59642.9 1524.00   6
  -1   3  -5 58528.7 1534.58  36
   1  -3   6 861.673 126.116  24
  -1   3  -6 915.723 145.735  36
  -1   3  -6 975.041 146.392   6
  -1   3  -7 8247.71 453.807  14
  -1   3  -7 8342.63 492.425  17
  -1   3  -7 8279.07 474.275  36
  -1   3  -7 8182.92 473.314  12
  -1   3  -7 6674.70 432.766  11
  -1   3  -7 8719.14 465.649  22
   1  -3   7 8591.19 441.826  24
  -1   3  -8 64631.0 1797.15  22
  -1   3  -8 62773.4 1775.51  14
  -1   3  -8 64643.8 1902.69  17
  -1   3  -8 68918.5 1885.36  36
  -1   3  -8 65291.8 1860.59  12
  -1   3  -8 63075.1 1765.41  21
  -1   3  -8 63426.8 1799.79  11
  -1   3  -8 66653.4 1899.22  16
   1  -3   8 66065.3 1784.70  24
  -1   3  -9 20231.7 876.842  36
  -1   3  -9 19083.1 798.503  14
  -1   3  -9 19891.8 813.848  22
  -1   3  -9 20104.5 878.011   6
  -1   3  -9 20075.8 903.600  17
  -1   3  -9 18499.0 787.267  21
  -1   3  -9 19064.0 786.388  11
  -1   3  -9 19503.4 897.445  15
  -1   3  -9 20231.5 877.173  12
  -1   3  -9 21574.7 918.806  16
  -1   3 -10 4236.80 397.038  17
  -1   3 -10 4275.74 382.031  12
  -1   3 -10 4160.59 382.099   6
  -1   3 -10 4075.84 376.558  36
  -1   3 -10 4023.84 340.954  14
  -1   3 -10 4944.36 417.575  16
  -1   3 -10 4082.35 340.152  22
  -1   3 -10 4298.74 410.115  15
  -1   3 -11 2715.72 297.921   6
  -1   3 -11 2953.82 310.548  12
  -1   3 -11 2399.53 284.948  16
  -1   3 -11 2516.05 308.786  15
  -1   3 -11 2522.45 303.769  17
  -1   3 -11 2611.99 254.919  14
  -1   3 -12 67.2078 66.2435  16
  -1   3 -12 53.9714 67.6284  17
  -1   3 -12 17.0663 53.6769  12
  -1   3 -13 3132.25 249.903  12
  -1   3 -13 2810.99 278.328  15
  -1   3 -14 21193.7 684.066  15
   1  -2 -14 508.205 89.0507  12
   1  -2 -14 586.133 94.2257  15
   1  -2 -13 5618.51 373.457  12
   1  -2 -13 5095.83 352.321  15
   1  -2 -13 4944.67 345.770  36
   1  -2 -12 6243.11 441.886  15
   1  -2 -12 5647.49 422.589  36
   1  -2 -11 3017.90 281.935  17
   1  -2 -11 3295.47 343.699  15
   1  -2 -11 3345.60 348.749  36
   1  -2 -10 3599.96 358.069  37
   1  -2 -10 4115.08 388.477  15
  -1   2  10 3059.77 345.681  25
   1  -2 -10 3680.91 335.077  35
   1  -2 -10 3198.47 348.905  36
   1  -2 -10 3345.52 304.737  17
   1  -2  -9 2552.99 277.341  35
   1  -2  -9 2502.21 268.206  27
  -1   2   9 2309.28 293.021  25
   1  -2  -9 2577.89 301.787  37
   1  -2  -9 2432.26 263.537  20
   1  -2  -9 2390.21 292.036  36
   1  -2  -9 2336.91 250.882  17
   1  -2  -8 24118.3 894.994  27
  -1   2   8 24642.5 991.605  25
   1  -2  -8 24577.2 896.650  20
   1  -2  -8 23250.4 871.321  17
   1  -2  -8 24916.1 980.615  36
   1  -2  -8 24229.1 970.998  37
   1  -2  -8 27366.6 989.752  35
   1  -2  -7 103188. 2523.59  27
   1  -2  -7 102175. 2502.56  20
  -1   2   7 102890. 2637.45  25
   1  -2  -7 106038. 2625.41  36
  -1   2   7 102229. 2477.00  23
  -1   2   7 103336. 2437.93  29
   1  -2  -7 102235. 2621.03  37
   1  -2  -7 106379. 2622.23  35
   1  -2  -6 138704. 3246.42  36
  -1   2   6 144813. 3280.89  25
   1  -2  -6 139249. 3270.27  37
   1  -2  -6 137909. 3176.52  26
   1  -2  -6 136830. 3209.19   7
   1  -2  -6 138885. 3262.85  35
  -1   2   6 136154. 3167.18  23
  -1   2   6 139130. 3129.18  29
   1  -2  -5 193087. 4254.44  36
  -1   2   5 203682. 4232.77  23
   1  -2  -5 196148. 4255.30   7
  -1   2   5 189632. 4044.54  28
   1  -2  -5 181547. 4048.15  31
  -1   2   5 195520. 4301.94  25
   1  -2  -5 200944. 4219.14  26
  -1   2   5 199942. 4175.89  29
   1  -2  -5 192060. 4287.69  35
  -1   2   4 6821.64 333.874  23
  -1   2   4 6734.05 267.288  28
   1  -2  -4 7072.61 339.852   7
  -1   2   4 6539.14 303.393  29
   1  -2  -4 6473.40 273.101  31
   1  -2  -4 6249.22 296.014  26
   1  -2  -3 33770.5 894.931  26
  -1   2   3 33879.4 901.205  29
  -1   2   3 34871.1 950.801  23
  -1   2   3 34500.4 865.458  28
   1  -2  -3 35072.9 889.782  31
   1  -2  -2 427298. 8899.87  31
   1  -2  -2 430647. 8932.74   7
   1  -2  -2 445130. 8865.29  24
  -1   2   2 429775. 8905.50  25
  -1   2   2 432604. 8936.20  23
  -1   2   2 430570. 8867.83  28
   1  -2  -1 736126. 15204.3   7
   1  -2  -1 755292. 15161.7  24
   1  -2  -1 771116. 15175.4  26
  -1   2   1 735703. 15231.6  23
  -1   2   1 742291. 15174.5  25
  -1   2   1 741248. 15188.3  28
   1  -2   0 6801.50 247.197  24
  -1   2   0 6887.50 235.315  25
  -1   2   0 7391.37 290.767  23
   1  -2   0 7111.99 265.050   7
   1  -2   0 7782.88 295.591  31
   1  -2   1 20771.0 557.829  31
  -1   2  -1 19443.9 534.480  23
   1  -2   1 18326.1 498.089  24
  -1   2  -1 17883.0 423.306  25
   1  -2   1 17223.9 445.681  19
   1  -2   1 19324.6 494.737   7
   1  -2   2 19860.7 485.483   7
   1  -2   2 21038.6 577.547  31
   1  -2   2 19364.8 538.083  24
  -1   2  -2 19950.5 561.614  28
   1  -2   3 5753.30 220.778  19
   1  -2   3 5178.17 153.065   7
  -1   2  -3 5662.62 244.511  28
   1  -2   4 39521.1 962.211  19
   1  -2   4 37053.4 943.381  31
  -1   2  -4 38049.4 947.022  28
  -1   2  -5 7599.50 278.609  28
   1  -2   5 7261.88 275.407  31
  -1   2  -5 7010.83 355.027   6
   1  -2   5 7356.92 327.805  19
  -1   2  -5 7391.50 358.097  36
  -1   2  -6 289.889 81.4615  36
   1  -2   6 332.322 75.0182  19
   1  -2   7 1197.96 157.758  19
  -1   2  -7 1219.29 177.062  15
  -1   2  -7 1130.05 170.965   6
  -1   2  -7 1474.95 188.034  36
  -1   2  -8 86.6397 54.2983  22
   1  -2   8 151.572 64.9779  19
  -1   2  -8 35.1371 51.1743  36
  -1   2  -8 37.0334 49.2383  15
  -1   2  -8 100.499 62.9784  14
  -1   2  -8 52.7554 59.1407  17
  -1   2  -8 89.6096 61.5149  21
  -1   2  -8 127.190 68.3156  12
  -1   2  -8 17.2934 65.0212   6
  -1   2  -8 69.3008 58.2671  16
  -1   2  -9 627.736 148.133   6
  -1   2  -9 618.272 145.920  16
  -1   2  -9 561.890 142.787  12
  -1   2  -9 715.837 142.186  22
  -1   2  -9 786.154 151.303  21
   1  -2   9 576.182 127.011  19
  -1   2  -9 984.117 189.111  15
  -1   2  -9 656.932 145.261  14
  -1   2  -9 866.796 173.350  36
  -1   2  -9 796.157 166.201  17
  -1   2 -10 3996.13 365.088   6
  -1   2 -10 4302.87 371.443  14
  -1   2 -10 3817.69 360.252  16
  -1   2 -10 3936.35 379.977  12
  -1   2 -10 4278.39 406.820  15
  -1   2 -10 4390.35 387.292  36
  -1   2 -10 3421.11 343.427  17
  -1   2 -11 45796.8 1435.88  14
  -1   2 -11 45326.6 1543.53  15
  -1   2 -11 45836.8 1520.30  12
  -1   2 -11 43311.4 1455.23  17
  -1   2 -11 43294.0 1421.00  16
  -1   2 -11 44639.1 1479.50   6
  -1   2 -11 44882.0 1495.98  36
  -1   2 -12 38536.4 1350.54  15
  -1   2 -12 38407.2 1259.09  17
  -1   2 -12 41245.6 1350.70  12
  -1   2 -12 39561.9 1323.80  36
  -1   2 -12 39242.0 1224.67  14
  -1   2 -12 40015.1 1306.64   6
  -1   2 -12 36687.0 1201.66  16
  -1   2 -13 7201.87 430.386  12
  -1   2 -13 6838.70 444.363  15
  -1   2 -14 9112.47 420.544  15
  -1   2 -14 8078.37 372.672  12
   1  -1 -14 44.7868 44.1537  15
   1  -1 -14 55.0412 39.3295  12
   1  -1 -13 2024.28 195.122  17
   1  -1 -13 2775.36 263.563  12
   1  -1 -13 2799.39 270.791  36
   1  -1 -13 3040.44 289.104  15
   1  -1 -12 2299.67 277.242  36
   1  -1 -12 2033.60 234.652  17
   1  -1 -12 2212.00 272.237  12
   1  -1 -12 2366.17 287.542  15
   1  -1 -11 19787.9 906.735  15
   1  -1 -11 18043.2 798.998  17
   1  -1 -11 17628.4 854.556  36
   1  -1 -10 360.635 125.839  36
  -1   1  10 419.526 133.029  25
   1  -1 -10 228.611 98.9276  20
   1  -1 -10 326.746 109.766  17
   1  -1 -10 327.490 103.926  35
   1  -1 -10 368.131 122.486  15
  -1   1   9 46405.4 1525.54  25
   1  -1  -9 44078.2 1327.71  27
   1  -1  -9 46495.7 1448.08  35
   1  -1  -9 47682.6 1490.66  37
   1  -1  -9 47970.4 1457.39  17
   1  -1  -9 45726.2 1430.84  20
   1  -1  -9 46798.1 1507.81  36
   1  -1  -8 67934.6 1791.42  27
  -1   1   8 70283.6 1964.84  25
   1  -1  -8 69692.6 1908.31  35
   1  -1  -8 69564.3 1929.76  37
   1  -1  -8 68139.4 1855.72  20
   1  -1  -8 69832.8 1881.85  17
   1  -1  -8 68900.0 1936.68  36
   1  -1  -8 71940.7 1926.97  21
   1  -1  -7 24084.8 872.898  35
  -1   1   7 25034.2 912.568  25
   1  -1  -7 24983.9 804.052  27
  -1   1   7 24466.0 779.027  23
   1  -1  -7 24982.2 894.040  36
   1  -1  -7 24048.5 878.517  37
  -1   1   6 50970.1 1424.63  25
  -1   1   6 49695.9 1321.35  23
  -1   1   6 52408.3 1268.98  29
   1  -1  -6 50604.0 1401.24  36
   1  -1  -6 51926.7 1423.98  35
   1  -1  -6 53161.6 1427.65  37
   1  -1  -5 28947.1 792.618  26
  -1   1   5 30320.3 828.066  23
  -1   1   5 31258.8 887.994  25
   1  -1  -5 30103.8 877.226  37
  -1   1   5 29467.8 768.839  29
   1  -1  -4 40177.1 978.421  26
  -1   1   4 38976.8 1013.67  23
   1  -1  -4 41704.2 1038.94   7
  -1   1   4 40275.2 1047.48  25
  -1   1   4 39132.8 900.541  28
   1  -1  -4 37003.7 905.358  31
   1  -1  -3 141960. 2957.23  31
  -1   1   3 135652. 2935.46  28
  -1   1   3 141139. 3030.97  25
   1  -1  -3 144159. 3043.07   7
   1  -1  -3 142343. 2978.54  26
  -1   1   3 138905. 3030.48  23
  -1   1   2 176537. 3680.46   8
  -1   1   2 177386. 3730.84  23
   1  -1  -2 179527. 3685.42  31
   1  -1  -2 173410. 3673.30  26
   1  -1  -1 1690.11 107.291   7
  -1   1   1 1722.27 107.161   8
   1  -1  -1 1728.61 96.5548  26
   1  -1   0 124.262 35.6453  31
   1  -1   0 204.483 33.7904  19
  -1   1   0 213.309 41.4159  23
   1  -1   0 195.753 34.6459   7
  -1   1  -1 281192. 5851.11   8
   1  -1   1 289676. 5853.83  31
  -1   1  -1 283667. 5819.90  23
   1  -1   1 279407. 5796.75   7
   1  -1   1 292137. 5822.16  19
   1  -1   2 125010. 2725.38  19
  -1   1  -2 128033. 2659.11  23
  -1   1  -2 125887. 2724.78  30
  -1   1  -2 129756. 2726.25   8
   1  -1   3 1275.08 90.6401  31
   1  -1   3 1132.90 61.0853  25
  -1   1  -3 1231.16 97.9531  30
  -1   1  -3 1178.69 86.7694  28
   1  -1   3 1334.60 106.024  19
   1  -1   4 2300.46 118.460  25
  -1   1  -4 2600.58 158.150  30
   1  -1   4 2393.09 123.178  31
  -1   1  -4 2545.71 127.551  28
   1  -1   4 2653.25 175.373  19
  -1   1  -5 20.4860 28.1213  30
  -1   1  -5-6.60343 19.2310  27
   1  -1   5 20.2895 19.0708  25
  -1   1  -5 9.82905 26.1283   6
  -1   1  -5 29.8593 14.4954  28
   1  -1   5 81.6132 44.4452  19
   1  -1   6 1144.75 111.613  25
   1  -1   6 1111.65 143.510  19
  -1   1  -6 1234.31 159.085   6
  -1   1  -6 1338.71 162.885  36
  -1   1  -6 1119.99 122.930  30
  -1   1  -7 1214.53 170.166  36
  -1   1  -7 1074.85 126.348  30
  -1   1  -7 1063.04 159.066   6
   1  -1   7 1245.66 170.622  19
  -1   1  -8 30044.6 1020.16  16
  -1   1  -8 29360.9 1053.43  15
  -1   1  -8 30954.2 1087.68  36
  -1   1  -8 31701.5 1071.00   6
   1  -1   8 30403.0 1069.81  19
  -1   1  -8 28695.1 1005.64  17
  -1   1  -9 14598.3 685.365  17
  -1   1  -9 15394.4 721.295   6
  -1   1  -9 14125.1 665.700  16
   1  -1   9 13839.3 711.077  19
  -1   1  -9 14726.3 729.574  36
  -1   1  -9 15441.5 747.285  15
  -1   1  -9 16489.7 761.251  14
  -1   1 -10 70080.1 1981.35  16
  -1   1 -10 74676.6 2135.49  15
  -1   1 -10 74158.5 2131.26  36
  -1   1 -10 69992.1 1995.96  17
   1  -1  10 69594.3 2076.17  19
  -1   1 -10 72705.9 2066.09   6
  -1   1 -10 74172.4 2113.82  14
  -1   1 -11 11485.3 641.875  14
  -1   1 -11 11925.1 669.649  36
  -1   1 -11 10085.7 545.248  16
  -1   1 -11 11677.7 678.571  12
  -1   1 -11 10319.7 633.818  15
  -1   1 -11 10081.7 562.355  17
  -1   1 -11 10804.0 610.911   6
  -1   1 -12 14243.4 697.849  14
  -1   1 -12 15544.4 713.643   6
  -1   1 -12 15580.2 768.506  12
  -1   1 -12 15840.2 761.914  36
  -1   1 -12 16529.0 781.531  15
  -1   1 -13 7765.51 461.537  36
  -1   1 -13 6623.39 394.597  14
  -1   1 -13 7706.85 467.066  12
  -1   1 -13 8084.86 472.440  15
  -1   1 -13 7580.38 426.837   6
  -1   1 -14 22064.7 734.879  15
  -1   1 -14 22538.6 747.300  12
   1   0 -14 5771.20 338.958  15
   1   0 -14 4735.77 255.839  17
   1   0 -13 34024.5 1137.48  15
   1   0 -13 30478.7 1021.86  12
   1   0 -13 31573.9 1080.50  36
   1   0 -13 31352.3 1032.62  17
   1   0 -12 43.4937 63.3310  15
   1   0 -12 37.6851 54.8763  17
   1   0 -12 56.3083 59.0414  12
   1   0 -12 163.560 90.9400  36
   1   0 -11 84.2006 75.0708  17
   1   0 -11 22.3651 53.1769  36
   1   0 -11 42.2447 61.5072  12
   1   0 -10 1021.72 186.574  17
   1   0 -10 1317.13 222.336  36
  -1   0  10 1020.60 194.852  25
   1   0 -10 840.513 171.118  20
   1   0 -10 959.694 189.089  21
   1   0  -9 32768.5 1143.49  17
   1   0  -9 31588.9 1150.41  36
   1   0  -9 30566.0 1091.34  35
  -1   0   9 29228.8 1126.12  25
   1   0  -9 34195.3 1157.41  21
   1   0  -9 31145.0 1094.03  20
   1   0  -9 30870.3 1031.95   6
   1   0  -8 24942.9 855.337   6
   1   0  -8 25263.6 933.835  35
   1   0  -8 25392.9 947.091  36
   1   0  -8 26415.3 939.909  21
   1   0  -8 24524.3 921.933  17
  -1   0   8 24870.6 958.362  25
   1   0  -8 25683.8 907.443  20
   1   0  -7 38688.7 1157.86  35
  -1   0   7 39207.6 1180.46  25
   1   0  -7 35852.2 991.587  27
   1   0  -7 37212.0 1155.13  36
  -1   0   7 36695.6 1027.62  23
   1   0  -7 36866.6 1073.19   6
   1   0  -7 37830.5 1144.88  37
   1   0  -6 69367.7 1770.86  37
   1   0  -6 71032.8 1792.19  35
  -1   0   6 71079.4 1786.60  25
   1   0  -6 70577.6 1633.97  27
   1   0  -6 69201.8 1764.17  36
  -1   0   6 70444.2 1685.33  23
   1   0  -6 67594.6 1686.06   6
  -1   0   5 101946. 2163.66  23
   1   0  -5 91880.6 1956.72   1
  -1   0   4 166866. 3501.28  23
   1   0  -4 160458. 3375.25   1
  -1   0   4 162324. 3377.25   8
   1   0  -3 144823. 3010.75  31
  -1   0   3 151301. 3110.05  23
   1   0  -3 139805. 2984.31  26
  -1   0   3 144853. 3016.95   8
   1   0  -2 132104. 2735.91  31
   1   0  -2 128898. 2676.30  26
   1   0  -2 128965. 2734.61  24
  -1   0   2 130609. 2741.51   8
  -1   0   2 132436. 2793.19  23
  -1   0   1 679153. 13371.4   8
   1   0  -1 657819. 13346.2  24
   1   0  -1 653359. 13296.8  26
   1   0   0 831.590 68.4718  31
   1   0   0 813.642 61.5307  24
  -1   0   0 787.016 64.4090  30
  -1   0  -1 203352. 4235.00   8
   1   0   1 205972. 4227.08  31
   1   0   2 3991.30 160.841  31
   1   0   2 3852.16 153.377  25
  -1   0  -2 3791.68 163.832   8
  -1   0  -3 23754.3 594.369   8
  -1   0  -3 25161.2 551.955   7
   1   0   3 25720.3 683.263  19
   1   0   3 24098.2 584.603  31
   1   0   3 25284.5 620.055  25
  -1   0  -3 25189.4 652.522  27
  -1   0  -3 25440.2 658.793  30
   1   0   4 65446.1 1469.12  25
   1   0   4 70641.1 1564.23  19
  -1   0  -4 65690.1 1500.78  27
  -1   0  -4 62446.7 1342.05   7
  -1   0  -4 65058.0 1385.51   8
   1   0   4 57943.3 1357.45   1
  -1   0  -4 67267.2 1511.16  30
  -1   0  -5 282.131 32.7921  28
   1   0   5 409.432 73.4920  25
  -1   0  -5 376.326 81.3393   6
  -1   0  -5 292.076 66.0906  30
  -1   0  -5 331.497 72.6556  27
   1   0   5 295.642 76.8919  19
  -1   0  -6 15794.8 573.213  30
   1   0   6 15300.0 549.628  25
  -1   0  -6 14997.5 562.994  27
   1   0   6 15976.4 636.597  19
  -1   0  -6 15836.7 626.065  36
  -1   0  -6 15634.5 619.688   6
   1   0   7 119.055 51.5450  25
  -1   0  -7 145.060 66.8468   6
  -1   0  -7 178.236 59.9969  30
   1   0   7 155.381 76.2097  19
  -1   0  -7 77.7005 66.6674  36
  -1   0  -7 227.732 71.2976  27
  -1   0  -8 974.654 162.849   6
  -1   0  -8 565.607 114.009  16
   1   0   8 744.498 153.886  19
  -1   0  -8 705.623 127.059  27
  -1   0  -8 669.934 123.092  30
  -1   0  -8 538.784 133.204  36
  -1   0  -8 714.723 152.246  12
  -1   0  -8 693.994 136.760  15
  -1   0  -9 1012.02 176.875   6
  -1   0  -9 1090.94 198.262  36
  -1   0  -9 1146.60 162.514  16
   1   0   9 1143.77 201.635  19
  -1   0  -9 1267.79 201.644  15
  -1   0  -9 1390.71 224.843  12
  -1   0  -9 1023.47 159.632  27
   1   0  10 33139.0 1260.47  19
  -1   0 -10 31848.0 1173.83   6
  -1   0 -10 32689.3 1267.86  12
  -1   0 -10 32883.3 1207.51  15
  -1   0 -10 35073.2 1281.88  36
  -1   0 -11 8256.21 543.231  15
  -1   0 -11 9004.20 587.969  14
  -1   0 -11 9035.85 539.002   6
  -1   0 -11 9581.36 613.922  12
  -1   0 -11 8489.78 574.924  36
  -1   0 -12 12409.9 673.186  36
  -1   0 -12 12829.5 674.187  14
  -1   0 -12 12578.6 615.158   6
  -1   0 -12 12359.2 648.667  15
  -1   0 -13 6576.00 431.807  36
  -1   0 -13 7995.12 445.686  15
  -1   0 -13 7487.24 435.949  14
  -1   0 -13 6514.59 376.721   6
  -1   0 -14 444.182 93.8762  15
   1   1 -14 3680.86 243.758  17
   1   1 -13 2297.91 255.448  15
   1   1 -13 2268.95 245.108  17
   1   1 -12 25494.9 1024.89  17
   1   1 -12 24462.6 915.387  12
   1   1 -12 26650.4 1027.47  36
   1   1 -12 26898.0 1053.45  15
   1   1 -11 9680.89 596.194  36
   1   1 -11 9924.49 560.873  12
   1   1 -11 8571.92 533.940  20
   1   1 -11 10558.8 612.817  21
   1   1 -11 11129.6 649.534  15
   1   1 -11 11648.2 653.660  17
   1   1 -10 16070.6 784.778  36
   1   1 -10 15897.1 744.907  12
   1   1 -10 17477.3 807.428  21
   1   1 -10 15984.1 745.397  20
   1   1 -10 17540.4 832.562  15
   1   1 -10 16423.5 808.667  17
   1   1  -9 22799.3 931.182  15
   1   1  -9 21391.0 898.367  36
   1   1  -9 22227.0 912.245  22
   1   1  -9 21735.8 858.368  12
   1   1  -9 21282.1 884.380  21
   1   1  -9 21181.4 848.200  20
  -1  -1   9 19962.8 867.636  25
   1   1  -9 22118.7 917.412  17
   1   1  -9 19493.2 802.893  16
   1   1  -8 9468.38 513.288  16
   1   1  -8 11426.1 547.164   6
  -1  -1   8 11059.0 568.992  25
   1   1  -8 12003.3 581.936  35
   1   1  -8 12244.1 561.436  20
   1   1  -8 11371.3 583.079  17
   1   1  -8 10800.1 560.185  21
   1   1  -8 11159.3 576.266  36
   1   1  -8 10406.7 562.611  15
   1   1  -7 837.227 140.418  35
   1   1  -7 967.006 131.463   5
   1   1  -7 912.063 146.986  36
  -1  -1   7 1098.80 157.566  25
   1   1  -7 1007.14 144.042   6
   1   1  -6 16585.2 630.326  36
   1   1  -6 16946.0 612.598   6
   1   1  -6 16639.0 588.133   5
  -1  -1   6 17172.1 590.764  23
   1   1  -6 17186.7 647.582  35
   1   1  -5 82739.2 1796.38   1
   1   1  -5 82693.4 1970.22  36
  -1  -1   5 90373.1 1973.64  23
   1   1  -5 79860.3 1753.93  27
  -1  -1   5 81772.1 1813.40   8
   1   1  -5 87959.3 2017.95  35
   1   1  -4 31062.2 756.904   1
  -1  -1   4 28941.7 759.825   8
  -1  -1   4 31508.2 855.763  23
  -1  -1   3 135208. 2889.49   8
   1   1  -3 135459. 2875.03   1
  -1  -1   2 95009.5 2082.54   8
   1   1  -2 95369.7 2000.44  24
   1   1  -2 95535.6 2071.59   1
  -1  -1   1 3775.77 180.819   8
   1   1  -1 3492.95 126.240  24
   1   1  -1 3698.12 160.537  19
  -1  -1   1 3702.36 146.514  30
   1   1   0 162.159 40.0482   1
  -1  -1   0 143.831 32.1638  27
   1   1   0 201.638 40.8056  19
   1   1   0 113.933 24.6248  24
  -1  -1   0 163.545 37.6041  30
   1   1   1 62489.2 1419.09   1
   1   1   1 62707.2 1433.91  25
  -1  -1  -1 65578.9 1452.71   8
  -1  -1  -1 63346.7 1433.14  30
  -1  -1  -1 63238.3 1423.09  27
   1   1   1 63497.5 1427.13  19
   1   1   2 98135.7 2135.18   1
   1   1   2 100279. 2181.65  25
  -1  -1  -2 102141. 2176.60   8
   1   1   2 97208.1 2188.92  19
  -1  -1  -2 101833. 2197.76  30
  -1  -1  -2 95762.8 2180.52  27
  -1  -1  -3 133866. 2799.31   8
   1   1   3 126230. 2840.64  25
  -1  -1  -3 129248. 2778.18   7
   1   1   3 130613. 2754.77   1
   1   1   4 78621.6 1775.02  25
   1   1   4 75930.3 1623.69   1
  -1  -1  -4 76010.9 1790.59  30
  -1  -1  -4 74829.2 1674.14   7
   1   1   5 2288.01 190.073  25
  -1  -1  -5 2261.85 124.588   8
  -1  -1  -5 2366.58 198.299  27
  -1  -1  -5 1942.32 138.592   7
  -1  -1  -5 2194.13 192.325  30
  -1  -1  -5 2055.94 190.689   6
  -1  -1  -5 2586.24 219.144  36
  -1  -1  -6 64.5164 50.8785   6
   1   1   6 27.9786 49.8951  19
  -1  -1  -6 54.3574 27.8207   7
   1   1   6 46.4085 41.3841  25
  -1  -1  -6 49.9208 46.9215  30
  -1  -1  -6 10.4778 27.8651  37
  -1  -1  -6 61.6335 50.7663  27
  -1  -1  -7 35185.5 1103.83  30
   1   1   7 33550.3 1067.24  25
  -1  -1  -7 35605.1 1170.00  36
  -1  -1  -7 32976.0 1086.32  27
  -1  -1  -7 36006.2 1123.66   6
  -1  -1  -7 33028.0 1030.37  37
   1   1   7 33776.8 1155.97  19
  -1  -1  -8 4336.08 349.894   6
   1   1   8 4967.98 355.045  25
  -1  -1  -8 5436.86 381.844  27
  -1  -1  -8 4847.79 335.403  37
  -1  -1  -8 4827.67 356.157  15
  -1  -1  -8 5094.14 370.594  30
   1   1   8 4497.97 385.406  19
  -1  -1  -8 5627.35 422.837  36
  -1  -1  -9 791.567 161.814   6
  -1  -1  -9 826.669 159.455  30
  -1  -1  -9 1177.44 187.353  15
  -1  -1  -9 812.701 159.355  27
  -1  -1  -9 801.899 181.557  36
   1   1   9 1159.97 206.695  19
  -1  -1 -10 52834.8 1721.79  36
  -1  -1 -10 55887.4 1750.62  12
  -1  -1 -10 46096.4 1533.04  27
   1   1  10 50006.9 1705.01  19
  -1  -1 -10 50712.9 1584.56  15
  -1  -1 -10 56916.1 1624.07   6
  -1  -1 -11 79647.6 2299.50  36
  -1  -1 -11 78774.4 2127.43   6
  -1  -1 -11 77988.8 2165.09  15
  -1  -1 -11 81340.6 2313.37  12
  -1  -1 -12 41.2120 64.8688  36
  -1  -1 -12 96.7637 66.4698  15
  -1  -1 -12 211.124 80.2889   6
  -1  -1 -12 144.539 81.4552  14
  -1  -1 -13 1163.28 173.664  36
  -1  -1 -13 1177.06 149.351  15
  -1  -1 -13 1322.94 191.006  12
  -1  -1 -13 1199.90 177.632  14
  -1  -1 -14 10051.9 416.898  14
  -1  -1 -14 12007.3 471.478  12
   1   2 -14 3682.59 251.759  15
   1   2 -14 3978.16 253.738  17
   1   2 -13 11672.6 568.184  15
   1   2 -13 12233.5 593.083  17
   1   2 -12 836.641 170.672  17
   1   2 -12 890.135 174.520  15
   1   2 -11 9320.72 501.768  12
   1   2 -11 10966.2 649.087  17
   1   2 -11 11562.1 644.945  15
   1   2 -10 14258.4 728.125  15
   1   2 -10 13923.5 741.591  17
   1   2 -10 12842.3 693.360  22
   1   2 -10 12507.1 605.883  12
   1   2 -10 12574.4 660.732  16
   1   2 -10 12551.5 630.893  20
   1   2 -10 13271.4 702.403  36
   1   2  -9 42537.8 1296.90  12
   1   2  -9 39234.9 1375.10  16
   1   2  -9 44432.9 1467.18  17
   1   2  -9 43784.7 1349.45  20
   1   2  -9 45673.4 1445.07  15
   1   2  -9 42493.7 1422.13  36
   1   2  -8 41641.7 1198.82   5
   1   2  -8 42327.5 1345.35  36
   1   2  -8 40445.6 1254.80  20
   1   2  -8 39414.0 1323.97  16
  -1  -2   8 42774.4 1326.34  25
   1   2  -8 42566.2 1335.21  15
   1   2  -7 49003.1 1321.15   5
   1   2  -7 47441.3 1403.18  36
   1   2  -7 48468.7 1390.12  15
   1   2  -6 79891.6 2006.33  36
   1   2  -6 79705.7 1943.35   5
   1   2  -6 77261.8 1778.94   1
  -1  -2   6 81598.7 1973.80  23
   1   2  -5 27225.8 740.573   1
  -1  -2   5 25812.9 749.302   8
   1   2  -5 26053.2 836.240  36
   1   2  -5 26101.4 811.494   5
  -1  -2   5 28445.2 856.174  23
  -1  -2   4-7.46314 29.4233   8
   1   2  -4 46.6479 30.6798   1
  -1  -2   3 36504.9 952.480   8
   1   2  -3 34301.2 912.349   1
  -1  -2   2 757.764 96.6797   8
  -1  -2   2 821.377 62.1719  30
   1   2  -2 951.071 99.1110   1
  -1  -2   1 1650.54 105.020  30
  -1  -2   1 1546.45 96.8059  27
   1   2  -1 1700.22 107.503  19
  -1  -2   0 89817.4 1915.35  30
   1   2   0 90037.7 1894.75  19
   1   2   0 91021.8 1945.03   1
  -1  -2   0 89474.3 1898.40  27
  -1  -2  -1 108834. 2385.95  27
   1   2   1 107101. 2364.95  19
   1   2   1 109705. 2441.36  25
   1   2   1 109438. 2386.84   1
   1   2   2 163668. 3489.42  19
  -1  -2  -2 157438. 3475.55   7
   1   2   2 156435. 3447.53   1
  -1  -2  -2 158417. 3492.35  27
   1   2   2 163036. 3531.71  25
  -1  -2  -3 2999.61 208.023  27
  -1  -2  -3 3125.55 201.627   8
   1   2   3 2867.49 170.319   1
   1   2   3 3270.78 214.169  19
  -1  -2  -3 2994.32 193.094   7
   1   2   3 3039.76 216.276  25
   1   2   4 82626.8 1992.62  19
   1   2   4 80339.5 1927.91  33
   1   2   4 77229.9 1986.49  25
  -1  -2  -4 82999.6 1922.85   7
  -1  -2  -4 83464.3 1907.89   8
   1   2   4 82814.6 1840.25   1
  -1  -2  -4 78237.1 1964.71  37
  -1  -2  -4 84169.1 1992.53  27
   1   2   5 4510.78 303.574  19
  -1  -2  -5 4060.35 291.320  30
   1   2   5 4136.32 200.592   1
  -1  -2  -5 3422.02 208.998   8
  -1  -2  -5 4380.88 289.951  37
   1   2   5 3992.26 288.170  25
  -1  -2  -5 3958.81 247.798   7
   1   2   5 3788.59 251.578  33
   1   2   6 113655. 2720.11  19
   1   2   6 112124. 2688.96  25
  -1  -2  -6 106102. 2524.93   7
   1   2   6 105599. 2570.57  33
  -1  -2  -6 106706. 2652.36   6
  -1  -2  -6 112699. 2659.38  37
  -1  -2  -6 108564. 2725.02  36
  -1  -2  -6 113114. 2698.98  27
  -1  -2  -6 111521. 2709.11  30
  -1  -2  -7 429.286 125.289  36
  -1  -2  -7 528.436 124.256  30
  -1  -2  -7 621.313 131.723  27
  -1  -2  -7 499.396 117.731   6
   1   2   7 396.509 108.006  25
  -1  -2  -7 585.401 125.920  37
   1   2   7 652.867 140.046  19
   1   2   7 380.739 89.9798  33
   1   2   7 471.509 117.125  13
  -1  -2  -8 18179.4 814.951  30
  -1  -2  -8 17993.3 805.774  27
   1   2   8 18648.4 847.910  19
  -1  -2  -8 18385.4 775.715   6
   1   2   8 18787.5 799.605  13
   1   2   8 18143.1 788.815  25
  -1  -2  -8 19045.0 872.384  36
  -1  -2  -8 18194.2 772.274  37
   1   2   8 18734.9 691.245  33
  -1  -2  -9 22810.6 965.683  30
  -1  -2  -9 24318.5 928.002   6
  -1  -2  -9 23966.9 988.621  27
   1   2   9 22768.5 939.464  25
  -1  -2  -9 23299.1 913.333  37
  -1  -2  -9 26480.0 1090.76  36
  -1  -2  -9 24610.7 910.830  15
  -1  -2 -10 26977.2 1081.44  12
  -1  -2 -10 24127.8 1055.47  36
  -1  -2 -10 23452.0 898.504  15
  -1  -2 -10 20907.5 937.775  27
  -1  -2 -10 25440.9 927.016   6
  -1  -2 -10 22890.3 968.155  30
  -1  -2 -11 57.6562 59.3862   6
  -1  -2 -11 185.245 91.3106  36
  -1  -2 -11 174.970 97.2957  12
  -1  -2 -11 76.6429 60.4642  15
  -1  -2 -12 18388.8 810.066  36
  -1  -2 -12 18586.2 804.246  12
  -1  -2 -13 149.993 70.6711  14
  -1  -2 -13 52.7662 49.6146  12
  -1  -2 -13 81.0807 55.6698  36
  -1  -2 -14 61.0623 33.2605  14
  -1  -2 -14 14.0199 32.2805  12
   1   3 -14 10059.6 392.027  17
   1   3 -13 69.1254 97.8508  15
   1   3 -13 266.281 86.6213  17
   1   3 -12 1856.87 242.216  17
   1   3 -12 1969.48 231.039  15
   1   3 -12 1685.01 216.442  21
   1   3 -11 2637.39 310.576  17
   1   3 -11 2590.55 289.252  21
   1   3 -11 2394.63 280.105  15
   1   3 -10 28385.8 1106.68  16
   1   3 -10 28393.0 1083.55  15
   1   3 -10 27995.0 1102.48  22
   1   3 -10 29130.9 1111.04  21
   1   3 -10 26633.5 944.494  20
   1   3  -9 9623.03 564.009  15
   1   3  -9 8946.45 487.254  20
   1   3  -9 9487.28 528.126  11
   1   3  -9 10053.9 592.038  21
   1   3  -9 9798.91 613.257  16
   1   3  -8 13720.4 594.791   5
   1   3  -8 14265.2 714.193  17
   1   3  -8 13387.2 651.903  11
   1   3  -8 13944.7 692.119  21
   1   3  -8 14065.7 605.299  20
   1   3  -8 13921.1 722.609  16
   1   3  -8 12378.0 635.877  15
   1   3  -7 13348.8 574.343   5
   1   3  -7 11513.0 605.143  17
   1   3  -7 12605.0 635.139  22
   1   3  -7 13172.9 630.584  11
   1   3  -7 11740.2 604.347  21
   1   3  -7 11545.6 568.226  15
   1   3  -7 12043.6 645.840  16
   1   3  -6 56785.1 1696.13  16
  -1  -3   6 63209.5 1661.55  23
   1   3  -6 61593.9 1605.77   5
   1   3  -6 59048.1 1662.30  21
   1   3  -6 59609.6 1653.03  17
   1   3  -6 60182.5 1690.43  22
   1   3  -6 59303.9 1673.31  11
   1   3  -6 56820.9 1480.03   1
   1   3  -5 104578. 2448.08   5
   1   3  -5 98765.6 2366.39   2
   1   3  -5 103745. 2397.67   1
  -1  -3   5 102877. 2430.03   8
   1   3  -4 39022.6 1134.43   5
   1   3  -4 40846.5 1117.79   1
  -1  -3   4 42917.0 1172.43   8
   1   3  -4 40064.5 1107.57   2
   1   3  -3 1407.45 149.253   5
   1   3  -3 1654.39 158.214   2
  -1  -3   3 1924.48 184.592   8
   1   3  -3 1626.00 156.933   1
   1   3  -2 281.237 68.4407   2
   1   3  -2 251.418 66.0415   1
  -1  -3   2 300.608 46.4139  30
  -1  -3   1 1355.11 104.196  27
  -1  -3   1 1375.02 90.9860  26
   1   3  -1 1333.59 96.0257  19
  -1  -3   1 1420.83 115.642  30
   1   3  -1 1364.32 136.992   5
  -1  -3   0 34921.9 888.746  27
   1   3   0 34541.9 843.897  19
   1   3   0 33221.5 946.676  32
  -1  -3   0 31645.2 831.320  26
   1   3   0 35301.4 945.962   1
  -1  -3   0 33888.0 910.387  30
  -1  -3  -1 37943.9 971.442  26
   1   3   1 38625.8 969.167  19
  -1  -3  -1 37925.3 1017.11  27
   1   3   1 37943.6 1031.62   1
   1   3   2 101219. 2313.27  33
  -1  -3  -2 101064. 2304.76  27
  -1  -3  -2 96141.7 2303.27   7
   1   3   2 93496.9 2347.46  25
   1   3   2 96420.6 2255.79   2
   1   3   2 97935.7 2243.32  19
   1   3   2 102567. 2268.91   1
  -1  -3  -3 69887.9 1791.00  27
   1   3   3 69800.1 1707.39   2
  -1  -3  -3 73053.9 1802.24   8
   1   3   3 72097.7 1775.28  33
  -1  -3  -3 70685.3 1775.41   7
   1   3   3 72310.0 1843.50  25
   1   3   3 74623.5 1764.54  19
   1   3   3 70281.3 1708.73   1
  -1  -3  -3 69192.8 1807.33  37
   1   3   4 73045.2 1875.90  25
   1   3   4 73344.6 1712.67   1
  -1  -3  -4 69402.2 1835.98  37
  -1  -3  -4 70162.1 1827.03  27
   1   3   4 72112.6 1791.54  33
   1   3   4 67843.5 1693.41   2
  -1  -3  -4 71257.0 1796.60   7
   1   3   4 71619.9 1804.40  19
  -1  -3  -4 67769.1 1769.33   8
  -1  -3  -5 14684.4 582.822   8
  -1  -3  -5 14985.4 666.368  27
   1   3   5 17079.0 682.806  19
   1   3   5 17330.6 562.278   1
  -1  -3  -5 16317.9 642.611   7
   1   3   5 16175.1 700.668  25
  -1  -3  -5 15898.4 696.018  30
   1   3   5 15903.3 625.241  33
  -1  -3  -5 16099.0 678.819  37
  -1  -3  -6 1362.37 192.453  37
  -1  -3  -6 1173.77 182.177  27
   1   3   6 1685.35 218.807  19
   1   3   6 1206.89 186.913  25
   1   3   6 1203.66 191.099  13
   1   3   6 1156.53 161.386  33
  -1  -3  -6 1328.74 182.512   6
  -1  -3  -6 1318.98 171.471   7
  -1  -3  -7 5697.46 437.015  30
   1   3   7 5031.25 396.962  25
   1   3   7 4817.27 405.539  13
  -1  -3  -7 4815.13 341.083   7
  -1  -3  -7 5119.88 396.582  37
  -1  -3  -7 4666.29 352.233   6
   1   3   7 5360.10 406.497  19
  -1  -3  -7 5712.94 447.211  36
   1   3   7 4981.41 342.041  33
  -1  -3  -8 6393.62 476.121  27
  -1  -3  -8 6459.41 458.441  37
   1   3   8 6419.90 465.308  25
   1   3   8 6799.19 399.519  33
  -1  -3  -8 5957.34 470.681  30
   1   3   8 6419.51 478.533  13
   1   3   8 6070.56 466.565  19
  -1  -3  -8 6597.95 504.693  36
  -1  -3  -8 5748.19 400.647   6
  -1  -3  -9 13896.0 747.198  27
   1   3   9 14295.9 735.107  25
   1   3   9 15403.5 759.542  13
  -1  -3  -9 14460.1 719.838  37
  -1  -3  -9 14709.6 656.987   6
  -1  -3  -9 16261.1 833.812  36
  -1  -3  -9 14389.3 764.942  30
   1   3   9 14696.9 770.438  19
  -1  -3 -10 17.5533 51.1357  37
   1   3  10 150.616 80.7064  13
  -1  -3 -10 147.937 94.0101  12
  -1  -3 -10 146.586 96.3310  36
  -1  -3 -11 21038.9 919.300  36
  -1  -3 -11 21368.7 875.434  12
  -1  -3 -12 15578.5 690.765  14
  -1  -3 -12 16521.8 670.744  12
  -1  -3 -12 15160.6 681.189  36
  -1  -3 -13 36238.5 1001.78  12
   1   4 -12 9452.61 477.529  21
   1   4 -11 3667.88 314.832  15
   1   4 -11 3882.34 334.167  21
   1   4 -11 3963.12 345.501  22
   1   4 -10 5814.65 437.224  21
   1   4 -10 6216.54 469.217  17
   1   4 -10 5131.91 389.464  15
   1   4  -9 7345.35 471.551  15
   1   4  -9 7602.84 517.582  21
   1   4  -9 7076.26 482.782  11
   1   4  -9 7814.96 535.709  17
   1   4  -9 7147.59 535.632  16
   1   4  -8 53529.4 1708.79  22
   1   4  -8 53777.1 1669.96  11
   1   4  -8 50203.2 1549.85  15
   1   4  -8 53580.9 1531.59   5
   1   4  -8 54805.4 1687.39  21
   1   4  -8 53972.2 1678.81  17
   1   4  -8 53108.4 1734.99  16
   1   4  -7 74870.4 1951.81   5
   1   4  -7 69086.7 1940.53  10
   1   4  -7 74684.3 2103.44  22
   1   4  -7 71640.4 2061.65  11
   1   4  -7 72424.5 2037.44  21
   1   4  -7 72226.1 2025.88  17
   1   4  -7 66297.8 1881.65  15
   1   4  -6 84384.7 2317.47  10
   1   4  -6 88213.7 2191.86   1
  -1  -4   6 92552.0 2370.79  23
   1   4  -6 89749.2 2403.51  22
   1   4  -6 87144.7 2396.75  11
   1   4  -6 88468.6 2182.57   2
   1   4  -6 88779.4 2366.36  21
   1   4  -6 87433.2 2421.14  16
   1   4  -6 90002.1 2325.51  17
   1   4  -6 91315.8 2289.46   5
   1   4  -5 8730.05 516.365  22
   1   4  -5 9302.19 483.211   5
  -1  -4   5 9318.91 489.739   8
   1   4  -5 9072.97 452.658   2
   1   4  -5 8577.64 518.132  11
   1   4  -5 8224.87 486.200  21
   1   4  -5 9287.85 539.398  16
   1   4  -5 7811.22 486.780  10
   1   4  -5 9219.48 463.261   1
   1   4  -5 7676.52 446.267  17
   1   4  -4 7501.41 417.339   1
  -1  -4   4 7831.08 449.902   8
   1   4  -4 7485.88 406.699   2
   1   4  -4 7056.57 445.032  16
   1   4  -4 6671.95 417.990  21
   1   4  -4 7034.35 407.186   5
   1   4  -4 6506.04 422.346  22
   1   4  -3 4630.45 316.635   1
   1   4  -3 5170.19 330.445   5
   1   4  -3 4969.64 325.210   2
  -1  -4   3 5227.70 362.368   8
   1   4  -3 4621.18 302.794  33
   1   4  -2 18368.2 687.230   2
   1   4  -2 17865.9 688.410   1
   1   4  -2 18287.1 681.003  33
  -1  -4   2 19845.2 710.126   7
   1   4  -1 107787. 2570.81   5
  -1  -4   1 111003. 2601.95   7
  -1  -4   1 107633. 2451.04  30
   1   4  -1 107831. 2576.48  33
  -1  -4   0 5850.94 279.688  26
   1   4   0 6946.18 372.336   2
  -1  -4   0 6491.13 314.775  27
   1   4   0 6467.07 372.254  33
  -1  -4   0 7033.67 386.163   7
  -1  -4   0 7076.99 351.976  30
   1   4   0 6578.71 364.909   5
   1   4   0 6949.12 372.115   1
   1   4   1 6739.37 286.276  19
   1   4   1 7426.65 386.563   1
   1   4   1 6612.82 368.616   2
  -1  -4  -1 7303.19 334.560  26
  -1  -4  -1 7477.92 365.461  27
  -1  -4  -2 4514.65 324.590  37
  -1  -4  -2 4552.10 299.271  27
   1   4   2 4255.46 285.246   2
   1   4   2 3915.77 234.713  19
   1   4   2 4604.38 295.759   1
   1   4   2 4021.57 298.501  33
   1   4   3 20843.7 774.675  33
   1   4   3 21110.3 742.147   1
   1   4   3 22535.9 855.035  25
  -1  -4  -3 20869.1 801.322   8
   1   4   3 20689.4 729.067   2
  -1  -4  -3 20455.7 783.066   7
  -1  -4  -3 22351.6 800.800  27
   1   4   3 19275.3 681.430  19
   1   4   4 1889.57 193.284   1
  -1  -4  -4 2068.03 239.607  37
  -1  -4  -4 1998.62 227.554  27
   1   4   4 1966.45 201.259  19
   1   4   4 1930.75 240.042  25
  -1  -4  -4 1887.05 218.038   8
   1   4   4 1830.69 186.516   2
  -1  -4  -4 1886.50 217.030   7
   1   4   4 1957.02 218.663  33
  -1  -4  -5 5791.49 415.594  37
  -1  -4  -5 5258.52 392.364  27
   1   4   5 5136.85 400.890  25
  -1  -4  -5 4523.62 337.006   8
   1   4   5 5540.86 429.660  13
  -1  -4  -5 5890.22 430.686  30
  -1  -4  -5 5070.48 372.341   7
   1   4   5 4949.39 349.685  19
   1   4   5 4958.09 312.401   1
   1   4   5 5451.37 367.385  33
  -1  -4  -6 59273.2 1800.10  27
   1   4   6 57731.0 1707.31  19
   1   4   6 60576.1 1824.77  25
   1   4   6 62468.0 1710.50  33
   1   4   6 62366.2 1870.42  13
  -1  -4  -6 59298.7 1725.67   7
  -1  -4  -6 58955.5 1671.96   6
  -1  -4  -6 60849.2 1848.23  30
  -1  -4  -6 63041.2 1828.79  37
   1   4   7 8134.18 545.447  25
  -1  -4  -7 8023.09 559.374  36
  -1  -4  -7 7663.73 528.909  27
   1   4   7 7810.33 498.335  19
  -1  -4  -7 9103.46 567.583  37
   1   4   7 7924.42 555.011  13
  -1  -4  -7 8504.84 505.945   7
   1   4   7 8162.18 470.142  33
   1   4   8 5905.51 475.875  25
  -1  -4  -8 7166.61 529.504  30
   1   4   8 6403.25 465.123  19
   1   4   8 7979.55 550.511  13
  -1  -4  -8 6715.55 490.938  37
  -1  -4  -8 6959.87 532.119  36
   1   4   8 7305.99 434.846  33
   1   4   9 2422.63 291.985  13
  -1  -4  -9 2313.10 277.103  37
  -1  -4  -9 2505.18 312.711  36
   1   4  10 15845.6 730.170  13
  -1  -4 -10 15511.4 702.105  12
  -1  -4 -10 15224.9 695.736  37
  -1  -4 -10 17626.9 821.144  36
  -1  -4 -11 16001.6 634.670  12
  -1  -4 -11 14744.4 682.741  36
  -1  -4 -12 27562.4 909.217  36
  -1  -4 -12 28788.6 842.456  12
   1   5 -12 95.8475 60.7415  17
   1   5 -11 1488.32 192.315  22
   1   5 -11 1413.46 175.954  21
   1   5 -11 1363.35 188.427  17
   1   5 -10 6011.87 431.430  17
   1   5 -10 6224.86 421.672  21
   1   5  -9 7194.50 497.146  17
   1   5  -9 6961.28 480.376  11
   1   5  -9 7773.01 502.846  21
   1   5  -8 463.558 140.637  22
   1   5  -8 226.140 97.9691  17
   1   5  -8 251.725 108.888  21
   1   5  -8 558.028 150.235  11
   1   5  -7 25174.2 1009.92  17
   1   5  -7 25852.5 1024.52  10
   1   5  -7 26393.7 1097.76  22
   1   5  -7 26948.0 1105.01  11
   1   5  -7 27838.6 1069.72  21
   1   5  -6 92.1854 77.5179  16
   1   5  -6 161.325 98.8003  11
   1   5  -6 85.2735 84.0770  10
   1   5  -6 215.030 85.2317   5
   1   5  -6 126.554 77.5181  17
   1   5  -6 103.634 73.9482  21
   1   5  -6 93.3724 64.1210   1
   1   5  -6 104.206 68.5725   2
   1   5  -6 91.3189 76.7900  22
   1   5  -5 82839.5 2211.40   1
  -1  -5   5 84217.4 2281.93   8
   1   5  -5 85330.6 2249.79   5
  -1  -5   5 84364.4 2191.55   7
   1   5  -5 83569.0 2348.20  22
   1   5  -5 82967.8 2339.49  10
   1   5  -5 85636.3 2204.77   2
   1   5  -5 85875.7 2301.86  21
   1   5  -5 79811.9 2168.84  17
   1   5  -4 29892.3 1139.37  10
   1   5  -4 29772.6 1054.86   1
   1   5  -4 26821.2 1053.03  18
  -1  -5   4 30905.1 1132.51   8
   1   5  -4 29390.2 1048.75   5
   1   5  -4 31648.6 1057.68   2
   1   5  -4 29462.2 1113.05  22
   1   5  -4 29333.7 1122.05  11
   1   5  -4 28735.4 1072.97  21
  -1  -5   4 28503.1 1017.72   7
   1   5  -3 25002.8 920.442  33
   1   5  -3 23339.5 958.799  18
   1   5  -3 27448.7 966.081   2
  -1  -5   3 26708.2 1048.73   8
   1   5  -3 26157.3 954.943   5
   1   5  -3 25266.5 993.233  22
  -1  -5   3 26624.8 960.613   7
   1   5  -3 27178.2 983.143   1
   1   5  -3 26600.2 1014.76  11
   1   5  -3 25770.5 1032.36  10
   1   5  -2 17594.2 754.156   1
  -1  -5   2 18891.1 836.337   8
  -1  -5   2 17781.8 754.119   7
   1   5  -2 16404.5 717.416  33
   1   5  -2 17525.3 732.250   2
   1   5  -2 16729.2 751.212  11
   1   5  -2 17500.8 774.472  22
   1   5  -1 18655.0 762.255  33
  -1  -5   1 19183.2 778.046   7
   1   5  -1 16696.5 752.676  22
   1   5  -1 17640.1 750.879  11
   1   5  -1 18399.5 818.992  10
   1   5  -1 17353.3 766.230  18
   1   5   0 23641.9 867.725   1
  -1  -5   0 20752.8 765.563  30
   1   5   0 21525.1 903.935  10
  -1  -5   0 23316.3 883.484   7
   1   5   0 21753.5 837.567  11
   1   5   0 22313.1 860.324  33
   1   5   0 21092.2 858.304  18
   1   5   0 23055.7 849.059   2
  -1  -5  -1 147509. 3477.53  30
  -1  -5  -1 143411. 3389.84  27
   1   5   1 141842. 3511.00  13
   1   5   1 155244. 3523.20   1
   1   5   1 152561. 3495.60   2
  -1  -5  -1 157652. 3676.08   8
   1   5   1 144167. 3517.37  18
  -1  -5  -1 147630. 3552.08   7
  -1  -5  -1 147832. 3556.30  37
  -1  -5  -2 4215.86 314.701  27
   1   5   2 4173.56 358.764  13
   1   5   2 3416.59 288.196   2
   1   5   2 3192.51 286.544   1
   1   5   2 2763.33 275.726  18
  -1  -5  -2 3417.35 319.552  37
  -1  -5  -2 3336.89 326.134   8
  -1  -5  -2 3721.82 315.561  30
   1   5   2 4094.29 340.175  33
  -1  -5  -3 3119.10 313.371  30
  -1  -5  -3 3562.76 309.772  27
   1   5   3 3173.75 326.184  13
  -1  -5  -3 3426.23 327.257   8
   1   5   3 3687.50 321.417  33
  -1  -5  -3 3801.08 335.912   7
   1   5   3 3572.93 292.594   2
  -1  -5  -3 3631.29 339.074  37
   1   5   3 3522.15 296.791   1
   1   5   4 21358.8 829.450   1
  -1  -5  -4 23283.6 963.026  30
  -1  -5  -4 21877.9 900.945  27
   1   5   4 23619.2 985.505  13
  -1  -5  -4 21679.1 905.260   8
  -1  -5  -4 22061.9 912.471   7
   1   5   4 23097.5 833.384   2
   1   5   4 24568.7 926.731  33
  -1  -5  -5 3322.30 330.223  27
   1   5   5 3556.31 358.630  25
  -1  -5  -5 2155.06 254.583   8
  -1  -5  -5 2767.95 321.915  30
  -1  -5  -5 3072.28 327.649  37
  -1  -5  -5 3557.19 337.845   7
   1   5   5 3422.23 314.779  33
   1   5   6 354.050 125.632  25
  -1  -5  -6 496.061 140.536  30
  -1  -5  -6 419.765 128.808  27
   1   5   6 168.421 99.2720  13
  -1  -5  -6 382.328 119.761   7
  -1  -5  -6 290.897 113.024  37
   1   5   6 252.155 93.5331  33
  -1  -5  -7 625.788 162.300  30
  -1  -5  -7 584.656 156.413  36
  -1  -5  -7 569.544 146.339  27
   1   5   7 583.111 134.235  33
   1   5   7 820.297 190.621  13
   1   5   7 728.799 170.421  25
  -1  -5  -7 469.831 141.249  37
   1   5   8 8688.09 568.185  13
  -1  -5  -8 7543.68 540.688  36
  -1  -5  -8 7999.57 529.262  37
   1   5   8 7641.56 449.666  33
   1   5   9 5592.16 431.535  13
  -1  -5  -9 5389.81 357.061  12
  -1  -5  -9 5795.14 420.108  37
  -1  -5  -9 5753.87 442.086  36
  -1  -5 -10 2501.49 265.239  36
   1   5  10 2087.38 232.009  13
  -1  -5 -10 1996.66 188.241  12
  -1  -5 -10 2066.21 214.447  37
  -1  -5 -11 394.000 90.3016  14
   1   5  11 282.871 71.3402  13
  -1  -5 -11 195.574 71.3951  36
   1   6 -10 58.2718 45.9612  21
   1   6  -9 6594.71 414.837  17
   1   6  -9 8190.36 493.941  22
   1   6  -9 7540.83 444.051  21
   1   6  -8 10478.6 612.046  11
   1   6  -8 10451.8 555.162  17
   1   6  -8 12068.5 651.753  22
   1   6  -8 11016.3 585.587  21
   1   6  -7 14714.2 693.858  17
   1   6  -7 16873.3 828.878  11
   1   6  -7 16858.0 776.474  21
   1   6  -7 16278.0 808.498  22
   1   6  -6 15162.0 787.151  22
   1   6  -6 14534.1 761.767  10
   1   6  -6 15513.7 745.818  21
   1   6  -6 12744.6 629.539  17
  -1  -6   5 438.663 125.347   8
   1   6  -5 568.006 148.205  21
   1   6  -5 268.329 97.8437   2
   1   6  -5 595.035 160.290  10
   1   6  -5 453.879 136.468  22
   1   6  -5 490.322 127.117   1
   1   6  -5 499.587 144.464  11
   1   6  -4 56553.6 1711.07   1
  -1  -6   4 54227.2 1784.91   8
  -1  -6   4 55483.0 1677.75   7
   1   6  -4 58631.0 1703.92   2
   1   6  -4 54237.3 1777.24  22
   1   6  -4 56918.1 1790.31  11
   1   6  -4 56484.0 1734.85  21
   1   6  -4 56651.8 1821.69  10
   1   6  -3 46586.8 1484.87   1
  -1  -6   3 45510.6 1567.40   8
   1   6  -3 42612.0 1399.29   4
   1   6  -3 46447.3 1546.22  22
   1   6  -3 44616.1 1500.11  11
   1   6  -3 46777.0 1465.27   2
   1   6  -3 44301.6 1473.63  21
  -1  -6   3 44554.7 1461.76   7
   1   6  -2 97189.4 2686.98  10
   1   6  -2 94239.7 2614.00  18
  -1  -6   2 96773.1 2727.08   8
  -1  -6   2 97281.9 2599.99   7
   1   6  -2 94728.1 2629.33  22
   1   6  -2 102814. 2596.42   2
   1   6  -2 95557.9 2579.50  11
   1   6  -2 99174.8 2607.71   1
   1   6  -2 96550.3 2559.34  33
   1   6  -1 28244.1 1059.03  11
  -1  -6   1 29193.2 1191.54   8
  -1  -6   1 29747.7 1119.04   7
  -1  -6   1 29377.5 1097.58  37
   1   6  -1 28178.2 1108.33  18
   1   6  -1 27940.2 1113.55  22
   1   6  -1 29529.0 1099.20  33
  -1  -6   0 3413.11 338.233   7
   1   6   0 3220.18 330.081  22
   1   6   0 3487.35 315.269  11
   1   6   0 3602.58 341.762   1
  -1  -6   0 3346.37 333.205  37
   1   6   0 3313.22 318.884   2
   1   6   0 2864.93 314.542  18
   1   6   0 3756.71 349.920  33
  -1  -6  -1 5030.18 413.235  37
  -1  -6  -1 4870.06 448.390   8
  -1  -6  -1 4948.97 415.838   7
   1   6   1 5404.53 402.763   2
   1   6   1 4366.45 381.701   1
   1   6   2 13252.4 674.324   1
  -1  -6  -2 13115.8 675.323  30
   1   6   2 13127.0 693.058  13
  -1  -6  -2 12886.3 732.025   8
   1   6   2 13185.5 691.221  33
   1   6   2 14880.5 685.228   2
  -1  -6  -2 14714.4 739.009  37
   1   6   3 6765.83 466.170   1
  -1  -6  -3 7084.39 500.574  30
  -1  -6  -3 6873.47 505.572  37
  -1  -6  -3 7667.45 526.976   7
   1   6   3 7085.86 519.249  13
  -1  -6  -3 7162.43 526.249   8
  -1  -6  -3 7412.47 475.005  27
   1   6   3 7924.24 474.699   2
   1   6   3 8363.03 526.510  33
   1   6   4 6072.10 420.151   1
   1   6   4 6943.24 476.408  33
   1   6   4 6429.01 412.104   2
  -1  -6  -4 6032.52 447.810  27
   1   6   4 6117.28 483.020  13
  -1  -6  -4 5094.91 433.321   8
  -1  -6  -4 6455.28 482.943   7
  -1  -6  -4 6667.30 498.553  37
  -1  -6  -4 6900.72 500.963  30
  -1  -6  -5 19385.9 898.451  30
  -1  -6  -5 17808.5 834.524  27
   1   6   5 18305.9 882.993  13
  -1  -6  -5 17378.2 840.227   7
   1   6   5 19810.2 844.489  33
   1   6   6 832.508 163.259  33
  -1  -6  -6 817.282 176.910  37
   1   6   7 21.5429 67.7570  13
  -1  -6  -7 20.4582 68.7879  37
   1   6   7 79.4938 62.6854  33
   1   6   8 6497.84 453.244  13
  -1  -6  -8 6940.55 451.839  37
   1   6   8 6143.20 369.082  33
  -1  -6  -9 11564.9 563.002  36
   1   6   9 11978.4 565.949  13
  -1  -6  -9 10752.4 523.567  37
   1   6  10 7012.62 355.588  13
  -1  -6 -10 6583.03 311.235  14
   1   7  -9 2396.95 219.840  22
   1   7  -8 3972.32 281.387  21
   1   7  -8 4393.19 337.062  22
   1   7  -7 58.0576 54.5650  21
   1   7  -7 18.5082 62.2319  22
   1   7  -6 2004.81 262.509  22
   1   7  -6 2303.56 250.089  21
   1   7  -6 2225.32 271.594  11
   1   7  -5 62394.3 1871.98  11
   1   7  -5 61189.9 1781.11  21
   1   7  -5 62480.7 1891.91  22
   1   7  -4 1023.56 199.498  22
   1   7  -4 880.817 172.783  21
   1   7  -4 816.088 177.778  11
  -1  -7   3 47846.7 1462.73  37
   1   7  -3 45591.8 1484.40   2
   1   7  -3 47772.3 1584.44  22
   1   7  -3 45979.4 1436.69   4
   1   7  -3 45834.1 1483.37  21
   1   7  -3 45466.5 1505.50  11
   1   7  -2 40.0940 63.0617   4
   1   7  -2 136.551 85.5584  22
   1   7  -2 40.1139 53.3283  21
  -1  -7   2 39.2098 77.3026  37
   1   7  -2 197.403 96.7579  11
   1   7  -2 60.1970 67.4765   2
  -1  -7   1 8056.71 613.206   8
  -1  -7   1 9743.52 608.110   7
   1   7  -1 10148.8 603.823   4
   1   7  -1 8608.97 573.075  22
  -1  -7   1 9852.40 581.121  37
   1   7   0 9481.25 602.976   1
  -1  -7   0 11582.8 675.576   7
   1   7   0 10941.3 641.036  22
  -1  -7   0 12408.4 664.639  37
   1   7   0 11664.6 625.948   2
   1   7   0 10877.9 633.579  33
  -1  -7  -1 47594.4 1523.75  37
   1   7   1 41721.3 1368.56  13
   1   7   1 48030.3 1530.23  33
   1   7   1 44818.5 1477.98  22
   1   7   1 43658.0 1429.86   2
   1   7   2 7836.14 504.687  13
   1   7   2 8527.38 508.408   2
   1   7   2 8454.73 530.489  22
  -1  -7  -2 9691.07 584.505  37
  -1  -7  -3 52783.3 1637.14  37
   1   7   3 47022.3 1548.42  13
   1   7   3 49334.9 1535.80  22
   1   7   3 51783.2 1609.16  33
   1   7   4 3532.05 330.941  33
  -1  -7  -4 3693.75 354.469  37
   1   7   4 3681.38 346.751  13
  -1  -7  -5 2304.31 277.659  37
   1   7   5 2055.28 245.110  33
   1   7   5 2819.20 296.093  13
   1   7   6 4876.33 379.375  13
   1   7   6 4849.19 348.910  33
  -1  -7  -7 123.141 68.5318  37
   1   7   7 182.061 69.2008   4
   1   7   7 161.915 68.8085  33
   1   7   8 7673.07 399.328  13
  -1  -7  -8 6469.96 371.569  37
   1   7   9 56.9470 36.2009  13
   1   8  -8 1578.49 144.240  22
   1   8  -7 10385.2 462.326  22
   1   8  -6 544.007 113.689  22
   1   8  -5 140.452 66.9435  22
   1   8  -4 289.099 101.187  22
   1   8  -4 214.030 74.9825  21
   1   8  -3 66750.5 1875.85  22
   1   8  -3 66157.9 1768.73  21
  -1  -8   2 3869.96 306.106  37
   1   8  -2 3946.61 314.897   4
   1   8  -2 4264.22 320.619  21
   1   8  -2 3763.70 333.663  22
   1   8  -1 3349.38 306.472   4
   1   8  -1 3616.03 324.228  22
   1   8  -1 3576.22 304.091  21
  -1  -8   1 3657.64 312.382  37
   1   8   0 20652.5 844.030  22
   1   8   0 20827.0 810.951  21
   1   8   0 22192.0 890.398   4
  -1  -8  -1 2782.82 282.899  37
   1   8   1 2708.72 285.794   4
   1   8   1 2570.19 260.516  22
   1   8   2 3379.48 314.282   4
  -1  -8  -2 3327.22 307.782  37
   1   8   2 3027.00 269.176  22
   1   8   3 9571.75 464.979  22
  -1  -8  -3 10086.7 541.109  37
   1   8   4 27380.8 903.953  13
  -1  -8  -4 33094.5 1035.55  37
   1   8   4 30404.8 1000.44   4
  -1  -8  -5 9216.61 472.506  37
   1   8   5 8952.93 431.796  13
   1   8   5 9501.13 465.905   4
   1   8   6 7697.88 368.125  13
   1   8   7 181.345 53.2116  13
   1   9  -5 3258.87 188.575  22
   1   9  -4 458.256 80.7675  22
   1   9  -3 3092.50 215.097  22
   1   9  -2 5171.03 289.641  22
   1   9  -1 1632.43 157.315  22
   1   9   0 7130.65 334.524  22
   1   9   1 10731.2 400.474  22
  -2  10   2 89.2419 37.4367  22
  -2  10   1 4944.68 257.750  22
  -2  10   0 1984.78 160.495  22
  -2  10  -1 2319.10 170.436  22
  -2  10  -2 1862.33 142.641  22
  -2   9   6-13.1396 32.2001  13
  -2   9   5 1764.80 155.695  13
  -2   9   4 9047.12 470.506   3
  -2   9   3 1410.67 181.812   4
  -2   9   3 1593.08 156.920  18
  -2   9   2 627.489 134.199   3
  -2   9   2 646.948 131.783  22
  -2   9   2 537.968 106.409  18
  -2   9   2 484.658 117.358   4
  -2   9   1 7981.52 470.213  22
  -2   9   1 7614.22 471.435   4
  -2   9   1 7388.95 424.577  18
  -2   9   1 7464.65 469.754   3
  -2   9   0 16208.6 725.777   3
  -2   9   0 16869.5 725.879  22
  -2   9   0 16343.4 690.611  18
  -2   9  -1 3419.74 305.159   3
  -2   9  -1 4083.86 328.929  22
  -2   9  -1 3685.97 297.010  10
  -2   9  -1 3679.77 308.832  18
  -2   9  -2 780.605 145.820  18
  -2   9  -2 910.946 153.649  22
  -2   9  -2 925.785 158.083  10
  -2   9  -2 651.816 127.984   3
  -2   9  -3 24655.9 899.761  10
  -2   9  -3 24904.2 880.772  22
  -2   9  -3 24414.7 808.523  11
  -2   9  -3 26111.7 903.201  18
  -2   9  -4 16687.6 692.890  10
  -2   9  -4 16879.6 650.786  22
  -2   9  -4 17090.4 639.061  11
  -2   9  -4 16964.3 663.529  18
  -2   9  -5 4114.83 279.853  11
  -2   9  -5 3906.14 297.190  10
  -2   9  -5 4199.04 271.977  18
  -2   9  -6 3396.62 239.874  11
  -2   9  -7 5305.09 278.504  11
  -2   9  -7 6600.77 306.661  10
  -2   8   7 45887.5 1273.55  13
   2  -8  -7 41608.3 1250.48  35
   2  -8  -7 43243.1 1222.37  37
  -2   8   7 43816.5 1238.51   3
   2  -8  -6 7602.84 461.762  35
  -2   8   6 7756.24 447.275  13
   2  -8  -6 7528.73 423.940  37
  -2   8   5 42184.4 1295.99  13
  -2   8   5 40297.0 1243.89   4
   2  -8  -5 39016.1 1225.41  37
   2  -8  -4 7464.31 444.047  37
  -2   8   4 7558.54 467.634  13
  -2   8   4 7699.01 482.833   4
  -2   8   3 517.276 116.857  18
  -2   8   3 497.863 122.914  13
  -2   8   3 631.778 153.592   4
  -2   8   2 1268.22 184.883  13
  -2   8   2 1069.29 178.822  18
  -2   8   2 1233.77 212.469   4
  -2   8   1 16989.0 845.234   3
  -2   8   1 14830.0 648.925  13
  -2   8   1 14689.2 679.996  10
  -2   8   1 16845.9 824.149   4
  -2   8   1 15963.8 748.110  18
  -2   8   0 1208.76 222.282   3
  -2   8   0 1437.15 232.645  22
  -2   8   0 1277.47 207.601  18
  -2   8   0 1320.17 204.691  10
  -2   8  -1 19471.6 860.564  18
  -2   8  -1 18930.6 844.500  10
  -2   8  -1 19644.4 891.055  22
  -2   8  -1 17183.5 729.849  11
  -2   8  -1 18739.0 895.598   4
  -2   8  -1 20235.4 921.996   3
  -2   8  -2 405.071 125.845   3
  -2   8  -2 604.117 147.649  22
  -2   8  -2 615.213 155.752  10
  -2   8  -2 409.439 115.126  11
  -2   8  -3 1214.57 202.545  18
  -2   8  -3 1136.07 196.151  22
  -2   8  -3 1132.47 194.000   3
  -2   8  -3 1016.48 175.371  11
  -2   8  -3 1077.25 201.255  10
  -2   8  -4 6969.46 492.449  10
  -2   8  -4 6174.31 428.084   3
  -2   8  -4 6927.69 466.250  18
  -2   8  -4 6644.48 457.763  22
  -2   8  -4 6759.14 458.145  11
  -2   8  -5 25525.6 1010.34  10
  -2   8  -5 24947.2 937.166  22
  -2   8  -5 25772.7 973.263  11
  -2   8  -5 23540.7 914.425  18
  -2   8  -6 112.568 60.3638  22
  -2   8  -6 224.968 96.5197  11
  -2   8  -6 108.845 68.6654  18
  -2   8  -7 6012.21 396.493  11
  -2   8  -7 6498.45 414.919  10
  -2   8  -8 8950.27 441.431  10
  -2   8  -9 344.157 72.9673  11
  -2   7  10 1553.13 142.519  13
  -2   7   9 3891.81 285.666  13
   2  -7  -9 3804.85 285.240  37
   2  -7  -8 2132.03 237.109  35
  -2   7   8 2215.13 246.208  13
   2  -7  -8 2415.16 249.642  37
  -2   7   7 2471.21 282.167  13
   2  -7  -7 2580.01 286.254  35
   2  -7  -7 2249.71 259.978  37
  -2   7   6 3715.40 313.057   4
   2  -7  -6 3994.03 321.290  36
   2  -7  -6 3239.33 357.520  35
   2  -7  -6 4269.75 365.827  37
   2  -7  -5 1593.68 212.036  36
  -2   7   5 1526.18 230.624  13
  -2   7   5 1585.60 223.143   4
   2  -7  -5 1461.95 220.364  37
   2  -7  -4 498.346 132.177  27
   2  -7  -4 416.972 118.289  26
  -2   7   4 399.881 109.523  18
  -2   7   4 294.492 109.292   4
  -2   7   4 427.603 132.305  13
   2  -7  -4 430.779 125.604  37
   2  -7  -4 405.300 133.172   7
  -2   7   3 16395.2 797.553  29
   2  -7  -3 18132.3 791.038  27
   2  -7  -3 16623.2 763.169  26
  -2   7   3 17343.9 807.235  13
   2  -7  -3 16503.9 831.831  31
  -2   7   3 16501.0 744.314  18
   2  -7  -3 17080.7 842.643   7
  -2   7   3 17893.4 841.891   4
  -2   7   3 15251.8 779.558  28
   2  -7  -3 17123.0 767.045  37
  -2   7   2 22545.2 958.423  29
  -2   7   2 24095.6 954.376  18
   2  -7  -2 25546.9 942.066  27
   2  -7  -2 23412.8 934.245  26
  -2   7   2 24287.9 957.778  13
  -2   7   2 23022.5 1004.37  28
   2  -7  -2 24181.6 1014.88   7
  -2   7   2 23673.1 1017.92   4
   2  -7  -2 21612.7 876.984  37
   2  -7  -2 23050.0 1027.74  31
   2  -7  -1 596.106 162.046  31
  -2   7   1 580.167 143.063  29
  -2   7   1 410.713 114.782  13
   2  -7  -1 627.273 156.743   7
  -2   7   1 297.424 115.851  28
  -2   7   1 505.174 154.340   4
  -2   7   1 814.520 168.022  18
  -2   7   1 447.279 123.782  10
   2  -7  -1 734.619 148.887  26
  -2   7   0 23821.4 960.621  29
  -2   7   0 24429.3 1051.62  28
  -2   7   0 24729.4 1011.58  18
   2  -7   0 25335.9 971.015  26
   2  -7   0 24453.0 990.017   7
  -2   7   0 24465.3 1067.59   4
   2  -7   0 26370.1 1104.23  31
  -2   7   0 24812.9 989.703  10
   2  -7   1 3631.60 385.020  31
  -2   7  -1 3443.95 317.068  29
   2  -7   1 3615.26 325.995  26
  -2   7  -1 3887.80 366.866  10
  -2   7  -1 3258.38 313.618  11
  -2   7  -1 3279.40 337.896  18
  -2   7  -1 3743.54 386.632   3
  -2   7  -2 65682.1 1998.90  28
   2  -7   2 65003.7 1845.03  26
  -2   7  -2 68652.6 2005.53  22
  -2   7  -2 63142.6 1883.44  11
  -2   7  -2 65261.0 2019.59   4
  -2   7  -2 63929.4 1962.23  10
  -2   7  -2 67661.5 2047.70   3
   2  -7   2 66296.0 2054.05  31
  -2   7  -3 29699.8 1174.96   3
  -2   7  -3 29379.2 1133.20  18
  -2   7  -3 28702.0 1148.48  10
  -2   7  -3 27206.7 1116.83  28
   2  -7   3 28360.5 1021.00  26
  -2   7  -3 29978.9 1143.96  22
  -2   7  -3 29058.5 1102.43  11
   2  -7   3 27447.1 1158.77  31
  -2   7  -4 3627.20 353.688  18
  -2   7  -4 3327.24 343.974   3
  -2   7  -4 3077.91 327.413  28
  -2   7  -4 3210.34 340.313  22
  -2   7  -4 3337.18 345.329  11
  -2   7  -4 3219.90 356.466  10
   2  -7   4 3153.44 344.311  31
  -2   7  -5 1491.05 235.509  11
  -2   7  -5 1325.43 205.800   3
  -2   7  -5 1805.57 243.492  18
  -2   7  -5 1341.53 197.272  16
  -2   7  -5 1568.32 227.767  22
  -2   7  -6 89.7040 73.8950  16
  -2   7  -6 166.060 79.0975  22
  -2   7  -6 65.8946 73.8680  11
  -2   7  -6 52.2221 65.4558  18
  -2   7  -6 68.7424 81.7309  10
  -2   7  -7 266.081 99.0350  16
  -2   7  -7 233.531 80.8316  22
  -2   7  -7 295.114 117.641  10
  -2   7  -8 2990.01 287.348  16
  -2   7  -8 2984.79 300.961  11
  -2   7  -8 2906.74 293.019  10
  -2   7  -9 18353.3 701.215  10
  -2   7  -9 18111.1 724.724  11
  -2   7  -9 17708.3 711.218  16
  -2   7 -10 24878.2 770.255  11
  -2   7 -10 24468.8 797.354  16
  -2   6  11 4433.11 239.614  13
   2  -6 -10 47.6999 40.1123  35
   2  -6 -10 72.1506 44.1929  15
  -2   6  10 53.5579 47.7637  13
   2  -6 -10 88.2321 57.9880  37
   2  -6  -9 1202.93 190.742  37
  -2   6   9 1181.91 189.512  13
  -2   6   9 1251.25 165.195  34
   2  -6  -9 1120.20 180.566  35
   2  -6  -8 9639.38 525.160  36
  -2   6   8 11295.5 629.662  13
   2  -6  -8 10544.8 612.152  37
   2  -6  -8 9961.66 608.345  35
  -2   6   8 10104.0 533.631  34
   2  -6  -7 576.455 156.929  35
   2  -6  -7 889.737 164.369  36
  -2   6   7 543.343 147.980  13
   2  -6  -7 540.722 152.064  37
  -2   6   7 746.029 149.358  34
   2  -6  -6 170.245 87.6845  27
  -2   6   6 149.337 84.1660  29
  -2   6   6 117.297 63.0668  34
   2  -6  -6 143.420 77.0802  26
  -2   6   6 65.1580 63.3183  25
  -2   6   6 230.435 106.134  13
   2  -6  -6 203.416 104.101  37
   2  -6  -6 148.180 88.1262   7
   2  -6  -6 149.256 106.662  35
   2  -6  -6 145.891 78.2222  36
   2  -6  -5 172128. 4071.15  37
  -2   6   5 171484. 4058.13  29
   2  -6  -5 173555. 4046.10  27
  -2   6   5 163535. 4010.07  25
   2  -6  -5 170087. 4156.01   7
  -2   6   5 171137. 3982.01   4
  -2   6   5 166381. 3893.64  34
   2  -6  -4 12139.2 649.035  37
   2  -6  -4 10958.1 631.106  31
  -2   6   4 12306.0 663.287  29
   2  -6  -4 12266.0 629.772  26
  -2   6   4 11634.2 621.759  25
  -2   6   4 12886.5 687.399  13
  -2   6   4 12273.5 650.808   4
   2  -6  -4 12953.7 709.702   7
  -2   6   4 11767.6 630.415  28
  -2   6   4 12095.6 579.009  34
   2  -6  -3 15839.7 791.288  31
   2  -6  -3 15926.1 732.728  26
   2  -6  -3 15870.5 736.282  37
  -2   6   3 16381.3 771.997  28
  -2   6   3 15762.4 713.277  25
  -2   6   3 17069.5 785.630  13
   2  -6  -3 17045.1 816.853   7
  -2   6   3 17551.8 797.952   4
   2  -6  -2 21.8466 58.0873  31
   2  -6  -2 70.0285 65.8255  26
  -2   6   2 79.3605 66.7215   9
  -2   6   2 87.6570 52.1200  25
  -2   6   2 37.2037 58.5215  13
   2  -6  -2 104.078 70.0002   7
  -2   6   2 139.047 78.3262  28
  -2   6   2 146.480 86.1793   4
   2  -6  -2 82.3437 55.3901  37
  -2   6   2 57.2738 55.6078  29
  -2   6   1 11734.5 594.360  10
  -2   6   1 12174.5 645.038  28
   2  -6  -1 12329.4 609.199  26
  -2   6   1 11910.9 602.065  13
   2  -6  -1 11955.2 637.393   7
  -2   6   1 11865.0 656.128   4
  -2   6   1 11967.7 656.852   9
   2  -6  -1 11064.0 660.339  31
  -2   6   1 12639.3 625.741  29
  -2   6   0 20661.2 876.540  28
  -2   6   0 19645.9 781.016  13
   2  -6   0 20267.0 809.008  26
  -2   6   0 20162.5 884.420   9
   2  -6   0 19969.8 834.679   7
  -2   6   0 18741.0 871.120   4
  -2   6   0 20292.4 776.192  11
   2  -6   0 20282.0 923.772  31
  -2   6   0 19774.0 809.043  29
  -2   6   0 18982.7 813.068  10
   2  -6   1 25082.6 1050.44  31
  -2   6  -1 26465.3 927.227  29
   2  -6   1 26809.5 952.293  26
  -2   6  -1 23465.9 1008.78   3
   2  -6   1 24067.6 911.697   7
  -2   6  -1 23522.9 909.248  11
  -2   6  -1 24153.2 958.253  10
  -2   6  -2 19431.4 747.892  29
  -2   6  -2 19680.9 893.217   3
   2  -6   2 20416.4 803.535  26
   2  -6   2 19123.8 898.415  31
  -2   6  -2 19489.2 865.236  28
  -2   6  -2 19116.1 879.409   4
  -2   6  -2 19230.2 821.517  11
  -2   6  -2 20868.2 899.106   9
  -2   6  -2 18982.4 844.596  10
   2  -6   3 1871.35 262.427  31
  -2   6  -3 1804.34 249.608  10
  -2   6  -3 1670.03 235.389  28
   2  -6   3 1645.35 214.379  26
  -2   6  -3 1860.82 248.405  22
  -2   6  -3 1768.31 239.860  11
  -2   6  -3 1934.21 267.693   4
  -2   6  -3 1663.60 247.259   3
  -2   6  -3 2629.99 297.669   9
   2  -6   4 32128.7 1231.44  31
  -2   6  -4 33973.1 1244.71   3
   2  -6   4 35213.8 1151.96  26
  -2   6  -4 33719.0 1220.29  28
  -2   6  -4 34130.2 1140.15  16
  -2   6  -4 34337.5 1209.92  22
  -2   6  -4 34629.8 1246.94  11
  -2   6  -4 34352.1 1264.87  10
  -2   6  -4 34609.5 1218.05  18
  -2   6  -5 17099.0 800.223   3
   2  -6   5 16215.4 783.519  31
  -2   6  -5 15486.4 744.833  28
   2  -6   5 17044.0 721.648  26
  -2   6  -5 17849.7 793.619  22
  -2   6  -5 18526.0 850.803  11
  -2   6  -5 16481.4 765.682  18
  -2   6  -5 16272.5 749.231  16
  -2   6  -6 11389.0 610.393  22
  -2   6  -6 11538.3 602.715  18
  -2   6  -6 11695.8 683.878  10
  -2   6  -6 11328.0 626.144  16
  -2   6  -7 26633.4 1022.88  12
  -2   6  -7 26652.4 1098.86  11
  -2   6  -7 26022.4 970.718  22
  -2   6  -7 26420.8 1089.26  10
  -2   6  -7 26129.1 1046.52  16
  -2   6  -8 606.674 152.073  16
  -2   6  -8 660.011 150.227  12
  -2   6  -8 1039.38 189.338  10
  -2   6  -8 828.917 143.802  22
  -2   6  -8 902.264 179.439  11
  -2   6  -9 4359.75 360.977  11
  -2   6  -9 4028.76 341.630  10
  -2   6  -9 4016.92 359.660  16
  -2   6 -10 3689.83 323.302  16
  -2   6 -10 3804.33 299.259  11
  -2   6 -11 35842.3 1096.67  16
   2  -5 -12 2131.13 160.246  15
  -2   5  11 20451.0 705.613  13
  -2   5  11 18278.8 715.790  34
   2  -5 -10 1474.91 203.662  35
  -2   5  10 2200.93 244.727  13
   2  -5 -10 1742.50 201.265  36
  -2   5  10 1553.77 201.701  34
  -2   5   9 24946.3 988.344  13
   2  -5  -9 23498.3 998.502  37
   2  -5  -9 22247.6 885.530  36
   2  -5  -9 21811.1 958.753  35
  -2   5   9 23321.1 939.659  34
  -2   5   8 1112.59 196.619  34
   2  -5  -8 1564.66 228.348  27
   2  -5  -8 1639.70 223.970  36
  -2   5   8 1841.99 265.177  25
  -2   5   8 1861.40 263.469  13
   2  -5  -8 1589.94 255.395  35
   2  -5  -8 1611.86 252.873  37
   2  -5  -7 6179.58 503.195  35
  -2   5   7 5829.52 442.340  29
   2  -5  -7 5758.61 440.422  26
  -2   5   7 5951.75 476.126  25
  -2   5   7 6421.43 494.903  13
   2  -5  -7 6320.30 508.286   7
  -2   5   7 5796.15 439.622  34
   2  -5  -7 7124.12 523.795  37
   2  -5  -7 6269.24 443.584  36
  -2   5   6 336.787 115.663  34
   2  -5  -6 134.424 79.2153  26
  -2   5   6 152.501 82.0279  25
  -2   5   6 244.157 112.038  13
   2  -5  -6 143.079 89.7625   7
  -2   5   6 220.406 89.2423  29
   2  -5  -6 157.966 100.479  37
   2  -5  -6 488.122 150.820  35
   2  -5  -5 792.262 149.674  31
  -2   5   5 1120.47 167.445  28
   2  -5  -5 1136.66 178.501  26
  -2   5   5 685.740 162.961  13
  -2   5   5 651.397 145.142  29
   2  -5  -5 1011.76 187.779  37
  -2   5   5 925.394 165.706  34
  -2   5   5 611.723 133.044   4
  -2   5   4 864.550 154.873   4
   2  -5  -4 213.117 87.2098  31
  -2   5   4 291.257 94.3823   9
  -2   5   4 941.243 169.505  29
  -2   5   4 191.403 76.0319  28
  -2   5   4 211.466 86.5367  25
  -2   5   4 240.503 85.4049  34
   2  -5  -4 248.531 95.5011   7
   2  -5  -4 166.451 82.4348  37
   2  -5  -3 51007.0 1590.52  31
   2  -5  -3 53621.3 1561.52  37
   2  -5  -3 57541.3 1561.84  26
  -2   5   3 54572.0 1546.99  25
  -2   5   3 49462.5 1574.74  13
  -2   5   3 53866.5 1580.61   4
   2  -5  -3 54749.3 1633.57   7
  -2   5   3 53396.7 1561.29  28
  -2   5   3 54185.4 1583.67  29
  -2   5   3 55654.9 1546.98  34
  -2   5   3 51107.3 1564.54   9
   2  -5  -2 3234.41 271.262  26
  -2   5   2 3198.56 263.133  25
  -2   5   2 2900.59 281.676  13
   2  -5  -2 3009.54 291.321   7
  -2   5   2 3178.35 293.984   4
  -2   5   2 3394.02 295.413  28
  -2   5   2 3407.77 271.810  34
   2  -5  -2 3046.46 266.420  37
  -2   5   2 3070.54 277.748  29
   2  -5  -2 2828.96 293.631  31
  -2   5   2 3299.75 304.035   9
   2  -5  -1 308.999 90.0018  26
  -2   5   1 198.972 90.4135   9
  -2   5   1 307.953 87.2534  29
  -2   5   1 128.259 68.8347  28
  -2   5   1 222.781 64.4308  25
   2  -5  -1 241.225 65.5678  24
   2  -5  -1 208.328 78.6477   7
  -2   5   1 254.654 96.8677   4
   2  -5  -1 122.464 63.5855  37
  -2   5   1 177.504 61.4509  34
   2  -5   0 2128.11 247.651  31
  -2   5   0 2076.48 214.595  29
   2  -5   0 2628.40 237.800  26
   2  -5   0 2128.64 183.113  24
  -2   5   0 1771.15 224.688   9
   2  -5   0 2313.39 230.554   7
  -2   5   0 2406.20 257.207   4
  -2   5   0 2415.59 244.662  28
  -2   5  -1 15706.6 622.445  29
   2  -5   1 14408.5 540.406  24
   2  -5   1 15449.8 719.532  31
   2  -5   1 15116.1 622.638   7
   2  -5   1 15925.5 639.661  26
   2  -5   2 42795.0 1394.29  31
  -2   5  -2 44378.2 1361.23  28
   2  -5   2 46014.2 1305.67  26
  -2   5  -2 43992.7 1239.00  29
   2  -5   2 41648.2 1220.03   7
  -2   5  -2 41321.5 1358.13   4
  -2   5  -2 45232.9 1341.49  11
   2  -5   2 44480.5 1186.09  24
  -2   5  -2 44507.7 1401.79   3
  -2   5  -2 43888.2 1340.81  10
  -2   5  -2 44002.8 1379.35   9
   2  -5   3 28900.1 1063.14  31
  -2   5  -3 28580.9 878.042  29
  -2   5  -3 29959.4 1042.01  28
   2  -5   3 30673.9 1004.84  26
  -2   5  -3 28361.2 1014.94  12
  -2   5  -3 29617.6 1008.99  22
  -2   5  -3 29843.7 1043.29  11
  -2   5  -3 26680.7 1022.42   4
  -2   5  -3 28325.0 1029.61  10
  -2   5  -3 29426.0 1049.75   9
  -2   5  -3 29767.9 1075.48   3
  -2   5  -4 37373.3 1241.55  15
   2  -5   4 34566.6 1213.17  31
  -2   5  -4 36738.6 1203.09  28
  -2   5  -4 38010.4 1237.67   9
  -2   5  -4 35654.8 1203.91  12
  -2   5  -4 35829.9 1173.27  22
  -2   5  -4 36186.5 1240.54  11
   2  -5   4 38383.6 1187.42  26
  -2   5  -4 37983.9 1266.33   3
  -2   5  -4 36579.0 1166.61  16
  -2   5  -4 35458.8 1229.42  10
  -2   5  -5 348.208 103.642  16
   2  -5   5 298.755 95.9069  31
  -2   5  -5 302.947 98.1831   9
  -2   5  -5 701.281 216.060  15
  -2   5  -5 290.830 100.629   3
  -2   5  -5 265.026 86.0234  28
  -2   5  -5 464.236 127.091  10
   2  -5   5 465.146 113.587  26
  -2   5  -5 276.401 102.903  12
  -2   5  -5 229.869 89.6300  22
  -2   5  -5 147.539 73.2954   6
   2  -5   6 10784.6 565.211  26
  -2   5  -6 9696.49 577.171  12
  -2   5  -6 10623.8 595.261  16
  -2   5  -6 10814.2 560.074  22
  -2   5  -6 10031.5 612.588  11
  -2   5  -6 11578.4 643.928  10
  -2   5  -6 10159.5 537.299  18
  -2   5  -6 10742.9 540.744   6
  -2   5  -7 89106.3 2402.39  12
  -2   5  -7 83943.9 2421.45  11
  -2   5  -7 87467.9 2434.06  10
  -2   5  -7 85320.5 2257.70  22
  -2   5  -7 88939.7 2311.32   6
  -2   5  -7 90788.6 2429.13  16
  -2   5  -8 53159.5 1658.01  12
  -2   5  -8 52128.0 1677.21  11
  -2   5  -8 53001.4 1695.46  16
  -2   5  -8 51920.4 1661.77  10
  -2   5  -9 3319.70 335.398  12
  -2   5  -9 3533.54 341.280  11
  -2   5  -9 4038.36 356.332  10
  -2   5  -9 4068.07 381.946  16
  -2   5 -10 3208.65 307.133  12
  -2   5 -10 3484.00 304.732  11
  -2   5 -10 3381.75 338.556  16
  -2   5 -11 759.446 135.638  12
  -2   5 -12 2671.82 233.216  16
   2  -4 -13 21679.9 646.808  12
   2  -4 -13 20366.9 617.295  15
   2  -4 -12 10364.9 478.739  15
  -2   4  12 9257.18 468.558  34
  -2   4  11 12660.4 617.630  34
   2  -4 -11 13545.9 632.882  15
   2  -4 -11 12228.9 560.637  36
   2  -4 -11 11670.4 570.504  35
  -2   4  10 2021.86 256.079  34
   2  -4 -10 2348.04 256.887  36
   2  -4 -10 2194.72 266.144  35
  -2   4  10 2160.66 255.394  13
   2  -4 -10 2055.50 278.516  37
  -2   4   9 487.665 143.068  13
   2  -4  -9 827.983 182.628  35
   2  -4  -9 501.140 132.153  36
   2  -4  -9 539.975 121.464  17
   2  -4  -9 791.210 167.500  27
   2  -4  -8 6847.26 524.241  35
   2  -4  -8 6138.61 465.239  27
  -2   4   8 7244.22 513.643  13
   2  -4  -8 7182.96 434.512  20
   2  -4  -8 7066.09 525.486  37
   2  -4  -8 7104.31 477.446  36
   2  -4  -7 38186.5 1264.60  27
  -2   4   7 36434.4 1227.31  29
   2  -4  -7 35245.7 1214.28  26
  -2   4   7 31888.8 1268.12  25
  -2   4   7 36678.4 1302.01  13
   2  -4  -7 36262.9 1346.96  35
   2  -4  -7 37978.6 1150.90  20
   2  -4  -7 37987.4 1354.10  37
   2  -4  -7 35481.5 1218.23  36
  -2   4   6 92287.2 2353.56  29
   2  -4  -6 88099.2 2319.26  26
  -2   4   6 86143.9 2413.35  25
  -2   4   6 90181.6 2419.01  13
   2  -4  -6 90197.0 2466.66   7
   2  -4  -6 88313.8 2440.27  37
   2  -4  -6 92503.0 2500.67  35
   2  -4  -6 86393.9 2301.18  36
   2  -4  -5 4241.61 313.672  31
  -2   4   5 4347.18 297.872  28
   2  -4  -5 4375.31 317.979  26
  -2   4   5 4179.69 352.793  25
  -2   4   5 4271.29 359.831  23
  -2   4   5 4260.54 355.056  13
   2  -4  -5 4091.84 348.790  37
   2  -4  -5 4462.56 326.678  36
  -2   4   5 4158.88 328.948  29
   2  -4  -4 33384.8 1083.58  31
  -2   4   4 32475.8 1086.52  29
  -2   4   4 32257.1 1031.69  28
   2  -4  -4 36465.3 1087.95  26
  -2   4   4 33766.9 1117.12  25
  -2   4   4 34625.7 1170.62  23
  -2   4   4 33319.1 1052.49   4
   2  -4  -4 33858.3 1156.35   7
   2  -4  -4 34360.4 1129.02  37
  -2   4   4 36131.5 1122.92  34
  -2   4   3 76813.0 1958.41  29
  -2   4   3 77428.0 1962.22  25
   2  -4  -3 75941.0 1893.35  24
  -2   4   3 76378.9 2052.56  23
  -2   4   3 72555.6 1934.89   4
   2  -4  -3 78795.1 2031.07   7
   2  -4  -3 72905.1 1973.88  31
  -2   4   3 79487.0 1970.66  34
   2  -4  -3 74943.1 1961.83  37
  -2   4   3 76432.4 1934.08  28
   2  -4  -2 10063.6 496.244   7
   2  -4  -2 9413.00 448.566  37
  -2   4   2 9705.02 465.818  28
  -2   4   2 9375.69 436.278  25
   2  -4  -2 9172.97 411.364  24
  -2   4   2 9439.27 468.995   4
   2  -4  -2 9474.56 490.568  31
  -2   4   2 10464.7 471.825  34
  -2   4   1 6249.30 347.517  29
  -2   4   1 6106.50 358.200  28
   2  -4  -1 6153.01 339.342  26
  -2   4   1 5860.78 303.016  25
   2  -4  -1 6385.69 317.870  24
  -2   4   1 6685.90 401.055  23
   2  -4  -1 5847.75 353.383   7
  -2   4   1 5835.82 358.821   4
  -2   4   1 6565.12 353.717  34
   2  -4   0 6144.96 379.279  31
  -2   4   0 6052.30 328.440  29
  -2   4   0 5858.06 349.190  28
   2  -4   0 5460.83 314.790  26
  -2   4   0 5462.40 255.383  25
   2  -4   0 6620.76 317.828  24
   2  -4   0 5442.92 323.450   7
  -2   4   0 5650.27 314.413  34
  -2   4   0 5255.60 341.996   4
   2  -4   1 9297.91 491.210  31
  -2   4  -1 9550.05 417.766  34
  -2   4  -1 10049.7 431.112  29
   2  -4   1 9770.19 413.033  24
  -2   4  -1 8704.13 461.148   4
   2  -4   1 10171.0 452.277  26
   2  -4   1 10074.2 434.933   7
   2  -4   2 1779.16 203.529  31
  -2   4  -2 1937.74 168.577  29
  -2   4  -2 1708.99 188.295  28
   2  -4   2 1942.37 189.958  26
  -2   4  -2 1979.27 214.888   3
   2  -4   2 1702.34 154.500   7
  -2   4  -2 1893.26 174.573  34
  -2   4  -2 1783.63 202.132   4
   2  -4   2 1815.48 166.333  24
   2  -4   3 4852.40 333.978  31
   2  -4   3 5429.82 333.421  26
  -2   4  -3 4912.55 264.556  29
  -2   4  -3 4550.78 264.400   6
   2  -4   3 4677.43 283.133  24
  -2   4  -3 5106.34 352.440   3
  -2   4  -3 4776.81 323.069  28
  -2   4  -3 4660.01 283.780  34
   2  -4   4 49211.3 1398.96  31
   2  -4   4 51032.3 1406.40  26
  -2   4  -4 46826.0 1300.48  34
   2  -4   4 48164.7 1316.28  24
  -2   4  -4 48172.3 1366.52  28
  -2   4  -4 46359.6 1284.99   6
  -2   4  -4 47760.1 1428.09   3
  -2   4  -5 55777.7 1614.04  10
  -2   4  -5 57062.8 1616.70   3
  -2   4  -5 53936.3 1497.25  28
   2  -4   5 57542.4 1506.93  24
  -2   4  -5 53398.0 1571.07  12
  -2   4  -5 55006.8 1613.74  11
   2  -4   5 54689.7 1516.76  31
  -2   4  -5 52642.3 1475.74   6
  -2   4  -5 54005.3 1592.53  15
  -2   4  -5 51998.7 1548.12  16
  -2   4  -6 92685.4 2566.03  17
  -2   4  -6 100004. 2485.19   6
  -2   4  -6 102228. 2592.32  10
   2  -4   6 103514. 2468.76  24
  -2   4  -6 97836.3 2554.07  12
  -2   4  -6 97574.6 2579.92  15
  -2   4  -6 99898.7 2562.54  16
  -2   4  -6 97505.3 2585.23  11
   2  -4   7 344.410 95.4206  24
  -2   4  -7 656.517 141.152   6
  -2   4  -7 826.601 168.058  16
  -2   4  -7 313.235 138.573  15
  -2   4  -7 615.110 139.901  12
  -2   4  -7 434.299 124.577  10
  -2   4  -7 620.957 152.793  11
  -2   4  -7 546.664 141.739  17
  -2   4  -8 1807.67 277.476  15
  -2   4  -8 1835.97 241.022   6
  -2   4  -8 1664.87 241.942  12
  -2   4  -8 2199.15 270.748  11
  -2   4  -8 1685.01 251.581  17
  -2   4  -8 1431.23 218.519  10
  -2   4  -8 1882.49 263.862  16
  -2   4  -9 10944.0 596.402  10
  -2   4  -9 10890.4 659.712  15
  -2   4  -9 10378.1 597.931   6
  -2   4  -9 10602.9 626.654  12
  -2   4  -9 10428.5 588.733  11
  -2   4 -10 37851.8 1299.69  12
  -2   4 -10 33232.4 1129.24  10
  -2   4 -10 37089.4 1337.26  15
  -2   4 -10 34578.0 1148.66  11
  -2   4 -10 39241.0 1293.44   6
  -2   4 -11 23860.3 971.075  15
  -2   4 -11 23233.7 920.261  12
  -2   4 -11 22958.3 933.246  16
  -2   4 -12 4526.08 363.779  15
  -2   4 -12 4129.43 316.890  16
  -2   4 -12 4412.50 318.122  12
  -2   4 -13 34888.3 941.280  12
  -2   4 -13 33809.5 938.276  16
  -2   3  13 4176.34 284.871  34
   2  -3 -13 4683.96 283.965  12
   2  -3 -12 1434.58 198.916  15
   2  -3 -12 1122.72 152.435  36
  -2   3  12 1379.98 192.132  34
   2  -3 -11 364.734 104.487  36
   2  -3 -11 423.590 122.436  15
   2  -3 -11 308.460 89.2723  17
   2  -3 -11 267.701 92.7040  35
   2  -3 -10 13471.4 641.092  20
   2  -3 -10 12055.1 637.731  36
   2  -3 -10 11655.9 690.023  37
   2  -3 -10 12938.7 700.433  35
   2  -3 -10 13034.0 633.033  17
   2  -3  -9 98648.6 2694.11  35
   2  -3  -9 94650.3 2528.87  27
  -2   3   9 91891.7 2685.27  25
  -2   3   9 99219.7 2582.55  13
   2  -3  -9 98838.2 2516.95  20
   2  -3  -9 92790.5 2672.34  37
   2  -3  -9 97246.4 2567.48  36
   2  -3  -9 100558. 2549.30  17
   2  -3  -8 2423.30 267.215  27
  -2   3   8 1886.59 272.952  25
  -2   3   8 2185.92 264.675  13
   2  -3  -8 2467.07 253.404  20
   2  -3  -8 2108.04 255.762  36
   2  -3  -8 2207.73 290.858  35
  -2   3   7 6532.27 412.593  29
   2  -3  -7 6278.04 466.539  37
   2  -3  -7 6564.20 414.192  26
  -2   3   7 6861.36 463.845  13
  -2   3   7 6695.72 454.289  23
   2  -3  -7 6707.42 406.214  20
   2  -3  -7 6971.27 438.212  36
   2  -3  -7 6839.04 494.841  35
  -2   3   6 26100.8 911.791  29
   2  -3  -6 25704.4 910.558  36
   2  -3  -6 26853.9 913.151  26
  -2   3   6 26607.0 1005.29  25
  -2   3   6 27902.2 995.946  13
  -2   3   6 26444.8 986.803  23
   2  -3  -6 24923.8 988.895  37
   2  -3  -6 27897.1 891.286  20
   2  -3  -6 26819.0 1038.52  35
  -2   3   5 28988.5 933.000  29
   2  -3  -5 25709.9 876.434  36
  -2   3   5 28917.7 854.294  28
   2  -3  -5 28125.6 895.941  26
  -2   3   5 29196.3 999.843  25
  -2   3   5 29055.8 1006.87  23
   2  -3  -5 28705.7 1011.18   7
   2  -3  -5 26524.3 864.481  31
   2  -3  -5 28007.1 988.494  37
  -2   3   4 12316.8 531.523  29
   2  -3  -4 12508.6 512.375  26
   2  -3  -4 12992.3 531.271  31
  -2   3   4 13888.4 583.572  25
  -2   3   4 13975.4 608.145  23
  -2   3   4 12620.3 500.491  28
   2  -3  -4 11775.3 551.132  37
   2  -3  -3 7690.69 359.881  26
   2  -3  -3 6831.81 366.515  31
  -2   3   3 6567.45 358.520  25
   2  -3  -3 6072.04 330.617  24
  -2   3   3 6675.37 340.272  28
  -2   3   3 6787.48 397.953  23
   2  -3  -3 7226.08 395.636   7
   2  -3  -3 6661.69 364.488  37
  -2   3   3 7085.68 376.474  34
   2  -3  -2 14855.7 581.025  31
  -2   3   2 15355.8 557.547  28
   2  -3  -2 14794.1 534.177  26
  -2   3   2 15585.1 550.671  25
   2  -3  -2 14597.6 528.486  24
   2  -3  -2 14435.8 575.694   7
  -2   3   2 15567.9 577.540  34
  -2   3   1 8783.65 397.858  28
  -2   3   1 8856.38 355.109  25
   2  -3  -1 8317.56 370.413  24
  -2   3   1 8930.61 431.078  23
   2  -3  -1 9255.93 407.313   7
   2  -3   0 8058.93 396.166  31
  -2   3   0 8172.97 381.048  28
  -2   3   0 7644.91 293.655  25
   2  -3   0 8105.80 358.168  24
   2  -3   0 8474.29 366.166   7
   2  -3   1 2233.68 194.889  31
   2  -3   1 1912.72 168.356  26
  -2   3  -1 1426.79 74.6263  25
  -2   3  -1 1895.42 172.638  23
   2  -3   1 1815.66 154.631  24
  -2   3  -1 1528.75 167.004   3
   2  -3   1 1748.83 145.805   7
   2  -3   1 1815.75 124.717  19
  -2   3  -1 1716.09 171.244   4
   2  -3   2 3551.28 250.951  31
  -2   3  -2 3645.98 244.601  28
   2  -3   2 3531.00 185.226  19
   2  -3   2 4099.13 242.863  24
   2  -3   2 3367.91 189.684   7
   2  -3   3 50185.6 1276.21  19
   2  -3   3 55179.9 1424.15  31
  -2   3  -3 54415.5 1415.95  28
   2  -3   3 54520.5 1385.15  24
  -2   3  -3 55942.0 1402.30  34
  -2   3  -3 53740.6 1460.29   3
  -2   3  -4 4318.99 306.780   3
   2  -3   4 4099.44 270.819  31
  -2   3  -4 4574.45 283.169  28
  -2   3  -4 3698.05 260.623  34
   2  -3   4 4262.94 277.391  24
   2  -3   4 4410.08 238.409  19
  -2   3  -4 3987.51 260.405   6
   2  -3   5 9140.60 450.681  24
  -2   3  -5 8824.81 409.909  28
   2  -3   5 8831.41 384.677  19
   2  -3   5 8917.38 414.308  31
  -2   3  -5 9097.81 441.082   6
  -2   3  -6 163.188 77.6033  16
  -2   3  -6 86.9622 62.1324   6
  -2   3  -6 16.6191 73.9282  15
  -2   3  -6 268.116 91.8525  14
  -2   3  -6 66.3264 62.3437  17
   2  -3   6 43.9931 46.1382  24
  -2   3  -6 49.0040 54.9352  11
   2  -3   6 157.863 55.9623  19
  -2   3  -6 12.3450 38.8478  36
  -2   3  -7 181486. 4316.48  15
  -2   3  -7 182584. 4280.59  14
   2  -3   7 189090. 4276.23  24
  -2   3  -7 178107. 4300.33  17
  -2   3  -7 183288. 4276.13  11
  -2   3  -7 185878. 4295.94  10
  -2   3  -7 184966. 4192.35  36
  -2   3  -7 186043. 4269.84   6
  -2   3  -8 11032.9 617.376  14
  -2   3  -8 11278.0 613.302   6
   2  -3   8 11901.8 619.513  24
  -2   3  -8 11813.7 605.593  11
  -2   3  -8 11943.1 590.618  36
  -2   3  -8 10872.2 589.956  10
  -2   3  -8 12281.7 664.593  15
  -2   3  -8 11568.8 637.079  17
  -2   3  -9 43114.8 1427.36  14
  -2   3  -9 43295.5 1458.96  16
   2  -3   9 39056.4 1366.14  24
  -2   3  -9 41496.3 1457.48  15
  -2   3  -9 42624.6 1458.40  12
  -2   3  -9 41209.6 1315.45  11
  -2   3  -9 42954.7 1427.76   6
  -2   3  -9 43797.7 1356.71  10
  -2   3  -9 42447.9 1434.69  17
  -2   3 -10 39103.6 1403.75  15
  -2   3 -10 38356.3 1328.24  14
  -2   3 -10 42756.8 1430.38  12
  -2   3 -10 36598.6 1317.46  17
  -2   3 -10 40536.8 1386.65  16
  -2   3 -11 1787.98 243.018  16
  -2   3 -11 1383.37 252.898  15
  -2   3 -11 1647.86 242.953  12
  -2   3 -11 2182.79 248.689  14
  -2   3 -12 1985.87 258.095  15
  -2   3 -12 2237.89 252.430  12
  -2   3 -12 2455.99 248.416  16
  -2   3 -12 1958.39 233.798   6
  -2   3 -13 35414.6 1058.16  15
  -2   3 -13 34215.4 1042.62  12
   2  -2 -14 23727.6 700.883  15
   2  -2 -13 3774.78 285.990  15
  -2   2  13 3053.61 254.623  34
   2  -2 -13 3024.07 235.135  12
   2  -2 -13 3608.98 229.688  17
   2  -2 -12 12562.7 637.119  15
   2  -2 -12 12294.8 571.276  36
  -2   2  12 12451.2 621.111  34
   2  -2 -12 12837.1 581.982  17
   2  -2 -11 30667.8 1146.16  15
   2  -2 -11 28789.5 1049.69  17
   2  -2 -11 29295.6 1047.88  20
   2  -2 -11 26988.3 1022.29  36
   2  -2 -11 27674.5 1057.96  35
   2  -2 -10 6169.46 470.926  35
  -2   2  10 5081.62 466.236  25
   2  -2 -10 6422.21 441.775  20
   2  -2 -10 6187.31 446.477  17
   2  -2 -10 5915.33 433.325  36
   2  -2  -9 1322.25 208.410  17
   2  -2  -9 872.187 154.441  27
   2  -2  -9 1014.33 177.658  36
  -2   2   9 1325.51 233.284  25
   2  -2  -9 1215.23 194.159  20
   2  -2  -9 1432.38 236.275  37
   2  -2  -9 1078.55 203.554  35
   2  -2  -8 29693.5 1022.33  27
  -2   2   8 30942.9 1176.73  25
  -2   2   8 28985.5 1056.55  23
   2  -2  -8 30613.0 1053.47  20
   2  -2  -8 30751.0 1094.27  17
   2  -2  -8 29780.7 1150.45  37
   2  -2  -8 29275.4 1058.56  36
   2  -2  -8 31118.6 1165.28  35
  -2   2   7 70641.3 1833.54  29
  -2   2   7 68952.0 2025.08  25
   2  -2  -7 73024.3 2044.44  35
  -2   2   7 70690.6 1927.63  13
  -2   2   7 71362.9 1951.24  23
   2  -2  -7 71809.8 1881.72  20
   2  -2  -7 73762.8 1917.23  36
   2  -2  -6 19993.4 706.081  26
  -2   2   6 21297.0 734.850  29
  -2   2   6 21253.3 808.837  23
   2  -2  -6 19996.8 735.389  36
   2  -2  -6 20348.9 819.896  37
   2  -2  -6 21127.8 843.418  35
   2  -2  -5 40090.1 1094.48  31
  -2   2   5 42265.2 1083.09  28
   2  -2  -5 42273.9 1126.32  26
  -2   2   5 43232.7 1246.33  23
   2  -2  -5 39517.5 1126.07  36
   2  -2  -5 41152.2 1243.63  37
   2  -2  -4 47031.5 1256.97  24
   2  -2  -4 47405.7 1212.44  26
  -2   2   4 46567.9 1201.24  28
  -2   2   4 46900.3 1296.37  25
  -2   2   4 48967.9 1337.18  23
   2  -2  -4 45828.9 1299.33  37
   2  -2  -4 47174.2 1340.61  35
   2  -2  -4 47121.0 1230.09  31
   2  -2  -3 1830.77 160.356  31
   2  -2  -3 1363.49 128.824  26
  -2   2   3 1686.79 159.111  25
   2  -2  -3 1694.79 150.853  24
  -2   2   3 1629.52 173.167  23
  -2   2   3 1824.17 152.193  28
   2  -2  -3 1755.78 173.337   7
   2  -2  -3 1747.59 176.728  35
   2  -2  -2 14875.2 512.884  24
   2  -2  -2 15146.5 534.310  31
   2  -2  -2 14663.4 482.696  26
  -2   2   2 14227.2 498.878  25
  -2   2   2 15024.6 557.162  23
   2  -2  -2 14876.9 544.751   7
  -2   2   2 14724.8 511.026  28
  -2   2   1 5894.47 297.120   8
   2  -2  -1 5940.80 266.439  26
  -2   2   1 5534.40 250.570  25
   2  -2  -1 5964.20 290.762  24
   2  -2  -1 5904.26 291.993   7
   2  -2   0 6590.12 319.475  31
  -2   2   0 6886.10 328.345   8
   2  -2   0 7134.15 301.526  26
  -2   2   0 6753.80 251.997  25
   2  -2   0 7116.49 307.902  24
  -2   2   0 6857.40 323.173  23
   2  -2   0 7311.78 288.275  19
   2  -2   1 67180.6 1592.80  31
   2  -2   1 68768.2 1563.32  24
  -2   2  -1 67917.4 1561.91  23
   2  -2   1 64817.4 1503.53  19
  -2   2  -1 62384.9 1382.83  25
   2  -2   2 43795.4 1127.39  19
  -2   2  -2 46737.7 1185.61  28
   2  -2   2 45514.1 1181.45  24
  -2   2  -2 46012.1 1133.77  23
   2  -2   2 47546.0 1200.28  31
   2  -2   3 165255. 3668.92  19
   2  -2   3 178018. 3723.53  31
  -2   2  -3 176620. 3710.76  28
   2  -2   3 179627. 3732.69  24
  -2   2  -3 160942. 3576.86  23
  -2   2  -3 169441. 3787.63   3
   2  -2   4 22781.0 707.371  31
  -2   2  -4 23599.6 714.185  28
   2  -2   4 22849.4 755.431  24
   2  -2   4 22325.5 709.199  19
  -2   2  -4 24020.9 759.652   6
  -2   2  -4 23985.4 763.008  34
   2  -2   5 3850.94 232.244  31
  -2   2  -5 4156.81 241.915  28
   2  -2   5 4342.93 293.933  24
   2  -2   5 4078.05 263.854  19
  -2   2  -5 3954.97 287.681   6
  -2   2  -5 3855.97 246.991  36
   2  -2   6 4183.40 294.412  19
   2  -2   6 4697.12 332.523  24
  -2   2  -6 4420.64 329.639   6
  -2   2  -6 4208.96 285.915  36
  -2   2  -7 102.265 67.2423   6
  -2   2  -7 155.661 79.6645  16
  -2   2  -7 102.783 67.5822  15
  -2   2  -7 87.8026 66.0566  14
  -2   2  -7 190.500 77.8450  17
  -2   2  -7 159.644 81.7009  12
  -2   2  -7 250.567 87.6373  11
   2  -2   7 162.062 72.2507  19
  -2   2  -7 56.8897 44.7992  36
   2  -2   7 172.969 79.6702  24
  -2   2  -8 29076.1 1106.50  14
   2  -2   8 31675.1 1140.40  24
  -2   2  -8 30378.2 1135.27  12
   2  -2   8 32553.7 1086.89  19
  -2   2  -8 31719.1 1074.68  36
  -2   2  -8 28140.3 1056.79  17
  -2   2  -8 30397.4 1120.50  15
  -2   2  -8 31649.5 1128.11  16
  -2   2  -9 31844.9 1184.04  14
  -2   2  -9 30761.4 1104.20  36
   2  -2   9 31398.5 1180.85  24
  -2   2  -9 29793.0 1096.18  17
  -2   2  -9 31776.2 1203.84  12
   2  -2   9 28030.3 1068.77  19
  -2   2  -9 32205.5 1186.82  15
  -2   2  -9 32280.6 1177.94  16
  -2   2 -10 18752.1 866.024  14
  -2   2 -10 19035.2 827.303  36
   2  -2  10 16651.5 832.566  24
  -2   2 -10 16732.4 764.769  17
  -2   2 -10 19444.3 885.042  15
  -2   2 -10 19686.7 863.152  16
  -2   2 -10 20263.9 886.561   6
  -2   2 -11 46357.3 1469.99  16
  -2   2 -11 47883.3 1540.30  15
  -2   2 -11 47321.7 1522.93  14
  -2   2 -11 44673.3 1449.38  36
  -2   2 -11 49608.7 1545.42   6
  -2   2 -12 57087.6 1651.42  14
  -2   2 -12 57959.5 1686.21  15
  -2   2 -12 59715.5 1685.37   6
  -2   2 -12 55625.7 1580.92  16
  -2   2 -13 11731.8 527.007  15
  -2   2 -13 12592.5 543.295   6
  -2   2 -14 2637.34 185.866  12
   2  -1 -13 329.707 88.4386  17
  -2   1  13 200.202 73.0405  34
  -2   1  12 900.356 161.632  34
   2  -1 -12 948.782 155.272  12
   2  -1 -12 594.491 131.267  36
   2  -1 -12 1103.44 179.463  17
   2  -1 -11 11852.6 622.356  20
   2  -1 -11 10556.0 587.047  36
   2  -1 -11 11513.1 625.714  35
   2  -1 -11 12316.6 651.859  17
  -2   1  10 19550.3 955.390  25
   2  -1 -10 20858.1 879.570  20
   2  -1 -10 20344.8 914.712  35
   2  -1 -10 20113.2 869.157  36
   2  -1 -10 20607.6 904.225  17
   2  -1 -10 22341.0 963.207  15
  -2   1   9 12039.5 697.403  25
   2  -1  -9 12588.5 634.173  21
   2  -1  -9 11526.9 609.804  20
   2  -1  -9 11054.5 602.046  36
   2  -1  -9 11275.9 648.475  35
   2  -1  -9 11921.4 644.656  17
   2  -1  -8 1321.10 165.726  27
   2  -1  -8 1236.42 204.079  35
  -2   1   8 1555.12 230.047  25
  -2   1   8 1303.01 184.955  23
   2  -1  -8 1552.77 204.247  21
   2  -1  -8 1458.15 195.949  20
   2  -1  -8 1350.36 191.006  36
  -2   1   7 11722.6 607.584  25
  -2   1   7 11387.7 562.277  23
   2  -1  -7 12397.0 562.515  21
   2  -1  -7 11441.0 541.794  20
   2  -1  -7 12140.5 613.226  37
   2  -1  -7 11841.7 548.446  36
   2  -1  -7 11937.9 616.446  35
   2  -1  -6 129.203 71.8397  35
  -2   1   6 30.8090 40.9602  25
  -2   1   6 56.1402 47.2006  23
   2  -1  -6 56.5867 35.6103  36
   2  -1  -5 19785.1 606.020  31
  -2   1   5 19487.0 592.725  28
   2  -1  -5 19220.2 591.915  26
  -2   1   5 19759.8 720.485  23
   2  -1  -5 20657.5 737.803  37
   2  -1  -4 71349.6 1668.65  31
   2  -1  -4 67333.8 1599.91  26
   2  -1  -4 73094.7 1712.14  24
  -2   1   4 70275.4 1667.30   8
  -2   1   4 70752.9 1772.65  23
   2  -1  -4 67969.8 1747.08  37
   2  -1  -4 72773.7 1793.54  35
   2  -1  -3 249619. 5369.24  31
  -2   1   3 247530. 5368.47   8
   2  -1  -3 258446. 5285.50  26
   2  -1  -3 256229. 5361.87  24
  -2   1   3 257794. 5440.82  23
   2  -1  -2 42837.3 1094.68  31
  -2   1   2 42271.5 1094.70   8
   2  -1  -2 40435.0 1002.46  26
   2  -1  -2 43207.2 1074.27  24
  -2   1   2 43536.5 1135.54  23
  -2   1   1 10221.5 399.172   8
   2  -1  -1 10476.5 349.853  26
   2  -1  -1 10594.1 381.280  19
  -2   1   0 27097.4 791.277   8
  -2   1   0 27577.1 782.431  23
   2  -1   0 28132.6 789.571  31
   2  -1   0 29226.2 766.966  19
   2  -1   1 76375.9 1746.98  31
  -2   1  -1 73229.2 1731.76  30
  -2   1  -1 72375.2 1750.10   8
  -2   1  -1 73089.6 1705.64  23
   2  -1   1 77548.0 1727.91  19
   2  -1   2 91521.1 2069.63  31
  -2   1  -2 94590.6 2090.25   8
   2  -1   2 89046.6 2075.18  24
  -2   1  -2 86981.0 1999.84  23
   2  -1   2 92808.8 2069.28  19
   2  -1   3 8183.68 343.108  31
  -2   1  -3 8248.19 367.207  30
  -2   1  -3 8792.02 364.109   8
   2  -1   3 8307.01 368.839  24
  -2   1  -3 8229.28 273.261  23
   2  -1   3 7686.94 357.155  19
  -2   1  -4 11259.9 457.694  30
  -2   1  -4 11071.2 424.886   8
   2  -1   4 10956.5 405.410  31
  -2   1  -4 11161.5 475.791   6
   2  -1   4 10930.3 457.371  19
  -2   1  -5 245.262 71.4887  30
  -2   1  -5 172.718 49.3240  28
   2  -1   5 212.908 67.5626  19
   2  -1   5 308.350 59.2446  31
  -2   1  -5 160.468 55.1315  36
  -2   1  -5 205.307 71.6675   6
  -2   1  -6 23601.1 814.548  30
   2  -1   6 23933.8 861.124  19
  -2   1  -6 24333.5 809.300  36
  -2   1  -7 403.290 114.402   6
  -2   1  -7 438.752 111.212  16
  -2   1  -7 231.740 80.3927  15
  -2   1  -7 322.850 92.6032  36
   2  -1   7 571.593 128.173  19
  -2   1  -7 446.471 119.253  12
  -2   1  -7 393.600 101.911  30
  -2   1  -8 3536.24 320.119  15
  -2   1  -8 3533.49 294.597  30
  -2   1  -8 3705.80 331.418  16
  -2   1  -8 3533.39 339.837  12
   2  -1   8 3551.47 333.063  19
  -2   1  -8 3745.20 341.535   6
  -2   1  -8 3430.41 312.386  36
  -2   1  -9 176877. 4321.83  15
  -2   1  -9 186888. 4441.15  14
  -2   1  -9 184317. 4426.83  12
   2  -1   9 177470. 4360.89  19
  -2   1  -9 183856. 4334.19  36
  -2   1  -9 187082. 4404.74   6
  -2   1  -9 187919. 4327.53  16
  -2   1 -10 2551.41 295.087  15
  -2   1 -10 3452.12 361.899  14
  -2   1 -10 2914.12 331.794  12
   2  -1  10 2505.89 298.663  19
  -2   1 -10 3117.55 307.370  16
  -2   1 -10 2575.23 292.702  36
  -2   1 -10 2838.06 317.525   6
  -2   1 -11 2457.87 283.449  15
  -2   1 -11 2256.24 288.568  14
  -2   1 -11 2481.95 309.671  12
  -2   1 -11 2349.52 252.760  16
  -2   1 -11 2679.62 289.225  36
  -2   1 -11 2413.09 284.557   6
  -2   1 -12 2878.22 296.984  14
  -2   1 -12 2523.74 269.817  15
  -2   1 -12 2792.13 271.066  36
  -2   1 -12 2893.80 282.326   6
  -2   1 -12 2750.59 297.357  12
  -2   1 -13 20173.9 701.527  15
  -2   1 -13 20926.5 754.446  14
  -2   1 -13 22083.6 803.092  12
  -2   1 -13 20344.6 738.509   6
  -2   1 -14 12740.7 467.200  12
   2   0 -14 27183.0 791.668  15
   2   0 -14 25457.5 747.885  17
   2   0 -13 9270.03 486.750  15
   2   0 -13 10064.6 499.839  17
   2   0 -12 27539.3 1028.32  15
   2   0 -12 27034.4 1021.87  17
   2   0 -12 28540.2 977.369  36
   2   0 -11 1055.95 199.116  15
   2   0 -11 683.533 138.561  12
   2   0 -11 1068.39 186.372  20
   2   0 -11 823.554 161.296  36
   2   0 -11 709.090 162.394  17
   2   0 -10 773.331 167.424  15
  -2   0  10 899.174 191.257  25
   2   0 -10 1107.64 187.787  21
   2   0 -10 1576.17 223.163  20
   2   0 -10 1008.45 181.260  36
   2   0 -10 1152.54 208.505  17
  -2   0   9 18710.0 883.465  25
   2   0  -9 17612.3 747.800   5
   2   0  -9 19390.9 865.600  35
   2   0  -9 17849.9 794.831  21
   2   0  -9 18649.1 843.948  17
   2   0  -9 18057.6 790.553  36
   2   0  -9 19223.9 851.761  15
  -2   0   8 251.009 105.744  25
   2   0  -8 473.590 119.170  21
   2   0  -8 372.079 102.018  36
   2   0  -8 441.483 133.015  35
   2   0  -8 339.651 105.460  17
  -2   0   7 11862.0 607.028  25
  -2   0   7 12141.3 569.677  23
   2   0  -7 11099.9 544.037  21
   2   0  -7 10694.6 519.017  36
   2   0  -7 11666.5 601.636  35
   2   0  -7 12145.4 587.036  17
   2   0  -6 98767.8 2228.87   1
  -2   0   6 105754. 2489.65  23
   2   0  -6 97476.1 2381.30  36
   2   0  -6 105530. 2554.17  35
   2   0  -5 124913. 2753.68   1
  -2   0   5 122114. 2757.68   8
  -2   0   5 127441. 2938.66  23
   2   0  -4 3268.82 201.559  31
  -2   0   4 3110.79 201.591   8
   2   0  -4 2974.57 129.681  26
  -2   0   4 3559.12 253.032  23
   2   0  -4 3396.18 246.181  35
   2   0  -3 28878.3 794.835  31
  -2   0   3 27808.0 796.877   8
   2   0  -3 26636.1 644.136  26
   2   0  -3 29360.0 774.231  24
  -2   0   3 29238.8 862.645  23
   2   0  -2 6801.21 304.572  31
  -2   0   2 6918.01 311.496   8
   2   0  -2 6212.65 210.781  26
   2   0  -2 6747.14 279.107  24
  -2   0   2 6935.88 333.252  23
  -2   0   1 86697.4 2019.79   8
   2   0  -1 88215.6 1960.66  24
   2   0   0 11033.4 401.672  31
  -2   0   0 10144.5 403.625   8
   2   0   0 10549.2 373.405  24
   2   0   0 10241.7 386.896  19
  -2   0   0 10767.4 410.732  23
  -2   0   0 10446.8 386.434  30
   2   0   1 19355.1 607.127  31
  -2   0  -1 20474.5 617.354  30
  -2   0  -1 18959.4 616.465   8
   2   0   1 20042.6 593.713  24
  -2   0  -1 19789.1 599.936  23
   2   0   1 20141.8 619.392  19
  -2   0  -2 58799.4 1447.94  30
   2   0   2 58954.4 1414.05  31
  -2   0  -2 57382.2 1437.77   8
   2   0   2 59811.8 1421.21  24
  -2   0  -2 57513.5 1381.03  23
   2   0   2 58664.1 1441.43  19
   2   0   3 327415. 6685.56  31
  -2   0  -3 332567. 6733.46   8
   2   0   3 337627. 6761.91  19
  -2   0  -4 37769.6 965.249   8
   2   0   4 39241.9 937.589  31
  -2   0  -4 38057.2 1043.64  30
  -2   0  -4 34894.1 817.858   7
   2   0   4 38112.6 1054.46  19
  -2   0  -4 36928.4 1006.20  34
   2   0   5 43913.0 1132.63  25
  -2   0  -5 47892.0 1298.76  30
   2   0   5 43406.8 1095.88   1
  -2   0  -5 45451.0 1318.36   6
   2   0   5 44835.5 1301.35  19
  -2   0  -5 45671.4 1229.90  36
  -2   0  -5 43925.2 1143.14   8
  -2   0  -6 3894.29 298.397  30
  -2   0  -6 3039.45 283.288   6
   2   0   6 3337.40 292.485  19
  -2   0  -6 2905.27 252.427  36
  -2   0  -7 91.8360 69.0492   6
  -2   0  -7 33.0802 48.1707  30
   2   0   7 74.1057 58.2743  19
  -2   0  -7-15.5260 41.2810  16
  -2   0  -7 68.2177 49.6678  12
  -2   0  -8 2370.17 253.150  16
  -2   0  -8 2419.66 264.587  30
  -2   0  -8 2232.35 241.831  15
  -2   0  -8 2290.39 288.460  14
  -2   0  -8 2386.95 277.841  12
  -2   0  -8 2777.33 303.067   6
  -2   0  -8 2534.33 277.239  36
   2   0   8 2161.53 276.626  19
  -2   0  -9 55052.5 1647.17  15
  -2   0  -9 56448.1 1640.02  16
  -2   0  -9 53508.1 1643.53  30
  -2   0  -9 57825.2 1814.41  14
  -2   0  -9 58367.2 1774.04   6
  -2   0  -9 55996.7 1758.57  12
   2   0   9 54579.7 1771.36  19
  -2   0  -9 57042.6 1727.53  36
  -2   0 -10 823.957 159.284  15
  -2   0 -10 876.492 152.789  16
  -2   0 -10 878.345 196.889  12
  -2   0 -10 866.010 175.302   6
   2   0  10 664.748 160.466  19
  -2   0 -10 782.988 169.526  36
  -2   0 -11 49223.3 1575.11  12
  -2   0 -11 47193.2 1499.41  36
  -2   0 -11 50221.1 1526.61   6
  -2   0 -11 44606.5 1322.81  16
  -2   0 -11 45429.2 1418.44  15
  -2   0 -12 9382.37 548.551  14
  -2   0 -12 9364.17 544.020  12
  -2   0 -12 9070.06 502.783  36
  -2   0 -12 8822.68 459.669  15
  -2   0 -12 9575.06 510.957   6
  -2   0 -13 4461.60 312.021  14
  -2   0 -13 4322.17 306.561  12
  -2   0 -13 3781.42 266.772   6
  -2   0 -14 2855.02 179.188  14
  -2   0 -14 3170.01 200.037  12
   2   1 -14 1506.46 133.470  15
   2   1 -14 1637.47 147.601  17
   2   1 -13 4584.46 316.947  15
   2   1 -13 5227.67 350.740  17
   2   1 -12 21335.1 859.869  15
   2   1 -12 22427.7 905.119  17
   2   1 -11 23207.2 971.151  17
   2   1 -11 22401.5 920.471  21
   2   1 -11 20856.9 878.632  20
   2   1 -11 22372.3 922.771  15
   2   1 -10 1533.40 230.033  15
   2   1 -10 1373.33 214.945  36
  -2  -1  10 1389.22 232.894  25
   2   1 -10 1423.57 238.770  17
   2   1 -10 1174.70 195.990  21
   2   1 -10 1315.37 204.882  20
   2   1  -9 27770.5 1033.55  36
   2   1  -9 27060.8 1042.18  15
   2   1  -9 27200.2 976.407   5
  -2  -1   9 27912.9 1113.89  25
   2   1  -9 28216.2 1065.51  21
   2   1  -9 27780.0 1036.79  20
   2   1  -8 1406.14 203.512  15
   2   1  -8 1389.00 189.500   5
  -2  -1   8 1556.97 231.003  25
   2   1  -8 1433.59 212.644  22
   2   1  -8 1384.37 203.640  21
   2   1  -8 1602.48 212.237  20
   2   1  -8 1292.87 192.153  36
   2   1  -7 1002.98 167.761  17
   2   1  -7 1043.37 166.683   5
   2   1  -7 1023.04 160.534  15
  -2  -1   7 1130.67 174.944  23
   2   1  -7 1290.99 187.246  22
   2   1  -7 1205.10 172.155  21
   2   1  -7 1108.77 161.870  36
   2   1  -7 1260.02 197.845  35
   2   1  -6 7057.20 410.844   5
  -2  -1   6 7462.42 436.488  23
   2   1  -6 7317.83 322.566   1
   2   1  -6 7418.01 389.717  36
  -2  -1   5 67288.0 1668.06   8
   2   1  -5 69902.3 1649.10   1
  -2  -1   5 71999.9 1815.40  23
   2   1  -5 64492.2 1668.46  36
   2   1  -4 20470.0 638.386   1
  -2  -1   4 19105.9 641.086   8
  -2  -1   4 19548.7 719.973  23
   2   1  -4 18755.9 693.551  35
   2   1  -3 149132. 3259.34   1
  -2  -1   3 146043. 3265.47   8
  -2  -1   3 155220. 3371.32  23
   2   1  -3 145606. 3151.31  24
   2   1  -3 144311. 3298.77  35
   2   1  -2 681.590 96.8897   1
  -2  -1   2 480.564 85.5326   8
   2   1  -2 433.944 61.2124  24
  -2  -1   2 584.095 100.524  23
   2   1  -2 636.801 91.7056  19
  -2  -1   1 76304.5 1770.96  30
  -2  -1   1 74489.7 1840.34   8
   2   1  -1 79597.0 1731.59  24
   2   1  -1 77057.3 1810.99  19
  -2  -1   0 12930.9 457.137  30
  -2  -1   0 13568.4 499.502   8
   2   1   0 13310.8 471.685  19
   2   1   0 12831.2 417.358  24
   2   1   0 12572.7 465.299   1
   2   1   1 82431.5 1904.79  19
   2   1   1 80952.2 1886.94   1
  -2  -1  -1 80102.1 1896.44  30
  -2  -1  -1 81559.3 1930.15   8
   2   1   1 78494.5 1833.09  24
   2   1   2 17483.1 572.973   1
  -2  -1  -2 17279.8 585.391  27
  -2  -1  -2 16829.7 596.938   8
  -2  -1  -2 17527.1 602.650  30
   2   1   2 16853.5 561.252  24
   2   1   2 17866.1 605.099  19
   2   1   3 9386.04 377.082   1
  -2  -1  -3 8713.02 407.936  27
  -2  -1  -3 9610.08 435.137  30
  -2  -1  -3 9308.19 408.031   8
   2   1   4 27180.8 762.661   1
  -2  -1  -4 26407.7 819.413   8
  -2  -1  -4 26757.7 749.017   7
  -2  -1  -4 25897.8 821.381  36
  -2  -1  -5 27321.8 843.569  37
  -2  -1  -5 28993.2 964.727  30
  -2  -1  -5 28135.2 835.220   8
   2   1   5 26981.8 862.387  25
   2   1   5 28455.2 774.787   1
  -2  -1  -5 26854.9 760.237   7
  -2  -1  -5 28337.6 917.682  36
  -2  -1  -6 19005.8 777.549  30
  -2  -1  -6 17953.6 743.895  27
   2   1   6 18415.7 686.282  25
  -2  -1  -6 17889.7 771.317   6
   2   1   6 17868.0 777.484  19
  -2  -1  -6 19596.5 760.968  36
   2   1   7 22501.5 878.252  13
  -2  -1  -7 24209.4 929.245  27
   2   1   7 22185.2 812.339  25
  -2  -1  -7 24507.4 915.637  12
  -2  -1  -7 23868.9 953.564   6
  -2  -1  -7 24876.7 939.708  36
  -2  -1  -7 23487.5 935.394  30
   2   1   7 22761.6 958.395  19
  -2  -1  -8 32383.7 1073.80  16
  -2  -1  -8 32847.0 1199.52  30
  -2  -1  -8 31596.1 1165.48  27
  -2  -1  -8 34678.1 1199.05  12
  -2  -1  -8 34029.5 1223.30   6
   2   1   8 31783.2 1221.50  19
  -2  -1  -8 33795.3 1203.39  36
   2   1   8 32216.8 1085.37  33
  -2  -1  -9 324.781 115.159   6
  -2  -1  -9 235.209 83.8840  16
  -2  -1  -9 64.7361 67.9629  30
  -2  -1  -9 150.477 84.8281  12
   2   1   9 337.779 118.305  19
  -2  -1  -9 219.495 97.6922  36
   2   1   9 168.694 73.0094  33
  -2  -1 -10 38705.7 1413.82  14
  -2  -1 -10 37436.2 1348.38  12
  -2  -1 -10 38071.5 1342.44  36
  -2  -1 -10 38937.5 1331.52   6
  -2  -1 -11 1893.98 261.961  14
  -2  -1 -11 1804.21 244.848  12
  -2  -1 -11 1845.17 244.058  36
  -2  -1 -11 2089.23 246.850   6
  -2  -1 -12 6556.82 411.981  36
  -2  -1 -12 7503.35 454.119  12
  -2  -1 -12 6917.92 406.428   6
  -2  -1 -13 9427.49 437.534  12
   2   2 -14 6813.24 294.807  17
   2   2 -13 35962.1 1102.27  17
   2   2 -12 13117.0 587.849  15
   2   2 -12 13364.6 652.183  17
   2   2 -12 13083.6 617.940  21
   2   2 -11 758.987 153.053  15
   2   2 -11 1003.01 180.799  21
   2   2 -11 876.388 157.152  20
   2   2 -10 1100.76 188.258  15
   2   2 -10 1318.75 214.746  21
   2   2 -10 1051.68 177.478  20
   2   2  -9 25523.5 965.290  15
  -2  -2   9 24763.9 1030.92  25
   2   2  -9 24878.4 924.804   5
   2   2  -9 25062.4 1016.81  22
   2   2  -9 24307.8 997.234  21
   2   2  -9 25117.7 955.704  20
   2   2  -9 25612.9 1042.41  17
   2   2  -8 3105.52 292.156  15
   2   2  -8 3660.92 344.666  17
   2   2  -8 3085.79 321.377  22
   2   2  -8 3185.32 316.307  21
   2   2  -8 2927.18 286.322  20
   2   2  -8 3120.84 292.061   5
   2   2  -7 195484. 4341.55   5
  -2  -2   7 190035. 4370.29  23
   2   2  -7 186196. 4377.03  22
   2   2  -7 188045. 4368.57  21
   2   2  -7 189419. 4367.81  17
   2   2  -7 181249. 4239.19  15
   2   2  -6 4193.68 321.059   5
  -2  -2   6 4475.62 356.431  23
   2   2  -6 3930.57 319.344  22
   2   2  -6 4342.67 332.949  21
   2   2  -6 4190.93 320.564  17
   2   2  -6 4309.15 266.648   1
   2   2  -5 7103.86 406.418   5
  -2  -2   5 6733.44 364.716   8
  -2  -2   5 7065.27 439.168  23
   2   2  -5 7638.36 370.677   1
   2   2  -5 6581.18 352.273  32
   2   2  -4 10297.5 453.747  32
   2   2  -4 9838.78 475.764   5
  -2  -2   4 10841.5 482.698   8
   2   2  -4 10811.9 460.992   1
  -2  -2   4 11081.9 535.064  23
   2   2  -3 27321.6 837.468  32
   2   2  -3 26395.2 853.924   5
  -2  -2   3 25955.2 864.138   8
   2   2  -3 28318.7 844.669   1
  -2  -2   2 24005.8 662.362  30
   2   2  -2 22461.1 744.122   5
   2   2  -2 23846.8 755.258   1
  -2  -2   2 23691.6 790.242   8
   2   2  -2 22871.6 745.717  32
   2   2  -1 2045.08 173.792   5
  -2  -2   1 2183.95 162.172  30
  -2  -2   1 2213.07 200.164   8
   2   2  -1 2017.58 110.940  24
   2   2  -1 2188.01 170.741  19
   2   2   0 8236.05 379.566  32
   2   2   0 8174.45 364.015  19
  -2  -2   0 8628.04 370.863  30
   2   2   0 8231.45 378.522   1
   2   2   0 7912.19 283.754  24
  -2  -2  -1 43831.3 1144.07  27
   2   2   1 42969.2 1141.88   1
  -2  -2  -1 41703.3 1205.62   8
   2   2   1 40736.2 1041.65  24
   2   2   1 44342.6 1160.78  19
   2   2   1 42300.8 1150.08  32
   2   2   1 40855.6 1133.11  33
  -2  -2  -1 42675.3 1161.15  30
   2   2   2 8064.57 374.847  32
  -2  -2  -2 8400.65 410.511  30
  -2  -2  -2 7973.15 388.849  27
  -2  -2  -2 8054.13 412.483   8
   2   2   2 8319.56 371.792   1
   2   2   2 7831.94 343.456  24
   2   2   2 7936.50 386.517  19
   2   2   2 8183.48 389.907  33
   2   2   3 438.012 84.3864  32
   2   2   3 445.951 83.8258   1
  -2  -2  -3 353.464 92.4683  30
  -2  -2  -3 568.309 106.253  27
  -2  -2  -3 497.945 103.943   8
  -2  -2  -3 396.473 81.2360   7
   2   2   3 377.053 90.7039  19
   2   2   4 29989.7 885.464  32
  -2  -2  -4 32109.6 1035.80  30
  -2  -2  -4 28817.6 945.938  37
  -2  -2  -4 30215.1 958.086   8
  -2  -2  -4 28062.7 889.778   7
   2   2   4 29907.1 873.625   1
  -2  -2  -4 30297.1 994.314  27
   2   2   4 31305.1 1001.31  19
  -2  -2  -5 171276. 3895.01  37
  -2  -2  -5 168576. 3982.37  27
  -2  -2  -5 156205. 3815.50   8
   2   2   5 177865. 3916.90  33
   2   2   5 170751. 4001.15  13
   2   2   5 162275. 3908.82  25
  -2  -2  -5 169294. 3789.95   7
   2   2   5 179185. 3742.35   1
   2   2   5 185049. 4000.50  19
  -2  -2  -6 58.5172 65.5997  30
   2   2   6 80.2798 54.0054  25
   2   2   6-18.6777 49.6705  13
  -2  -2  -6 117.132 57.7448  37
  -2  -2  -6 53.9949 56.6264  36
  -2  -2  -6 18.5734 62.4660   6
  -2  -2  -7 738.877 164.290  30
  -2  -2  -7 806.805 165.864  27
   2   2   7 773.617 148.373  25
   2   2   7 1024.13 187.232  13
  -2  -2  -7 1065.11 174.136  12
  -2  -2  -7 893.931 153.164  37
   2   2   7 824.206 171.255  19
  -2  -2  -7 635.609 149.256  36
  -2  -2  -7 713.306 161.623   6
   2   2   7 1421.25 191.552  33
  -2  -2  -8 21743.8 898.715  12
  -2  -2  -8 20406.0 946.305  30
  -2  -2  -8 23226.8 958.155   6
  -2  -2  -8 21975.0 948.649  27
   2   2   8 20420.6 898.226  13
   2   2   8 21793.2 848.465  33
   2   2   8 20970.6 946.596  19
  -2  -2  -8 22136.1 957.304  36
  -2  -2  -9 25427.8 1074.77  30
   2   2   9 25639.9 1006.57  13
  -2  -2  -9 26989.7 1041.70  12
   2   2   9 26023.4 1090.93  19
  -2  -2  -9 28274.5 1068.50   6
  -2  -2  -9 26059.1 1074.03  36
   2   2   9 25691.7 938.150  33
  -2  -2 -10 4270.08 399.165  14
  -2  -2 -10 4313.57 370.970  12
  -2  -2 -10 4438.89 392.115  36
  -2  -2 -10 4326.71 360.358   6
  -2  -2 -11 26801.7 1024.93  14
  -2  -2 -11 25940.5 952.296  12
  -2  -2 -11 23453.4 936.422  36
  -2  -2 -11 25027.2 896.189   6
  -2  -2 -12 2094.35 229.270  14
  -2  -2 -12 1857.82 198.854  12
  -2  -2 -12 1833.69 199.862  36
  -2  -2 -13 2906.11 214.867  14
  -2  -2 -13 2593.75 176.387  12
   2   3 -12 1376.91 178.929  21
   2   3 -12 1752.50 214.690  17
   2   3 -11 10887.7 581.282  21
   2   3 -11 11406.2 615.445  17
   2   3 -10 55946.8 1612.52  15
   2   3 -10 58632.9 1785.18  17
   2   3 -10 61116.5 1805.45  22
   2   3 -10 61575.6 1793.94  21
   2   3 -10 55953.1 1592.24  20
   2   3  -9 28939.6 1023.12  15
   2   3  -9 32214.7 1079.73   5
   2   3  -9 33009.6 1197.73  22
   2   3  -9 30924.0 1164.94  21
   2   3  -9 29518.6 1030.78  20
   2   3  -9 31186.6 1167.60  17
   2   3  -8 20308.7 841.073   5
   2   3  -8 19966.5 889.586  22
   2   3  -8 20120.7 894.223  21
   2   3  -8 20634.3 799.258  20
   2   3  -8 20613.7 884.842  17
   2   3  -7-17.7537 42.2147   5
  -2  -3   7 180.752 82.7022  23
   2   3  -7 99.7071 67.0499  22
   2   3  -7 80.0235 62.9228  21
   2   3  -7 29.4299 46.2849  20
   2   3  -7 18.2100 57.2753  17
   2   3  -6 114968. 2860.77   5
   2   3  -6 111568. 2708.62   2
  -2  -3   6 121092. 2979.12  23
   2   3  -6 115081. 2890.77  22
   2   3  -6 114132. 2904.58  11
   2   3  -6 113168. 2892.79  21
   2   3  -6 114198. 2723.53   1
   2   3  -6 116261. 2826.48  17
   2   3  -5 38741.9 1203.57   5
   2   3  -5 38504.6 1136.76   2
  -2  -3   5 35308.0 1159.51   8
  -2  -3   5 41439.8 1311.48  23
   2   3  -5 34509.2 1174.07  22
   2   3  -5 34957.0 1216.42  11
   2   3  -5 37854.3 1219.98  21
   2   3  -5 35586.6 1122.95  17
   2   3  -5 38451.4 1140.01   1
   2   3  -4 14966.5 614.664  32
  -2  -3   4 13695.5 625.764   8
   2   3  -4 14070.4 657.307  11
   2   3  -4 14163.1 639.186  21
   2   3  -4 14104.6 595.417   1
   2   3  -3 29502.5 983.787  32
   2   3  -3 31157.7 1005.36   5
  -2  -3   3 31657.7 1050.84   8
   2   3  -3 33030.2 1010.87   1
   2   3  -2 37.7037 39.5383  32
  -2  -3   2 30.1815 50.7466   8
   2   3  -2 74.9985 49.2894   1
   2   3  -2 49.9741 44.5638   5
   2   3  -2 60.6166 44.9447  33
  -2  -3   1 83716.1 1991.58  30
   2   3  -1 83278.8 2045.54  33
   2   3  -1 85217.9 2079.90   5
  -2  -3   1 82886.4 2180.08   8
   2   3  -1 86049.4 1988.91  19
   2   3   0 19372.1 716.665  32
   2   3   0 19437.1 688.482   5
   2   3   0 19696.1 709.448   1
   2   3   0 19980.7 653.549  19
  -2  -3   0 20162.6 687.567  30
   2   3   0 19536.8 698.094  33
  -2  -3  -1 1165.13 152.517  30
  -2  -3  -1 1098.10 139.650  27
   2   3   1 1188.33 161.143  32
  -2  -3  -1 1084.84 165.045   8
   2   3   1 1155.73 143.471   5
   2   3   1 1389.88 161.377   1
   2   3   1 1013.02 133.517  19
   2   3   1 1076.12 149.030  33
   2   3   2 107.925 57.0582  32
  -2  -3  -2 70.3281 52.9163  30
  -2  -3  -2 77.8410 48.8148  27
  -2  -3  -2 217.248 78.2883   8
   2   3   2 77.0113 31.2133  24
   2   3   2 167.249 58.3203   5
   2   3   2 82.3610 50.4733   1
  -2  -3  -2 142.706 61.7223   7
   2   3   2 95.5254 51.2219  19
   2   3   3 23034.2 819.805  19
   2   3   3 23070.0 790.934  32
  -2  -3  -3 23641.9 882.867  30
  -2  -3  -3 21556.0 854.052   8
  -2  -3  -3 23832.0 827.671   7
   2   3   3 22469.8 727.038  24
  -2  -3  -3 23860.9 857.546  27
   2   3   3 23319.7 780.296   1
  -2  -3  -4 8895.84 501.250  27
  -2  -3  -4 8348.02 499.085  30
   2   3   4 8474.20 416.800   2
  -2  -3  -4 7919.54 463.180   8
   2   3   4 7572.69 494.554  13
  -2  -3  -4 8322.57 446.451   7
   2   3   4 8437.60 468.060  33
  -2  -3  -4 7738.61 462.315  37
   2   3   4 8835.82 476.437  19
   2   3   4 8550.11 417.305   1
  -2  -3  -5 9529.91 562.762  30
  -2  -3  -5 8788.69 529.032  27
   2   3   5 10141.5 522.162  33
  -2  -3  -5 7761.25 457.309   8
   2   3   5 8772.49 552.029  13
  -2  -3  -5 8708.17 466.001   7
  -2  -3  -5 9986.75 534.513  37
   2   3   5 9441.27 524.995  19
  -2  -3  -6 5856.32 414.665  37
  -2  -3  -6 5981.11 445.955  27
   2   3   6 5886.76 454.267  13
   2   3   6 4776.66 392.328  19
  -2  -3  -6 6140.99 447.767  36
   2   3   6 5446.78 393.167  33
  -2  -3  -7 25805.7 1093.46  30
   2   3   7 25959.2 1085.77  13
  -2  -3  -7 26829.1 1046.76   6
  -2  -3  -7 25521.2 992.213  37
   2   3   7 27268.2 1060.07  19
  -2  -3  -7 27780.2 1094.07  36
   2   3   7 27018.7 989.299  33
  -2  -3  -8 2192.32 296.383  30
  -2  -3  -8 2621.59 314.446  27
   2   3   8 2624.88 309.186  13
  -2  -3  -8 1920.71 237.193  12
  -2  -3  -8 2442.00 280.446   6
  -2  -3  -8 2095.32 247.937  37
   2   3   8 2142.13 276.641  19
  -2  -3  -8 2391.73 299.538  36
   2   3   8 2510.03 265.302  33
   2   3   9 415.309 108.387  33
  -2  -3  -9 292.039 99.6610   6
   2   3   9 376.078 116.690  13
  -2  -3  -9 340.801 109.293  12
  -2  -3  -9 290.891 116.141  36
  -2  -3 -10 310.692 91.5502   6
  -2  -3 -10 274.093 109.297  36
   2   3  10 283.693 93.2073  13
  -2  -3 -10 182.822 79.1338  12
  -2  -3 -10 453.662 128.540  14
  -2  -3 -11 8593.17 479.992  14
  -2  -3 -11 7690.69 401.799  12
  -2  -3 -11 7343.85 440.756  36
  -2  -3 -12 30346.3 886.143  14
  -2  -3 -12 25220.8 740.891  12
   2   4 -12 673.647 115.188  17
   2   4 -11 14449.4 639.947  17
   2   4 -10 4316.72 360.406  22
   2   4 -10 3979.68 340.934  17
   2   4  -9 13261.6 619.697   5
   2   4  -9 13714.9 704.159  22
   2   4  -9 13416.4 676.879  17
   2   4  -8 47016.2 1465.95   5
   2   4  -8 45699.3 1534.54  22
   2   4  -8 46775.7 1487.71  17
   2   4  -7 98297.2 2542.16   5
   2   4  -7 95531.5 2594.99  22
   2   4  -7 97364.3 2611.93  21
   2   4  -7 93222.3 2485.53  17
   2   4  -6 23319.0 931.630   5
   2   4  -6 23030.6 862.232   1
   2   4  -6 23445.1 852.568   2
  -2  -4   6 22521.7 994.818  23
   2   4  -6 22438.5 945.225  22
   2   4  -6 22875.8 985.334  11
   2   4  -6 23008.4 960.961  21
   2   4  -6 22791.3 871.938  17
   2   4  -5 52857.2 1551.28   1
   2   4  -5 53814.0 1611.48   5
  -2  -4   5 50606.2 1588.79   8
   2   4  -5 54388.9 1547.80   2
  -2  -4   5 53521.8 1723.26  23
   2   4  -5 52080.1 1615.76  22
   2   4  -5 49844.0 1650.81  11
   2   4  -5 53986.5 1655.15  21
   2   4  -5 54058.5 1501.45  17
   2   4  -4 247.537 87.8475   1
  -2  -4   4 212.985 92.1777   8
   2   4  -4 267.597 90.0870  22
   2   4  -4 191.474 91.1574  21
   2   4  -4 227.201 86.3938   2
   2   4  -3 53804.9 1526.09   2
   2   4  -3 52770.2 1534.55   5
  -2  -4   3 52697.0 1618.21   8
   2   4  -3 50357.9 1510.73  22
   2   4  -3 51003.5 1591.76  11
   2   4  -3 51602.7 1519.38   1
   2   4  -3 48848.3 1403.43  33
   2   4  -2 17058.9 703.885   2
   2   4  -2 16281.3 698.277   5
  -2  -4   2 16696.2 768.466   8
   2   4  -2 14664.3 660.162  22
   2   4  -2 15255.3 720.876  11
   2   4  -2 16688.1 705.509   1
   2   4  -2 16764.8 665.504  33
  -2  -4   1 1465.11 220.691   8
   2   4  -1 1941.48 214.349   5
   2   4  -1 1868.35 210.433  33
  -2  -4   0 6437.86 376.862  30
   2   4   0 6861.19 415.242   2
   2   4   0 6944.54 410.470   5
   2   4   0 6649.84 409.375  33
   2   4   0 6475.07 407.892   1
  -2  -4  -1 2870.46 264.961  30
  -2  -4  -1 3159.71 259.482  27
   2   4   1 3397.28 292.760   2
   2   4   1 3069.99 295.575  13
  -2  -4  -1 3393.62 325.157   8
   2   4   1 3464.05 284.222   5
   2   4   1 3067.52 228.377  19
  -2  -4  -1 3110.08 290.649   7
   2   4   1 3103.02 277.227   1
   2   4   1 3749.82 304.360  33
   2   4   2 64.5685 54.2744  33
  -2  -4  -2 68.0279 57.1820  30
  -2  -4  -2 30.6736 40.7688  27
  -2  -4  -2 19.5374 56.8893   8
   2   4   2 56.5725 59.3087  13
  -2  -4  -2 17.0957 45.4435   7
   2   4   2 36.0001 34.9446  19
   2   4   2 14.7176 49.4854   2
   2   4   2-14.8810 39.5574   1
   2   4   3 7930.64 428.765  19
  -2  -4  -3 7547.85 485.405  30
  -2  -4  -3 6392.23 431.988  27
   2   4   3 7126.44 421.060   2
  -2  -4  -3 6731.17 471.519   8
   2   4   3 6647.15 482.003  13
  -2  -4  -3 7034.81 452.117   7
  -2  -4  -3 7739.31 484.286  37
   2   4   3 7451.27 433.314   1
   2   4   4 12938.3 592.808   1
  -2  -4  -4 12921.3 686.044  30
  -2  -4  -4 13468.1 675.575  37
  -2  -4  -4 13025.5 664.572  27
  -2  -4  -4 11474.4 627.499   8
   2   4   4 13471.9 589.127   2
  -2  -4  -4 12937.6 634.839   7
   2   4   4 12084.8 589.408  19
   2   4   4 13958.5 660.402  33
  -2  -4  -5 3738.17 370.678  30
  -2  -4  -5 3317.29 339.208  27
  -2  -4  -5 4079.28 360.758  37
  -2  -4  -5 2501.68 278.341   8
   2   4   5 4095.04 393.224  13
  -2  -4  -5 3083.53 300.283   7
   2   4   5 3126.71 294.532  19
   2   4   5 3928.41 342.599  33
  -2  -4  -6 1615.77 257.873  30
  -2  -4  -6 1983.55 275.636  36
  -2  -4  -6 2109.51 267.741  37
  -2  -4  -6 2310.59 288.986  27
   2   4   6 2067.15 286.015  13
   2   4   6 1869.26 234.308  19
   2   4   6 2043.57 255.861  33
  -2  -4  -7 8214.25 531.096  37
  -2  -4  -7 7482.19 560.682  30
  -2  -4  -7 7012.11 523.548  27
   2   4   7 8018.65 571.490  13
  -2  -4  -7 8665.69 570.773  36
  -2  -4  -7 8758.11 526.427   6
   2   4   7 7408.35 495.968  19
   2   4   7 9512.47 534.151  33
  -2  -4  -8 102.677 70.4739   6
   2   4   8 91.3958 76.8281  13
  -2  -4  -8 55.4602 65.9335  37
  -2  -4  -8 22.2082 52.8081  36
   2   4   8 33.3438 62.6780  33
  -2  -4  -9 12651.5 559.036   6
   2   4   9 13370.6 667.440  13
  -2  -4  -9 12863.2 659.069  36
   2   4   9 13479.2 576.746  33
  -2  -4 -10 16001.8 665.870  14
   2   4  10 15071.1 649.139  13
  -2  -4 -10 14556.8 659.453  36
  -2  -4 -11 33060.9 974.847  14
   2   5 -11 38319.8 1087.04  21
   2   5 -10 5305.62 362.614  22
   2   5 -10 5861.09 371.980  21
   2   5 -10 5116.99 332.563  17
   2   5  -9 584.551 142.758  22
   2   5  -9 466.173 115.324  17
   2   5  -8 1165.99 200.194  22
   2   5  -8 1012.42 165.336  17
   2   5  -7 188.880 87.0183   5
   2   5  -7 141.635 74.8991  17
   2   5  -7 173.289 89.2556  22
   2   5  -6 59109.9 1757.32   5
  -2  -5   6 53785.4 1808.79  23
   2   5  -6 57653.3 1780.86  22
   2   5  -6 57122.1 1624.65   2
  -2  -5   5 13775.7 737.104   8
   2   5  -5 15865.7 755.358   5
  -2  -5   5 15667.8 751.357   7
   2   5  -5 15430.7 709.159   2
  -2  -5   5 15123.7 826.218  23
   2   5  -5 14723.9 752.537  22
   2   5  -5 15482.0 726.191   1
  -2  -5   4 112507. 3007.99   8
   2   5  -4 116954. 2935.56   1
  -2  -5   4 118511. 2976.84   7
   2   5  -4 116080. 2907.31   2
   2   5  -4 107269. 2918.39  22
   2   5  -3 27880.4 1041.04   1
  -2  -5   3 23683.4 1046.05   8
   2   5  -3 25679.3 1000.08   5
   2   5  -3 26494.3 996.822   2
  -2  -5   3 25412.5 1026.92   7
   2   5  -3 25589.9 1001.09  22
   2   5  -3 23333.2 891.543  33
   2   5  -2 2535.04 280.268   1
  -2  -5   2 2093.46 287.414   8
   2   5  -2 1950.87 244.753   2
   2   5  -2 1829.09 238.199   5
  -2  -5   2 2110.52 272.351   7
   2   5  -2 2033.01 249.140  22
   2   5  -2 1713.92 221.849  33
  -2  -5   1 4717.63 422.222   8
   2   5  -1 3616.41 331.977   5
  -2  -5   1 4855.57 402.824   7
   2   5  -1 3712.57 328.442  22
   2   5  -1 4774.10 369.725  33
   2   5   0 39515.7 1323.64   1
   2   5   0 36711.6 1269.28  13
   2   5   0 40863.1 1318.74   2
   2   5   0 41670.7 1326.39  33
  -2  -5   0 40396.2 1377.51   7
   2   5   1 1133.98 189.607  33
   2   5   1 1307.51 202.597   1
  -2  -5  -1 1364.46 192.881  30
   2   5   1 1244.75 203.566  13
   2   5   1 1332.23 196.550   2
  -2  -5  -1 1063.91 206.109   8
  -2  -5  -2 5247.79 409.463  30
   2   5   2 5137.54 400.837   1
  -2  -5  -2 5344.59 454.721   8
   2   5   2 5809.11 405.228   2
  -2  -5  -2 5313.26 426.853   7
   2   5   2 5642.95 445.858  13
   2   5   2 4938.54 397.143  33
  -2  -5  -3 211.206 90.5520  30
  -2  -5  -3 94.0028 67.0872  27
  -2  -5  -3 67.5299 75.7194   8
   2   5   3 114.204 81.4875  13
   2   5   3 106.691 70.1450   1
  -2  -5  -3 251.177 102.615   7
  -2  -5  -3 174.824 100.635  37
   2   5   3 84.4103 60.2507   2
  -2  -5  -4 204.005 100.930  30
   2   5   4 239.339 106.135  33
  -2  -5  -4 246.188 94.5708  27
  -2  -5  -4 127.486 75.9223   8
   2   5   4 310.727 117.244  13
  -2  -5  -4 247.858 98.3255   7
   2   5   4 233.252 86.4591   1
  -2  -5  -4 330.516 114.269  37
   2   5   4 348.128 101.407   2
  -2  -5  -5 9475.57 621.055  30
  -2  -5  -5 10116.3 608.979  27
  -2  -5  -5 10331.1 615.170  37
  -2  -5  -5 9513.68 576.350   7
   2   5   5 11398.8 615.863  33
  -2  -5  -6 3553.26 346.805  37
   2   5   6 3296.87 357.844  13
  -2  -5  -6 3413.68 310.880   6
  -2  -5  -6 3464.27 349.296  36
   2   5   6 3047.54 308.409  33
  -2  -5  -7 2857.35 298.945  37
   2   5   7 2909.06 325.017  13
  -2  -5  -7 2788.75 307.936  36
   2   5   7 2506.79 267.807  33
  -2  -5  -7 2501.31 250.109   6
   2   5   8 12378.0 652.147  13
  -2  -5  -8 11787.6 590.864  37
  -2  -5  -8 11594.6 616.967  36
   2   5   8 13310.2 589.955  33
  -2  -5  -9 5497.16 326.609  14
   2   5   9 6280.22 408.623  13
   2   5   9 5407.26 321.229  33
  -2  -5  -9 5456.26 371.840  36
  -2  -5 -10 2646.83 184.845  14
   2   5  10 2934.14 227.463  13
   2   6 -10 15930.5 554.650  21
   2   6  -9 52.8233 56.6131  22
   2   6  -9 75.4250 53.8924  21
   2   6  -8 11665.0 580.342  22
   2   6  -8 12178.3 586.212  21
   2   6  -7 5112.29 393.795  22
   2   6  -7 5639.92 406.888  21
   2   6  -6 8897.90 541.220  22
   2   6  -6 9400.74 557.399  21
   2   6  -5 51319.4 1647.99  22
   2   6  -5 55039.6 1696.51  21
   2   6  -5 53318.9 1578.33   2
   2   6  -4 59777.1 1830.55  22
   2   6  -4 63722.3 1811.25   2
   2   6  -4 58874.5 1840.56  21
  -2  -6   3 10439.0 682.540   8
  -2  -6   3 12840.3 704.750   7
   2   6  -3 11748.1 636.881   2
   2   6  -3 11550.3 643.519  22
   2   6  -3 11401.4 656.768  21
   2   6  -3 12816.0 681.203   1
  -2  -6   2 16510.4 901.590   8
  -2  -6   2 20344.9 918.040   7
   2   6  -2 20017.2 862.044   2
   2   6  -2 17803.6 818.234  22
   2   6  -2 19215.2 870.845   1
   2   6  -2 18386.6 798.970  33
  -2  -6   1 24861.3 1110.09   8
  -2  -6   1 24760.5 1047.43   7
   2   6  -1 22205.2 925.661  22
   2   6  -1 23728.5 957.868  33
   2   6   0 3007.88 292.450  13
   2   6   0 4007.82 362.862  33
  -2  -6   0 3935.02 385.203   7
   2   6   0 3760.05 351.556   2
   2   6   0 3626.99 361.243   1
   2   6   0 4131.26 349.280  22
  -2  -6   0 3743.66 376.099  37
  -2  -6  -1 539.710 162.189   8
   2   6   1 523.639 140.845  13
   2   6   1 794.810 163.472   2
  -2  -6  -1 625.962 161.229  37
   2   6   1 654.790 152.467   1
   2   6   1 907.690 182.334  33
   2   6   2 9672.37 583.772  13
  -2  -6  -2 8755.30 616.024   8
  -2  -6  -2 9852.62 615.686   7
   2   6   2 10167.5 562.613   2
  -2  -6  -2 9772.67 611.244  37
   2   6   2 8616.25 549.400   1
   2   6   2 9436.00 575.486  33
   2   6   3 20682.2 925.115  13
   2   6   3 21048.0 847.435   2
   2   6   4 110.834 83.3460  13
   2   6   4 99.2497 81.7592  33
  -2  -6  -4 87.2806 77.8356  37
   2   6   4 91.3481 67.7415   2
   2   6   5 14466.7 737.808  13
  -2  -6  -5 14149.1 719.378  37
   2   6   5 15225.5 710.535  33
   2   6   6 2148.57 246.161  33
  -2  -6  -6 2335.80 266.730  37
  -2  -6  -6 2574.49 279.579  36
   2   6   7 34.8622 58.6160  13
  -2  -6  -7 31.1840 49.0492  37
  -2  -6  -7 48.1448 46.7407  36
   2   6   7 139.817 64.3779  33
   2   6   8 1470.02 184.219  13
  -2  -6  -8 1279.02 157.394  37
  -2  -6  -8 1437.95 172.346  36
   2   6   8 1189.49 146.001  33
   2   6   9 7834.99 372.971  13
   2   7  -8 122.641 53.8491  22
   2   7  -8 149.617 55.4243  21
   2   7  -7 13677.6 573.137  22
   2   7  -7 14998.2 586.672  21
   2   7  -6 8713.17 467.112  22
   2   7  -6 8689.53 464.471  21
   2   7  -5 32678.4 1079.13  22
   2   7  -5 30981.1 1069.80  21
  -2  -7   4 31470.7 1052.86  37
   2   7  -4 28567.7 1026.86  22
   2   7  -4 29355.0 1060.01  21
   2   7  -4 28420.1 1004.99   2
   2   7  -3 1046.67 172.728  22
   2   7  -3 1493.55 216.815  21
   2   7  -3 1328.58 197.470   2
  -2  -7   3 1653.24 222.420  37
  -2  -7   2 11351.1 615.053  37
   2   7  -2 9641.37 514.487   4
   2   7  -2 10384.2 553.667  22
   2   7  -2 10667.2 591.350  21
   2   7  -2 10538.6 570.914   2
  -2  -7   1 3204.72 326.904  37
   2   7  -1 2567.60 272.219   4
   2   7  -1 2561.60 261.582  22
   2   7  -1 2720.27 280.845   2
   2   7   0 1628.93 203.688  22
   2   7   0 1661.85 228.879   2
  -2  -7   0 1991.10 255.227  37
   2   7   0 1739.43 226.515  33
   2   7   1 14520.4 683.035   2
  -2  -7  -1 16625.1 775.465  37
   2   7   1 14546.6 700.013  33
  -2  -7  -2 15263.2 738.665  37
   2   7   2 14916.1 661.353   2
   2   7   2 15883.3 718.469  33
  -2  -7  -3 1134.80 189.310  37
   2   7   3 789.820 146.921  13
   2   7   3 763.623 139.139   2
   2   7   4 394.919 106.472  13
   2   7   4 337.692 101.410  33
   2   7   5 18288.5 722.996  13
  -2  -7  -5 16652.4 698.080  36
   2   7   5 18643.1 721.610  33
  -2  -7  -5 18779.6 752.198  37
   2   7   6 1692.01 186.384  13
  -2  -7  -6 1506.08 179.125  37
  -2  -7  -6 1508.56 174.286  36
   2   7   6 1457.39 169.326  33
   2   8  -5 3337.85 206.699  22
   2   8  -5 3386.02 217.614  21
   2   8  -4 10243.0 424.578  22
   2   8  -4 12102.8 473.811  21
   2   8  -3 350.696 77.1701  22
   2   8  -3 424.119 91.2734  21
   2   8  -2 12313.9 523.411  21
  -2  -8   2 13055.7 544.133  37
   2   8  -1 11458.2 516.063  21
  -2  -8   1 12313.8 554.042  37
   2   8   0 10406.1 490.544   4
   2   8   0 11478.5 517.793  21
   2   8   1 762.417 125.865  21
   2   8   1 774.122 124.983   4
  -2  -8  -1 593.225 121.899  37
   2   8   2 1870.67 193.780   4
  -2  -8  -2 2080.98 213.707  37
   2   8   3 8176.54 413.205   4
  -2  -8  -3 8627.33 434.203  37
  -3  10  -1 554.071 76.5084  18
  -3   9   5 2245.38 172.655  22
  -3   9   4 14700.4 547.251  22
   3  -9  -3 10072.0 492.096  35
  -3   9   3 11625.9 487.027  22
  -3   9   3 10293.0 411.322  18
  -3   9   3 11315.8 526.767   3
   3  -9  -3 10124.9 475.715  32
  -3   9   2 3184.42 251.219  22
  -3   9   2 3251.56 244.253  18
   3  -9  -2 3062.66 261.972  35
  -3   9   2 3451.29 292.632   3
   3  -9  -1 587.559 117.182  35
  -3   9   1 739.814 124.871  22
  -3   9   1 417.508 101.506  18
  -3   9   0 49.7888 48.3377   3
  -3   9   0 36.3007 43.1667  22
  -3   9   0 150.233 76.1558  18
   3  -9   0 63.1525 47.4925  35
  -3   9  -1 2774.43 271.528   3
  -3   9  -1 2401.42 209.525  10
  -3   9  -1 2845.36 256.070  18
  -3   9  -2 8715.37 475.448   3
  -3   9  -2 8105.68 420.577  10
  -3   9  -3 42226.8 1130.52  11
  -3   9  -3 42275.7 1220.06  10
  -3   9  -3 45316.1 1246.41  18
  -3   9  -4 1167.32 138.093  11
  -3   9  -4 1308.05 163.362  10
  -3   9  -4 1128.35 145.587  18
  -3   9  -5 2490.74 183.030  18
  -3   9  -5 2521.22 198.379  11
  -3   9  -5 2913.29 231.630  10
  -3   9  -6 1218.56 124.888  11
  -3   9  -6 1392.38 143.183  10
  -3   8   8 2411.09 175.868  13
  -3   8   6 49553.3 1376.34  13
   3  -8  -6 48930.2 1414.23  35
  -3   8   6 46716.7 1336.10   3
  -3   8   5 649.018 132.174   3
  -3   8   5 491.359 113.863  13
   3  -8  -5 527.968 123.635  35
   3  -8  -4 37.3016 62.7069  35
  -3   8   4-18.5788 49.3833   3
  -3   8   4 47.3839 49.6748  13
  -3   8   4 11.5964 41.3548  18
   3  -8  -4 61.7746 55.0740  32
  -3   8   3 3790.04 358.384   3
  -3   8   3 3454.03 299.821  13
  -3   8   3 3846.52 304.156  18
   3  -8  -3 3608.87 342.414  35
  -3   8   2 2367.18 247.767  13
  -3   8   2 2781.54 273.269  18
  -3   8   2 2180.90 280.485   3
  -3   8   1 20406.7 842.216  18
  -3   8   1 19161.5 900.836   3
  -3   8   0 31231.9 1099.19  22
  -3   8   0 28928.7 1022.00  10
  -3   8   0 30892.3 1113.82  18
  -3   8  -1 47.0671 68.5363   3
  -3   8  -1 157.120 74.8346  22
  -3   8  -1 112.340 62.4717  11
  -3   8  -1 19.6157 61.7066  18
  -3   8  -1 35.3389 63.0259  10
  -3   8  -2 31.5034 59.2135  11
  -3   8  -2 22.7226 60.3996   3
  -3   8  -2 16.1700 38.4476  22
  -3   8  -2 150.404 89.3935  10
  -3   8  -3 24186.2 989.128   3
  -3   8  -3 23583.3 896.883  11
  -3   8  -3 22627.6 928.874  10
  -3   8  -3 24144.1 938.437  18
  -3   8  -4 2862.60 282.542  11
  -3   8  -4 2565.11 285.060  10
  -3   8  -4 3054.43 289.429  18
  -3   8  -5 6960.12 432.317  11
  -3   8  -5 6281.45 430.291  10
  -3   8  -5 6041.77 383.742  18
  -3   8  -6 16713.4 699.197  11
  -3   8  -6 17491.7 732.971  10
  -3   8  -7 5778.99 357.881  11
  -3   8  -8 6820.31 346.406  10
  -3   7   9 81.4248 46.8859  13
  -3   7   8 324.802 99.5475  13
   3  -7  -8 326.840 89.9195  37
   3  -7  -8 381.694 100.481  35
  -3   7   7 40.5563 42.5168   3
  -3   7   7 17.1330 45.5398  13
   3  -7  -7-14.9451 47.0025  37
  -3   7   6 1238.69 189.148   3
   3  -7  -6 1062.57 169.796  37
   3  -7  -6 1094.35 196.685  35
   3  -7  -5 267.861 95.5515  32
  -3   7   5 102.140 76.9294   3
  -3   7   5 429.649 126.456  13
   3  -7  -5 236.050 87.4858  37
   3  -7  -5 316.841 123.367  35
  -3   7   4 51194.7 1616.83  13
  -3   7   4 51896.2 1661.87   3
  -3   7   4 50892.5 1488.76  18
   3  -7  -4 49794.5 1670.24  35
  -3   7   3 12720.6 673.394  13
  -3   7   3 13314.6 699.573   4
  -3   7   3 11928.1 704.956   3
   3  -7  -2 12645.8 734.866  31
  -3   7   2 13670.7 709.714  29
  -3   7   2 12513.0 703.919  28
   3  -7  -2 13403.6 683.073  26
  -3   7   2 13510.1 681.851  13
   3  -7  -2 12854.9 721.265   7
  -3   7   2 12911.4 715.055   4
  -3   7   2 14587.4 789.790   3
   3  -7  -1 678.859 171.847  31
  -3   7   1 297.114 112.258   9
  -3   7   1 491.002 156.808   3
  -3   7   1 325.507 111.067  29
  -3   7   1 534.783 143.805  28
   3  -7  -1 242.210 93.2178  26
  -3   7   1 348.021 109.117  13
   3  -7  -1 411.214 131.389   7
   3  -7   0 12855.4 759.472  31
  -3   7   0 13145.0 677.354  29
  -3   7   0 14001.4 760.293  28
   3  -7   0 14826.7 722.213  26
  -3   7   0 14751.5 663.288  13
  -3   7   0 14520.7 699.312  10
  -3   7   0 14586.2 784.633   9
   3  -7   1 24522.7 1093.94  31
   3  -7   1 27610.6 1041.17  26
  -3   7  -1 26685.0 1017.31  22
  -3   7  -1 24385.9 947.635  11
  -3   7  -1 24823.3 1003.46  10
   3  -7   2 37495.2 1445.86  31
  -3   7  -2 41546.7 1457.05  28
  -3   7  -2 41333.8 1491.54   9
   3  -7   2 43038.4 1395.32  26
  -3   7  -2 42526.9 1355.58  22
  -3   7  -2 43333.4 1387.56  11
  -3   7  -2 38970.8 1388.41  10
  -3   7  -2 42665.5 1523.93   3
  -3   7  -3 23549.6 1047.27   3
  -3   7  -3 22587.0 889.254  22
  -3   7  -3 24831.9 991.966  11
  -3   7  -3 24103.5 1009.65  10
  -3   7  -4 14591.0 762.702  10
  -3   7  -4 13968.8 721.347  11
  -3   7  -4 14597.4 721.839  18
  -3   7  -4 14568.0 776.496   3
  -3   7  -5 43360.0 1444.62  11
  -3   7  -5 44569.7 1384.26  18
  -3   7  -5 44315.1 1474.07  10
  -3   7  -6 286.097 89.9766  16
  -3   7  -6 365.949 123.576  11
  -3   7  -7 9129.16 537.760  10
  -3   7  -7 7679.32 447.353  16
  -3   7  -8 2037.74 228.438  11
  -3   7  -8 1740.49 214.867  10
  -3   7  -8 1587.16 187.176  16
  -3   7  -9 12519.7 516.466  11
  -3   7  -9 11728.2 502.599  10
  -3   7 -10 181.616 50.6377  16
  -3   6  10 164.973 57.5821  13
   3  -6  -9 815.770 151.689  35
  -3   6   9 1340.44 184.070  13
  -3   6   9 1084.87 148.974  34
  -3   6   8 76.4325 54.5170  34
   3  -6  -8 103.754 53.0775  17
  -3   6   8-18.8658 59.3362  13
   3  -6  -8 18.4465 58.0177  37
   3  -6  -8 40.8408 64.2252  35
  -3   6   7 3671.69 357.274  13
   3  -6  -7 3931.87 357.404  37
  -3   6   7 4007.41 329.937   3
  -3   6   7 3761.58 325.045  34
  -3   6   6 14314.8 746.735  13
   3  -6  -6 13258.6 696.726  37
  -3   6   6 13659.5 689.917   3
   3  -6  -6 13909.9 770.507  35
  -3   6   6 13936.4 681.087  34
   3  -6  -5 1044.57 186.739  32
   3  -6  -5 1215.21 226.319  35
  -3   6   5 1157.47 207.271  29
   3  -6  -5 963.083 178.770  26
   3  -6  -5 1243.26 202.494  37
  -3   6   5 1177.95 191.221  34
  -3   6   4 2638.41 287.812  34
   3  -6  -4 2449.69 294.964  31
  -3   6   4 2252.94 283.286  29
  -3   6   4 2548.36 289.079  28
   3  -6  -4 2455.34 275.351  26
  -3   6   4 2812.25 317.888  13
   3  -6  -4 2810.49 334.836   7
  -3   6   4 2539.54 287.402   4
   3  -6  -4 2563.96 281.194  37
   3  -6  -4 2255.24 301.708  35
  -3   6   4 2291.47 279.008   9
   3  -6  -3 807.782 174.430  31
  -3   6   3 1015.13 199.233   3
  -3   6   3 958.077 184.478   9
  -3   6   3 934.205 177.137  28
  -3   6   3 919.897 185.992  13
   3  -6  -3 1018.51 200.512   7
   3  -6  -3 690.462 141.802  37
  -3   6   3 914.058 181.335   4
  -3   6   3 956.476 170.688  34
   3  -6  -2 5978.14 481.656  31
  -3   6   2 6672.43 468.391  29
  -3   6   2 6175.08 465.111  28
  -3   6   2 6298.69 460.517  13
   3  -6  -2 5710.36 461.446   7
  -3   6   2 6820.25 488.034   9
  -3   6   2 6073.58 466.620   4
  -3   6   2 5974.77 484.299   3
  -3   6   2 6513.20 426.773  34
   3  -6  -1 87256.3 2533.61  31
  -3   6   1 87733.8 2412.77  29
  -3   6   1 89137.6 2479.82  28
   3  -6  -1 95549.3 2432.64  26
   3  -6  -1 93595.2 2298.90  24
  -3   6   1 89264.6 2411.40  13
   3  -6  -1 88640.2 2447.42   7
  -3   6   1 86461.1 2485.38   4
  -3   6   1 89465.2 2552.60   3
  -3   6   1 95111.9 2337.67  34
  -3   6   1 88602.1 2509.64   9
  -3   6   0 2729.67 282.685  10
   3  -6   0 3338.21 359.570  31
  -3   6   0 3341.16 314.441  29
  -3   6   0 2837.65 317.081  28
   3  -6   0 3169.91 316.731  26
   3  -6   0 2859.56 254.818  24
  -3   6   0 3000.49 294.551  13
   3  -6   0 2834.91 300.052   7
  -3   6   0 2715.74 274.617  11
  -3   6   0 2817.91 265.839  34
  -3   6   0 3016.67 343.791   3
  -3   6   0 2836.58 325.055   9
  -3   6  -1 2576.33 286.674  10
   3  -6   1 2712.14 325.846  31
  -3   6  -1 2146.23 244.923  29
   3  -6   1 2519.15 277.739  26
  -3   6  -1 2487.63 275.728  11
   3  -6   2 875.129 188.596  31
  -3   6  -2 1058.58 203.361   9
  -3   6  -2 1115.07 168.465  29
  -3   6  -2 1375.63 244.381   3
  -3   6  -2 1155.20 202.348  28
   3  -6   2 953.289 177.533  26
  -3   6  -2 1213.82 180.628  22
  -3   6  -2 1182.58 197.288  11
  -3   6  -2 1248.73 209.103  10
   3  -6   3 16956.4 843.571  31
  -3   6  -3 14867.3 774.046  28
   3  -6   3 17620.0 782.880  26
  -3   6  -3 16683.4 795.686  11
  -3   6  -3 17094.0 810.122  10
  -3   6  -3 17152.1 825.214   9
  -3   6  -3 17013.6 864.292   3
  -3   6  -4 16712.8 843.665   3
   3  -6   4 15330.7 798.325  31
  -3   6  -4 14809.3 753.251  28
   3  -6   4 15610.7 740.530  26
  -3   6  -4 16286.2 800.153  11
  -3   6  -4 16693.4 815.336  10
  -3   6  -4 17563.8 823.511   9
  -3   6  -4 15135.6 681.541  16
  -3   6  -5 105121. 2807.25  28
   3  -6   5 111130. 2828.57  26
  -3   6  -5 113735. 2950.93  11
  -3   6  -5 112529. 2948.67  10
  -3   6  -5 108020. 2772.96  16
  -3   6  -6 6202.05 438.210  16
  -3   6  -6 5759.02 403.298  18
  -3   6  -7 22046.3 939.935  11
  -3   6  -7 20813.1 929.005  10
  -3   6  -7 20541.3 874.084  16
  -3   6  -8 2429.59 279.754  11
  -3   6  -8 2196.22 265.554  10
  -3   6  -8 1996.69 249.286  16
  -3   6  -9 5370.07 377.279  11
  -3   6  -9 5616.99 386.122  10
  -3   6  -9 4981.86 369.380  16
  -3   6 -10 3744.37 260.496  11
  -3   6 -10 4703.70 320.241  16
  -3   6 -11 90.5242 50.5036  16
   3  -5 -12 2339.32 151.750  15
   3  -5 -11 184.523 63.3268  15
  -3   5  11 201.877 63.2684  34
  -3   5  10 13630.4 596.204  13
   3  -5 -10 14116.1 643.817  35
  -3   5  10 13371.2 607.557  34
   3  -5 -10 13966.8 524.017  17
   3  -5  -9 1695.64 192.935  17
  -3   5   9 1514.14 214.081  13
   3  -5  -9 1336.56 212.286  37
  -3   5   9 1661.87 217.713  34
   3  -5  -9 1823.74 249.991  35
  -3   5   8 537.603 140.198  13
  -3   5   8 435.600 126.956  34
   3  -5  -8 224.490 110.267  37
   3  -5  -8 338.655 128.799  35
  -3   5   7 102.430 73.0698  29
   3  -5  -7 74.0895 58.2719  26
  -3   5   7 44.5788 59.2641  25
  -3   5   7 68.7706 77.0862  13
   3  -5  -7 138.379 86.7067  37
  -3   5   7 62.8000 70.3964  34
  -3   5   6 15366.3 760.399  29
   3  -5  -6 15038.7 709.740  26
  -3   5   6 14371.6 749.482  25
  -3   5   6 16019.2 815.329  13
   3  -5  -6 15532.3 779.998  37
   3  -5  -6 16630.6 859.843  35
  -3   5   6 16452.9 785.771  34
   3  -5  -5 12723.0 645.185  31
  -3   5   5 12843.3 671.991  29
   3  -5  -5 12303.0 614.358  26
  -3   5   5 11742.8 641.929  25
  -3   5   5 12066.0 691.977  13
   3  -5  -5 11726.2 652.896  37
   3  -5  -5 13552.4 758.301  35
  -3   5   5 12593.0 668.505  34
  -3   5   5 11877.7 616.211   9
   3  -5  -5 11753.9 633.876  32
   3  -5  -4 7770.96 515.752  31
  -3   5   4 8009.23 508.612  29
  -3   5   4 7942.20 486.233  28
   3  -5  -4 8159.90 487.651  26
  -3   5   4 7326.30 470.334  25
  -3   5   4 7697.58 502.478  34
   3  -5  -4 7298.00 482.818  37
   3  -5  -4 8215.63 564.144  35
  -3   5   4 6998.44 477.884   9
  -3   5   3 4603.00 365.535  28
   3  -5  -3 4235.67 341.155  26
  -3   5   3 3655.43 306.963  25
   3  -5  -3 5093.65 419.951   7
  -3   5   3 4095.93 353.885   4
  -3   5   3 4541.16 368.546  34
   3  -5  -3 4102.24 335.479  37
   3  -5  -3 4015.04 372.800  31
  -3   5   3 4018.35 366.085   9
   3  -5  -2 6735.55 484.548  31
  -3   5   2 6641.64 443.071  29
  -3   5   2 7324.99 467.652  28
   3  -5  -2 6699.07 432.835  26
   3  -5  -2 6338.00 397.406  24
   3  -5  -2 6774.97 475.751   7
  -3   5   2 6725.14 458.118   4
  -3   5   2 6894.57 479.335   3
  -3   5   2 6508.75 431.550  34
  -3   5   2 6294.31 456.571   9
  -3   5   1 1475.12 202.735  29
  -3   5   1 1619.53 217.918  28
   3  -5  -1 1707.04 198.531  24
   3  -5  -1 1195.44 194.577   7
  -3   5   1 1488.81 215.487   4
  -3   5   1 1527.15 228.118   3
  -3   5   1 1486.80 200.798  34
  -3   5   1 1418.29 217.460   9
   3  -5   0 360.299 121.062  31
  -3   5   0 333.870 113.923   3
  -3   5   0 411.827 119.108   9
  -3   5   0 385.496 104.855  29
  -3   5   0 512.819 135.677  28
   3  -5   0 424.517 108.330  26
   3  -5   0 457.876 104.590  24
  -3   5   0 397.994 101.596  10
   3  -5   0 318.336 103.766   7
  -3   5   0 285.942 90.8807  34
   3  -5   1 22257.2 967.320  31
  -3   5  -1 24886.6 882.082  29
  -3   5  -1 22916.9 889.020  10
   3  -5   1 24285.2 900.723  26
   3  -5   1 23430.9 841.712  24
  -3   5  -1 23878.8 989.214   3
  -3   5  -1 24527.9 888.669  34
   3  -5   2 58582.9 1825.32  31
  -3   5  -2 62085.7 1665.49  29
  -3   5  -2 62229.6 1803.88  28
   3  -5   2 61814.2 1745.95  26
   3  -5   2 62309.3 1685.93  24
  -3   5  -2 58843.9 1675.26  34
  -3   5  -2 61126.8 1764.32  10
  -3   5  -2 60548.4 1816.70   9
   3  -5   3 17393.3 809.462  31
  -3   5  -3 16908.8 655.810  29
  -3   5  -3 16089.8 761.278  28
   3  -5   3 18717.3 785.042  26
   3  -5   3 17648.5 711.956  24
  -3   5  -3 16955.3 710.590  34
  -3   5  -3 17639.9 788.223  10
  -3   5  -3 17377.6 831.221   3
  -3   5  -3 16949.4 794.166   9
  -3   5  -3 15664.9 670.422  16
  -3   5  -4 28646.8 1161.79   3
   3  -5   4 28732.4 1115.66  31
  -3   5  -4 30569.4 1113.38  28
  -3   5  -4 30317.1 1051.14  16
   3  -5   4 31591.9 1128.24  26
   3  -5   4 31923.0 1050.91  24
  -3   5  -4 31095.2 1160.11  11
  -3   5  -4 31745.7 1161.07  10
  -3   5  -4 30556.4 1039.04  34
  -3   5  -4 28924.4 1120.94   9
   3  -5   5 29869.1 1122.93  31
  -3   5  -5 30625.5 1110.73  28
   3  -5   5 32272.3 1082.12  24
  -3   5  -5 31285.6 1142.57   9
   3  -5   5 29955.4 1130.30  32
  -3   5  -5 32678.6 1135.84  16
   3  -5   6 166589. 3844.11  26
  -3   5  -6 158351. 3881.11  11
  -3   5  -6 158941. 3886.14  10
  -3   5  -6 154819. 3786.46  16
  -3   5  -7 3305.94 342.144  16
   3  -5   7 3731.16 352.996  26
  -3   5  -7 3341.12 355.830  11
  -3   5  -7 3754.21 372.530  10
  -3   5  -7 3419.58 295.856   6
  -3   5  -8 5938.26 455.403  16
  -3   5  -8 6773.28 489.088  12
  -3   5  -8 6696.81 475.548  11
  -3   5  -8 6724.11 482.333  10
  -3   5  -8 5546.84 390.804   6
  -3   5  -9 12993.0 668.981  12
  -3   5  -9 12980.4 645.990  11
  -3   5  -9 12939.8 646.615  10
  -3   5  -9 12609.4 662.547  16
  -3   5 -10 68.9875 79.4301  16
  -3   5 -10 150.979 82.2465  12
  -3   5 -11 372.302 101.626  16
  -3   5 -11 592.494 123.005  12
   3  -4 -12 6515.13 339.427  15
   3  -4 -11 23647.3 768.423  17
   3  -4 -11 21767.5 830.117  35
  -3   4  10 7457.86 445.977  13
   3  -4 -10 7836.88 511.693  35
   3  -4 -10 8835.49 468.617  17
  -3   4   9 4558.51 386.749  13
   3  -4  -9 4223.07 319.232  20
   3  -4  -9 4197.29 398.381  35
   3  -4  -9 4611.84 361.090  17
   3  -4  -8 21311.8 914.813  27
  -3   4   8 20891.8 975.084  25
  -3   4   8 23791.1 995.397  13
   3  -4  -8 24094.1 858.543  20
   3  -4  -8 22069.6 1000.39  37
  -3   4   7 2449.10 280.367  29
   3  -4  -7 2415.61 261.198  26
  -3   4   7 2576.31 311.681  25
  -3   4   7 2851.80 324.180  13
  -3   4   7 3096.89 342.161  23
   3  -4  -7 3099.04 271.331  20
   3  -4  -7 3580.02 365.511  37
  -3   4   7 3042.04 335.231  34
  -3   4   6 1115.74 187.364  29
   3  -4  -6 1202.62 220.208  35
   3  -4  -6 1245.39 182.277  26
  -3   4   6 1140.21 199.995  25
  -3   4   6 1253.77 219.175  23
   3  -4  -6 1223.28 214.543  37
  -3   4   6 1382.87 221.811  34
   3  -4  -5 3643.16 318.136  31
  -3   4   5 3855.93 338.038  29
  -3   4   5 3932.16 310.229  28
   3  -4  -5 4020.66 384.200  35
   3  -4  -5 3878.75 311.218  26
  -3   4   5 3542.49 335.222  25
  -3   4   5 3242.09 348.274  23
   3  -4  -5 3723.31 346.586  37
  -3   4   5 4307.00 371.941  34
   3  -4  -5 3493.55 317.558  32
   3  -4  -4 10538.2 572.757  31
  -3   4   4 10620.0 566.758  29
  -3   4   4 10366.1 534.892  28
   3  -4  -4 11455.3 597.795  32
   3  -4  -4 11240.6 542.171  26
  -3   4   4 10304.2 556.652  25
  -3   4   4 9656.64 533.640   9
  -3   4   4 10930.1 631.775  23
   3  -4  -4 10409.2 562.312  37
   3  -4  -4 10928.0 623.828  35
  -3   4   4 11165.1 601.638  34
   3  -4  -3 1201.84 188.443  31
  -3   4   3 1425.22 194.141  28
   3  -4  -3 1636.43 190.684  26
  -3   4   3 1469.19 188.703  25
   3  -4  -3 1213.81 172.201  24
  -3   4   3 1457.85 199.044   9
   3  -4  -3 1544.56 195.397  37
  -3   4   3 1527.51 205.535   3
   3  -4  -3 1758.08 230.118  35
  -3   4   3 1385.84 197.746  34
   3  -4  -2 24730.1 979.363  31
  -3   4   2 27205.2 960.078  28
   3  -4  -2 27466.1 913.007  26
  -3   4   2 25353.4 854.941  25
   3  -4  -2 26915.1 902.659  24
  -3   4   2 26412.6 1013.91  23
   3  -4  -2 25102.4 865.681  37
  -3   4   2 27249.7 976.312   3
  -3   4   2 26675.1 973.156   9
  -3   4   2 27862.3 978.281  34
  -3   4   1 4787.00 350.385  28
   3  -4  -1 4931.54 328.853  26
  -3   4   1 4430.51 266.768  25
   3  -4  -1 4837.34 322.220  24
  -3   4   1 4930.22 378.973  23
  -3   4   1 4609.92 359.105   9
  -3   4   1 4979.03 369.674   3
  -3   4   1 4908.47 351.399  34
   3  -4   0 20196.4 833.506  31
  -3   4   0 20484.9 803.176  28
   3  -4   0 20499.1 747.296  24
  -3   4   0 19765.3 812.701  23
  -3   4   0 19019.5 803.427   3
  -3   4   0 20773.0 791.344  34
  -3   4   0 19937.2 816.467   9
   3  -4   1 73892.9 2073.50  31
   3  -4   1 80799.5 1985.35  24
  -3   4  -1 76170.3 2023.14  23
  -3   4  -1 77672.8 2005.40  34
  -3   4  -1 73803.2 2075.79   3
  -3   4  -1 74879.9 2060.49   9
   3  -4   2 5986.45 413.558  31
  -3   4  -2 5739.44 403.342   9
  -3   4  -2 6229.14 406.009  28
   3  -4   2 6053.14 384.793  26
   3  -4   2 6075.03 372.207  24
  -3   4  -2 5812.09 398.400  12
  -3   4  -2 5777.06 376.359  34
  -3   4  -2 5590.18 412.738   3
  -3   4  -3 16643.1 674.107  16
   3  -4   3 16587.2 736.757  31
  -3   4  -3 17680.9 738.061  28
  -3   4  -3 16627.4 736.303   9
   3  -4   3 17224.4 726.106  26
   3  -4   3 16810.6 687.067  24
  -3   4  -3 15737.5 714.808  12
  -3   4  -3 17910.0 722.903  34
  -3   4  -4 102762. 2563.25  16
   3  -4   4 99537.9 2595.30  31
  -3   4  -4 103087. 2714.44   3
  -3   4  -4 103361. 2593.28  28
   3  -4   4 104416. 2621.98  26
   3  -4   4 101214. 2552.69  24
  -3   4  -4 101465. 2621.63  12
  -3   4  -4 104266. 2582.28  34
  -3   4  -4 102716. 2612.17   9
   3  -4   4 101364. 2628.20  32
  -3   4  -4 99989.7 2410.99   6
  -3   4  -5 108024. 2720.69  16
  -3   4  -5 103296. 2746.38  15
   3  -4   5 107845. 2679.59  31
  -3   4  -5 106679. 2664.06  28
   3  -4   5 108254. 2695.62  32
   3  -4   5 106531. 2685.34  24
  -3   4  -5 105439. 2748.14  12
  -3   4  -5 102447. 2562.68   6
  -3   4  -5 107749. 2704.54  34
  -3   4  -5 108640. 2689.86   9
  -3   4  -6 9416.59 588.318  15
   3  -4   6 9309.73 536.207  24
  -3   4  -6 9347.75 571.812  12
  -3   4  -6 9951.87 604.008  11
  -3   4  -6 9838.63 514.069   6
  -3   4  -6 9030.35 552.861  16
  -3   4  -7 66572.9 2023.75  15
   3  -4   7 66090.8 1941.47  24
  -3   4  -7 68238.1 2035.70  12
  -3   4  -7 71617.7 2050.28  11
  -3   4  -7 66946.6 1901.52   6
  -3   4  -7 73960.7 2079.65  10
  -3   4  -7 72186.1 2045.63  16
  -3   4  -8 12381.9 704.834  15
   3  -4   8 10872.2 614.113  24
  -3   4  -8 12016.1 680.042  12
  -3   4  -8 12195.5 659.083  11
  -3   4  -8 12480.8 676.159  10
  -3   4  -8 12143.3 623.813   6
  -3   4  -8 12464.2 685.659  16
  -3   4  -9 669.984 163.399  16
  -3   4  -9 1022.23 181.069   6
  -3   4  -9 1187.82 278.220  15
  -3   4  -9 866.892 167.188  11
  -3   4  -9 809.221 166.057  10
  -3   4 -10 3832.13 311.730  10
  -3   4 -10 4366.21 347.146   6
  -3   4 -11 15231.6 663.333  16
  -3   4 -11 13661.7 603.112   6
  -3   4 -12 8890.22 419.332  16
  -3   3  12 1318.61 165.430  34
   3  -3 -12 1478.47 156.782  17
   3  -3 -11 3843.34 330.490  35
  -3   3  11 3539.24 320.768  34
   3  -3 -11 4439.90 324.645  17
   3  -3 -10 40896.4 1279.73  20
   3  -3 -10 41351.5 1421.95  35
  -3   3  10 39332.1 1388.72  34
   3  -3 -10 42749.4 1349.22  17
   3  -3  -9 13369.8 744.841  35
  -3   3   9 12382.0 643.961  13
   3  -3  -9 13051.3 625.959  20
   3  -3  -9 12433.5 657.875  17
  -3   3   9 11315.0 681.267  34
  -3   3   8 552.614 155.667  25
  -3   3   8 683.605 156.252  13
  -3   3   8 771.138 170.982  23
   3  -3  -8 709.073 145.269  20
   3  -3  -8 638.673 163.069  37
  -3   3   8 471.600 146.761  34
  -3   3   7 2372.77 257.721  29
   3  -3  -7 1794.36 207.759  26
  -3   3   7 2502.84 306.295  25
  -3   3   7 2245.46 287.534  23
   3  -3  -7 2570.90 254.436  20
   3  -3  -7 1791.20 259.952  37
  -3   3   7 1904.39 265.780  34
  -3   3   6 48159.5 1444.45  29
   3  -3  -6 44734.7 1334.30  26
  -3   3   6 46729.4 1523.60  25
  -3   3   6 45181.0 1539.52  23
   3  -3  -6 48680.3 1375.87  20
   3  -3  -6 46547.5 1523.19  37
   3  -3  -6 47613.3 1589.14  35
  -3   3   6 46843.9 1526.81  34
   3  -3  -5 179.284 73.2514  31
  -3   3   5 26.7606 35.6223  28
   3  -3  -5 168.030 82.8305  35
   3  -3  -5 153.643 64.6023  26
  -3   3   5 128.337 72.3082  25
  -3   3   5 145.017 77.8996  23
   3  -3  -5 93.2299 70.1185  37
   3  -3  -5 167.728 76.9247  32
   3  -3  -4 35224.2 1157.58  32
   3  -3  -4 36566.5 1154.72  31
  -3   3   4 35198.2 1096.75  28
   3  -3  -4 36707.4 1228.97  35
   3  -3  -4 35258.9 1065.05  26
  -3   3   4 34385.2 1138.43  25
   3  -3  -4 33641.6 1106.27  24
  -3   3   4 35797.4 1228.28  23
   3  -3  -4 34013.2 1138.40  37
   3  -3  -3 12906.1 604.575  31
  -3   3   3 14418.2 596.316  28
   3  -3  -3 13151.6 540.612  26
  -3   3   3 13052.6 567.416  25
   3  -3  -3 14344.7 587.644  24
  -3   3   3 12028.7 551.224   3
   3  -3  -3 12268.5 559.558  37
   3  -3  -3 12531.6 613.407  35
   3  -3  -3 12847.6 609.775  32
   3  -3  -2 22429.2 847.222  31
  -3   3   2 23418.8 818.331  28
   3  -3  -2 22715.7 759.466  26
  -3   3   2 23409.7 765.841  25
   3  -3  -2 22498.7 784.871  24
  -3   3   2 22287.2 805.437   3
  -3   3   2 22900.0 873.596  23
   3  -3  -2 21249.1 752.293  37
   3  -3  -2 23228.1 838.219  35
   3  -3  -2 23216.7 862.996  32
  -3   3   2 22807.4 839.058  34
  -3   3   1 13.5850 36.1095  28
   3  -3  -1 10.9746 29.1714  26
   3  -3  -1-12.1760 32.3646  24
  -3   3   1-15.3259 40.7369  23
   3  -3  -1 24.9357 29.6420  35
  -3   3   1 14.1925 41.3249  34
   3  -3   0 2686.23 252.765  31
  -3   3   0 2709.76 240.612  28
   3  -3   0 2868.78 226.908  26
  -3   3   0 2238.45 227.176   3
   3  -3   0 2499.21 223.862  24
  -3   3   0 2286.03 233.356  23
  -3   3   0 2978.47 253.709  34
   3  -3   1 57763.6 1595.47  31
   3  -3   1 57321.2 1512.49  26
   3  -3   1 57837.9 1535.45  24
  -3   3  -1 56274.3 1543.26  23
   3  -3   1 56073.8 1435.63  19
  -3   3  -1 55910.5 1544.91  34
  -3   3  -1 53711.6 1565.09   3
  -3   3  -2 5620.72 379.465   3
   3  -3   2 5151.77 353.993  31
  -3   3  -2 5463.19 353.381  28
   3  -3   2 5359.02 338.388  24
  -3   3  -2 5599.74 333.205  23
   3  -3   2 5551.58 304.509  19
  -3   3  -2 5712.41 359.763  34
   3  -3   2 5680.88 375.931  32
   3  -3   3 41437.3 1254.87  32
   3  -3   3 39138.0 1229.37  31
  -3   3  -3 41488.2 1290.65   3
  -3   3  -3 42737.8 1239.28  28
   3  -3   3 39573.1 1200.58  24
   3  -3   3 39473.8 1117.35  19
  -3   3  -3 39271.8 1224.99  34
  -3   3  -3 37864.7 1090.90   6
  -3   3  -4 12719.0 591.961  16
   3  -3   4 11427.6 502.161  19
  -3   3  -4 12294.3 594.641  15
   3  -3   4 11367.2 551.822  31
  -3   3  -4 12366.7 591.297  14
  -3   3  -4 13545.4 593.310  28
   3  -3   4 12165.6 574.395  24
  -3   3  -4 11479.1 570.193  12
  -3   3  -4 11522.1 512.492   6
  -3   3  -4 12126.1 583.891  34
   3  -3   4 12735.6 582.141  32
  -3   3  -5 13909.3 655.322  16
  -3   3  -5 13035.0 637.399  15
   3  -3   5 13303.2 591.015  31
  -3   3  -5 12920.2 638.586  14
  -3   3  -5 13589.1 596.689  28
   3  -3   5 12925.3 624.686  24
  -3   3  -5 13644.4 650.821  12
   3  -3   5 13306.5 598.237  32
   3  -3   5 12983.9 565.288  19
  -3   3  -5 13733.0 605.023   6
  -3   3  -5 13822.9 648.404  34
  -3   3  -6 17734.0 796.021  15
   3  -3   6 16980.2 768.221  24
  -3   3  -6 18539.4 812.081  16
  -3   3  -6 18633.2 813.722  12
   3  -3   6 17356.7 697.516  19
  -3   3  -6 17764.4 753.365   6
  -3   3  -7 2618.27 302.454  16
  -3   3  -7 2164.19 279.364  15
   3  -3   7 2972.63 310.977  24
  -3   3  -7 2518.73 294.430  12
  -3   3  -7 2860.88 307.274  11
  -3   3  -7 2414.75 274.396   6
  -3   3  -8 103196. 2774.13  15
  -3   3  -8 106093. 2808.40  14
   3  -3   8 98810.6 2742.11  24
  -3   3  -8 106523. 2816.09  12
  -3   3  -8 106174. 2720.93  11
  -3   3  -8 108658. 2760.66   6
  -3   3  -9 28886.3 1126.38  15
  -3   3  -9 30072.1 1150.18  14
  -3   3  -9 29600.6 1160.25  12
  -3   3  -9 28584.7 1020.40  11
  -3   3  -9 29925.7 1090.80  10
  -3   3  -9 29497.0 1107.88   6
  -3   3 -10 3071.91 338.673  15
  -3   3 -10 2210.84 274.220  14
  -3   3 -10 2686.53 305.914  12
  -3   3 -10 2363.01 242.788  10
  -3   3 -10 2602.97 293.416  16
  -3   3 -10 2420.85 277.451   6
  -3   3 -11 4009.15 347.967  15
  -3   3 -11 3632.90 330.091  12
  -3   3 -11 3950.64 325.621   6
  -3   3 -11 3369.86 306.162  16
  -3   3 -12 5031.60 338.417  12
  -3   3 -12 4808.91 317.025   6
  -3   3 -12 4944.60 316.822  16
  -3   3 -13 7920.81 343.099  12
   3  -2 -13 15177.5 516.624  17
   3  -2 -13 16201.2 561.418  15
   3  -2 -12 16327.3 662.505  15
   3  -2 -12 15563.4 628.950  17
   3  -2 -11 52376.1 1571.91  15
   3  -2 -11 50638.8 1486.60  20
   3  -2 -11 51518.5 1539.01  17
   3  -2 -11 50892.9 1569.06  35
  -3   2  11 49440.6 1542.16  34
   3  -2 -10 14472.4 679.676  20
   3  -2 -10 13508.9 731.312  35
  -3   2  10 13441.5 707.345  34
   3  -2 -10 14148.6 706.495  17
  -3   2   9 286.759 120.216  25
   3  -2  -9 296.534 131.547  35
  -3   2   9 265.792 114.973  34
   3  -2  -9 256.035 107.826  17
  -3   2   8 1016.19 175.196  13
  -3   2   8 710.379 163.605  23
   3  -2  -8 1114.32 181.708  20
  -3   2   8 698.344 171.003  34
  -3   2   7 15307.3 667.981  29
  -3   2   7 16462.4 799.820  25
  -3   2   7 14835.1 762.241  23
   3  -2  -7 15378.4 683.967  20
   3  -2  -7 15261.2 790.975  35
  -3   2   7 16273.2 773.398  34
  -3   2   6 18617.7 822.427  25
  -3   2   6 19443.7 850.016  23
   3  -2  -6 19468.0 867.882  35
  -3   2   6 18662.4 826.483  34
   3  -2  -5 2549.58 239.013  32
   3  -2  -5 2281.81 223.312  31
  -3   2   5 2633.76 225.112  28
   3  -2  -5 2455.81 195.933  26
  -3   2   5 2432.28 255.330  25
  -3   2   5 2376.55 267.602  23
   3  -2  -5 2510.38 274.288  35
  -3   2   5 1976.97 236.654  34
   3  -2  -5 2011.21 237.033  37
   3  -2  -4 2304.44 222.316  31
  -3   2   4 2160.03 207.231  28
   3  -2  -4 2174.08 184.470  26
  -3   2   4 2122.00 220.845  25
   3  -2  -4 2455.21 225.370  24
  -3   2   4 2688.35 269.201  23
   3  -2  -4 1822.40 208.634  37
   3  -2  -4 2395.78 249.170  35
  -3   2   4 2307.31 239.745  34
   3  -2  -4 1756.83 206.079  32
   3  -2  -3 30043.3 978.584  31
  -3   2   3 30273.9 978.073   8
   3  -2  -3 29714.7 871.728  26
  -3   2   3 29883.3 952.923  25
  -3   2   3 29954.6 1032.87  23
   3  -2  -3 29731.8 993.462  35
  -3   2   3 29590.1 992.540  34
   3  -2  -3 31154.0 1000.14  32
   3  -2  -2 78181.3 1980.46  32
  -3   2   2 75625.9 1957.23   8
   3  -2  -2 73648.7 1813.39  26
   3  -2  -2 78495.2 1933.82  35
  -3   2   2 77253.1 1965.65  34
   3  -2  -2 76563.7 1960.91  31
  -3   2   2 75662.4 1883.21   3
  -3   2   1 114.657 57.8686   3
   3  -2  -1 72.5638 43.1883  26
  -3   2   1 119.497 63.1721   8
  -3   2   1 81.3340 55.8653  23
   3  -2  -1 269.008 71.7494  35
  -3   2   1 113.416 56.0947  34
  -3   2   0 11801.0 512.848   3
   3  -2   0 11270.2 514.480  31
  -3   2   0 10660.2 513.969   8
   3  -2   0 11889.1 467.318  26
  -3   2   0 11115.7 506.823  23
   3  -2   0 11145.0 464.372  19
  -3   2   0 11162.7 502.640  34
   3  -2   0 10642.2 510.495  32
  -3   2  -1 1195.69 161.745   3
   3  -2   1 610.418 114.778  31
   3  -2   1 795.362 132.982  32
   3  -2   1 790.506 124.545  24
  -3   2  -1 1209.85 147.274  23
   3  -2   1 877.574 120.729  19
   3  -2   2 266228. 5821.41  31
  -3   2  -2 274525. 5865.92   8
   3  -2   2 276654. 5801.52  24
  -3   2  -2 270007. 5726.82  23
  -3   2  -2 257051. 5692.43   6
   3  -2   2 269604. 5754.42  19
   3  -2   2 266853. 5832.08  32
  -3   2  -3 14838.0 577.365   6
   3  -2   3 14585.4 599.366  31
   3  -2   3 15278.4 622.571  24
  -3   2  -3 13971.1 506.847  23
   3  -2   3 14753.5 580.722  19
   3  -2   3 14163.3 599.512  32
   3  -2   4 35423.0 1093.22  31
  -3   2  -4 38883.0 1139.82  28
   3  -2   4 35009.6 1144.38  24
  -3   2  -4 38941.6 1140.79   6
   3  -2   4 36172.4 1128.63  19
   3  -2   4 35968.7 1106.02  32
  -3   2  -5 20066.3 780.426  15
   3  -2   5 19706.1 720.000  31
  -3   2  -5 19617.9 801.595  14
  -3   2  -5 20838.6 746.942  28
   3  -2   5 20845.5 822.573  24
  -3   2  -5 19722.3 784.636  12
   3  -2   5 20068.8 770.771  19
  -3   2  -5 20816.6 800.081   6
  -3   2  -5 19804.9 807.035  34
  -3   2  -6 38106.3 1245.92  16
  -3   2  -6 34159.8 1151.54  15
  -3   2  -6 33536.4 1179.85  14
   3  -2   6 34308.1 1204.13  24
  -3   2  -6 33693.5 1168.28  12
   3  -2   6 33083.7 1135.14  19
  -3   2  -6 36983.6 1205.70   6
  -3   2  -7 44733.9 1429.96  15
  -3   2  -7 45824.6 1498.60  14
   3  -2   7 47013.1 1518.99  24
  -3   2  -7 48257.8 1503.88  12
   3  -2   7 43559.7 1412.72  19
  -3   2  -7 45327.6 1471.08   6
  -3   2  -8 1001.99 192.959  16
  -3   2  -8 684.021 166.985  15
  -3   2  -8 917.123 187.092  14
   3  -2   8 805.867 173.487  24
  -3   2  -8 1084.01 200.522  12
   3  -2   8 1156.97 188.576  19
  -3   2  -8 814.563 152.143  11
  -3   2  -8 1471.18 226.065   6
  -3   2  -9 606.553 156.933  16
  -3   2  -9 628.153 156.917   6
  -3   2  -9 333.827 134.442  15
   3  -2   9 504.372 139.298  24
  -3   2  -9 425.757 136.167  12
  -3   2 -10 41610.2 1375.12  15
  -3   2 -10 44981.1 1487.82  12
  -3   2 -10 45327.7 1451.32  16
  -3   2 -11 20241.8 789.846  15
  -3   2 -11 21934.9 887.844  14
  -3   2 -11 21645.7 884.736  12
  -3   2 -11 21112.9 831.856  16
  -3   2 -12 12273.1 567.581  12
  -3   2 -12 11763.2 502.483  16
  -3   2 -13 462.229 85.0365  12
   3  -1 -13 6170.40 317.487  15
   3  -1 -13 6119.18 322.848  17
   3  -1 -12 14326.0 623.067  15
   3  -1 -12 15538.9 622.859  20
   3  -1 -12 14673.9 634.932  17
  -3   1  11 770.160 151.774  34
   3  -1 -11 780.401 157.920  15
   3  -1 -11 921.871 161.476  20
   3  -1 -11 829.347 160.854  17
   3  -1 -10 26686.2 1005.67   5
   3  -1 -10 30276.0 1114.65  15
   3  -1 -10 29969.9 1081.19  20
   3  -1 -10 29598.6 1153.55  35
  -3   1  10 26550.6 1067.19  34
   3  -1 -10 30732.1 1131.86  17
  -3   1   9 77.8267 69.0226  25
   3  -1  -9 311.740 101.388  21
   3  -1  -9 267.850 101.752  20
   3  -1  -9 72.9090 70.8293  35
  -3   1   9 104.869 89.9434  34
   3  -1  -9 326.693 121.469  17
  -3   1   8 14735.8 785.809  25
  -3   1   8 13241.6 712.310  23
   3  -1  -8 14920.8 658.532  21
   3  -1  -8 14718.8 696.134  20
  -3   1   8 13659.1 715.976  34
   3  -1  -8 15339.9 744.778  17
  -3   1   7 8885.66 556.206  23
   3  -1  -7 10018.3 603.522  35
  -3   1   7 8573.03 534.739  34
   3  -1  -6 4743.36 387.542  35
  -3   1   6 4807.60 386.850  23
  -3   1   6 4338.87 354.821  34
   3  -1  -6 4357.53 286.937   1
   3  -1  -5 5320.89 326.492  31
  -3   1   5 5052.47 324.304   8
  -3   1   5 5769.17 406.162  23
   3  -1  -5 4582.85 311.857  32
   3  -1  -5 5471.69 391.897  35
  -3   1   5 5113.07 360.104  34
   3  -1  -4 205064. 4488.66  31
  -3   1   4 210335. 4512.84   8
   3  -1  -4 189287. 4255.58  26
   3  -1  -4 211404. 4481.41  24
  -3   1   4 216033. 4628.91  23
   3  -1  -4 198748. 4565.03  35
  -3   1   4 204446. 4544.38  34
   3  -1  -4 199860. 4483.20  32
   3  -1  -3 190.308 70.8346  32
   3  -1  -3 149.668 59.4199  31
   3  -1  -3 182.860 46.7267  26
  -3   1   3 192.970 64.9857   8
   3  -1  -3 187.629 61.6488  24
   3  -1  -3 312.569 84.8752  35
  -3   1   3 241.153 86.0024  23
  -3   1   3 126.515 60.2698  34
   3  -1  -2 1551.42 174.220  31
  -3   1   2 1489.71 171.622   8
   3  -1  -2 1227.12 115.905  26
   3  -1  -2 1314.90 148.508  24
   3  -1  -2 1512.12 163.655  35
  -3   1   2 1313.25 159.728  34
   3  -1  -2 1712.41 184.960  32
  -3   1   1 1118.86 154.526   8
   3  -1  -1 1147.35 117.985  26
   3  -1  -1 1224.27 142.519  24
  -3   1   1 1098.59 152.210  23
   3  -1  -1 1213.21 143.326  19
  -3   1   1 964.546 132.710  34
   3  -1   0 139663. 3202.05  31
  -3   1   0 141793. 3235.05   8
   3  -1   0 147612. 3157.41  24
  -3   1   0 137800. 3202.17  23
   3  -1   0 134835. 3163.53  19
  -3   1   0 137902. 3168.19  34
   3  -1   0 134228. 3195.50  32
   3  -1   1 60504.4 1583.61  31
  -3   1  -1 58622.5 1600.19   8
   3  -1   1 59435.2 1548.68  24
  -3   1  -1 59466.1 1545.55  23
   3  -1   1 59182.5 1544.94  19
  -3   1  -1 60273.8 1564.91  34
   3  -1   1 59866.9 1587.05  32
   3  -1   2 170.578 66.4275  32
   3  -1   2 179.328 69.6740  31
  -3   1  -2 80.9733 50.8045   8
   3  -1   2 188.329 64.1767  24
  -3   1  -2 208.608 62.5434  23
   3  -1   2 106.650 58.1438  19
  -3   1  -2 97.3704 52.2378  34
   3  -1   3 267.576 79.1934  32
   3  -1   3 131.624 60.3546  31
  -3   1  -3 303.646 86.8205   8
  -3   1  -3 57.8974 34.0742  23
   3  -1   3-13.0422 31.0240  19
  -3   1  -3 13.1471 38.2944  34
   3  -1   4 28615.0 906.919  31
  -3   1  -4 27564.0 958.796  30
  -3   1  -4 29969.1 968.480   8
  -3   1  -4 28780.6 973.594   6
   3  -1   4 26749.3 950.509  19
  -3   1  -4 28170.6 965.495  34
   3  -1   4 27583.8 898.093  32
   3  -1   5 79.6166 48.8051  31
  -3   1  -5 65.5571 61.6527  30
  -3   1  -5 271.278 89.0021  14
  -3   1  -5 119.946 63.4132   8
  -3   1  -5 189.940 71.6481  12
   3  -1   5 80.8443 60.8249  19
  -3   1  -5 97.1495 57.7895  34
  -3   1  -5 272.938 105.391   6
  -3   1  -6 5233.06 389.042  30
  -3   1  -6 5127.49 392.108  14
   3  -1   6 5194.66 401.365  24
  -3   1  -6 5254.84 380.783  12
  -3   1  -6 5361.59 406.345   6
   3  -1   6 5396.19 393.335  19
  -3   1  -7 41218.4 1359.86  16
  -3   1  -7 40513.5 1326.97  30
  -3   1  -7 39102.5 1343.75  14
   3  -1   7 38670.7 1369.13  24
  -3   1  -7 38209.9 1301.43  12
   3  -1   7 37784.0 1319.78  19
  -3   1  -7 40402.8 1373.26   6
  -3   1  -8 50641.2 1585.50  16
  -3   1  -8 48444.3 1598.50  14
   3  -1   8 47984.0 1608.17  24
  -3   1  -8 48905.4 1564.03  12
   3  -1   8 46246.2 1543.52  19
  -3   1  -9 6638.93 470.079  16
  -3   1  -9 5626.11 460.780  14
   3  -1   9 6404.72 501.926  24
  -3   1  -9 6410.19 478.082  12
   3  -1   9 5213.44 436.167  19
  -3   1 -10 2935.96 326.530  14
  -3   1 -10 2644.20 297.164  12
  -3   1 -10 2961.97 318.120   6
  -3   1 -10 2734.28 289.323  16
  -3   1 -11 288.562 98.4353   6
  -3   1 -11 365.198 105.803  16
  -3   1 -11 271.034 107.568  12
  -3   1 -12 625.090 119.369   6
  -3   1 -12 635.039 124.535  12
  -3   1 -13 40583.8 1072.57  12
   3   0 -13 10680.4 460.618  17
   3   0 -12 8685.61 445.683  15
   3   0 -12 9306.22 467.708  20
   3   0 -12 9564.38 504.087  17
   3   0 -11 49.3541 58.6691  15
   3   0 -11 19.0889 60.0367  17
   3   0 -10 12398.6 634.850  15
   3   0 -10 12810.3 617.781   5
   3   0 -10 12530.8 615.404  21
  -3   0  10 11657.6 605.512  34
   3   0  -9 80171.1 2222.39   5
   3   0  -9 80008.3 2208.84  15
  -3   0   9 84066.5 2408.91  25
   3   0  -9 83041.1 2190.24  21
   3   0  -9 84159.4 2369.03  35
  -3   0   9 78436.2 2195.67  34
   3   0  -8 39460.0 1357.67   5
  -3   0   8 40987.9 1457.37  25
  -3   0   8 41199.2 1399.45  23
   3   0  -8 41635.5 1306.72  21
   3   0  -8 40900.9 1383.24  17
  -3   0   8 40554.4 1334.06  34
  -3   0   7 14334.1 732.264  25
  -3   0   7 12605.8 683.654  23
   3   0  -7 13662.3 620.812  21
   3   0  -7 14139.6 684.768  17
   3   0  -7 13666.9 717.666  35
  -3   0   7 12303.1 627.240  34
  -3   0   6 452.373 132.617  23
   3   0  -6 593.417 120.945  21
   3   0  -6 506.730 127.269  35
  -3   0   6 510.612 119.600  34
   3   0  -6 424.942 91.0858   1
   3   0  -5 3325.21 257.286  32
   3   0  -5 3615.04 267.025   1
  -3   0   5 3338.90 267.577   8
  -3   0   5 3567.90 319.077  23
   3   0  -5 3930.72 325.576  35
  -3   0   5 3237.82 272.698  34
   3   0  -4 1054.32 148.699  32
   3   0  -4 1282.50 163.675  31
  -3   0   4 1267.36 166.579   8
   3   0  -4 1231.84 146.087  24
  -3   0   4 1297.74 185.211  23
   3   0  -4 1296.66 176.167  35
  -3   0   4 1130.13 150.334  34
   3   0  -3 37667.5 1113.90  32
   3   0  -3 37582.0 1115.07  31
  -3   0   3 37240.6 1128.38   8
   3   0  -3 37031.8 1045.83  24
   3   0  -3 36163.3 1109.98  35
  -3   0   3 38222.3 1197.57  23
  -3   0   3 36156.8 1076.89  34
   3   0  -2 47470.6 1304.48  31
  -3   0   2 46619.5 1317.64   8
   3   0  -2 43596.6 1054.68  26
   3   0  -2 48521.0 1236.85  24
   3   0  -2 45308.5 1249.13  35
  -3   0   2 45727.9 1246.38  34
   3   0  -2 47328.1 1301.08  32
  -3   0   1 31408.4 1011.29   8
   3   0  -1 31651.4 827.246  26
   3   0  -1 33384.7 944.147  24
  -3   0   1 31647.3 1019.99  23
  -3   0   1 32372.8 948.377  34
   3   0   0 277.618 77.4378  32
   3   0   0 252.216 72.9786  31
  -3   0   0 255.322 83.1613   8
   3   0   0 208.668 62.7132  24
  -3   0   0 268.161 80.4856  23
  -3   0   0 302.216 72.4157  34
   3   0   1 45047.3 1295.80  31
  -3   0  -1 47973.7 1316.47  30
  -3   0  -1 45349.9 1350.19   8
   3   0   1 47802.5 1278.32  24
  -3   0  -1 47793.7 1310.17  23
  -3   0  -1 46731.1 1275.53  34
   3   0   1 49360.1 1330.51  19
   3   0   1 45985.2 1302.97  32
   3   0   2 53253.6 1466.68  32
   3   0   2 55065.5 1484.14  31
  -3   0  -2 55782.4 1518.39  30
  -3   0  -2 53378.2 1519.72   8
   3   0   2 54807.2 1461.11  24
  -3   0  -2 55599.5 1456.08  23
   3   0   2 55113.9 1506.63  19
  -3   0  -2 54072.1 1456.36  34
   3   0   3 21642.1 752.115  32
   3   0   3 21514.4 754.435  31
  -3   0  -3 22030.5 812.311  30
  -3   0  -3 22449.6 812.474   8
   3   0   3 21732.7 782.564  24
  -3   0  -3 21182.4 699.339  23
   3   0   3 22286.7 822.047  19
  -3   0  -3 22143.1 779.252  34
   3   0   4 110603. 2584.69  32
  -3   0  -4 104586. 2649.13   8
   3   0   4 111261. 2677.37  24
   3   0   4 107926. 2716.78  19
  -3   0  -4 111208. 2671.13  34
   3   0   4 110287. 2584.84   1
  -3   0  -5 59075.1 1686.68  30
   3   0   5 56809.6 1478.24   1
  -3   0  -5 54366.6 1594.89  14
  -3   0  -5 55790.4 1560.43   8
   3   0   5 56296.9 1620.37  13
   3   0   5 58105.2 1661.61  24
  -3   0  -5 58588.0 1695.45   6
   3   0   5 54046.6 1653.46  19
  -3   0  -6 10052.1 572.944  30
  -3   0  -6 9878.68 554.353  14
   3   0   6 9599.49 523.778  13
   3   0   6 9750.41 569.041  24
  -3   0  -6 9075.39 503.757  12
   3   0   6 9104.80 555.956  19
  -3   0  -7 171.131 84.4601  30
  -3   0  -7 228.045 92.3215  14
   3   0   7 221.711 88.4873  13
   3   0   7 350.489 119.414  24
  -3   0  -7 253.590 96.4017  12
   3   0   7 218.370 103.932  19
  -3   0  -8 9063.20 544.621  16
  -3   0  -8 8282.15 553.683  30
  -3   0  -8 8299.12 559.868  14
   3   0   8 7302.55 550.230  24
  -3   0  -8 8777.61 538.271  12
   3   0   8 8415.96 570.312  19
  -3   0  -9 3532.84 332.086  16
  -3   0  -9 3857.01 377.695  14
   3   0   9 3287.22 368.843  24
  -3   0  -9 3706.23 351.095  12
   3   0   9 3899.42 381.026  19
  -3   0  -9 4319.54 399.272   6
  -3   0 -10 5584.12 446.942  14
   3   0  10 5718.94 386.507  33
  -3   0 -10 5920.93 428.475  12
  -3   0 -10 5341.58 428.341   6
  -3   0 -10 5790.77 390.371  16
  -3   0 -11 7663.40 488.977  14
  -3   0 -11 7032.84 441.711  12
  -3   0 -11 7939.13 477.900   6
  -3   0 -12 11024.3 520.017  14
  -3   0 -12 10185.5 470.505  12
  -3   0 -12 10539.2 491.492   6
  -3   0 -13 120.512 47.8114  14
   3   1 -13 7340.91 356.673  17
   3   1 -12 4021.60 281.819  20
   3   1 -11 21058.0 778.286  15
   3   1 -11 21675.0 821.582  21
   3   1 -11 22539.5 842.650  20
   3   1 -10 33617.0 1103.84  15
   3   1 -10 32380.6 1099.86   5
   3   1 -10 33728.1 1147.69  21
   3   1 -10 33584.6 1169.58  20
   3   1 -10 32942.2 1201.22  17
   3   1  -9 98.8501 70.6349  15
  -3  -1   9 126.111 84.8205  25
   3   1  -9 113.793 63.7922   5
   3   1  -9 92.0970 78.9656  21
   3   1  -9 19.1376 60.2166  20
   3   1  -9 191.131 94.4728  17
   3   1  -8 17469.8 733.523  15
   3   1  -8 18215.1 822.701   5
  -3  -1   8 20215.6 930.338  25
  -3  -1   8 17792.7 840.378  23
   3   1  -8 17983.1 786.807  21
   3   1  -8 18426.4 805.622  20
   3   1  -8 19302.3 844.070  17
   3   1  -7 6401.29 448.300   5
  -3  -1   7 6129.23 462.116  23
   3   1  -7 6161.23 416.472  21
   3   1  -7 5156.12 397.400  17
   3   1  -6 2564.32 272.704   5
   3   1  -6 2905.81 241.881   1
  -3  -1   6 2572.37 289.147  23
   3   1  -6 2810.12 269.980  22
   3   1  -6 2019.29 228.379  21
   3   1  -6 2660.53 265.487  17
   3   1  -5 7326.17 405.601  32
  -3  -1   5 7155.97 418.096   8
   3   1  -5 8044.16 420.214   1
  -3  -1   5 7384.83 492.466  23
   3   1  -5 6672.80 400.307  22
   3   1  -5 6506.10 396.238  21
   3   1  -5 7144.24 414.570  17
   3   1  -4 11364.4 525.497  32
   3   1  -4 10593.2 541.845   5
   3   1  -4 11846.2 532.713   1
  -3  -1   4 11459.5 547.667   8
  -3  -1   4 11335.6 599.886  23
   3   1  -3 2107.60 210.666  32
   3   1  -3 1911.93 207.567   5
   3   1  -3 1917.44 201.388   1
  -3  -1   3 1883.74 212.123   8
   3   1  -3 1795.24 154.278  24
  -3  -1   3 2010.34 237.304  23
   3   1  -2 65492.9 1752.35  32
   3   1  -2 69914.6 1773.03   1
   3   1  -2 61806.2 1727.81   5
  -3  -1   2 66409.7 1806.97   8
   3   1  -2 67023.3 1617.20  24
   3   1  -2 73226.2 1779.07  19
   3   1  -1 10814.4 479.706   5
  -3  -1   1 9781.15 516.799   8
   3   1  -1 10863.5 433.387  24
   3   1  -1 10842.4 500.981  19
  -3  -1   1 11122.9 449.793  34
   3   1  -1 10544.4 431.728  33
   3   1   0 5618.49 345.889  32
   3   1   0 5986.71 358.317   1
  -3  -1   0 5379.67 328.066  30
   3   1   0 5336.86 308.119   5
   3   1   0 5632.31 300.045  24
  -3  -1   0 5839.52 371.246  23
   3   1   0 5869.83 351.504  19
  -3  -1   0 4919.97 288.455  34
   3   1   1 21299.7 767.663  32
   3   1   1 23083.3 787.632   1
  -3  -1  -1 22950.5 800.780  30
   3   1   1 20260.4 681.991   5
  -3  -1  -1 21508.1 827.106   8
   3   1   1 21459.8 719.762  24
  -3  -1  -1 21667.2 797.590  23
   3   1   1 22866.7 799.680  19
  -3  -1  -1 21452.6 718.170  34
   3   1   2 6953.18 389.381  32
   3   1   2 7257.58 395.667   1
  -3  -1  -2 7281.40 421.828  30
  -3  -1  -2 7005.56 427.528   8
   3   1   2 7569.41 390.403  24
  -3  -1  -2 7051.54 403.439  23
   3   1   2 7574.88 425.089  19
  -3  -1  -2 6704.24 367.460  34
   3   1   3 20354.5 731.340  32
  -3  -1  -3 20773.7 806.962  30
   3   1   3 19558.7 724.278   1
  -3  -1  -3 20503.8 809.248   8
   3   1   3 19392.6 738.466  24
  -3  -1  -3 19151.1 714.439  23
   3   1   3 20642.4 804.940  19
  -3  -1  -3 20946.7 742.281  34
   3   1   4 2083.28 204.131  32
  -3  -1  -4 2062.34 244.947  30
   3   1   4 1864.17 192.174   1
  -3  -1  -4 2235.58 240.113   8
   3   1   4 2337.49 252.989  13
  -3  -1  -4 1911.25 177.162   7
   3   1   4 2332.15 237.129  24
  -3  -1  -5 55667.7 1640.16  14
  -3  -1  -5 60418.3 1655.99   8
   3   1   5 56740.3 1705.60  13
   3   1   5 60964.6 1545.16   1
   3   1   5 57237.8 1686.35  24
  -3  -1  -6 115349. 2966.03  30
  -3  -1  -6 112204. 2851.39  14
   3   1   6 108420. 2871.73  13
   3   1   6 111311. 2885.57  24
  -3  -1  -6 114974. 2968.55   6
  -3  -1  -7 30067.0 1165.43  30
  -3  -1  -7 29825.2 1113.58  14
   3   1   7 29267.5 1086.42  13
   3   1   7 26972.8 1087.88  24
  -3  -1  -7 26951.7 997.091  12
  -3  -1  -7 30797.2 1180.42   6
   3   1   7 27308.1 1119.32  19
  -3  -1  -7 27239.5 979.610  36
  -3  -1  -8 5840.61 416.245  16
  -3  -1  -8 6111.67 490.952  30
  -3  -1  -8 6442.40 475.923  14
   3   1   8 6389.12 446.371  13
   3   1   8 5850.79 470.805  24
  -3  -1  -8 5767.44 416.498  12
  -3  -1  -8 6982.61 512.545   6
   3   1   8 5493.46 468.660  19
  -3  -1  -8 5732.36 401.100  36
   3   1   8 6337.71 435.651  33
  -3  -1  -9 3171.50 284.889  16
  -3  -1  -9 2994.91 327.623  14
  -3  -1  -9 2732.21 284.342  12
  -3  -1  -9 2499.13 301.217   6
  -3  -1  -9 2923.95 275.789  36
   3   1   9 2973.58 288.239  33
  -3  -1 -10 292.467 106.502   6
  -3  -1 -10 279.496 114.083  14
  -3  -1 -10 627.870 131.433  12
   3   1  10 440.708 109.801  33
  -3  -1 -11 30.1807 47.4593   6
  -3  -1 -11-16.3629 47.6442  14
  -3  -1 -11 25.4330 45.3485  12
  -3  -1 -12 6288.25 353.514  14
  -3  -1 -12 5951.56 295.291  12
   3   2 -13 2009.54 153.520  17
   3   2 -12 26130.5 867.149  17
   3   2 -11 99.9454 65.7722  21
   3   2 -11 48.2737 57.4282  17
   3   2 -10 582.901 120.948   5
   3   2 -10 499.921 130.018  21
   3   2 -10 522.418 120.944  20
   3   2 -10 468.056 126.324  17
   3   2  -9 6880.04 454.443   5
   3   2  -9 6485.78 448.620  21
   3   2  -9 6431.94 434.093  20
   3   2  -9 6822.93 469.865  17
   3   2  -8 132814. 3259.77   5
   3   2  -8 130210. 3238.59  22
   3   2  -8 127472. 3224.10  21
   3   2  -8 129324. 3190.04  20
   3   2  -8 128558. 3229.23  17
   3   2  -7 33651.0 1204.97   5
  -3  -2   7 33333.5 1255.28  23
   3   2  -7 33712.4 1170.29  22
   3   2  -7 33586.6 1176.37  21
   3   2  -7 33437.1 1155.75  17
   3   2  -6 3358.14 276.454  32
   3   2  -6 4043.20 349.193   5
  -3  -2   6 3791.52 377.295  23
   3   2  -6 3921.34 328.763  22
   3   2  -6 3484.49 316.765  21
   3   2  -6 3571.83 286.686   1
   3   2  -6 3070.42 286.690  17
   3   2  -5 102.587 57.8260  32
   3   2  -5 119.708 59.0402   1
  -3  -2   5 186.505 85.5396   8
  -3  -2   5 381.773 122.353  23
   3   2  -5 181.351 74.1057  22
   3   2  -5 150.288 79.4332  21
   3   2  -5 55.7328 40.6383  17
   3   2  -4 7854.78 448.420  32
   3   2  -4 7844.03 468.880   5
  -3  -2   4 8015.26 480.698   8
   3   2  -4 7621.73 441.957   1
  -3  -2   4 8494.98 540.709  23
   3   2  -4 6953.18 428.126  21
   3   2  -3 2779.71 259.649  32
   3   2  -3 3146.35 279.545   5
  -3  -2   3 3004.01 287.385   8
   3   2  -3 3119.84 270.830   1
  -3  -2   3 2937.24 306.221  23
   3   2  -3 2613.57 248.598  21
   3   2  -2 3254.73 278.944  32
   3   2  -2 3219.93 270.891   5
  -3  -2   2 3148.35 290.710   8
   3   2  -2 3389.53 279.719   1
  -3  -2   1 788.799 126.299  30
  -3  -2   1 671.476 139.557   8
   3   2  -1 800.317 130.350   5
  -3  -2   1 786.690 152.914  23
   3   2  -1 571.745 117.040  19
   3   2  -1 741.817 116.160  33
   3   2   0 2725.89 250.228  32
  -3  -2   0 2831.54 246.178  30
   3   2   0 2881.30 240.052   5
   3   2   0 3336.62 272.003   1
   3   2   0 2915.29 194.206  24
  -3  -2   0 3314.59 304.525  23
   3   2   0 3433.85 272.977  19
   3   2   0 2765.89 236.932  33
   3   2   1 17520.9 713.406  32
  -3  -2  -1 19562.5 751.041  30
   3   2   1 18062.3 660.409   5
   3   2   1 19323.4 730.009   1
  -3  -2  -1 17785.7 775.794   8
   3   2   1 18158.9 751.861  13
   3   2   1 16884.3 597.032  24
   3   2   1 19526.2 743.116  19
   3   2   1 18886.4 711.865  33
   3   2   2 22114.7 807.445  32
  -3  -2  -2 22499.6 862.599  30
  -3  -2  -2 21836.5 875.891   8
   3   2   2 22198.0 806.338   1
   3   2   2 20197.1 712.425  24
  -3  -2  -2 22059.4 852.128  23
   3   2   2 22556.4 848.489  19
   3   2   2 21401.8 800.919  33
   3   2   3 61041.3 1637.87  32
  -3  -2  -3 59061.2 1739.73  30
  -3  -2  -3 60420.5 1750.60   8
   3   2   3 56525.3 1731.39  13
   3   2   3 60237.9 1628.32   1
  -3  -2  -3 59921.7 1615.46   7
   3   2   3 56531.3 1568.27  24
  -3  -2  -3 56961.0 1641.83  23
   3   2   3 65120.1 1753.53  19
   3   2   3 58691.5 1663.26  33
   3   2   4 85264.2 2115.15  32
  -3  -2  -4 81153.0 2137.78  37
  -3  -2  -4 83904.2 2301.11  30
  -3  -2  -4 78795.0 2207.34   8
   3   2   4 85161.0 2299.92  13
   3   2   4 81321.8 2124.57  24
  -3  -2  -4 80038.0 2074.72   7
   3   2   4 84127.6 2101.47   1
   3   2   4 86716.7 2276.74  19
   3   2   5 35317.4 1074.45  32
  -3  -2  -5 36178.9 1289.91  30
  -3  -2  -5 32692.9 1139.70   8
   3   2   5 36288.3 1268.04  13
   3   2   5 32767.6 1133.40  24
  -3  -2  -5 35049.1 1119.05  37
   3   2   5 33823.2 1227.95  19
  -3  -2  -5 31155.9 1078.97  36
   3   2   5 34974.2 1180.99  33
  -3  -2  -6 183.550 84.5710  14
   3   2   6 178.928 88.2424  13
   3   2   6 209.849 84.9175  24
   3   2   6 179.325 92.3647  19
  -3  -2  -6 150.143 76.8785  36
   3   2   6 112.424 80.3784  33
  -3  -2  -6 209.257 110.604   6
  -3  -2  -7 25.0240 51.5312  30
  -3  -2  -7 19.9084 52.9260  14
  -3  -2  -7 23.8821 80.3006   6
   3   2   7 22.3995 46.1289  13
   3   2   7 23.4447 39.4252  19
  -3  -2  -7 227.269 85.6878  36
   3   2   7 95.0118 78.2532  33
  -3  -2  -8 21215.7 794.236  16
  -3  -2  -8 20888.0 892.897  14
   3   2   8 20028.2 888.623  13
  -3  -2  -8 19529.5 905.333   6
  -3  -2  -8 17933.8 785.647  36
   3   2   8 20223.0 841.580  33
  -3  -2  -9 1718.36 238.006  14
   3   2   9 1624.76 220.217  13
  -3  -2  -9 1940.38 257.260   6
  -3  -2  -9 1830.55 214.611  36
   3   2   9 2065.06 235.380  33
  -3  -2 -10 14713.8 667.934  14
  -3  -2 -10 14185.0 655.064   6
   3   2  10 14197.2 592.478  33
  -3  -2 -11 16431.6 637.716  14
  -3  -2 -11 14878.2 597.283   6
  -3  -2 -12 188.890 53.8762  14
   3   3 -12 36254.5 983.880  17
   3   3 -11 46740.4 1295.42  21
   3   3 -11 43345.1 1271.26  17
   3   3 -10 21760.1 773.730   5
   3   3 -10 21644.1 836.635  21
   3   3 -10 21248.0 821.775  17
   3   3  -9 14176.5 652.547   5
   3   3  -9 13371.3 662.672  21
   3   3  -9 12600.5 578.443  20
   3   3  -9 12938.9 635.519  17
   3   3  -8 19.2918 45.8675   5
   3   3  -8 19.1916 51.0142  22
   3   3  -8 40.1246 53.3284  21
   3   3  -8 62.6678 61.7684  20
   3   3  -8 17.6238 41.9022  17
   3   3  -7 19459.8 850.582   5
  -3  -3   7 18429.7 886.897  23
   3   3  -7 18559.4 811.253  22
   3   3  -7 18448.5 835.452  21
   3   3  -7 17493.7 758.071  17
   3   3  -6 5094.18 401.546   5
   3   3  -6 4978.03 354.609   2
  -3  -3   6 4767.39 439.810  23
   3   3  -6 5139.43 389.127  22
   3   3  -6 4636.80 386.624  21
   3   3  -6 4366.24 337.476  17
  -3  -3   5 17287.2 790.977   8
  -3  -3   5 18966.8 909.409  23
   3   3  -5 17464.3 746.717  22
   3   3  -5 17875.7 804.028  21
   3   3  -5 17912.6 754.722   1
   3   3  -4 120.139 70.7624  32
  -3  -3   4 243.794 90.4301   8
   3   3  -4 223.998 86.0107   5
  -3  -3   4 245.797 105.406  23
   3   3  -4 138.725 65.2809   1
   3   3  -4 187.346 86.3240  21
   3   3  -3 5064.87 381.450  32
   3   3  -3 4887.57 372.099   5
  -3  -3   3 5111.61 414.616   8
  -3  -3   3 5209.40 444.902  23
   3   3  -3 4933.01 370.261   1
   3   3  -3 4885.67 380.778  21
   3   3  -2 376.486 107.832  32
   3   3  -2 361.778 106.602   1
  -3  -3   2 333.996 108.350   8
   3   3  -2 367.704 99.1095  13
   3   3  -2 181.009 76.0290   5
   3   3  -2 397.277 90.7338  33
   3   3  -1 4469.46 337.206   5
   3   3  -1 4172.05 338.515  13
  -3  -3   1 4721.66 396.306   8
   3   3  -1 4707.02 321.908  19
   3   3  -1 4634.35 321.839  33
   3   3   0 401.466 109.353  32
  -3  -3   0 571.384 120.303  30
   3   3   0 468.265 114.621   1
   3   3   0 663.365 139.548  13
   3   3   0 465.483 108.430   5
   3   3   0 452.820 104.155  19
   3   3   0 492.584 112.040  33
   3   3   1 11917.5 595.625  32
  -3  -3  -1 12300.5 604.976  30
   3   3   1 11379.4 613.836  13
  -3  -3  -1 10906.2 630.784   8
   3   3   1 11017.2 535.307   5
   3   3   1 12376.4 594.069   1
   3   3   1 11474.1 566.288  33
   3   3   1 11714.1 561.975  19
   3   3   2 606.170 131.223  32
  -3  -3  -2 647.787 143.770  30
  -3  -3  -2 569.451 142.359   8
   3   3   2 708.983 154.677  13
   3   3   2 763.135 143.672   1
  -3  -3  -2 636.828 133.168   7
   3   3   2 694.891 136.818  19
   3   3   2 431.275 113.943  33
   3   3   3 33419.2 1120.22  32
  -3  -3  -3 34012.3 1222.65  30
  -3  -3  -3 29140.1 1164.26   8
  -3  -3  -3 33312.7 1126.12   7
   3   3   3 33961.0 1110.36   1
   3   3   3 33303.5 1148.04  19
   3   3   3 34765.5 1161.24  33
  -3  -3  -4 60504.4 1832.94  30
  -3  -3  -4 56284.9 1742.35   8
   3   3   4 54402.1 1782.68  13
  -3  -3  -4 55020.3 1623.51   7
   3   3   4 57336.9 1611.83   1
  -3  -3  -4 57760.4 1697.41  37
   3   3   4 59056.5 1728.83  19
  -3  -3  -5 22480.2 1008.54  30
   3   3   5 22094.0 996.414  13
  -3  -3  -5 23232.0 908.148  37
   3   3   5 22789.3 947.557  19
  -3  -3  -5 20032.7 844.860  36
   3   3   5 23513.3 928.863  33
  -3  -3  -6 5365.55 470.273  30
   3   3   6 5470.31 465.367  13
  -3  -3  -6 6404.50 492.707   6
  -3  -3  -6 5575.14 407.611  37
   3   3   6 6140.03 467.339  19
  -3  -3  -6 5373.32 405.788  36
   3   3   6 7262.85 478.618  33
  -3  -3  -7 38637.4 1279.16  14
   3   3   7 41256.1 1432.69  13
  -3  -3  -7 41635.7 1419.84   6
  -3  -3  -7 37340.9 1270.90  36
   3   3   7 42301.3 1348.93  33
  -3  -3  -8 35225.6 1179.52  14
   3   3   8 34896.3 1259.97  13
  -3  -3  -8 39752.1 1302.70   6
  -3  -3  -8 32093.4 1132.72  36
   3   3   8 38719.7 1219.01  33
  -3  -3  -9 5274.61 367.249  14
   3   3   9 5578.37 392.891  13
  -3  -3  -9 6398.41 417.395   6
   3   3   9 5730.84 372.271  33
  -3  -3 -10 2060.37 200.009  14
   3   3  10 2044.16 192.341  13
  -3  -3 -10 1711.75 185.526   6
   3   3  10 1758.23 174.116  33
  -3  -3 -11 5406.11 272.086  14
   3   4 -11 1238.09 140.266  21
   3   4 -10 1383.63 173.817  21
   3   4  -9 20725.0 784.033   5
   3   4  -9 21352.8 839.783  21
   3   4  -8 6622.81 437.881   5
   3   4  -8 6798.28 439.858  22
   3   4  -8 7557.82 483.093  21
   3   4  -8 6111.96 384.277  17
   3   4  -7 798.664 162.717   5
   3   4  -7 678.833 143.723  22
   3   4  -7 678.734 155.287  21
   3   4  -6 37317.0 1313.08   5
   3   4  -6 38759.7 1214.31   2
  -3  -4   6 37058.6 1419.34  23
   3   4  -6 37998.8 1264.62  22
   3   4  -6 38773.5 1345.00  21
  -3  -4   5 11920.1 677.744   8
   3   4  -5 13253.6 645.493   2
  -3  -4   5 12840.0 772.073  23
   3   4  -5 12757.0 636.330  22
   3   4  -5 13619.6 705.496  21
   3   4  -5 12959.2 655.938   1
  -3  -4   4 8564.18 571.801   8
   3   4  -4 8820.74 530.814   2
   3   4  -4 9277.22 561.397   5
  -3  -4   4 9306.54 651.912  23
   3   4  -4 8099.72 542.124  21
   3   4  -4 8502.05 530.068   1
   3   4  -3 31270.7 1124.12   2
  -3  -4   3 30921.5 1212.60   8
   3   4  -3 29835.1 1122.92   5
  -3  -4   3 31602.5 1297.44  23
   3   4  -3 29164.9 1134.83  21
   3   4  -3 32095.2 1138.88   1
   3   4  -2 4937.34 390.554   2
  -3  -4   2 4670.54 431.565   8
   3   4  -2 5294.49 401.052   5
   3   4  -2 5069.54 401.463   1
   3   4  -2 4512.51 331.420  33
   3   4  -1 1719.75 222.225  13
  -3  -4   1 2005.62 290.460   8
   3   4  -1 2144.55 250.154   5
   3   4  -1 1383.69 192.210  33
   3   4   0 1905.58 248.533  13
   3   4   0 2111.63 241.913   5
  -3  -4   0 1855.88 255.721   7
   3   4   0 1898.64 243.416   1
   3   4   0 2078.38 241.155  33
  -3  -4  -1 8033.84 501.093  30
   3   4   1 8582.50 515.903   2
   3   4   1 8385.96 541.526  13
  -3  -4  -1 7867.62 567.143   8
   3   4   1 7930.03 477.118   5
  -3  -4  -1 8989.98 554.482   7
   3   4   1 8652.94 521.758   1
   3   4   1 9295.09 529.100  33
  -3  -4  -2 29236.2 1105.89  30
   3   4   2 29916.6 1060.39   2
  -3  -4  -2 27177.3 1143.84   8
   3   4   2 29065.9 1138.38  13
  -3  -4  -2 29913.9 1122.32   7
   3   4   2 29760.6 1077.58   1
   3   4   2 27566.9 1050.07  33
   3   4   3 17.8277 47.4309   1
  -3  -4  -3 112.157 75.4450  30
  -3  -4  -3 207.163 94.8051   8
   3   4   3 188.589 101.055  13
  -3  -4  -3 119.067 70.7967   7
  -3  -4  -3 126.505 83.1483  37
   3   4   3 121.420 79.8823   2
   3   4   3 155.190 79.9058  33
   3   4   4 8762.47 502.322   1
  -3  -4  -4 8960.32 593.294  30
   3   4   4 9510.44 507.000   2
  -3  -4  -4 8235.86 514.999   7
  -3  -4  -4 9281.18 562.785  37
  -3  -4  -5 6383.14 504.891  30
   3   4   5 6317.10 499.269  13
  -3  -4  -5 5313.64 402.843  36
  -3  -4  -5 6009.30 442.960  37
   3   4   5 6638.18 459.890  33
   3   4   6 5696.87 463.463  13
  -3  -4  -6 5487.97 432.038   6
  -3  -4  -6 5377.18 399.093  37
  -3  -4  -6 4583.10 373.663  36
   3   4   6 5556.19 414.966  33
   3   4   7 3162.27 334.264  13
  -3  -4  -7 2785.29 262.411  37
  -3  -4  -7 2713.08 263.789  36
   3   4   7 3301.50 304.136  33
   3   4   8 12028.9 615.486  13
  -3  -4  -8 11542.7 565.772   6
   3   4   8 11724.5 558.292  33
   3   4   9 6864.94 399.820  13
  -3  -4  -9 6083.88 347.111   6
   3   4   9 7073.25 371.494  33
   3   4  10 38309.9 1010.47  13
   3   5 -10 16771.8 574.562  21
   3   5  -9 8072.02 421.028  21
   3   5  -8 147.297 67.5745  22
   3   5  -8 93.2018 69.1307  21
   3   5  -7 1735.83 218.714   5
   3   5  -7 1951.63 220.657  22
   3   5  -7 1894.10 235.889  21
   3   5  -6 25550.2 970.646   5
   3   5  -6 23522.8 890.793  22
   3   5  -6 23019.6 840.288   2
   3   5  -6 24446.3 975.095  21
   3   5  -5 30425.1 1063.04   2
   3   5  -5 30383.6 1052.95  22
   3   5  -5 29948.1 1145.36  21
   3   5  -4 10792.1 616.831   5
   3   5  -4 11092.8 597.651   2
   3   5  -4 10123.8 613.770  21
   3   5  -3 7901.79 524.706   1
  -3  -5   3 6570.65 525.841   8
   3   5  -3 7096.54 494.642   5
   3   5  -3 7253.12 488.933   2
  -3  -5   3 7783.88 556.201   7
  -3  -5   3 6660.70 564.138  23
   3   5  -3 7098.37 504.337  21
   3   5  -2 12790.0 678.977   1
  -3  -5   2 10161.1 680.148   8
   3   5  -2 11628.0 634.633   2
   3   5  -2 10901.3 616.938   5
  -3  -5   2 11466.0 683.130   7
   3   5  -2 11525.8 561.838  33
   3   5  -1 1974.25 229.073  13
  -3  -5   1 2003.21 295.742   8
  -3  -5   1 2591.84 314.295   7
   3   5  -1 2038.61 240.952  33
   3   5   0 20046.3 904.631   1
   3   5   0 20216.7 855.532  13
   3   5   0 23280.8 935.137   2
  -3  -5   0 20957.8 953.280   7
   3   5   0 21455.0 874.241  33
   3   5   1 225.312 94.3996   1
  -3  -5  -1 155.013 92.2341   8
   3   5   1 350.215 112.303  13
  -3  -5  -1 161.957 87.0793   7
  -3  -5  -1 185.028 102.961  37
   3   5   1 214.764 89.9897   2
   3   5   1 304.206 108.475  33
  -3  -5  -2 940.025 196.129   8
   3   5   2 1134.18 195.559   1
   3   5   2 920.723 183.561  13
  -3  -5  -2 862.197 177.477   7
  -3  -5  -2 1146.74 206.323  37
   3   5   2 1152.35 185.982   2
   3   5   2 1068.58 195.679  33
   3   5   3 22.5751 65.7496  13
  -3  -5  -3 151.026 92.4812  37
   3   5   3 68.7511 64.6266   2
   3   5   3 117.255 80.4852  33
   3   5   4 59669.0 1872.36  13
   3   5   4 62295.8 1701.34   2
  -3  -5  -4 61853.7 1831.36  37
  -3  -5  -5 17553.5 781.269  37
  -3  -5  -5 17721.6 742.493  36
   3   5   6 40938.9 1357.01  13
  -3  -5  -6 42488.5 1278.14   6
  -3  -5  -6 40053.3 1246.70  37
   3   5   6 42204.7 1281.84  33
   3   5   7 40758.4 1309.78  13
  -3  -5  -7 42176.1 1216.91   6
   3   5   7 41894.8 1247.68  33
   3   5   8 2183.69 217.997  13
   3   5   8 2314.75 204.554  33
   3   5   9 869.714 111.472  13
   3   6  -8 13617.3 525.287  21
   3   6  -7 11368.6 462.960  22
   3   6  -7 13202.6 558.030  21
   3   6  -6 2023.77 190.211  22
   3   6  -6 2032.16 224.662  21
   3   6  -5 1091.40 146.203  22
   3   6  -5 981.269 146.832   2
   3   6  -5 1079.48 175.283  21
   3   6  -4 9429.94 507.408   2
   3   6  -4 9307.23 539.667  21
   3   6  -3 18559.4 785.632   2
   3   6  -3 18481.1 821.154  21
   3   6  -2 8438.34 509.122   2
   3   6  -2 8626.26 538.139  21
   3   6  -1 35281.3 1219.60   2
   3   6  -1 33814.9 1123.16  33
   3   6   0 5202.27 397.816   2
  -3  -6   0 5605.48 442.210  37
   3   6   0 5269.43 385.023  33
   3   6   1 5385.10 383.943  13
   3   6   1 6550.96 429.704   2
   3   6   1 6818.17 439.975  33
   3   6   2 971.228 167.208  13
  -3  -6  -2 1064.93 187.806  37
   3   6   2 1125.37 175.455   2
   3   6   2 1200.55 185.887  33
   3   6   3 6451.01 426.656  13
   3   6   3 6255.31 388.800   2
  -3  -6  -3 6107.07 434.005  37
   3   6   3 6371.23 421.826  33
   3   6   4 14026.6 654.037  13
   3   6   4 13258.7 554.009   2
   3   6   5 320.405 96.4082  13
  -3  -6  -5 427.503 106.183  37
   3   6   5 572.833 117.795  33
  -3  -6  -5 572.379 111.089   6
   3   6   6 130.585 65.8768  13
  -3  -6  -6 65.6416 52.0445  37
   3   6   6 70.7531 52.4737  33
   3   6   8 5011.21 240.015  13
   3   7  -7 1941.06 136.122  21
  -3  -7   4 8318.86 417.777  37
   3   7  -4 7209.90 366.396   2
  -3  -7   3 3430.71 280.301  37
   3   7  -3 3046.69 247.575   2
  -3  -7   2 197.354 76.6802  37
   3   7  -2 232.221 81.2603   2
  -3  -7   1 553.561 123.601  37
   3   7  -1 372.218 99.0811   2
   3   7   0 15049.5 648.203  21
   3   7   0 15122.9 623.188   2
  -3  -7   0 15827.1 681.960  37
  -3  -7  -1 715.906 135.022  37
   3   7   1 690.820 118.768   2
   3   7   1 712.706 120.735  33
   3   7   2 6277.57 346.844   2
   3   7   2 6935.55 372.273  33
  -3  -7  -3 2344.23 220.770  37
   3   7   3 2414.54 210.714  33
   3   7   4 10690.4 414.725  13
   3   7   5 2400.96 162.811  13
   3   8  -2 12912.0 418.584  21
   3   8  -1 7216.88 294.860  21
   3   8   0 476.699 72.7158  21
   3   8   1 7461.18 290.445  21
  -4   9   2 3163.44 201.918  18
  -4   9   1 444.896 87.2095  18
  -4   9   0 389.168 83.8221  18
  -4   9  -1 5170.96 303.620  18
  -4   9  -3 8689.15 354.871  10
  -4   9  -3 10292.8 408.438  18
  -4   9  -4 5908.64 274.478  10
  -4   9  -4 5764.78 260.658  18
  -4   8   6 3061.14 218.202  13
  -4   8   5 44.4467 45.7641  13
   4  -8  -5 47.8626 47.1826  35
   4  -8  -4 169.842 66.0331  32
  -4   8   4 173.826 72.9235   3
  -4   8   4 171.892 66.9763  13
  -4   8   4 223.117 62.9819  18
   4  -8  -4 147.696 63.9409  35
   4  -8  -3 14.7542 42.9619  32
  -4   8   3 96.1202 63.1595   3
  -4   8   3 12.6947 39.9273  13
  -4   8   3 11.8540 39.8572  18
   4  -8  -3 42.5931 50.6321  35
  -4   8   2 63051.7 1763.35   3
   4  -8  -2 56282.3 1622.95  35
  -4   8   2 59799.2 1591.28  13
  -4   8   2 61290.3 1650.25  18
   4  -8  -2 61816.6 1747.30  32
  -4   8   1 20637.4 875.469   3
   4  -8  -1 20214.4 863.451  32
  -4   8   1 21617.4 817.487  18
  -4   8   0 14718.8 731.467   3
  -4   8   0 16580.0 706.117  18
   4  -8   0 15057.7 737.268  32
   4  -8   1 19.4456 46.2304  32
  -4   8  -1 16.6617 59.4174  18
  -4   8  -1 12.6330 45.0509  10
   4  -8   2 1554.81 224.450  32
  -4   8  -2 1473.05 178.001  11
  -4   8  -2 1731.47 202.582  10
  -4   8  -3 1986.59 208.636  11
  -4   8  -3 1789.70 210.251  10
  -4   8  -3 1875.19 215.604  18
   4  -8   3 1613.38 218.743  32
  -4   8  -4 30887.1 979.442  11
  -4   8  -4 29943.8 992.012  10
  -4   8  -4 32055.9 978.847  18
  -4   8  -5 1688.26 186.534  11
  -4   8  -5 1877.24 206.576  10
  -4   8  -6 11499.2 488.158  11
  -4   8  -6 11506.0 501.545  10
  -4   8  -7 11992.3 455.110  11
  -4   7   8 6061.60 321.886  13
  -4   7   7 869.134 137.945  13
   4  -7  -7 706.826 127.161  35
   4  -7  -6 4852.75 360.281  35
  -4   7   5 5644.73 400.853  13
   4  -7  -5 5163.29 393.248  35
  -4   7   5 4815.29 350.453   3
  -4   7   4 35629.8 1189.25  13
   4  -7  -4 34339.4 1201.09  35
  -4   7   4 33223.2 1051.54  34
  -4   7   4 33685.6 1168.12   3
   4  -7  -4 32258.6 1144.52  32
  -4   7   3 36947.7 1232.40  13
   4  -7  -3 36724.5 1261.70  35
  -4   7   3 34764.5 1100.45  34
  -4   7   3 35502.1 1231.07   9
  -4   7   3 35818.5 1264.62   3
   4  -7  -3 33529.0 1245.48  32
   4  -7  -2 1467.43 236.164  32
  -4   7   2 1504.88 213.953  13
   4  -7  -2 1576.10 225.016  35
  -4   7   2 1605.38 192.648  34
  -4   7   2 2028.08 259.721   9
  -4   7   2 1581.33 243.823   3
  -4   7   1 736.420 165.267   9
  -4   7   1 452.833 136.366   3
  -4   7   1 626.006 136.043  13
   4  -7  -1 560.065 132.896  35
  -4   7   0 16588.4 708.938  13
  -4   7   0 16813.3 692.998  11
  -4   7   0 17975.2 842.138   9
   4  -7   0 16367.7 846.815  32
  -4   7   0 16972.5 855.054   3
  -4   7  -1 24754.5 1066.16   3
  -4   7  -1 25309.6 922.245  11
  -4   7  -1 23843.5 921.845  10
   4  -7   1 22746.6 1038.82  32
   4  -7   2 1488.73 244.296  32
  -4   7  -2 2213.20 256.510  11
  -4   7  -2 1537.43 219.053  10
  -4   7  -2 2103.57 272.746   9
   4  -7   3 131.997 78.4796  32
  -4   7  -3 101.729 76.5079   9
  -4   7  -3 112.269 77.0771  11
  -4   7  -3 77.5721 72.9277  10
  -4   7  -4 39073.5 1275.90  11
  -4   7  -4 38093.6 1281.86  10
  -4   7  -5 12550.6 623.055  11
  -4   7  -5 11509.6 550.568  18
  -4   7  -5 12305.4 628.410  10
  -4   7  -6 4588.12 354.597  11
  -4   7  -6 4077.82 338.513  10
  -4   7  -7 863.477 115.461  16
  -4   7  -8 3733.96 256.426  11
  -4   7  -8 3226.57 246.535  10
   4  -6 -10 876.706 96.0204  15
  -4   6   9 4151.31 268.585  13
   4  -6  -9 3865.09 216.147  17
  -4   6   8 755.246 135.571  13
   4  -6  -8 920.312 157.305  35
  -4   6   8 578.861 111.823  34
   4  -6  -8 681.249 110.478  17
  -4   6   7 3984.18 338.246  13
   4  -6  -7 3984.73 353.851  35
  -4   6   7 3251.03 288.849  34
  -4   6   6 4152.28 368.392  13
   4  -6  -6 4404.71 390.740  35
  -4   6   6 4265.59 348.724  34
   4  -6  -5 70.2661 55.2925  32
  -4   6   5 146.519 77.4398   9
  -4   6   5 124.274 73.1389   3
  -4   6   5 74.7102 58.7838  34
   4  -6  -4 232.733 97.4135  32
  -4   6   4 19.2282 56.0025   9
  -4   6   4 41.0465 48.8102   3
  -4   6   4 87.2087 85.9640  13
   4  -6  -4 46.0506 67.0558  35
  -4   6   4 136.698 77.0004  34
  -4   6   3 25738.4 1045.14  13
   4  -6  -3 26694.2 1074.41  35
  -4   6   3 26822.7 1023.26  34
  -4   6   3 25575.8 1052.03   3
  -4   6   3 23661.8 1015.86   9
   4  -6  -3 25589.4 1081.52  32
   4  -6  -2 68918.7 2154.40  31
  -4   6   2 72223.3 2073.16  29
  -4   6   2 70141.1 2095.98  28
   4  -6  -2 73394.1 2030.40  26
   4  -6  -2 68317.3 2066.97  35
  -4   6   2 72324.6 2139.70   3
  -4   6   2 68354.5 2111.38   9
   4  -6  -2 70953.6 2176.43  32
   4  -6  -1 3108.81 362.293  31
  -4   6   1 3133.48 319.862  29
  -4   6   1 2965.07 333.011  28
   4  -6  -1 2182.16 264.088  26
   4  -6  -1 2759.01 278.782  24
   4  -6  -1 2900.12 301.870  35
  -4   6   1 3299.54 318.602  34
  -4   6   1 2497.25 312.886   9
  -4   6   1 3145.45 348.008   3
   4  -6   0 41955.3 1556.15  31
  -4   6   0 44025.6 1435.20  29
  -4   6   0 46040.1 1548.96  28
   4  -6   0 43432.3 1362.81  24
  -4   6   0 45428.5 1404.35  11
  -4   6   0 44138.0 1379.23  10
  -4   6   0 47308.6 1445.45  34
  -4   6   0 42654.3 1535.93   9
   4  -6   0 45566.5 1602.99  32
  -4   6   0 43470.0 1557.35   3
  -4   6  -1 6374.43 513.022   3
   4  -6   1 5768.36 494.646  31
  -4   6  -1 5784.06 423.622  29
  -4   6  -1 6493.02 497.255  28
   4  -6   1 6066.16 412.848  24
  -4   6  -1 6733.93 463.407  11
  -4   6  -1 6239.03 443.052  10
  -4   6  -1 6371.07 434.385  34
   4  -6   1 6370.15 522.038  32
  -4   6  -2 1933.00 288.194   3
   4  -6   2 1278.20 233.801  31
  -4   6  -2 1476.65 235.464  28
   4  -6   2 1505.68 226.744  26
  -4   6  -2 1855.74 253.730  11
  -4   6  -2 1607.28 231.828  10
  -4   6  -2 1527.32 209.985  34
  -4   6  -2 2381.52 302.405   9
   4  -6   2 1957.53 294.867  32
   4  -6   3 12149.7 649.878  26
  -4   6  -3 12523.9 676.766  11
  -4   6  -3 12550.9 675.962  10
  -4   6  -3 11505.9 584.978  34
  -4   6  -3 12157.7 692.517   9
   4  -6   3 10856.1 677.245  32
  -4   6  -4 39802.9 1388.17  11
  -4   6  -4 40282.4 1384.72  10
  -4   6  -4 39809.5 1374.93   9
   4  -6   4 37907.7 1375.65  32
  -4   6  -5 2435.74 293.138  11
  -4   6  -5 2313.26 290.685  10
  -4   6  -5 1736.35 229.288   9
  -4   6  -5 2211.85 235.533  16
   4  -6   5 1900.13 242.359  32
  -4   6  -6 47281.5 1501.07  10
  -4   6  -6 43474.9 1345.01  16
  -4   6  -7 2452.70 270.053  11
  -4   6  -7 2003.73 225.808  16
  -4   6  -8-13.5737 62.4900  16
  -4   6  -8-15.0297 59.2532  11
  -4   6  -8 15.8329 49.7939  10
  -4   6  -9 928.365 128.733  11
  -4   6  -9 919.102 135.200  10
  -4   6  -9 1062.60 141.577  16
  -4   6 -10 390.617 74.7490  16
  -4   5  10 7634.77 346.726  13
   4  -5 -10 8710.37 427.142  35
  -4   5  10 8269.69 402.705  34
   4  -5 -10 9363.45 373.751  17
  -4   5   9 2701.03 247.186  13
  -4   5   9 2749.33 254.370  34
   4  -5  -9 2658.04 229.879  17
  -4   5   8 1764.44 227.496  13
   4  -5  -8 2091.25 260.552  35
  -4   5   8 1954.67 233.285  34
  -4   5   7 35466.6 1245.65  13
   4  -5  -7 33937.4 1268.76  35
  -4   5   7 33170.5 1213.99  34
  -4   5   6 178.240 102.657  13
   4  -5  -6 267.876 108.391  35
  -4   5   6 191.504 87.7173  34
  -4   5   5 16504.7 800.859  29
   4  -5  -5 15844.7 719.465  26
  -4   5   5 17086.8 890.252  23
   4  -5  -5 19075.2 902.209  35
  -4   5   5 18910.6 866.197  34
  -4   5   5 18170.0 784.715   9
   4  -5  -5 16954.2 786.174  32
   4  -5  -4 31196.1 1201.94  31
  -4   5   4 31914.6 1192.09  29
  -4   5   4 31433.7 1156.61  28
   4  -5  -4 32131.6 1114.80  26
   4  -5  -4 34143.2 1275.46  35
  -4   5   4 33415.9 1234.80  34
  -4   5   4 31815.1 1162.62   3
  -4   5   4 33159.1 1196.57   9
   4  -5  -4 32071.1 1226.89  32
   4  -5  -3 47.5873 79.9992  32
   4  -5  -3 143.030 93.9827  31
  -4   5   3-21.3895 50.8544   9
  -4   5   3 63.9551 71.6772   3
   4  -5  -3 17.8236 36.7015  26
   4  -5  -3 54.7804 57.4308  24
  -4   5   3 77.7592 75.4722  23
   4  -5  -3 22.5695 46.4716  35
  -4   5   3 21.9944 52.2924  34
   4  -5  -2 2338.89 306.743  31
  -4   5   2 2555.30 288.885  29
  -4   5   2 2608.50 300.967  28
   4  -5  -2 2439.64 267.510  26
   4  -5  -2 2531.55 267.454  24
  -4   5   2 2509.34 316.732  23
   4  -5  -2 1954.02 260.348  35
  -4   5   2 2646.10 297.943  34
  -4   5   2 2900.47 317.682   3
  -4   5   2 2754.72 310.791   9
   4  -5  -2 2146.79 298.907  32
   4  -5  -1 1371.24 239.094  31
  -4   5   1 1631.94 227.779  29
  -4   5   1 1753.93 248.090  28
   4  -5  -1 1490.71 209.564  26
   4  -5  -1 1668.01 217.092  24
  -4   5   1 1199.58 217.517  23
   4  -5  -1 1359.39 206.407  35
  -4   5   1 1467.54 226.406  34
  -4   5   1 1914.69 264.825   3
  -4   5   1 1821.53 258.619   9
   4  -5   0 11531.3 703.704  31
  -4   5   0 12752.9 651.633  29
  -4   5   0 14298.9 734.906  28
   4  -5   0 13429.9 656.685  26
   4  -5   0 12610.9 626.392  24
  -4   5   0 12386.7 612.333  10
  -4   5   0 12712.0 672.965  34
  -4   5   0 13537.9 729.219   9
   4  -5   0 13355.7 755.892  32
  -4   5   0 13275.1 734.620   3
  -4   5  -1 3675.90 378.124   3
   4  -5   1 2852.68 339.511  31
  -4   5  -1 3063.46 298.231  29
  -4   5  -1 3201.00 339.701  28
   4  -5   1 3126.05 301.760  26
   4  -5   1 3387.84 309.227  24
  -4   5  -1 3057.41 303.767  10
  -4   5  -1 3276.18 326.140  34
   4  -5   1 2772.33 336.560  32
   4  -5   2 58036.8 1842.17  31
  -4   5  -2 57317.3 1859.58   3
  -4   5  -2 53363.1 1631.71  29
  -4   5  -2 59053.7 1810.95  28
   4  -5   2 57485.0 1693.69  24
  -4   5  -2 60149.6 1762.59  10
  -4   5  -2 59769.0 1762.97  34
  -4   5  -2 56895.8 1820.70   9
   4  -5   2 58096.8 1856.18  32
   4  -5   3 44055.6 1530.91  31
  -4   5  -3 47022.6 1537.87  28
   4  -5   3 45059.2 1472.05  26
   4  -5   3 44108.2 1427.06  24
  -4   5  -3 44515.0 1459.74  34
  -4   5  -3 46187.2 1511.79  10
  -4   5  -3 47233.4 1545.54   9
   4  -5   3 44709.2 1548.09  32
   4  -5   4 1137.46 203.800  31
  -4   5  -4 1394.59 222.600  28
   4  -5   4 1476.20 225.511  26
   4  -5   4 1611.97 222.302  24
   4  -5   4 1395.84 228.247  32
  -4   5  -4 1619.63 245.179  10
  -4   5  -4 1332.42 210.163  34
  -4   5  -4 1384.22 222.892   9
  -4   5  -4 1251.14 187.665  16
   4  -5   5 24585.2 999.910  26
   4  -5   5 23942.9 948.752  24
  -4   5  -5 25134.1 1045.42  10
  -4   5  -5 24883.5 984.666   9
   4  -5   5 24472.8 975.804  32
  -4   5  -5 24377.0 946.388  16
  -4   5  -6 4262.66 398.714  11
  -4   5  -6 4183.17 358.089  16
  -4   5  -7 16408.9 778.554  12
  -4   5  -7 15828.9 771.517  11
  -4   5  -7 17233.1 807.223  10
  -4   5  -7 16520.8 751.571  16
  -4   5  -8 16190.7 743.940  12
  -4   5  -8 15585.7 718.552  11
  -4   5  -8 16885.0 755.435  10
  -4   5  -8 15694.8 717.915  16
  -4   5  -9 5003.75 334.671  11
  -4   5  -9 4880.46 348.253  10
  -4   5  -9 5368.91 370.065  16
  -4   5 -10 6626.57 371.278  16
  -4   5 -11 147.336 48.0537  16
   4  -4 -11 5172.18 291.528  15
   4  -4 -11 5050.14 263.859  17
  -4   4  10 4272.96 319.927  34
   4  -4 -10 4530.50 301.826  17
  -4   4   9 3088.33 279.469  13
   4  -4  -9 2872.25 228.649  20
  -4   4   9 2783.27 286.006  34
   4  -4  -9 3077.55 314.479  35
   4  -4  -9 3342.46 291.275  17
  -4   4   8 15829.2 743.274  13
   4  -4  -8 15033.6 618.273  20
   4  -4  -8 15953.4 798.585  35
  -4   4   8 16028.1 766.091  34
  -4   4   7 9882.43 601.883  13
   4  -4  -7 10061.0 497.681  20
   4  -4  -7 10414.2 647.831  35
  -4   4   6 860.848 169.509  29
  -4   4   6 833.908 169.309  25
   4  -4  -6 780.780 187.611  35
  -4   4   6 624.664 167.331  23
   4  -4  -5 12811.3 671.819  31
  -4   4   5 14646.5 719.955  29
   4  -4  -5 13096.3 604.034  26
  -4   4   5 12077.2 658.221  25
  -4   4   5 14825.6 807.764  23
   4  -4  -5 14372.0 770.636  35
  -4   4   5 14651.0 686.778   9
   4  -4  -5 14459.6 704.938  32
   4  -4  -4 16472.5 801.031  31
  -4   4   4 17123.4 775.562  28
   4  -4  -4 15992.6 698.111  26
  -4   4   4 16380.3 745.035  25
   4  -4  -4 18577.8 789.752  24
   4  -4  -4 17639.5 851.646  35
  -4   4   4 18205.4 812.266   9
   4  -4  -4 17424.8 822.444  32
   4  -4  -3 32505.4 1237.13  31
  -4   4   3 32902.5 1186.21  28
   4  -4  -3 32877.1 1097.44  26
   4  -4  -3 34433.8 1157.74  24
  -4   4   3 35081.8 1319.50  23
   4  -4  -3 32856.8 1211.43  35
  -4   4   3 35361.4 1259.62  34
  -4   4   3 32852.9 1160.93   3
   4  -4  -3 33296.5 1252.56  32
  -4   4   3 32940.1 1220.20   9
   4  -4  -2 9125.55 582.521  31
  -4   4   2 9744.33 563.921  28
   4  -4  -2 8859.01 487.948  26
   4  -4  -2 8827.80 510.230  24
  -4   4   2 8114.09 571.128  23
   4  -4  -2 8936.86 530.550  35
  -4   4   2 8873.52 553.810  34
  -4   4   2 7918.00 516.814   3
   4  -4  -2 8599.39 575.660  32
  -4   4   2 8146.21 538.024   9
  -4   4   1 19978.0 871.980   9
  -4   4   1 19407.4 844.367  28
   4  -4  -1 17866.1 744.613  26
   4  -4  -1 17534.8 761.252  24
  -4   4   1 20151.3 898.040  23
   4  -4  -1 17020.8 745.647  35
  -4   4   1 17973.9 835.008  34
  -4   4   1 18290.5 830.261   3
  -4   4   0 85231.9 2386.06   9
  -4   4   0 84519.6 2372.01   3
   4  -4   0 88589.4 2433.08  31
  -4   4   0 90373.4 2388.64  28
   4  -4   0 81635.1 2213.25  26
   4  -4   0 87825.7 2281.95  24
  -4   4   0 85451.6 2366.62  23
  -4   4   0 89020.5 2369.28  34
   4  -4   0 83578.6 2412.58  32
  -4   4  -1 3609.51 355.448   9
  -4   4  -1 3634.16 353.021   3
   4  -4   1 3938.98 374.237  31
  -4   4  -1 3782.46 352.033  28
   4  -4   1 3373.60 302.080  26
   4  -4   1 3682.95 320.565  24
  -4   4  -1 2918.47 303.572  23
  -4   4  -1 3175.49 321.871  34
   4  -4   1 3146.75 344.163  32
   4  -4   2 245.768 112.769  32
  -4   4  -2 298.152 90.4715  16
   4  -4   2 243.531 102.025  31
  -4   4  -2 153.112 86.3534   9
  -4   4  -2 380.214 117.857  28
   4  -4   2 235.403 86.2188  26
   4  -4   2 181.736 78.0226  24
  -4   4  -2 183.615 80.5606  34
  -4   4  -3 12431.5 610.095  16
   4  -4   3 11976.4 666.654  31
  -4   4  -3 13282.5 690.746  28
   4  -4   3 12659.2 651.510  26
   4  -4   3 11669.1 622.224  24
  -4   4  -3 12812.3 671.170  34
   4  -4   3 11941.7 673.597  32
  -4   4  -3 12747.3 687.828   9
  -4   4  -4 35547.8 1201.37  16
   4  -4   4 35366.6 1243.85  31
  -4   4  -4 34981.5 1241.06  28
   4  -4   4 33022.6 1194.45  24
  -4   4  -4 33235.8 1222.61  12
  -4   4  -4 37071.4 1277.87  34
  -4   4  -4 34154.8 1242.89   9
   4  -4   4 34467.5 1245.99  32
  -4   4  -5 30341.7 1115.22  16
  -4   4  -5 27579.0 1057.85  28
   4  -4   5 30932.5 1142.84  26
   4  -4   5 28106.0 1085.02  24
  -4   4  -5 29059.4 1123.32  12
  -4   4  -5 29383.5 1128.61  34
  -4   4  -5 31407.8 1119.02   9
   4  -4   5 28528.6 1081.53  32
   4  -4   6 24084.6 991.071  26
   4  -4   6 22852.5 949.470  24
  -4   4  -6 23478.2 988.958  12
  -4   4  -6 21731.5 819.086   6
  -4   4  -7 818.416 176.919  16
  -4   4  -7 719.711 135.262   6
  -4   4  -7 513.399 148.904  12
  -4   4  -7 693.334 161.425  11
  -4   4  -7 721.978 168.047  10
  -4   4  -8 160.967 92.7374  16
  -4   4  -8 146.863 65.4692   6
  -4   4  -8 404.206 124.909  12
  -4   4  -8 279.833 99.2706  11
  -4   4  -8 305.388 110.989  10
  -4   4  -9 9326.33 487.540  11
  -4   4  -9 10377.9 544.484  10
  -4   4  -9 9121.25 470.684   6
  -4   4  -9 9758.85 551.797  16
  -4   4 -10 219.126 85.1110  16
  -4   4 -10 95.5397 52.0950   6
  -4   4 -10 145.337 77.3059  12
   4  -3 -12 425.770 67.4832  15
   4  -3 -12 520.892 73.2046  17
   4  -3 -11 30429.7 926.307  15
  -4   3  11 28525.3 923.296  34
   4  -3 -11 30604.4 928.297  17
   4  -3 -10 10662.2 526.492   5
   4  -3 -10 11707.8 509.838  20
  -4   3  10 11301.6 568.702  34
   4  -3 -10 12088.0 567.337  17
  -4   3   9 3910.08 316.952  13
   4  -3  -9 4421.93 322.640  20
   4  -3  -9 4015.08 372.347  35
  -4   3   9 3893.38 349.904  34
   4  -3  -9 4264.42 353.694  17
  -4   3   8 135.090 82.8208  13
   4  -3  -8 219.982 83.6382  20
   4  -3  -8 265.719 103.618  35
  -4   3   8 281.157 112.140  34
  -4   3   7 10308.3 580.276  29
  -4   3   7 9489.20 616.347  25
  -4   3   7 9943.50 651.985  23
   4  -3  -7 11097.3 553.792  20
   4  -3  -7 11660.2 691.087  35
  -4   3   7 9797.37 623.136  34
  -4   3   6 1491.52 231.115  25
  -4   3   6 1372.04 238.255  23
   4  -3  -6 1574.23 200.930  20
   4  -3  -6 1693.04 256.026  35
  -4   3   6 1679.63 254.865  34
   4  -3  -6 1314.16 182.774  32
   4  -3  -5 76090.2 2143.61  31
  -4   3   5 83806.6 2153.31  28
  -4   3   5 78442.2 2206.74  25
  -4   3   5 80785.7 2368.09  23
   4  -3  -5 84129.2 2330.87  35
  -4   3   5 82041.5 2292.57  34
   4  -3  -5 76597.1 2154.69  32
  -4   3   5 77925.5 2148.57   9
   4  -3  -4 280.751 104.047  32
   4  -3  -4 375.970 110.459  31
  -4   3   4 188.273 86.8461   9
  -4   3   4 341.624 109.115  28
   4  -3  -4 180.881 68.8971  26
  -4   3   4 381.555 112.356  25
   4  -3  -4 381.102 120.820  35
  -4   3   4 256.404 104.862  34
   4  -3  -3 144.498 85.0359  32
   4  -3  -3 266.391 94.3705  31
  -4   3   3 116.007 68.9920   9
  -4   3   3 147.072 69.1486  28
   4  -3  -3 53.0006 44.6166  26
  -4   3   3 142.744 65.3554  25
  -4   3   3 115.203 77.5040  23
   4  -3  -3 132.122 80.9315  35
  -4   3   3 184.006 84.2234  34
   4  -3  -2 104.176 70.0508  32
   4  -3  -2 61.5601 73.1760  31
  -4   3   2-19.6553 40.4686   9
  -4   3   2-16.7212 56.2192   3
  -4   3   2 130.365 70.0054  28
   4  -3  -2 53.8774 50.6315  26
  -4   3   2 26.7955 31.8528  25
  -4   3   2 43.6025 44.8867  23
   4  -3  -2 32.9532 47.9753  35
  -4   3   2 19.7903 40.7465  34
  -4   3   1 3478.28 336.057   9
  -4   3   1 3981.44 335.070   3
   4  -3  -1 3906.00 334.260  13
  -4   3   1 4411.83 357.431  28
   4  -3  -1 3185.72 264.736  26
   4  -3  -1 3384.32 301.047  24
  -4   3   1 3270.10 328.637  23
  -4   3   0 32191.0 1175.36   9
   4  -3   0 32090.8 1176.03  31
  -4   3   0 31887.3 1139.88   3
  -4   3   0 34092.9 1171.81  28
   4  -3   0 34650.9 1150.04  13
   4  -3   0 31671.6 1042.00  26
   4  -3   0 31662.0 1094.74  24
  -4   3   0 31776.1 1150.70  23
   4  -3   0 33422.4 1197.21  32
  -4   3  -1 34085.1 1225.49   9
   4  -3   1 32932.3 1210.92  31
  -4   3  -1 33390.1 1204.67  28
   4  -3   1 36736.3 1179.56  13
   4  -3   1 34265.6 1117.36  26
   4  -3   1 34666.0 1154.40  24
  -4   3  -1 34194.6 1172.53  23
   4  -3   1 35579.2 1102.45  19
   4  -3   1 34900.4 1240.13  32
  -4   3  -2 25012.2 1002.11   9
   4  -3   2 24490.7 979.140  31
  -4   3  -2 25840.0 991.411  28
   4  -3   2 27052.8 956.300  13
   4  -3   2 23814.9 905.551  26
   4  -3   2 24224.5 934.291  24
  -4   3  -2 23874.0 891.910  23
   4  -3   2 24577.2 873.378  19
   4  -3   2 25279.8 1003.51  32
   4  -3   3 315.298 109.957  32
   4  -3   3 388.042 113.069  31
  -4   3  -3 246.562 103.713   9
  -4   3  -3 276.320 99.6332  28
   4  -3   3 159.219 78.8046  26
   4  -3   3 391.454 106.283  13
   4  -3   3 91.9187 72.6078  24
  -4   3  -3 197.468 85.4668  12
   4  -3   3 210.114 73.6855  19
  -4   3  -3 160.743 82.8519  34
  -4   3  -4 4711.34 397.159   9
  -4   3  -4 4949.00 400.146  16
   4  -3   4 4824.68 382.527  31
  -4   3  -4 5127.30 401.702  28
   4  -3   4 4737.22 387.504  24
  -4   3  -4 4950.15 388.740  12
   4  -3   4 4307.14 333.528  19
  -4   3  -4 4647.19 326.450   6
  -4   3  -4 5245.87 415.776  34
   4  -3   4 5211.36 394.234  32
  -4   3  -5 125.387 74.5368   6
   4  -3   5 69.2681 58.2395  32
  -4   3  -5 20.9061 55.5867  16
  -4   3  -5 207.423 86.8234   9
  -4   3  -5 55.4550 58.1524  28
   4  -3   5 103.452 69.5780  24
  -4   3  -5 19.9305 52.9943  12
   4  -3   5 97.3462 57.8749  19
  -4   3  -5 64.6751 62.7874  34
  -4   3  -6 8895.87 566.234  16
   4  -3   6 8810.96 558.645  24
  -4   3  -6 8442.99 540.065  12
  -4   3  -6 8260.16 488.969   6
  -4   3  -7 27667.7 1083.53  16
   4  -3   7 24090.1 1012.45  24
  -4   3  -7 25453.0 1024.11  12
  -4   3  -7 24832.3 955.324   6
  -4   3  -8 39428.5 1366.79  12
  -4   3  -8 41893.9 1337.90  11
  -4   3  -8 40246.3 1315.92   6
  -4   3  -8 42687.4 1424.86  16
  -4   3  -9 7100.47 468.170  12
  -4   3  -9 7412.81 464.776  10
  -4   3  -9 7106.00 442.512   6
  -4   3 -10 54.8062 56.4200   6
  -4   3 -10-15.5870 49.0213  12
  -4   3 -11 3397.19 252.497  12
  -4   3 -11 2986.36 243.312  16
   4  -2 -12 6030.76 304.082  17
   4  -2 -11 37598.9 1089.07  15
   4  -2 -11 38571.9 1094.83  20
   4  -2 -11 39455.1 1152.15  17
   4  -2 -10 25151.2 934.889   5
   4  -2 -10 27997.6 959.859  15
   4  -2 -10 28262.5 947.592  20
  -4   2  10 27565.6 984.350  34
   4  -2 -10 28917.4 1013.90  17
   4  -2  -9 15102.3 673.705  20
   4  -2  -9 14982.6 766.380  35
  -4   2   9 14034.6 702.004  34
   4  -2  -9 15087.7 722.747  17
  -4   2   8 17637.4 766.646  13
   4  -2  -8 18504.5 772.567  20
   4  -2  -8 17310.7 862.723  35
  -4   2   8 16557.3 812.453  34
  -4   2   7 4642.67 420.948  25
  -4   2   7 4183.61 409.658  23
   4  -2  -7 4429.36 353.989  20
   4  -2  -7 4799.21 430.261  35
  -4   2   7 4414.40 398.184  34
   4  -2  -6 438.839 108.514  32
  -4   2   6 643.055 151.837  25
  -4   2   6 625.885 166.076  23
   4  -2  -6 656.586 165.291  35
  -4   2   6 603.286 151.938  34
  -4   2   5 4944.51 378.580   9
   4  -2  -5 5174.33 383.365  31
  -4   2   5 5210.74 375.186  28
  -4   2   5 5129.75 407.348  25
  -4   2   5 5307.71 457.456  23
   4  -2  -5 4989.56 415.229  35
  -4   2   5 5977.75 448.023  34
   4  -2  -5 5154.17 382.395  32
  -4   2   4 22040.1 886.045   9
   4  -2  -4 20633.0 864.300  31
  -4   2   4 22862.2 874.069  28
  -4   2   4 21431.7 867.980  25
   4  -2  -4 22760.7 859.024  24
  -4   2   4 20215.9 939.494  23
   4  -2  -4 21778.6 899.170  35
  -4   2   4 21460.6 907.248  34
   4  -2  -4 21542.7 884.736  32
  -4   2   3 78556.5 2188.06   9
   4  -2  -3 78503.8 2189.96  31
  -4   2   3 82633.0 2219.77   8
   4  -2  -3 83525.7 2183.51  13
  -4   2   3 77390.1 2099.75  25
   4  -2  -3 83937.2 2138.29  24
  -4   2   3 80463.0 2283.37  23
   4  -2  -3 80871.1 2154.70  35
  -4   2   3 81518.1 2215.03  34
   4  -2  -3 80451.0 2208.31  32
  -4   2   2 118589. 2960.38   9
   4  -2  -2 117509. 2948.10  31
  -4   2   2 121252. 2980.49   8
   4  -2  -2 109446. 2683.33  26
  -4   2   2 111863. 2776.84  25
   4  -2  -2 118369. 2856.71  24
  -4   2   2 119773. 3013.92  23
   4  -2  -2 118230. 2823.67  35
  -4   2   2 117277. 2931.04  34
   4  -2  -2 120275. 2968.75  32
  -4   2   1 37677.4 1275.87   9
  -4   2   1 36816.7 1277.97   8
   4  -2  -1 40962.6 1249.94  13
   4  -2  -1 35537.1 1078.66  26
  -4   2   1 35922.1 1089.14  25
   4  -2  -1 38996.1 1205.72  24
  -4   2   1 38245.2 1292.66  23
  -4   2   1 38068.7 1243.21  34
   4  -2   0 2689.28 279.211  31
  -4   2   0 2726.24 291.185   8
   4  -2   0 2709.68 272.894  13
   4  -2   0 2243.98 213.261  26
   4  -2   0 2624.19 255.362  24
  -4   2   0 2524.75 270.212  23
   4  -2   0 2142.18 229.755  19
  -4   2   0 2643.07 270.532  34
   4  -2   0 3230.06 303.912  32
  -4   2  -1 16549.4 766.107   9
   4  -2   1 15692.4 731.475  31
  -4   2  -1 16898.9 783.345   8
   4  -2   1 17100.1 722.791  13
   4  -2   1 15880.4 653.845  26
   4  -2   1 16636.7 712.290  24
  -4   2  -1 16069.3 709.286  23
   4  -2   1 17104.2 700.061  19
  -4   2  -1 16975.6 744.741  34
   4  -2   1 16704.2 756.492  32
  -4   2  -2 4982.24 400.787   9
   4  -2   2 5374.76 392.064  31
  -4   2  -2 5485.69 424.351   8
   4  -2   2 4906.83 365.306  13
  -4   2  -2 4730.98 343.008  23
  -4   2  -2 4449.53 307.857   6
   4  -2   2 4738.95 346.027  19
  -4   2  -2 5265.37 389.160  34
   4  -2   2 4987.92 386.692  32
  -4   2  -3 3349.31 321.570   9
   4  -2   3 2795.22 283.645  31
   4  -2   3 2781.45 279.941  13
  -4   2  -3 2259.88 242.879  12
   4  -2   3 2269.59 246.294  19
  -4   2  -3 2875.80 260.501   6
  -4   2  -3 2998.85 298.282  34
   4  -2   3 2546.79 272.641  32
  -4   2  -4 32711.6 1167.74   9
   4  -2   4 32239.9 1116.08  31
  -4   2  -4 34089.1 1166.66  28
   4  -2   4 33275.4 1119.79  13
  -4   2  -4 31579.2 1101.84  12
   4  -2   4 33170.6 1130.25  19
  -4   2  -4 32505.8 1098.84   6
  -4   2  -4 33480.9 1193.38  34
   4  -2   4 31669.9 1114.03  32
   4  -2   5 6997.11 437.407  32
  -4   2  -5 8142.06 503.693   9
  -4   2  -5 7178.45 485.340  14
  -4   2  -5 8023.20 487.854  28
   4  -2   5 8383.20 478.007  13
   4  -2   5 7822.69 515.064  24
  -4   2  -5 7632.81 483.015  12
   4  -2   5 7281.24 477.018  19
  -4   2  -5 6931.65 462.280   6
  -4   2  -5 8902.82 552.111  34
  -4   2  -6 35009.8 1271.90  16
  -4   2  -6 34006.9 1221.72  14
   4  -2   6 33038.6 1228.64  24
  -4   2  -6 32330.3 1170.51  12
   4  -2   6 32861.5 1176.23  19
  -4   2  -6 33232.0 1186.78   6
  -4   2  -7 10854.5 627.492  14
   4  -2   7 9759.59 611.119  24
  -4   2  -7 9778.31 577.706  12
   4  -2   7 9608.89 575.534  19
  -4   2  -7 11112.0 614.165   6
  -4   2  -8 1390.31 227.309  14
  -4   2  -8 2107.35 258.875  12
  -4   2  -8 1804.23 220.177  11
  -4   2  -8 1828.43 249.567   6
  -4   2  -9 367.911 113.763   6
  -4   2  -9 410.122 122.971  16
  -4   2  -9 297.237 110.627  14
  -4   2  -9 163.053 86.3278  12
  -4   2 -10 12818.4 594.291  12
  -4   2 -10 12433.2 592.980   6
  -4   2 -10 13111.1 610.038  16
  -4   2 -11 22858.4 748.320  12
  -4   2 -11 20787.2 739.843   6
  -4   2 -11 21226.5 731.464  16
   4  -1 -12 4189.21 259.157  17
   4  -1 -11 8517.08 428.518  20
   4  -1 -10 403.245 96.3478  15
   4  -1 -10 572.848 127.867   5
   4  -1 -10 596.648 131.488  20
  -4   1  10 436.070 105.539  34
   4  -1  -9 8125.80 510.305   5
   4  -1  -9 8599.16 477.031  15
   4  -1  -9 8096.89 485.405  20
   4  -1  -9 7857.94 543.066  35
  -4   1   9 8035.26 490.773  34
   4  -1  -9 8392.49 521.461  17
   4  -1  -8 2521.03 297.246   5
   4  -1  -8 2253.78 260.251  20
   4  -1  -8 2607.17 311.197  35
  -4   1   8 2162.65 267.309  34
   4  -1  -8 2424.58 282.513  17
  -4   1   7 120.222 80.8713  25
  -4   1   7 24.9122 72.5713  23
   4  -1  -7 166.803 89.6008  35
  -4   1   7 220.026 98.0593  34
   4  -1  -7 102.011 76.7239  17
   4  -1  -6 17008.9 702.156  32
  -4   1   6 18197.5 851.513  25
  -4   1   6 17587.6 873.600  23
   4  -1  -6 19591.5 880.128  35
  -4   1   6 17155.7 799.181  34
   4  -1  -5 25806.1 951.876  32
  -4   1   5 27010.3 982.583   9
  -4   1   5 26509.8 985.357   8
  -4   1   5 26848.6 1041.02  25
  -4   1   5 26248.1 1093.73  23
   4  -1  -5 27036.3 1047.10  35
  -4   1   5 25126.6 994.767  34
   4  -1  -5 25546.8 953.219   1
   4  -1  -4 6238.19 419.591  32
  -4   1   4 6209.73 430.330   9
   4  -1  -4 5757.51 408.574  31
  -4   1   4 6597.49 444.669   8
   4  -1  -4 6349.31 418.124  13
   4  -1  -4 6472.05 401.858  24
  -4   1   4 6045.70 467.340  23
   4  -1  -4 6465.24 440.947  35
  -4   1   4 5891.79 418.413  34
  -4   1   3 15238.8 720.184   9
   4  -1  -3 15725.9 714.901  31
  -4   1   3 14587.3 712.476   8
   4  -1  -3 15859.4 692.013  13
   4  -1  -3 16076.3 667.789  24
   4  -1  -3 15700.2 682.274  35
  -4   1   3 14708.7 683.754  34
   4  -1  -3 14737.4 696.723  32
  -4   1   2 29969.7 1098.88   9
   4  -1  -2 30425.7 1090.97  31
  -4   1   2 30550.6 1117.00   8
   4  -1  -2 30476.9 1050.38  13
   4  -1  -2 31871.3 1032.76  24
  -4   1   2 29919.4 1126.18  23
   4  -1  -2 30605.8 996.251  35
  -4   1   2 31483.5 1071.91  34
   4  -1  -2 29915.8 1083.65  32
  -4   1   1 23594.5 954.955   9
  -4   1   1 24335.2 977.867   8
   4  -1  -1 23802.0 761.011  26
   4  -1  -1 27749.2 925.222  24
  -4   1   1 25128.8 978.873  23
   4  -1  -1 26544.8 941.458  19
  -4   1   1 25090.5 921.076  34
   4  -1   0 179570. 4175.52  31
   4  -1   0 174554. 4124.46  13
   4  -1   0 170815. 3949.84  26
   4  -1   0 185241. 4117.23  24
  -4   1   0 178618. 4189.49  23
   4  -1   0 185668. 4142.37  19
  -4   1   0 177247. 4129.98  34
   4  -1   0 181858. 4185.77  32
  -4   1  -1 2240.85 267.884   9
   4  -1   1 1925.59 231.018  31
  -4   1  -1 1769.50 237.024   8
   4  -1   1 1770.97 219.002  13
   4  -1   1 1894.49 219.486  24
  -4   1  -1 1605.64 207.926  23
   4  -1   1 2039.02 230.029  19
  -4   1  -1 1598.24 205.097  34
   4  -1   1 1778.74 220.603  32
  -4   1  -2 2038.08 256.155   9
   4  -1   2 2229.75 247.654  31
  -4   1  -2 1738.40 240.918   8
   4  -1   2 1749.22 219.883  13
   4  -1   2 1671.95 210.613  24
  -4   1  -2 1599.70 200.609  23
   4  -1   2 1904.59 226.328  19
  -4   1  -2 1758.97 219.924  34
   4  -1   2 1731.39 221.738  32
   4  -1   3 16370.0 725.780  32
  -4   1  -3 16520.9 776.281   9
   4  -1   3 15827.6 712.354  31
  -4   1  -3 16473.4 779.155   8
   4  -1   3 15926.3 720.249  13
   4  -1   3 16304.3 739.587  24
  -4   1  -3 16660.0 723.262   6
   4  -1   3 15431.6 729.419  19
  -4   1  -3 16985.9 751.539  34
   4  -1   4 2035.20 236.563  32
  -4   1  -4 2221.47 269.301   9
   4  -1   4 2509.79 259.383  31
  -4   1  -4 1536.51 212.570  14
  -4   1  -4 1756.06 247.793   8
   4  -1   4 1713.59 228.570  13
   4  -1   4 2039.76 251.767  24
  -4   1  -4 2600.36 281.098   6
   4  -1   4 1532.60 219.838  19
  -4   1  -4 2144.53 257.690  34
   4  -1   5 15791.1 672.232  32
  -4   1  -5 15097.2 748.465   6
  -4   1  -5 15949.2 729.191   9
  -4   1  -5 15943.0 731.808  14
   4  -1   5 15148.6 709.269  13
   4  -1   5 14324.4 745.236  24
   4  -1   5 15257.1 751.341  19
  -4   1  -6 11599.4 632.948  14
   4  -1   6 10489.2 569.033  13
   4  -1   6 11667.3 658.444  24
  -4   1  -6 11008.6 581.112  12
   4  -1   6 10674.1 631.428  19
  -4   1  -6 11714.7 657.401   6
  -4   1  -7 19742.3 886.905  16
  -4   1  -7 17145.7 815.396  14
   4  -1   7 17099.7 849.168  24
  -4   1  -7 17657.9 778.664  12
   4  -1   7 16564.6 818.213  19
  -4   1  -7 17790.7 845.896   6
  -4   1  -8 30474.6 1139.55  16
  -4   1  -8 28255.7 1104.89  14
  -4   1  -8 29142.2 1051.80  12
  -4   1  -8 29222.0 1129.42   6
  -4   1  -9 4725.96 372.085  16
  -4   1  -9 4407.24 370.726  14
  -4   1  -9 3466.87 308.713  12
  -4   1  -9 3795.34 352.701   6
  -4   1 -10 6874.86 433.888  14
  -4   1 -10 6855.79 396.724  12
  -4   1 -10 7132.33 438.598   6
   4  -1  10 6479.99 389.317  33
  -4   1 -10 7162.51 417.946  16
  -4   1 -11 112.194 52.1560  16
  -4   1 -11 64.2651 47.5998  12
   4   0 -12 3676.63 224.790  20
   4   0 -12 3675.24 234.286  17
   4   0 -11 197.891 73.6619  17
   4   0 -10 3514.84 291.472   5
   4   0 -10 3887.18 319.366  17
   4   0  -9 49937.3 1549.57   5
   4   0  -9 51510.4 1562.20  17
   4   0  -8 1059.05 191.415   5
   4   0  -8 1191.25 198.255  17
   4   0  -7 7235.71 502.674   5
  -4   0   7 6429.19 516.064  23
  -4   0   7 6585.69 433.858  34
   4   0  -7 7221.72 476.920  17
   4   0  -6 73.4322 49.3861  32
  -4   0   6 24.9055 51.2855  23
   4   0  -6 44.3662 58.9696  35
  -4   0   6 34.0621 49.5975  34
   4   0  -6 54.4940 52.8977  17
   4   0  -5 98.7209 58.7067  32
  -4   0   5 72.5678 61.0266   9
  -4   0   5 56.1804 49.8140   8
   4   0  -5 62.1152 65.1461   5
  -4   0   5 241.241 103.411  23
   4   0  -5 81.6323 68.6421  35
   4   0  -5 118.867 60.5869   1
  -4   0   5 82.7049 68.1393  34
   4   0  -5 232.884 83.9135  17
   4   0  -4 22844.4 891.949  32
   4   0  -4 22144.6 884.696   1
  -4   0   4 22793.8 918.558   9
  -4   0   4 23650.0 935.711   8
   4   0  -4 24794.3 894.254  13
   4   0  -4 22674.6 810.695  24
  -4   0   4 23004.0 995.844  23
   4   0  -4 22988.6 914.188  35
  -4   0   4 21780.1 851.415  34
   4   0  -3 100004. 2532.71   1
   4   0  -3 98562.9 2526.95  32
  -4   0   3 95301.3 2552.83   9
  -4   0   3 98823.2 2582.10   8
   4   0  -3 98063.8 2476.93  13
   4   0  -3 97056.5 2386.37  24
  -4   0   3 95605.0 2447.41  34
   4   0  -2 35058.6 1202.85  32
   4   0  -2 35956.1 1169.46   5
  -4   0   2 36570.2 1256.40   9
  -4   0   2 34765.2 1244.67   8
   4   0  -2 35777.8 1180.26  13
   4   0  -2 37382.5 1118.73  24
  -4   0   2 37344.1 1288.61  23
  -4   0   2 35764.8 1142.35  34
   4   0  -1 13719.2 610.798   5
  -4   0   1 13506.9 685.790   9
  -4   0   1 14584.3 713.882   8
   4   0  -1 12971.2 629.621  13
   4   0  -1 14998.9 620.260  24
  -4   0   1 15211.9 724.508  23
  -4   0   1 14174.5 625.473  34
   4   0   0 28461.3 1024.19  32
   4   0   0 27777.7 1030.45  31
   4   0   0 25531.4 896.508   5
   4   0   0 29351.9 965.344  24
  -4   0   0 29430.5 1062.88  23
  -4   0   0 27688.4 961.239  34
   4   0   1 2945.57 282.407  32
   4   0   1 3085.68 295.797  31
  -4   0  -1 2804.68 308.249   9
  -4   0  -1 2864.59 310.619   8
   4   0   1 2947.10 289.802  13
   4   0   1 3562.38 291.539  24
  -4   0  -1 3301.96 306.221  23
  -4   0  -1 3118.56 275.618  34
   4   0   2 18816.1 766.144  32
  -4   0  -2 16124.5 780.271   9
  -4   0  -2 16543.3 796.217   8
   4   0   2 16925.0 761.825  13
   4   0   2 17110.4 724.177  24
  -4   0  -2 15920.5 703.674  23
   4   0   2 17284.7 770.565  19
  -4   0  -2 17039.4 728.087  34
   4   0   2 17214.7 744.987   1
   4   0   3 48629.8 1467.19  32
   4   0   3 48001.1 1470.79   1
  -4   0  -3 50573.1 1588.23   9
  -4   0  -3 49865.7 1590.94   8
   4   0   3 50356.9 1539.69  13
   4   0   3 47155.0 1477.40  24
   4   0   3 48556.9 1547.34  19
  -4   0  -3 49546.3 1498.95  34
   4   0   4 61935.9 1683.52  32
  -4   0  -4 59034.7 1778.15   9
  -4   0  -4 61390.7 1823.91  30
   4   0   4 58017.1 1664.01   1
  -4   0  -4 57543.6 1654.59  14
  -4   0  -4 58769.4 1792.77   8
   4   0   4 56907.0 1748.89  13
   4   0   4 57712.6 1738.32  24
  -4   0  -4 58752.4 1795.87   6
   4   0   4 58828.6 1791.92  19
   4   0   5 4237.71 322.292  32
  -4   0  -5 4207.39 363.445   9
  -4   0  -5 4603.15 368.862  14
  -4   0  -5 4084.46 363.283   8
   4   0   5 4766.83 395.115  13
   4   0   5 4941.35 405.335  24
  -4   0  -5 4863.05 416.756   6
   4   0   5 4214.73 393.841  19
  -4   0  -6 13681.2 746.306  30
  -4   0  -6 13330.0 672.581  14
   4   0   6 13986.7 695.303  13
   4   0   6 12636.8 704.316  24
  -4   0  -6 13688.1 742.411   6
   4   0   6 13245.5 732.065  19
  -4   0  -7 13316.4 677.243  14
   4   0   7 12729.6 637.772  13
   4   0   7 12192.6 694.804  24
   4   0   7 11559.9 687.798  19
  -4   0  -7 13382.4 726.977   6
  -4   0  -8 118.212 77.7095  16
  -4   0  -8 116.766 80.1699  14
  -4   0  -9 114.284 69.9948  16
  -4   0  -9 88.3221 69.6630  14
   4   0   9 63.7366 68.3145  33
  -4   0 -10 15993.5 668.399  14
   4   0  10 16434.2 632.188  33
  -4   0 -10 15846.2 614.377  16
  -4   0 -11 231.020 71.7735   6
   4   1 -12 7983.53 326.932  17
   4   1 -11 7615.72 371.189  20
   4   1 -11 7268.08 381.220  17
   4   1 -10 13409.3 580.172   5
   4   1 -10 12276.5 511.222  21
   4   1 -10 14295.5 600.915  20
   4   1 -10 12979.7 588.108  17
   4   1  -9 609.496 132.812   5
   4   1  -9 534.623 108.827  21
   4   1  -9 410.704 112.496  20
   4   1  -9 265.909 88.7492  17
   4   1  -8 1104.97 193.692   5
   4   1  -8 950.669 154.014  21
   4   1  -8 1046.61 180.704  20
   4   1  -8 1167.42 183.311  17
   4   1  -7 3035.75 316.640   5
  -4  -1   7 2890.40 338.831  23
   4   1  -7 2729.95 263.689  21
   4   1  -7 3026.12 291.724  17
   4   1  -6 5797.68 379.294  32
  -4  -1   6 5618.07 477.568  23
   4   1  -6 5306.75 367.608  21
   4   1  -6 5684.52 390.193  17
   4   1  -5 253.991 92.3984  32
   4   1  -5 262.290 88.3539   1
  -4  -1   5 287.104 101.895   9
  -4  -1   5 337.096 108.152   8
   4   1  -5 238.359 85.1018  13
   4   1  -5 270.364 105.026   5
  -4  -1   5 202.374 104.308  23
   4   1  -5 344.751 96.1050  17
   4   1  -4 6519.09 434.580  32
  -4  -1   4 5962.31 446.770   9
   4   1  -4 6307.82 449.222   5
   4   1  -4 6787.29 418.916  13
  -4  -1   4 6391.83 461.098   8
   4   1  -4 6547.45 441.583   1
  -4  -1   4 6590.48 508.465  23
   4   1  -3 4978.73 382.269  32
   4   1  -3 4753.18 371.989   5
   4   1  -3 4597.52 367.255   1
  -4  -1   3 4083.72 369.402   8
   4   1  -3 4080.34 337.756  13
   4   1  -2 1023.76 177.507  32
  -4  -1   2 837.262 175.923   8
   4   1  -2 752.859 147.827  13
   4   1  -2 929.774 163.060   5
  -4  -1   2 1165.23 207.659  23
   4   1  -2 965.852 169.160   1
   4   1  -1 8626.32 483.635   5
  -4  -1   1 9665.93 586.014   8
   4   1  -1 9684.08 541.242  13
   4   1  -1 8727.94 422.926  24
  -4  -1   1 8994.67 575.434  23
   4   1  -1 10424.0 555.137  19
   4   1  -1 8619.06 432.380  33
   4   1   0 90950.7 2391.21  32
   4   1   0 94428.6 2393.16   1
   4   1   0 88808.7 2246.11   5
   4   1   0 87698.7 2375.47  13
   4   1   0 88532.9 2210.60  24
  -4  -1   0 90721.7 2450.87  23
   4   1   0 91510.7 2394.75  19
  -4  -1   0 91946.1 2258.29  34
   4   1   0 86002.6 2229.25  33
   4   1   1 267.688 97.2660  32
  -4  -1  -1 134.333 79.9073   8
   4   1   1 110.391 59.2309  24
  -4  -1  -1 99.0277 62.3741  23
   4   1   1 170.940 81.4690  19
   4   1   1 217.812 86.3656   1
  -4  -1  -1 305.096 89.7957  34
   4   1   2 224387. 5018.23  32
  -4  -1  -2 216035. 5076.51  30
   4   1   2 222580. 5017.30   1
  -4  -1  -2 225395. 5182.18   8
   4   1   2 213814. 5071.26  13
   4   1   2 216728. 4899.42  24
  -4  -1  -2 209696. 5000.64  23
   4   1   2 228563. 5102.23  19
  -4  -1  -2 221837. 4944.02  34
   4   1   3 843.412 155.033  32
   4   1   3 636.886 134.819   1
  -4  -1  -3 802.014 169.473  30
  -4  -1  -3 528.688 144.027   9
  -4  -1  -3 767.815 172.390   8
   4   1   3 548.977 142.590  13
   4   1   3 564.273 127.006  24
   4   1   3 717.537 159.205  19
   4   1   4 48742.3 1444.29  32
  -4  -1  -4 45736.9 1532.84   9
  -4  -1  -4 48339.2 1604.79  30
  -4  -1  -4 47419.2 1566.67   8
   4   1   4 48863.5 1574.64  13
   4   1   4 50290.3 1450.93   1
   4   1   4 45077.7 1465.14  24
   4   1   4 49888.1 1599.14  19
   4   1   5 14025.3 617.954  32
  -4  -1  -5 12107.4 648.620   9
  -4  -1  -5 14615.4 769.540  30
   4   1   5 14292.9 737.752  13
   4   1   5 12306.9 658.431  24
  -4  -1  -5 14020.2 753.039   6
  -4  -1  -6 38900.2 1265.52  14
   4   1   6 42071.9 1389.90  13
   4   1   6 40360.9 1338.23  33
  -4  -1  -7 23447.5 914.243  14
   4   1   7 23123.3 945.265  13
   4   1   7 24426.7 953.781  33
  -4  -1  -8 11890.2 591.067  16
  -4  -1  -8 10697.6 567.213  14
   4   1   8 11338.5 575.500  13
  -4  -1  -8 11439.7 645.992   6
   4   1   8 12534.0 614.184  33
  -4  -1  -9 949.907 140.556  16
  -4  -1  -9 914.804 164.578   6
  -4  -1  -9 642.513 132.050  14
   4   1   9 781.031 140.613  33
  -4  -1 -10 1230.49 153.308  14
  -4  -1 -10 1260.41 169.305   6
   4   1  10 1278.58 150.573  33
   4   2 -10 20436.6 708.123   5
   4   2 -10 20550.6 679.148  21
   4   2 -10 19221.2 682.985  20
   4   2 -10 20517.8 703.834  17
   4   2  -9 14880.6 655.794   5
   4   2  -9 14838.2 606.952  21
   4   2  -9 15000.7 626.507  20
   4   2  -9 14140.5 605.754  17
   4   2  -8 2297.45 263.061   5
   4   2  -8 2438.67 246.048  21
   4   2  -8 2575.69 257.437  20
   4   2  -8 2213.18 232.091  17
   4   2  -7 1056.30 191.299   5
   4   2  -7 1079.19 170.757  21
   4   2  -7 1030.63 160.840  17
  -4  -2   6 7359.89 553.090  23
   4   2  -6 6639.92 432.155  21
   4   2  -6 6134.73 385.715  17
   4   2  -5 1081.04 179.448  32
  -4  -2   5 1249.13 204.228   9
   4   2  -5 1312.62 211.132   5
  -4  -2   5 941.813 175.331   8
  -4  -2   5 742.823 176.754  23
   4   2  -5 1227.57 186.947   1
   4   2  -5 794.627 154.400  21
   4   2  -4 49767.7 1511.05  32
   4   2  -4 49692.9 1535.75   5
  -4  -2   4 47651.5 1565.33   8
   4   2  -4 48863.3 1505.47   1
  -4  -2   4 46362.9 1642.43  23
   4   2  -4 43807.0 1406.21  21
   4   2  -3 883.411 172.969  32
   4   2  -3 785.418 158.977   1
  -4  -2   3 765.343 174.970   8
   4   2  -3 654.014 135.446  13
   4   2  -3 629.778 140.604   5
   4   2  -3 746.912 143.886  21
   4   2  -2 5314.27 410.337  32
   4   2  -2 5101.26 387.246   5
  -4  -2   2 4675.16 426.262   8
   4   2  -2 4937.04 380.351  13
   4   2  -2 5740.77 422.939   1
  -4  -2   2 5636.35 472.217  23
   4   2  -2 4839.56 355.282  21
   4   2  -1 39813.8 1260.06   5
  -4  -2   1 40373.5 1428.44   8
   4   2  -1 36318.7 1266.98  13
  -4  -2   1 41884.4 1458.46  23
   4   2  -1 37967.7 1155.40  33
   4   2   0 9087.81 542.488  32
   4   2   0 8762.68 481.511   5
   4   2   0 8568.92 534.388  13
   4   2   0 9471.36 549.787   1
  -4  -2   0 8888.96 589.687  23
   4   2   0 9627.06 548.283  19
   4   2   0 8689.56 476.437  33
   4   2   1 6358.60 444.391  32
  -4  -2  -1 7001.42 470.864  30
  -4  -2  -1 6196.00 493.847   8
   4   2   1 6868.94 481.525  13
   4   2   1 6145.52 439.663   1
  -4  -2  -1 6046.29 472.414  23
   4   2   1 6424.54 453.665  19
   4   2   1 6633.62 424.826  33
   4   2   2 15118.5 715.922  32
  -4  -2  -2 16131.3 777.055  30
  -4  -2  -2 14950.3 797.772   8
   4   2   2 14769.0 710.035   1
  -4  -2  -2 15420.0 753.539  23
   4   2   2 16590.7 767.346  19
   4   2   2 15814.3 712.652  33
   4   2   3 39778.7 1281.29  32
  -4  -2  -3 37850.2 1365.59  30
  -4  -2  -3 36056.8 1358.69   8
   4   2   3 38121.3 1366.23  13
   4   2   3 40652.3 1280.91   1
  -4  -2  -3 37555.8 1225.32  37
   4   2   3 37184.4 1323.48  19
   4   2   3 37909.7 1276.26  33
   4   2   4 32500.5 1088.06  32
  -4  -2  -4 29957.5 1194.52  30
  -4  -2  -4 29284.3 1143.85   9
  -4  -2  -4 29271.4 1163.68   8
   4   2   4 29043.9 1174.69  13
   4   2   4 31947.7 1076.68   1
   4   2   4 30248.5 1169.14  19
   4   2   4 31151.1 1128.21  33
   4   2   5 9241.54 486.140  32
  -4  -2  -5 7126.66 484.068   9
  -4  -2  -5 8694.98 594.787  30
   4   2   5 9084.04 587.578  13
   4   2   5 8464.78 567.345  19
   4   2   6 1328.72 223.834  13
   4   2   6 1755.55 232.155  33
  -4  -2  -6 1421.67 235.879   6
   4   2   7 8366.50 529.002  13
  -4  -2  -7 7974.71 540.547   6
   4   2   7 9752.05 537.945  33
  -4  -2  -8 262.682 97.4861   6
  -4  -2  -8 345.224 85.7624  16
  -4  -2  -8 440.803 98.9802  14
   4   2   8 292.661 94.9566  13
   4   2   8 523.368 118.802  33
  -4  -2  -9 26469.6 824.124  14
   4   2   9 26967.4 861.234  13
  -4  -2  -9 27998.2 956.599   6
   4   2   9 29338.6 915.410  33
   4   3 -10 9903.17 395.787  21
   4   3  -9 995.715 144.122   5
   4   3  -9 865.945 133.309  21
   4   3  -8 287.514 96.9962   5
   4   3  -8 438.310 105.126  21
   4   3  -8 225.415 77.4703  20
   4   3  -7 11475.5 598.514   5
   4   3  -7 9761.20 528.131  21
   4   3  -7 10377.3 507.175  20
  -4  -3   6 5044.51 379.580   9
   4   3  -6 5323.41 361.946   2
   4   3  -6 5545.92 398.352  21
   4   3  -5 667.617 158.367   5
   4   3  -5 801.568 155.333  21
   4   3  -5 713.147 143.987   2
   4   3  -4-18.9788 45.1227  32
  -4  -3   4 70.4488 68.3766   8
   4   3  -4 40.1876 53.4116   5
  -4  -3   4-27.8352 66.1767  23
   4   3  -4 92.5688 76.2364  21
   4   3  -4 58.3151 56.6006   1
   4   3  -3 13212.5 680.041  32
   4   3  -3 12335.3 581.874  13
  -4  -3   3 11387.6 703.090   8
   4   3  -3 13336.4 670.697   5
   4   3  -3 13003.9 671.855   1
   4   3  -3 12248.3 631.968  21
   4   3  -2 751.749 164.624  32
  -4  -3   2 952.481 201.330   8
   4   3  -2 901.106 160.401  13
   4   3  -2 930.555 172.149   5
   4   3  -2 660.505 150.146   1
  -4  -3   2 779.529 190.816  23
   4   3  -2 835.123 162.938  21
  -4  -3   1 42564.0 1562.93   8
   4   3  -1 45906.7 1444.68  13
   4   3  -1 45516.7 1413.44   5
  -4  -3   1 47174.8 1638.68  23
   4   3  -1 43996.6 1309.32  33
   4   3   0 11644.5 631.457  32
   4   3   0 10542.1 608.799  13
   4   3   0 11173.9 568.016   5
  -4  -3   0 9785.09 660.305  23
   4   3   0 11492.7 630.329   1
   4   3   0 10634.9 548.289  33
   4   3   1 14540.2 719.454  32
  -4  -3  -1 13315.4 777.731   8
   4   3   1 14842.7 752.552  13
  -4  -3  -1 14068.4 715.243   7
  -4  -3  -1 15080.8 796.396  23
   4   3   1 14520.0 714.155   1
   4   3   1 13970.1 675.165  19
   4   3   1 14564.4 675.489  33
   4   3   2 51212.3 1549.51  32
  -4  -3  -2 48424.6 1558.21  30
  -4  -3  -2 44256.1 1605.15   8
   4   3   2 46648.8 1585.15  13
  -4  -3  -2 48681.4 1516.94   7
  -4  -3  -2 42899.6 1530.80  23
   4   3   2 49395.2 1527.78   1
   4   3   2 47447.0 1492.38  19
   4   3   2 50111.2 1501.93  33
   4   3   3 67653.1 1885.65  32
  -4  -3  -3 66685.1 1986.05  30
   4   3   3 66285.9 1864.96   1
   4   3   3 64310.4 1887.80  19
  -4  -3  -3 66435.5 1876.91  37
   4   3   3 69904.2 1915.26  33
   4   3   4 16113.0 690.367   2
   4   3   4 15953.9 808.771  13
  -4  -3  -4 15343.3 691.203  37
   4   3   4 16157.3 746.225  33
  -4  -3  -5 7308.18 468.715   9
   4   3   5 9506.19 589.732  13
   4   3   6 54729.0 1702.81  13
  -4  -3  -6 55501.5 1714.96   6
   4   3   6 56360.0 1636.20  33
   4   3   7 29457.0 1077.50  13
  -4  -3  -7 31362.4 1104.87   6
   4   3   7 31316.2 1043.23  33
   4   3   8 18649.5 734.750  13
  -4  -3  -8 20469.9 768.523   6
   4   3   8 20140.6 729.755  33
   4   3   9 990.363 118.507  13
   4   4  -9 15288.1 530.590  21
   4   4  -8 13133.4 557.714   5
   4   4  -8 12823.3 534.012  21
   4   4  -7 1222.73 172.686   5
   4   4  -7 1068.49 156.650  21
  -4  -4   6 2612.11 251.065   9
   4   4  -6 2533.23 257.347  21
   4   4  -5 17963.9 800.381   5
   4   4  -5 18785.4 755.857   2
   4   4  -5 19226.3 800.057  21
   4   4  -4 26924.0 982.345   2
   4   4  -4 25634.7 1001.46   5
   4   4  -4 24614.3 967.246  21
   4   4  -3 876.549 165.277   5
   4   4  -3 764.313 163.085  21
   4   4  -3 894.228 167.052   2
   4   4  -2 59040.0 1659.53  13
   4   4  -2 63486.3 1829.12   2
   4   4  -2 62537.4 1794.84   5
   4   4  -2 61094.8 1806.83  21
   4   4  -1 1657.02 216.471  13
   4   4  -1 1637.41 218.368   5
   4   4   0 10507.8 588.987   2
   4   4   0 9617.76 558.847  13
   4   4   0 10084.8 526.880  33
   4   4   1 3373.06 320.438   2
   4   4   1 3633.57 345.946  13
   4   4   1 3348.01 306.341  33
   4   4   2 6329.74 470.367  13
   4   4   2 6868.86 445.347   2
  -4  -4  -2 5523.52 425.676  37
   4   4   2 6007.76 418.902  33
   4   4   3 2288.28 282.517  13
   4   4   3 2422.22 252.749   2
  -4  -4  -3 2212.04 252.909  37
   4   4   3 2606.81 279.978  33
   4   4   4 10801.1 517.406   2
  -4  -4  -4 10253.2 535.146  37
   4   4   4 10775.5 567.518  33
  -4  -4  -5 7914.82 501.399   6
   4   4   5 9073.66 496.068  33
   4   4   6 845.154 156.437  13
  -4  -4  -6 741.442 144.247   6
   4   4   7 834.517 139.203  13
   4   4   7 936.365 136.379  33
  -4  -4  -7 978.991 146.118   6
   4   4   8 11210.7 459.791  13
   4   5  -8 2310.11 166.307  21
   4   5  -7 10395.5 444.521  21
   4   5  -6 4166.21 291.018  21
   4   5  -5 6892.38 377.585   2
   4   5  -5 7650.58 427.688  21
   4   5  -4 454.247 115.148  21
   4   5  -4 467.358 109.492   2
   4   5  -3 3145.07 284.827   2
   4   5  -3 3265.04 299.332  21
   4   5  -2 23016.3 881.718   2
   4   5  -2 21885.0 875.767  21
   4   5  -1 43886.2 1359.05   2
   4   5  -1 41335.3 1348.65  21
   4   5   0 4307.77 318.221  13
   4   5   0 5203.14 377.219   2
   4   5   0 4152.44 300.652  33
   4   5   1 7315.60 442.142  13
   4   5   1 7895.29 462.270   2
  -4  -5  -1 8066.94 492.932  37
   4   5   1 7763.94 434.189  33
   4   5   2 372.681 109.233  13
  -4  -5  -2 319.340 107.869  37
   4   5   2 425.392 107.766   2
   4   5   2 430.647 105.473  33
   4   5   3 1690.50 210.004  13
   4   5   3 1956.09 201.570   2
  -4  -5  -3 1558.93 196.533  37
   4   5   3 1855.48 206.999  33
   4   5   4 3131.65 278.000  13
  -4  -5  -4 3023.46 248.852  37
   4   5   4 3169.80 261.157  33
   4   5   5 54391.2 1502.30  13
  -4  -5  -5 54876.1 1483.40   6
   4   5   5 54338.8 1464.85  33
   4   5   7 10511.0 406.219  13
   4   6  -6 764.080 90.4944  21
   4   6  -5 7447.50 345.185  21
   4   6  -4 1618.53 165.449  21
  -4  -6   4 1503.44 170.003  37
   4   6  -3 19107.8 680.819   2
   4   6  -3 20623.6 716.714  21
  -4  -6   3 21432.9 762.644  37
   4   6  -2 14768.3 590.333   2
   4   6  -2 15113.0 606.066  21
  -4  -6   2 15752.8 648.234  37
   4   6  -1 9398.36 453.820   2
   4   6  -1 9278.68 457.718  21
   4   6   0 2700.11 230.715   2
   4   6   0 2779.46 240.483  21
  -4  -6   0 3255.26 269.707  37
   4   6   1 6891.45 364.891   2
   4   6   1 6261.73 361.525  21
  -4  -6  -1 7214.24 400.350  37
   4   6   2 16678.9 593.138   2
   4   6   2 17255.5 629.489  21
  -4  -6  -2 17678.1 646.415  37
   4   6   4 10393.7 392.196  13
  -5   8   4 534.031 73.2821  13
  -5   8   3 32741.4 859.305  18
  -5   8   2 9262.27 394.575  18
  -5   8   1 10584.7 450.271  18
   5  -8  -1 9822.63 468.857  32
  -5   8   0 3472.13 250.337  18
   5  -8   0 3169.73 259.450  32
   5  -8   1 111.936 55.3622  32
  -5   8  -2 19.1769 30.3984  11
  -5   8  -2 41.4542 42.6775  18
  -5   8  -3 2384.71 168.355  11
  -5   8  -3 2052.78 155.113  10
  -5   8  -3 2586.31 193.220  18
  -5   8  -4 1127.67 111.524  11
  -5   8  -4 656.141 87.4622  10
  -5   7   7 2745.21 172.513  13
  -5   7   5 19679.4 694.519  13
  -5   7   4 19612.3 708.576  13
   5  -7  -4 16977.4 640.838  32
  -5   7   3 4536.88 317.059  13
  -5   7   3 4250.72 313.022   9
   5  -7  -3 3900.50 305.521  32
   5  -7  -2 16.6052 59.2163  32
  -5   7   2 31.1296 55.5062   9
  -5   7   2 13.7256 39.9661  13
  -5   7   1 7183.25 401.729  13
  -5   7   1 7210.11 457.057   9
   5  -7  -1 6268.21 440.956  32
  -5   7   0 1925.80 236.524   9
   5  -7   0 1776.05 232.846  32
  -5   7  -1 7715.56 408.635  11
   5  -7   1 7813.43 494.462  32
  -5   7  -2 6735.26 391.393  11
  -5   7  -2 5899.67 362.788  10
   5  -7   2 6617.33 442.479  32
  -5   7  -3 4136.35 302.992  11
  -5   7  -3 3335.07 271.915  10
  -5   7  -3 3868.34 308.333   9
   5  -7   3 3479.21 295.671  32
  -5   7  -4 2861.87 247.831  11
  -5   7  -4 2570.92 234.178  10
  -5   7  -4 2262.51 208.818  18
  -5   7  -5 4886.35 314.296  11
  -5   7  -5 4535.75 304.332  10
  -5   7  -6 1638.74 165.525  11
  -5   7  -6 1645.22 169.166  10
  -5   7  -7 4716.73 250.609  10
  -5   6   8 8843.10 360.216  13
   5  -6  -8 8643.40 334.376  17
  -5   6   7 21807.2 744.983  13
  -5   6   6 2100.10 220.660  13
   5  -6  -6 2438.85 228.338  35
  -5   6   6 2313.46 218.426  34
  -5   6   5 364.408 92.4663   9
   5  -6  -5 814.296 140.852  35
  -5   6   5 689.439 128.605  34
  -5   6   4 5501.08 396.271  13
   5  -6  -4 5250.33 362.845  35
  -5   6   4 5295.39 375.140  34
  -5   6   4 5914.75 382.781   9
   5  -6  -4 5067.82 368.015  32
  -5   6   3 13062.6 645.398  13
  -5   6   3 13771.3 647.341  34
  -5   6   3 12622.0 636.117   9
   5  -6  -3 12051.9 641.888  32
  -5   6   2 2671.58 277.824  34
  -5   6   2 2711.11 297.931   9
   5  -6  -2 2254.90 283.913  32
  -5   6   1 32155.1 1034.60  11
  -5   6   1 33268.4 1156.72  34
  -5   6   1 35474.9 1240.29   9
  -5   6   0 19258.0 777.168  11
  -5   6   0 20339.1 837.520  34
  -5   6   0 20185.4 899.324   9
   5  -6   0 20904.9 934.701  32
   5  -6   1 969.244 197.800  32
  -5   6  -1 951.317 166.839  11
  -5   6  -1 904.657 151.140  10
  -5   6  -1 967.217 166.996  34
   5  -6   2 1118.14 199.115  32
  -5   6  -2 991.736 188.235   9
  -5   6  -2 1002.74 177.330  11
  -5   6  -2 1119.19 178.423  10
  -5   6  -2 1054.83 171.361  34
  -5   6  -3 13733.5 647.625  10
  -5   6  -3 12120.8 595.394  34
  -5   6  -3 13888.3 688.625   9
   5  -6   3 12506.7 664.938  32
  -5   6  -4 7447.98 468.283  11
  -5   6  -4 7244.70 453.980  10
  -5   6  -4 7564.53 458.465   9
   5  -6   4 6135.25 416.556  32
  -5   6  -5 687.391 144.188  11
  -5   6  -5 508.219 125.331  10
  -5   6  -6 214.018 62.8318  16
  -5   6  -6 163.036 78.8870  10
  -5   6  -7 3751.47 271.032  11
  -5   6  -7 3475.08 213.503  16
  -5   6  -8 21400.2 666.447  11
  -5   6  -8 23766.5 711.992  10
   5  -5  -9 513.742 79.3271  17
  -5   5   8 907.834 130.324  13
   5  -5  -8 989.429 139.259  35
   5  -5  -8 1189.58 142.497  17
  -5   5   7 1218.27 173.455  13
   5  -5  -7 1141.83 168.244  35
  -5   5   6 25908.6 950.057  13
   5  -5  -6 23177.4 906.209  35
  -5   5   6 24447.0 922.848  34
   5  -5  -5 4197.63 348.517  35
  -5   5   5 4052.90 350.890  34
  -5   5   5 4038.20 319.342   9
   5  -5  -5 3332.74 294.617  32
   5  -5  -4 6544.64 446.450  35
  -5   5   4 7073.42 487.957  34
  -5   5   4 7577.67 479.245   9
   5  -5  -4 7707.28 491.978  32
  -5   5   3 2676.40 301.596  34
  -5   5   3 2500.24 287.026   9
   5  -5  -3 3077.14 329.602  32
  -5   5   2 15665.6 773.310  34
  -5   5   2 15090.1 766.326   9
   5  -5  -2 15946.1 809.647  32
  -5   5   1 366.324 130.603   9
  -5   5   1 174.865 86.3002  34
  -5   5   0 18294.4 757.369  10
  -5   5   0 21354.6 919.180  34
  -5   5   0 21403.5 945.722   9
   5  -5   0 20421.9 959.591  32
  -5   5  -1 28517.6 1015.36  10
  -5   5  -1 28848.9 1104.00  34
   5  -5   1 25585.3 1113.64  32
  -5   5  -2 16945.7 765.949  10
  -5   5  -2 17538.5 814.469  34
  -5   5  -2 17737.1 861.295   9
   5  -5   2 16939.4 841.589  32
  -5   5  -3 6247.11 449.185  10
  -5   5  -3 6042.10 446.408  34
  -5   5  -3 6145.93 462.408   9
   5  -5   3 5710.65 450.392  32
  -5   5  -4 140.579 64.7278  16
   5  -5   4-18.8804 44.8979  32
  -5   5  -4 58.0357 56.3367   9
  -5   5  -4 179.532 88.7279  10
  -5   5  -4 38.0921 64.0434  34
  -5   5  -5 11750.0 619.595  10
  -5   5  -5 10938.7 552.713   9
  -5   5  -5 10264.8 514.407  16
   5  -5   5 9797.21 517.843  32
  -5   5  -6 11285.0 583.715  11
  -5   5  -6 10884.4 580.922  10
  -5   5  -6 9798.54 498.467  16
  -5   5  -7 16894.2 694.594  11
  -5   5  -7 16947.2 656.817  16
  -5   5  -8 1881.31 183.465  11
  -5   5  -8 2136.97 207.791  10
  -5   5  -8 2032.77 189.285  16
  -5   5  -9 6067.79 288.827  10
  -5   5  -9 5758.66 282.448  16
   5  -4 -10 15002.0 484.739  17
   5  -4  -9 20737.7 721.525   5
  -5   4   9 20061.9 634.414  13
   5  -4  -9 22910.9 763.275  35
  -5   4   9 21448.1 732.729  34
   5  -4  -9 23086.2 730.323  17
  -5   4   8 38734.9 1157.93  13
   5  -4  -8 38491.9 1212.59  35
  -5   4   8 39046.0 1205.57  34
   5  -4  -8 39471.2 1177.23  17
  -5   4   7 5901.09 399.526  13
   5  -4  -7 5242.96 390.187  35
  -5   4   7 5011.94 382.342  34
   5  -4  -6 2049.57 253.602  35
  -5   4   6 1765.18 239.977  34
   5  -4  -5 154.737 79.1824  32
  -5   4   5 101.658 75.3878   9
   5  -4  -5 98.3810 77.6024  35
  -5   4   5 85.2176 71.6607  34
   5  -4  -4 2209.39 259.431  35
  -5   4   4 2233.66 282.406  34
  -5   4   4 2238.81 268.255   9
   5  -4  -4 2786.34 303.137  32
  -5   4   3 10880.5 632.132   9
   5  -4  -3 10979.8 650.779  32
   5  -4  -2 20122.0 941.772  31
  -5   4   2 21025.2 927.921  28
   5  -4  -2 19104.9 850.931  24
  -5   4   2 20170.7 959.919  23
   5  -4  -2 21811.6 969.639  32
  -5   4   2 20494.2 930.533   9
   5  -4  -1 33575.4 1297.26  31
  -5   4   1 34139.3 1271.91  28
   5  -4  -1 31528.6 1094.70  26
   5  -4  -1 34152.8 1187.96  24
  -5   4   1 35054.1 1305.52  23
  -5   4   1 35188.2 1300.35   9
  -5   4   0 10751.8 656.673   9
   5  -4   0 9614.40 628.882  31
  -5   4   0 9410.98 608.571  28
   5  -4   0 8684.85 507.787  26
   5  -4   0 9702.49 562.701  24
  -5   4   0 9664.15 601.872  23
   5  -4   0 10129.9 639.990  32
   5  -4   1 2542.57 317.399  31
  -5   4  -1 2731.45 323.741  28
   5  -4   1 2350.21 257.678  26
   5  -4   1 2532.55 280.135  24
  -5   4  -1 2647.37 312.593  34
   5  -4   1 2714.57 322.556  32
  -5   4  -1 3174.30 346.058   9
  -5   4  -2 1374.82 186.537  16
   5  -4   2 1363.54 225.422  31
  -5   4  -2 1458.20 235.685  28
   5  -4   2 1290.38 195.065  26
   5  -4   2 1575.36 225.482  24
  -5   4  -2 1560.53 240.690  34
  -5   4  -2 1479.06 244.000   9
   5  -4   2 1568.44 249.012  32
  -5   4  -3 20639.4 817.718  16
  -5   4  -3 20878.5 920.128  34
  -5   4  -3 19334.4 899.928   9
   5  -4   3 19141.0 889.609  32
   5  -4   4 77.6457 69.2335  32
  -5   4  -4 70.4698 72.5547  16
  -5   4  -4 20.8765 55.5036   9
  -5   4  -4 129.876 85.3470  34
   5  -4   5 8990.51 501.265  32
  -5   4  -5 10006.3 546.713  16
  -5   4  -5 9096.75 525.673   9
  -5   4  -6 2479.13 269.577  16
  -5   4  -7 18526.4 765.897  11
  -5   4  -7 19013.8 766.543  16
  -5   4  -8 2433.12 219.466  11
  -5   4  -8 2218.29 232.319  10
  -5   4  -8 2511.20 240.218  16
  -5   4  -9 4932.96 289.083  10
  -5   4  -9 5209.97 306.671  16
  -5   4 -10 25484.5 710.384  16
   5  -3 -10 2979.31 168.727  20
   5  -3 -10 3123.53 213.522  17
   5  -3  -9 709.776 126.313   5
   5  -3  -9 639.869 97.9351  20
  -5   3   9 734.366 123.666  34
  -5   3   8 1454.03 175.240  13
   5  -3  -8 1008.70 140.308  20
   5  -3  -8 1292.58 188.211  35
  -5   3   8 1213.10 184.578  34
   5  -3  -7 22029.5 769.074  20
   5  -3  -7 21484.8 887.575  35
  -5   3   7 19727.3 849.688  34
   5  -3  -6 10119.9 500.603  20
   5  -3  -6 10706.8 603.466  35
  -5   3   6 10769.4 610.694  34
   5  -3  -5 16555.5 739.362  32
   5  -3  -5 17067.3 781.729  35
  -5   3   5 17065.3 813.752  34
  -5   3   5 16057.2 736.400   9
  -5   3   4 9545.52 579.394   9
  -5   3   4 9880.62 659.167  23
   5  -3  -4 10023.3 566.421  35
  -5   3   4 10667.5 627.629  34
   5  -3  -4 10641.9 606.970  32
   5  -3  -3 1376.43 225.967  31
  -5   3   3 1248.50 217.420   9
  -5   3   3 1000.02 190.573  28
   5  -3  -3 1111.41 181.898  24
  -5   3   3 857.904 191.793  23
  -5   3   3 924.550 192.717  34
   5  -3  -3 1506.60 237.117  32
  -5   3   2 19971.8 911.537   9
   5  -3  -2 18404.1 888.186  31
  -5   3   2 19211.6 882.096  28
   5  -3  -2 19755.5 833.446  24
  -5   3   2 18903.6 922.501  23
  -5   3   2 18016.1 863.439  34
   5  -3  -2 20129.3 917.946  32
  -5   3   1 130416. 3398.22   9
  -5   3   1 134762. 3388.07  28
   5  -3  -1 131558. 3263.83  24
  -5   3   1 128905. 3396.79  23
  -5   3   1 132685. 3368.40  34
  -5   3   0 7985.59 559.872   9
   5  -3   0 8372.14 572.091  31
  -5   3   0 8467.11 566.452  28
   5  -3   0 9813.08 567.883  13
   5  -3   0 7080.60 434.506  26
   5  -3   0 7759.72 504.888  24
  -5   3   0 7433.88 526.681  23
  -5   3   0 9035.13 569.946  34
   5  -3   0 8237.06 561.584  32
   5  -3   1 628.246 159.244  32
   5  -3   1 542.739 148.807  31
  -5   3  -1 388.938 141.957   9
  -5   3  -1 612.374 156.243  28
   5  -3   1 569.182 127.207  26
   5  -3   1 443.838 125.063  13
  -5   3  -1 586.290 149.620  34
  -5   3  -2 28881.1 1161.68   9
   5  -3   2 26898.9 1104.04  31
  -5   3  -2 28386.3 1135.25  28
   5  -3   2 29979.7 1090.38  13
   5  -3   2 26142.6 993.702  26
  -5   3  -2 28482.1 1126.20  34
   5  -3   2 28856.1 1132.89  32
  -5   3  -3 4364.84 399.992   9
  -5   3  -3 4431.03 370.294  16
   5  -3   3 3823.23 366.081  31
  -5   3  -3 3795.84 373.027  28
   5  -3   3 4528.18 370.435  13
   5  -3   3 4263.11 361.508  26
   5  -3   3 3787.63 331.849  19
  -5   3  -3 4470.20 397.675  34
   5  -3   3 4030.31 370.453  32
   5  -3   4 876.773 167.402  32
  -5   3  -4 665.828 150.789  16
  -5   3  -4 1053.34 198.698   9
   5  -3   4 979.007 166.370  13
   5  -3   5 2219.41 240.957  32
  -5   3  -5 2578.71 291.317  16
  -5   3  -5 2205.62 260.801   9
  -5   3  -6 1810.73 243.592  16
  -5   3  -7 17559.3 767.313  16
  -5   3  -7 16179.7 718.774  11
  -5   3  -8 6521.57 413.743  10
  -5   3  -8 6867.15 419.830  16
  -5   3  -9 2479.79 213.809  10
  -5   3  -9 2748.17 236.051  16
   5  -2 -10 19995.0 632.976  20
   5  -2 -10 20885.9 681.497  17
   5  -2  -9 11759.1 547.184   5
   5  -2  -9 12343.6 506.893  20
  -5   2   9 10720.9 497.745  34
   5  -2  -9 13282.0 556.343  17
   5  -2  -8 36250.0 1082.35  20
  -5   2   8 32562.9 1095.76  34
   5  -2  -8 33444.0 1108.17  17
   5  -2  -7 824.015 166.080   5
   5  -2  -7 607.180 125.226  20
   5  -2  -7 710.821 152.721  35
  -5   2   7 613.888 136.428  34
   5  -2  -7 728.537 144.981  17
   5  -2  -6 21516.3 904.511  35
  -5   2   6 20625.4 878.665  34
   5  -2  -5 71.1710 70.1575  32
  -5   2   5 37.0072 69.5652   9
   5  -2  -5 158.627 84.9906  35
  -5   2   5 20.7023 69.6145  34
   5  -2  -4 50656.0 1559.25  32
  -5   2   4 47102.6 1543.22   9
   5  -2  -4 49410.1 1566.69  31
  -5   2   4 47875.5 1525.44  28
   5  -2  -4 47620.8 1481.48  24
  -5   2   4 45496.1 1634.64  23
   5  -2  -4 49730.0 1505.93  35
  -5   2   4 47881.7 1565.73  34
   5  -2  -3 61812.6 1832.43  32
  -5   2   3 57670.3 1804.83   9
   5  -2  -3 59959.3 1830.04  31
  -5   2   3 58184.2 1789.81  28
   5  -2  -3 57240.8 1704.30  24
  -5   2   3 58991.4 1908.17  23
  -5   2   3 60078.5 1809.45  34
   5  -2  -2 30672.4 1159.14  32
  -5   2   2 28133.5 1138.68   9
   5  -2  -2 29510.2 1152.21  31
  -5   2   2 29448.3 1134.34  28
   5  -2  -2 29217.9 1060.15  24
  -5   2   2 28123.4 1172.62  23
  -5   2   2 28109.1 1108.85  34
  -5   2   1 8069.37 559.693   9
   5  -2  -1 9083.68 552.436  13
   5  -2  -1 7920.40 497.784  24
  -5   2   1 7213.43 533.473  23
  -5   2   1 8077.49 528.020  34
   5  -2   0 1471.65 232.514  31
   5  -2   0 1735.32 243.560  13
   5  -2   0 1567.71 224.942  24
  -5   2   0 1444.38 226.391  23
  -5   2   0 1681.35 236.771  34
   5  -2   0 1696.11 245.509  32
   5  -2   1 311.285 115.377  32
   5  -2   1 248.125 107.436  31
  -5   2  -1 243.131 108.319   9
   5  -2   1 407.015 123.509  13
   5  -2   1 341.877 109.727  24
  -5   2  -1 365.525 120.045  34
   5  -2   2 149.464 88.0846  32
   5  -2   2 197.604 94.2528  31
  -5   2  -2 434.199 140.574   9
  -5   2  -2 233.269 103.888  28
   5  -2   2 277.121 93.0831  26
   5  -2   2 320.682 109.308  13
   5  -2   2 306.981 106.174  24
   5  -2   2 330.677 106.093  19
  -5   2  -2 303.660 112.511  34
  -5   2  -3 1798.93 260.911   9
   5  -2   3 1168.39 199.922  32
   5  -2   3 1405.72 215.368  31
  -5   2  -3 1642.98 243.111  28
   5  -2   3 1577.89 230.193  13
   5  -2   3 1449.18 204.989  26
   5  -2   3 1817.04 251.454  24
   5  -2   3 1542.94 220.020  19
  -5   2  -3 2077.31 270.680  34
  -5   2  -4 167.603 70.2726   6
   5  -2   4 276.292 95.5311  32
  -5   2  -4 390.423 123.722   9
   5  -2   4 239.928 98.2021  13
   5  -2   4 232.805 97.5254  24
   5  -2   4 136.802 73.5828  19
  -5   2  -4 196.534 93.6859  34
  -5   2  -5 19630.2 830.537   9
   5  -2   5 18854.4 763.841  32
  -5   2  -5 19721.6 880.437  16
   5  -2   5 19948.9 798.854  13
  -5   2  -5 17730.4 749.589   6
  -5   2  -6 867.991 148.664   6
  -5   2  -6 794.836 174.853  16
  -5   2  -7 58.7595 52.3978   6
  -5   2  -7 56.8454 71.2357  16
  -5   2  -8 1308.44 163.347   6
  -5   2  -9 24691.3 788.012  10
   5  -2   9 23085.1 781.108  33
  -5   2 -10 17892.1 581.931  16
   5  -1 -11 2527.54 148.026  20
   5  -1 -10 485.851 86.5269  20
   5  -1 -10 510.899 92.2609  17
   5  -1  -9 410.085 104.149   5
   5  -1  -9 165.734 70.5164  20
   5  -1  -9 222.312 70.5650  17
   5  -1  -8 1249.01 175.951  20
   5  -1  -8 1011.49 158.419  17
   5  -1  -7 7572.43 497.235   5
  -5   1   7 7161.10 436.763  34
   5  -1  -7 8060.67 466.180  17
   5  -1  -6 15902.0 656.807  32
   5  -1  -6 16780.9 786.148   5
  -5   1   6 15915.5 713.069  34
   5  -1  -6 15860.0 702.353  17
   5  -1  -5 58635.7 1696.42  32
  -5   1   5 58743.4 1731.89   9
   5  -1  -5 58370.3 1796.83   5
  -5   1   5 57989.5 1717.70  34
   5  -1  -5 59508.7 1678.27  17
   5  -1  -4 1397.37 212.545  32
  -5   1   4 1526.41 232.316   9
   5  -1  -4 1475.37 218.432   1
   5  -1  -4 1585.45 230.455   5
  -5   1   4 1579.50 233.585   8
  -5   1   4 1551.07 219.851  25
  -5   1   4 1590.84 259.136  23
  -5   1   4 1097.96 183.725  34
   5  -1  -3 984.665 187.435  32
  -5   1   3 735.772 166.722   9
   5  -1  -3 1415.79 217.687  13
  -5   1   3 1071.88 200.741   8
   5  -1  -3 948.640 175.374   5
   5  -1  -3 874.079 151.909  24
  -5   1   3 1206.96 223.130  23
   5  -1  -3 1149.38 197.343   1
  -5   1   3 959.484 174.873  34
   5  -1  -2 17724.7 820.377  32
  -5   1   2 16820.9 827.077   9
   5  -1  -2 16769.3 747.893   5
  -5   1   2 16334.0 834.046   8
   5  -1  -2 16592.3 776.022  13
   5  -1  -2 15806.6 710.140  24
  -5   1   2 16821.1 853.338  23
  -5   1   2 16843.2 768.193  34
   5  -1  -2 15830.7 787.939   1
  -5   1   1 135124. 3419.64   9
   5  -1  -1 129882. 3176.25   5
  -5   1   1 134548. 3442.58   8
   5  -1  -1 131095. 3211.35  24
  -5   1   1 130520. 3398.54  23
  -5   1   1 131050. 3275.14  34
   5  -1   0 12256.6 674.329  32
   5  -1   0 12731.8 697.974  31
   5  -1   0 13870.7 697.819  13
   5  -1   0 12432.9 630.430  24
  -5   1   0 12079.3 680.650  23
  -5   1   0 13167.5 670.359  34
   5  -1   1 118846. 3075.32  32
  -5   1  -1 117490. 3170.08   9
  -5   1  -1 116216. 3191.04   8
   5  -1   1 120857. 3077.30  13
   5  -1   1 119439. 3019.28  24
   5  -1   1 123495. 3073.85  19
  -5   1  -1 121452. 3053.02  34
   5  -1   2 17783.3 810.601  32
  -5   1  -2 17895.0 874.591   9
  -5   1  -2 16779.6 870.332   8
   5  -1   2 17077.7 801.681  13
   5  -1   2 17833.7 798.631  24
  -5   1  -2 17162.9 729.214   6
   5  -1   2 16213.0 789.528  19
  -5   1  -2 16920.6 793.259  34
   5  -1   2 17500.6 810.667   1
   5  -1   3 867.986 167.892  32
  -5   1  -3 1007.67 203.596   9
  -5   1  -3 1276.04 228.535   8
   5  -1   3 985.839 183.584  13
   5  -1   3 849.457 165.805  24
   5  -1   3 827.413 170.134  19
   5  -1   3 735.010 154.094   1
  -5   1  -3 1108.36 191.408  34
  -5   1  -3 781.595 151.870   6
   5  -1   4 370.011 108.920  32
  -5   1  -4 129.533 81.2734   9
   5  -1   4 218.018 91.3540  13
  -5   1  -4 242.038 99.0742   6
   5  -1   5 1877.96 214.074  32
  -5   1  -5 2177.13 256.249   9
   5  -1   5 2320.02 260.623  13
  -5   1  -5 2254.86 261.093   6
  -5   1  -6 1018.96 175.575   6
  -5   1  -6 1050.16 191.235  16
   5  -1   6 1001.57 162.753  13
  -5   1  -7 12736.2 612.997   6
  -5   1  -8 1459.71 192.890  16
  -5   1  -8 1367.90 177.406   6
   5  -1   8 1533.10 188.430  33
  -5   1  -9-11.3707 40.5489  16
  -5   1  -9-21.6320 38.5706   6
   5  -1   9 32.4325 33.9999  33
  -5   1 -10 1664.52 134.957  16
   5   0  -9 21642.0 767.364   5
   5   0  -9 21423.8 713.547  17
   5   0  -8 5503.06 356.558  20
   5   0  -8 4904.98 321.506  17
   5   0  -7 4351.97 361.427   5
   5   0  -7 4004.10 301.357  17
   5   0  -6 20269.8 744.605  32
   5   0  -6 19869.6 864.783   5
   5   0  -6 18786.7 737.079  17
   5   0  -5 45567.4 1394.87  32
  -5   0   5 45299.2 1438.46   9
   5   0  -5 46546.9 1487.38   5
   5   0  -5 44079.7 1303.42  17
   5   0  -4 7058.70 466.761  32
  -5   0   4 6206.99 458.410   9
   5   0  -4 6160.34 446.623   5
   5   0  -3 16229.1 770.649  32
  -5   0   3 16174.8 802.998   9
   5   0  -3 16255.1 751.041   5
   5   0  -3 15803.8 765.948   1
  -5   0   3 16176.3 819.009   8
   5   0  -3 16535.8 750.449  13
  -5   0   3 15473.1 832.240  23
  -5   0   3 15225.5 683.097  34
   5   0  -2 34251.8 1228.98  32
  -5   0   2 33811.7 1274.97   9
   5   0  -2 34545.5 1237.06   1
   5   0  -2 32146.3 1137.48   5
  -5   0   2 32847.4 1286.67   8
   5   0  -2 34570.7 1205.61  13
  -5   0   2 33152.6 1294.54  23
  -5   0   2 33829.6 1131.96  34
  -5   0   1 24813.4 1068.25   9
   5   0  -1 25369.9 920.461   5
  -5   0   1 24468.4 1081.21   8
   5   0  -1 26667.4 1018.07  13
  -5   0   1 23405.9 1041.93  23
  -5   0   1 25204.8 937.449  34
   5   0   0 9082.39 556.909  32
   5   0   0 8929.75 559.481   1
   5   0   0 7547.53 458.236  24
  -5   0   0 7768.69 543.626  23
  -5   0   0 8530.27 498.941  34
   5   0   0 8468.28 451.330  33
   5   0   1 7219.40 490.902  32
  -5   0  -1 6942.55 525.142   9
   5   0   1 7839.66 512.450   1
  -5   0  -1 6341.02 520.992   8
   5   0   1 7261.18 497.908  13
   5   0   1 6266.31 425.044  24
  -5   0  -1 6703.40 446.839  34
   5   0   1 6318.93 412.883  33
   5   0   2 7849.75 500.764  32
  -5   0  -2 7282.85 536.321   9
   5   0   2 7057.05 484.922   1
  -5   0  -2 7542.95 556.871   8
   5   0   2 7294.70 503.724  13
   5   0   2 6654.23 451.319  24
  -5   0  -2 7144.60 464.092  34
   5   0   3 23844.2 922.291  32
  -5   0  -3 24523.6 1024.32   9
  -5   0  -3 23336.3 1026.30   8
   5   0   3 21953.4 897.876   1
   5   0   3 23161.1 964.900  13
   5   0   3 20801.6 880.074  24
  -5   0  -3 21892.5 920.398   6
   5   0   3 20725.3 934.937  19
   5   0   4 12552.6 608.228  32
  -5   0  -4 12253.5 664.907   9
   5   0   4 12234.4 658.384  13
  -5   0  -4 11714.5 647.696   6
   5   0   5 424.816 101.338  32
  -5   0  -5 400.357 109.805   9
   5   0   5 541.905 132.420  13
  -5   0  -5 325.885 116.411   6
   5   0   6 5563.60 390.980  13
  -5   0  -6 5643.07 418.981   6
  -5   0  -7 884.864 157.778   6
  -5   0  -7 1014.56 172.734  16
   5   0   7 925.742 143.848  13
   5   0   7 898.210 151.820  33
  -5   0  -8 11050.9 509.303  16
  -5   0  -8 9407.75 489.511   6
   5   0   8 10868.0 504.890  33
  -5   0  -9 1091.01 127.824  16
   5   1 -10 1439.78 123.012  20
   5   1  -9 1359.23 155.724   5
   5   1  -9 1498.25 154.010  20
   5   1  -8 9229.29 454.385  20
   5   1  -7 16204.0 713.119   5
   5   1  -6 14110.5 681.703   5
   5   1  -5 2711.01 266.792  32
  -5  -1   5 3145.35 305.839   9
   5   1  -5 2643.13 287.211   5
   5   1  -4 201.600 87.1501  32
  -5  -1   4 105.313 75.1204   9
   5   1  -4 32.0615 46.6930  13
   5   1  -4 38.1798 45.4010   5
   5   1  -3 2679.78 291.041  32
  -5  -1   3 2054.80 277.136   9
   5   1  -3 2602.88 274.086   5
   5   1  -3 2482.61 268.652  13
   5   1  -2 13390.2 680.728  32
  -5  -1   2 11338.5 682.517   9
  -5  -1   2 11835.7 714.993   8
   5   1  -2 12643.3 622.331   5
   5   1  -2 13147.9 656.737  13
   5   1  -2 12826.2 679.167   1
  -5  -1   2 11085.3 699.467  23
  -5  -1   1 9720.14 621.770   9
  -5  -1   1 8829.00 613.933   8
   5   1  -1 9303.92 502.674   5
   5   1  -1 9519.44 559.295  13
  -5  -1   1 7977.12 576.307  23
   5   1   0 36984.6 1287.20  32
   5   1   0 36787.4 1284.92  13
   5   1   0 37347.4 1292.26   1
  -5  -1   0 32843.7 1279.82  23
   5   1   1 184489. 4276.48  32
  -5  -1  -1 178293. 4397.08   9
  -5  -1  -1 169798. 4397.78   8
   5   1   1 183711. 4277.03   1
   5   1   1 180881. 4296.92  19
   5   1   1 175751. 4100.20  33
   5   1   2 1338.36 204.011  32
  -5  -1  -2 1402.68 235.285   9
   5   1   2 1546.11 234.711  13
   5   1   2 1435.92 198.543  33
   5   1   3 8845.08 510.986  32
  -5  -1  -3 7970.87 546.927   9
   5   1   3 8897.76 556.984  13
   5   1   3 8211.27 495.298  33
   5   1   4 2614.82 256.544  32
  -5  -1  -4 2285.72 274.738   9
   5   1   4 2137.99 272.388  13
  -5  -1  -4 2348.06 280.825   6
   5   1   4 2700.09 279.171  33
  -5  -1  -5 5941.10 398.363   9
   5   1   5 6557.03 453.496  13
  -5  -1  -5 6671.66 467.271   6
   5   1   5 5874.66 406.115  33
   5   1   6 14173.5 647.121  13
  -5  -1  -6 12813.6 647.021   6
   5   1   6 13153.1 613.219  33
  -5  -1  -7 4259.14 307.519  16
   5   1   7 3487.73 275.227  13
  -5  -1  -7 3680.18 308.012   6
  -5  -1  -8 2018.52 178.208  16
   5   1   8 1787.23 158.762  13
  -5  -1  -8 2391.67 218.079   6
   5   1   8 1982.54 189.222  33
   5   2  -9 18636.5 556.360  20
   5   2  -8 244.528 69.0890  20
   5   2  -7 5802.48 370.809   5
   5   2  -7 5482.37 332.616  20
   5   2  -6 9066.32 502.253   5
  -5  -2   5 17252.6 738.863   9
   5   2  -5 16787.0 738.255   5
   5   2  -4 4254.60 344.270  32
  -5  -2   4 4288.87 366.841   9
   5   2  -4 3893.08 337.299   5
   5   2  -3 46458.2 1454.46  32
  -5  -2   3 45722.0 1521.80   9
   5   2  -3 45942.0 1367.04  13
   5   2  -3 45445.2 1411.53   5
   5   2  -2 12310.1 642.512  32
  -5  -2   2 12158.0 687.121   9
   5   2  -2 11049.0 578.035  13
   5   2  -2 11534.1 576.553   5
  -5  -2   1 6994.25 518.326   9
   5   2  -1 6721.43 453.567  13
   5   2  -1 6453.31 403.658   5
   5   2   0 1171.40 195.510  32
   5   2   0 1113.51 191.930  13
   5   2   1 12299.1 635.104  32
  -5  -2  -1 12007.2 691.762   9
   5   2   1 12343.6 655.792  13
   5   2   1 10961.8 539.384  33
   5   2   2 4633.42 368.233  32
  -5  -2  -2 4709.61 418.339   9
   5   2   2 4819.37 354.333  33
   5   2   3 26123.0 950.186  32
  -5  -2  -3 25249.1 1020.27   9
   5   2   3 26411.1 944.046  33
  -5  -2  -4 11517.2 592.728   9
   5   2   4 11215.6 615.402  13
  -5  -2  -4 11129.5 614.916   6
   5   2   4 11967.4 573.184  33
   5   2   5 1734.61 225.058  13
  -5  -2  -5 1880.12 239.218   6
   5   2   5 1617.23 200.734  33
   5   2   6-14.8947 43.3694  13
   5   2   6-13.1588 44.2422  33
  -5  -2  -6-15.8401 49.8174   6
  -5  -2  -7 6295.68 319.899  16
   5   2   7 6408.90 354.126  13
   5   2   8 6042.02 268.609  13
   5   3  -7 17043.3 629.267   5
   5   3  -6 8936.96 457.206   5
   5   3  -6 9110.55 398.044  20
  -5  -3   5 728.334 130.902   9
   5   3  -5 812.810 138.526   5
   5   3  -5 724.104 118.171   2
  -5  -3   4 1515.37 206.364   9
   5   3  -4 1434.24 184.178   2
   5   3  -4 1843.48 211.485   5
  -5  -3   3 4966.77 394.966   9
   5   3  -3 5077.69 364.155   2
   5   3  -3 4198.48 325.357   5
  -5  -3   2 21521.4 919.786   9
   5   3  -2 20702.8 758.082  13
   5   3  -2 19915.3 771.654   5
   5   3  -1 27396.2 957.134  13
   5   3  -1 25605.8 889.489   5
   5   3   0 27124.3 999.711  32
   5   3   0 26698.9 977.446  13
  -5  -3  -1 5643.26 443.485   9
   5   3   1 6014.24 414.758  13
  -5  -3  -1 5153.65 359.204  37
  -5  -3  -2 4290.15 373.315   9
   5   3   2 4577.93 334.518   2
   5   3   2 4625.12 365.381  13
   5   3   2 4125.43 303.638  33
  -5  -3  -3 13276.6 647.246   9
   5   3   3 15062.8 689.649  13
   5   3   3 15323.6 619.043   2
   5   3   3 15154.8 621.662  33
   5   3   4 1007.68 145.317  33
  -5  -3  -4 1062.13 170.587   6
   5   3   5 1884.46 208.592  13
   5   3   5 2088.56 201.945  33
   5   3   6 25315.2 824.480  13
   5   3   6 25634.7 797.303  33
   5   3   7 100.111 42.9825  13
  -5  -4   5 3426.02 229.510   9
   5   4  -5 3606.17 249.558   5
  -5  -4   4 23730.1 810.607   9
   5   4  -4 21477.8 752.047   5
   5   4  -4 24443.7 765.728   2
   5   4  -4 22254.3 690.666  21
  -5  -4   3 33364.8 1081.42   9
   5   4  -3 33163.3 1010.78   2
   5   4  -3 30841.2 912.126  21
  -5  -4   2 1013.44 168.118   9
   5   4  -2 1279.50 168.483   2
   5   4  -2 958.329 126.077  21
  -5  -4   1 140.244 75.1825   9
   5   4  -1 111.247 57.7174  21
   5   4  -1 166.210 67.9381   2
   5   4   0 3426.88 254.550  13
   5   4   0 3769.04 287.777   2
   5   4   0 3468.00 242.789  21
  -5  -4   0 3700.91 286.975  37
  -5  -4  -1 7833.24 464.928   9
   5   4   1 8730.30 432.516  13
   5   4   1 8941.79 441.801   2
   5   4   1 7506.32 361.715  21
  -5  -4  -1 7740.77 408.432  37
  -5  -4  -2 571.583 118.351   9
   5   4   2 773.109 127.564  13
   5   4   2 574.945 103.697   2
  -5  -4  -3 15490.7 616.784   9
   5   4   3 19334.0 679.910  13
   5   4   4 6705.40 354.313  13
  -5  -4  -4 6345.89 356.416   6
   5   4   6 197.971 46.9295  13
  -5  -5   3 27000.3 804.152   9
  -5  -5   2 16759.7 609.067   9
  -5  -5   1 13113.5 534.039   9
  -5  -5  -1 12964.8 500.974   9
  -5  -5  -2 1829.89 149.337   9
  -6   7   0 9548.65 410.024   9
  -6   7  -2 593.203 83.9474  18
  -6   6   5 172.385 50.2773  13
  -6   6   4 226.644 55.0853   9
  -6   6   3 2260.05 200.077  13
  -6   6   3 2523.28 205.190   9
   6  -6  -2 2456.67 222.517  32
  -6   6   2 2573.31 216.967  13
  -6   6   2 2699.15 222.096  34
  -6   6   2 2738.48 231.570   9
  -6   6   1 3021.28 232.586  13
  -6   6   1 3127.36 245.458  34
  -6   6   1 2906.37 252.762   9
   6  -6  -1 2782.24 245.701  32
   6  -6   0 493.563 109.893  32
  -6   6   0 533.096 114.285   9
  -6   6   0 581.820 90.8982  11
  -6   6   0 605.447 109.548  34
  -6   6  -1 26.8615 47.9087   9
  -6   6  -1 69.5898 50.1494  11
  -6   6  -1 33.5659 35.2068  34
   6  -6   2 27343.0 902.038  32
  -6   6  -2 29243.5 881.370  11
  -6   6  -2 29364.6 930.844   9
  -6   6  -3 4002.78 265.189  11
  -6   6  -3 3545.24 224.058  10
  -6   6  -3 4010.60 262.795   9
  -6   6  -4 8683.29 381.838  11
  -6   6  -4 6830.83 326.258  10
  -6   6  -5 4558.61 250.122  11
  -6   6  -5 4287.14 231.730  10
   6  -5  -7 2905.84 163.657  17
  -6   5   6 9801.80 412.570  13
   6  -5  -6 10457.8 403.054  17
  -6   5   5 3034.65 238.296  13
   6  -5  -4 6250.24 338.219  32
  -6   5   4 5916.25 334.935   9
   6  -5  -3 65151.3 1742.87  32
  -6   5   3 66873.0 1756.07   9
   6  -5  -2 11411.4 566.774  32
  -6   5   2 12586.3 588.278  34
  -6   5   2 12771.2 597.161   9
  -6   5   1 5501.05 382.609  34
  -6   5   1 5803.74 399.990   9
  -6   5   0 1997.34 230.450  34
  -6   5   0 1875.84 229.960   9
   6  -5   0 1957.41 233.078  32
  -6   5  -1 17569.6 731.594  34
  -6   5  -1 17710.6 761.930   9
   6  -5   1 18439.1 762.400  32
   6  -5   2 6680.61 411.777  32
  -6   5  -2 5672.69 337.766  10
  -6   5  -2 6355.79 394.427  34
  -6   5  -2 6196.83 405.745   9
   6  -5   3 2029.47 208.838  32
  -6   5  -3 2421.77 241.612  11
  -6   5  -3 2706.72 229.171  10
  -6   5  -3 2498.25 239.746   9
  -6   5  -4 16281.0 646.907  11
  -6   5  -4 15637.0 607.960  10
  -6   5  -5 7315.17 370.859  10
  -6   5  -6 10071.4 404.262  11
  -6   5  -6 9303.85 400.175  10
  -6   4   7 7410.97 322.554  13
   6  -4  -7 7960.82 333.267  17
   6  -4  -6 2476.19 215.754   5
  -6   4   6 2233.48 201.964  13
  -6   4   6 2297.23 207.684  34
   6  -4  -6 2741.44 206.883  17
  -6   4   5 248.680 68.3906   9
   6  -4  -5 343.452 90.8551   5
  -6   4   5 177.403 70.8754  34
   6  -4  -4 1202.52 160.966  32
   6  -4  -4 1100.45 158.309   5
  -6   4   4 1494.40 194.572  34
  -6   4   4 1311.91 170.783   9
   6  -4  -3 6766.67 417.693  32
   6  -4  -3 5908.86 369.704   5
  -6   4   3 6143.70 412.949  34
  -6   4   3 6249.53 406.153   9
   6  -4  -2 123.155 69.3897  32
  -6   4   2 88.2539 69.6154   9
  -6   4   2 88.4456 66.5225  34
  -6   4   1 7040.96 460.372  34
  -6   4   1 7701.63 494.609   9
   6  -4   0 376.709 116.555  32
  -6   4   0 309.353 105.559   9
  -6   4   0 383.481 110.910  34
   6  -4   1 2686.61 285.472  32
  -6   4  -1 2720.73 238.461  10
  -6   4  -1 3065.10 308.106   9
   6  -4   2 6749.63 433.820  32
  -6   4  -2 6307.69 388.063  10
  -6   4  -2 6679.33 446.915   9
   6  -4   3 2983.79 267.012  32
  -6   4  -3 2770.26 256.905  10
  -6   4  -3 2736.74 272.697   9
   6  -4   4 13039.2 545.819  32
  -6   4  -4 14663.1 614.376  10
  -6   4  -4 13507.7 577.317   9
  -6   4  -4 13173.4 518.963  16
  -6   4  -5 67.3340 48.5164  16
  -6   4  -5 27.2325 60.5646  11
  -6   4  -5 13.1606 46.9371  10
  -6   4  -6 469.217 83.1565  16
  -6   4  -6 396.616 86.3634  11
  -6   4  -6 381.060 89.7616  10
  -6   4  -7 7380.87 302.893  16
  -6   3   7 5532.69 277.176  13
   6  -3  -7 5496.59 239.061  20
   6  -3  -6 28562.6 925.264   5
   6  -3  -6 27920.5 787.924  20
  -6   3   6 27686.0 899.567  34
   6  -3  -6 29330.5 868.979  17
   6  -3  -5 7340.88 421.771   5
   6  -3  -5 8029.99 356.030  20
  -6   3   5 6882.30 413.031  34
   6  -3  -5 7433.34 385.109  17
  -6   3   5 7469.90 388.987   9
   6  -3  -4 16266.5 670.077  32
   6  -3  -4 16124.9 677.541   5
  -6   3   4 16427.2 705.647  34
  -6   3   4 17418.2 698.983   9
   6  -3  -3 2448.36 256.904  32
   6  -3  -3 2184.64 227.812   5
  -6   3   3 2546.20 265.706  34
  -6   3   3 2585.30 268.537   9
  -6   3   2 70356.0 1974.33   9
   6  -3  -2 70810.2 1959.55  32
  -6   3   2 66316.6 1915.44  34
  -6   3   1 9178.71 554.959   9
  -6   3   1 8407.15 510.902  34
   6  -3   0 13737.0 679.087  32
  -6   3   0 12582.1 646.168  34
  -6   3  -1 5778.47 436.526   9
   6  -3   1 5728.08 416.125  32
  -6   3  -1 5711.66 411.999  34
   6  -3   2 1575.67 213.830  32
  -6   3  -2 1382.67 174.328  16
  -6   3  -2 1417.78 208.089  34
  -6   3  -2 1362.94 206.400   9
   6  -3   3 152.978 70.4871  32
  -6   3  -3 162.555 66.4544  16
  -6   3  -3 227.915 93.2440   9
  -6   3  -3 86.6017 61.8334  34
  -6   3  -4 1322.38 170.185  16
   6  -3   4 1049.07 146.328  32
  -6   3  -4 944.469 151.804   9
  -6   3  -5 683.896 119.038  16
  -6   3  -6 12969.0 531.918  11
  -6   3  -6 14627.0 586.427  10
  -6   3  -6 13293.4 534.616  16
  -6   3  -7 8840.87 378.720  16
   6  -2  -8 4098.21 201.141  20
   6  -2  -7 61124.2 1580.46   5
   6  -2  -7 61867.2 1492.81  20
   6  -2  -6 1641.97 187.220   5
   6  -2  -6 1364.79 147.714  20
  -6   2   6 1059.43 137.255  34
   6  -2  -5 2051.05 221.371   5
  -6   2   5 1844.26 199.074  34
  -6   2   5 2161.95 211.404   9
  -6   2   4 13914.7 628.854   9
   6  -2  -4 13913.7 612.529  32
   6  -2  -4 13249.0 603.729   5
  -6   2   4 14070.9 619.909  34
   6  -2  -3 9265.27 517.302  32
  -6   2   3 10033.5 551.236   9
   6  -2  -3 9000.73 479.095   5
  -6   2   3 9537.34 512.616  34
   6  -2  -2 703.786 154.782  32
  -6   2   2 886.598 171.108   9
  -6   2   2 631.066 135.256  34
  -6   2   1 1513.05 225.197   9
  -6   2   1 1541.29 211.464  34
   6  -2   0 12189.1 632.907  32
  -6   2   0 11980.9 609.264  34
   6  -2   1 664.136 144.255  32
  -6   2  -1 544.168 141.200   9
   6  -2   1 582.338 134.801  13
  -6   2  -1 514.188 125.213  34
   6  -2   2 3838.87 323.009  32
  -6   2  -2 3536.85 336.579   9
   6  -2   2 4184.69 331.329  13
  -6   2  -2 3424.61 312.126  34
  -6   2  -3 4304.15 352.763   9
   6  -2   3 4168.57 321.627  32
  -6   2  -3 4505.78 338.125  16
   6  -2   3 4557.94 334.028  13
  -6   2  -4 1589.70 197.540  16
   6  -2   4 1204.91 161.538  32
   6  -2   4 1502.00 183.049  13
  -6   2  -4 1456.83 188.655   9
  -6   2  -5 1554.29 190.648  16
  -6   2  -6 226.640 75.1303  16
   6  -2   6 171.266 64.9963  33
  -6   2  -7 11924.8 470.620  16
   6  -1  -8 2872.28 175.888  20
   6  -1  -7 26405.9 837.004   5
   6  -1  -7 27582.4 803.934  20
   6  -1  -6 32769.7 1013.25   5
   6  -1  -6 31808.7 951.427  20
  -6   1   5 19610.3 711.199   9
   6  -1  -5 19538.6 741.401   5
  -6   1   4 5903.05 387.744   9
   6  -1  -4 5317.92 354.267  32
   6  -1  -4 5354.63 357.036   5
   6  -1  -3 1761.91 213.662  32
  -6   1   3 1493.51 211.710   9
   6  -1  -3 1410.59 179.366   5
  -6   1   3 1407.10 176.344  34
   6  -1  -2 618.308 138.705  32
  -6   1   2 1061.02 184.656   9
  -6   1   2 926.041 148.891  34
  -6   1   1 1649.89 233.396   9
  -6   1   1 1511.61 191.050  34
   6  -1   0 44522.3 1416.55  32
   6  -1   0 47112.1 1425.12  13
  -6   1   0 43761.5 1343.91  34
   6  -1   1 803.262 157.322  32
  -6   1  -1 536.731 137.324   9
  -6   1  -1 560.399 120.714  34
   6  -1   2 2634.41 264.575  32
  -6   1  -2 2860.56 296.969   9
   6  -1   2 2885.02 278.544  13
   6  -1   3 5677.37 367.753  32
  -6   1  -3 5823.85 402.700   9
   6  -1   3 5499.18 376.394  13
   6  -1   3 4731.23 322.221  33
  -6   1  -4 1378.28 176.439   9
   6  -1   4 1588.23 172.233  32
   6  -1   4 1620.37 191.242  13
   6  -1   4 1152.43 156.363  33
  -6   1  -5 9378.64 473.796  16
   6  -1   5 8811.52 422.653  13
   6  -1   5 8863.39 430.861  33
  -6   1  -6 8276.51 406.859  16
   6  -1   6 7509.10 329.779  13
   6  -1   6 7850.98 376.385  33
   6   0  -8 18476.6 538.228  20
   6   0  -7 2145.68 169.323  20
   6   0  -6 7739.46 392.923   5
  -6   0   5 1504.82 166.902   9
   6   0  -5 1826.22 191.266   5
   6   0  -4 8649.69 445.042  32
  -6   0   4 8472.81 465.776   9
   6   0  -4 8785.71 443.371   5
   6   0  -3 9406.22 489.023  32
  -6   0   3 8873.42 507.967   9
   6   0  -3 8183.25 426.505   5
   6   0  -2 8910.34 501.042  32
  -6   0   2 10043.4 562.021   9
   6   0  -2 10527.6 527.207  13
  -6   0   1 8774.34 538.135   9
   6   0  -1 9601.45 515.253  13
   6   0   0 3159.41 292.949  32
   6   0   1 5194.05 372.609  32
  -6   0  -1 5419.91 417.769   9
   6   0   2 23954.9 865.795  32
  -6   0  -2 23224.4 919.773   9
   6   0   2 24716.5 902.440  13
   6   0   3 10492.4 487.830  32
  -6   0  -3 10166.1 523.907   9
   6   0   3 10787.6 528.613  13
   6   0   4 2278.60 197.255  32
   6   0   4 2794.26 247.137  13
   6   0   4 2827.10 227.589  33
  -6   0  -5 684.621 121.653  16
   6   0   5 566.994 104.319  13
   6   0   5 507.991 94.6720  33
   6   0   6 10867.1 410.390  13
  -6   0  -7 1427.12 123.509  16
   6   1  -7 22517.6 638.726  20
   6   1  -6 3213.75 213.203  20
  -6  -1   5 7360.33 352.017   9
   6   1  -5 7496.89 370.917   5
   6   1  -4 7273.88 378.123  32
  -6  -1   4 7648.86 407.558   9
   6   1  -4 7207.70 371.783   5
   6   1  -3 7437.78 408.402  32
  -6  -1   3 7370.28 433.263   9
   6   1  -3 6639.64 354.626   5
   6   1  -2 4976.43 340.878  32
  -6  -1   2 5108.27 372.942   9
   6   1  -2 4420.72 311.200  13
  -6  -1   1 17027.2 753.916   9
   6   1  -1 17836.7 700.412  13
   6   1   0 9872.58 503.970  32
   6   1   0 9553.06 496.502  13
   6   1   1 16449.4 668.055  32
  -6  -1  -1 15613.9 705.949   9
   6   1   1 15904.2 671.522  13
   6   1   2 255.066 77.4648  32
  -6  -1  -2 249.325 85.0342   9
   6   1   3 1042.38 134.708  32
  -6  -1  -3 834.768 132.687   9
   6   1   3 970.649 148.958  13
   6   1   4 353.595 87.7819  13
  -6  -1  -5 36947.7 1026.91  16
   6   1   5 36224.0 1014.65  13
  -6  -1  -6 4867.92 235.275  16
   6   1   6 4000.03 209.125  13
  -6  -2   4 11984.7 475.846   9
  -6  -2   3 10360.7 472.789   9
   6   2  -3 8895.15 416.296   2
  -6  -2   2 3414.27 279.281   9
   6   2  -2 3087.40 242.772   2
  -6  -2   1 1869.17 209.472   9
   6   2  -1 1789.71 175.132  13
   6   2   0 4421.41 288.803  13
  -6  -2  -1 1953.87 207.172   9
   6   2   1 1607.44 170.643   2
   6   2   1 1782.71 184.511  13
  -6  -2  -2 8227.48 419.935   9
   6   2   2 9547.36 434.466  13
   6   2   2 8772.70 393.938   2
   6   2   4 4059.38 245.083  13
   6   2   5 172.422 45.8430  13
  -6  -3   3 6341.83 296.474   9
  -6  -3   2 7880.27 365.586   9
  -6  -3   1 121.002 52.3026   9
  -6  -3  -1 4236.71 252.959   9
   6   3   1 4573.29 227.323  13
   6   3   2 257.587 53.5819  13
  -7   4   2 3377.42 195.560   9
  -7   4   1 3059.06 199.203   9
  -7   4  -1 13489.2 439.731  11
  -7   4  -1 13033.5 460.386   9
  -7   4  -2 11321.7 389.692  11
  -7   3   2 2368.47 177.764   9
  -7   3   1 2768.30 205.179   9
  -7   3  -1 1272.01 137.673   9
  -7   3  -2 15823.8 508.980   9
  -7   2   3 1378.02 121.517   9
  -7   2   2 296.205 66.2335   9
  -7   2   1 2426.76 192.390   9
  -7   2  -1 8606.15 376.350   9
  -7   2  -2 1989.51 152.484   9
  -7   1   2 4612.39 250.157   9
  -7   1   1 244.498 61.6023   9
  -7   1  -1 1783.53 151.075   9
  -7   0   1 420.501 69.3957   9
   0   0   0    0.00    0.00   0

TITL hpd133 in P-1
REM P-1 (#2 in standard setting)
CELL 1.54184   5.720760   8.130387  11.842371  91.8184  91.4466 103.4125
ZERR   10.00   0.000107   0.000164   0.000217   0.0016   0.0015   0.0017
LATT  1
SFAC C H O S
UNIT 10.00 10.00 10.00 10.00
TREF
HKLF 4
END
;
_shelx_hkl_checksum              36550
_olex2_exptl_crystal_mounting_method 'nylon loop'
_olex2_submission_special_instructions 'No special instructions were received'
_oxdiff_exptl_absorpt_empirical_details
;
Empirical correction (ABSPACK) includes:
- Absorption correction using spherical harmonics
- Frame scaling
;
_oxdiff_exptl_absorpt_empirical_full_max 1.256
_oxdiff_exptl_absorpt_empirical_full_min 0.754
loop_
_space_group_symop_operation_xyz
'x, y, z'
'-x, -y, -z'
loop_
_atom_site_label
_atom_site_type_symbol
_atom_site_fract_x
_atom_site_fract_y
_atom_site_fract_z
_atom_site_U_iso_or_equiv
_atom_site_adp_type
_atom_site_occupancy
_atom_site_site_symmetry_order
_atom_site_calc_flag
_atom_site_refinement_flags_posn
_atom_site_refinement_flags_adp
_atom_site_refinement_flags_occupancy
_atom_site_disorder_assembly
_atom_site_disorder_group
S1 S 0.95023(5) 0.73697(4) 0.91640(2) 0.01300(12) Uani 1 1 d . . . . .
O2 O 0.95260(17) 0.89115(12) 0.85831(8) 0.0183(2) Uani 1 1 d . . . . .
O3 O 1.17817(17) 0.71165(13) 0.95957(8) 0.0198(2) Uani 1 1 d . . . . .
O1 O 0.22259(17) 0.59826(13) 0.61273(8) 0.0201(2) Uani 1 1 d . . . . .
C8 C 0.6449(2) 0.67239(16) 0.65341(11) 0.0139(3) Uani 1 1 d . . . . .
H8A H 0.726036 0.790985 0.674783 0.017 Uiso 1 1 calc R U . . .
H8B H 0.756828 0.623759 0.607745 0.017 Uiso 1 1 calc R U . . .
C1 C 0.4483(2) 0.75969(16) 0.47278(11) 0.0136(3) Uani 1 1 d . . . . .
C7 C 0.4215(2) 0.67083(16) 0.58226(11) 0.0137(3) Uani 1 1 d . . . . .
C9 C 0.5911(2) 0.57265(17) 0.76052(11) 0.0142(3) Uani 1 1 d . . . . .
H9A H 0.494999 0.457413 0.739807 0.017 Uiso 1 1 calc R U . . .
H9B H 0.493560 0.628538 0.810098 0.017 Uiso 1 1 calc R U . . .
C10 C 0.8201(2) 0.55925(16) 0.82585(11) 0.0145(3) Uani 1 1 d . . . . .
H10A H 0.940873 0.542749 0.770808 0.017 Uiso 1 1 calc R U . . .
H10B H 0.782308 0.457427 0.871829 0.017 Uiso 1 1 calc R U . . .
C6 C 0.6698(2) 0.85573(17) 0.43997(11) 0.0157(3) Uani 1 1 d . . . . .
H6 H 0.809387 0.864190 0.487043 0.019 Uiso 1 1 calc R U . . .
C5 C 0.6869(3) 0.93899(18) 0.33866(12) 0.0190(3) Uani 1 1 d . . . . .
H5 H 0.837861 1.004443 0.316907 0.023 Uiso 1 1 calc R U . . .
C2 C 0.2445(2) 0.74728(17) 0.40237(11) 0.0161(3) Uani 1 1 d . . . . .
H2 H 0.093330 0.681676 0.423761 0.019 Uiso 1 1 calc R U . . .
C3 C 0.2626(3) 0.83056(17) 0.30126(12) 0.0189(3) Uani 1 1 d . . . . .
H3 H 0.123613 0.821945 0.253765 0.023 Uiso 1 1 calc R U . . .
C4 C 0.4840(3) 0.92677(18) 0.26923(12) 0.0198(3) Uani 1 1 d . . . . .
H4 H 0.495911 0.983803 0.200082 0.024 Uiso 1 1 calc R U . . .
C11 C 0.7559(2) 0.72694(18) 1.03060(11) 0.0174(3) Uani 1 1 d . . . . .
H11A H 0.818074 0.822656 1.083948 0.026 Uiso 1 1 calc R U . . .
H11B H 0.746220 0.620700 1.069036 0.026 Uiso 1 1 calc R U . . .
H11C H 0.595293 0.731880 1.002252 0.026 Uiso 1 1 calc R U . . .
loop_
_atom_site_aniso_label
_atom_site_aniso_U_11
_atom_site_aniso_U_22
_atom_site_aniso_U_33
_atom_site_aniso_U_23
_atom_site_aniso_U_13
_atom_site_aniso_U_12
S1 0.01097(18) 0.01567(19) 0.01207(18) 0.00313(12) 0.00043(11) 0.00215(12)
O2 0.0210(5) 0.0157(5) 0.0168(5) 0.0042(4) -0.0013(4) 0.0008(4)
O3 0.0126(5) 0.0281(5) 0.0190(5) 0.0035(4) -0.0014(4) 0.0050(4)
O1 0.0131(5) 0.0264(5) 0.0191(5) 0.0052(4) 0.0014(4) 0.0001(4)
C8 0.0126(6) 0.0154(6) 0.0134(6) 0.0022(5) 0.0010(5) 0.0028(5)
C1 0.0151(6) 0.0132(6) 0.0133(6) -0.0007(5) 0.0011(5) 0.0053(5)
C7 0.0146(6) 0.0127(6) 0.0137(6) -0.0010(5) 0.0010(5) 0.0032(5)
C9 0.0134(6) 0.0164(6) 0.0122(6) 0.0017(5) 0.0008(5) 0.0023(5)
C10 0.0158(6) 0.0150(6) 0.0133(6) 0.0018(5) 0.0008(5) 0.0048(5)
C6 0.0154(6) 0.0165(6) 0.0159(6) 0.0009(5) 0.0012(5) 0.0049(5)
C5 0.0201(7) 0.0184(7) 0.0195(7) 0.0034(5) 0.0058(5) 0.0055(5)
C2 0.0158(6) 0.0163(6) 0.0168(6) -0.0013(5) 0.0003(5) 0.0053(5)
C3 0.0222(7) 0.0198(7) 0.0169(7) -0.0016(5) -0.0042(5) 0.0103(6)
C4 0.0305(8) 0.0192(7) 0.0134(6) 0.0037(5) 0.0039(6) 0.0129(6)
C11 0.0161(6) 0.0216(7) 0.0141(6) 0.0013(5) 0.0026(5) 0.0034(5)
loop_
_atom_type_symbol
_atom_type_description
_atom_type_scat_dispersion_real
_atom_type_scat_dispersion_imag
_atom_type_scat_source
C C 0.0181 0.0091 'International Tables Vol C Tables 4.2.6.8 and 6.1.1.4'
H H 0.0000 0.0000 'International Tables Vol C Tables 4.2.6.8 and 6.1.1.4'
O O 0.0492 0.0322 'International Tables Vol C Tables 4.2.6.8 and 6.1.1.4'
S S 0.3331 0.5567 'International Tables Vol C Tables 4.2.6.8 and 6.1.1.4'
loop_
_exptl_crystal_face_index_h
_exptl_crystal_face_index_k
_exptl_crystal_face_index_l
_exptl_crystal_face_perp_dist
-1 2 -7 0.0629
-2 -3 -1 0.0828
1 -2 7 0.1000
2 3 0 0.0502
0 3 -6 0.0637
3 -4 -3 0.0638
0 -2 7 0.0968
-3 3 4 0.0582
loop_
_geom_angle_atom_site_label_1
_geom_angle_atom_site_label_2
_geom_angle_atom_site_label_3
_geom_angle
_geom_angle_site_symmetry_1
_geom_angle_site_symmetry_3
_geom_angle_publ_flag
O2 S1 O3 117.64(6) . . ?
O2 S1 C10 109.66(6) . . ?
O2 S1 C11 108.26(6) . . ?
O3 S1 C10 107.13(6) . . ?
O3 S1 C11 108.00(6) . . ?
C11 S1 C10 105.49(6) . . ?
H8A C8 H8B 107.8 . . ?
C7 C8 H8A 109.0 . . ?
C7 C8 H8B 109.0 . . ?
C7 C8 C9 112.80(10) . . ?
C9 C8 H8A 109.0 . . ?
C9 C8 H8B 109.0 . . ?
C6 C1 C7 121.90(12) . . ?
C6 C1 C2 119.32(12) . . ?
C2 C1 C7 118.78(12) . . ?
O1 C7 C8 121.00(12) . . ?
O1 C7 C1 120.43(12) . . ?
C1 C7 C8 118.58(11) . . ?
C8 C9 H9A 109.1 . . ?
C8 C9 H9B 109.1 . . ?
C8 C9 C10 112.47(10) . . ?
H9A C9 H9B 107.8 . . ?
C10 C9 H9A 109.1 . . ?
C10 C9 H9B 109.1 . . ?
S1 C10 H10A 108.5 . . ?
S1 C10 H10B 108.5 . . ?
C9 C10 S1 114.89(9) . . ?
C9 C10 H10A 108.5 . . ?
C9 C10 H10B 108.5 . . ?
H10A C10 H10B 107.5 . . ?
C1 C6 H6 119.9 . . ?
C5 C6 C1 120.26(13) . . ?
C5 C6 H6 119.9 . . ?
C6 C5 H5 119.9 . . ?
C4 C5 C6 120.22(13) . . ?
C4 C5 H5 119.9 . . ?
C1 C2 H2 119.9 . . ?
C3 C2 C1 120.19(13) . . ?
C3 C2 H2 119.9 . . ?
C2 C3 H3 119.9 . . ?
C2 C3 C4 120.22(13) . . ?
C4 C3 H3 119.9 . . ?
C5 C4 C3 119.80(13) . . ?
C5 C4 H4 120.1 . . ?
C3 C4 H4 120.1 . . ?
S1 C11 H11A 109.5 . . ?
S1 C11 H11B 109.5 . . ?
S1 C11 H11C 109.5 . . ?
H11A C11 H11B 109.5 . . ?
H11A C11 H11C 109.5 . . ?
H11B C11 H11C 109.5 . . ?
loop_
_geom_bond_atom_site_label_1
_geom_bond_atom_site_label_2
_geom_bond_distance
_geom_bond_site_symmetry_2
_geom_bond_publ_flag
S1 O2 1.4464(10) . ?
S1 O3 1.4497(10) . ?
S1 C10 1.7759(13) . ?
S1 C11 1.7644(13) . ?
O1 C7 1.2231(16) . ?
C8 H8A 0.9900 . ?
C8 H8B 0.9900 . ?
C8 C7 1.5103(18) . ?
C8 C9 1.5265(17) . ?
C1 C7 1.4981(18) . ?
C1 C6 1.3972(19) . ?
C1 C2 1.3983(18) . ?
C9 H9A 0.9900 . ?
C9 H9B 0.9900 . ?
C9 C10 1.5320(17) . ?
C10 H10A 0.9900 . ?
C10 H10B 0.9900 . ?
C6 H6 0.9500 . ?
C6 C5 1.3906(19) . ?
C5 H5 0.9500 . ?
C5 C4 1.388(2) . ?
C2 H2 0.9500 . ?
C2 C3 1.389(2) . ?
C3 H3 0.9500 . ?
C3 C4 1.394(2) . ?
C4 H4 0.9500 . ?
C11 H11A 0.9800 . ?
C11 H11B 0.9800 . ?
C11 H11C 0.9800 . ?
loop_
_geom_torsion_atom_site_label_1
_geom_torsion_atom_site_label_2
_geom_torsion_atom_site_label_3
_geom_torsion_atom_site_label_4
_geom_torsion
_geom_torsion_site_symmetry_1
_geom_torsion_site_symmetry_2
_geom_torsion_site_symmetry_3
_geom_torsion_site_symmetry_4
_geom_torsion_publ_flag
O2 S1 C10 C9 -44.24(11) . . . . ?
O3 S1 C10 C9 -172.97(9) . . . . ?
C8 C9 C10 S1 82.93(12) . . . . ?
C1 C6 C5 C4 -0.2(2) . . . . ?
C1 C2 C3 C4 0.1(2) . . . . ?
C7 C8 C9 C10 174.03(10) . . . . ?
C7 C1 C6 C5 -178.81(12) . . . . ?
C7 C1 C2 C3 178.88(12) . . . . ?
C9 C8 C7 O1 1.48(18) . . . . ?
C9 C8 C7 C1 -178.26(10) . . . . ?
C6 C1 C7 O1 174.48(12) . . . . ?
C6 C1 C7 C8 -5.78(18) . . . . ?
C6 C1 C2 C3 -0.39(19) . . . . ?
C6 C5 C4 C3 0.0(2) . . . . ?
C2 C1 C7 O1 -4.77(19) . . . . ?
C2 C1 C7 C8 174.97(11) . . . . ?
C2 C1 C6 C5 0.44(19) . . . . ?
C2 C3 C4 C5 0.1(2) . . . . ?
C11 S1 C10 C9 72.13(10) . . . . ?
loop_
_exptl_oxdiff_crystal_face_indexfrac_h
_exptl_oxdiff_crystal_face_indexfrac_k
_exptl_oxdiff_crystal_face_indexfrac_l
_exptl_oxdiff_crystal_face_x
_exptl_oxdiff_crystal_face_y
_exptl_oxdiff_crystal_face_z
-1.0539 2.0126 -6.9703 0.0939 0.3836 0.9187
-2.3157 -3.1625 -0.8971 0.2206 0.9197 -0.3247
0.9772 -2.1242 6.9536 -0.0866 -0.3531 -0.9316
2.1676 3.4499 -0.0909 -0.2074 -0.8659 0.4552
0.1044 2.9235 -6.4489 0.0653 -0.0176 0.9977
2.7606 -3.8563 -2.6111 0.9678 -0.2325 -0.0968
-0.4234 -2.4676 6.7296 -0.1771 0.0444 -0.9832
-2.7477 3.2751 3.7643 -0.9685 0.2330 -0.0874
