#------------------------------------------------------------------------------
#$Date: 2022-01-20 14:56:27 +0200 (Thu, 20 Jan 2022) $
#$Revision: 272159 $
#$URL: file:///home/coder/svn-repositories/cod/cif/1/56/60/1566070.cif $
#------------------------------------------------------------------------------
#
# This file is available in the Crystallography Open Database (COD),
# http://www.crystallography.net/
#
# All data on this site have been placed in the public domain by the
# contributors.
#
data_1566070
loop_
_publ_author_name
'S\/lawi\'nska, Adrianna'
'Serda, Pawe\/l'
'Oszajca, Marcin'
'Pamin, Katarzyna'
'Po\/ltowicz, Jan'
'\/Lasocha, Wies\/law'
_publ_section_title
;
 Synthesis, crystal structure and selected properties of two new
 peroxidomolybdates
;
_journal_name_full               Polyhedron
_journal_page_first              114530
_journal_paper_doi               10.1016/j.poly.2020.114530
_journal_volume                  183
_journal_year                    2020
_chemical_formula_moiety         'C12 H8 Mo2 N2 O16, 2(H2 O), 2(H4 N)'
_chemical_formula_sum            'C12 H20 Mo2 N4 O18'
_chemical_formula_weight         700.20
_chemical_name_systematic
'Diammonium [tetrakis(\h2-peroxido)dioxido-bis{\m-(1-oxo-\kO-pyridine-4-carboxylate-\kO)}dimolybdate(VI) dihydrate'
_chemical_properties_physical    Heat-sensitive
_space_group_crystal_system      triclinic
_space_group_IT_number           2
_space_group_name_Hall           '-P 1'
_space_group_name_H-M_alt        'P -1'
_atom_sites_solution_hydrogens   mixed
_atom_sites_solution_primary     Patterson
_atom_sites_solution_secondary   difmap
_cell_angle_alpha                91.517(3)
_cell_angle_beta                 96.093(3)
_cell_angle_gamma                104.610(4)
_cell_formula_units_Z            1
_cell_length_a                   6.5619(3)
_cell_length_b                   7.1063(3)
_cell_length_c                   12.0469(4)
_cell_measurement_reflns_used    8421
_cell_measurement_temperature    131(2)
_cell_measurement_theta_max      76.7771
_cell_measurement_theta_min      3.6925
_cell_volume                     539.69(4)
_computing_cell_refinement
;
CrysAlisPro, Agilent Technologies,
Version 1.171.36.20 (release 27-06-2012 CrysAlis171 .NET)
(compiled Jul 11 2012,15:38:31)
;
_computing_data_collection
;
CrysAlisPro, Agilent Technologies,
Version 1.171.36.20 (release 27-06-2012 CrysAlis171 .NET)
(compiled Jul 11 2012,15:38:31)
;
_computing_data_reduction
;
CrysAlisPro, Agilent Technologies,
Version 1.171.36.20 (release 27-06-2012 CrysAlis171 .NET)
(compiled Jul 11 2012,15:38:31)
;
_computing_structure_refinement  'SHELXL-2013 (Sheldrick, 2013)'
_computing_structure_solution    'SHELXS-97 (Sheldrick, 1990)'
_diffrn_ambient_temperature      131(2)
_diffrn_detector_area_resol_mean 10.3756
_diffrn_measured_fraction_theta_full 1.000
_diffrn_measured_fraction_theta_max 0.982
_diffrn_measurement_device_type  'SuperNova, Dual, Cu at zero, Atlas'
_diffrn_measurement_method       '\w scans'
_diffrn_radiation_monochromator  mirror
_diffrn_radiation_source         'SuperNova (Cu) X-ray Source'
_diffrn_radiation_type           CuK\a
_diffrn_radiation_wavelength     1.54184
_diffrn_reflns_av_R_equivalents  0.0773
_diffrn_reflns_av_unetI/netI     0.0463
_diffrn_reflns_Laue_measured_fraction_full 1.000
_diffrn_reflns_Laue_measured_fraction_max 0.982
_diffrn_reflns_limit_h_max       8
_diffrn_reflns_limit_h_min       -7
_diffrn_reflns_limit_k_max       8
_diffrn_reflns_limit_k_min       -8
_diffrn_reflns_limit_l_max       15
_diffrn_reflns_limit_l_min       -15
_diffrn_reflns_number            9628
_diffrn_reflns_point_group_measured_fraction_full 1.000
_diffrn_reflns_point_group_measured_fraction_max 0.982
_diffrn_reflns_theta_full        67.684
_diffrn_reflns_theta_max         76.980
_diffrn_reflns_theta_min         3.696
_exptl_absorpt_coefficient_mu    10.461
_exptl_absorpt_correction_T_max  1.00000
_exptl_absorpt_correction_T_min  0.29470
_exptl_absorpt_correction_type   multi-scan
_exptl_absorpt_process_details
;
CrysAlisPro, Agilent Technologies,
Version 1.171.36.20 (release 27-06-2012 CrysAlis171 .NET)
(compiled Jul 11 2012,15:38:31)
Empirical absorption correction using spherical harmonics,
 implemented in SCALE3 ABSPACK scaling algorithm.
;
_exptl_crystal_colour            yellow
_exptl_crystal_density_diffrn    2.154
_exptl_crystal_description       plate
_exptl_crystal_F_000             348
_exptl_crystal_size_max          0.220
_exptl_crystal_size_mid          0.180
_exptl_crystal_size_min          0.050
_refine_diff_density_max         1.131
_refine_diff_density_min         -1.605
_refine_diff_density_rms         0.167
_refine_ls_extinction_coef       .
_refine_ls_extinction_method     none
_refine_ls_goodness_of_fit_ref   1.097
_refine_ls_hydrogen_treatment    mixed
_refine_ls_matrix_type           full
_refine_ls_number_parameters     181
_refine_ls_number_reflns         2241
_refine_ls_number_restraints     6
_refine_ls_restrained_S_all      1.096
_refine_ls_R_factor_all          0.0361
_refine_ls_R_factor_gt           0.0356
_refine_ls_shift/su_max          0.003
_refine_ls_shift/su_mean         0.000
_refine_ls_structure_factor_coef Fsqd
_refine_ls_weighting_details
'w=1/[\s^2^(Fo^2^)+(0.0688P)^2^+1.0437P] where P=(Fo^2^+2Fc^2^)/3'
_refine_ls_weighting_scheme      calc
_refine_ls_wR_factor_gt          0.1045
_refine_ls_wR_factor_ref         0.1051
_reflns_Friedel_coverage         0.000
_reflns_Friedel_fraction_full    .
_reflns_Friedel_fraction_max     .
_reflns_number_gt                2205
_reflns_number_total             2241
_reflns_threshold_expression     'I > 2\s(I)'
_cod_data_source_file            Poly-2020-183-114530.cif
_cod_data_source_block           2
_cod_database_code               1566070
_shelx_space_group_comment
;
The symmetry employed for this shelxl refinement is uniquely defined
by the following loop, which should always be used as a source of
symmetry information in preference to the above space-group names.
They are only intended as comments.
;
_shelx_estimated_absorpt_t_min   0.207
_shelx_estimated_absorpt_t_max   0.623
_shelxl_version_number           2013-4
_shelx_res_file
;
TITL exp_4949 in P -1
CELL  1.54184   6.5619   7.1063  12.0469   91.517   96.093  104.610
ZERR     1.00   0.0003   0.0003   0.0004    0.003    0.003    0.004
LATT   1
SFAC  C    H    MO   N    O
UNIT  12 20 2 4 18
OMIT -2.0   156
FMAP   2
PLAN   -40
SIZE 0.22 0.18 0.05
TEMP -142
BOND   $H
CONF
HTAB
ACTA
DFIX  0.89 0.01 N8 H81 N8 H82 N8 H83 N8 H84
DFIX  0.86 0.01  O20 H21 O20 H22
L.S.   8
WGHT    0.068800    1.043700
FVAR       7.93636
MO1   3    0.610210    0.694529    0.701115    11.00000    0.01510    0.00870 =
         0.00912    0.00097   -0.00051    0.00106
O2    5    0.667977    0.629505    0.553622    11.00000    0.02362    0.01765 =
         0.00898    0.00130   -0.00048   -0.00121
O3    5    0.792372    0.720985    0.853519    11.00000    0.01889    0.01542 =
         0.01185    0.00071   -0.00065    0.00109
O4    5    1.100412    0.926953    0.820710    11.00000    0.02290    0.01441 =
         0.01425    0.00407    0.00240   -0.00046
O5    5    0.318013    0.543979    0.667024    11.00000    0.01463    0.02035 =
         0.01488   -0.00109   -0.00315    0.00080
O6    5    0.382914    0.578175    0.788800    11.00000    0.01742    0.02274 =
         0.01330   -0.00211    0.00266    0.00087
O7    5    0.865013    0.702174    0.630854    11.00000    0.01875    0.02323 =
         0.01428   -0.00076    0.00093   -0.00487
N8    4    1.213765    1.099620    0.616571    11.00000    0.02265    0.01406 =
         0.01335    0.00256   -0.00027    0.00174
H84   2    1.159505    1.025281    0.669651    11.00000   -1.20000
H82   2    1.334545    1.186609    0.640709    11.00000   -1.20000
H83   2    1.116250    1.156749    0.587336    11.00000   -1.20000
H81   2    1.241334    1.012601    0.569906    11.00000   -1.20000
O10   5    0.591898    0.925791    0.694888    11.00000    0.03024    0.01287 =
         0.02590    0.00129   -0.00475    0.00334
C1    1    0.993226    0.813509    0.877755    11.00000    0.02229    0.01023 =
         0.01157   -0.00323   -0.00230    0.00566
C2    1    1.088771    0.768853    0.989962    11.00000    0.01635    0.00820 =
         0.01025    0.00091    0.00016   -0.00104
C3    1    0.965031    0.692451    1.073468    11.00000    0.01555    0.01246 =
         0.01277   -0.00240   -0.00019    0.00426
AFIX  43
H3    2    0.815052    0.668037    1.060819    11.00000   -1.20000
AFIX   0
C4    1    1.306863    0.801570    1.010461    11.00000    0.02055    0.00932 =
         0.01194    0.00232    0.00491   -0.00214
AFIX  43
H4    2    1.393889    0.852982    0.954561    11.00000   -1.20000
AFIX   0
C5    1    1.397618    0.759200    1.112523    11.00000    0.01618    0.01659 =
         0.01432    0.00034    0.00054    0.00098
AFIX  43
H5    2    1.547207    0.781555    1.126876    11.00000   -1.20000
AFIX   0
C7    1    1.061009    0.652392    1.174540    11.00000    0.01527    0.01138 =
         0.01121    0.00117    0.00446    0.00183
AFIX  43
H7    2    0.977234    0.601214    1.231761    11.00000   -1.20000
AFIX   0
N6    4    1.273356    0.685947    1.191868    11.00000    0.01587    0.00851 =
         0.00936    0.00064    0.00079    0.00046
O11   5    1.363891    0.639851    1.288145    11.00000    0.02057    0.01249 =
         0.00956    0.00123   -0.00352    0.00406
O20   5    1.162170    0.763013    1.466194    11.00000    0.02698    0.02364 =
         0.01558    0.00164    0.00508    0.01037
H21   2    1.160449    0.681048    1.517216    11.00000   -1.20000
H22   2    1.242304    0.723657    1.424142    11.00000   -1.20000
HKLF    4

REM  exp_4949 in P -1
REM R1 =  0.0356 for    2205 Fo > 4sig(Fo)  and  0.0361 for all    2241 data
REM    181 parameters refined using      6 restraints

END

WGHT      0.0687      0.6873

REM Instructions for potential hydrogen bonds
HTAB N8 O4
HTAB N8 O7
EQIV $1 x+1, y+1, z
HTAB N8 O5_$1
EQIV $2 -x+3, -y+2, -z+2
HTAB N8 O11_$2
EQIV $3 -x+2, -y+2, -z+2
HTAB N8 O20_$3
EQIV $4 x, y, z-1
HTAB N8 O20_$4
EQIV $5 -x+1, -y+1, -z+2
HTAB C7 O5_$5
HTAB C7 O6_$5
EQIV $6 x+1, y, z+1
HTAB O20 O5_$6
HTAB O20 O11

REM Highest difference peak  1.131,  deepest hole -1.605,  1-sigma level  0.167
Q1    1   0.5331  0.7789  0.6800  11.00000  0.05    1.13
Q2    1   0.8006  0.7143  0.7805  11.00000  0.05    1.02
Q3    1   0.4239  0.6783  0.6215  11.00000  0.05    0.99
Q4    1   0.6243  0.6997  0.7979  11.00000  0.05    0.93
Q5    1   0.6867  0.6191  0.7189  11.00000  0.05    0.86
Q6    1   0.5989  0.6907  0.6085  11.00000  0.05    0.82
Q7    1   0.4866  0.5967  0.5820  11.00000  0.05    0.67
Q8    1   0.7326  0.7972  0.8150  11.00000  0.05    0.65
Q9    1   0.4460  0.6644  0.7519  11.00000  0.05    0.60
Q10   1   0.5349  0.7694  0.8072  11.00000  0.05    0.59
Q11   1   0.5957  0.8545  0.7595  11.00000  0.05    0.58
Q12   1   0.8428  0.5960  0.7451  11.00000  0.05    0.56
Q13   1   0.6403  0.5535  0.6134  11.00000  0.05    0.56
Q14   1   0.5663  0.6086  0.8552  11.00000  0.05    0.55
Q15   1   0.6653  0.6022  0.6026  11.00000  0.05    0.55
Q16   1   0.3710  0.7647  0.6673  11.00000  0.05    0.54
Q17   1   0.7283  0.5227  0.5611  11.00000  0.05    0.54
Q18   1   0.2307  0.8039  0.6252  11.00000  0.05    0.53
Q19   1   1.0125  0.7911  0.9401  11.00000  0.05    0.51
Q20   1   0.8547  0.6757  0.5154  11.00000  0.05    0.50
Q21   1   0.3426  0.6471  0.5246  11.00000  0.05    0.49
Q22   1   0.4757  0.3705  0.6781  11.00000  0.05    0.48
Q23   1   0.6721  0.7726  0.5475  11.00000  0.05    0.47
Q24   1   0.4037  0.8315  0.6400  11.00000  0.05    0.47
Q25   1   0.8893  0.7548  0.8614  11.00000  0.05    0.46
Q26   1   0.1426  0.6452  0.7630  11.00000  0.05    0.46
Q27   1   0.4740  0.8898  0.7209  11.00000  0.05    0.45
Q28   1   0.4602  0.8654  0.8291  11.00000  0.05    0.45
Q29   1   1.1795  0.9693  0.7951  11.00000  0.05    0.44
Q30   1   0.0928  0.6075  0.6614  11.00000  0.05    0.44
Q31   1   0.7707  0.5785  0.4590  11.00000  0.05    0.43
Q32   1   0.6209  0.8167  0.8837  11.00000  0.05    0.42
Q33   1   0.4270  0.8433  0.8027  11.00000  0.05    0.42
Q34   1   0.9303  0.5494  0.4808  11.00000  0.05    0.42
Q35   1   1.0274  0.5377  0.5495  11.00000  0.05    0.40
Q36   1   0.8388  0.6037  0.6592  11.00000  0.05    0.40
Q37   1   0.1933  0.7294  0.6896  11.00000  0.05    0.39
Q38   1   1.0013  0.8160  0.5074  11.00000  0.05    0.39
Q39   1   0.3667  0.5913  0.8771  11.00000  0.05    0.39
Q40   1   0.3633  0.3940  0.8997  11.00000  0.05    0.39
;
_shelx_res_checksum              6739
_shelx_hkl_file
;
  -7  -2   4 19621.8 776.240  56
  -7  -2   5 9891.78 539.905  56
  -7   0   6 48647.1 1458.80  41
  -7   0   7 20219.8 862.556  41
  -7   0   8 3596.33 285.008  53
  -7   0   8 4390.96 367.035  41
  -7   1   8 26521.4 927.052  53
  -7   1   9 290.939 102.067  41
  -7   1   9 490.196 140.666  53
  -7   2   9 59024.5 1203.53  53
  -7   4   7 4499.54 407.318  43
  -6  -4   0 56310.7 1428.12  39
  -6  -4   1 6234.47 513.781  39
  -6  -4   2 49409.4 1459.00  39
  -6  -4   3 1262.44 234.020  56
  -6  -4   4 44369.4 1187.84  56
  -6  -4   5 45500.7 1101.09  56
  -6  -3  -2 45445.3 1306.65  39
  -6  -3  -1 34976.8 1263.14  39
  -6  -3   2 26300.9 1160.86  56
  -6  -3   3 31131.3 1348.71  56
  -6  -3   4 75601.8 2141.50  56
  -6  -3   5 3348.14 489.073  56
  -6  -3   6 103492. 2226.40  56
  -6  -3   7 46515.4 1278.36  56
  -6  -3   7 43132.7 1072.91  41
  -6  -3   8 30485.2 793.390  56
  -6  -2   6 31435.5 1359.34  41
  -6  -2   7 9342.73 715.720  41
  -6  -2   8 72552.3 1724.58  41
  -6  -2   9 1427.04 226.763  41
  -6  -1  -7 626.258 154.389  54
  -6  -1  -1 53222.9 1856.79  35
  -6  -1   0 79332.9 2283.41  35
  -6  -1   1 18203.4 1113.72  35
  -6  -1   2 105959. 2731.76  35
  -6  -1   3 195.358 127.403  35
  -6  -1   4 110453. 2917.68  35
  -6  -1   7 105863. 2440.44  53
  -6  -1   8 480.616 221.643  41
  -6  -1   8 575.342 205.472  53
  -6  -1   9 35530.0 1254.47  41
  -6  -1   9 33963.5 1145.96  53
  -6  -1  10 7226.74 474.702  41
  -6  -1  10 7395.35 455.770  53
  -6   0  -1 96327.3 2442.64  35
  -6   0   0 17979.3 1065.23  35
  -6   0   1 48961.9 1744.25  35
  -6   0   1 49972.7 1846.23  49
  -6   0   2 11345.1 924.349  48
  -6   0   2 11536.3 935.982  49
  -6   0   2 10657.3 842.627  35
  -6   0   3 76311.1 2255.59  35
  -6   0   4 41240.7 1729.21  35
  -6   0   5 744.558 236.921  35
  -6   0   9 8949.49 698.932  53
  -6   0  10 34854.3 1163.22  53
  -6   0  10 33038.8 1151.31  41
  -6   0  11 23620.7 754.222  53
  -6   0  11 20772.7 695.879  41
  -6   1   1 2451.88 420.415  49
  -6   1   1 3010.42 547.093  48
  -6   1   2 37408.1 1731.42  48
  -6   1   2 33310.9 1968.93  31
  -6   1   3 5350.46 867.204  31
  -6   1   3 5510.17 668.263  48
  -6   1  10 46601.0 1448.76  53
  -6   1  11 155.014 111.131  53
  -6   1  11-20.5945 82.0117  41
  -6   2   2 3426.37 698.178  31
  -6   2   2 3555.65 598.488  48
  -6   2   3 48875.5 2066.46  48
  -6   2   3 47591.3 2368.14  31
  -6   2   5 11295.6 964.590  36
  -6   2   6 102126. 2653.47  36
  -6   2   8 5347.87 630.482  43
  -6   2   9 35824.5 1360.82  43
  -6   2  10 426.892 177.535  43
  -6   2  11 35480.2 914.089  53
  -6   2  11 29971.5 736.483  43
  -6   3   2 66667.2 2590.21  36
  -6   3   2 60330.8 2802.28  31
  -6   3   3 98749.1 3044.01  36
  -6   3   4 127.027 188.539  36
  -6   3   5 27509.1 1452.63  36
  -6   3   9 3398.11 468.681  43
  -6   3  10 40759.2 1200.79  43
  -6   3  11 23110.8 632.048  43
  -6   4   0 61229.8 1971.41  34
  -6   4   3 1700.56 432.217  36
  -6   4   4 74381.6 2446.37  36
  -6   4   9 19041.2 946.755  43
  -6   4  10 33674.2 948.104  43
  -6   5   6 85992.8 2002.36  40
  -6   5   7 3013.92 337.351  40
  -6   5   8 49703.3 1041.72  40
  -6   5   9 6845.64 441.992  43
  -6   6   6 130.172 135.899  40
  -6   6   7 13526.9 552.633  40
  -6   7   4 32331.2 1001.68  40
  -6   7   5 2629.25 254.056  40
  -5  -5  -2 35595.0 1140.49  39
  -5  -5  -1 5758.29 514.771  39
  -5  -5   0 89102.7 2139.77  39
  -5  -5   1 14800.5 758.827  56
  -5  -5   1 13185.9 890.667  39
  -5  -5   2 6451.53 643.409  39
  -5  -5   2 7287.61 600.037  56
  -5  -5   3 51948.8 1618.73  56
  -5  -5   3 43110.6 1522.57  39
  -5  -5   4 578.563 248.378  56
  -5  -5   4 225.769 171.779  39
  -5  -5   5 56055.0 1513.86  56
  -5  -5   6 12100.3 580.488  56
  -5  -4  -6 107002. 1532.89  15
  -5  -4  -4 73538.6 1684.47  39
  -5  -4  -3 25319.0 1134.69  39
  -5  -4  -2 5522.74 577.877  39
  -5  -4  -1 81034.8 2247.04  39
  -5  -4   1 34674.1 1458.74  56
  -5  -4   2 109546. 2756.74  56
  -5  -4   3 38408.3 1732.86  56
  -5  -4   4 67049.7 2325.61  56
  -5  -4   5 13172.1 858.567  41
  -5  -4   5 10950.3 929.240  56
  -5  -4   6 63220.1 2000.43  56
  -5  -4   6 57034.4 1761.43  41
  -5  -4   7 58186.7 1640.18  41
  -5  -4   7 59848.0 1671.15  56
  -5  -4   8 2789.61 341.774  41
  -5  -4   8 2598.94 286.735  56
  -5  -4   9 46330.4 990.510  41
  -5  -3  -7 92958.4 1662.85  15
  -5  -3  -7 85093.6 2023.58  54
  -5  -3  -3 7860.50 719.993  39
  -5  -3  -1 46135.8 1783.58  35
  -5  -3   0 28660.5 1419.17  35
  -5  -3   1 96419.9 2559.26  56
  -5  -3   1 85660.0 2504.77  35
  -5  -3   2 14263.8 1055.38  35
  -5  -3   3 61189.0 2242.07  35
  -5  -3   4 12481.1 1076.38  35
  -5  -3   5 47196.3 1976.89  41
  -5  -3   6 77778.1 2535.66  41
  -5  -3   7 11170.7 906.476  41
  -5  -3   8 102223. 2463.45  41
  -5  -3   8 94401.5 2101.22  53
  -5  -3   9 11032.7 630.020  56
  -5  -3   9 11416.6 655.367  53
  -5  -3  10 25900.1 879.431  41
  -5  -3  10 22965.0 762.673  53
  -5  -2  -8 99521.0 2260.12  54
  -5  -2  -1 40082.5 1633.58  30
  -5  -2  -1 41110.5 1718.27  49
  -5  -2  -1 41904.3 1744.80  35
  -5  -2   0 131828. 3104.47  35
  -5  -2   0 121109. 2996.15  49
  -5  -2   1 191.404 199.834  35
  -5  -2   1 621.209 242.680  49
  -5  -2   2 30509.9 1548.50  35
  -5  -2   2 27618.6 1481.27  49
  -5  -2   3 1736.07 385.463  49
  -5  -2   3 2570.12 498.164  35
  -5  -2   3 2709.09 558.981  31
  -5  -2   4 9654.68 1022.81  31
  -5  -2   4 10391.7 963.987  35
  -5  -2   5 136197. 3709.17  41
  -5  -2   5 144382. 3670.96  35
  -5  -2   6 7022.07 832.938  41
  -5  -2   6 6894.47 828.709  35
  -5  -2   7 82395.6 2479.64  53
  -5  -2   7 88174.7 2815.57  41
  -5  -2   8 8465.15 772.999  53
  -5  -2   8 9117.51 857.710  41
  -5  -2   9 52905.9 1720.44  53
  -5  -2   9 55654.1 1851.25  41
  -5  -2  10 16078.1 866.618  41
  -5  -2  10 13857.6 793.992  53
  -5  -2  11 2230.77 281.112  53
  -5  -2  11 2056.24 265.403  41
  -5  -1  -9 75755.0 1652.65  54
  -5  -1  -4 172107. 3889.45  30
  -5  -1  -3 94917.5 2749.08  30
  -5  -1  -3 92862.4 2437.44  49
  -5  -1  -2 24425.6 1273.02  49
  -5  -1  -2 23005.5 1272.37  30
  -5  -1  -1 182738. 3457.56  49
  -5  -1  -1 170061. 3212.93  30
  -5  -1   0 293.806 156.405  49
  -5  -1   1 55385.3 1932.28  35
  -5  -1   1 53665.5 1929.13  49
  -5  -1   2 17824.5 1364.35  31
  -5  -1   2 15944.4 1081.25  49
  -5  -1   2 16723.3 1074.97  35
  -5  -1   3 25593.2 1422.50  49
  -5  -1   3 28059.3 1417.40  35
  -5  -1   3 27294.3 1791.55  31
  -5  -1   4 43386.3 1829.42  35
  -5  -1   4 47581.8 2369.14  31
  -5  -1   5 3702.09 596.538  35
  -5  -1   5 3373.48 531.902  48
  -5  -1   5 4436.80 730.653  31
  -5  -1   6 100503. 3015.74  35
  -5  -1   6 95348.9 2625.95  48
  -5  -1   7 20140.2 1376.62  35
  -5  -1   8 64178.3 2260.03  53
  -5  -1   8 56109.8 2195.49  35
  -5  -1   9 56467.5 1973.66  53
  -5  -1  10 556.499 269.443  53
  -5  -1  10 797.572 258.084  41
  -5  -1  11 67905.3 1668.22  41
  -5  -1  11 63079.9 1652.21  53
  -5  -1  12 14485.0 552.094  41
  -5  -1  12 16609.2 672.728  53
  -5   0  -5 117809. 3484.37  32
  -5   0  -5 131521. 3456.86  30
  -5   0  -4 31013.4 1634.52  30
  -5   0  -3 57174.2 2057.93  30
  -5   0  -2 258731. 3829.96  49
  -5   0  -2 235228. 3840.18  30
  -5   0  -1-17.6527 105.496  49
  -5   0   0 157528. 3041.88  49
  -5   0   1 40105.1 1527.05  35
  -5   0   1 37981.4 1544.80  49
  -5   0   1 40702.5 2033.14  31
  -5   0   2 21542.3 1612.73  31
  -5   0   2 23527.4 1175.74  35
  -5   0   3 25161.5 1237.55  35
  -5   0   3 28475.8 1867.22  31
  -5   0   4 13070.9 948.774  35
  -5   0   4 13070.0 982.830  48
  -5   0   5 318406. 4916.55  35
  -5   0   5 308787. 4917.87  48
  -5   0   6 14454.9 1094.71  48
  -5   0   6 15871.7 1204.64  35
  -5   0   6 17287.9 1310.96  31
  -5   0   7 49542.6 2103.08  35
  -5   0   7 46069.8 1934.84  48
  -5   0   8 41963.0 1835.22  35
  -5   0  10 114019. 2766.07  53
  -5   0  11 68591.2 1840.29  53
  -5   0  11 64272.0 1467.48  43
  -5   0  12 54531.2 1042.11  43
  -5   0  12 59115.1 1363.31  53
  -5   1  -5 4330.25 622.874  30
  -5   1  -4 8268.94 840.618  30
  -5   1  -3 112729. 2803.49  30
  -5   1  -2 31346.6 1333.96  30
  -5   1  -1 87084.9 2078.98  49
  -5   1   1 92641.2 3308.43  31
  -5   1   1 103216. 2209.59  35
  -5   1   2 61319.6 2012.48  48
  -5   1   2 59347.3 2691.74  31
  -5   1   3 31844.3 1514.09  48
  -5   1   3 32054.3 1942.82  31
  -5   1   4 71368.4 2392.03  48
  -5   1   4 76986.9 2881.01  31
  -5   1   5 12950.2 1147.88  31
  -5   1   5 12216.5 1043.27  48
  -5   1   6 10113.4 1002.28  31
  -5   1   6 10273.4 1001.71  48
  -5   1   7 86055.6 2774.74  48
  -5   1   7 98699.0 2970.60  31
  -5   1   8 245.832 215.072  36
  -5   1   8-266.560 251.131  43
  -5   1   9 80399.2 2480.57  43
  -5   1  10 49345.1 1766.27  43
  -5   1  11 40109.6 1340.37  43
  -5   1  11 39457.9 1409.20  53
  -5   1  12 50496.2 1214.53  43
  -5   1  12 43936.0 1135.01  53
  -5   2  -5 135004. 4058.22  50
  -5   2  -4 34047.8 2172.20  50
  -5   2  -3 4488.20 860.478  50
  -5   2   1 138764. 3144.22  48
  -5   2   2 2766.27 508.242  48
  -5   2   3 73088.6 2415.88  48
  -5   2   4 35528.4 1744.86  48
  -5   2   4 38151.7 2014.68  31
  -5   2   5 140939. 3516.14  48
  -5   2   5 143541. 3792.97  31
  -5   2   6 27779.8 1656.64  31
  -5   2   6 27727.9 1589.35  48
  -5   2   6 26578.2 1424.68  36
  -5   2   7 470.366 242.874  36
  -5   2   7 1749.08 463.591  48
  -5   2   8 41849.4 1638.68  36
  -5   2   9 6013.09 749.217  43
  -5   2  10 29116.1 1447.49  43
  -5   2  11 112958. 2189.07  53
  -5   2  11 117010. 2378.31  43
  -5   2  12 740.913 186.290  43
  -5   2  12 650.499 119.482  53
  -5   3  -5 44106.2 2335.83  50
  -5   3  -4 47155.8 2432.29  50
  -5   3   1-53.0573 183.105  36
  -5   3   2 118922. 3458.29  36
  -5   3   3 188402. 4254.30  36
  -5   3   3 164098. 3813.50  48
  -5   3   4 3923.30 613.529  48
  -5   3   4 4443.81 665.085  36
  -5   3   5 165480. 3679.81  36
  -5   3   5 154067. 3543.70  48
  -5   3   6 10908.9 912.162  36
  -5   3   6 11956.9 1105.55  31
  -5   3   6 12160.6 993.400  48
  -5   3   7 98123.4 2665.61  36
  -5   3   8 5404.86 576.134  36
  -5   3  10 29308.1 1398.36  43
  -5   3  11 7288.82 576.181  43
  -5   3  12 19869.6 693.145  43
  -5   4  -5 5762.99 714.035  37
  -5   4  -4 63771.9 2167.88  37
  -5   4  -2 9493.47 800.133  34
  -5   4  -1 114030. 2714.64  34
  -5   4   2 86330.9 2898.96  36
  -5   4   3 7201.51 856.944  36
  -5   4   4 125119. 3405.65  36
  -5   4   5 1566.12 424.482  36
  -5   4   5 2036.98 398.429  48
  -5   4   6 45146.2 1849.10  36
  -5   4   7 36585.5 1538.24  36
  -5   4   8 15485.1 958.270  40
  -5   4   9 40314.2 1322.18  40
  -5   4  10 1648.33 311.434  43
  -5   4  10 3552.42 328.315  40
  -5   4  11 32639.9 992.139  43
  -5   5  -3 107290. 2606.43  34
  -5   5  -2 43886.2 1727.31  34
  -5   5  -1 10843.3 896.578  34
  -5   5   0 42007.8 1807.90  34
  -5   5   1 35451.6 1720.72  34
  -5   5   2 9977.55 933.391  36
  -5   5   2 10629.9 1014.50  34
  -5   5   3 171215. 3908.39  36
  -5   5   4 2410.25 488.300  36
  -5   5   5 52844.7 2007.01  36
  -5   5   7 56593.9 1895.35  40
  -5   5   8 15252.0 903.295  40
  -5   5   9 1075.65 226.340  40
  -5   5   9 247.922 173.875  43
  -5   5  10 46656.9 1000.04  40
  -5   5  10 35734.1 1023.28  43
  -5   6   0 20292.1 1277.79  34
  -5   6   1 14329.2 1102.65  34
  -5   6   7 89221.6 2130.52  40
  -5   6   8 292.412 101.897  40
  -5   6   9 35349.6 850.688  40
  -5   7  -2 13440.7 788.361  55
  -5   7   5 89.0322 195.259  40
  -5   7   6 35892.4 1145.56  40
  -5   7   7 369.384 137.253  40
  -5   8   3 23011.0 756.488  40
  -4  -6  -3 5804.31 432.889  39
  -4  -6  -2 49275.7 1470.23  39
  -4  -6  -1 6125.12 593.516  39
  -4  -6   0 19897.3 1104.08  39
  -4  -6   0 20377.5 912.352  56
  -4  -6   1 177236. 3317.66  39
  -4  -6   1 190813. 3049.64  56
  -4  -6   2 9907.02 762.430  56
  -4  -6   2 8996.62 749.751  39
  -4  -6   2 9155.28 527.989  20
  -4  -6   3 67294.9 1757.85  39
  -4  -6   3 68702.9 1433.56  20
  -4  -6   3 70139.8 2008.54  56
  -4  -6   4 20233.9 757.037  20
  -4  -6   4 22057.0 1088.44  56
  -4  -6   5 32408.9 880.775  20
  -4  -6   5 43636.3 1330.21  56
  -4  -5  -6 75532.0 1458.15  15
  -4  -5  -5 69461.3 1671.28  39
  -4  -5  -5 63771.9 1569.87  54
  -4  -5  -4 8881.53 697.612  39
  -4  -5  -3 84485.5 2302.26  39
  -4  -5  -2 21821.6 1239.47  39
  -4  -5  -1 52762.6 1702.70  56
  -4  -5  -1 55192.1 2005.59  39
  -4  -5   0 65462.5 2038.01  56
  -4  -5   0 66033.3 2258.20  39
  -4  -5   1 1493.82 380.099  56
  -4  -5   2 57800.4 1607.96  20
  -4  -5   2 57574.9 2164.66  56
  -4  -5   3 66288.8 2438.72  56
  -4  -5   3 71572.8 1853.57  20
  -4  -5   4 23221.3 1470.25  56
  -4  -5   4 27531.9 1170.98  20
  -4  -5   4 25007.2 1247.66  41
  -4  -5   5 56776.5 2191.65  56
  -4  -5   5 59934.5 2015.18  41
  -4  -5   5 59857.7 1718.09  20
  -4  -5   6 4706.11 618.017  41
  -4  -5   6 6275.08 681.352  56
  -4  -5   6 4687.49 479.641  20
  -4  -5   7 98855.1 2351.54  41
  -4  -5   7 107678. 2220.90  56
  -4  -5   8 7085.30 427.528  56
  -4  -5   8 7044.73 462.708  20
  -4  -5   8 7764.84 571.223  41
  -4  -5   9 16509.0 647.491  41
  -4  -5   9 15162.7 510.715  20
  -4  -4  -8 1143.25 197.313  15
  -4  -4  -8 979.710 227.073  54
  -4  -4  -7 66791.9 1948.16  54
  -4  -4  -5 10599.0 843.501  39
  -4  -4  -4 64298.1 2157.23  39
  -4  -4  -3 15597.1 1108.50  39
  -4  -4   0 14920.4 1045.34  56
  -4  -4   1 197707. 3738.40  35
  -4  -4   1 228342. 4235.98  56
  -4  -4   2-171.193 269.174  35
  -4  -4   2 523.873 333.841  56
  -4  -4   3 946.353 361.533  56
  -4  -4   3 1457.74 423.703  35
  -4  -4   4 44687.9 1958.60  35
  -4  -4   4 48332.5 2017.33  41
  -4  -4   5 424.495 211.578  20
  -4  -4   5-160.438 276.665  35
  -4  -4   5-143.067 137.466  41
  -4  -4   6 105965. 2541.35  20
  -4  -4   6 96358.1 3021.13  41
  -4  -4   7 9203.48 747.160  20
  -4  -4   7 10365.7 908.909  56
  -4  -4   7 9716.06 949.723  41
  -4  -4   8 83912.3 2412.75  41
  -4  -4   8 80708.3 2065.50  56
  -4  -4   8 80029.2 2157.69  53
  -4  -4   9 12143.8 796.080  41
  -4  -4   9 12261.2 762.374  53
  -4  -4   9 11295.8 685.923  20
  -4  -4  10 20672.7 827.065  53
  -4  -4  10 19942.2 746.722  20
  -4  -4  10 21740.2 873.747  41
  -4  -3  -9 17827.7 724.871  15
  -4  -3  -9 17287.0 913.842  54
  -4  -3  -8 8926.69 841.543  54
  -4  -3  -8 9653.40 698.421  15
  -4  -3  -4 49643.9 1885.74  39
  -4  -3  -3 49474.0 1977.52  49
  -4  -3  -3 51579.1 2235.03  30
  -4  -3  -2 131273. 3356.54  30
  -4  -3  -2 117093. 2984.37  49
  -4  -3  -1 9097.67 859.129  30
  -4  -3  -1 9021.78 805.111  35
  -4  -3  -1 8274.74 771.076  49
  -4  -3   0 101842. 2641.04  35
  -4  -3   0 105439. 2703.91  30
  -4  -3   1 7087.40 743.666  49
  -4  -3   1 9339.44 789.280  30
  -4  -3   1 7115.07 729.656  35
  -4  -3   2 14101.9 1017.83  35
  -4  -3   2 13796.8 1106.44  31
  -4  -3   2 12676.3 1010.23  49
  -4  -3   2 14873.3 951.614  30
  -4  -3   3 127668. 3168.54  35
  -4  -3   3 118882. 3485.17  31
  -4  -3   4 1667.11 467.988  31
  -4  -3   4 1286.00 337.644  49
  -4  -3   4 2488.32 531.514  35
  -4  -3   5 85913.5 3101.05  31
  -4  -3   5 92434.8 2997.56  35
  -4  -3   6 13221.3 1181.54  35
  -4  -3   6 13763.6 1201.32  31
  -4  -3   6 13633.1 914.080  20
  -4  -3   6 12932.6 1201.21  41
  -4  -3   7 71404.5 2143.69  20
  -4  -3   7 79974.2 2605.90  53
  -4  -3   7 76277.8 2772.85  41
  -4  -3   8 29549.4 1527.79  53
  -4  -3   8 27075.0 1295.26  20
  -4  -3   8 30349.8 1629.42  41
  -4  -3   9 703.365 271.360  53
  -4  -3   9 741.297 239.469  20
  -4  -3   9 516.788 324.850  41
  -4  -3  10 71373.3 1728.87  20
  -4  -3  10 74967.2 1978.01  41
  -4  -3  10 69131.1 1930.09  53
  -4  -3  11 1310.88 287.375  53
  -4  -3  11 1803.07 259.077  41
  -4  -3  11 1579.35 235.127  20
  -4  -3  12 76794.1 1128.26  20
  -4  -3  12 81304.6 1403.52  53
  -4  -2 -10 20866.6 937.745  54
  -4  -2  -9 18937.9 872.658  15
  -4  -2  -9 20354.5 1204.48  54
  -4  -2  -5 45335.1 2167.34  30
  -4  -2  -5 40279.0 1704.19  49
  -4  -2  -4 11327.7 1081.79  30
  -4  -2  -4 10881.1 884.268  49
  -4  -2  -3 92648.3 2525.12  49
  -4  -2  -3 102696. 3000.78  30
  -4  -2  -2 17080.7 1131.26  30
  -4  -2  -2 17743.8 1092.45  49
  -4  -2  -1 204573. 3632.90  49
  -4  -2  -1 217889. 3748.86  30
  -4  -2   0 36164.7 1506.02  49
  -4  -2   0 37359.4 1471.87  30
  -4  -2   1 18253.1 1075.69  49
  -4  -2   1 19935.6 1029.73  30
  -4  -2   1 19411.5 1186.37  31
  -4  -2   1 19971.7 1134.77  35
  -4  -2   2 8042.44 730.159  49
  -4  -2   2 8236.61 856.949  31
  -4  -2   2 10025.5 815.911  35
  -4  -2   3 41559.3 1693.32  35
  -4  -2   3 39694.9 1667.73  49
  -4  -2   3 40688.9 2086.18  31
  -4  -2   4 74526.7 2915.50  31
  -4  -2   4 74811.7 2379.52  35
  -4  -2   5 8461.09 990.331  31
  -4  -2   5 8864.71 905.704  35
  -4  -2   6 96133.0 3100.10  31
  -4  -2   6 86483.4 2874.20  35
  -4  -2   7 56480.4 2220.01  31
  -4  -2   7 58240.3 2268.79  53
  -4  -2   8 307.934 212.164  35
  -4  -2   8 903.834 257.886  20
  -4  -2   8 655.881 268.529  53
  -4  -2   9 31373.6 1540.78  53
  -4  -2   9 27736.4 1518.29  35
  -4  -2   9 30490.2 1344.58  20
  -4  -2  10 18625.6 1097.84  53
  -4  -2  10 18002.5 947.045  20
  -4  -2  10 17747.2 1078.15  41
  -4  -2  11 73737.1 1970.84  53
  -4  -2  11 75103.7 1883.03  41
  -4  -2  11 72802.1 1680.67  20
  -4  -2  12 75724.6 1690.54  53
  -4  -2  12 78332.7 1439.31  20
  -4  -2  12 79819.8 1487.33  41
  -4  -2  13 2202.81 219.345  53
  -4  -2  13 1999.17 174.603  20
  -4  -1 -10 21141.6 1032.65  54
  -4  -1  -9 161172. 3495.25  54
  -4  -1  -6 2577.49 509.644  30
  -4  -1  -5 4331.04 689.021  30
  -4  -1  -4 41723.0 1536.30  49
  -4  -1  -4 41242.9 1917.48  30
  -4  -1  -3 5202.28 536.632  49
  -4  -1  -3 4499.16 616.213  30
  -4  -1  -2 248062. 3686.69  49
  -4  -1  -2 252261. 4006.81  30
  -4  -1  -1 121231. 2526.29  30
  -4  -1  -1 123569. 2558.34  49
  -4  -1   0 196485. 2994.36  30
  -4  -1   0 188795. 3120.56  49
  -4  -1   1 162197. 3580.79  31
  -4  -1   1 161595. 2919.81  49
  -4  -1   2 18286.8 983.791  35
  -4  -1   2 18546.2 1357.14  31
  -4  -1   3 265491. 5403.27  31
  -4  -1   3 271501. 3847.86  35
  -4  -1   4 6400.44 869.948  31
  -4  -1   4 5275.02 577.483  35
  -4  -1   5 29619.1 1741.84  31
  -4  -1   5 29808.9 1464.12  35
  -4  -1   5 28684.5 1299.18  48
  -4  -1   6 71469.6 2157.27  48
  -4  -1   6 63409.8 2318.40  35
  -4  -1   7 249.390 221.437  31
  -4  -1   7 477.103 332.484  35
  -4  -1   7 48.9881 67.9447  48
  -4  -1   8 53703.3 2000.95  31
  -4  -1   8 48512.9 2172.23  35
  -4  -1   9 36765.1 1775.86  35
  -4  -1   9 43592.1 1873.46  53
  -4  -1  10 115804. 2888.59  53
  -4  -1  10 100538. 2630.57  35
  -4  -1  11 56159.8 1571.43  43
  -4  -1  11 58994.9 1883.18  53
  -4  -1  12 14625.6 695.693  43
  -4  -1  12 14539.1 817.862  53
  -4  -1  13 67801.3 1155.27  43
  -4  -1  13 66715.8 1302.91  53
  -4   0 -11 3372.14 374.226  45
  -4   0  -7 25218.0 1558.76  32
  -4   0  -7 32423.6 1667.77  30
  -4   0  -6 93013.8 3049.69  32
  -4   0  -6 119187. 3314.18  30
  -4   0  -5 94075.2 2912.23  30
  -4   0  -4 2027.29 421.504  30
  -4   0  -3 196627. 2941.98  49
  -4   0  -3 201843. 3682.52  30
  -4   0  -2 101210. 2327.41  30
  -4   0  -2 99254.4 2094.20  49
  -4   0  -1 201263. 2963.04  49
  -4   0  -1 201430. 2968.98  30
  -4   0   0 382617. 5313.00  31
  -4   0   0 384110. 3746.63  30
  -4   0   1 3157.95 568.516  31
  -4   0   2 203364. 4645.71  31
  -4   0   2 207212. 2987.64  35
  -4   0   3 96280.5 3146.38  31
  -4   0   3 88107.7 1992.04  35
  -4   0   4 199208. 3222.80  35
  -4   0   4 238152. 4821.78  31
  -4   0   5 211566. 4372.24  31
  -4   0   5 201586. 3598.28  48
  -4   0   6 3863.81 562.405  35
  -4   0   6 4739.87 664.441  31
  -4   0   6 4289.28 570.325  48
  -4   0   7 121026. 3339.98  35
  -4   0   7 130085. 3162.96  48
  -4   0   8 55476.5 2019.30  48
  -4   0   8 61495.9 2140.05  31
  -4   0   8 55619.7 2261.03  35
  -4   0   9 21426.5 1345.73  35
  -4   0   9 20128.5 1235.02  43
  -4   0  10 89565.6 2383.97  35
  -4   0  10 97498.8 2563.24  43
  -4   0  11 4930.02 581.684  43
  -4   0  11 4782.08 568.579  53
  -4   0  12 142468. 2469.53  43
  -4   0  12 139207. 2491.99  53
  -4   0  13 22545.7 808.636  43
  -4   0  13 17638.4 658.148  53
  -4   1 -11 58505.4 1486.68  45
  -4   1  -8 16933.1 988.099  37
  -4   1  -7 64962.7 2038.35  37
  -4   1  -7 62315.7 2507.23  50
  -4   1  -7 68673.9 2498.07  32
  -4   1  -6 10016.2 987.511  32
  -4   1  -5 2077.12 476.672  32
  -4   1  -4 147449. 3825.58  32
  -4   1   2 68532.2 1561.02  35
  -4   1   3 62249.1 1576.99  35
  -4   1   3 62165.3 1840.71  48
  -4   1   4 209093. 3633.06  48
  -4   1   4 204274. 4243.67  31
  -4   1   4 214375. 3237.73  35
  -4   1   5 26002.6 1490.29  31
  -4   1   5 25749.1 1371.69  48
  -4   1   6 98443.2 2850.24  31
  -4   1   6 96858.1 2802.62  48
  -4   1   7 7150.23 765.202  31
  -4   1   7 6949.75 795.583  48
  -4   1   8 31697.6 1538.19  33
  -4   1   8 26558.9 1285.00  36
  -4   1   8 29585.4 1503.65  31
  -4   1   8 29813.2 1528.84  48
  -4   1   9 36814.4 1575.28  48
  -4   1   9 38853.1 1716.06  33
  -4   1  10 5991.84 708.710  43
  -4   1  11 46238.0 1768.37  43
  -4   1  11 47860.7 1697.04  53
  -4   1  12 61241.6 1738.15  43
  -4   1  12 52357.5 1441.01  53
  -4   1  13 22810.8 850.197  43
  -4   1  14 45631.5 807.413  43
  -4   2  -8 33159.8 1525.57  37
  -4   2  -7 123220. 3527.09  50
  -4   2  -7 123242. 3314.01  32
  -4   2  -6 11533.0 1072.95  32
  -4   2  -6 10363.4 1104.68  50
  -4   2  -6 8846.32 856.187  37
  -4   2  -5 171838. 4096.20  32
  -4   2  -5 173706. 4452.49  50
  -4   2  -5 168150. 3538.10  37
  -4   2  -4 26324.9 1587.98  32
  -4   2  -4 25788.7 1768.33  50
  -4   2  -3 57629.3 2627.48  50
  -4   2   0 111778. 2346.12  48
  -4   2   1 120588. 2525.53  48
  -4   2   2 51854.0 1736.90  48
  -4   2   3 215617. 3734.44  48
  -4   2   4 186.499 263.464  48
  -4   2   5 150085. 3389.13  48
  -4   2   6 12910.3 1070.19  31
  -4   2   6 14486.8 1066.86  33
  -4   2   6 14844.5 1112.05  48
  -4   2   6 14734.2 995.697  36
  -4   2   7 26808.1 1516.89  31
  -4   2   7 27078.6 1474.81  48
  -4   2   7 24472.8 1365.55  33
  -4   2   7 26078.5 1323.18  36
  -4   2   8 10803.6 908.856  48
  -4   2   8 9252.78 795.008  36
  -4   2   8 11410.8 967.250  33
  -4   2   9 756.136 288.535  33
  -4   2   9 653.813 271.970  48
  -4   2  10 11374.3 1006.92  43
  -4   2  11 9390.43 817.722  43
  -4   2  12 44473.6 1437.46  43
  -4   2  13 31082.5 936.248  43
  -4   3 -12 5758.54 360.401  44
  -4   3  -8 150754. 3431.29  37
  -4   3  -7 16977.0 1228.74  37
  -4   3  -7 14984.6 1185.34  32
  -4   3  -7 16039.2 1330.67  50
  -4   3  -6 59638.1 2652.71  50
  -4   3  -6 61969.4 2438.03  32
  -4   3  -6 60777.3 2295.00  37
  -4   3  -5 155533. 3412.65  37
  -4   3  -5 151894. 4334.31  50
  -4   3  -4 156417. 4408.91  50
  -4   3  -3 184291. 4535.70  50
  -4   3  -2 10191.2 711.128  34
  -4   3   0 170162. 3392.52  36
  -4   3   1 22879.0 1387.68  36
  -4   3   2 272298. 4917.79  36
  -4   3   2 242102. 4394.66  48
  -4   3   3 17540.4 1233.77  36
  -4   3   3 14121.7 1064.22  48
  -4   3   4 192009. 3922.69  36
  -4   3   4 200859. 3938.89  48
  -4   3   5 122382. 3036.62  36
  -4   3   5 124424. 3424.20  33
  -4   3   5 124272. 3066.53  48
  -4   3   6 20884.2 1414.79  33
  -4   3   6 20740.7 1209.43  36
  -4   3   6 20860.3 1251.91  48
  -4   3   7 29344.6 1421.25  36
  -4   3   7 31908.1 1517.41  48
  -4   3   8 6848.89 724.127  48
  -4   3   8 6283.89 656.837  36
  -4   3   8 6343.70 726.747  40
  -4   3   8 6775.76 775.475  33
  -4   3   9 77810.7 2201.94  40
  -4   3  10 21897.2 1048.96  40
  -4   3  10 6399.74 756.113  43
  -4   3  11 18047.4 1047.61  43
  -4   3  11 19599.6 866.218  40
  -4   3  12 83482.6 1445.38  40
  -4   3  12 81327.6 1730.35  43
  -4   3  13 809.291 131.521  43
  -4   4 -11 43131.5 1148.78  44
  -4   4  -7 49347.2 2088.01  37
  -4   4  -6 19683.2 1558.28  50
  -4   4  -6 18630.5 1266.17  37
  -4   4  -5 24281.2 1765.94  50
  -4   4  -4 78663.0 3010.01  50
  -4   4  -4 85369.9 2266.80  34
  -4   4  -3 22539.3 1171.15  34
  -4   4  -2 115316. 2660.30  34
  -4   4  -1 39708.6 1584.53  34
  -4   4   1 161880. 3509.07  36
  -4   4   2 1142.75 367.628  36
  -4   4   3 51977.4 2215.31  36
  -4   4   4 159058. 3741.49  36
  -4   4   4 148358. 3362.65  48
  -4   4   5 6446.87 829.535  33
  -4   4   5 6716.89 731.683  48
  -4   4   5 7145.26 776.875  36
  -4   4   6 78506.1 2323.42  48
  -4   4   6 84088.4 2495.98  36
  -4   4   6 76069.8 2908.68  33
  -4   4   7 196.644 197.587  36
  -4   4   7 83.2251 207.703  48
  -4   4   8 46709.0 1845.64  40
  -4   4   8 48419.6 1710.63  36
  -4   4   9 28564.6 1333.89  40
  -4   4  10 12474.3 945.875  43
  -4   4  10 38422.5 1349.68  40
  -4   4  11 36996.1 1262.69  43
  -4   4  11 40504.9 1159.14  40
  -4   4  12 4549.46 308.452  40
  -4   4  12 3492.51 279.632  43
  -4   5 -10 59596.3 1378.53  44
  -4   5  -9 1933.31 327.328  44
  -4   5  -8 69942.8 2161.40  44
  -4   5  -6 24989.4 1406.33  37
  -4   5  -5 95434.7 2620.47  34
  -4   5  -4 2146.40 426.300  34
  -4   5  -3 101091. 2729.57  34
  -4   5  -2 57988.7 2045.07  34
  -4   5  -1 82667.8 2467.15  34
  -4   5   0 57282.9 2099.71  34
  -4   5   1 4292.05 565.972  36
  -4   5   1 3903.23 571.666  34
  -4   5   2 100245. 2949.30  36
  -4   5   2 91752.0 2876.51  34
  -4   5   3 12131.5 1110.11  33
  -4   5   3 14962.1 1207.23  36
  -4   5   4 56077.9 2283.70  36
  -4   5   4 40299.3 2095.96  33
  -4   5   5 106353. 3468.90  33
  -4   5   5 122441. 3222.70  36
  -4   5   6 198.342 278.946  36
  -4   5   7 80177.9 2252.54  36
  -4   5   8 3782.58 550.914  40
  -4   5   9 46928.5 1592.48  40
  -4   5  10 48746.9 1388.03  43
  -4   5  10 59644.4 1500.94  40
  -4   5  11 153.674 83.1129  40
  -4   6  -4 65921.2 2242.68  34
  -4   6  -3 89796.6 2648.99  34
  -4   6  -2 48877.4 1973.51  34
  -4   6  -1 61949.1 2255.19  34
  -4   6   0 10518.7 953.393  34
  -4   6   1 76740.5 2667.22  34
  -4   6   2 56902.1 2092.15  36
  -4   6   2 48624.6 2181.97  34
  -4   6   3 376.653 285.089  34
  -4   6   3 804.865 295.103  36
  -4   6   4 89972.2 2854.00  34
  -4   6   4 178999. 3895.95  36
  -4   6   5 462.361 217.520  36
  -4   6   7 8127.72 784.682  40
  -4   6   8 12647.4 843.883  40
  -4   6   9 91810.3 1805.64  40
  -4   6  10 239.310 116.216  40
  -4   7  -1 54.4419 182.782  55
  -4   7   0 49499.1 1675.31  55
  -4   7   6 27163.9 1180.70  40
  -4   7   7 740.636 213.993  40
  -4   7   8 21195.4 663.860  40
  -4   8  -5 13447.9 699.262  55
  -4   8  -4 12150.3 761.272  55
  -4   8  -3 99795.2 2197.63  55
  -4   8  -2 3951.45 452.715  55
  -4   8  -1 67456.4 1686.36  55
  -4   8   0 35255.9 1135.86  55
  -4   8   3 8651.33 559.580  40
  -4   8   4 36008.0 967.258  40
  -3  -7  -1 23542.2 879.569  56
  -3  -7  -1 24765.0 832.645  20
  -3  -7  -1 25607.5 1053.11  39
  -3  -7   0 47599.0 1445.14  56
  -3  -7   0 49866.9 1241.79  20
  -3  -7   1 27186.1 1191.16  56
  -3  -7   1 26935.0 940.150  20
  -3  -7   2 5575.95 579.179  56
  -3  -7   2 5292.88 430.695  20
  -3  -7   3 53071.8 1315.89  20
  -3  -7   3 53072.2 1670.11  56
  -3  -7   4 67659.7 1660.21  56
  -3  -7   4 55586.0 1280.15  20
  -3  -6  -6 8560.36 475.863  39
  -3  -6  -5 61332.3 1364.47  15
  -3  -6  -5 65826.2 1689.98  39
  -3  -6  -4 33243.6 1113.01  20
  -3  -6  -4 33822.5 1382.08  39
  -3  -6  -3 24235.6 1036.75  20
  -3  -6  -3 24782.5 1293.24  39
  -3  -6  -2 74988.5 2344.93  39
  -3  -6  -2 78103.4 2050.60  56
  -3  -6  -2 78358.4 1903.68  20
  -3  -6  -1 7236.30 790.575  39
  -3  -6  -1 7083.67 587.859  20
  -3  -6  -1 6644.83 680.860  56
  -3  -6   0 163200. 2803.47  20
  -3  -6   0 166093. 3423.55  56
  -3  -6   0 158635. 3639.55  39
  -3  -6   1 2050.60 451.184  39
  -3  -6   1 2356.11 463.834  56
  -3  -6   1 2085.81 329.260  20
  -3  -6   2 22909.5 1090.43  20
  -3  -6   2 20836.2 1359.58  56
  -3  -6   3 51560.5 1721.08  41
  -3  -6   3 53638.6 1687.24  20
  -3  -6   4 899.784 324.763  41
  -3  -6   4 133.106 318.898  56
  -3  -6   4 843.107 234.933  20
  -3  -6   5 63325.6 2101.78  41
  -3  -6   5 62906.0 1842.30  20
  -3  -6   6 10310.9 736.422  20
  -3  -6   6 11197.7 783.546  56
  -3  -6   6 9658.16 813.766  41
  -3  -6   7 60332.2 1600.91  20
  -3  -6   7 67032.0 1874.22  41
  -3  -6   8 56017.6 1413.69  41
  -3  -6   8 52728.8 1250.62  20
  -3  -5  -8 93331.0 1513.36  54
  -3  -5  -8 123178. 1869.64  15
  -3  -5  -7 1517.23 313.052  15
  -3  -5  -7 1118.52 259.921  54
  -3  -5  -7 1347.31 264.251  39
  -3  -5  -6 53858.8 1793.36  54
  -3  -5  -6 56245.8 1885.64  39
  -3  -5  -5 44418.6 1834.73  39
  -3  -5  -4 34698.7 1697.90  39
  -3  -5  -3 65296.6 1923.27  20
  -3  -5  -3 71266.0 2445.57  39
  -3  -5  -2 10268.1 762.120  20
  -3  -5  -2 10029.7 950.355  39
  -3  -5  -2 12509.2 937.997  56
  -3  -5  -1 112113. 3070.39  39
  -3  -5  -1 108479. 2437.19  20
  -3  -5   0 2683.25 391.866  20
  -3  -5   0 2110.47 489.092  56
  -3  -5   1 19126.5 1310.91  56
  -3  -5   1 18403.9 1014.43  20
  -3  -5   2 110451. 3223.14  56
  -3  -5   2 118222. 2602.95  20
  -3  -5   3 708.238 208.069  20
  -3  -5   3 316.155 353.346  56
  -3  -5   3 840.538 346.064  41
  -3  -5   4 128559. 2855.43  20
  -3  -5   4 112669. 3174.23  41
  -3  -5   5 26679.8 1669.21  56
  -3  -5   5 30372.0 1739.23  41
  -3  -5   6 55100.4 2205.62  56
  -3  -5   6 50989.0 1886.66  20
  -3  -5   7 14010.3 1130.36  41
  -3  -5   7 14230.3 988.288  20
  -3  -5   8 772.056 242.853  20
  -3  -5   8 166.404 246.757  41
  -3  -5   8 344.874 199.697  53
  -3  -5   9 73344.1 1904.43  41
  -3  -5   9 73927.0 1883.70  53
  -3  -5   9 71222.5 1794.38  20
  -3  -5  10 9572.59 569.435  53
  -3  -5  10 10684.5 562.703  20
  -3  -5  10 9960.96 562.361  41
  -3  -4 -10 50960.7 1153.88  54
  -3  -4 -10 50325.4 1022.51  15
  -3  -4  -9 44271.6 1485.64  54
  -3  -4  -9 43334.4 1318.81  15
  -3  -4  -8 23277.8 1317.92  54
  -3  -4  -8 22142.6 1147.13  15
  -3  -4  -7 61707.0 1987.37  39
  -3  -4  -6 25333.8 1417.39  39
  -3  -4  -5 48776.9 2028.79  39
  -3  -4  -4 113951. 3198.62  49
  -3  -4  -4 127928. 3691.32  30
  -3  -4  -3 3618.42 658.397  30
  -3  -4  -3 2763.73 474.254  49
  -3  -4  -3 2834.85 486.445  39
  -3  -4  -2 132647. 3259.53  49
  -3  -4  -2 137463. 3607.75  30
  -3  -4  -1 11006.3 971.596  30
  -3  -4  -1 11142.3 932.862  49
  -3  -4   0 147368. 3315.74  30
  -3  -4   0 141982. 3273.88  49
  -3  -4   1 36931.3 1596.58  30
  -3  -4   1 36687.8 1549.47  31
  -3  -4   1 31832.7 1549.65  49
  -3  -4   2 5010.94 596.962  35
  -3  -4   2 6077.58 697.246  49
  -3  -4   2 5785.69 677.893  31
  -3  -4   2 5249.42 586.422  30
  -3  -4   3 103074. 2735.82  35
  -3  -4   3 105176. 2607.45  30
  -3  -4   4 590.000 320.868  31
  -3  -4   4 1272.61 287.380  30
  -3  -4   4 647.529 328.767  35
  -3  -4   5 134405. 2913.42  20
  -3  -4   5 106024. 3349.96  31
  -3  -4   5 125594. 3370.22  35
  -3  -4   5 113538. 3418.83  41
  -3  -4   6 42879.6 2009.27  35
  -3  -4   6 46301.3 1794.77  20
  -3  -4   6 47992.5 2169.26  31
  -3  -4   7 17543.8 1250.50  35
  -3  -4   7 19336.4 1434.09  41
  -3  -4   7 17230.4 1278.87  53
  -3  -4   7 15814.6 1085.98  20
  -3  -4   8 111632. 3103.90  41
  -3  -4   8 104026. 2962.21  53
  -3  -4   9 18675.6 1097.06  20
  -3  -4   9 19540.3 1172.93  41
  -3  -4   9 18570.8 1157.82  53
  -3  -4  10 29045.3 1288.33  53
  -3  -4  10 30440.2 1251.63  41
  -3  -4  10 31642.8 1246.16  20
  -3  -4  11 34124.0 1059.13  41
  -3  -4  11 33470.4 1178.60  53
  -3  -4  11 35355.3 1100.17  20
  -3  -4  12 42283.2 911.391  20
  -3  -4  12 40901.3 1016.04  53
  -3  -3 -11 7489.02 490.407  54
  -3  -3 -11 6969.64 360.393  15
  -3  -3 -10 57077.5 1465.07  15
  -3  -3 -10 59294.5 1824.43  54
  -3  -3  -9 11253.0 973.643  54
  -3  -3  -9 9265.96 723.520  15
  -3  -3  -6 9238.73 971.096  30
  -3  -3  -6 10121.8 942.465  49
  -3  -3  -5 23360.1 1560.82  30
  -3  -3  -5 21385.2 1330.46  49
  -3  -3  -4 1820.59 415.664  49
  -3  -3  -4 1357.05 441.639  30
  -3  -3  -3 51137.3 2155.84  30
  -3  -3  -3 52078.0 1929.77  49
  -3  -3  -2 14719.1 990.773  49
  -3  -3  -2 15924.2 1103.28  30
  -3  -3  -1 196616. 3626.40  30
  -3  -3  -1 194693. 3453.56  49
  -3  -3   0 129674. 2766.10  49
  -3  -3   0 133413. 2805.81  30
  -3  -3   1 10736.7 784.334  30
  -3  -3   1 10626.9 768.577  35
  -3  -3   1 12003.1 861.298  31
  -3  -3   1 11373.6 817.298  49
  -3  -3   2 282410. 3866.01  30
  -3  -3   2 250542. 3865.53  49
  -3  -3   2 261208. 3823.24  35
  -3  -3   2 273890. 4550.52  31
  -3  -3   3 1579.82 394.573  31
  -3  -3   3 1911.46 373.276  35
  -3  -3   3 2160.22 347.514  30
  -3  -3   3 2185.79 392.490  49
  -3  -3   4 164144. 3419.03  35
  -3  -3   4 114060. 3393.59  31
  -3  -3   5 43060.3 2112.09  31
  -3  -3   5 50932.1 2087.40  35
  -3  -3   6 13555.7 1155.00  31
  -3  -3   6 12518.3 1126.50  35
  -3  -3   7 54892.3 2400.49  35
  -3  -3   7 60249.5 2281.39  31
  -3  -3   8 56360.5 2258.74  41
  -3  -3   8 54018.7 1968.14  31
  -3  -3   8 50013.1 2085.68  53
  -3  -3   8 50533.6 2231.31  35
  -3  -3   9 104482. 2689.58  20
  -3  -3   9 102850. 2939.13  35
  -3  -3   9 112868. 2943.54  41
  -3  -3   9 107672. 2916.73  53
  -3  -3  10 89172.7 2355.81  41
  -3  -3  10 87004.1 2439.78  53
  -3  -3  10 93050.5 2356.11  20
  -3  -3  11 32186.0 1342.72  53
  -3  -3  11 33705.9 1253.45  20
  -3  -3  11 31348.5 1195.94  41
  -3  -3  12 77511.2 1590.79  20
  -3  -3  12 75374.6 1200.01  25
  -3  -3  12 75208.0 1751.16  53
  -3  -3  13 2901.35 261.194  53
  -3  -3  13 3486.08 271.028  20
  -3  -2 -12 9733.67 471.791  54
  -3  -2 -12 8860.11 517.260  45
  -3  -2 -11 61521.3 1698.03  54
  -3  -2 -10 176.884 121.808  15
  -3  -2 -10-50.4924 139.315  54
  -3  -2  -9 107398. 3121.59  54
  -3  -2  -9 103665. 2493.28  15
  -3  -2  -7 26425.0 1495.06  30
  -3  -2  -6 69332.3 2534.28  30
  -3  -2  -6 61033.5 2049.27  49
  -3  -2  -5 3737.30 642.052  30
  -3  -2  -5 3310.73 486.406  49
  -3  -2  -4 33770.3 1422.01  49
  -3  -2  -4 33376.5 1705.21  30
  -3  -2  -3 44977.6 1584.87  49
  -3  -2  -3 46173.0 1848.66  30
  -3  -2  -2 77138.2 1993.71  49
  -3  -2  -2 73861.0 2095.73  30
  -3  -2  -1 22851.6 1082.25  30
  -3  -2  -1 22227.1 1041.94  49
  -3  -2   0 21094.7 973.627  30
  -3  -2   0 19945.2 952.860  31
  -3  -2   0 20885.4 982.219  49
  -3  -2   1 229204. 3067.45  30
  -3  -2   1 233612. 3240.76  49
  -3  -2   2 49924.2 1518.43  49
  -3  -2   2 52891.6 1554.25  35
  -3  -2   2 50398.1 1409.03  30
  -3  -2   2 49132.2 1895.12  31
  -3  -2   3 102502. 1942.87  30
  -3  -2   3 100776. 2238.86  35
  -3  -2   4 107602. 2504.16  35
  -3  -2   4 84031.5 2788.24  31
  -3  -2   5 5504.10 657.276  35
  -3  -2   5 5324.12 727.224  31
  -3  -2   6 160596. 3678.94  31
  -3  -2   6 163814. 3784.59  35
  -3  -2   7 72333.4 2699.51  35
  -3  -2   7 73001.1 2589.64  33
  -3  -2   8 12152.0 1129.58  35
  -3  -2   8 13754.2 1160.89  33
  -3  -2   9 78926.3 2452.89  41
  -3  -2   9 80078.0 2710.38  33
  -3  -2   9 68007.5 2519.50  35
  -3  -2   9 69131.3 2332.95  53
  -3  -2  10 3345.23 515.823  53
  -3  -2  10 3664.06 508.857  41
  -3  -2  10 4150.08 570.341  35
  -3  -2  11 52570.7 1583.11  43
  -3  -2  11 49814.7 1783.80  53
  -3  -2  12 473.618 202.923  53
  -3  -2  12 780.192 219.631  43
  -3  -2  13 44967.0 1135.75  20
  -3  -2  13 41897.9 1044.92  43
  -3  -2  13 42857.3 1164.78  53
  -3  -2  14 47462.0 823.508  20
  -3  -1 -12 100220. 2073.36  45
  -3  -1 -12 98111.8 1644.35  54
  -3  -1 -11 3960.03 489.363  54
  -3  -1 -10 162318. 3433.88  54
  -3  -1  -9 18961.9 1019.98  37
  -3  -1  -8 236904. 4125.64  30
  -3  -1  -8 225654. 4708.19  32
  -3  -1  -8 225388. 3616.76  37
  -3  -1  -7 47947.1 1976.58  30
  -3  -1  -7 44881.2 1622.96  37
  -3  -1  -6 4080.14 599.089  30
  -3  -1  -5 75245.6 2489.08  30
  -3  -1  -5 74629.8 1868.82  49
  -3  -1  -4 26433.8 1397.17  30
  -3  -1  -4 26286.7 1062.47  49
  -3  -1  -3 221618. 3656.63  30
  -3  -1  -3 229124. 3063.65  49
  -3  -1  -2 399020. 4357.91  30
  -3  -1  -2 393122. 3922.07  49
  -3  -1  -1 100919. 1940.97  49
  -3  -1  -1 102556. 1984.42  30
  -3  -1   0 322936. 3256.36  30
  -3  -1   0 313408. 3778.60  31
  -3  -1   1 126583. 1922.95  30
  -3  -1   1 118095. 2695.69  31
  -3  -1   2 64315.6 1527.85  35
  -3  -1   2 67904.0 1347.03  30
  -3  -1   3 192217. 2741.72  35
  -3  -1   3 179795. 3877.86  31
  -3  -1   4 36477.0 1738.03  31
  -3  -1   4 34851.7 1285.09  35
  -3  -1   5 334260. 5082.31  31
  -3  -1   5 330841. 3849.63  48
  -3  -1   5 329273. 4485.00  33
  -3  -1   6 52076.5 2003.80  33
  -3  -1   6 57122.6 2035.53  31
  -3  -1   6 55006.3 1706.05  48
  -3  -1   6 49871.2 1956.10  35
  -3  -1   7 35553.8 1560.65  31
  -3  -1   7 35966.9 1789.91  33
  -3  -1   7 31947.4 1707.29  35
  -3  -1   8 80182.4 2771.24  35
  -3  -1   8 89064.1 2374.71  31
  -3  -1   9 1880.07 428.439  35
  -3  -1   9 2491.86 489.591  33
  -3  -1  10 43406.2 1681.84  43
  -3  -1  10 40603.2 1761.33  35
  -3  -1  10 43083.3 1771.64  53
  -3  -1  11 23231.1 1250.68  53
  -3  -1  11 20722.3 1131.16  43
  -3  -1  11 20156.0 1124.59  35
  -3  -1  12 18328.0 959.135  43
  -3  -1  12 19181.3 1013.43  53
  -3  -1  13 58330.2 1401.62  53
  -3  -1  13 64290.9 1542.04  43
  -3  -1  14 9165.89 454.935  43
  -3   0 -13 38566.3 1024.19  45
  -3   0 -12 1545.12 293.554  45
  -3   0 -10 57464.3 1721.32  37
  -3   0  -9 93422.3 2442.06  30
  -3   0  -9 90086.6 2277.20  37
  -3   0  -9 86351.6 2718.19  50
  -3   0  -9 97129.8 2890.09  32
  -3   0  -8 198335. 4283.86  32
  -3   0  -8 197254. 3772.44  30
  -3   0  -8 198910. 3451.90  37
  -3   0  -7 10927.2 814.634  37
  -3   0  -7 11114.8 1021.44  32
  -3   0  -6 239860. 3786.28  37
  -3   0  -5 63040.3 1926.43  37
  -3   0  -4 189353. 3242.28  37
  -3   0  -3 225084. 2584.50  49
  -3   0  -2 70595.8 1431.61  49
  -3   0  -1 140271. 2127.45  30
  -3   0  -1 141855. 2460.06  31
  -3   0   0 199759. 3484.38  31
  -3   0   0 185964. 2167.64  30
  -3   0   1 218310. 4035.52  31
  -3   0   1 244616. 2247.34  30
  -3   0   2 627316. 4217.18  35
  -3   0   2 635764. 7109.74  31
  -3   0   3 4248.09 386.593  35
  -3   0   3 5676.71 673.537  31
  -3   0   4 571506. 4830.60  35
  -3   0   4 563265. 6285.10  31
  -3   0   5 114575. 2661.06  33
  -3   0   5 120209. 2466.19  48
  -3   0   5 115827. 2514.24  35
  -3   0   5 118893. 2820.18  31
  -3   0   6 215011. 3706.15  31
  -3   0   6 217829. 3941.88  35
  -3   0   6 213500. 3588.21  48
  -3   0   7 87122.3 2326.36  31
  -3   0   7 79547.8 2588.24  35
  -3   0   7 80897.3 2289.26  48
  -3   0   8 3418.43 496.871  48
  -3   0   8 2379.30 460.072  35
  -3   0   8 3127.16 527.538  33
  -3   0   9 39114.7 1817.77  33
  -3   0   9 34051.0 1650.99  35
  -3   0  10 27029.0 1421.08  43
  -3   0  10 29077.9 1441.55  35
  -3   0  11 64935.6 2028.86  53
  -3   0  11 62124.8 2043.83  43
  -3   0  12 57560.2 1811.41  43
  -3   0  13 15347.9 814.771  43
  -3   0  14 86078.7 1499.07  43
  -3   1 -13 1534.42 227.544  45
  -3   1 -12 49713.4 1541.80  45
  -3   1 -11 12606.0 907.227  45
  -3   1 -10 39421.9 1521.87  37
  -3   1  -9 79978.9 2556.56  32
  -3   1  -9 76686.2 2576.64  50
  -3   1  -9 83312.0 2354.68  37
  -3   1  -8 827.194 302.441  37
  -3   1  -8 742.076 263.179  50
  -3   1  -8 912.699 307.115  32
  -3   1  -7 145047. 3221.57  37
  -3   1  -7 136535. 3521.54  50
  -3   1  -7 135861. 3386.65  32
  -3   1  -6 138431. 3405.19  32
  -3   1  -6 139298. 3062.78  37
  -3   1  -5 48436.5 1726.92  37
  -3   1  -5 51777.1 2055.23  32
  -3   1  -4 80516.2 2034.98  37
  -3   1  -3 41653.2 1296.31  37
  -3   1   3 229050. 3028.75  48
  -3   1   3 241730. 2628.32  35
  -3   1   4 10647.9 819.355  33
  -3   1   4 9205.80 680.238  48
  -3   1   4 8825.34 594.792  35
  -3   1   5 172273. 3131.66  48
  -3   1   5 175113. 3042.67  35
  -3   1   5 181188. 3399.25  33
  -3   1   6 172084. 3327.58  48
  -3   1   6 179158. 3341.77  31
  -3   1   7 9229.45 818.975  33
  -3   1   7 9795.79 830.549  48
  -3   1   7 8082.85 652.033  36
  -3   1   7 10221.6 820.518  31
  -3   1   7 9764.18 815.406  35
  -3   1   8 52620.2 1836.14  35
  -3   1   8 53877.1 2037.97  33
  -3   1   8 52897.7 1865.78  48
  -3   1   9 6968.45 669.751  48
  -3   1   9 7450.27 788.027  33
  -3   1  10 41081.7 1881.06  43
  -3   1  10 47746.6 1983.71  33
  -3   1  11 59876.5 2100.29  43
  -3   1  12 5754.83 608.499  43
  -3   1  13 36008.9 1220.55  43
  -3   1  14 1909.81 228.249  43
  -3   2 -13 41629.0 902.898  45
  -3   2 -12 18816.9 874.717  45
  -3   2 -11 28187.1 1269.80  45
  -3   2 -10 215789. 3802.45  45
  -3   2 -10 208685. 3675.72  37
  -3   2  -9 2922.67 521.789  37
  -3   2  -9 2982.89 490.684  32
  -3   2  -8 109586. 3186.80  50
  -3   2  -8 112664. 3069.84  37
  -3   2  -8 111446. 3066.70  32
  -3   2  -7 88812.6 2876.11  50
  -3   2  -7 93683.3 2840.56  32
  -3   2  -7 90787.1 2765.37  37
  -3   2  -6 23069.1 1315.43  37
  -3   2  -6 24317.0 1457.64  32
  -3   2  -6 22587.7 1481.02  50
  -3   2  -5 40999.1 1565.44  37
  -3   2  -5 38019.4 1925.95  50
  -3   2  -5 41442.4 1892.27  32
  -3   2  -4 12609.5 1132.02  50
  -3   2  -4 11685.0 988.581  32
  -3   2  -3 179138. 3638.21  32
  -3   2  -3 187893. 4246.27  50
  -3   2  -2 43268.2 1577.47  32
  -3   2  -1 45660.7 1748.14  50
  -3   2   0 116047. 2058.29  48
  -3   2   1 101213. 2025.41  48
  -3   2   2 84021.8 1990.69  33
  -3   2   2 83998.6 1976.65  48
  -3   2   3 48809.5 1616.83  48
  -3   2   3 56219.9 1850.08  33
  -3   2   4 50954.6 1709.71  48
  -3   2   4 52283.3 1957.94  33
  -3   2   5 116973. 2684.26  48
  -3   2   5 124477. 3180.47  33
  -3   2   5 124100. 2561.86  36
  -3   2   6 17714.3 982.050  36
  -3   2   6 17281.4 1244.90  33
  -3   2   6 18222.9 1099.07  48
  -3   2   7 28538.4 1381.93  31
  -3   2   7 28626.3 1247.78  36
  -3   2   7 32118.8 1702.07  33
  -3   2   7 32395.6 1458.09  48
  -3   2   8 19966.9 1340.46  33
  -3   2   8 18956.5 1110.58  48
  -3   2   8 18135.0 976.104  36
  -3   2   9 75046.5 2566.72  33
  -3   2   9 69968.3 2086.37  48
  -3   2  10 46721.9 1627.26  40
  -3   2  10 52811.2 2138.29  33
  -3   2  10 51462.9 1724.68  48
  -3   2  11 27990.0 1453.20  43
  -3   2  11 29653.2 1218.26  40
  -3   2  12 43838.8 1329.59  40
  -3   2  12 44915.6 1565.60  43
  -3   2  13 1155.55 209.545  40
  -3   2  13 1230.33 244.901  43
  -3   2  14 7971.53 372.850  43
  -3   3 -13 23211.7 690.348  44
  -3   3  -9 86264.4 2653.35  37
  -3   3  -8 119057. 3272.87  32
  -3   3  -8 114817. 3309.78  50
  -3   3  -7 7680.57 866.565  32
  -3   3  -7 6913.82 863.359  50
  -3   3  -7 6746.36 811.049  37
  -3   3  -6 166769. 4275.01  50
  -3   3  -6 168845. 3586.08  37
  -3   3  -6 161919. 3926.43  32
  -3   3  -5 86029.1 3107.90  50
  -3   3  -5 76092.2 2624.68  32
  -3   3  -4 87013.8 2582.53  32
  -3   3  -4 87840.8 3083.53  50
  -3   3  -3 139196. 2821.80  32
  -3   3  -3 142982. 2465.15  34
  -3   3  -2 140501. 3180.89  50
  -3   3  -2 152719. 2522.64  34
  -3   3  -1 116851. 2383.23  50
  -3   3   0 3627.85 407.277  33
  -3   3   0 4882.00 498.070  36
  -3   3   1 92655.9 2397.46  36
  -3   3   1 92885.0 2438.18  48
  -3   3   2 55235.3 1933.06  36
  -3   3   2 56552.7 1944.60  48
  -3   3   3 137005. 3064.92  36
  -3   3   3 134805. 2965.43  48
  -3   3   4 259955. 4715.67  33
  -3   3   4 267011. 4234.07  36
  -3   3   5 4812.98 738.757  33
  -3   3   5 4220.96 561.469  36
  -3   3   5 4459.55 564.286  48
  -3   3   6 271067. 4065.69  36
  -3   3   6 267555. 5399.25  33
  -3   3   6 280045. 4204.68  48
  -3   3   7 126989. 2846.49  48
  -3   3   7 122650. 3683.42  33
  -3   3   7 121047. 2677.50  36
  -3   3   8 42757.3 1656.54  48
  -3   3   8 44460.1 2200.46  33
  -3   3   9 61621.5 2054.80  40
  -3   3   9 62144.7 1971.94  48
  -3   3   9 68027.5 2552.10  33
  -3   3  10 6353.82 641.349  40
  -3   3  10 2786.98 515.024  43
  -3   3  11 86012.7 2322.46  43
  -3   3  11 88704.3 2086.04  40
  -3   3  12 9638.84 638.526  43
  -3   3  12 8790.53 589.822  40
  -3   3  13 5969.02 374.990  43
  -3   3  13 7262.58 432.509  40
  -3   4 -12 60160.8 1365.22  44
  -3   4  -9 17475.6 1168.80  37
  -3   4  -8 1228.23 395.953  37
  -3   4  -7 40247.2 1843.73  37
  -3   4  -7 34880.1 1883.75  32
  -3   4  -7 36660.4 2029.95  50
  -3   4  -6 5239.27 818.033  50
  -3   4  -6 4217.14 652.384  32
  -3   4  -5 67954.2 2852.70  50
  -3   4  -5 63649.7 2356.31  32
  -3   4  -4 71394.9 2068.37  34
  -3   4  -4 64245.6 2628.62  50
  -3   4  -3 120969. 2656.11  34
  -3   4  -3 106513. 3044.06  50
  -3   4  -2 273242. 3868.13  34
  -3   4  -2 256954. 4078.44  50
  -3   4  -1 2562.19 380.388  34
  -3   4  -1 2537.85 402.392  33
  -3   4   0 85593.1 1981.04  36
  -3   4   0 73004.7 2108.73  33
  -3   4   1 1439.08 300.054  33
  -3   4   1 1242.63 306.228  36
  -3   4   2 46079.8 1820.06  36
  -3   4   2 37226.9 1634.98  33
  -3   4   3 383247. 5451.03  36
  -3   4   3 376407. 4951.66  48
  -3   4   4 1573.24 446.174  33
  -3   4   4 1243.37 335.782  48
  -3   4   4 1816.72 411.885  36
  -3   4   5 157452. 4192.07  33
  -3   4   5 158138. 3425.05  36
  -3   4   6 21759.7 1636.06  33
  -3   4   6 23978.5 1286.22  48
  -3   4   6 22019.2 1248.44  36
  -3   4   7 4399.66 541.798  36
  -3   4   7 5041.47 593.261  48
  -3   4   7 4151.57 754.615  33
  -3   4   8 177761. 3385.45  48
  -3   4   8 181242. 4469.94  33
  -3   4   8 162423. 3090.95  36
  -3   4   8 164404. 3604.42  40
  -3   4   9 419.098 204.981  40
  -3   4  10 110501. 2680.21  43
  -3   4  10 123143. 2661.75  40
  -3   4  11 33837.1 1211.28  40
  -3   4  12 15126.4 685.785  40
  -3   4  13 16186.2 523.474  40
  -3   5 -11 85051.9 1691.30  44
  -3   5 -10 41495.4 1473.17  44
  -3   5  -9 29307.0 1454.17  44
  -3   5  -8 90688.5 2847.07  44
  -3   5  -7 4192.07 630.814  37
  -3   5  -6 59187.4 2206.38  34
  -3   5  -6 54903.1 2560.92  50
  -3   5  -5 51482.1 2047.76  34
  -3   5  -5 39992.7 2167.89  50
  -3   5  -4 65261.1 2262.52  34
  -3   5  -4 60133.0 2487.61  50
  -3   5  -3 106309. 2804.88  34
  -3   5  -3 110943. 3008.11  50
  -3   5  -2 54885.0 1977.96  34
  -3   5  -2 48480.6 2044.36  33
  -3   5  -1 97804.6 2852.53  33
  -3   5  -1 106291. 2722.96  34
  -3   5   0 24888.7 1328.96  34
  -3   5   0 22028.2 1344.96  33
  -3   5   1 121026. 3184.08  33
  -3   5   1 118002. 2928.60  34
  -3   5   2 236401. 4295.34  34
  -3   5   2 234943. 4620.46  33
  -3   5   3 21564.7 1343.37  34
  -3   5   3 21093.1 1435.82  33
  -3   5   3 22364.3 1418.12  36
  -3   5   4 242792. 4623.21  36
  -3   5   4 215696. 4834.61  33
  -3   5   5 27259.0 1508.26  36
  -3   5   5 24047.2 1706.68  33
  -3   5   5 26536.8 1402.86  48
  -3   5   6 22377.3 1673.87  33
  -3   5   6 25382.7 1388.37  36
  -3   5   7 58470.0 2254.02  40
  -3   5   7 64668.1 2063.41  36
  -3   5   8 5388.52 682.576  40
  -3   5   8 5205.87 565.141  36
  -3   5   9 49511.5 1772.12  40
  -3   5   9 41547.3 1604.42  38
  -3   5  10 19524.0 925.039  38
  -3   5  10 21339.1 1002.48  40
  -3   5  11 41566.1 1154.79  40
  -3   5  12 30748.3 751.009  40
  -3   6 -10 21186.2 795.431  44
  -3   6  -9 69507.4 1837.52  44
  -3   6  -9 65905.7 1712.93  38
  -3   6  -8 3192.90 452.263  38
  -3   6  -8 3114.57 493.070  44
  -3   6  -7 53442.4 2037.18  44
  -3   6  -7 62266.5 2129.86  38
  -3   6  -6 26549.5 1408.41  38
  -3   6  -5 24392.6 1326.26  38
  -3   6  -5 24356.9 1486.88  34
  -3   6  -4 108009. 3105.70  34
  -3   6  -3 13398.6 1183.54  33
  -3   6  -3 14352.9 1120.46  34
  -3   6  -2 107281. 3024.96  34
  -3   6  -2 104681. 3264.73  33
  -3   6  -1 53373.7 2283.85  33
  -3   6  -1 55815.4 2186.06  34
  -3   6   0 14681.8 1171.29  34
  -3   6   0 16112.9 1263.47  33
  -3   6   1 95332.3 2937.64  34
  -3   6   1 94217.4 3067.76  33
  -3   6   2 1002.20 341.822  34
  -3   6   2 1180.32 411.016  33
  -3   6   2 1086.79 310.053  36
  -3   6   3 217823. 4934.69  33
  -3   6   3 232002. 4595.76  36
  -3   6   4 34779.5 1799.73  36
  -3   6   4 31228.7 1921.85  33
  -3   6   5 9279.65 967.455  38
  -3   6   5 12427.9 1055.06  36
  -3   6   6 41324.1 1729.97  36
  -3   6   6 31063.6 1718.15  38
  -3   6   7 14509.3 1045.34  40
  -3   6   7 11655.0 1016.60  38
  -3   6   8 95125.4 2454.35  38
  -3   6   8 100647. 2406.16  40
  -3   6   9 26967.5 1067.74  38
  -3   6   9 29533.3 1100.79  40
  -3   6  10 15230.0 584.855  38
  -3   6  10 17634.1 683.125  40
  -3   7  -8 33077.9 1034.70  38
  -3   7  -8 34896.8 1054.75  55
  -3   7  -7 4918.08 496.937  38
  -3   7  -6 1671.24 318.087  38
  -3   7  -5 93261.5 2465.82  38
  -3   7  -4 10637.4 857.767  38
  -3   7  -3 43795.1 1707.65  38
  -3   7  -2 21237.2 1324.91  55
  -3   7  -2 20962.6 1192.48  38
  -3   7  -1 1095.36 351.616  55
  -3   7  -1 778.331 341.447  34
  -3   7  -1 1378.97 372.539  38
  -3   7   0 124798. 2974.73  55
  -3   7   0 120039. 2904.86  38
  -3   7   1 6164.74 673.400  55
  -3   7   1 5480.39 688.218  38
  -3   7   2 86387.9 2607.99  38
  -3   7   2 95519.2 2460.11  55
  -3   7   3 44589.0 1951.75  38
  -3   7   4 4431.55 679.400  38
  -3   7   5 17586.0 1214.59  38
  -3   7   5 18276.0 1062.92  40
  -3   7   6 7929.97 642.506  40
  -3   7   6 7115.35 715.463  38
  -3   7   7 20353.0 851.242  40
  -3   7   7 21056.7 1034.89  38
  -3   7   8 21660.1 787.246  38
  -3   7   8 21889.7 687.267  40
  -3   8  -6 72416.3 1561.35  55
  -3   8  -5 8852.66 601.481  38
  -3   8  -5 8643.28 686.476  55
  -3   8  -4 67205.3 1806.87  38
  -3   8  -4 57911.0 1954.45  55
  -3   8  -3 43549.3 1735.79  55
  -3   8  -3 46189.5 1547.94  38
  -3   8  -2 21955.3 1200.45  55
  -3   8  -2 21489.9 1102.16  38
  -3   8  -1 28945.0 1282.82  38
  -3   8  -1 28606.9 1319.30  55
  -3   8   0 3665.14 473.715  55
  -3   8   0 2483.80 432.593  38
  -3   8   1 43534.7 1453.62  55
  -3   8   1 39689.5 1567.55  38
  -3   8   2 36817.4 1532.55  38
  -3   8   2 40100.3 1304.61  55
  -3   8   3 26722.3 1267.23  38
  -3   8   4 62571.2 1803.07  38
  -3   8   5 1683.31 281.601  38
  -2  -7  -5 32009.9 866.991  20
  -2  -7  -5 38530.1 1083.98  39
  -2  -7  -4 45083.4 1293.73  20
  -2  -7  -4 46035.6 1430.44  39
  -2  -7  -3 15215.9 828.669  20
  -2  -7  -3 15269.8 942.633  39
  -2  -7  -3 15005.1 828.246  56
  -2  -7  -2 77753.4 2082.05  56
  -2  -7  -2 77112.5 2245.19  39
  -2  -7  -2 79748.1 1911.06  20
  -2  -7  -1 3851.38 583.916  39
  -2  -7  -1 3635.62 531.639  56
  -2  -7  -1 4111.28 454.930  20
  -2  -7   0 24044.5 1322.48  56
  -2  -7   0 23064.6 1056.13  20
  -2  -7   1 8484.19 853.023  56
  -2  -7   1 9527.70 693.505  20
  -2  -7   2 3616.71 586.234  56
  -2  -7   2 4514.52 482.313  20
  -2  -7   3 52009.3 1692.74  41
  -2  -7   3 54877.0 1664.48  20
  -2  -7   4 3948.40 459.856  20
  -2  -7   4 4257.27 542.770  41
  -2  -7   4 4571.12 616.980  56
  -2  -7   5 60307.7 1896.90  41
  -2  -7   5 61269.0 1701.71  20
  -2  -7   6 3703.71 444.871  41
  -2  -7   6 3389.99 387.861  20
  -2  -7   6 3666.36 358.127  26
  -2  -7   7 13306.5 608.022  20
  -2  -7   7 13472.5 706.941  41
  -2  -6  -7 12932.5 738.459  39
  -2  -6  -7 11922.0 608.029  20
  -2  -6  -7 10584.7 555.580  15
  -2  -6  -6 31408.7 1375.51  39
  -2  -6  -6 29382.9 1085.93  15
  -2  -6  -6 30005.4 1221.86  20
  -2  -6  -5 98244.5 2207.64  15
  -2  -6  -5 103953. 2739.41  39
  -2  -6  -5 103464. 2501.96  20
  -2  -6  -4 7628.17 826.492  39
  -2  -6  -4 7690.54 723.479  20
  -2  -6  -3 139399. 3438.15  39
  -2  -6  -3 143291. 2999.61  20
  -2  -6  -2 3849.63 516.117  20
  -2  -6  -2 3706.85 588.922  56
  -2  -6  -2 3648.83 601.031  39
  -2  -6  -1 26960.2 1474.26  56
  -2  -6  -1 24195.7 1494.67  39
  -2  -6  -1 24176.0 1221.55  20
  -2  -6   0 11784.6 836.634  20
  -2  -6   0 11278.0 1034.62  39
  -2  -6   0 11281.0 995.816  56
  -2  -6   1 13885.1 918.211  20
  -2  -6   1 14597.9 1154.66  56
  -2  -6   1 13182.6 1143.93  39
  -2  -6   2 134535. 3666.82  56
  -2  -6   2 134154. 2873.19  20
  -2  -6   3 3266.55 555.717  41
  -2  -6   3 4030.83 502.392  20
  -2  -6   3 2673.88 592.307  56
  -2  -6   4 73356.6 2199.58  20
  -2  -6   4 67124.9 2455.64  41
  -2  -6   5 16712.2 1283.03  41
  -2  -6   5 19922.8 1374.49  56
  -2  -6   5 20860.8 1190.79  20
  -2  -6   6 10960.3 1034.83  41
  -2  -6   6 11933.6 929.365  20
  -2  -6   7 87603.2 2376.44  53
  -2  -6   7 82018.0 2279.87  20
  -2  -6   8 9352.20 749.958  41
  -2  -6   8 9034.30 697.650  20
  -2  -6   8 9228.74 727.628  53
  -2  -6   9 54949.7 1468.57  53
  -2  -6   9 50863.6 1033.17  25
  -2  -6   9 51772.6 1380.08  41
  -2  -6   9 56242.6 1390.27  20
  -2  -6  10 51821.0 935.723  20
  -2  -6  10 52914.1 1069.32  53
  -2  -5 -10 1757.89 195.839  15
  -2  -5  -9 86154.0 1743.24  15
  -2  -5  -9 73028.2 1566.63  54
  -2  -5  -8 670.230 229.144  39
  -2  -5  -8 664.758 256.398  54
  -2  -5  -8 778.631 208.438  20
  -2  -5  -8 565.794 223.589  15
  -2  -5  -7 56536.8 1957.28  54
  -2  -5  -7 60945.3 2006.24  15
  -2  -5  -7 58261.5 1926.34  20
  -2  -5  -7 64297.9 2188.28  39
  -2  -5  -6 67833.5 2416.84  39
  -2  -5  -6 64116.0 2154.50  20
  -2  -5  -5 1472.90 342.105  20
  -2  -5  -5 1947.88 478.613  39
  -2  -5  -4 75491.4 2634.00  39
  -2  -5  -4 67752.6 2152.57  20
  -2  -5  -3 20328.1 1471.09  30
  -2  -5  -3 23784.2 1463.88  39
  -2  -5  -3 23226.4 1301.77  56
  -2  -5  -3 23101.0 1217.34  20
  -2  -5  -2 37801.0 1864.08  49
  -2  -5  -2 40309.5 2026.06  30
  -2  -5  -1 75408.9 2615.83  30
  -2  -5  -1 64176.9 2421.82  49
  -2  -5   0 5661.88 712.066  30
  -2  -5   1 113666. 2754.39  31
  -2  -5   1 118087. 3020.47  30
  -2  -5   2 12597.4 972.611  30
  -2  -5   2 11936.6 967.422  31
  -2  -5   3 97838.0 2656.99  30
  -2  -5   3 93650.3 2885.23  31
  -2  -5   4 34407.8 1478.45  20
  -2  -5   4 33211.9 1754.82  41
  -2  -5   4 29753.2 1469.91  30
  -2  -5   5 34311.5 1859.37  56
  -2  -5   5 33318.7 1883.94  41
  -2  -5   5 42602.2 1723.26  20
  -2  -5   5 40063.2 1658.66  30
  -2  -5   5 28392.3 1740.28  31
  -2  -5   6 39899.2 2084.57  41
  -2  -5   6 44208.1 2010.34  53
  -2  -5   7 26838.4 1642.70  41
  -2  -5   7 24942.2 1547.52  53
  -2  -5   7 26658.2 1434.05  20
  -2  -5   8 73926.9 2468.08  41
  -2  -5   8 67215.2 2418.55  53
  -2  -5   9 139103. 3149.97  53
  -2  -5   9 138553. 2930.20  41
  -2  -5  10 12868.9 742.925  41
  -2  -5  10 13975.7 884.161  53
  -2  -5  10 12483.2 750.397  20
  -2  -5  11 74741.6 1637.96  53
  -2  -5  11 76534.3 1433.35  20
  -2  -4 -11 5158.54 367.082  15
  -2  -4 -11 4514.85 393.045  54
  -2  -4 -10 177077. 2735.69  15
  -2  -4 -10 184844. 3122.67  54
  -2  -4  -9 141.006 170.961  15
  -2  -4  -9-187.777 256.548  54
  -2  -4  -8 92553.3 2605.87  15
  -2  -4  -8 93772.8 2944.10  54
  -2  -4  -8 87362.0 2425.08  39
  -2  -4  -7 33446.3 1651.71  39
  -2  -4  -6 21347.2 1359.56  39
  -2  -4  -6 17936.0 1152.22  20
  -2  -4  -5 97622.6 3022.79  30
  -2  -4  -5 98327.5 3035.85  49
  -2  -4  -4 38534.0 1937.15  30
  -2  -4  -4 37653.4 1795.47  49
  -2  -4  -3 123188. 3352.82  30
  -2  -4  -3 116716. 2993.73  49
  -2  -4  -2 14755.0 1117.62  30
  -2  -4  -2 14857.0 1026.40  49
  -2  -4  -1 41797.0 1742.06  30
  -2  -4  -1 42740.0 1672.29  49
  -2  -4   0 177287. 3383.82  30
  -2  -4   0 187671. 3066.39  31
  -2  -4   1 499.483 178.558  49
  -2  -4   1 831.195 263.591  30
  -2  -4   1 1053.64 263.232  31
  -2  -4   2 340385. 4492.15  30
  -2  -4   2 333190. 4795.30  31
  -2  -4   3 62334.2 1930.51  30
  -2  -4   3 55173.4 2132.63  31
  -2  -4   4 13952.1 1154.94  31
  -2  -4   4 20597.2 1117.27  30
  -2  -4   5 91240.8 2733.94  35
  -2  -4   5 99707.4 2473.72  30
  -2  -4   6 2288.21 575.568  31
  -2  -4   6 2363.73 515.147  35
  -2  -4   6 3949.83 659.883  33
  -2  -4   7 135886. 3339.51  31
  -2  -4   7 141289. 3883.78  33
  -2  -4   8 95205.9 2621.67  35
  -2  -4   8 104970. 2655.10  31
  -2  -4   8 94695.2 2968.90  53
  -2  -4   8 107047. 3069.50  41
  -2  -4   8 104932. 3376.36  33
  -2  -4   8 84651.5 2561.67  20
  -2  -4   9 7866.93 786.630  20
  -2  -4   9 8485.14 809.581  41
  -2  -4   9 8995.07 910.356  53
  -2  -4   9 7419.55 693.465  35
  -2  -4  10 84784.8 2187.93  41
  -2  -4  10 80531.1 2372.42  53
  -2  -4  10 77045.9 2142.84  20
  -2  -4  11 3735.06 427.352  20
  -2  -4  11 2894.29 435.681  53
  -2  -4  12 51987.3 1223.00  20
  -2  -4  12 52368.4 1403.63  53
  -2  -4  13 11065.1 449.669  53
  -2  -3 -12 5672.77 437.299  54
  -2  -3 -12 5304.91 339.676  15
  -2  -3 -11 90975.4 1871.31  15
  -2  -3 -11 97341.7 2289.38  54
  -2  -3 -10 8502.87 697.394  15
  -2  -3 -10 8934.21 871.250  54
  -2  -3  -9 137764. 3598.27  54
  -2  -3  -9 125619. 2933.68  15
  -2  -3  -8 25069.8 1268.21  37
  -2  -3  -7 44771.1 1736.32  37
  -2  -3  -7 37324.1 1781.08  49
  -2  -3  -6 178306. 3822.40  49
  -2  -3  -6 185845. 3893.90  30
  -2  -3  -5 63231.9 2327.24  30
  -2  -3  -5 69150.6 2280.77  49
  -2  -3  -4 52501.4 1849.93  49
  -2  -3  -4 46564.7 1941.00  30
  -2  -3  -3 123123. 2943.13  30
  -2  -3  -3 126852. 2694.64  49
  -2  -3  -2 36395.1 1478.53  30
  -2  -3  -2 38089.0 1393.58  49
  -2  -3  -1 263572. 3003.75  31
  -2  -3  -1 244287. 3369.14  49
  -2  -3   0 13910.7 815.799  30
  -2  -3   0 16799.5 825.130  31
  -2  -3   0 15480.3 830.731  49
  -2  -3   1 81093.4 1848.85  49
  -2  -3   1 85489.3 2026.24  31
  -2  -3   1 74523.7 1825.95  30
  -2  -3   1 78530.9 1694.05  35
  -2  -3   2 174682. 2698.18  49
  -2  -3   2 181102. 3265.23  31
  -2  -3   2 172745. 2636.48  35
  -2  -3   2 174057. 2743.69  30
  -2  -3   3 49330.7 1890.84  31
  -2  -3   3 57235.8 1592.18  30
  -2  -3   3 56070.0 1629.03  35
  -2  -3   3 50536.3 1461.74  49
  -2  -3   4 279656. 4063.09  35
  -2  -3   4 273423. 3548.61  30
  -2  -3   5 5190.47 701.861  31
  -2  -3   5 5454.34 518.199  30
  -2  -3   5 5728.94 597.111  33
  -2  -3   5 5634.05 688.187  35
  -2  -3   6 215092. 4102.43  33
  -2  -3   6 204097. 4082.13  31
  -2  -3   7 148007. 3727.80  35
  -2  -3   7 149215. 3799.06  33
  -2  -3   8 4183.10 541.564  31
  -2  -3   8 3601.91 643.517  33
  -2  -3   8 3679.20 602.943  35
  -2  -3   9 94970.9 3124.04  33
  -2  -3   9 92238.5 2594.65  41
  -2  -3   9 90147.5 2690.28  35
  -2  -3   9 89709.5 2707.93  53
  -2  -3  10 17336.5 1090.94  35
  -2  -3  10 17809.3 1040.98  43
  -2  -3  10 18923.9 1193.27  53
  -2  -3  11 31495.5 1271.16  43
  -2  -3  11 37027.5 1541.68  53
  -2  -3  12 57532.0 1518.86  43
  -2  -3  12 59553.6 1707.00  53
  -2  -3  12 63894.0 1612.15  20
  -2  -3  12 62768.8 1304.81  25
  -2  -3  13 14234.7 630.544  43
  -2  -3  13 14927.6 636.528  20
  -2  -3  13 14833.3 677.707  53
  -2  -2 -13 2372.08 232.734  54
  -2  -2 -13 2092.56 235.738  45
  -2  -2 -12 34332.5 985.984  15
  -2  -2 -12 37234.4 1275.30  54
  -2  -2 -11 15437.5 837.987  15
  -2  -2 -11 17387.9 1069.19  54
  -2  -2 -10 74048.4 2472.89  54
  -2  -2 -10 74475.7 2075.42  15
  -2  -2  -9 56109.9 1932.77  15
  -2  -2  -9 50481.2 1744.90  37
  -2  -2  -9 58520.8 2360.10  54
  -2  -2  -9 48922.4 1990.00  32
  -2  -2  -8 1012.07 315.977  37
  -2  -2  -7 120924. 2781.01  37
  -2  -2  -7 125405. 2960.08  30
  -2  -2  -6 89930.9 2324.12  37
  -2  -2  -6 87268.1 2543.13  30
  -2  -2  -5 93419.4 2578.60  30
  -2  -2  -5 90240.1 2177.30  37
  -2  -2  -5 97688.7 2269.26  49
  -2  -2  -4 152892. 3154.83  30
  -2  -2  -4 168149. 2769.10  49
  -2  -2  -3 58216.3 1762.69  30
  -2  -2  -3 59756.4 1555.50  49
  -2  -2  -2 18597.2 833.699  49
  -2  -2  -2 17955.6 886.581  30
  -2  -2  -1 75553.2 1401.58  31
  -2  -2  -1 72147.2 1615.24  30
  -2  -2  -1 72886.8 1557.06  49
  -2  -2   0 11724.1 613.413  31
  -2  -2   0 11723.7 608.059  49
  -2  -2   0 11444.1 606.271  30
  -2  -2   1 253539. 2733.84  49
  -2  -2   1 268159. 2819.30  30
  -2  -2   2 15429.2 621.379  33
  -2  -2   2 15095.1 674.613  30
  -2  -2   2 13717.0 648.955  49
  -2  -2   2 14461.8 672.470  35
  -2  -2   2 14527.7 874.697  31
  -2  -2   3 164987. 2224.66  30
  -2  -2   3 157530. 2404.03  35
  -2  -2   4 135957. 2042.24  30
  -2  -2   4 138827. 2474.90  33
  -2  -2   4 132380. 2477.66  35
  -2  -2   5 157900. 3085.18  33
  -2  -2   5 157400. 3110.95  35
  -2  -2   6 31014.2 1567.67  35
  -2  -2   6 29707.3 1545.40  33
  -2  -2   6 32281.7 1472.81  31
  -2  -2   7 21738.9 1178.23  31
  -2  -2   7 19632.9 1333.88  35
  -2  -2   7 20280.8 1409.42  33
  -2  -2   8 78495.5 2834.86  33
  -2  -2   8 73866.6 2568.86  35
  -2  -2   9 42196.9 2058.74  33
  -2  -2   9 37978.0 1797.58  35
  -2  -2  10 7694.80 768.988  53
  -2  -2  10 9233.53 943.580  33
  -2  -2  10 7431.02 722.171  43
  -2  -2  10 7532.06 784.345  35
  -2  -2  11 62475.6 1918.80  43
  -2  -2  11 61866.7 2012.45  53
  -2  -2  11 60005.7 1952.89  35
  -2  -2  12 4686.32 516.671  53
  -2  -2  12 4027.39 463.853  43
  -2  -2  13 43381.4 1300.74  43
  -2  -2  14 18441.9 678.547  43
  -2  -2  14 19959.3 652.936  20
  -2  -1 -13 71639.7 1665.02  45
  -2  -1 -13 70264.4 1345.23  54
  -2  -1 -12 22328.7 1039.85  54
  -2  -1 -11 93213.7 2510.48  54
  -2  -1 -10 55666.0 1789.95  37
  -2  -1 -10 64138.1 2317.57  54
  -2  -1  -9 10098.1 800.947  37
  -2  -1  -9 10764.1 984.534  32
  -2  -1  -8 276795. 4055.73  37
  -2  -1  -8 258040. 4806.95  32
  -2  -1  -7 120735. 2771.73  30
  -2  -1  -7 111154. 2501.20  37
  -2  -1  -6 241017. 3938.25  30
  -2  -1  -6 232415. 3252.38  49
  -2  -1  -5 439590. 5196.80  30
  -2  -1  -5 441205. 4610.54  37
  -2  -1  -4 6464.68 532.191  37
  -2  -1  -4 6474.07 617.071  30
  -2  -1  -3 107588. 1744.22  49
  -2  -1  -2 1658.20 219.405  49
  -2  -1  -1 82692.5 987.077   4
  -2  -1  -1 82766.5 1462.17  30
  -2  -1  -1 80193.1 948.490   2
  -2  -1   0 182998. 2306.54  31
  -2  -1   0 178750. 1734.40   4
  -2  -1   1 78330.4 1385.67   4
  -2  -1   1 75004.0 1199.34  30
  -2  -1   1 77112.3 1774.14  31
  -2  -1   2 259510. 2173.75  30
  -2  -1   2 247410. 2045.30   1
  -2  -1   3 4473.62 538.053  31
  -2  -1   3 4248.89 360.862  35
  -2  -1   3 4294.44 364.625  33
  -2  -1   3 4594.13 294.279   1
  -2  -1   4 302368. 4170.12  31
  -2  -1   4 307590. 3441.53  35
  -2  -1   5 54881.1 1754.03  31
  -2  -1   5 52230.4 1332.49  48
  -2  -1   5 52779.8 1687.24  35
  -2  -1   6 3241.01 512.676  33
  -2  -1   6 2941.11 490.231  35
  -2  -1   6 3393.92 454.047  31
  -2  -1   6 3643.09 404.718  48
  -2  -1   7 202353. 4053.92  33
  -2  -1   7 194521. 3943.85  35
  -2  -1   7 203468. 3219.66  31
  -2  -1   8 83842.0 2689.75  33
  -2  -1   8 78450.5 2516.22  35
  -2  -1   9 22910.5 1356.29  35
  -2  -1   9 30389.7 1655.51  33
  -2  -1  10 45999.9 2019.21  33
  -2  -1  10 42299.8 1753.36  35
  -2  -1  11 45798.9 1701.96  43
  -2  -1  11 45289.4 1675.56  53
  -2  -1  11 45181.1 1730.10  35
  -2  -1  12 16575.1 1991.19  27
  -2  -1  12 32732.8 1363.57  43
  -2  -1  13 2855.95 390.854  43
  -2  -1  14 11374.5 603.194  43
  -2   0 -14 81416.6 1392.34  45
  -2   0 -13 24784.6 1086.73  45
  -2   0 -12 10091.7 846.140  45
  -2   0 -11 95086.8 2307.69  37
  -2   0 -10 5281.50 593.790  37
  -2   0 -10 5452.02 688.284  32
  -2   0  -9 222572. 3724.97  37
  -2   0  -9 232802. 4367.70  32
  -2   0  -9 230631. 4234.00  50
  -2   0  -8 102354. 2922.69  32
  -2   0  -8 106296. 2925.34  50
  -2   0  -8 102899. 2479.26  37
  -2   0  -7 78570.9 2478.00  32
  -2   0  -7 84906.6 2205.90  37
  -2   0  -6 377836. 4520.18  37
  -2   0  -5 2425.85 368.955  37
  -2   0  -4 396814. 4200.79  37
  -2   0  -4 409576. 2935.35  49
  -2   0  -3 81252.3 1226.82  49
  -2   0  -3 87225.1 1530.11  28
  -2   0  -2 174200. 2306.40  28
  -2   0  -2 138728. 1916.81  29
  -2   0  -2 143584. 1688.57  47
  -2   0  -2 174352. 1725.06  49
  -2   0  -1 564034. 3878.63  29
  -2   0  -1 571942. 3161.14  47
  -2   0   0 7783.95 359.270  47
  -2   0   0 8446.05 336.475   2
  -2   0   0 9538.32 395.267   1
  -2   0   0 8902.01 497.916  29
  -2   0   0 9052.97 499.597  28
  -2   0   1 136236. 1802.38  28
  -2   0   1 128832. 1445.28   1
  -2   0   2 18676.3 643.389  28
  -2   0   2 17814.2 548.289   1
  -2   0   3 139426. 2358.12  33
  -2   0   3 136339. 1692.71  28
  -2   0   3 140341. 2636.17  31
  -2   0   4 320183. 3138.61  48
  -2   0   4 320480. 3979.81  33
  -2   0   5 141094. 2530.84  31
  -2   0   5 142472. 2630.43  35
  -2   0   5 146111. 2386.13  48
  -2   0   6 242214. 3280.39  31
  -2   0   6 236673. 3290.59  48
  -2   0   6 241176. 3834.15  35
  -2   0   7 39992.4 1646.92  35
  -2   0   7 36864.1 1347.86  48
  -2   0   8 236835. 4173.18  33
  -2   0   8 219878. 3853.97  35
  -2   0   9 202912. 3991.32  33
  -2   0   9 186621. 3543.02  35
  -2   0  10 20381.9 1307.03  33
  -2   0  10 17384.7 1060.55  35
  -2   0  11 142448. 3123.04  43
  -2   0  11 146683. 2970.85  38
  -2   0  11 137577. 2876.46  35
  -2   0  12 2369.05 412.899  43
  -2   0  12 3076.24 446.482  38
  -2   0  13 26531.7 1132.48  43
  -2   0  13 5218.68 1026.58  27
  -2   0  14 67101.0 1470.38  43
  -2   1 -14 11486.6 547.070  45
  -2   1 -13 28006.2 1161.97  45
  -2   1 -12 65541.0 2080.80  45
  -2   1 -11 13874.0 1066.71  45
  -2   1 -11 11786.3 848.066  37
  -2   1 -10 75535.4 2416.96  32
  -2   1 -10 75493.1 2231.30  37
  -2   1  -9 24548.3 1327.62  37
  -2   1  -9 23888.0 1391.58  50
  -2   1  -9 24229.6 1394.14  32
  -2   1  -8 62154.3 2218.78  50
  -2   1  -8 64843.8 2157.99  37
  -2   1  -8 65673.9 2250.09  32
  -2   1  -7 95044.1 2647.66  32
  -2   1  -7 89172.2 2462.76  37
  -2   1  -7 92020.3 2628.24  50
  -2   1  -6 27902.7 1293.60  37
  -2   1  -6 25903.6 1355.11  32
  -2   1  -5 46650.9 1511.38  37
  -2   1  -5 51150.6 1837.54  32
  -2   1  -4 234522. 3803.30  32
  -2   1  -4 242888. 2974.37  37
  -2   1  -3 133954. 1660.27  28
  -2   1  -2 22561.5 864.855  29
  -2   1  -2 23298.6 622.493   1
  -2   1  -2 22117.4 633.002  47
  -2   1  -2 25384.9 836.744  28
  -2   1  -2 24911.8 846.949   3
  -2   1  -1 233975. 1964.06   1
  -2   1  -1 261718. 2953.67  29
  -2   1  -1 251581. 1989.43  47
  -2   1  -1 268956. 3049.09   3
  -2   1  -1 247799. 2081.48   2
  -2   1  -1 252823. 2887.31  28
  -2   1   0 93555.8 1256.18   2
  -2   1   0 94641.5 1768.49  28
  -2   1   0 97045.2 1163.13  47
  -2   1   1 5182.77 255.492  47
  -2   1   1 5307.62 425.588  29
  -2   1   1 5840.25 430.208  28
  -2   1   1 4857.21 284.880   2
  -2   1   2 42016.8 1069.58  28
  -2   1   2 40328.3 986.273  48
  -2   1   2 40132.1 1034.76  29
  -2   1   3 31292.0 879.403  28
  -2   1   3 31640.4 760.354  29
  -2   1   4 58632.3 1823.69  33
  -2   1   5 233040. 3210.43  48
  -2   1   5 217433. 3075.36  35
  -2   1   6 150627. 2654.56  48
  -2   1   6 146359. 2259.55  36
  -2   1   6 145944. 2613.62  35
  -2   1   7 186826. 3061.77  35
  -2   1   7 191816. 3073.26  48
  -2   1   7 188389. 3621.09  33
  -2   1   8 180775. 2997.28  48
  -2   1   8 187846. 3693.25  33
  -2   1   9 20838.7 1026.03  48
  -2   1   9 18773.7 1001.88  35
  -2   1  10 107439. 2397.26  35
  -2   1  10 112646. 3051.12  33
  -2   1  11 6908.95 747.984  43
  -2   1  11 5211.16 600.453  38
  -2   1  11 6406.81 730.835  33
  -2   1  11 5106.39 544.818  40
  -2   1  12 15652.1 879.359  40
  -2   1  12 15700.9 978.686  43
  -2   1  12 14323.1 929.017  38
  -2   1  13 123328. 2358.08  43
  -2   1  13 120285. 2349.11  38
  -2   1  13 120128. 2167.74  40
  -2   1  14 1191.88 196.073  43
  -2   1  14 1197.32 190.363  40
  -2   2 -14 11780.1 483.067  45
  -2   2 -13 73182.5 1740.55  45
  -2   2 -12 2019.77 361.172  45
  -2   2 -11 90580.9 2564.86  45
  -2   2 -11 79866.7 2129.85  37
  -2   2 -10 775.496 290.271  32
  -2   2 -10 1149.86 303.037  37
  -2   2 -10 726.923 346.372  45
  -2   2 -10 645.664 231.555  50
  -2   2  -9 107445. 2923.20  37
  -2   2  -9 103521. 2918.08  50
  -2   2  -9 100199. 2844.95  32
  -2   2  -8 68644.3 2341.93  32
  -2   2  -8 72166.0 2411.05  37
  -2   2  -8 66661.4 2358.43  50
  -2   2  -7 13456.8 1022.56  37
  -2   2  -7 15310.7 1104.73  32
  -2   2  -7 14621.8 1102.89  50
  -2   2  -6 111160. 2604.77  37
  -2   2  -6 112517. 2991.35  50
  -2   2  -6 112883. 2927.52  32
  -2   2  -5 46511.5 1925.82  50
  -2   2  -5 44751.9 1813.16  32
  -2   2  -4 148689. 3366.74  50
  -2   2  -4 142731. 1972.73  34
  -2   2  -3 186380. 3224.08  32
  -2   2  -3 182295. 3592.78  50
  -2   2  -2 38129.7 794.492   1
  -2   2  -2 36799.4 1476.93  50
  -2   2  -2 38125.6 1227.72  32
  -2   2  -1 105308. 1227.17  47
  -2   2  -1 109419. 1339.88   1
  -2   2   0 1254.00 296.080   3
  -2   2   0 1550.06 145.615  47
  -2   2   1 4664.65 211.468  47
  -2   2   1 4744.84 323.315   2
  -2   2   1 4317.29 481.131   3
  -2   2   1 5429.43 478.222  48
  -2   2   2 3969.27 300.223   2
  -2   2   2 4900.20 432.802  33
  -2   2   2 4558.39 460.765  48
  -2   2   3 273267. 3493.51  48
  -2   2   3 281669. 3702.86  33
  -2   2   4 410100. 4148.74  36
  -2   2   4 424157. 4435.75  48
  -2   2   5 2977.28 494.748  33
  -2   2   5 3663.52 443.336  48
  -2   2   5 3476.64 396.940  36
  -2   2   6 53375.7 1498.00  36
  -2   2   6 50645.5 1587.08  48
  -2   2   6 51438.7 2102.75  33
  -2   2   7 156142. 2836.90  48
  -2   2   7 159995. 3786.81  33
  -2   2   8 2200.65 365.519  48
  -2   2   8 2578.68 496.972  33
  -2   2   9 175874. 3141.56  48
  -2   2   9 198953. 4144.41  33
  -2   2  10 32140.3 1319.68  48
  -2   2  10 33306.8 1695.60  33
  -2   2  11 68774.8 2155.60  43
  -2   2  11 69153.5 2169.55  38
  -2   2  11 68493.0 1967.31  40
  -2   2  12 26095.9 1171.29  43
  -2   2  12 23197.3 1069.09  40
  -2   2  12 26681.5 1237.14  38
  -2   2  13 443.194 151.086  43
  -2   2  13 272.451 137.943  40
  -2   2  13 150.619 148.008  38
  -2   2  14 16475.2 625.326  40
  -2   3 -13 17.5371 76.9245  44
  -2   3 -13 162.596 97.8279  45
  -2   3 -12 72316.5 1871.88  45
  -2   3 -11 29446.2 1383.02  45
  -2   3 -10 27933.8 1378.41  37
  -2   3 -10 28357.6 1471.61  45
  -2   3  -9 139486. 3333.89  37
  -2   3  -9 144314. 3501.35  50
  -2   3  -9 144214. 3512.93  32
  -2   3  -8 2110.22 464.370  37
  -2   3  -8 2175.36 476.803  32
  -2   3  -8 2549.61 477.665  50
  -2   3  -7 64842.1 2172.36  37
  -2   3  -7 58811.0 2333.25  50
  -2   3  -7 62868.6 2397.68  32
  -2   3  -6 114294. 3302.26  50
  -2   3  -6 119122. 3248.58  32
  -2   3  -5 44540.2 1440.00  34
  -2   3  -5 42166.5 2001.75  50
  -2   3  -4 428984. 5319.08  32
  -2   3  -4 405404. 5885.49  50
  -2   3  -3 41220.8 1732.53  50
  -2   3  -3 45140.6 1310.34  34
  -2   3  -3 41355.4 1419.34  32
  -2   3  -2 161395. 2925.39  50
  -2   3  -2 161553. 2318.64  32
  -2   3  -1 107456. 1586.39  32
  -2   3  -1 119554. 2105.39  50
  -2   3   0 57856.6 1321.86  36
  -2   3   0 58310.2 1233.34  50
  -2   3   1 522395. 4525.10  36
  -2   3   1 525047. 4258.23  48
  -2   3   2 1862.74 331.499  33
  -2   3   2 1907.74 339.060  48
  -2   3   3 519405. 5161.28  36
  -2   3   3 529491. 5133.67  48
  -2   3   4 9333.10 719.442  36
  -2   3   4 10382.6 756.578  48
  -2   3   4 8551.64 793.665  33
  -2   3   5 84853.4 2149.61  48
  -2   3   5 80524.2 2671.01  33
  -2   3   5 82733.6 2090.20  36
  -2   3   6 211677. 3301.56  36
  -2   3   6 206866. 4607.03  33
  -2   3   6 203554. 3402.42  48
  -2   3   7 6299.59 894.334  33
  -2   3   7 5533.88 545.281  36
  -2   3   7 5099.77 563.531  48
  -2   3   8 139918. 3877.71  33
  -2   3   8 132438. 2853.34  48
  -2   3   9 66124.1 2009.80  48
  -2   3   9 70465.1 2611.44  33
  -2   3  10 68900.9 2090.76  40
  -2   3  10 65864.3 2293.88  38
  -2   3  10 72538.6 2464.32  33
  -2   3  11 61311.5 1853.68  40
  -2   3  11 58076.1 1961.18  38
  -2   3  12 4519.96 487.106  38
  -2   3  12 4509.53 472.466  40
  -2   3  13 118489. 1948.09  38
  -2   3  13 119952. 1958.45  40
  -2   3  14 4530.89 282.711  40
  -2   4 -13 9722.98 422.686  38
  -2   4 -13 15227.4 576.786  44
  -2   4 -12 25113.9 1030.82  44
  -2   4 -11 53228.4 1798.67  44
  -2   4  -9 15246.5 1044.31  37
  -2   4  -8 163805. 3979.97  50
  -2   4  -8 164885. 4037.90  32
  -2   4  -7 58616.4 2130.97  34
  -2   4  -7 61142.6 2545.44  50
  -2   4  -7 61866.2 2094.17  37
  -2   4  -7 56052.8 2412.66  32
  -2   4  -6 39908.1 2112.03  50
  -2   4  -6 43610.7 1778.35  34
  -2   4  -6 36704.6 1909.54  32
  -2   4  -5 76247.9 2858.44  50
  -2   4  -5 84563.5 2670.86  32
  -2   4  -4 1905.11 356.994  32
  -2   4  -4 1916.64 353.710  34
  -2   4  -4 1748.61 475.335  50
  -2   4  -3 173795. 2942.99  32
  -2   4  -3 174283. 3087.48  34
  -2   4  -3 174433. 3592.80  50
  -2   4  -2 201647. 2766.59  32
  -2   4  -2 203507. 3377.23  50
  -2   4  -1 18008.2 883.058  50
  -2   4  -1 18695.9 943.004  34
  -2   4   0 266492. 4117.81  33
  -2   4   0 279082. 3203.88  36
  -2   4   1 596.925 226.472  34
  -2   4   1 877.139 212.941  36
  -2   4   1 505.412 216.108  33
  -2   4   2 299266. 3438.78  48
  -2   4   2 300016. 4083.94  36
  -2   4   3 1981.18 411.567  33
  -2   4   3 1483.40 306.638  48
  -2   4   4 102547. 2941.18  33
  -2   4   4 104703. 2655.55  36
  -2   4   5 178363. 3424.01  48
  -2   4   5 172092. 3389.58  36
  -2   4   6 75208.1 2916.98  33
  -2   4   6 73268.4 2166.54  36
  -2   4   7 95841.6 3422.53  33
  -2   4   7 105823. 2533.28  36
  -2   4   8 84070.6 2349.78  48
  -2   4   8 87699.9 2210.62  36
  -2   4   8 83760.2 3045.61  33
  -2   4   9 56867.3 2018.59  40
  -2   4   9 50777.6 2166.55  38
  -2   4  10 94914.0 2406.37  40
  -2   4  10 92428.1 2656.65  38
  -2   4  11 246.256 163.595  38
  -2   4  11 294.763 198.234  40
  -2   4  12 17409.5 794.335  40
  -2   4  12 17372.4 817.586  38
  -2   4  13 19090.8 645.241  40
  -2   4  13 16254.0 563.687  38
  -2   5 -12 22853.6 779.064  44
  -2   5 -12 18439.7 668.862  38
  -2   5 -11 119462. 2334.57  44
  -2   5 -10 2732.63 470.443  44
  -2   5  -9 169581. 3768.94  44
  -2   5  -8 6044.29 678.203  37
  -2   5  -8 5736.53 705.500  34
  -2   5  -8 7201.96 878.198  44
  -2   5  -7 48797.1 2323.06  50
  -2   5  -7 49394.4 2150.43  34
  -2   5  -7 47548.5 2221.77  32
  -2   5  -7 49166.4 2291.91  44
  -2   5  -7 50370.3 1880.13  37
  -2   5  -6 80943.5 2849.57  32
  -2   5  -6 77164.4 3024.46  50
  -2   5  -5 12797.7 1051.12  32
  -2   5  -5 15167.8 1173.20  34
  -2   5  -5 11487.5 1134.02  50
  -2   5  -4 296063. 4451.99  32
  -2   5  -4 281962. 5249.02  50
  -2   5  -3 27726.7 1465.03  50
  -2   5  -3 30814.2 1526.91  34
  -2   5  -2 6984.47 697.325  34
  -2   5  -2 6640.89 668.942  50
  -2   5  -1 165490. 3273.55  34
  -2   5   0 734.787 209.098  36
  -2   5   0 712.917 288.401  33
  -2   5   0 767.247 305.255  34
  -2   5   1 187848. 4018.04  33
  -2   5   1 192874. 3508.19  34
  -2   5   2 46340.7 1770.83  36
  -2   5   2 46694.1 2018.21  33
  -2   5   3 192845. 3866.22  36
  -2   5   3 176512. 4027.56  33
  -2   5   4 22768.1 1364.01  36
  -2   5   4 22859.4 1210.98  48
  -2   5   4 22292.5 1513.15  33
  -2   5   5 1281.39 336.222  48
  -2   5   5 2172.74 480.309  36
  -2   5   5 1840.01 466.072  33
  -2   5   6 92328.2 2605.02  48
  -2   5   6 85259.1 2555.99  36
  -2   5   6 83661.9 3182.97  33
  -2   5   7 10154.5 927.682  40
  -2   5   7 9138.20 1013.50  38
  -2   5   7 11250.7 888.756  36
  -2   5   7 10279.6 1152.66  33
  -2   5   7 11919.2 927.157  48
  -2   5   8 45426.9 2169.33  38
  -2   5   8 47231.1 1877.61  40
  -2   5   8 47219.6 1654.48  36
  -2   5   9 62200.9 1929.19  40
  -2   5   9 57078.4 2187.96  38
  -2   5  10 1053.65 265.904  38
  -2   5  10 1235.77 276.496  40
  -2   5  11 33008.1 1052.27  40
  -2   5  11 29833.0 1102.49  38
  -2   5  12 29253.8 782.901  38
  -2   5  12 30555.5 778.693  40
  -2   6 -11 1060.76 161.352  38
  -2   6 -11 1426.39 202.909  44
  -2   6 -10 85705.1 1919.69  44
  -2   6 -10 87964.5 2007.22  38
  -2   6  -9 28635.5 1359.90  44
  -2   6  -9 28750.7 1407.03  38
  -2   6  -8 13863.3 1087.84  44
  -2   6  -8 14001.4 1106.63  38
  -2   6  -7 107278. 3111.35  38
  -2   6  -7 94656.4 2992.83  44
  -2   6  -6 19946.5 1423.26  34
  -2   6  -6 19766.5 1360.20  44
  -2   6  -6 23015.0 1415.88  38
  -2   6  -5 102905. 3243.92  34
  -2   6  -5 94291.5 2792.77  44
  -2   6  -5 115291. 3069.19  38
  -2   6  -5 82069.2 2889.38  50
  -2   6  -4 61937.8 2172.88  38
  -2   6  -4 59075.6 2409.19  34
  -2   6  -3 34148.0 1625.36  50
  -2   6  -3 37119.3 1877.86  34
  -2   6  -2 83640.2 2748.35  34
  -2   6  -2 78927.7 2967.42  33
  -2   6  -1 3101.00 595.772  33
  -2   6  -1 2778.80 501.537  34
  -2   6   0 40868.9 1897.78  34
  -2   6   0 42220.0 2107.99  33
  -2   6   0 42899.3 1580.07  36
  -2   6   1 34313.1 1551.98  36
  -2   6   1 31139.7 1662.93  34
  -2   6   1 32390.5 1840.45  33
  -2   6   2 39602.7 2072.42  33
  -2   6   2 42457.5 1867.30  36
  -2   6   3 96528.3 2989.49  36
  -2   6   3 81468.8 3042.99  33
  -2   6   4 2276.95 471.804  38
  -2   6   4 2368.08 632.267  33
  -2   6   4 2112.07 489.760  36
  -2   6   5 189956. 4087.96  36
  -2   6   5 161259. 4173.04  38
  -2   6   6 18120.3 1424.95  38
  -2   6   6 17488.0 1152.24  40
  -2   6   7 32900.2 1428.62  40
  -2   6   7 28977.0 1756.54  38
  -2   6   8 18789.1 958.635  40
  -2   6   8 17110.9 1216.58  38
  -2   6   9 8669.90 555.069  40
  -2   6   9 9864.26 797.957  38
  -2   6  10 34451.1 1130.40  38
  -2   6  10 34757.9 883.255  40
  -2   7  -9 3233.29 345.373  38
  -2   7  -9 3198.92 317.574  44
  -2   7  -8 42305.9 1402.46  44
  -2   7  -8 40130.0 1133.67  55
  -2   7  -7 8174.91 687.644  55
  -2   7  -7 7776.14 697.659  44
  -2   7  -7 7515.91 753.113  38
  -2   7  -6 78854.6 2476.26  38
  -2   7  -6 76417.5 2439.89  55
  -2   7  -6 70595.6 2145.91  44
  -2   7  -5 43574.8 1853.95  38
  -2   7  -5 29391.6 1679.43  55
  -2   7  -4 32216.8 1568.54  38
  -2   7  -4 24669.0 1593.68  55
  -2   7  -3 38276.5 1984.33  34
  -2   7  -3 39699.2 2009.44  55
  -2   7  -2 51299.4 1981.57  38
  -2   7  -2 45456.1 2203.08  34
  -2   7  -2 48508.9 2111.72  55
  -2   7  -1 12067.9 966.670  38
  -2   7  -1 12101.1 1063.24  55
  -2   7  -1 10296.7 1087.58  34
  -2   7   0 30499.7 1557.68  38
  -2   7   0 29173.8 1552.36  55
  -2   7   1 11207.5 972.555  38
  -2   7   1 10566.2 832.815  36
  -2   7   1 11020.5 939.504  55
  -2   7   2 84296.6 2748.13  38
  -2   7   2 81935.6 2534.58  36
  -2   7   2 88338.0 2557.93  55
  -2   7   3 4288.81 603.142  55
  -2   7   3 3192.46 586.982  38
  -2   7   4 14510.0 1230.98  38
  -2   7   4 18759.2 1120.76  55
  -2   7   5 23709.2 1583.26  38
  -2   7   6 17618.9 1294.99  38
  -2   7   7 49712.7 1907.10  38
  -2   7   8 130.630 128.682  38
  -2   7   9 47220.8 1034.18  38
  -2   8  -7 46610.7 1164.30  38
  -2   8  -6 53804.1 1376.15  55
  -2   8  -6 45753.0 1461.37  38
  -2   8  -5 42511.8 1554.83  38
  -2   8  -5 47592.4 1653.18  55
  -2   8  -4 34693.3 1599.38  55
  -2   8  -4 37854.0 1516.24  38
  -2   8  -3 779.876 331.621  55
  -2   8  -3 204.254 155.056  38
  -2   8  -2 40766.3 1633.79  38
  -2   8  -2 40358.2 1804.05  55
  -2   8  -1 23422.3 1262.83  38
  -2   8  -1 22199.6 1292.85  55
  -2   8   0 10280.8 860.373  38
  -2   8   0 11953.5 899.977  55
  -2   8   1 80668.7 2225.77  55
  -2   8   1 75619.0 2340.03  38
  -2   8   2-435.699 269.398  38
  -2   8   2 206.529 140.200  55
  -2   8   3 60620.6 1688.67  55
  -2   8   3 52158.9 1977.02  38
  -2   8   4 25820.4 1353.32  38
  -2   8   5 41232.3 1517.39  38
  -2   8   6 16105.7 756.673  38
  -1  -8  -3 357.706 150.915  20
  -1  -8  -2 38851.0 1329.65  56
  -1  -8  -2 38132.8 1173.16  20
  -1  -8  -1 7658.52 559.895  20
  -1  -8  -1 6778.24 647.046  56
  -1  -8   0 998.807 294.173  56
  -1  -8   0 1034.61 240.730  20
  -1  -8   1 61588.8 2102.57  56
  -1  -8   1 61294.2 1484.08  26
  -1  -8   1 64997.4 1616.98  20
  -1  -8   2 82.6936 174.665  56
  -1  -8   2-221.482 119.583  26
  -1  -8   2 84.6443 157.890  20
  -1  -8   3 79729.4 1803.83  41
  -1  -8   3 83615.6 1938.15  26
  -1  -8   3 85497.8 2146.65  56
  -1  -8   4 14052.4 773.179  41
  -1  -8   4 15506.9 757.619  26
  -1  -8   5 6480.89 482.669  41
  -1  -8   5 6654.94 423.648  26
  -1  -7  -7 10536.9 475.938  20
  -1  -7  -7 11357.4 521.594  39
  -1  -7  -6 24514.3 980.564  20
  -1  -7  -6 22700.7 960.555  39
  -1  -7  -5 84758.6 2120.73  39
  -1  -7  -5 81883.3 2082.21  20
  -1  -7  -4 4.72740 55.8865  20
  -1  -7  -4 314.109 226.827  39
  -1  -7  -4 221.940 168.030  56
  -1  -7  -3 36565.0 1483.59  20
  -1  -7  -3 33624.0 1606.28  39
  -1  -7  -3 33882.4 1567.40  56
  -1  -7  -2 23591.8 1367.14  56
  -1  -7  -2 24077.4 1431.45  39
  -1  -7  -2 27403.4 1267.39  20
  -1  -7  -1 9626.13 933.365  56
  -1  -7  -1 8993.19 917.152  39
  -1  -7  -1 10749.5 802.713  20
  -1  -7   0 51213.8 2148.77  56
  -1  -7   0 53672.5 1748.25  20
  -1  -7   1 449.402 261.668  41
  -1  -7   1 1253.16 371.872  56
  -1  -7   1 847.412 252.167  20
  -1  -7   2 59851.7 2039.95  41
  -1  -7   2 61099.1 1851.33  20
  -1  -7   3 7424.63 796.839  41
  -1  -7   3 5818.03 785.724  56
  -1  -7   3 7311.99 661.406  20
  -1  -7   4 47882.4 1984.37  41
  -1  -7   4 49418.6 1678.15  20
  -1  -7   5 17848.5 1235.93  41
  -1  -7   5 21226.8 1095.01  20
  -1  -7   6 636.323 257.927  41
  -1  -7   6 410.669 182.117  26
  -1  -7   6 292.048 201.122  20
  -1  -7   7 50615.9 1313.56  26
  -1  -7   7 52616.4 1436.15  20
  -1  -7   8 24786.3 749.455  20
  -1  -7   8 25548.7 933.439  41
  -1  -7   8 26935.2 921.643  53
  -1  -6  -9 46337.6 1066.90  39
  -1  -6  -9 45590.2 1011.13  20
  -1  -6  -8 19275.0 920.033  20
  -1  -6  -8 18354.5 748.923  15
  -1  -6  -8 20714.0 988.594  39
  -1  -6  -7 8300.55 737.315  39
  -1  -6  -7 8468.58 737.712  20
  -1  -6  -7 7312.20 544.414  15
  -1  -6  -6 36544.3 1703.25  39
  -1  -6  -6 32702.3 1573.43  20
  -1  -6  -5 6986.30 833.576  39
  -1  -6  -5 8080.32 807.919  20
  -1  -6  -4 129270. 3275.77  56
  -1  -6  -4 125686. 3051.75  20
  -1  -6  -3 70274.5 2571.86  39
  -1  -6  -3 77527.2 2558.80  56
  -1  -6  -3 76954.3 2327.10  20
  -1  -6  -2 5318.26 709.580  39
  -1  -6  -2 6256.02 757.788  56
  -1  -6  -2 5414.07 616.438  20
  -1  -6  -1 106282. 3010.17  56
  -1  -6  -1 97967.8 3185.35  30
  -1  -6  -1 101179. 3088.92  39
  -1  -6  -1 108022. 2630.96  20
  -1  -6   0 21776.7 1414.38  56
  -1  -6   0 21266.8 1159.20  31
  -1  -6   0 23934.0 1215.53  20
  -1  -6   0 23929.1 1534.02  30
  -1  -6   1 196174. 4281.79  56
  -1  -6   1 181486. 4025.62  30
  -1  -6   1 182533. 3332.01  20
  -1  -6   1 171245. 3441.09  31
  -1  -6   1 200203. 3741.68  41
  -1  -6   2 35850.2 1745.00  30
  -1  -6   2 36654.4 1715.40  41
  -1  -6   2 35147.2 1654.33  31
  -1  -6   2 40170.9 1555.23  20
  -1  -6   2 37386.8 1946.35  56
  -1  -6   3 29906.2 1363.60  20
  -1  -6   3 29033.0 1604.27  41
  -1  -6   3 27145.3 1717.89  56
  -1  -6   3 25039.6 1517.71  31
  -1  -6   3 25299.3 1426.65  30
  -1  -6   4 55540.9 2334.80  41
  -1  -6   4 48394.7 2255.48  56
  -1  -6   5 7190.39 726.328  20
  -1  -6   5 4620.18 758.406  41
  -1  -6   6 24012.7 1581.97  41
  -1  -6   6 27081.4 1569.73  53
  -1  -6   6 28749.9 1422.15  20
  -1  -6   7 31174.7 1465.84  20
  -1  -6   7 32227.8 1715.54  53
  -1  -6   8 50766.4 1477.92  26
  -1  -6   8 58210.4 1994.45  41
  -1  -6   8 48875.4 1687.72  20
  -1  -6   8 55497.8 2097.42  53
  -1  -6   9 124129. 2362.84  41
  -1  -6   9 119380. 1868.91  25
  -1  -6   9 121137. 2245.94  20
  -1  -6   9 125203. 2741.47  53
  -1  -6  10 3073.54 262.255  25
  -1  -6  10 3247.42 399.868  53
  -1  -6  10 3466.36 301.347  20
  -1  -6  11 59770.5 1114.03  53
  -1  -6  11 51086.9 797.377  25
  -1  -5 -11 5764.10 337.304  15
  -1  -5 -10 51322.4 1322.95  54
  -1  -5 -10 52264.8 1221.81  39
  -1  -5 -10 53411.8 1282.29  20
  -1  -5  -9 11340.3 757.288  54
  -1  -5  -9 11550.0 776.227  39
  -1  -5  -9 11597.1 753.380  15
  -1  -5  -9 12425.5 805.120  20
  -1  -5  -8 14753.9 960.254  15
  -1  -5  -8 14247.8 1033.61  39
  -1  -5  -8 14516.4 970.934  54
  -1  -5  -8 13462.9 989.508  20
  -1  -5  -7 102253. 2700.49  15
  -1  -5  -7 97244.0 2806.76  20
  -1  -5  -6 4053.70 601.001  20
  -1  -5  -6 4364.01 666.610  39
  -1  -5  -5 127717. 3452.36  39
  -1  -5  -5 129661. 3070.62  20
  -1  -5  -4 96451.5 3028.50  49
  -1  -5  -3 1151.70 368.878  49
  -1  -5  -3 988.078 378.376  30
  -1  -5  -2 86721.5 2838.53  49
  -1  -5  -2 94737.2 2943.73  30
  -1  -5  -1 7190.34 809.191  30
  -1  -5  -1 6526.14 792.343  49
  -1  -5  -1 6957.75 606.795  31
  -1  -5   0 89104.0 2259.02  31
  -1  -5   0 87431.3 2615.69  30
  -1  -5   1 136261. 2951.46  31
  -1  -5   1 138920. 3198.81  30
  -1  -5   2 215.092 171.867  30
  -1  -5   2 456.337 212.612  31
  -1  -5   3 200179. 4113.60  31
  -1  -5   3 221157. 3953.20  30
  -1  -5   4 5529.97 662.611  30
  -1  -5   4 5338.34 766.821  31
  -1  -5   5 84482.2 2516.55  30
  -1  -5   5 66689.2 2577.02  31
  -1  -5   6 63934.7 2184.76  30
  -1  -5   6 62634.9 2402.10  31
  -1  -5   7 17818.8 1173.93  20
  -1  -5   7 21179.8 1488.32  41
  -1  -5   7 17924.3 1399.02  53
  -1  -5   7 22037.7 1319.36  31
  -1  -5   8 64380.6 2338.23  41
  -1  -5   8 56573.9 2381.03  53
  -1  -5   9 38380.1 1586.29  41
  -1  -5   9 39935.2 1835.32  53
  -1  -5   9 35525.7 1501.06  20
  -1  -5  10 39783.5 1181.44  25
  -1  -5  10 38349.0 1347.28  20
  -1  -5  11 55635.8 1292.00  20
  -1  -5  11 56059.6 1613.17  53
  -1  -5  11 52347.3 1196.95  25
  -1  -5  12 2757.28 286.681  53
  -1  -5  12 2608.98 227.650  25
  -1  -4 -12 6636.48 446.219  54
  -1  -4 -12 6294.63 386.645  15
  -1  -4 -11 54106.5 1603.35  54
  -1  -4 -11 55365.9 1477.98  15
  -1  -4 -10 29652.1 1404.47  54
  -1  -4 -10 25905.5 1133.64  20
  -1  -4 -10 28545.0 1244.33  15
  -1  -4  -9 46209.7 1759.53  20
  -1  -4  -9 50327.3 1831.49  15
  -1  -4  -9 46347.0 1721.87  39
  -1  -4  -9 49349.9 2010.15  54
  -1  -4  -8 81257.5 2726.38  54
  -1  -4  -8 81071.5 2386.37  37
  -1  -4  -8 80054.7 2477.29  39
  -1  -4  -8 71977.6 2354.89  20
  -1  -4  -8 77816.9 2415.94  15
  -1  -4  -7 1167.87 318.367  20
  -1  -4  -7 1342.93 331.538  39
  -1  -4  -7 1072.40 373.131  49
  -1  -4  -7 1358.27 347.042  37
  -1  -4  -7 1378.43 476.916  54
  -1  -4  -6 186300. 4113.23  49
  -1  -4  -6 197209. 3755.77  37
  -1  -4  -5 143538. 2963.41  37
  -1  -4  -5 129889. 3341.37  49
  -1  -4  -4 166557. 3604.24  49
  -1  -4  -4 161808. 3563.22  30
  -1  -4  -4 172328. 2877.14  37
  -1  -4  -3 204068. 3904.25  30
  -1  -4  -3 206283. 3774.48  49
  -1  -4  -2 4455.83 564.277  30
  -1  -4  -2 4920.34 568.594  49
  -1  -4  -1 80197.7 1790.56  31
  -1  -4  -1 69628.7 2044.94  30
  -1  -4  -1 74055.9 1462.97  14
  -1  -4  -1 75643.3 2083.83  49
  -1  -4   0 163843. 2684.15  31
  -1  -4   0 166370. 2141.34  14
  -1  -4   0 157264. 2945.03  30
  -1  -4   0 158340. 2944.46  49
  -1  -4   1 17754.1 973.694  30
  -1  -4   1 17719.9 676.654  14
  -1  -4   1 17964.4 958.580  31
  -1  -4   2 162423. 3124.15  31
  -1  -4   2 163262. 2934.60  30
  -1  -4   2 162413. 1919.55  14
  -1  -4   3 30374.7 1470.83  31
  -1  -4   3 34073.2 874.827  14
  -1  -4   3 31910.0 1312.99  30
  -1  -4   4 140093. 1833.87  14
  -1  -4   4 143592. 2877.81  30
  -1  -4   5 31323.1 1646.66  31
  -1  -4   5 37088.1 1518.54  30
  -1  -4   6 60629.1 1989.73  30
  -1  -4   6 58179.5 2190.82  31
  -1  -4   7 100184. 2713.17  31
  -1  -4   7 94104.9 2499.99  30
  -1  -4   7 102018. 3353.87  33
  -1  -4   8 5278.73 792.352  33
  -1  -4   9 87591.3 2796.44  53
  -1  -4   9 74588.5 2297.64  20
  -1  -4  10 59419.7 1953.55  43
  -1  -4  10 63028.9 2200.44  53
  -1  -4  10 63192.9 1946.57  20
  -1  -4  11 1697.07 351.148  43
  -1  -4  11 2011.39 303.488  25
  -1  -4  11 1830.55 389.504  53
  -1  -4  11 1557.03 298.695  20
  -1  -4  12 39050.5 1194.64  43
  -1  -4  12 37967.0 1025.65  25
  -1  -4  12 40423.9 1101.56  20
  -1  -4  13 4283.92 261.788  25
  -1  -4  13 4606.33 321.875  43
  -1  -4  13 4447.73 313.597  53
  -1  -3 -13 8097.16 386.022  15
  -1  -3 -13 9589.94 506.525  54
  -1  -3 -12 84314.3 1980.70  54
  -1  -3 -12 81618.4 1695.77  15
  -1  -3 -11 46544.9 1520.11  15
  -1  -3 -11 49265.9 1804.78  54
  -1  -3 -10 650.801 207.250  20
  -1  -3 -10 1030.91 385.278  54
  -1  -3 -10 1232.92 327.487  15
  -1  -3 -10 586.607 187.436  37
  -1  -3  -9 79477.9 2368.26  15
  -1  -3  -9 79793.9 2721.77  54
  -1  -3  -9 76333.0 2300.37  20
  -1  -3  -8 36549.0 1601.59  37
  -1  -3  -8 35244.4 1627.32  49
  -1  -3  -7 247253. 4414.14  49
  -1  -3  -7 266859. 4338.40  37
  -1  -3  -6 169155. 3334.79  37
  -1  -3  -6 149572. 3324.43  49
  -1  -3  -5 40511.0 1632.40  49
  -1  -3  -5 42727.7 1649.08  30
  -1  -3  -5 45248.8 1569.78  37
  -1  -3  -4 212766. 3434.33  49
  -1  -3  -4 222812. 3029.07  37
  -1  -3  -3 11714.7 794.950  30
  -1  -3  -3 11109.0 577.072  37
  -1  -3  -3 12552.8 770.501  49
  -1  -3  -2 38202.8 1317.91  30
  -1  -3  -2 37720.1 1241.97  49
  -1  -3  -2 35969.2 911.944  37
  -1  -3  -1 80596.7 1792.93  30
  -1  -3  -1 81354.3 1708.15  49
  -1  -3   0 18894.8 588.240  14
  -1  -3   0 19958.4 861.882  30
  -1  -3   0 20010.7 812.620  49
  -1  -3   0 19672.9 795.946  31
  -1  -3   1 452731. 4018.46  30
  -1  -3   1 445913. 3685.69  49
  -1  -3   2 160684. 2407.57  30
  -1  -3   2 165382. 2729.67  31
  -1  -3   2 161164. 2170.87  49
  -1  -3   3 198139. 1770.63  14
  -1  -3   3 200521. 2780.79  30
  -1  -3   3 196816. 2761.82  35
  -1  -3   4 7178.86 558.514  30
  -1  -3   4 6828.93 579.448  33
  -1  -3   4 5455.11 554.069  35
  -1  -3   4 5590.59 599.275  31
  -1  -3   5 42615.2 1406.99  30
  -1  -3   5 43303.3 1601.71  33
  -1  -3   5 36333.7 1580.02  31
  -1  -3   5 37695.7 1562.52  35
  -1  -3   6 82079.0 2064.78  30
  -1  -3   6 86878.7 2413.83  31
  -1  -3   6 79636.8 2370.83  35
  -1  -3   6 74703.8 2403.92  33
  -1  -3   7 235.573 252.822  33
  -1  -3   7 151.144 235.049  35
  -1  -3   8 85783.2 2483.11  35
  -1  -3   8 71386.4 2731.20  33
  -1  -3   9 145680. 3926.14  33
  -1  -3   9 130413. 2951.86  35
  -1  -3  10 104652. 2668.03  43
  -1  -3  10 102476. 2754.12  53
  -1  -3  10 96951.7 2461.98  35
  -1  -3  11 45036.5 1664.93  43
  -1  -3  11 44655.8 1697.14  53
  -1  -3  11 41678.2 1511.45  35
  -1  -3  11 50044.8 1399.41  25
  -1  -3  11 47565.5 3653.37  27
  -1  -3  12 4577.07 402.425  25
  -1  -3  12 5502.16 531.256  53
  -1  -3  13 68250.0 1593.36  43
  -1  -3  13 72317.8 1387.67  20
  -1  -3  14 40742.0 939.595  43
  -1  -2 -13 17515.2 789.643  45
  -1  -2 -13 16874.7 654.964  15
  -1  -2 -13 18188.7 821.451  54
  -1  -2 -12 50791.5 1688.63  54
  -1  -2 -12 49281.1 1422.57  15
  -1  -2 -12 45401.3 1603.51  45
  -1  -2 -11 3085.94 519.833  54
  -1  -2 -11 2371.18 359.525  15
  -1  -2 -10 42709.6 1911.07  54
  -1  -2 -10 43443.2 1661.29  15
  -1  -2  -9 1194.83 301.560  37
  -1  -2  -8 57755.8 1887.24  37
  -1  -2  -7 188561. 3356.81  37
  -1  -2  -7 185531. 3440.06  49
  -1  -2  -6 205.919 199.754  49
  -1  -2  -6 301.873 132.997  37
  -1  -2  -6 197.806 167.486  30
  -1  -2  -5 262320. 3528.85  37
  -1  -2  -5 267678. 3501.42  49
  -1  -2  -4 35195.4 1250.99  30
  -1  -2  -4 36533.4 1167.83  37
  -1  -2  -4 39171.7 1211.15  49
  -1  -2  -3 55154.6 1439.51  30
  -1  -2  -3 56533.5 1213.46  37
  -1  -2  -3 57929.8 1342.39  49
  -1  -2  -2 175193. 2117.21  49
  -1  -2  -2 167580. 2246.37  30
  -1  -2  -1 39013.8 837.594  31
  -1  -2  -1 36205.0 912.195  49
  -1  -2   0 40378.6 901.751  49
  -1  -2   0 40455.3 941.538  31
  -1  -2   1 103352. 1433.58   4
  -1  -2   1 96872.3 1468.46  30
  -1  -2   1 102076. 1363.46  49
  -1  -2   1 108474. 1721.03  31
  -1  -2   2 5226.12 435.053  31
  -1  -2   2 4081.13 317.557  30
  -1  -2   2 5289.38 355.406  33
  -1  -2   2 4052.53 270.370  49
  -1  -2   3 38009.5 983.146  30
  -1  -2   3 37051.9 1059.17  33
  -1  -2   4 17109.2 698.900  30
  -1  -2   4 16812.0 834.735  33
  -1  -2   4 16768.4 844.947  35
  -1  -2   5 76951.3 2085.91  33
  -1  -2   5 80195.2 2047.91  31
  -1  -2   5 73780.0 2017.70  35
  -1  -2   5 76704.5 1604.22  30
  -1  -2   6 12097.8 951.933  33
  -1  -2   6 13419.1 936.662  35
  -1  -2   7 122915. 3287.74  33
  -1  -2   7 148281. 3167.41  35
  -1  -2   8 81292.7 2378.15  35
  -1  -2   8 82047.2 2811.61  33
  -1  -2   9 32038.8 1481.55  35
  -1  -2   9 36205.5 1883.84  33
  -1  -2  10 73543.7 2233.74  35
  -1  -2  10 87683.7 2838.17  33
  -1  -2  11 8515.45 744.106  43
  -1  -2  11 9818.17 1810.60  27
  -1  -2  11 9302.39 788.407  35
  -1  -2  12 28340.7 1277.81  43
  -1  -2  12 21607.2 2457.05  27
  -1  -2  13 39199.8 1331.39  43
  -1  -2  13 31338.9 2688.25  27
  -1  -2  14 5078.42 406.375  43
  -1  -2  14 4338.43 305.869  20
  -1  -1 -14 34672.9 975.245  45
  -1  -1 -13 116179. 2393.43  45
  -1  -1 -13 119609. 2205.90  54
  -1  -1 -12 7364.83 719.361  45
  -1  -1 -12 6871.78 668.763  54
  -1  -1 -11 105541. 2445.77  37
  -1  -1 -11 127888. 3095.58  54
  -1  -1 -10 22385.1 1149.07  37
  -1  -1  -9 54427.4 1775.71  37
  -1  -1  -9 57299.6 2043.11  32
  -1  -1  -8 78475.1 2420.60  32
  -1  -1  -8 68339.6 1929.33  37
  -1  -1  -7 28187.3 1132.19  30
  -1  -1  -7 26859.8 1156.22  37
  -1  -1  -6 98301.7 2054.35  49
  -1  -1  -6 98555.5 2102.58  37
  -1  -1  -5 217210. 2698.45  49
  -1  -1  -5 229527. 3053.00  37
  -1  -1  -4 215842. 2771.45  37
  -1  -1  -4 209767. 2318.68  49
  -1  -1  -4 210492. 1929.63  29
  -1  -1  -3 266664. 2090.34  29
  -1  -1  -3 259120. 2027.65  47
  -1  -1  -2 92925.9 1088.26  47
  -1  -1  -1 424940. 2159.00  47
  -1  -1   0 10187.2 329.870   4
  -1  -1   1 122048. 1385.19   4
  -1  -1   2 229656. 1279.90   1
  -1  -1   3 14489.3 326.154   1
  -1  -1   3 11895.7 664.651  31
  -1  -1   3 12792.0 641.259   4
  -1  -1   3 13666.8 615.791  33
  -1  -1   4 8901.54 594.388  31
  -1  -1   4 8237.35 308.220  28
  -1  -1   4 8026.94 582.464  33
  -1  -1   5 5809.35 581.817  33
  -1  -1   5 7378.11 622.912  35
  -1  -1   6 233421. 2947.39  31
  -1  -1   6 210891. 3442.14  35
  -1  -1   7 197490. 3455.34  35
  -1  -1   7 189500. 3725.98  33
  -1  -1   8 72263.8 2387.94  33
  -1  -1   8 64391.0 1995.39  35
  -1  -1   9 311258. 5077.49  33
  -1  -1   9 282643. 4286.42  35
  -1  -1  10 42499.6 1678.50  35
  -1  -1  10 46902.4 1993.96  33
  -1  -1  11 13993.9 959.341  43
  -1  -1  11 14280.7 964.913  35
  -1  -1  11 15416.2 1022.16  38
  -1  -1  11 16549.3 1177.14  33
  -1  -1  12 55068.6 1807.68  43
  -1  -1  12 58546.7 1802.81  35
  -1  -1  13 713.208 235.422  43
  -1  -1  13 1015.52 658.758  27
  -1  -1  14 108448. 1909.09  43
  -1  -1  14 25192.2 1889.68  27
  -1  -1  15 26462.8 657.144  43
  -1   0 -14 88216.6 1791.04  45
  -1   0 -13 3281.80 466.009  45
  -1   0 -12 105565. 2855.81  45
  -1   0 -11 13089.8 877.576  37
  -1   0 -10 65661.0 1977.81  37
  -1   0 -10 67273.7 2176.21  32
  -1   0  -9 26514.8 1377.75  32
  -1   0  -9 26415.4 1239.47  37
  -1   0  -8 8844.81 695.585  37
  -1   0  -8 9635.35 822.314  32
  -1   0  -7 325194. 4022.96  37
  -1   0  -7 324609. 4513.29  32
  -1   0  -7 321419. 4269.41  50
  -1   0  -6 274296. 3928.49  32
  -1   0  -6 284498. 3550.47  37
  -1   0  -5 216784. 2923.24  37
  -1   0  -4 233815. 2098.49  29
  -1   0  -3 167354. 1693.56  29
  -1   0  -3 199499. 1545.68  28
  -1   0  -2 518021. 2795.24  29
  -1   0  -2 482311. 2346.99  47
  -1   0  -1 63133.8 753.183  47
  -1   0  -1 64091.7 934.205  29
  -1   0  -1 63605.8 664.546   2
  -1   0   0 119679. 957.354  47
  -1   0   0 117179. 1213.88  28
  -1   0   1 528219. 2476.80  28
  -1   0   2 193029. 1489.94  28
  -1   0   3 423090. 2189.23  28
  -1   0   4 12713.4 364.955  28
  -1   0   4 14649.4 820.114  33
  -1   0   4 14937.0 614.110  48
  -1   0   5 429614. 3489.60  31
  -1   0   5 405352. 4136.75  35
  -1   0   5 408063. 3483.46  48
  -1   0   5 441884. 4662.74  33
  -1   0   6 382631. 4268.77  35
  -1   0   6 374821. 3417.48  48
  -1   0   7 10827.3 810.553  33
  -1   0   7 10633.8 731.722  35
  -1   0   7 9805.78 570.220  48
  -1   0   8 279772. 3878.90  35
  -1   0   8 298145. 4480.93  33
  -1   0   9 27639.0 1422.17  33
  -1   0   9 22496.7 1146.20  35
  -1   0  10 170350. 3627.86  33
  -1   0  10 147298. 2964.20  35
  -1   0  11 135161. 2920.44  43
  -1   0  11 138484. 2872.01  35
  -1   0  11 135631. 3018.23  38
  -1   0  12 37096.1 1458.90  43
  -1   0  12 37877.8 1424.08  35
  -1   0  12 39797.7 1587.74  38
  -1   0  13 94555.3 2110.65  43
  -1   0  13 87809.8 1974.22  40
  -1   0  14 6766.13 461.647  40
  -1   0  14 7196.06 484.942  43
  -1   1 -14 1055.58 232.119  45
  -1   1 -13 68316.8 2041.19  45
  -1   1 -12 7761.61 793.677  45
  -1   1 -11 35991.0 1757.95  45
  -1   1 -11 30266.6 1322.27  37
  -1   1 -10 15923.4 1011.19  37
  -1   1 -10 17042.4 1130.23  32
  -1   1  -9 16194.2 1021.23  37
  -1   1  -9 16588.2 1086.72  32
  -1   1  -8 31725.1 1414.71  37
  -1   1  -8 29029.0 1362.90  50
  -1   1  -8 30404.6 1419.41  32
  -1   1  -7 1623.34 357.792  50
  -1   1  -7 1770.02 344.122  37
  -1   1  -7 1676.32 351.032  32
  -1   1  -6 50358.0 1685.80  32
  -1   1  -6 47826.5 1615.37  50
  -1   1  -5 308188. 3983.78  32
  -1   1  -5 293790. 3866.21  50
  -1   1  -4 299444. 3800.70  32
  -1   1  -4 278829. 3638.51  50
  -1   1  -3 411886. 4158.40  32
  -1   1  -3 449996. 2192.95   4
  -1   1  -2 49855.8 632.743   1
  -1   1  -2 50184.6 633.564   4
  -1   1  -1 244490. 1383.62   1
  -1   1   0 249375. 1585.18   2
  -1   1   0 267807. 1250.02  47
  -1   1   1 40001.0 599.522   2
  -1   1   3 1016.20 235.721   3
  -1   1   4 54389.9 1546.78   3
  -1   1   4 56186.0 1363.54  48
  -1   1   5 33399.0 1367.80  33
  -1   1   5 34708.4 1108.33  48
  -1   1   6 33055.4 1111.67  35
  -1   1   6 35096.0 1136.88  48
  -1   1   7 305020. 3585.92  35
  -1   1   7 299978. 4337.06  33
  -1   1   8 74314.9 1867.56  35
  -1   1   8 70826.0 2179.96  33
  -1   1   8 75839.1 1788.11  48
  -1   1   9 149871. 2751.56  35
  -1   1   9 151281. 3295.77  33
  -1   1  10 44496.1 1544.87  35
  -1   1  10 48456.3 1935.52  33
  -1   1  11 3385.01 456.937  43
  -1   1  11 2625.37 398.866  40
  -1   1  11 3893.74 574.936  33
  -1   1  11 2764.29 411.776  35
  -1   1  11 2916.16 467.807  38
  -1   1  12 181656. 3094.50  43
  -1   1  12 178777. 3107.77  40
  -1   1  12 184376. 3457.31  38
  -1   1  13 19614.9 891.667  43
  -1   1  13 20335.4 1042.30  38
  -1   1  13 18190.8 920.982  40
  -1   1  14 42262.8 1165.73  40
  -1   2 -14 27903.1 973.328  45
  -1   2 -13 32922.2 1128.91  44
  -1   2 -13 40001.2 1488.50  45
  -1   2 -12 30349.1 1476.35  45
  -1   2 -11 52758.6 1674.79  37
  -1   2 -11 62559.3 2258.24  45
  -1   2 -10 26255.5 1296.59  37
  -1   2 -10 26794.2 1422.50  32
  -1   2  -9 153260. 3282.75  50
  -1   2  -9 150867. 3226.45  37
  -1   2  -9 158560. 3461.78  32
  -1   2  -8 2256.32 446.951  32
  -1   2  -8 3148.11 459.205  50
  -1   2  -7 165208. 3390.64  32
  -1   2  -7 155077. 3081.15  37
  -1   2  -7 162186. 3325.45  50
  -1   2  -6 126707. 2484.79  37
  -1   2  -6 129403. 2915.60  50
  -1   2  -6 126896. 2903.63  32
  -1   2  -5 40222.5 1191.50  34
  -1   2  -5 40578.5 1595.67  50
  -1   2  -4 10051.1 733.861  32
  -1   2  -4 11438.1 822.065  50
  -1   2  -3 721.344 218.090  32
  -1   2  -3 743.931 253.422  50
  -1   2  -3 1050.83 157.576   4
  -1   2  -2 213087. 1848.75   4
  -1   2  -2 186981. 1211.17   1
  -1   2  -2 195669. 2251.53  32
  -1   2  -2 211771. 2757.61  50
  -1   2   2 197755. 2348.57  48
  -1   2   2 178633. 1557.60   2
  -1   2   3 48763.9 845.101   2
  -1   2   3 50171.7 1498.41   3
  -1   2   4 7683.86 530.524  36
  -1   2   4 7791.08 663.073  33
  -1   2   5 483.781 162.516  36
  -1   2   5 287.822 227.535  33
  -1   2   5 405.186 166.623  48
  -1   2   6 110691. 1989.20  36
  -1   2   6 115966. 2296.85  48
  -1   2   7 108874. 2305.40  48
  -1   2   7 114269. 3047.06  33
  -1   2   8 45742.1 1950.24  33
  -1   2   8 45135.4 1516.86  48
  -1   2   9 31361.4 1582.66  33
  -1   2   9 29785.1 1250.53  48
  -1   2  10 36568.1 1374.85  48
  -1   2  10 39203.0 1744.85  33
  -1   2  11 96895.7 2384.29  40
  -1   2  11 98636.7 2750.24  38
  -1   2  12 741.683 252.564  38
  -1   2  12 1179.87 293.769  40
  -1   2  13 8323.45 634.283  38
  -1   2  13 8798.67 624.332  40
  -1   2  14 41687.4 1081.71  40
  -1   2  14 37750.7 1038.52  38
  -1   3 -14 45787.2 999.152  45
  -1   3 -13 1611.90 246.684  44
  -1   3 -13 1887.11 305.098  45
  -1   3 -12 81052.1 2240.28  45
  -1   3 -12 78070.1 2077.05  44
  -1   3 -11 1662.18 359.852  45
  -1   3 -10 126573. 2743.31  37
  -1   3 -10 138787. 3275.76  32
  -1   3  -9 32480.7 1502.35  37
  -1   3  -9 33838.0 1677.90  32
  -1   3  -9 33916.4 1612.15  50
  -1   3  -8 67853.8 2408.50  32
  -1   3  -8 64400.4 2270.67  50
  -1   3  -7 181926. 3280.88  37
  -1   3  -7 162950. 3734.03  32
  -1   3  -7 169278. 3387.04  34
  -1   3  -7 189712. 3947.06  50
  -1   3  -6 3337.10 461.718  34
  -1   3  -6 2778.88 493.157  32
  -1   3  -5 356232. 5012.13  32
  -1   3  -5 324641. 5003.84  50
  -1   3  -4 40354.1 1494.20  32
  -1   3  -4 38065.5 1611.76  50
  -1   3  -3 80874.7 1702.73  34
  -1   3  -3 82647.3 2122.47  50
  -1   3  -3 83517.1 1855.93  32
  -1   3  -2 674017. 4522.32  32
  -1   3  -2 679021. 4592.99  34
  -1   3  -1 178633. 2250.12  34
  -1   3  -1 176079. 2057.28  32
  -1   3   0 171175. 2064.90  50
  -1   3   0 179187. 1863.30  32
  -1   3   1 354113. 3190.94  36
  -1   3   1 340203. 2647.88  48
  -1   3   2 226868. 3175.55  33
  -1   3   2 222154. 2514.25  48
  -1   3   3 117620. 2213.90  36
  -1   3   3 114407. 2091.61  48
  -1   3   4 2475.30 380.169  36
  -1   3   4 2110.56 391.560  33
  -1   3   4 2251.10 361.118  48
  -1   3   5 120833. 2412.99  36
  -1   3   5 126092. 2579.35  48
  -1   3   6 34621.2 1406.18  48
  -1   3   6 33828.1 1272.02  36
  -1   3   6 33360.7 1778.03  33
  -1   3   7 92120.0 2080.24  36
  -1   3   7 92459.0 3051.91  33
  -1   3   8 87903.9 2961.46  33
  -1   3   8 94525.3 2391.88  48
  -1   3   9 4809.05 554.859  48
  -1   3   9 4614.85 664.251  33
  -1   3  10 43664.2 1636.37  40
  -1   3  10 46090.2 1881.16  33
  -1   3  10 44877.6 1594.43  48
  -1   3  10 42743.2 1963.50  38
  -1   3  10 48733.6 1680.62   7
  -1   3  11 56520.7 1781.80  40
  -1   3  11 54821.9 1994.42  38
  -1   3  12 62922.4 1873.28  38
  -1   3  12 67149.9 1760.55  40
  -1   3  13 46208.8 1259.40  40
  -1   3  13 43556.5 1262.20  38
  -1   3  14 5031.08 304.267  38
  -1   3  14 4840.82 261.107  52
  -1   3  14 5559.08 328.412  40
  -1   4 -13 109573. 1687.20  44
  -1   4 -13 111214. 1644.45  45
  -1   4 -12 1089.60 227.256  45
  -1   4 -12 1098.36 233.637  44
  -1   4 -11 122986. 2781.97  44
  -1   4 -11 120865. 2781.23  45
  -1   4 -10 17407.0 1177.41  44
  -1   4 -10 20811.7 1314.94  45
  -1   4  -9 52464.2 2149.68  32
  -1   4  -9 51700.3 2038.11  50
  -1   4  -8 59408.3 2228.57  34
  -1   4  -8 57972.8 1964.83  37
  -1   4  -8 67027.0 2558.12  32
  -1   4  -8 67409.4 2462.19  50
  -1   4  -7 14060.2 920.530  37
  -1   4  -7 11556.2 1078.18  32
  -1   4  -7 12422.9 1053.58  34
  -1   4  -7 12786.8 1119.84  50
  -1   4  -6 156693. 3921.75  50
  -1   4  -6 157723. 3862.90  32
  -1   4  -5 46921.9 1828.60  34
  -1   4  -5 44364.2 1880.23  32
  -1   4  -4 61109.4 1952.46  34
  -1   4  -4 62767.9 2247.92  50
  -1   4  -4 65118.7 2014.10  32
  -1   4  -3 208219. 3319.52  34
  -1   4  -3 204122. 3181.77  32
  -1   4  -2 633.679 189.983  32
  -1   4  -2 286.960 169.907  34
  -1   4  -2 288.190 187.109  50
  -1   4  -1 275698. 2886.37  36
  -1   4  -1 270999. 3420.64  34
  -1   4   0 259952. 3259.71  34
  -1   4   0 257680. 2981.01  36
  -1   4   0 276879. 3117.77  50
  -1   4   0 271746. 2848.93  32
  -1   4   1 32948.5 1169.54  36
  -1   4   1 35015.1 1063.07  50
  -1   4   1 33635.8 1475.02  33
  -1   4   2 25925.2 1121.33  36
  -1   4   2 25604.1 1281.20  33
  -1   4   2 29419.9 986.525  48
  -1   4   3 115634. 2553.49  36
  -1   4   3 117730. 2260.59  48
  -1   4   3 113824. 2762.95  33
  -1   4   4 254808. 3990.35  36
  -1   4   4 258659. 4450.25  33
  -1   4   4 256197. 3723.38  48
  -1   4   5 65492.2 2072.89  36
  -1   4   5 62188.0 2371.71  33
  -1   4   5 63257.7 1989.50  48
  -1   4   6 73067.4 2237.79  48
  -1   4   6 67888.3 2094.72  36
  -1   4   6 69721.1 2693.60  33
  -1   4   7 68090.5 2040.19  36
  -1   4   7 62796.4 2674.41  33
  -1   4   8 16046.3 1311.97  33
  -1   4   8 18104.8 1117.49  48
  -1   4   8 18489.7 1065.31   7
  -1   4   9 26588.7 1280.25  40
  -1   4   9 22715.4 1530.63  38
  -1   4  10 9060.61 721.315  40
  -1   4  10 8191.69 841.835  38
  -1   4  11 42532.7 1643.67  38
  -1   4  11 43762.7 1417.98  40
  -1   4  12 91413.5 1959.56  38
  -1   4  12 96843.1 1803.47  40
  -1   4  13 7420.45 414.343  38
  -1   4  13 7842.98 401.183  40
  -1   5 -12 50086.4 1242.13  44
  -1   5 -12 52687.1 1354.58  38
  -1   5 -11 3246.21 419.756  44
  -1   5 -10 47656.5 1821.42  44
  -1   5  -9 129524. 3344.19  44
  -1   5  -8 2618.74 578.603  44
  -1   5  -8 1941.36 436.090  34
  -1   5  -7 170070. 4250.52  44
  -1   5  -7 166445. 4118.30  50
  -1   5  -7 175807. 4246.77  34
  -1   5  -6 8872.96 965.846  34
  -1   5  -6 8510.05 930.209  32
  -1   5  -6 7646.31 939.278  50
  -1   5  -5 130495. 3643.90  50
  -1   5  -5 145067. 3497.15  32
  -1   5  -4 67367.3 2408.38  34
  -1   5  -4 67104.9 2159.43  32
  -1   5  -3 5008.22 641.342  34
  -1   5  -3 4995.65 630.317  50
  -1   5  -3 5735.75 592.017  32
  -1   5  -2 90597.0 2352.07  50
  -1   5  -2 88500.3 2089.03  32
  -1   5  -1 83290.0 2112.59  50
  -1   5  -1 83905.5 1917.69  36
  -1   5  -1 87741.8 1968.64  32
  -1   5   0 13165.9 812.560  50
  -1   5   0 12843.3 802.228  36
  -1   5   0 11421.7 857.876  34
  -1   5   0 12719.8 1075.70  33
  -1   5   1 129793. 2730.87  36
  -1   5   1 123572. 3322.26  33
  -1   5   2 83663.0 2360.55  36
  -1   5   2 87115.3 2734.10  33
  -1   5   3 165504. 3545.54  36
  -1   5   3 154304. 2378.01  13
  -1   5   3 147401. 3651.51  33
  -1   5   3 166931. 2886.19  48
  -1   5   4 5185.72 577.997  48
  -1   5   4 4920.71 678.310  36
  -1   5   4 5091.10 713.051  33
  -1   5   5 53508.5 2112.51  36
  -1   5   5 52863.2 1944.84  48
  -1   5   5 50392.0 2350.49  33
  -1   5   6 59938.8 2154.12  36
  -1   5   6 54192.1 2514.97  33
  -1   5   6 60499.9 2137.63  48
  -1   5   7 14883.8 1366.94  38
  -1   5   7 20785.1 1244.71  48
  -1   5   7 17014.9 1462.81  33
  -1   5   7 19957.2 1163.79  36
  -1   5   8 76320.3 2068.99  40
  -1   5   8 69872.4 2793.68  38
  -1   5   9 5375.06 514.683  40
  -1   5   9 4450.33 701.299  38
  -1   5  10 44241.6 1299.65  40
  -1   5  10 45637.5 1747.52  38
  -1   5  11 48070.4 1442.07  38
  -1   5  11 47386.3 1123.73  40
  -1   5  12 5990.92 373.423  38
  -1   6 -11 4431.26 366.130  44
  -1   6 -11 4920.79 397.079  38
  -1   6 -10 45507.6 1584.96  38
  -1   6 -10 44977.9 1469.72  44
  -1   6  -9 12220.7 980.515  38
  -1   6  -9 15081.4 1032.89  44
  -1   6  -8 18422.5 1309.57  38
  -1   6  -8 23222.0 1445.37  44
  -1   6  -7 76203.4 2737.90  34
  -1   6  -7 68559.4 2627.71  44
  -1   6  -7 72029.1 2668.53  38
  -1   6  -6 121052. 3375.82  38
  -1   6  -6 111583. 3452.82  34
  -1   6  -5 53395.3 2356.59  50
  -1   6  -5 70099.1 2469.89  38
  -1   6  -5 62753.2 2607.86  34
  -1   6  -5 65204.2 2435.55  44
  -1   6  -5 58657.6 2190.39  32
  -1   6  -4 7874.95 800.225  38
  -1   6  -4 6282.29 719.569  44
  -1   6  -4 5351.05 768.345  34
  -1   6  -4 5639.01 754.385  50
  -1   6  -4 5985.10 676.645  32
  -1   6  -3 88972.9 2995.38  34
  -1   6  -3 87482.4 2706.82  50
  -1   6  -3 89488.0 2382.07  32
  -1   6  -2 28734.5 1674.21  34
  -1   6  -2 30635.5 1506.90  50
  -1   6  -1 21147.6 1438.69  34
  -1   6  -1 24319.1 1258.92  50
  -1   6  -1 23650.3 1648.12  33
  -1   6   0 117112. 3608.93  33
  -1   6   0 117079. 2700.99  36
  -1   6   1 57.6752 113.527  33
  -1   6   1 214.881 171.824  36
  -1   6   2 43097.2 1879.67  36
  -1   6   2 40565.6 2097.12  33
  -1   6   3 68811.4 2772.21  33
  -1   6   3 61162.4 2361.55  36
  -1   6   4 144665. 3397.61  55
  -1   6   4 131818. 3761.25  38
  -1   6   4 138720. 3610.00  36
  -1   6   4 133370. 3947.67  33
  -1   6   5 30859.3 1925.78  38
  -1   6   5 35129.2 1665.62  55
  -1   6   5 36027.6 1781.77  36
  -1   6   5 37196.8 1412.44  13
  -1   6   6 5803.04 865.395  38
  -1   6   6 6528.23 717.427  36
  -1   6   6 6357.14 627.786  13
  -1   6   7 83940.6 3097.83  38
  -1   6   8 1871.76 445.353  38
  -1   6   9 49286.3 1790.71  38
  -1   6  10 58800.5 1511.11  38
  -1   7  -9 56058.9 1398.53  44
  -1   7  -9 56340.6 1520.80  38
  -1   7  -8 27803.1 1238.90  44
  -1   7  -8 25531.0 1269.56  38
  -1   7  -7 8702.26 798.826  44
  -1   7  -7 7750.10 792.598  38
  -1   7  -6 10780.5 950.813  44
  -1   7  -6 11258.6 988.590  38
  -1   7  -6 12791.4 952.525  55
  -1   7  -5 4266.67 572.924  44
  -1   7  -5 3878.94 650.549  55
  -1   7  -5 5108.27 689.646  38
  -1   7  -4 73309.5 2465.86  38
  -1   7  -4 68666.1 2154.62  44
  -1   7  -3 45740.1 2182.31  55
  -1   7  -3 51401.9 2039.30  38
  -1   7  -2 20905.9 1309.37  38
  -1   7  -2 19098.2 1405.13  55
  -1   7  -1 95524.6 2781.56  38
  -1   7  -1 92240.9 2942.23  55
  -1   7   0 1435.95 417.021  55
  -1   7   0 1555.76 438.675  38
  -1   7   1 54670.5 2204.64  38
  -1   7   1 47933.3 1845.42  36
  -1   7   1 54463.3 2161.36  55
  -1   7   2 4423.61 690.370  38
  -1   7   2 3645.07 615.710  55
  -1   7   2 2797.71 542.563  36
  -1   7   3 8722.53 852.349  55
  -1   7   3 8298.64 931.926  38
  -1   7   4 75229.5 2852.49  38
  -1   7   4 79602.0 2438.91  55
  -1   7   5 32044.7 1471.10  55
  -1   7   5 31321.9 1844.99  38
  -1   7   6 59793.9 2401.69  38
  -1   7   7 15929.7 1112.96  38
  -1   7   8 41237.6 1381.97  38
  -1   8  -7 69308.8 1521.44  38
  -1   8  -6 15140.3 881.165  38
  -1   8  -6 15072.2 673.372  44
  -1   8  -5 60145.2 1901.00  38
  -1   8  -5 76246.9 1893.47  55
  -1   8  -4 45573.1 1733.10  38
  -1   8  -4 46557.7 1797.95  55
  -1   8  -3 27445.4 1373.19  38
  -1   8  -3 25914.3 1455.97  55
  -1   8  -2 74937.2 2263.33  38
  -1   8  -2 77278.7 2547.18  55
  -1   8  -1 64.1710 228.486  55
  -1   8  -1-357.398 283.456  38
  -1   8   0 74822.9 2333.29  38
  -1   8   0 78430.7 2434.51  55
  -1   8   1 19947.7 1248.58  38
  -1   8   1 20760.9 1202.05  55
  -1   8   2 13557.1 1050.19  38
  -1   8   2 16055.5 999.929  55
  -1   8   3 66407.1 1876.75  55
  -1   8   3 63370.7 2196.61  38
  -1   8   4 2985.18 378.345  55
  -1   8   4 2978.44 488.785  38
  -1   8   5 15596.5 638.343  55
  -1   8   5 16571.8 948.659  38
  -1   8   6 25824.4 897.671  38
   0  -8  -5 35700.5 907.561  20
   0  -8  -4 5482.27 457.832  20
   0  -8  -4 5120.91 492.916  56
   0  -8  -3 22456.8 983.452  20
   0  -8  -3 23089.8 1150.74  56
   0  -8  -2 70867.2 2185.89  56
   0  -8  -2 71418.4 1787.39  20
   0  -8  -1 13327.2 1032.89  56
   0  -8  -1 13548.7 798.172  20
   0  -8   0 83959.2 1931.48  41
   0  -8   0 85657.5 1967.32  20
   0  -8   0 88907.8 2782.47  56
   0  -8   1 21953.3 1438.15  56
   0  -8   1 22932.5 1097.62  41
   0  -8   1 21423.3 1045.67  26
   0  -8   1 22527.3 1011.50  20
   0  -8   2 47676.3 1665.63  41
   0  -8   2 46224.1 1690.10  26
   0  -8   2 44536.1 2005.99  56
   0  -8   2 44110.9 1384.31  20
   0  -8   3 46524.0 1699.67  41
   0  -8   3 50267.0 1868.46  56
   0  -8   3 50597.8 1771.46  26
   0  -8   4 299.782 189.844  41
   0  -8   4 19.0498 67.5665  26
   0  -8   5 25248.8 1166.39  41
   0  -8   5 30811.8 1117.03  26
   0  -8   6 31905.4 1096.34  41
   0  -8   6 30077.5 896.818  26
   0  -7  -8 27622.2 819.862  39
   0  -7  -8 27448.3 805.118  20
   0  -7  -7 110.476 138.731  20
   0  -7  -7 185.986 159.085  39
   0  -7  -6 61159.4 1873.60  20
   0  -7  -6 54973.8 1721.17  39
   0  -7  -6 60187.7 1801.72  56
   0  -7  -5 12312.9 972.018  56
   0  -7  -5 11204.0 862.323  39
   0  -7  -5 10691.9 869.200  20
   0  -7  -4 54941.7 2141.16  56
   0  -7  -4 56292.3 1957.54  20
   0  -7  -4 56559.9 2071.78  39
   0  -7  -3 43387.7 1967.70  56
   0  -7  -3 45737.4 1988.78  39
   0  -7  -3 44268.2 1711.24  20
   0  -7  -2 1059.73 403.115  56
   0  -7  -2 586.213 223.221  20
   0  -7  -1 79683.7 2779.84  56
   0  -7  -1 78846.1 2249.56  41
   0  -7  -1 78023.8 2165.54  20
   0  -7   0 8765.65 792.733  41
   0  -7   0 8570.24 984.357  56
   0  -7   0 8919.56 732.364  20
   0  -7   1 29964.2 1506.20  41
   0  -7   1 29476.7 1826.24  56
   0  -7   1 29961.0 1295.62  20
   0  -7   2 112546. 3622.59  56
   0  -7   2 119075. 2586.55  20
   0  -7   3 1552.83 433.507  56
   0  -7   3 1268.75 352.435  41
   0  -7   3 1964.99 351.694  20
   0  -7   4 49042.6 2149.40  41
   0  -7   4 51576.9 1688.87  20
   0  -7   5 38003.5 1618.66  53
   0  -7   5 37772.5 1668.73  26
   0  -7   5 34135.2 1351.24  20
   0  -7   6 46894.0 1981.89  41
   0  -7   6 48077.3 1858.97  53
   0  -7   6 51927.0 1731.30  26
   0  -7   7 6656.07 669.133  41
   0  -7   7 5025.00 611.424  53
   0  -7   7 5705.64 517.263  26
   0  -7   8 184.613 96.3367  41
   0  -7   8 170.710 139.302  26
   0  -7   8 232.009 187.536  53
   0  -7   9 30857.3 1011.49  53
   0  -6 -10 6346.65 370.266  39
   0  -6  -9 56198.3 1515.80  20
   0  -6  -9 56434.6 1530.60  39
   0  -6  -8 1571.04 359.814  39
   0  -6  -8 1778.03 341.323  20
   0  -6  -8 1382.86 243.614  15
   0  -6  -7 68384.2 2265.46  39
   0  -6  -7 66512.4 2247.99  20
   0  -6  -6 68790.7 2427.82  39
   0  -6  -6 64379.6 2316.79  56
   0  -6  -6 64626.5 2306.10  20
   0  -6  -5 47742.8 2104.72  39
   0  -6  -5 48925.0 1718.22  14
   0  -6  -5 53761.1 2076.04  20
   0  -6  -5 49675.2 2121.58  56
   0  -6  -4 125929. 3379.29  56
   0  -6  -4 111319. 3235.06  39
   0  -6  -4 113020. 2554.96  14
   0  -6  -4 126629. 3074.04  20
   0  -6  -3 4115.30 681.686  39
   0  -6  -3 5546.00 725.145  56
   0  -6  -3 5027.77 603.812  20
   0  -6  -3 4503.66 494.475  14
   0  -6  -2 98122.8 2194.20  14
   0  -6  -1 85936.8 2978.04  30
   0  -6  -1 81846.0 2252.71  31
   0  -6  -1 85249.7 1996.82  14
   0  -6   0 6100.79 647.736  31
   0  -6   0 5318.39 491.162  14
   0  -6   1 116479. 2137.58  14
   0  -6   1 118887. 3344.50  30
   0  -6   2 6003.98 496.713  14
   0  -6   2 5793.13 748.535  30
   0  -6   2 5935.08 707.755  31
   0  -6   3 108189. 3068.14  30
   0  -6   3 103220. 3111.46  31
   0  -6   4 65097.4 2560.66  41
   0  -6   4 62280.0 2295.78  30
   0  -6   4 66859.7 2271.03  53
   0  -6   4 70247.9 2013.95  20
   0  -6   5 9389.58 1061.55  41
   0  -6   5 11566.0 866.193  20
   0  -6   5 8118.47 950.334  31
   0  -6   5 11414.4 1071.69  53
   0  -6   6 67370.1 2606.56  53
   0  -6   6 68349.1 2069.57  20
   0  -6   7 609.197 362.240  53
   0  -6   7 1708.42 345.461  25
   0  -6   7 1204.17 431.512  41
   0  -6   7 1268.90 340.445  26
   0  -6   8 94259.8 2021.30  25
   0  -6   8 97260.1 2567.48  41
   0  -6   8 80975.2 2721.97  53
   0  -6   8 77304.2 1971.94  26
   0  -6   9 4628.68 424.470  25
   0  -6   9 6384.72 713.888  53
   0  -6  10 12159.5 574.008  25
   0  -6  10 12741.6 788.889  53
   0  -6  11 45875.0 1121.53  53
   0  -6  11 42837.2 862.873  25
   0  -5 -11 8273.40 492.598  54
   0  -5 -11 7803.03 428.725  39
   0  -5 -10 48529.9 1469.91  39
   0  -5 -10 51545.2 1546.61  20
   0  -5 -10 47676.2 1436.29  54
   0  -5 -10 49922.6 1453.66  15
   0  -5  -9 76301.2 2046.41  54
   0  -5  -9 81597.0 2077.29  15
   0  -5  -9 81383.0 2281.87  39
   0  -5  -9 82027.9 2282.70  20
   0  -5  -8 54041.0 2079.15  39
   0  -5  -8 48745.5 1951.88  20
   0  -5  -8 52334.2 1772.62  15
   0  -5  -7 60405.4 2313.71  39
   0  -5  -7 58701.4 1946.39  15
   0  -5  -7 53322.1 2011.49  37
   0  -5  -7 53593.3 2103.26  20
   0  -5  -6 60745.6 2347.62  39
   0  -5  -6 56618.6 2073.56  37
   0  -5  -6 55294.9 2187.99  49
   0  -5  -6 60372.7 2168.95  20
   0  -5  -5 165664. 3321.21  37
   0  -5  -5 155427. 3734.23  49
   0  -5  -4 1349.51 306.784  37
   0  -5  -4 1433.90 410.695  49
   0  -5  -3 33656.4 1257.95  37
   0  -5  -3 33399.9 1232.74  14
   0  -5  -3 33920.4 1801.25  49
   0  -5  -2 109021. 2315.54  31
   0  -5  -2 108018. 3013.45  30
   0  -5  -2 100986. 2027.98  37
   0  -5  -2 106418. 2112.45  14
   0  -5  -1 560.758 184.413  14
   0  -5  -1 701.590 174.937  37
   0  -5  -1 674.051 302.601  30
   0  -5   0 194645. 3254.86  31
   0  -5   0 194516. 3823.73  30
   0  -5   1 73783.2 2127.04  31
   0  -5   1 75561.7 1673.87  14
   0  -5   1 74468.7 2315.54  30
   0  -5   2 212484. 3857.74  30
   0  -5   2 224451. 2742.54  14
   0  -5   2 214414. 3871.52  31
   0  -5   3 153803. 3531.99  31
   0  -5   3 156111. 2260.00  14
   0  -5   3 152341. 3280.57  30
   0  -5   4 1649.16 237.471  14
   0  -5   4 1813.89 405.352  30
   0  -5   5 39121.7 1753.52  30
   0  -5   5 31643.0 1736.46  31
   0  -5   6-100.834 211.183  30
   0  -5   6 382.620 263.838  31
   0  -5   7 11072.5 1054.16  41
   0  -5   7 10522.3 935.911  30
   0  -5   7 9228.78 1044.81  53
   0  -5   8 108413. 3379.38  53
   0  -5   8 132565. 2600.68  25
   0  -5   9 50025.4 1515.88  25
   0  -5   9 47294.6 2076.34  53
   0  -5  10 85143.3 1839.16  25
   0  -5  10 87839.9 2475.00  53
   0  -5  11 372.912 171.478  53
   0  -5  11 89.6170 121.478  25
   0  -5  12 48267.2 1108.98  43
   0  -5  12 49505.7 1172.88  53
   0  -4 -13 28465.1 681.348  15
   0  -4 -12 18478.6 850.964  54
   0  -4 -12 19280.3 792.629  15
   0  -4 -11 86730.2 2178.98  54
   0  -4 -11 85123.4 1984.25  15
   0  -4 -10 5331.41 631.082  54
   0  -4 -10 4269.95 510.602  15
   0  -4 -10 5167.93 553.171  39
   0  -4 -10 4932.40 562.338  20
   0  -4  -9 72197.5 2260.11  39
   0  -4  -9 76159.2 2434.96  54
   0  -4  -9 65605.2 2107.32  37
   0  -4  -9 69072.8 2121.82  15
   0  -4  -9 64559.8 2182.80  20
   0  -4  -8 46614.2 1948.82  54
   0  -4  -8 44235.6 1869.92  39
   0  -4  -8 46228.1 1881.04  37
   0  -4  -8 41413.1 1821.32  20
   0  -4  -8 39387.1 1776.46  49
   0  -4  -8 44656.7 1745.13  15
   0  -4  -7 21979.2 1323.02  37
   0  -4  -7 20588.0 1301.82  49
   0  -4  -6 243847. 4862.93   5
   0  -4  -6 249731. 4309.10  37
   0  -4  -5 6927.73 669.418  37
   0  -4  -5 6162.67 727.342  49
   0  -4  -5 7242.98 771.354   5
   0  -4  -4 136834. 3124.64   5
   0  -4  -4 135539. 2587.87  37
   0  -4  -3 70240.6 2224.70  49
   0  -4  -3 75103.4 2139.85  30
   0  -4  -3 73478.8 1676.48  37
   0  -4  -3 71518.7 2113.68   5
   0  -4  -2 147534. 2286.07  31
   0  -4  -2 147019. 2896.79  30
   0  -4  -2 138598. 2084.15  37
   0  -4  -2 140033. 3054.98  49
   0  -4  -1 69526.3 1410.28  14
   0  -4  -1 74102.4 1968.09  30
   0  -4  -1 67248.8 1367.62  37
   0  -4  -1 72208.4 1612.48  31
   0  -4  -1 76596.4 2226.24  49
   0  -4   0 3831.23 459.011  30
   0  -4   0 4758.13 372.291  14
   0  -4   0 4608.88 350.564  37
   0  -4   0 4651.32 441.656  31
   0  -4   0 4371.13 561.682  49
   0  -4   1 168495. 2150.06  14
   0  -4   1 171774. 2088.80  37
   0  -4   1 170832. 2756.18  31
   0  -4   2 51008.8 1584.48  30
   0  -4   2 48753.9 1115.12  14
   0  -4   2 53297.3 1666.45  31
   0  -4   3 31269.4 1278.26  30
   0  -4   3 29337.4 1353.31  31
   0  -4   3 29653.1 840.049  14
   0  -4   4 109863. 2496.72  30
   0  -4   4 105342. 1644.18  14
   0  -4   5 17298.3 1044.06  30
   0  -4   5 14474.9 1065.79  31
   0  -4   6 106458. 2721.35  30
   0  -4   6 108108. 2786.19  31
   0  -4   7 59135.6 2094.82  30
   0  -4   7 62702.0 2550.56  33
   0  -4   8 90583.6 3226.92  33
   0  -4   8 104863. 2718.52  30
   0  -4   9 14585.8 2117.65  27
   0  -4   9 27858.0 1146.15  25
   0  -4   9 24003.3 1483.32  53
   0  -4   9 20904.9 1551.49  33
   0  -4   9 17988.0 1219.12  43
   0  -4  10 1591.66 852.336  27
   0  -4  10 889.150 377.751  53
   0  -4  10 750.473 200.215  25
   0  -4  10 695.717 299.922  43
   0  -4  11 51488.1 1415.68  25
   0  -4  11 48795.5 1737.53  43
   0  -4  11 52747.5 1777.45  53
   0  -4  12 18978.2 933.242  43
   0  -4  12 19062.1 761.140  25
   0  -4  12 19523.6 885.916  53
   0  -4  13 10281.3 435.254  25
   0  -4  13 11957.0 599.308  43
   0  -3 -13 4313.68 357.247  15
   0  -3 -13 4132.29 417.719  54
   0  -3 -12 100201. 2087.00  15
   0  -3 -12 107955. 2428.68  54
   0  -3 -11 24347.8 1177.35  15
   0  -3 -11 23725.5 1298.93  54
   0  -3 -10 35313.5 1466.18  37
   0  -3 -10 39448.0 1593.73  15
   0  -3 -10 40831.6 1813.86  54
   0  -3 -10 40518.0 1644.94  20
   0  -3  -9 75415.9 2223.80  37
   0  -3  -9 69760.0 2191.02  49
   0  -3  -8 9292.72 813.430  49
   0  -3  -8 10898.1 867.653  37
   0  -3  -7 32552.5 1508.07  49
   0  -3  -7 31491.6 1793.18   5
   0  -3  -7 33408.6 1511.11  37
   0  -3  -6 2604.31 524.456   5
   0  -3  -6 3615.10 477.243  37
   0  -3  -6 3590.14 496.608  49
   0  -3  -5 175882. 3520.13   5
   0  -3  -5 181091. 3298.26  49
   0  -3  -4 126725. 2355.89  30
   0  -3  -4 139095. 2339.62  37
   0  -3  -4 120216. 2591.90   5
   0  -3  -4 137655. 2713.32  49
   0  -3  -3 7385.40 555.701  30
   0  -3  -3 8611.00 510.526  37
   0  -3  -3 7594.58 592.510   5
   0  -3  -3 8361.72 640.142  49
   0  -3  -2 391752. 3744.98  30
   0  -3  -2 401444. 4001.60   5
   0  -3  -2 360802. 2913.98  37
   0  -3  -2 432563. 3129.34  31
   0  -3  -2 399569. 4048.52  49
   0  -3  -1 14279.6 732.814  49
   0  -3  -1 13425.1 665.608  30
   0  -3  -1 13555.3 519.643  37
   0  -3  -1 14842.8 604.424  31
   0  -3  -1 14840.4 743.956   5
   0  -3   0 377832. 3406.65  30
   0  -3   0 411154. 3295.88  31
   0  -3   0 374037. 2599.30  14
   0  -3   0 401333. 3651.24  49
   0  -3   1 62021.1 1371.21  31
   0  -3   1 58488.8 1024.23  14
   0  -3   2 93068.9 1854.19  31
   0  -3   2 86621.8 1238.41  14
   0  -3   3 78255.3 1865.35  31
   0  -3   3 78644.0 1698.02  30
   0  -3   3 79530.7 1158.54  14
   0  -3   4 33487.2 802.935  14
   0  -3   4 31899.1 1162.12  30
   0  -3   4 31356.3 1270.81  35
   0  -3   4 34360.5 1216.96  33
   0  -3   5 60033.0 1706.77  30
   0  -3   5 61761.5 1829.26  35
   0  -3   5 62912.3 1848.57  33
   0  -3   6 44728.5 1535.42  31
   0  -3   6 42500.1 1543.53  30
   0  -3   6 41830.4 1724.82  33
   0  -3   6 44165.9 1584.64  35
   0  -3   7 108596. 2527.41  30
   0  -3   7 96240.8 2896.63  33
   0  -3   8 396937. 4796.86  30
   0  -3   8 404115. 4863.87  35
   0  -3   9 34088.9 1414.75  35
   0  -3   9 35566.1 1894.55  33
   0  -3  10 84826.1 2500.43  43
   0  -3  10 97634.3 2039.96  25
   0  -3  10 72806.2 4601.71  27
   0  -3  10 81393.1 2148.18  35
   0  -3  10 87308.5 2810.89  33
   0  -3  10 91936.6 2527.56  53
   0  -3  11 12877.1 949.023  43
   0  -3  11 13557.9 1964.28  27
   0  -3  11 13004.0 737.623  25
   0  -3  11 11483.8 774.275  35
   0  -3  12 18386.6 2242.74  27
   0  -3  12 15478.2 930.181  43
   0  -3  12 16633.1 752.650  25
   0  -3  13 88067.0 1897.23  43
   0  -3  13 89695.0 3883.88  27
   0  -3  14 1167.14 182.115  43
   0  -2 -14 5248.96 377.699  54
   0  -2 -14 5137.52 306.598  15
   0  -2 -13 110112. 1978.21  15
   0  -2 -13 106306. 2012.87  45
   0  -2 -12 10815.1 792.967  45
   0  -2 -12 12026.5 782.989  15
   0  -2 -12 12658.5 920.418  54
   0  -2 -11 20782.8 1070.87  37
   0  -2 -11 20857.5 1270.38  54
   0  -2 -10 27871.2 1348.66  20
   0  -2 -10 27543.4 1278.17  37
   0  -2 -10 29977.3 1381.55  15
   0  -2 -10 29954.3 1562.32  54
   0  -2  -9 1031.05 288.902  37
   0  -2  -8 8150.71 839.333   5
   0  -2  -8 8913.54 729.125  37
   0  -2  -8 9237.16 768.474  49
   0  -2  -7 95815.7 2755.58   5
   0  -2  -7 94381.8 2307.51  49
   0  -2  -7 88502.9 2207.32  37
   0  -2  -6 81492.4 2363.27   5
   0  -2  -6 79417.8 1987.07  37
   0  -2  -5 139421. 2438.99  37
   0  -2  -5 140565. 2734.65   5
   0  -2  -5 132898. 2451.94  49
   0  -2  -4 5574.32 415.779  30
   0  -2  -4 6672.72 474.961  37
   0  -2  -4 6768.91 535.339   5
   0  -2  -3 19945.3 698.149  30
   0  -2  -3 20995.1 807.970  49
   0  -2  -2 191865. 2237.54   5
   0  -2  -2 238347. 2429.39  49
   0  -2  -1 16414.3 326.594   2
   0  -2   2 265768. 2387.36  30
   0  -2   2 276235. 2567.26  31
   0  -2   3 41407.1 1113.29  31
   0  -2   3 39880.9 977.417   4
   0  -2   3 40330.6 1011.79  30
   0  -2   4 53827.0 1396.87  33
   0  -2   4 51938.1 1259.76  30
   0  -2   5 101242. 1929.24  31
   0  -2   5 105482. 2258.72  35
   0  -2   5 100107. 2226.80  33
   0  -2   6 3208.31 475.318  33
   0  -2   6 2787.80 356.777  30
   0  -2   7 168071. 3000.11  35
   0  -2   7 152703. 2572.71  30
   0  -2   8 3633.47 464.012  35
   0  -2   8 1984.52 453.870  33
   0  -2   9 21460.4 1139.95  35
   0  -2   9 23572.4 1459.99  33
   0  -2  10 102382. 2977.65  33
   0  -2  10 85934.1 2291.47  35
   0  -2  11 39178.0 1521.39  40
   0  -2  11 34576.5 3127.60  27
   0  -2  11 42397.1 1680.85  43
   0  -2  11 37224.3 1485.57  35
   0  -2  12 112338. 2383.52  40
   0  -2  12 119176. 2614.57  43
   0  -2  12 114048. 5412.58  27
   0  -2  13 1792.26 321.464  43
   0  -2  13 1483.65 255.525  40
   0  -2  13 1392.97 849.319  27
   0  -2  14 93447.7 1684.96  43
   0  -2  14 67623.3 3204.18  27
   0  -1 -14 109652. 1860.90  45
   0  -1 -14 114905. 1847.65  54
   0  -1 -13 37113.8 1184.29  15
   0  -1 -13 39718.1 1419.40  54
   0  -1 -13 38294.5 1426.13  45
   0  -1 -12 69130.9 2192.34  45
   0  -1 -12 66101.0 1848.47  15
   0  -1 -11 45903.8 1908.82  45
   0  -1 -11 44145.8 1557.11  37
   0  -1 -11 49459.1 1704.31  15
   0  -1 -11 51556.4 1973.16  54
   0  -1 -10 22537.8 1121.94  37
   0  -1  -9 36287.2 1576.29   5
   0  -1  -9 35893.1 1375.94  37
   0  -1  -8 5581.34 527.746  37
   0  -1  -8 4014.04 523.002   5
   0  -1  -7 62187.6 1664.26  37
   0  -1  -7 65602.1 1770.18  32
   0  -1  -7 62337.2 1653.09  49
   0  -1  -7 60105.7 1781.67   5
   0  -1  -6 152890. 2445.12  37
   0  -1  -6 151436. 2419.85  49
   0  -1  -6 153050. 2668.40   5
   0  -1  -5 119520. 2156.59   5
   0  -1  -5 116774. 1975.98  49
   0  -1  -4 283837. 1312.45  29
   0  -1  -4 292382. 2941.36   5
   0  -1  -3 56184.5 593.302  29
   0  -1  -2 408874. 1413.97  47
   0  -1  -1 192317. 656.184   2
   0  -1   3 166294. 1738.44   4
   0  -1   3 147641. 639.320   1
   0  -1   4 73772.1 1591.59  33
   0  -1   4 74837.6 1349.90   4
   0  -1   4 84708.0 1408.61  30
   0  -1   4 84947.8 740.543   1
   0  -1   5 334.103 140.255   4
   0  -1   5 352.400 118.878  30
   0  -1   5 262.826 107.312  29
   0  -1   5 402.958 195.734  35
   0  -1   5 249.627 181.252  33
   0  -1   6 141206. 2866.01  33
   0  -1   6 158274. 2131.46  30
   0  -1   7 29691.0 1232.59  35
   0  -1   7 27116.1 1350.92  33
   0  -1   8 184482. 3191.31  35
   0  -1   8 195533. 3808.60  33
   0  -1   9 72740.0 2080.28  35
   0  -1   9 72064.7 2380.62  33
   0  -1  10 2332.34 494.713  33
   0  -1  10 1772.44 347.670  35
   0  -1  11 61646.4 1950.89  43
   0  -1  11 59581.6 2027.84  38
   0  -1  11 61724.5 1945.63  35
   0  -1  11 63463.8 2156.36  33
   0  -1  12 3401.87 472.025  43
   0  -1  12 3525.28 461.719  40
   0  -1  12 5140.15 1103.18  27
   0  -1  12 4537.05 513.855  35
   0  -1  13 72286.3 1833.42  40
   0  -1  13 76022.0 1851.95  43
   0  -1  14 24961.5 888.429  40
   0  -1  14 25721.5 891.502  43
   0   0 -14 10097.5 466.479  17
   0   0 -14 12685.2 721.485  45
   0   0 -13 75611.2 2176.25  45
   0   0 -12 136416. 3230.43  45
   0   0 -12 113417. 2289.82  37
   0   0 -11 3471.52 421.395  37
   0   0 -11 4001.75 609.150  45
   0   0 -10 165850. 2937.74  37
   0   0 -10 153654. 3039.09   5
   0   0  -9 7234.59 618.026  37
   0   0  -9 6752.75 615.223   5
   0   0  -8 162190. 2839.49   5
   0   0  -8 162741. 2854.47  32
   0   0  -7 194369. 2970.01  32
   0   0  -7 195887. 2790.97  37
   0   0  -6 169284. 2605.16  32
   0   0  -6 164860. 2449.25  37
   0   0  -5 164312. 2220.10  50
   0   0  -5 179445. 2528.16  32
   0   0  -4 1746.66 290.446   3
   0   0  -3 221309. 2601.61   3
   0   0  -2 497549. 3358.44   3
   0   0  -1 20119.3 490.709   3
   0   0   2 341902. 1650.25  29
   0   0   3 146289. 1259.75  29
   0   0   4 1322.55 133.729  29
   0   0   4 1265.27 259.354  33
   0   0   5 172328. 2021.01  48
   0   0   5 177962. 2533.33  35
   0   0   6 174021. 2915.46  33
   0   0   6 178302. 2719.71  35
   0   0   6 178008. 2195.97  48
   0   0   7 195787. 3026.23  35
   0   0   7 190440. 3267.36  33
   0   0   8 163069. 3174.43  33
   0   0   8 150941. 2823.79  35
   0   0   9 7157.27 636.540  35
   0   0   9 7185.30 717.229  33
   0   0  10 173865. 3499.80  33
   0   0  10 170089. 2900.69   7
   0   0  10 166876. 3162.40  35
   0   0  11 3283.71 445.360  43
   0   0  11 4355.34 510.326  40
   0   0  11 3705.92 512.107  38
   0   0  11 2674.67 787.938  27
   0   0  11 3105.59 440.956  35
   0   0  12 110021. 2359.55  43
   0   0  12 114136. 2705.51  38
   0   0  12 108332. 2389.38  35
   0   0  12 105576. 2453.93  40
   0   0  13 66980.5 1636.88  43
   0   0  13 66858.8 1804.54  40
   0   0  14 11300.6 638.900  40
   0   0  14 5397.09 842.804  27
   0   0  15 31719.3 719.349  40
   0   1 -15 7512.79 387.893  45
   0   1 -14 29421.3 1148.55  45
   0   1 -13 93153.8 2475.76  45
   0   1 -12 5723.73 705.060  45
   0   1 -11 61228.2 1920.65   5
   0   1 -11 59553.8 1700.63  37
   0   1 -10 1830.10 335.415  37
   0   1 -10 2221.63 403.434   5
   0   1  -9 66724.3 1822.86  37
   0   1  -9 68285.3 2028.56  32
   0   1  -8 185939. 2969.46  37
   0   1  -8 176518. 3147.73  32
   0   1  -7 26885.0 1085.40  37
   0   1  -7 30119.6 1245.02  32
   0   1  -7 29001.0 1155.12  50
   0   1  -6 166483. 2509.28  37
   0   1  -6 172338. 2693.33  50
   0   1  -5 287.462 164.810  32
   0   1  -5 501.778 215.659   6
   0   1  -4 75996.8 1618.57  32
   0   1  -4 80475.7 1587.62   6
   0   1  -4 79270.6 1666.54  50
   0   1  -2 17065.1 465.600   4
   0   1  -1 436853. 1950.72   4
   0   1   0 138847. 1001.39   4
   0   1   1 204235. 742.511  47
   0   1   2 270905. 2448.58   3
   0   1   3 53593.8 1060.11   3
   0   1   4 312094. 2956.06   3
   0   1   4 309832. 2916.71  48
   0   1   5 114776. 2324.69  33
   0   1   5 113619. 1860.70  35
   0   1   6 146173. 2382.08  35
   0   1   6 150777. 2803.93  33
   0   1   7 61642.5 1676.73  35
   0   1   7 61557.4 1579.59  48
   0   1   7 61079.5 1849.25  33
   0   1   8 4155.88 529.681  33
   0   1   8 4958.08 453.506  48
   0   1   9 36486.5 1429.03  35
   0   1   9 36707.9 1545.09  33
   0   1  10 24878.6 1191.32   7
   0   1  10 23447.8 1169.19  35
   0   1  11 40486.5 1696.62  38
   0   1  11 38771.5 1513.58  40
   0   1  11 41858.4 1504.01  35
   0   1  11 42437.3 1532.47   7
   0   1  12 57510.9 1795.32  40
   0   1  12 61127.6 1972.02  38
   0   1  13 31485.0 1220.65  40
   0   1  13 30587.5 1036.80  52
   0   1  14 107569. 1871.80  40
   0   1  14 27862.8 1680.23  27
   0   2 -14 99862.7 2005.05  45
   0   2 -13 1474.22 357.957  45
   0   2 -12 147816. 3362.28  45
   0   2 -11 48307.2 2036.93  45
   0   2 -10 97531.8 2559.16  32
   0   2  -9 23382.2 1267.53  32
   0   2  -9 21909.2 1070.77  37
   0   2  -8 2087.93 369.089  34
   0   2  -8 2129.32 356.147  37
   0   2  -8 2505.46 440.952  32
   0   2  -8 2234.38 383.152  50
   0   2  -7 155799. 2719.64  37
   0   2  -7 152272. 2971.78  34
   0   2  -6 3117.48 491.976   6
   0   2  -6 3398.24 377.268  37
   0   2  -6 3041.78 419.197  34
   0   2  -6 3769.06 492.065  50
   0   2  -6 2848.24 426.624  32
   0   2  -5 86354.0 2113.15  32
   0   2  -5 90707.9 2192.70  50
   0   2  -4 49450.9 1437.93  32
   0   2  -4 49565.2 1313.83  34
   0   2  -4 48398.8 1500.54  50
   0   2  -3 46698.8 1047.30   4
   0   2  -3 46130.1 1188.84  32
   0   2  -3 43724.7 1283.00  50
   0   2  -2 298908. 2593.69  32
   0   2  -2 294919. 2389.66   4
   0   2  -1 107619. 1330.70   4
   0   2   0 662151. 3191.39   4
   0   2   1 16019.8 299.937  47
   0   2   2 266198. 2735.53  33
   0   2   2 249810. 2203.36  48
   0   2   3 23769.3 910.916  33
   0   2   3 20883.0 648.066  32
   0   2   4 6735.39 480.519  36
   0   2   4 7860.81 614.726  33
   0   2   5 139201. 2231.60  36
   0   2   5 145342. 2961.01  33
   0   2   6 76617.6 1708.34  35
   0   2   6 79961.4 1978.82  48
   0   2   7 92452.3 2057.15  35
   0   2   7 96515.3 2248.48  48
   0   2   8 8630.76 709.832  48
   0   2   8 8258.08 770.000  33
   0   2   9 1042.45 303.362   7
   0   2   9 1251.97 286.875  48
   0   2  10 23773.4 1174.41  40
   0   2  10 24461.2 1451.10  38
   0   2  11 17742.5 1014.72  40
   0   2  11 20957.8 1259.20  38
   0   2  12 11412.3 777.872  40
   0   2  12 10646.2 827.102  38
   0   2  13 102603. 2054.68  40
   0   2  13 107722. 2198.68  38
   0   2  14 4687.48 303.353  52
   0   2  14 4864.55 363.366  40
   0   2  14 5134.06 377.109  38
   0   3 -14 1439.36 223.802  45
   0   3 -14 1269.53 166.799  17
   0   3 -13 104011. 2277.58  45
   0   3 -12 19353.3 988.133  44
   0   3 -12 18527.4 1131.48  45
   0   3 -11 12551.6 905.952  44
   0   3 -11 14409.5 1113.57  45
   0   3 -10 94274.5 2597.33  44
   0   3 -10 87970.2 2514.87  32
   0   3  -9 36895.5 1603.02  34
   0   3  -9 37497.6 1727.22  32
   0   3  -8 405904. 5702.50  32
   0   3  -8 392766. 5393.39  34
   0   3  -7 127385. 3002.62  34
   0   3  -7 131758. 3453.74   6
   0   3  -7 135612. 3154.92  50
   0   3  -6 36703.2 1641.72  50
   0   3  -6 33539.8 1571.13  32
   0   3  -5 56417.6 1791.07  34
   0   3  -5 52222.0 1826.23  32
   0   3  -4 31340.5 1231.30  34
   0   3  -4 30107.7 1338.21  50
   0   3  -3 86607.6 2046.63  50
   0   3  -3 86945.9 1856.53  32
   0   3  -2 100327. 1967.39  50
   0   3  -2 96454.1 1749.36  32
   0   3  -1 64171.8 1413.96  50
   0   3  -1 68123.1 1346.35  32
   0   3   0 411263. 3197.07  36
   0   3   0 407124. 2576.73  48
   0   3   0 436504. 3482.82  50
   0   3   0 437354. 3299.60  32
   0   3   1 15304.8 671.815  36
   0   3   1 16599.1 677.759  50
   0   3   1 15421.8 615.399  32
   0   3   1 14735.1 557.321  48
   0   3   2 428714. 3923.79  36
   0   3   2 420566. 4291.75  33
   0   3   2 428355. 3232.08  32
   0   3   2 421615. 3343.39  48
   0   3   3 9171.31 645.560  36
   0   3   3 9881.13 510.608  50
   0   3   3 10479.2 710.773  33
   0   3   3 9131.06 497.677  32
   0   3   3 9155.98 579.865  48
   0   3   4 146436. 2692.98  36
   0   3   4 156244. 2642.46  48
   0   3   5 208286. 3303.10  36
   0   3   5 211639. 3920.73  33
   0   3   5 204081. 3327.33  48
   0   3   6 4603.90 512.897  36
   0   3   6 3248.96 544.265  33
   0   3   6 4122.07 522.071  48
   0   3   7 32236.0 1722.60  33
   0   3   7 35161.1 1470.93   7
   0   3   7 37322.1 1576.31  48
   0   3   8 11538.0 894.601   7
   0   3   8 10653.3 858.370  48
   0   3   9 81018.5 2321.12   7
   0   3   9 74343.5 2148.57  48
   0   3  10 34373.7 1372.90  40
   0   3  10 33391.3 1720.37  38
   0   3  11 18930.7 978.023  40
   0   3  11 21134.1 1234.69  38
   0   3  12 91045.1 1946.79  40
   0   3  12 96591.9 2255.49  38
   0   3  13 3434.58 333.452  40
   0   3  13 3373.96 351.674  38
   0   3  13 3625.25 330.594  52
   0   4 -13 11969.3 624.043  45
   0   4 -12 20456.6 1032.59  45
   0   4 -12 20047.9 929.972  44
   0   4 -11 56049.8 1829.29  44
   0   4 -11 57593.7 2036.48  45
   0   4 -10 1111.83 322.241  44
   0   4 -10 476.324 166.906  34
   0   4 -10 1206.20 431.042  45
   0   4  -9 25429.6 1468.73  44
   0   4  -9 21103.5 1287.55  34
   0   4  -9 21496.7 1484.46  45
   0   4  -9 22483.4 1265.89  50
   0   4  -9 22951.0 1391.11  32
   0   4  -8 111463. 3118.70  34
   0   4  -8 113793. 3015.56  50
   0   4  -8 111803. 3188.41  32
   0   4  -7 60368.0 2338.25  34
   0   4  -7 60820.6 2317.56  50
   0   4  -7 55204.2 2273.72  32
   0   4  -6 90526.9 2848.31  50
   0   4  -6 93792.3 2842.84  32
   0   4  -5 15235.2 1108.98  34
   0   4  -5 13138.2 1054.66  50
   0   4  -5 16848.0 1131.65  32
   0   4  -4 111960. 2772.27  34
   0   4  -4 106244. 2797.65  50
   0   4  -3 31121.8 1380.86  34
   0   4  -3 34692.7 1470.07  50
   0   4  -3 33035.8 1274.74  32
   0   4  -2 58071.4 1577.32  32
   0   4  -2 57908.6 1376.37  36
   0   4  -1 179580. 3040.64  34
   0   4  -1 191486. 2590.81  36
   0   4  -1 194950. 2954.73  50
   0   4  -1 191235. 2042.61  13
   0   4  -1 204737. 2814.03  32
   0   4   0 3789.76 438.407  34
   0   4   0 5647.11 500.862  50
   0   4   0 4995.16 438.035  36
   0   4   0 4780.75 346.259  13
   0   4   0 5207.51 446.662  32
   0   4   1 76398.1 1478.72  48
   0   4   1 76891.6 1857.01  36
   0   4   1 77677.1 1428.70  13
   0   4   1 80868.3 1725.19  32
   0   4   2 158440. 2353.05  48
   0   4   2 164813. 2547.64  50
   0   4   2 145521. 2764.34  36
   0   4   2 160369. 2147.43  13
   0   4   2 155741. 3113.42  33
   0   4   2 172738. 2474.30  32
   0   4   3 79154.0 2213.54  36
   0   4   3 78838.9 2274.92  33
   0   4   3 77579.6 1849.20  48
   0   4   4 140842. 2772.48  48
   0   4   4 141904. 3261.81  33
   0   4   5 7047.44 696.824  48
   0   4   5 7453.34 751.490  36
   0   4   5 7278.43 837.406  33
   0   4   6 270397. 4318.39  36
   0   4   6 256937. 3884.63   7
   0   4   6 262739. 4378.85  48
   0   4   7 24721.1 1282.93   7
   0   4   7 26685.8 1440.26  48
   0   4   8 42778.9 1688.17   7
   0   4   8 44905.3 1795.06  48
   0   4   9 62464.1 2521.29  38
   0   4  10 4549.56 453.881  40
   0   4  10 4215.39 633.948  38
   0   4  11 65933.9 1547.25  40
   0   4  11 67130.2 1968.09  38
   0   4  12 15147.0 612.878  40
   0   4  12 16635.8 779.595  38
   0   4  13 17642.4 513.611  52
   0   5 -12 45965.3 1110.44  45
   0   5 -12 46417.8 1129.38  44
   0   5 -12 48173.3 1303.55  38
   0   5 -11-1.43036 100.825  44
   0   5 -11 81.1558 85.3568  45
   0   5 -10 83964.5 2349.78  44
   0   5 -10 89746.0 2492.48  45
   0   5  -9 50154.2 2045.84  44
   0   5  -9 42039.6 1912.37  45
   0   5  -8 106946. 3199.17  34
   0   5  -8 112694. 3287.07  44
   0   5  -7 9880.00 1032.27  44
   0   5  -7 11477.1 1115.23  34
   0   5  -7 10289.3 994.324  50
   0   5  -7 9989.57 993.739  32
   0   5  -6 794.621 285.877  32
   0   5  -6 236.196 269.467  34
   0   5  -6 242.576 229.493   6
   0   5  -6 145.041 256.322  50
   0   5  -5 40716.7 2022.84  34
   0   5  -5 39910.8 1848.97  32
   0   5  -4 1434.26 377.566  32
   0   5  -4 935.992 327.828  34
   0   5  -4 834.637 322.948  50
   0   5  -4 1337.33 316.914   6
   0   5  -3 160757. 3533.13  50
   0   5  -3 154197. 3693.94  34
   0   5  -3 156877. 3142.70  32
   0   5  -2 219856. 3866.53  50
   0   5  -2 221205. 3533.38  32
   0   5  -1 74955.2 2502.77  34
   0   5  -1 83096.2 2046.96  36
   0   5  -1 75137.7 2162.99  50
   0   5  -1 79141.0 2030.82  32
   0   5   0 209203. 3396.64  36
   0   5   0 204289. 2538.82  13
   0   5   0 204784. 3225.94  32
   0   5   1 892.228 233.939  36
   0   5   1 568.251 207.164  32
   0   5   1 704.170 172.956  13
   0   5   1 1074.45 383.672  33
   0   5   2 117349. 2908.96  36
   0   5   2 121263. 2151.31  13
   0   5   3 37966.4 1411.14  48
   0   5   3 41841.1 1942.16  33
   0   5   3 37244.9 1754.18  36
   0   5   3 38558.4 1296.49  13
   0   5   4 1414.10 284.808  13
   0   5   4 936.560 449.085  33
   0   5   4 1321.00 335.397  48
   0   5   5 182389. 3972.73  36
   0   5   5 172838. 3176.52  13
   0   5   5 178262. 3569.83  48
   0   5   6 52404.5 2548.95  38
   0   5   6 59145.8 2139.29  48
   0   5   6 54012.6 2153.68  55
   0   5   6 61733.6 2222.29  36
   0   5   6 58321.9 1945.38  13
   0   5   7 51359.6 1852.78  13
   0   5   7 46613.6 2429.14  38
   0   5   7 49077.7 1818.45  36
   0   5   8 43414.1 2195.79  38
   0   5   8 38302.9 1525.47  13
   0   5   9 68713.4 2418.38  38
   0   5  10 43587.2 1590.02  38
   0   5  11 8859.00 572.975  38
   0   6 -11 50378.5 1198.45  38
   0   6 -11 46502.4 1076.23  44
   0   6 -10 12959.2 760.031  44
   0   6 -10 14354.7 867.457  38
   0   6  -9 5923.80 667.272  38
   0   6  -9 6448.70 679.041  44
   0   6  -8 87308.1 2693.38  44
   0   6  -8 70338.6 2542.27  38
   0   6  -7 1477.69 488.963  44
   0   6  -7 885.313 342.972  38
   0   6  -6 70157.6 2645.29  44
   0   6  -6 74692.8 2741.48  34
   0   6  -5 11600.3 1076.17  44
   0   6  -5 10325.9 1072.89  34
   0   6  -5 14367.2 1148.32  38
   0   6  -5 10818.6 1092.05  50
   0   6  -4 72831.9 2468.54  44
   0   6  -4 76033.8 2254.02   6
   0   6  -4 79579.7 2569.14  38
   0   6  -4 65579.1 2666.83  34
   0   6  -4 57188.0 2349.72  55
   0   6  -4 62635.3 2501.07  50
   0   6  -4 62637.7 2220.95  32
   0   6  -3 116563. 3635.02  34
   0   6  -3 120134. 2899.16  32
   0   6  -3 117381. 3256.54  50
   0   6  -2 5095.33 677.297  50
   0   6  -2 5164.48 785.785  34
   0   6  -2 6241.00 650.575  32
   0   6  -1 120768. 2707.86  36
   0   6  -1 120146. 2929.42  50
   0   6  -1 111937. 3525.41  33
   0   6  -1 119528. 2687.12  32
   0   6   0 6631.10 855.281  33
   0   6   0 6271.85 671.847  36
   0   6   0 6819.63 686.216  50
   0   6   1 82971.6 2519.55  36
   0   6   1 80204.6 2836.63  33
   0   6   2 104620. 3260.22  33
   0   6   2 109521. 2158.00  13
   0   6   2 106696. 3038.27  36
   0   6   3 4304.49 730.823  38
   0   6   3 3829.25 639.209  36
   0   6   3 5391.02 722.721  55
   0   6   3 5442.93 516.502  13
   0   6   4 117617. 3640.55  38
   0   6   4 114368. 3303.50  36
   0   6   4 120690. 3295.97  55
   0   6   5 45895.7 2363.55  38
   0   6   5 42233.5 1917.23  36
   0   6   5 48040.1 2072.38  55
   0   6   6 51595.7 2498.89  38
   0   6   6 61480.9 2238.70  55
   0   6   7 54131.7 2379.09  38
   0   6   7 60204.7 1976.11  55
   0   6   8 1176.52 369.217  38
   0   6   9 45859.1 1505.23  38
   0   6  10 5967.83 398.306  38
   0   7  -9 32583.6 1036.07  38
   0   7  -9 32122.5 1007.27  44
   0   7  -8 46.4962 137.628  44
   0   7  -8 248.848 217.023  38
   0   7  -7 5819.14 644.128  44
   0   7  -7 4586.63 608.572  38
   0   7  -6 54492.6 2040.78  44
   0   7  -6 52596.0 2048.24  38
   0   7  -5 38862.5 1726.02  44
   0   7  -5 39934.8 1813.23  38
   0   7  -4 55502.2 2026.08  44
   0   7  -4 58107.6 2178.82  38
   0   7  -3 1516.53 372.731  44
   0   7  -3 1177.75 398.722  38
   0   7  -3 2308.56 547.543  55
   0   7  -2 124906. 3147.18  38
   0   7  -2 123743. 2782.66  44
   0   7  -2 122425. 3574.24  55
   0   7  -1 31274.2 1590.28  38
   0   7  -1 30022.6 1770.29  55
   0   7   0 9415.12 904.861  38
   0   7   0 8914.04 966.621  55
   0   7   1 76158.9 2575.72  38
   0   7   1 79286.2 2708.08  55
   0   7   2 512.384 338.952  38
   0   7   2 582.369 319.467  55
   0   7   3 41999.8 2048.72  38
   0   7   3 39672.4 1821.15  55
   0   7   4 47705.4 2203.31  38
   0   7   4 50509.9 1970.49  55
   0   7   5 11292.7 881.872  55
   0   7   5 9140.72 925.266  38
   0   7   6 54362.2 1649.42  55
   0   7   6 49812.4 1935.70  38
   0   7   7 372.914 206.561  38
   0   7   7 209.107 90.0823  55
   0   7   8 21232.8 728.709  38
   0   8  -6 26274.0 988.990  38
   0   8  -6 26885.3 915.233  44
   0   8  -5 26679.8 1026.79  44
   0   8  -5 22946.5 1098.62  38
   0   8  -4 580.455 168.243  44
   0   8  -4 361.654 148.938  55
   0   8  -4 192.716 201.225  38
   0   8  -3 50204.0 1420.18  44
   0   8  -3 51503.0 1866.32  55
   0   8  -2 46930.0 1749.71  38
   0   8  -2 48877.5 1981.66  55
   0   8  -1 21820.3 1226.79  38
   0   8  -1 22779.0 1373.59  55
   0   8   0 79923.6 2344.66  38
   0   8   0 88170.6 2610.20  55
   0   8   1 11692.6 922.249  38
   0   8   1 14067.5 1007.31  55
   0   8   2 69852.3 2054.93  55
   0   8   2 63598.8 2078.55  38
   0   8   3 17603.0 1069.61  38
   0   8   3 20917.6 1024.48  55
   0   8   4 4159.84 472.834  38
   0   8   4 4664.96 426.020  55
   1  -8  -5 19869.5 920.254  56
   1  -8  -5 19904.4 748.820  20
   1  -8  -4 3232.58 445.885  56
   1  -8  -4 3279.08 381.090  20
   1  -8  -3 70487.6 2254.00  56
   1  -8  -3 67566.8 1449.91  24
   1  -8  -3 66119.6 1710.23  20
   1  -8  -2 14668.5 832.649  41
   1  -8  -2 14847.1 840.639  20
   1  -8  -2 14287.2 1114.20  56
   1  -8  -2 15923.2 749.716  24
   1  -8  -1 19467.6 1038.04  41
   1  -8  -1 20220.0 1402.76  56
   1  -8  -1 21445.2 889.261  24
   1  -8  -1 17256.4 906.933  20
   1  -8   0 77153.0 2871.37  56
   1  -8   0 75959.3 2141.93  41
   1  -8   0 76635.2 1696.18  24
   1  -8   1 270.888 249.219  41
   1  -8   1 296.353 255.826  56
   1  -8   1-35.4174 49.5677  26
   1  -8   1 278.821 146.240  24
   1  -8   2 75875.4 2329.39  41
   1  -8   2 76199.1 2281.12  26
   1  -8   2 77478.7 2787.84  56
   1  -8   3 25492.1 1390.03  41
   1  -8   3 28500.0 1433.39  26
   1  -8   4 38296.2 1668.99  41
   1  -8   4 51629.7 1786.73  26
   1  -8   5 59478.3 1563.38  53
   1  -8   5 64485.5 1993.89  41
   1  -8   6 19014.5 891.821  41
   1  -8   6 17640.8 776.774  26
   1  -8   7 62360.2 1086.36  26
   1  -7  -8 42201.3 1173.85  39
   1  -7  -8 45120.7 1180.85  20
   1  -7  -7 18584.8 976.879  56
   1  -7  -7 17960.1 916.300  39
   1  -7  -7 19104.4 946.006  20
   1  -7  -6 68578.4 2238.93  56
   1  -7  -6 66252.5 1965.76  39
   1  -7  -6 66396.7 1996.04  20
   1  -7  -5 32207.3 1472.79  20
   1  -7  -5 33607.6 1522.95  39
   1  -7  -5 29211.7 1619.62  56
   1  -7  -4 78510.4 2516.14  39
   1  -7  -4 74539.3 2647.68  56
   1  -7  -4 81574.1 2044.12  24
   1  -7  -4 75480.6 2269.78  20
   1  -7  -3 8362.63 916.909  56
   1  -7  -3 9336.00 692.948  24
   1  -7  -3 8460.08 771.481  20
   1  -7  -2 4906.29 607.474  41
   1  -7  -2 4067.50 469.466  24
   1  -7  -2 3778.66 690.919  56
   1  -7  -2 3370.68 412.406  14
   1  -7  -2 3535.82 465.514  20
   1  -7  -1 52179.0 1980.20  41
   1  -7  -1 53090.6 2431.66  56
   1  -7  -1 47676.1 1470.72  14
   1  -7  -1 51379.6 1701.98  20
   1  -7   0 1474.64 357.871  41
   1  -7   0 1499.93 260.910  14
   1  -7   0 1563.33 543.103  56
   1  -7   1 86274.5 3350.41  56
   1  -7   1 86521.8 2691.25  41
   1  -7   1 78069.6 1730.80  14
   1  -7   1 82668.1 2904.80  26
   1  -7   2 18045.5 1302.99  41
   1  -7   2 16282.9 1371.49  26
   1  -7   2 15450.7 1432.44  56
   1  -7   2 18155.7 827.527  14
   1  -7   3 48143.5 1773.47  53
   1  -7   3 41517.6 2014.70  41
   1  -7   3 44155.0 1279.18  14
   1  -7   3 45690.6 2265.29  26
   1  -7   4 59460.2 2466.68  41
   1  -7   4 66692.7 2211.50  53
   1  -7   4 65431.0 2531.25  26
   1  -7   5 3619.36 589.125  41
   1  -7   5 4234.37 610.675  26
   1  -7   5 3967.80 608.610  53
   1  -7   6 11035.1 995.786  41
   1  -7   6 9959.18 945.755  53
   1  -7   6 11704.0 876.989  26
   1  -7   7 9235.16 755.398  41
   1  -7   7 8581.25 655.249  26
   1  -7   8 27213.2 1279.68  53
   1  -7   8 24266.2 905.126  26
   1  -7   8 25177.3 812.688  25
   1  -7   9 43851.7 865.978  25
   1  -7   9 37231.3 798.625  26
   1  -6 -10 66108.8 1438.20  39
   1  -6  -9 55389.5 1607.43  20
   1  -6  -9 56114.2 1650.18  39
   1  -6  -8 1892.75 384.711  39
   1  -6  -8 2606.62 431.840  20
   1  -6  -7 97739.0 2807.08  56
   1  -6  -7 96275.7 2697.10  39
   1  -6  -7 100065. 2738.66  20
   1  -6  -6 6936.88 787.979  39
   1  -6  -6 6808.60 714.182  14
   1  -6  -6 6790.00 705.618  37
   1  -6  -6 5820.16 744.033  56
   1  -6  -6 6446.26 723.471  20
   1  -6  -5 34346.8 1776.21  39
   1  -6  -5 29846.4 1480.23  37
   1  -6  -5 33758.4 1829.47  56
   1  -6  -5 30408.9 1447.34  14
   1  -6  -5 34891.5 1423.66  24
   1  -6  -5 33824.7 1625.32  20
   1  -6  -4 125321. 2617.51  24
   1  -6  -4 132627. 3544.31  39
   1  -6  -4 114558. 2752.65  37
   1  -6  -4 120143. 2722.19  14
   1  -6  -4 121761. 3439.67  56
   1  -6  -4 118761. 3342.96  49
   1  -6  -4 127837. 2975.91  20
   1  -6  -3 58207.1 1842.69  37
   1  -6  -3 60233.6 1851.12  14
   1  -6  -2 38509.9 1564.67  31
   1  -6  -2 36866.7 1393.66  37
   1  -6  -2 35853.5 1369.41  14
   1  -6  -1 359.833 177.706  31
   1  -6  -1 118.248 149.988  14
   1  -6  -1-67.2236 138.836  37
   1  -6   0 110616. 2801.53  31
   1  -6   0 104707. 2236.82  37
   1  -6   0 106851. 2225.30  14
   1  -6   1 20597.7 1272.45  31
   1  -6   1 22646.9 1008.79  14
   1  -6   2 26554.6 1540.86  31
   1  -6   2 28280.3 1688.53  30
   1  -6   2 26657.6 1032.60  14
   1  -6   3 77762.8 2776.75  31
   1  -6   3 81642.2 2778.02  30
   1  -6   4 4395.16 729.224  31
   1  -6   4 6901.81 539.325  14
   1  -6   4 6427.94 861.602  41
   1  -6   4 5014.02 704.934  30
   1  -6   4 6742.76 786.189  53
   1  -6   5 51570.3 2262.18  31
   1  -6   5 48198.0 2282.97  41
   1  -6   5 52773.8 2143.64  30
   1  -6   5 58631.5 2398.69  53
   1  -6   5 57961.0 2238.54  26
   1  -6   6 101241. 3200.27  41
   1  -6   6 97675.3 3245.58  53
   1  -6   6 98649.1 2744.56  26
   1  -6   7 58273.9 2526.40  53
   1  -6   7 67330.3 2092.63  26
   1  -6   8 20894.7 1055.27  26
   1  -6   8 21504.8 1437.25  53
   1  -6   8 22608.4 1050.29  25
   1  -6   9 11475.5 838.494  43
   1  -6   9 11580.8 670.155  26
   1  -6   9 12126.6 695.242  25
   1  -6   9 13026.8 988.587  53
   1  -6  10 39869.3 1272.01  43
   1  -6  10 40847.1 1391.12  53
   1  -6  10 38146.5 1063.84  25
   1  -6  11 3686.20 292.229  43
   1  -6  11 3805.71 269.011  25
   1  -6  11 4128.33 321.344  53
   1  -5 -12 6413.24 358.028  15
   1  -5 -11 50668.4 1302.60  54
   1  -5 -11 52991.0 1329.07  39
   1  -5 -11 54458.4 1327.18  15
   1  -5 -10 50932.6 1483.19  15
   1  -5 -10 48996.9 1497.32  54
   1  -5 -10 53374.0 1642.31  20
   1  -5 -10 53333.7 1658.66  39
   1  -5  -9 6166.05 583.727  15
   1  -5  -9 6355.68 660.138  39
   1  -5  -9 6072.26 648.354  20
   1  -5  -8 81985.0 2439.00  37
   1  -5  -8 79478.3 2110.62  15
   1  -5  -8 86267.7 2598.99  39
   1  -5  -8 78617.4 2478.25  20
   1  -5  -7 19886.8 1298.79  39
   1  -5  -7 17751.1 1203.27  37
   1  -5  -7 17693.3 1210.59  20
   1  -5  -7 17164.8 1150.88  49
   1  -5  -7 18926.9 1581.73   5
   1  -5  -6 53732.3 2069.67  37
   1  -5  -6 50700.5 2053.86  49
   1  -5  -5 46371.0 1811.76  37
   1  -5  -5 50407.6 2383.55   5
   1  -5  -5 45441.8 1999.29  49
   1  -5  -4 4278.06 636.511  49
   1  -5  -4 3061.39 440.696  37
   1  -5  -4 3878.04 635.597   5
   1  -5  -3 147388. 2733.38  31
   1  -5  -3 150264. 3812.79  49
   1  -5  -2 75501.4 1955.95  31
   1  -5  -2 77290.6 1855.40  37
   1  -5  -2 74501.7 1775.99  14
   1  -5  -1 114435. 2461.04  31
   1  -5  -1 113482. 3027.22  30
   1  -5   0 10702.1 792.881  31
   1  -5   0 11785.1 980.472  30
   1  -5   0 10810.8 653.239  14
   1  -5   0 10221.6 649.576  37
   1  -5   1 76245.9 2180.25  31
   1  -5   1 77881.6 2437.15  30
   1  -5   1 77476.0 1755.10  37
   1  -5   1 78360.9 1714.45  14
   1  -5   2 83020.6 2428.79  31
   1  -5   2 83172.5 2501.18  30
   1  -5   2 90007.1 1815.60  14
   1  -5   3 5236.75 622.589  30
   1  -5   3 6003.23 459.776  14
   1  -5   3 5137.68 672.891  31
   1  -5   4 57771.7 2135.75  30
   1  -5   4 65222.4 1517.96  14
   1  -5   5 131959. 3290.64  30
   1  -5   5 131168. 3415.13  31
   1  -5   6 6983.66 770.248  30
   1  -5   7 152143. 3428.37  43
   1  -5   7 150831. 3477.72  30
   1  -5   7 143575. 4018.80  53
   1  -5   7 153607. 3173.37  26
   1  -5   8 1885.96 468.540  43
   1  -5   8 2622.47 393.292  25
   1  -5   8 2455.69 411.822  26
   1  -5   8 2483.61 559.346  53
   1  -5   9 107781. 2303.36  25
   1  -5   9 116771. 3222.30  53
   1  -5  10 39751.6 1651.11  43
   1  -5  10 40241.0 1646.20  53
   1  -5  10 39549.6 1280.32  25
   1  -5  11 2116.62 325.840  53
   1  -5  11 2455.31 381.718  43
   1  -5  11 2588.43 310.064  25
   1  -5  12 46703.8 1200.51  43
   1  -5  12 42477.7 954.423  25
   1  -4 -13 7759.47 451.851  54
   1  -4 -13 8681.84 448.491  15
   1  -4 -12 105294. 2125.01  54
   1  -4 -12 106914. 1992.06  15
   1  -4 -11 49218.9 1493.90  39
   1  -4 -11 49546.0 1553.42  15
   1  -4 -11 47753.3 1648.81  54
   1  -4 -10 10556.5 822.022  39
   1  -4 -10 10871.2 782.224  15
   1  -4 -10 9670.58 821.567  54
   1  -4 -10 10006.4 806.248  20
   1  -4  -9 30016.1 1490.39  39
   1  -4  -9 27080.3 1382.14  37
   1  -4  -9 29110.9 1330.04  15
   1  -4  -9 28306.0 1429.84  54
   1  -4  -9 27876.5 1444.33  20
   1  -4  -8 16390.0 1101.49  49
   1  -4  -8 18057.9 1202.73  37
   1  -4  -8 18087.8 1506.20   5
   1  -4  -7 67518.9 2319.06  37
   1  -4  -7 67420.4 2925.61   5
   1  -4  -7 62767.0 2160.19  49
   1  -4  -6 68476.8 2265.69  37
   1  -4  -6 63664.7 2716.10   5
   1  -4  -6 63444.5 2176.31  49
   1  -4  -5 56190.3 1874.98  37
   1  -4  -5 55763.3 2308.64   5
   1  -4  -5 56466.4 2046.04  49
   1  -4  -4 222626. 4140.12   5
   1  -4  -4 232128. 3369.29  37
   1  -4  -4 234112. 4176.25  49
   1  -4  -3 103972. 2000.96  31
   1  -4  -3 105636. 2622.09   5
   1  -4  -3 100201. 1985.56  37
   1  -4  -2 25487.6 975.335  31
   1  -4  -2 22804.6 873.700  37
   1  -4  -2 23724.4 1178.38   5
   1  -4  -1 29160.8 1046.92  31
   1  -4  -1 28365.1 1227.01  30
   1  -4  -1 25656.9 890.563  37
   1  -4  -1 28109.0 901.080  14
   1  -4  -1 30977.0 1573.24  49
   1  -4   0 250489. 3573.40  30
   1  -4   0 246051. 2652.62  14
   1  -4   1 257911. 2706.71  14
   1  -4   1 263700. 3400.63  31
   1  -4   1 263482. 2800.58  37
   1  -4   2 179.478 169.538  31
   1  -4   2 34.5004 169.073  30
   1  -4   2 279.125 107.754  14
   1  -4   3 174146. 3144.00  30
   1  -4   3 168926. 3174.78  31
   1  -4   4 58076.8 1902.74  30
   1  -4   4 59389.5 1287.60  14
   1  -4   5 40382.5 1665.02  30
   1  -4   5 38780.8 1613.33  31
   1  -4   6 149109. 3341.70  30
   1  -4   6 232509. 4684.19  33
   1  -4   7 10679.6 881.515  30
   1  -4   7 13412.9 1168.33  33
   1  -4   8 58437.8 2003.09  30
   1  -4   8 52435.7 2365.32  33
   1  -4   9 47975.8 1698.12  30
   1  -4   9 53488.8 2131.49  53
   1  -4   9 51924.9 1616.22  25
   1  -4   9 54383.2 2529.51  33
   1  -4  10 16038.7 1163.60  43
   1  -4  10 18938.1 1151.73  53
   1  -4  10 17113.4 895.990  25
   1  -4  11 100832. 2553.18  43
   1  -4  11 105029. 2046.26  25
   1  -4  12 916.140 258.879  43
   1  -4  12 969.032 211.708  25
   1  -4  13 114724. 1825.96  43
   1  -4  13 102217. 1306.72  25
   1  -3 -14 6138.50 377.836  54
   1  -3 -14 6132.15 329.007  15
   1  -3 -13 47190.9 1414.36  54
   1  -3 -13 48929.1 1292.54  15
   1  -3 -12 69197.6 1824.17  15
   1  -3 -12 73173.7 2066.68  54
   1  -3 -11 60300.3 1869.72  15
   1  -3 -11 58916.1 2015.31  54
   1  -3 -10 45388.8 1644.49  37
   1  -3 -10 50513.5 1775.55  15
   1  -3 -10 47283.3 1884.24  54
   1  -3 -10 46459.6 1807.87  20
   1  -3  -9 4273.54 570.785  49
   1  -3  -9 4239.11 755.332   5
   1  -3  -9 4226.52 558.034  37
   1  -3  -8 83026.7 3163.62   5
   1  -3  -8 84477.5 2371.29  49
   1  -3  -7 93370.4 3277.90   5
   1  -3  -7 93404.2 2487.01  37
   1  -3  -7 89272.7 2416.78  49
   1  -3  -6 30984.9 1764.02   5
   1  -3  -6 30882.0 1376.66  37
   1  -3  -6 29852.1 1366.26  49
   1  -3  -5 95220.4 2725.64   5
   1  -3  -5 96965.2 2208.07  37
   1  -3  -4 2102.33 268.434  31
   1  -3  -4 1622.40 331.402   5
   1  -3  -4 2063.11 305.840  37
   1  -3  -3 100631. 1738.17  37
   1  -3  -3 107274. 2498.22  49
   1  -3  -2 214586. 2374.13  31
   1  -3  -2 193394. 2453.88  30
   1  -3  -2 196241. 2157.69  37
   1  -3  -2 178066. 2720.48   5
   1  -3  -2 219196. 3561.25  49
   1  -3  -1 347814. 2989.12  31
   1  -3  -1 339769. 3261.35  30
   1  -3  -1 332303. 2639.19  37
   1  -3  -1 338480. 3543.70   5
   1  -3  -1 341825. 2224.93   2
   1  -3  -1 331811. 4278.23  49
   1  -3   0 158811. 2045.63  31
   1  -3   0 163216. 2307.31  30
   1  -3   0 146467. 1733.33  37
   1  -3   0 162918. 1712.27   2
   1  -3   0 145361. 1649.55  14
   1  -3   0 156669. 2671.40  49
   1  -3   1 158914. 2150.22  31
   1  -3   1 162414. 2400.25  30
   1  -3   1 158866. 1799.81  37
   1  -3   1 158541. 1739.67  14
   1  -3   2 597583. 4539.52  31
   1  -3   2 587999. 4763.91  30
   1  -3   2 588128. 3289.01  14
   1  -3   3 71201.9 1689.26  31
   1  -3   3 78305.5 1205.33  14
   1  -3   4 39161.7 1399.41  30
   1  -3   4 41568.8 947.335  14
   1  -3   5 330404. 4254.22  30
   1  -3   5 403913. 4502.51  33
   1  -3   6 2892.31 427.246  30
   1  -3   6 3353.10 472.989  33
   1  -3   6 3127.92 410.746  35
   1  -3   7 162887. 3135.09  30
   1  -3   7 177662. 3104.69  35
   1  -3   8 60460.5 1882.31  30
   1  -3   8 60576.1 1880.45  35
   1  -3   9 31566.3 1335.18  30
   1  -3   9 32168.9 1382.67  35
   1  -3  10 126955. 3146.16  43
   1  -3  10 110345. 2897.38  40
   1  -3  10 116455. 5495.59  27
   1  -3  10 119714. 2610.46  35
   1  -3  10 128392. 2428.18  25
   1  -3  11 1669.59 402.987  43
   1  -3  11 1120.46 378.271  40
   1  -3  11 2327.24 819.259  27
   1  -3  11 1113.97 251.165  35
   1  -3  11 1406.62 261.986  25
   1  -3  12 66414.2 1908.59  43
   1  -3  12 62302.0 1753.80  40
   1  -3  12 64462.4 1463.84  25
   1  -3  13 1581.45 277.205  43
   1  -3  13 1259.64 210.333  40
   1  -3  13 1467.75 620.290  27
   1  -3  14 46259.0 970.079  43
   1  -2 -14 45544.0 1209.55  54
   1  -2 -14 40059.4 991.733  15
   1  -2 -13 9752.50 646.916  15
   1  -2 -13 9048.08 704.318  54
   1  -2 -12 662.875 263.287  54
   1  -2 -12 1010.89 275.960  15
   1  -2 -11 110530. 2603.23  15
   1  -2 -11 108626. 2839.59  54
   1  -2 -10 35441.4 1773.69   5
   1  -2 -10 36895.5 1435.36  37
   1  -2  -9 31260.3 1698.98   5
   1  -2  -9 29742.3 1299.47  37
   1  -2  -9 28674.6 1294.40  49
   1  -2  -8 42567.8 1537.17  37
   1  -2  -8 41656.8 1915.44   5
   1  -2  -8 39957.6 1497.71  49
   1  -2  -7 112077. 3023.92   5
   1  -2  -7 105113. 2354.96  37
   1  -2  -6 97773.5 2659.86   5
   1  -2  -6 94400.3 2137.71  37
   1  -2  -5 486.317 213.019   5
   1  -2  -5 353.444 179.214  37
   1  -2  -5 378.755 186.641  49
   1  -2  -4 6490.72 406.230  31
   1  -2  -4 5988.72 518.743   5
   1  -2  -4 6655.86 371.739  28
   1  -2  -4 6224.20 435.130  37
   1  -2  -4 6972.85 574.280  49
   1  -2  -3 46478.2 639.963  29
   1  -2  -3 49035.5 1446.13  49
   1  -2  -2 197934. 1926.46  31
   1  -2  -2 200716. 2840.63  49
   1  -2  -1 999999. 3295.35   2
   1  -2   0 3779.91 229.646   2
   1  -2   1 688194. 3257.58   2
   1  -2   2 187640. 2375.97  30
   1  -2   2 182828. 2057.04  28
   1  -2   3 670.635 157.904  31
   1  -2   3 931.499 146.052  28
   1  -2   3 673.385 156.831  33
   1  -2   4 11038.8 555.425  31
   1  -2   4 11163.6 677.215  30
   1  -2   4 12752.2 633.863  33
   1  -2   5 37155.1 1261.47  35
   1  -2   5 35583.5 1239.67  33
   1  -2   5 34243.9 1231.67  30
   1  -2   6 103260. 2417.08  33
   1  -2   6 102815. 2132.03  30
   1  -2   7 143837. 2564.55  30
   1  -2   7 149474. 2870.31  35
   1  -2   8 965.476 247.405  35
   1  -2   8 917.686 303.294  33
   1  -2   9 140969. 2982.80  35
   1  -2   9 139383. 3366.92  33
   1  -2  10 23697.6 1228.80  35
   1  -2  11 51499.0 1844.41  43
   1  -2  11 47207.5 1794.30  40
   1  -2  11 48925.0 3406.76  27
   1  -2  11 49033.9 1682.84  35
   1  -2  12 24267.2 1164.21  43
   1  -2  12 21832.3 1125.18  40
   1  -2  13 31773.2 1132.44  43
   1  -2  13 30509.2 1149.62  40
   1  -2  14 23983.8 745.705  43
   1  -2  14 23328.0 776.726  40
   1  -2  14 24633.5 1797.41  27
   1  -1 -14 42920.1 1061.01  15
   1  -1 -14 48617.1 1322.05  54
   1  -1 -13 21048.7 1012.76  45
   1  -1 -13 21990.6 1127.30  54
   1  -1 -13 22927.0 1017.22  15
   1  -1 -12 204308. 3537.56  45
   1  -1 -12 210209. 3815.77  54
   1  -1 -12 210680. 3441.08  15
   1  -1 -11 3557.79 512.243  45
   1  -1 -11 2996.10 503.875   5
   1  -1 -11 2501.78 377.531  37
   1  -1 -11 3337.51 476.700  15
   1  -1 -10 45355.3 1852.19   5
   1  -1 -10 46942.2 1533.72  37
   1  -1  -9 143025. 2612.28  37
   1  -1  -9 148674. 3178.19   5
   1  -1  -8 74246.9 1826.91  37
   1  -1  -8 70548.4 2066.43   5
   1  -1  -7 281536. 3438.82  49
   1  -1  -7 290792. 3464.55  37
   1  -1  -6 31019.2 1079.71  37
   1  -1  -6 28365.3 1885.82   6
   1  -1  -6 31071.1 1226.67   5
   1  -1  -6 33839.9 1144.17  49
   1  -1  -5 29829.4 1122.54   5
   1  -1  -5 28642.5 953.876  37
   1  -1  -5 34991.0 2000.86   6
   1  -1  -5 34392.2 1108.84  49
   1  -1  -4 44274.1 1846.87   3
   1  -1  -4 54932.0 922.324  28
   1  -1  -4 49597.3 2210.42   6
   1  -1  -4 45605.3 1232.77   5
   1  -1  -4 55012.6 1358.63  49
   1  -1  -3 212.830 238.196   3
   1  -1  -3 291.426 94.1623  28
   1  -1  -3 661.714 160.463   5
   1  -1  -2 425457. 1495.40  47
   1  -1  -2 461831. 2738.54  28
   1  -1  -1 39124.2 407.691  47
   1  -1  -1 42550.0 661.380  29
   1  -1   0 235559. 1910.60  29
   1  -1   1 242128. 1902.91  28
   1  -1   2 48214.4 729.939  28
   1  -1   3 364948. 3260.46  30
   1  -1   3 365474. 1999.44   1
   1  -1   4 259989. 2763.70  29
   1  -1   4 258034. 2636.92  33
   1  -1   4 260729. 1964.54   1
   1  -1   5 258943. 3162.52  35
   1  -1   5 260736. 2561.34   7
   1  -1   6 43201.7 1245.67  30
   1  -1   6 43982.3 1445.46  35
   1  -1   6 43943.0 1231.34   7
   1  -1   7 1302.80 292.391   7
   1  -1   7 1785.97 342.603  35
   1  -1   7 1121.27 312.615  33
   1  -1   8 30840.5 1374.86  35
   1  -1   9 16733.6 1052.59  35
   1  -1  10 15885.4 1011.45  35
   1  -1  11 29003.3 1297.91  43
   1  -1  11 28148.3 1369.38  40
   1  -1  11 28349.5 1395.78  38
   1  -1  11 29391.1 1337.63  35
   1  -1  12 5913.41 560.597  43
   1  -1  12 6105.13 625.561  40
   1  -1  12 6398.50 1223.10  27
   1  -1  13 52635.7 1377.82  43
   1  -1  13 51445.4 1547.98  40
   1  -1  14 1120.88 202.627  40
   1  -1  14 846.712 490.037  27
   1   0 -14 7545.50 448.693  17
   1   0 -14 7792.03 549.302  45
   1   0 -13 108708. 2366.76  54
   1   0 -13 100398. 2415.85  45
   1   0 -12 39922.2 1684.35  45
   1   0 -12 43696.5 1677.57  54
   1   0 -11 147516. 3319.10  45
   1   0 -11 147702. 3225.88   5
   1   0 -10 140998. 3075.43   5
   1   0  -9 22212.3 962.168  37
   1   0  -9 24530.8 1891.72   6
   1   0  -9 25183.3 1239.96   5
   1   0  -8 274172. 3221.01  37
   1   0  -8 260679. 5976.38   6
   1   0  -7 9362.16 564.094  37
   1   0  -7 8662.60 543.062  34
   1   0  -6 362103. 3264.99  37
   1   0  -6 361392. 3400.03  49
   1   0  -5 265940. 5224.29   6
   1   0  -5 396795. 3401.08  49
   1   0  -4 17019.4 969.826   3
   1   0  -4 9462.69 918.122   6
   1   0  -3 626597. 5592.78   3
   1   0  -2 271157. 3502.51   3
   1   0  -1 708883. 5104.63   3
   1   0   0 119624. 1607.15   3
   1   0   1 43817.3 550.284   3
   1   0   1 54998.5 583.002   2
   1   0   2 437357. 2293.57   1
   1   0   2 428796. 1877.33   2
   1   0   3 133103. 1231.14   2
   1   0   3 133847. 1572.16  51
   1   0   4 214797. 2218.15   7
   1   0   5 192499. 2593.54  35
   1   0   5 196020. 2519.68   7
   1   0   5 187512. 2154.02  48
   1   0   6 276415. 3557.16  35
   1   0   6 268921. 3468.33  33
   1   0   6 280390. 3406.59   7
   1   0   7 325885. 4222.90  35
   1   0   7 326977. 3999.41   7
   1   0   8 8197.76 713.679  35
   1   0   8 10155.6 762.266   7
   1   0   9 24597.6 1261.62  35
   1   0   9 25027.8 1213.33   7
   1   0  10 64686.7 2025.07  35
   1   0  10 64145.3 1899.94   7
   1   0  11 12159.0 883.659  40
   1   0  11 12336.0 912.252  38
   1   0  11 11456.0 1559.90  27
   1   0  11 11788.3 849.561  35
   1   0  11 12300.4 804.336  52
   1   0  12 86656.2 2233.68  40
   1   0  12 84472.2 1911.52  52
   1   0  13 2678.45 301.175  52
   1   0  13 2232.35 369.094  40
   1   0  13 1966.68 743.314  27
   1   0  14 80455.8 1588.87  40
   1   0  14 60559.0 2563.56  27
   1   1 -15 24189.2 551.136  17
   1   1 -14 106727. 1740.22  17
   1   1 -14 118838. 2227.55  45
   1   1 -13 1726.77 389.612  45
   1   1 -12 64847.3 2207.00  45
   1   1 -11 15310.8 1110.64  45
   1   1 -11 14573.8 1008.90   5
   1   1 -10 40037.7 1668.24   5
   1   1  -9 229119. 6103.19   6
   1   1  -8 37941.3 2419.83   6
   1   1  -8 55465.8 1593.20  34
   1   1  -7 173935. 2868.66  32
   1   1  -7 162619. 2687.32  34
   1   1  -6 174998. 2735.05  34
   1   1  -6 176248. 2775.98  32
   1   1  -5 6726.86 660.911   6
   1   1  -5 6835.29 519.487  32
   1   1  -5 7288.98 557.713  34
   1   1  -5 7195.55 516.210  50
   1   1  -4 8336.30 552.576   6
   1   1  -4 9320.73 527.061  50
   1   1  -4 8226.51 499.624  32
   1   1  -3 14100.0 581.445   6
   1   1  -1 107601. 911.830   1
   1   1   0 10178.2 333.806  47
   1   1   0 8861.32 294.655   1
   1   1   1 486263. 2226.23  47
   1   1   1 461187. 2346.46   4
   1   1   2 93959.4 933.196   4
   1   1   2 97534.0 1356.10  32
   1   1   3 223850. 1248.51   4
   1   1   3 243511. 1487.66   3
   1   1   3 230521. 2145.70   7
   1   1   3 245025. 2254.55  48
   1   1   4 189599. 2321.30   7
   1   1   4 182508. 2069.18  35
   1   1   4 191452. 2411.52  50
   1   1   4 176966. 2237.70  48
   1   1   5 202880. 2786.32   7
   1   1   5 199413. 2552.12  35
   1   1   6 84578.7 1917.10  35
   1   1   6 87461.5 2081.73   7
   1   1   7 24436.5 1149.71  35
   1   1   7 27813.1 1286.06   7
   1   1   7 25132.6 1094.89  48
   1   1   8 74569.3 2129.03  35
   1   1   8 79365.2 2262.24   7
   1   1   9 56291.3 1881.59  35
   1   1   9 57740.6 1966.65   7
   1   1  10 23822.1 1215.92  35
   1   1  10 24884.1 1269.17   7
   1   1  11 91042.8 2320.36  40
   1   1  11 89152.4 2442.16  38
   1   1  11 96177.4 2279.71  35
   1   1  12 5965.15 569.675  40
   1   1  12 6752.76 631.727  38
   1   1  12 5037.09 917.683  27
   1   1  12 5835.31 526.418  52
   1   1  13 106317. 2091.14  38
   1   1  13 102431. 1850.85  52
   1   1  14 27484.3 689.399  52
   1   1  14 32899.3 930.007  40
   1   2 -14 4487.24 351.665  17
   1   2 -14 4883.47 448.975  45
   1   2 -13 44464.8 1618.94  45
   1   2 -12 33718.5 1593.31  45
   1   2 -11 11460.0 998.259  45
   1   2  -9 20873.1 1950.28   6
   1   2  -9 27153.3 1268.10  34
   1   2  -8 72481.8 2087.25  34
   1   2  -8 71564.9 2141.61  32
   1   2  -7 126644. 3842.71   6
   1   2  -7 134421. 2817.50  34
   1   2  -7 126570. 2813.07  32
   1   2  -6 14458.7 1034.43   6
   1   2  -6 13261.4 876.545  34
   1   2  -6 12988.4 833.274  50
   1   2  -6 11223.9 821.328  32
   1   2  -5 67194.1 1902.61  34
   1   2  -5 66646.0 1835.91  50
   1   2  -5 68909.1 1846.78  32
   1   2  -4 17032.5 750.353   6
   1   2  -4 14437.3 862.263  34
   1   2  -4 16182.8 848.712  50
   1   2  -4 15899.5 803.636  32
   1   2  -3 32914.9 1242.87  34
   1   2  -3 41614.7 1012.18   6
   1   2  -3 35519.2 1125.09  50
   1   2  -3 38574.8 1088.63  32
   1   2  -2 4268.57 180.450   1
   1   2  -2 4640.44 343.655  32
   1   2  -1 93897.5 1442.67  32
   1   2  -1 96290.4 1177.01  48
   1   2   0 36041.0 734.849  47
   1   2   0 38549.5 923.939   4
   1   2   0 40568.5 992.581  50
   1   2   0 39803.0 926.308  32
   1   2   0 36038.4 744.653  48
   1   2   1 35723.4 688.168  47
   1   2   1 32989.2 901.949  50
   1   2   1 37212.6 883.360   4
   1   2   1 38918.3 945.980  32
   1   2   1 34403.8 713.717   7
   1   2   1 36643.5 815.670  48
   1   2   2 167717. 1835.20   4
   1   2   2 166651. 2083.98  50
   1   2   2 155014. 1694.27   7
   1   2   2 176415. 2116.90  32
   1   2   2 156353. 1359.90  47
   1   2   3 56820.2 1417.00  36
   1   2   3 56857.7 1190.26   7
   1   2   3 62828.9 1350.76  50
   1   2   3 61605.4 1380.65  32
   1   2   4 38158.7 1150.58  50
   1   2   4 33988.2 913.965  35
   1   2   4 34607.0 1186.44  36
   1   2   4 35423.4 1098.10   7
   1   2   4 38480.4 1212.10  48
   1   2   5 254818. 2884.14  35
   1   2   5 253876. 3393.98   7
   1   2   5 259424. 3523.39  48
   1   2   6 187.642 160.290   7
   1   2   6 356.940 146.049  35
   1   2   6 432.845 179.414  48
   1   2   7 207336. 3714.51   7
   1   2   7 204472. 3514.48  48
   1   2   8 57904.2 1837.33  35
   1   2   8 58869.9 2076.92   7
   1   2   8 59844.1 1918.72  48
   1   2   9 1388.94 379.780   7
   1   2   9 1185.15 288.031  35
   1   2  10 31390.2 1331.70  40
   1   2  10 32401.1 1558.47  38
   1   2  11 1912.96 339.136  40
   1   2  11 1651.60 370.456  38
   1   2  11 1903.14 546.299  27
   1   2  12 39559.4 1325.82  40
   1   2  12 40102.6 1409.90  38
   1   2  12 43414.3 1366.13  52
   1   2  13 15425.8 707.705  40
   1   2  13 15677.8 730.393  38
   1   2  13 16821.7 715.969  52
   1   3 -14 42475.5 1092.46  45
   1   3 -14 43040.3 877.977  17
   1   3 -13 70931.8 1491.86  17
   1   3 -13 75208.6 1911.76  45
   1   3 -12 4735.59 577.761  45
   1   3 -11 45658.1 1949.77  45
   1   3 -10 116350. 3299.68  45
   1   3 -10 84873.6 2277.78  34
   1   3  -9 120024. 2864.39  34
   1   3  -9 129790. 3043.40  32
   1   3  -8 72011.9 2279.80  34
   1   3  -8 78042.9 2434.88  32
   1   3  -7 297.457 304.062  32
   1   3  -7 351.743 162.194  34
   1   3  -7 162.865 228.076   6
   1   3  -7 245.073 176.329  50
   1   3  -6 72493.5 2262.48  34
   1   3  -6 71457.2 2246.93  50
   1   3  -6 65704.3 2189.82  32
   1   3  -5 31032.8 1453.57  34
   1   3  -5 33135.4 1490.91  50
   1   3  -4 7778.96 452.707  13
   1   3  -4 7365.56 536.853   6
   1   3  -4 5996.28 651.333  34
   1   3  -4 5580.79 590.229  50
   1   3  -4 7664.98 625.362  32
   1   3  -3 203016. 2408.37  36
   1   3  -3 207651. 3217.28  50
   1   3  -3 206350. 2930.48  32
   1   3  -3 196854. 2028.85  13
   1   3  -2 156719. 2134.41  36
   1   3  -2 154310. 3042.02  34
   1   3  -2 165298. 2668.87  50
   1   3  -2 149353. 2343.80  32
   1   3  -2 164788. 1817.32  13
   1   3  -1 479075. 3806.83  36
   1   3  -1 479795. 5328.95  34
   1   3  -1 493031. 4406.50  50
   1   3  -1 483455. 3174.04  48
   1   3  -1 495553. 3199.16  13
   1   3  -1 485581. 4057.38  32
   1   3   0 19980.1 806.851  36
   1   3   0 21743.1 690.405  13
   1   3   0 21518.5 897.155  50
   1   3   0 19971.0 827.356  32
   1   3   0 19012.1 666.825  48
   1   3   1 85805.9 1794.26  36
   1   3   1 90864.2 1815.63  50
   1   3   1 87592.8 1434.12  13
   1   3   1 90976.9 1766.21  32
   1   3   2 42708.2 1335.48  33
   1   3   2 43468.9 1401.99  36
   1   3   2 45592.6 1314.84  50
   1   3   2 39572.3 1004.21  13
   1   3   2 48151.5 1317.83  32
   1   3   2 38694.0 953.802   7
   1   3   2 39174.1 1111.49  48
   1   3   3 11684.5 805.618  36
   1   3   3 11905.2 693.530  50
   1   3   3 12427.8 713.019  32
   1   3   3 10350.9 558.078   7
   1   3   3 12506.2 707.925  48
   1   3   4 225655. 3661.86  36
   1   3   4 221338. 3084.48  50
   1   3   4 228235. 3356.04  48
   1   3   5 49029.3 1757.12  36
   1   3   5 45845.4 1481.87  50
   1   3   5 44957.2 1510.00   7
   1   3   5 48045.8 1729.47  48
   1   3   6 171012. 3290.20   7
   1   3   6 178187. 3540.83  48
   1   3   7 274304. 4461.41   7
   1   3   7 268402. 4473.13  48
   1   3   8 37083.9 1686.88   7
   1   3   8 38503.7 1657.54  48
   1   3   9 67482.2 2432.99  38
   1   3   9 67272.6 2053.03  48
   1   3  10 343.981 424.863  42
   1   3  10 728.072 294.021  38
   1   3  11 35879.0 1216.34  40
   1   3  11 38448.1 1471.48  38
   1   3  12 67961.7 1591.65  38
   1   3  12 67552.0 1526.46  52
   1   3  13 7824.69 406.285  52
   1   3  13 6038.95 343.191  38
   1   4 -13 4980.87 402.946  45
   1   4 -13 4231.49 251.964  17
   1   4 -12 40180.3 1442.76  45
   1   4 -12 40297.9 1047.11  17
   1   4 -11 1977.98 338.258  44
   1   4 -11 2300.11 415.696  45
   1   4 -10 60234.7 2339.15  45
   1   4 -10 60719.4 1984.71  44
   1   4  -9 90871.5 2639.69  44
   1   4  -9 85293.9 2951.58  45
   1   4  -8 3806.61 704.580   6
   1   4  -8 4694.17 621.368  34
   1   4  -8 5721.35 631.926  50
   1   4  -8 5013.61 683.527  32
   1   4  -7 84768.1 2753.51  34
   1   4  -7 83452.0 2624.38  50
   1   4  -7 88181.8 2908.60   6
   1   4  -6 45076.4 1981.70  50
   1   4  -6 45121.3 1969.98  32
   1   4  -5 30404.4 1630.29  34
   1   4  -5 27925.3 1549.08  50
   1   4  -5 33259.7 1601.87  32
   1   4  -4 169084. 2936.59   6
   1   4  -4 126440. 3286.33  34
   1   4  -4 157569. 2251.96  13
   1   4  -4 133085. 3234.96  50
   1   4  -4 140955. 3044.56  32
   1   4  -3 34060.1 1180.34  36
   1   4  -3 31572.3 1475.18  50
   1   4  -3 33223.6 1375.86  32
   1   4  -3 34774.6 991.117  13
   1   4  -2 154149. 3667.48  34
   1   4  -2 173536. 2705.89  36
   1   4  -2 162976. 3178.23  50
   1   4  -2 155142. 2823.57  32
   1   4  -2 169977. 2209.00  13
   1   4  -1 18151.6 938.542  32
   1   4  -1 18846.9 916.447  36
   1   4  -1 19023.8 1039.88  50
   1   4  -1 18768.3 756.313  13
   1   4   0 165200. 2839.70  36
   1   4   0 170757. 2326.13  48
   1   4   0 167321. 2956.69  50
   1   4   0 161136. 2775.27  32
   1   4   1 78943.7 2084.39  36
   1   4   1 80660.8 2260.27  33
   1   4   1 83167.7 2060.54  50
   1   4   1 74844.0 1591.28  13
   1   4   1 77185.0 1655.07  48
   1   4   1 79420.8 1950.57  32
   1   4   2 4746.78 567.646  36
   1   4   2 4654.07 519.810  50
   1   4   2 5364.51 442.045  13
   1   4   2 3822.10 408.887  48
   1   4   3 231596. 4132.81  36
   1   4   3 231590. 3039.13  13
   1   4   3 219481. 3408.95  32
   1   4   3 229790. 3364.55  48
   1   4   4 176941. 3815.52  36
   1   4   4 187547. 3148.41  50
   1   4   4 178279. 2854.66  13
   1   4   4 182831. 3318.72  48
   1   4   5 146806. 3453.35  36
   1   4   5 143986. 3224.05  48
   1   4   6 195292. 3779.76  36
   1   4   6 189955. 3437.59   7
   1   4   6 196860. 3971.24  48
   1   4   7 1001.04 304.615   7
   1   4   7-172.408 445.209  42
   1   4   7 1119.65 397.340  55
   1   4   7 359.253 290.690  38
   1   4   7 726.244 261.405  13
   1   4   7 970.249 337.842  48
   1   4   8 58543.6 3378.47  42
   1   4   8 62987.3 2555.47  38
   1   4   8 64668.7 2014.38  13
   1   4   9 18809.2 1905.85  42
   1   4   9 36984.1 1749.75  38
   1   4  10 21954.2 1155.37  38
   1   4  11 41292.2 1274.56  38
   1   4  11 39616.7 1124.62  52
   1   4  12 4868.14 314.930  38
   1   4  12 4483.52 292.330  52
   1   5 -12 2949.02 304.462  45
   1   5 -12 2241.60 241.388  38
   1   5 -11 52289.7 1588.69  45
   1   5 -11 52367.7 1366.41  44
   1   5 -11 50796.6 1487.35  38
   1   5 -10 37956.2 1636.30  45
   1   5 -10 39661.7 1463.43  44
   1   5 -10 38051.9 1552.71  38
   1   5  -9 36120.9 1791.21  45
   1   5  -9 38010.5 1656.36  44
   1   5  -8 54357.8 2315.05  45
   1   5  -8 57586.9 2253.94  44
   1   5  -8 54530.7 2090.87  34
   1   5  -7 19429.8 1397.02  45
   1   5  -7 18098.3 1337.33  44
   1   5  -7 19793.5 1423.90   6
   1   5  -7 20762.1 1406.74  38
   1   5  -7 19290.6 1322.50  34
   1   5  -7 16264.3 1233.89  32
   1   5  -6 52758.7 2301.67  50
   1   5  -6 49495.9 2166.24  32
   1   5  -5 77060.1 2790.61  34
   1   5  -5 69786.3 2691.58  50
   1   5  -5 77846.3 2633.51  32
   1   5  -4 7513.67 711.112   6
   1   5  -4 5231.95 775.130  34
   1   5  -4 5186.83 713.251  50
   1   5  -4 6293.58 727.096  32
   1   5  -3 206341. 4266.72  50
   1   5  -3 199683. 4682.62  34
   1   5  -3 200937. 3791.75  32
   1   5  -2 566.934 195.902  32
   1   5  -2 446.175 151.171  13
   1   5  -2 488.968 224.312  36
   1   5  -2 823.490 288.355  50
   1   5  -1 148967. 2970.99  36
   1   5  -1 149295. 3059.53  32
   1   5  -1 151454. 2425.88  13
   1   5   0 88304.8 2768.34  33
   1   5   0 84768.9 2353.63  36
   1   5   0 93383.8 2491.51  50
   1   5   0 93193.8 2385.14  32
   1   5   0 96890.0 1990.62  13
   1   5   1 6978.74 719.158  36
   1   5   1 8377.37 745.407  50
   1   5   1 7634.72 578.047  13
   1   5   1 7953.84 706.428  32
   1   5   2 97168.5 2862.25  36
   1   5   2 101633. 2551.69  50
   1   5   2 97946.5 2118.47  13
   1   5   2 91589.5 2432.38  32
   1   5   2 92773.6 2159.91  48
   1   5   3 558.504 230.501  13
   1   5   3 904.882 368.872  36
   1   5   3 1037.99 290.738  48
   1   5   4 114605. 3313.85  36
   1   5   4 122827. 2611.28  13
   1   5   4 115557. 2773.65  48
   1   5   5 96115.6 3704.35  42
   1   5   5 117094. 3331.85  55
   1   5   5 101703. 3440.37  38
   1   5   5 122086. 3336.15  36
   1   5   5 119812. 2691.83  13
   1   5   5 122440. 3003.20  48
   1   5   6 2919.67 784.858  42
   1   5   6 3379.18 645.917  38
   1   5   6 3656.79 546.730  36
   1   5   6 3808.18 652.543  55
   1   5   6 3839.70 509.051  13
   1   5   7 90946.1 4015.46  42
   1   5   7 100198. 2873.95  55
   1   5   7 96056.6 2426.60  13
   1   5   8 12709.6 913.750  55
   1   5   8 10583.6 1369.32  42
   1   5   8 11416.8 975.189  38
   1   5   9 9574.54 760.083  38
   1   5   9 9858.48 637.883  55
   1   5  10 44989.9 1225.02  38
   1   6 -10 3042.49 326.253  45
   1   6 -10 3137.71 319.904  44
   1   6 -10 2901.40 340.564  38
   1   6  -9 120449. 2526.68  45
   1   6  -9 123437. 2497.33  44
   1   6  -9 117145. 2485.91  38
   1   6  -8 51314.7 1900.81  45
   1   6  -8 54306.8 1942.89  44
   1   6  -7 36436.9 1707.68  45
   1   6  -7 34379.7 1729.66  44
   1   6  -7 33811.1 1666.76  38
   1   6  -6 27010.5 1616.38  44
   1   6  -6 28828.6 1606.59  38
   1   6  -5 5223.07 746.708  44
   1   6  -5 6279.48 772.379  38
   1   6  -5 5957.52 768.449  34
   1   6  -4 61648.5 2328.23  44
   1   6  -4 63532.4 2237.02  38
   1   6  -3 29943.0 1574.32  44
   1   6  -3 26983.9 1400.49   6
   1   6  -3 30737.3 1551.38  38
   1   6  -3 24629.2 1509.42  50
   1   6  -3 26413.6 1428.66  32
   1   6  -2 39435.6 1701.96  38
   1   6  -2 33625.9 1452.61  36
   1   6  -2 38550.5 1702.72  44
   1   6  -2 34396.8 1974.82  55
   1   6  -2 35075.4 1709.53  50
   1   6  -2 34888.6 1578.11  32
   1   6  -1 174286. 3542.55  44
   1   6  -1 183821. 3671.72  38
   1   6  -1 173751. 3437.54  36
   1   6  -1 191791. 4584.67  55
   1   6  -1 182306. 3753.75  50
   1   6  -1 180636. 3496.54  32
   1   6   0 24601.2 1317.87  44
   1   6   0 22603.0 1333.51  38
   1   6   0 21035.5 1259.96  36
   1   6   0 24295.6 1632.71  55
   1   6   0 22060.9 1266.07  50
   1   6   0 21612.5 1197.01  32
   1   6   0 21893.1 961.794  13
   1   6   1 105527. 2703.67  44
   1   6   1 100981. 3194.49  42
   1   6   1 99838.0 2855.43  38
   1   6   1 88304.5 2677.84  36
   1   6   1 87953.0 2456.51  50
   1   6   1 101507. 3239.27  55
   1   6   1 96902.0 2505.88  32
   1   6   1 92983.7 2036.41  13
   1   6   2 5258.94 682.011  38
   1   6   2 5177.99 705.435  36
   1   6   2 5349.62 829.930  55
   1   6   2 4767.38 479.268  13
   1   6   3 64101.0 2518.52  38
   1   6   3 65903.8 2558.54  55
   1   6   3 70362.7 1902.84  13
   1   6   4 98123.9 3245.65  38
   1   6   4 104566. 3163.76  55
   1   6   5 6495.55 858.508  38
   1   6   5 6157.28 774.146  55
   1   6   6 25775.0 1531.19  38
   1   6   6 29628.1 1512.24  55
   1   6   7 6535.88 681.504  38
   1   6   7 7332.08 658.501  55
   1   6   8 15816.5 807.345  38
   1   6   8 16394.0 766.607  55
   1   7  -8 26383.5 985.451  44
   1   7  -8 23003.0 778.619  38
   1   7  -7 56509.6 1750.32  44
   1   7  -7 48662.7 1474.17  38
   1   7  -6 208.524 204.341  44
   1   7  -6-273.375 191.986  38
   1   7  -5 21155.9 1261.03  44
   1   7  -5 18439.6 1116.85  38
   1   7  -4 49561.9 1925.15  44
   1   7  -4 46759.3 1816.12  38
   1   7  -3 7415.88 745.700  44
   1   7  -3 7524.16 771.032  38
   1   7  -3 6265.71 822.809  55
   1   7  -2 52899.0 1954.36  38
   1   7  -2 52758.3 2320.43  55
   1   7  -1 818.778 284.971  44
   1   7  -1 321.699 237.740  38
   1   7  -1 968.143 477.305  55
   1   7   0 54698.4 1837.09  44
   1   7   0 48593.9 1923.14  38
   1   7   0 48591.4 2279.36  55
   1   7   1 10589.8 800.256  44
   1   7   1 8583.63 863.183  38
   1   7   1 9717.29 1011.38  55
   1   7   2 21150.9 1317.51  38
   1   7   2 21956.3 1434.32  55
   1   7   3 25897.5 1480.28  38
   1   7   3 30705.6 1578.15  55
   1   7   4 125.962 184.019  38
   1   7   4 293.631 283.641  55
   1   7   5 64508.4 1857.70  38
   1   7   5 73823.7 1975.44  55
   1   7   6 19656.7 848.054  55
   1   8  -4 13493.0 717.964  44
   1   8  -3 79007.5 1748.66  44
   1   8  -2 13.0089 68.8842  44
   1   8  -2 468.759 149.863  55
   1   8  -1 67178.7 1986.34  55
   1   8   0 1145.16 268.146  55
   1   8   1 7562.77 659.941  55
   1   8   2 39395.2 1334.88  55
   1   8   3 414.694 136.903  55
   2  -8  -6 18390.0 766.751  56
   2  -8  -5 47441.0 1134.93  24
   2  -8  -5 47627.2 1530.77  56
   2  -8  -4 28959.6 1027.59  24
   2  -8  -4 29334.2 1390.03  56
   2  -8  -3 58528.5 2175.05  56
   2  -8  -3 61521.6 1584.40  24
   2  -8  -2-59.3733 148.738  41
   2  -8  -2 48.7695 100.733  24
   2  -8  -1 75619.6 2247.28  41
   2  -8  -1 79691.3 1827.13  24
   2  -8  -1 79595.2 2966.59  56
   2  -8   0 9475.64 828.875  41
   2  -8   0 10709.0 682.241  24
   2  -8   0 9798.59 1096.68  56
   2  -8   1 20055.7 1261.28  41
   2  -8   1 20656.3 941.234  24
   2  -8   2 37904.8 1767.15  41
   2  -8   2 39262.4 1579.85  26
   2  -8   3 93.3084 154.042  53
   2  -8   3 133.769 138.876  41
   2  -8   3 447.597 188.438  26
   2  -8   4 35320.1 1364.82  53
   2  -8   4 39156.9 1571.04  26
   2  -8   5 49904.6 1718.44  41
   2  -8   5 49707.1 1563.95  26
   2  -8   6 52081.2 1283.77  41
   2  -8   6 53034.2 1337.52  26
   2  -8   7 57396.9 1299.30  53
   2  -8   7 55602.2 1028.46  26
   2  -7  -9 49714.7 1013.12  39
   2  -7  -8-0.54044 76.1866  20
   2  -7  -8 145.104 131.267  39
   2  -7  -8 40.4806 117.746  56
   2  -7  -7 51069.9 1722.53  56
   2  -7  -7 48306.1 1482.73  39
   2  -7  -7 48419.7 1348.33  20
   2  -7  -6 21308.4 1102.04  39
   2  -7  -6 22753.3 1083.34  24
   2  -7  -6 21294.8 1305.84  56
   2  -7  -6 22861.8 1065.16  20
   2  -7  -5 26262.5 1212.95  20
   2  -7  -5 28766.2 1401.23  39
   2  -7  -5 27993.2 1619.80  56
   2  -7  -5 29926.4 1320.38  24
   2  -7  -4 14832.7 1078.45  41
   2  -7  -4 14441.2 1222.20  56
   2  -7  -4 16896.2 992.610  24
   2  -7  -3 4361.96 613.482  41
   2  -7  -3 3127.08 628.129  56
   2  -7  -3 4183.56 513.212  24
   2  -7  -2 81911.5 2584.68  41
   2  -7  -2 79806.0 3112.57  56
   2  -7  -2 84948.5 2160.10  24
   2  -7  -2 79903.3 2019.37  14
   2  -7  -1 9906.19 953.002  41
   2  -7  -1 9229.15 1139.67  56
   2  -7  -1 10070.8 733.309  24
   2  -7  -1 9959.99 697.101  14
   2  -7   0 28268.5 1577.31  41
   2  -7   0 29106.3 2106.78  56
   2  -7   0 25568.1 1051.23  14
   2  -7   1 10644.8 1018.85  41
   2  -7   1 11019.5 1024.73  26
   2  -7   1 9128.51 621.208  14
   2  -7   2 45069.8 1780.11  53
   2  -7   2 46338.4 2129.48  41
   2  -7   2 43153.0 1282.35  14
   2  -7   2 45336.7 2278.80  26
   2  -7   3 34043.2 1141.45  14
   2  -7   3 36831.5 1983.43  41
   2  -7   3 38802.5 2112.98  26
   2  -7   3 40236.2 1740.86  53
   2  -7   4 28535.3 1715.09  26
   2  -7   4 27073.3 1511.66  53
   2  -7   5 33354.6 1811.80  41
   2  -7   5 38140.3 1787.08  26
   2  -7   5 34416.1 1746.02  53
   2  -7   6 81553.4 2435.07  41
   2  -7   6 78938.6 2255.96  26
   2  -7   7 5891.13 719.723  53
   2  -7   7 7105.20 591.277  26
   2  -7   8 37366.8 1102.00  26
   2  -7   8 38671.8 994.431  25
   2  -7   9 2421.13 215.147  26
   2  -7   9 2659.81 215.156  25
   2  -7   9 3041.63 325.698  53
   2  -6 -10 35817.4 1008.44  18
   2  -6 -10 38509.3 1139.63  39
   2  -6  -9 9688.18 688.835  39
   2  -6  -9 9795.22 640.600  20
   2  -6  -8 20394.4 1124.68  39
   2  -6  -8 20744.1 1183.12  56
   2  -6  -8 23755.5 1096.95  24
   2  -6  -8 21695.1 1080.86  20
   2  -6  -7 35824.4 1600.39  39
   2  -6  -7 32286.8 1404.33  24
   2  -6  -7 35464.8 1755.10  56
   2  -6  -7 33511.8 1481.70  20
   2  -6  -6 18344.9 1142.02  20
   2  -6  -6 19809.4 1280.90  39
   2  -6  -6 19229.1 1229.78  37
   2  -6  -6 18164.5 1341.47  56
   2  -6  -6 19098.7 1153.45  14
   2  -6  -6 19828.7 1135.70  24
   2  -6  -5 165723. 3837.10  39
   2  -6  -5 155439. 3482.57  37
   2  -6  -5 151024. 3952.51  56
   2  -6  -5 149983. 3190.92  14
   2  -6  -5 172855. 3250.76  24
   2  -6  -5 141179. 3153.17  20
   2  -6  -4 2876.68 438.565  24
   2  -6  -4 3835.24 588.430  41
   2  -6  -4 3031.55 562.735  39
   2  -6  -4 2242.01 401.079  37
   2  -6  -4 2099.82 524.363  56
   2  -6  -4 2491.40 414.868  14
   2  -6  -3 72787.4 2187.04  31
   2  -6  -3 74438.4 2200.12  37
   2  -6  -3 75135.0 2069.49  14
   2  -6  -2 32767.6 1506.56  31
   2  -6  -2 34216.7 1419.30  37
   2  -6  -2 34015.2 1346.68  14
   2  -6  -1 29711.8 1215.21  14
   2  -6  -1 28311.8 1435.62  31
   2  -6  -1 26320.6 1208.44  37
   2  -6   0 37811.2 1718.98  31
   2  -6   0 37486.2 1418.40  37
   2  -6   0 39426.0 1355.41  14
   2  -6   1 2266.28 478.700  31
   2  -6   1 3177.21 376.526  14
   2  -6   2 73809.3 2686.65  31
   2  -6   2 81126.0 3106.44  30
   2  -6   2 79699.7 1800.47  14
   2  -6   3 29222.6 1774.89  31
   2  -6   3 31537.7 1857.43  30
   2  -6   3 35312.8 1199.12  14
   2  -6   4 39452.6 2071.69  31
   2  -6   4 42636.3 2159.11  41
   2  -6   4 43314.0 2043.43  30
   2  -6   4 52898.0 2373.52  26
   2  -6   4 55487.8 2256.59  53
   2  -6   5 86471.7 2461.47  43
   2  -6   5 78196.6 2863.96  41
   2  -6   5 75170.9 2515.44  30
   2  -6   5 90472.0 2891.51  26
   2  -6   5 88481.4 3025.20  53
   2  -6   6 17416.2 1171.09  43
   2  -6   6 18262.8 1209.15  26
   2  -6   6 17678.0 1046.21  25
   2  -6   6 15534.9 1343.23  53
   2  -6   7 80202.1 2561.76  43
   2  -6   7 97129.1 2500.13  26
   2  -6   7 98070.3 2374.02  25
   2  -6   7 82342.9 2975.35  53
   2  -6   8 14756.1 880.566  26
   2  -6   8 14646.3 865.550  25
   2  -6   8 13296.4 1115.47  53
   2  -6   9 23077.6 1220.26  43
   2  -6   9 22263.4 897.810  26
   2  -6   9 23840.1 970.989  25
   2  -6  10 71144.4 1751.93  43
   2  -6  10 70393.6 1394.66  25
   2  -6  11 1542.36 165.349  25
   2  -5 -12 33825.9 882.758  18
   2  -5 -12 31188.7 768.112  15
   2  -5 -11 32842.5 1099.25  39
   2  -5 -11 30339.8 998.381  54
   2  -5 -11 32026.4 1012.12  15
   2  -5 -10 1091.01 250.237  15
   2  -5 -10 1189.36 253.451  39
   2  -5 -10 1575.34 281.447  20
   2  -5  -9 66732.7 2085.86  39
   2  -5  -9 62939.4 1748.95  15
   2  -5  -9 62742.9 1939.28  20
   2  -5  -8 50318.3 1925.47  39
   2  -5  -8 49953.3 1897.45  37
   2  -5  -8 44939.9 1935.13  56
   2  -5  -8 45934.6 1690.49  24
   2  -5  -8 51827.7 1883.98  20
   2  -5  -7 9854.05 911.456  39
   2  -5  -7 10613.2 943.786  37
   2  -5  -7 9132.31 773.001  24
   2  -5  -7 8523.20 952.693  56
   2  -5  -7 10953.2 1204.87   5
   2  -5  -7 10047.6 872.301  20
   2  -5  -7 9213.49 830.225  49
   2  -5  -6 77140.6 2488.65  37
   2  -5  -6 65421.9 2312.48  49
   2  -5  -5 1623.14 452.189   5
   2  -5  -5 1224.01 368.617  37
   2  -5  -5 1901.76 420.455  49
   2  -5  -4 17942.9 1035.90  31
   2  -5  -4 18328.8 1073.14  37
   2  -5  -4 21360.1 1471.18   5
   2  -5  -4 19243.1 1338.80  49
   2  -5  -3 153209. 2900.70  37
   2  -5  -3 150833. 2640.13  14
   2  -5  -3 151358. 3764.15  49
   2  -5  -3 147451. 3623.09   5
   2  -5  -2 40235.8 1529.34  31
   2  -5  -2 39162.7 1292.19  14
   2  -5  -2 37426.3 1354.67  37
   2  -5  -1 170120. 3160.36  31
   2  -5  -1 174005. 2811.86  37
   2  -5  -1 163369. 2583.67  14
   2  -5   0 701.749 247.063  31
   2  -5   0 488.060 182.257  37
   2  -5   0 596.803 201.792  14
   2  -5   1 148690. 3197.32  31
   2  -5   1 151707. 2624.98  37
   2  -5   1 154958. 2391.81  14
   2  -5   2 12211.2 990.484  31
   2  -5   2 9056.11 579.768  14
   2  -5   3 23304.2 1459.58  31
   2  -5   3 24247.7 1524.09  30
   2  -5   3 26515.7 980.446  14
   2  -5   4 220974. 4543.03  31
   2  -5   4 229837. 4612.63  30
   2  -5   4 297101. 4208.76   9
   2  -5   4 287979. 3298.95  14
   2  -5   5 11198.1 1004.91  30
   2  -5   5 12921.7 989.310   9
   2  -5   6 72504.2 2410.23  30
   2  -5   6 75395.7 2593.31   9
   2  -5   7 42545.8 2188.85  53
   2  -5   7 40842.6 1900.79  43
   2  -5   7 42709.5 1769.86  30
   2  -5   7 43887.8 2032.38   9
   2  -5   7 45906.7 1766.50  26
   2  -5   7 48428.9 1769.71  25
   2  -5   8 4931.49 674.932  43
   2  -5   8 5790.88 581.565  26
   2  -5   8 5991.38 596.967  25
   2  -5   8 6635.15 812.791  53
   2  -5   9 142437. 2700.34  25
   2  -5   9 153626. 3426.85  53
   2  -5  10 1876.61 411.595  43
   2  -5  10 2665.44 337.812  25
   2  -5  10 2250.72 363.245  53
   2  -5  11 109868. 2291.71  43
   2  -5  11 97713.8 1707.35  25
   2  -5  12 19039.2 728.732  43
   2  -5  12 18548.9 576.086  25
   2  -4 -13 19904.3 649.565  18
   2  -4 -13 19473.2 712.850  54
   2  -4 -13 19707.0 679.051  15
   2  -4 -12 17695.4 744.852  39
   2  -4 -12 18543.5 835.697  15
   2  -4 -12 17132.9 857.430  54
   2  -4 -11 535.065 187.184  15
   2  -4 -11-36.9576 127.250  39
   2  -4 -10 102674. 2542.75  39
   2  -4 -10 95612.7 2286.38  15
   2  -4 -10 96121.3 2503.04  54
   2  -4 -10 101390. 2461.91  20
   2  -4  -9 55078.5 1983.00  39
   2  -4  -9 53394.7 1873.12  37
   2  -4  -9 51299.9 1727.15  15
   2  -4  -9 51640.7 1927.05  54
   2  -4  -9 53190.6 1918.94  20
   2  -4  -8 85199.7 2543.31  37
   2  -4  -8 80801.8 3323.37   5
   2  -4  -7 94751.4 3607.50   5
   2  -4  -7 87875.8 2529.53  49
   2  -4  -6 67358.6 2199.56  37
   2  -4  -6 64642.2 2826.78   5
   2  -4  -6 63276.1 2171.94  49
   2  -4  -5 149334. 3037.90  37
   2  -4  -5 146453. 3864.67   5
   2  -4  -5 148758. 3390.38  49
   2  -4  -4 88556.1 2121.07  31
   2  -4  -4 88194.4 2092.23  37
   2  -4  -4 94580.9 2754.98  49
   2  -4  -3 989.690 310.567   5
   2  -4  -3 924.611 243.361  31
   2  -4  -3 1304.19 253.624  37
   2  -4  -3 589.345 310.134  49
   2  -4  -2 232250. 3249.20  31
   2  -4  -2 235671. 3735.30   5
   2  -4  -2 236380. 2923.30  37
   2  -4  -1 511.538 216.111   5
   2  -4  -1 327.424 179.832  31
   2  -4  -1 579.831 171.609  37
   2  -4  -1 539.437 157.708  14
   2  -4   0 251194. 3412.43  31
   2  -4   0 245580. 2903.39  37
   2  -4   0 242009. 2676.27  14
   2  -4   1 15560.5 910.922  31
   2  -4   1 17257.5 1150.08  30
   2  -4   1 15736.8 749.006  37
   2  -4   1 18182.1 716.323   9
   2  -4   1 14962.6 664.421  14
   2  -4   2 174953. 3184.36  31
   2  -4   2 180608. 2469.96   9
   2  -4   2 179765. 2199.66  14
   2  -4   3 167796. 2167.59  14
   2  -4   3 156066. 3458.30  30
   2  -4   4 1392.75 354.708  30
   2  -4   4 1692.13 247.818  14
   2  -4   5 79002.3 2472.77  30
   2  -4   6 32835.4 1537.73  30
   2  -4   7 51947.4 1897.03  30
   2  -4   8 147751. 3109.39  30
   2  -4   9 12132.4 1083.60  43
   2  -4   9 11639.3 1059.78  40
   2  -4  10 58120.2 2156.96  43
   2  -4  10 53902.7 2035.33  40
   2  -4  10 60469.9 1699.49  25
   2  -4  11 42972.5 1562.46  40
   2  -4  11 44466.5 1297.86  25
   2  -4  12 20695.9 926.845  43
   2  -4  12 18584.6 701.758  25
   2  -4  13 15243.4 581.357  43
   2  -3 -14 4906.71 305.633  15
   2  -3 -14 4935.88 339.319  54
   2  -3 -13 126218. 1908.04  18
   2  -3 -13 125923. 2108.62  15
   2  -3 -13 130547. 2344.01  54
   2  -3 -12 4517.17 485.069  15
   2  -3 -12 4974.60 572.516  54
   2  -3 -11 59718.7 1843.18  39
   2  -3 -11 60713.5 1877.52  15
   2  -3 -11 61813.7 2058.18  54
   2  -3 -10 67788.3 2111.60  39
   2  -3 -10 64778.5 1906.15  37
   2  -3 -10 65747.0 2005.39  15
   2  -3 -10 65889.8 2205.62  54
   2  -3  -9 57805.5 2625.85   5
   2  -3  -9 62279.0 1985.23  37
   2  -3  -9 54197.7 1872.92  49
   2  -3  -8 118237. 3717.31   5
   2  -3  -8 120989. 2857.23  37
   2  -3  -8 110382. 2684.78  49
   2  -3  -7 5405.50 783.766   5
   2  -3  -7 5731.77 630.724  37
   2  -3  -6 178495. 4219.44   5
   2  -3  -6 181750. 3409.94  49
   2  -3  -5 68187.3 1824.53  37
   2  -3  -5 71078.0 2134.49  49
   2  -3  -4 8772.02 622.515  31
   2  -3  -4 6236.81 663.235   5
   2  -3  -4 7197.59 524.097  37
   2  -3  -4 8284.36 754.289  49
   2  -3  -3 391743. 3929.21  31
   2  -3  -3 383544. 4926.19  49
   2  -3  -2 1481.48 248.136  31
   2  -3  -2 1351.17 200.983  37
   2  -3  -2 1661.34 300.977   5
   2  -3  -2 1471.45 176.662  51
   2  -3  -2 1608.67 335.959  49
   2  -3  -1 384104. 3628.28  31
   2  -3  -1 376998. 3012.37  37
   2  -3  -1 360948. 2504.16   9
   2  -3  -1 369844. 3781.49   5
   2  -3  -1 385187. 2721.61  14
   2  -3  -1 391431. 3913.55  49
   2  -3   0 47564.9 1281.73  31
   2  -3   0 47769.1 1554.55  30
   2  -3   0 47255.0 1074.83  37
   2  -3   0 47196.9 968.051  14
   2  -3   1 93608.1 1859.43  31
   2  -3   1 102541. 2427.77  30
   2  -3   1 98432.4 1596.36  37
   2  -3   1 92063.7 1484.41   9
   2  -3   1 98383.9 1389.08  14
   2  -3   2 146041. 2997.15  30
   2  -3   2 140671. 1999.03   9
   2  -3   2 143181. 1666.47  14
   2  -3   3 39623.2 967.275  10
   2  -3   3 39731.9 910.150  14
   2  -3   4 373728. 4908.29  30
   2  -3   5 41098.5 1607.23  30
   2  -3   5 56248.8 1791.56  33
   2  -3   6 94778.0 2437.99  30
   2  -3   7 54403.7 1821.03  30
   2  -3   8 2062.53 377.020  35
   2  -3   9 125765. 3094.82   9
   2  -3   9 135634. 2911.50  35
   2  -3  10 24763.9 1412.02  43
   2  -3  10 22301.4 1389.02  40
   2  -3  10 23499.8 2252.91  27
   2  -3  10 25764.0 1123.34  25
   2  -3  11 23038.1 1234.69  43
   2  -3  11 23065.5 1272.79  40
   2  -3  11 26525.7 2318.27  27
   2  -3  11 22324.1 957.274  25
   2  -3  12 60430.6 1677.90  43
   2  -3  12 59212.4 1736.43  40
   2  -3  12 60629.2 1335.61  25
   2  -3  13 114.377 76.7438  43
   2  -3  13-40.9521 113.770  40
   2  -3  13 94.2244 281.789  27
   2  -2 -14 16672.2 664.148  15
   2  -2 -14 17699.8 771.522  54
   2  -2 -13 57.8759 185.686  54
   2  -2 -13 313.403 150.935  15
   2  -2 -12 26848.3 1236.17  15
   2  -2 -12 27949.7 1375.12  54
   2  -2 -11 67013.1 2048.68  15
   2  -2 -11 72861.2 2327.11  54
   2  -2 -10 31036.9 1714.18   5
   2  -2  -9 167305. 3884.11   5
   2  -2  -9 173198. 3052.59  37
   2  -2  -9 165563. 3131.73  49
   2  -2  -8 1857.43 473.434   5
   2  -2  -8 2440.91 417.409  37
   2  -2  -8 2395.90 387.014  49
   2  -2  -7 148007. 3557.95   5
   2  -2  -7 141655. 2726.54  37
   2  -2  -6 47461.9 1903.94   5
   2  -2  -6 44960.3 1442.68  37
   2  -2  -6 45715.1 1574.26  49
   2  -2  -5 2524.16 450.982   5
   2  -2  -5 2614.47 335.258  37
   2  -2  -5 2902.41 402.227  34
   2  -2  -5 2867.35 408.628  49
   2  -2  -4 328790. 3915.45  34
   2  -2  -4 326468. 2991.56  37
   2  -2  -3 189446. 2602.73   5
   2  -2  -3 197474. 3041.46  49
   2  -2  -2 3621.00 352.035  31
   2  -2  -2 2893.16 315.806   5
   2  -2  -2 3352.90 255.485  51
   2  -2  -2 3578.84 382.159  49
   2  -2  -1 4400.60 361.404  31
   2  -2  -1 4191.18 253.432  51
   2  -2  -1 4820.99 253.780  11
   2  -2  -1 4563.37 323.090  29
   2  -2  -1 3794.66 320.066   5
   2  -2  -1 4080.23 332.399  49
   2  -2   0 1180.59 197.291  31
   2  -2   0 1063.36 147.875   2
   2  -2   0 1000.67 198.901  29
   2  -2   0 1367.87 268.006  28
   2  -2   0 1208.72 159.132   9
   2  -2   0 938.911 125.885  51
   2  -2   1 98282.3 1664.00  31
   2  -2   1 89472.4 1931.54  30
   2  -2   1 111775. 1906.25  28
   2  -2   1 109735. 1485.70   9
   2  -2   1 95004.0 1174.71  51
   2  -2   2 31033.6 966.103  31
   2  -2   2 31454.1 1208.54  30
   2  -2   2 35148.0 953.368  28
   2  -2   2 34188.6 903.235   9
   2  -2   2 30215.4 729.657  51
   2  -2   3 163532. 1813.55  10
   2  -2   3 158036. 1871.74  51
   2  -2   4 114715. 1889.44  51
   2  -2   4 117480. 1761.23  35
   2  -2   5 40804.4 1437.65  30
   2  -2   5 35348.9 1179.92  35
   2  -2   6 97468.7 2239.49  30
   2  -2   6 88802.5 2145.75  35
   2  -2   7 14045.5 953.783  35
   2  -2   8 67819.6 2178.67  35
   2  -2   9 90483.2 2492.45   9
   2  -2   9 95414.8 2582.86  35
   2  -2  10 660.641 275.298  43
   2  -2  10 707.553 241.584  40
   2  -2  10 854.500 549.330  27
   2  -2  10 530.147 242.033  35
   2  -2  11 73617.6 2099.69  43
   2  -2  11 71525.4 2262.63  40
   2  -2  11 71185.6 3766.09  27
   2  -2  11 73922.0 1982.72  35
   2  -2  12 1513.43 283.221  43
   2  -2  12 1436.05 338.770  40
   2  -2  12 1269.59 703.338  27
   2  -2  13 56677.7 1492.60  40
   2  -2  13 85166.7 3365.42  27
   2  -2  14 10637.3 467.635  40
   2  -2  14 12484.3 978.817  27
   2  -1 -14 1381.40 177.781  17
   2  -1 -14 1275.31 253.244  54
   2  -1 -13 124776. 2402.79  15
   2  -1 -13 129851. 2700.03  54
   2  -1 -12 14354.8 797.639  17
   2  -1 -12 17530.6 1014.75  15
   2  -1 -12 16660.7 1091.16  54
   2  -1 -11 4675.73 609.644   5
   2  -1 -11 5026.16 509.976  17
   2  -1 -11 5412.34 600.566  15
   2  -1 -10 101858. 2816.02   5
   2  -1  -9 18318.0 1146.42   5
   2  -1  -8 165002. 3223.49   5
   2  -1  -8 157071. 2859.74  49
   2  -1  -7 158098. 2635.28  34
   2  -1  -7 164080. 2838.16  49
   2  -1  -7 163095. 3110.80   5
   2  -1  -6 147487. 4559.40   6
   2  -1  -6 148599. 2838.53   5
   2  -1  -5 226498. 5520.39   6
   2  -1  -5 222950. 3002.06  34
   2  -1  -5 213811. 3151.92   5
   2  -1  -5 216191. 3108.55  49
   2  -1  -4 42983.8 900.970  47
   2  -1  -4 42104.0 1317.92  49
   2  -1  -4 47365.5 1306.27  34
   2  -1  -4 46012.7 1327.70   5
   2  -1  -3 26382.4 622.184  47
   2  -1  -3 23959.6 910.162  49
   2  -1  -3 24387.5 807.019   5
   2  -1  -2 34976.9 667.655  47
   2  -1  -2 34743.3 963.837  49
   2  -1  -2 36506.8 1044.46  28
   2  -1  -1 5473.25 258.199  47
   2  -1  -1 4610.09 248.999  11
   2  -1  -1 5305.16 408.397  28
   2  -1  -1 5037.32 329.008  10
   2  -1  -1 4949.83 269.418  51
   2  -1   0 77299.0 1005.03  11
   2  -1   0 85145.9 1515.57  28
   2  -1   0 89058.6 1216.90   9
   2  -1   0 75172.8 992.995  51
   2  -1   0 84269.7 1030.85  47
   2  -1   1 217909. 1831.70   2
   2  -1   1 220841. 2563.58  29
   2  -1   1 216545. 2229.57  28
   2  -1   1 198583. 1894.77  10
   2  -1   1 197386. 1952.10   8
   2  -1   1 231279. 2031.15   9
   2  -1   1 210342. 1705.25  51
   2  -1   2 17728.4 814.458  29
   2  -1   2 18969.3 591.213  10
   2  -1   2 19837.7 597.412   2
   2  -1   2 20142.2 682.712   8
   2  -1   2 16999.8 539.169  51
   2  -1   3 101035. 1367.65   7
   2  -1   3 112581. 1489.87  10
   2  -1   3 96367.0 1439.35   2
   2  -1   3 103390. 1503.07  51
   2  -1   3 106785. 1636.92   9
   2  -1   3 103422. 1721.30   8
   2  -1   4 197011. 2141.78  10
   2  -1   4 196287. 2291.55  35
   2  -1   4 185703. 2451.99   9
   2  -1   4 188312. 2597.54   8
   2  -1   4 184791. 2345.85  51
   2  -1   4 184825. 2102.89   7
   2  -1   5 39464.8 1242.56  35
   2  -1   5 37346.7 1253.25   8
   2  -1   5 39894.2 1127.71   7
   2  -1   6 23503.2 1112.14  35
   2  -1   6 24080.6 1045.65   8
   2  -1   6 23635.0 1000.85   7
   2  -1   7 89715.1 2385.79  35
   2  -1   7 87118.0 2124.92   7
   2  -1   8 66016.7 2171.14  35
   2  -1   9 21959.2 1271.82  35
   2  -1  10 58538.3 2136.13  40
   2  -1  10 71726.4 2188.49  38
   2  -1  10 56862.6 3324.54  27
   2  -1  10 70357.7 2194.20  35
   2  -1  10 65018.7 1956.97  52
   2  -1  11 9573.73 841.499  40
   2  -1  11 10850.7 736.452  52
   2  -1  11 10738.3 1467.23  27
   2  -1  11 10774.8 790.346  35
   2  -1  12 51817.1 1719.81  40
   2  -1  12 53921.8 3126.63  27
   2  -1  12 51570.7 1378.90  52
   2  -1  13 22964.4 975.944  40
   2  -1  13 28919.8 2039.21  27
   2  -1  14 9023.48 470.185  40
   2  -1  14 12316.8 1095.09  27
   2   0 -14 62195.8 1252.49  17
   2   0 -13 24781.2 1072.65  45
   2   0 -13 24493.6 972.018  17
   2   0 -12 2425.37 436.942  45
   2   0 -12 2663.37 357.720  17
   2   0 -12 2997.40 450.562  15
   2   0 -12 2326.89 407.151  54
   2   0 -11 140561. 2929.59  15
   2   0 -11 137205. 3042.58  45
   2   0 -11 134978. 3093.25   5
   2   0 -10 15214.4 1640.41   6
   2   0 -10 15286.3 1026.47   5
   2   0  -9 159962. 5262.86   6
   2   0  -9 172924. 3310.16   5
   2   0  -8 145709. 4917.32   6
   2   0  -8 173974. 2816.34  34
   2   0  -7 32513.0 1195.71  34
   2   0  -7 33413.9 1281.74  49
   2   0  -6 209247. 3001.56  34
   2   0  -6 219860. 3221.85  49
   2   0  -5 122934. 2264.01  34
   2   0  -5 108925. 2175.23  49
   2   0  -4 253762. 3196.84  34
   2   0  -4 228624. 2923.20  49
   2   0  -3 85785.4 2397.85   6
   2   0  -3 113187. 1825.74  49
   2   0  -2 14710.5 499.591  47
   2   0  -2 15215.3 494.477  51
   2   0  -2 13987.7 577.317  49
   2   0  -1 118160. 1348.39  47
   2   0  -1 139951. 2800.63   3
   2   0   0 7764.65 342.968  47
   2   0   0 7551.19 314.121  11
   2   0   0 7568.54 401.671  10
   2   0   0 9260.51 570.338   3
   2   0   0 6694.77 301.595  51
   2   0   0 9164.94 408.261  48
   2   0   1 508246. 3701.46  50
   2   0   1 512455. 2855.07  48
   2   0   1 515140. 2747.74  51
   2   0   2 123804. 1508.84   7
   2   0   2 120359. 1696.34  10
   2   0   2 121758. 1480.09  51
   2   0   2 127651. 1591.95   1
   2   0   2 130365. 1527.97   9
   2   0   2 136214. 2111.62  50
   2   0   2 126841. 1470.91  48
   2   0   3 59408.7 1287.22  10
   2   0   3 58990.4 1111.86   9
   2   0   3 59734.2 1107.96  35
   2   0   3 59458.8 1185.17  51
   2   0   3 64295.5 1130.08  48
   2   0   3 54603.7 1111.40   7
   2   0   4 306547. 3149.86  10
   2   0   4 309150. 2923.09  35
   2   0   4 306293. 3161.86  51
   2   0   4 309982. 3000.67   7
   2   0   5 1957.40 289.243  10
   2   0   5 2220.10 307.105  35
   2   0   6 357790. 4209.26  35
   2   0   6 367783. 4317.41   7
   2   0   7 82179.3 2255.56  35
   2   0   7 76316.5 2182.20   7
   2   0   8 101020. 2666.35  35
   2   0   8 107828. 2727.85   7
   2   0   9 239420. 4145.64  35
   2   0   9 227127. 3963.66   7
   2   0  10 4271.33 571.865  40
   2   0  10 4113.49 906.511  27
   2   0  10 4934.82 608.523  35
   2   0  10 3911.96 525.691  52
   2   0  10 5560.43 621.040   7
   2   0  11 81786.0 2283.70  40
   2   0  11 88391.0 2211.43  38
   2   0  11 78716.3 3715.63  27
   2   0  11 89441.6 2235.91  35
   2   0  11 88367.8 2172.41  52
   2   0  12 7407.73 638.219  40
   2   0  12 7517.15 571.784  52
   2   0  12 8360.80 1254.87  27
   2   0  13 19364.3 727.248  52
   2   0  13 19462.7 854.447  40
   2   0  13 19428.9 1552.36  27
   2   0  14 67906.0 1156.84  40
   2   0  14 66642.6 2269.94  27
   2   1 -14 11154.5 589.942  45
   2   1 -14 11024.0 539.839  17
   2   1 -13 2535.11 386.704  45
   2   1 -13 2801.63 346.901  17
   2   1 -12 34152.1 1498.31  45
   2   1 -12 30230.9 1201.47  17
   2   1 -11 46585.3 1879.64  45
   2   1 -10 36868.6 1604.54   5
   2   1 -10 34458.8 2614.24   6
   2   1 -10 33001.4 1311.94  34
   2   1  -9 16870.1 1854.39   6
   2   1  -9 16699.3 945.855  34
   2   1  -8 46434.3 2935.78   6
   2   1  -8 66339.6 1878.87  34
   2   1  -7 130299. 4559.90   6
   2   1  -7 161009. 2912.25  34
   2   1  -6 2195.91 565.005   6
   2   1  -6 3269.26 412.948  34
   2   1  -5 37634.5 1705.62   6
   2   1  -5 46726.1 1566.09  34
   2   1  -4 255743. 3297.30  36
   2   1  -4 263443. 3748.17  34
   2   1  -4 266456. 2732.95  32
   2   1  -3 4770.75 317.531  13
   2   1  -3 4140.79 412.487   6
   2   1  -3 3142.41 240.900  51
   2   1  -3 3926.69 466.823  34
   2   1  -3 5104.44 389.452  50
   2   1  -3 4126.13 313.169  32
   2   1  -2 239326. 2403.49   6
   2   1  -2 235576. 2828.86  10
   2   1  -2 234774. 2458.72  50
   2   1  -2 240224. 2203.27  32
   2   1  -1 67029.5 1127.69   6
   2   1  -1 63495.5 922.832  11
   2   1  -1 67777.1 1582.59  10
   2   1  -1 67860.7 1297.63  50
   2   1  -1 64631.2 1148.37  32
   2   1   0 153828. 1696.32  47
   2   1   0 154480. 2408.79  10
   2   1   0 154929. 1619.75   1
   2   1   0 153513. 1455.45  51
   2   1   0 154914. 1993.78  50
   2   1   0 153072. 1818.68  32
   2   1   1 68991.8 1622.26  10
   2   1   1 71931.4 1077.44  51
   2   1   1 67971.9 1311.99  32
   2   1   2 1117.79 173.035   7
   2   1   2 1683.56 285.006  10
   2   1   2 2106.53 270.466  50
   2   1   2 1328.49 178.986  35
   2   1   2 1665.34 208.540  51
   2   1   2 1413.60 198.319  48
   2   1   3 85583.2 1433.33  35
   2   1   3 87914.9 1575.87  51
   2   1   3 86271.4 1546.25  48
   2   1   3 88096.3 1553.15   7
   2   1   4 4788.51 383.920  35
   2   1   4 5013.58 430.390   7
   2   1   4 5834.31 458.118  48
   2   1   5 366079. 4131.81   7
   2   1   5 367810. 4061.05  48
   2   1   6 237426. 3784.90   7
   2   1   6 226972. 3450.93  48
   2   1   7 96537.0 2418.23  35
   2   1   7 109770. 2805.10   7
   2   1   8 276554. 4329.96  35
   2   1   8 296903. 4793.71   7
   2   1   9 11127.6 882.500  35
   2   1   9 12224.2 996.444   7
   2   1  10 47271.6 1745.49  40
   2   1  10 46511.6 2786.14  27
   2   1  10 49193.8 1744.97  52
   2   1  11 66552.2 1927.42  40
   2   1  11 67221.5 1837.92  38
   2   1  11 64907.4 3223.02  27
   2   1  11 70430.9 1917.66  52
   2   1  12 17601.7 853.041  52
   2   1  12 16018.5 844.685  40
   2   1  12 15689.4 788.277  38
   2   1  13 61569.5 1274.37  52
   2   1  13 56950.8 1268.54  40
   2   1  13 61518.0 2399.78  27
   2   2 -14 17908.0 726.146  45
   2   2 -14 19852.8 654.551  17
   2   2 -13 43210.6 1451.40  45
   2   2 -13 43447.7 1220.09  17
   2   2 -12 4113.72 533.236  45
   2   2 -12 3466.40 407.954  17
   2   2 -11 59373.9 2166.20  45
   2   2 -10 7816.32 844.489  45
   2   2 -10 5098.44 1120.66   6
   2   2 -10 5922.37 579.022  34
   2   2  -9 21417.3 2181.77   6
   2   2  -9 27828.7 1298.43  34
   2   2  -8 46428.5 2789.04   6
   2   2  -8 58948.2 1906.17  34
   2   2  -7 12903.9 1352.77   6
   2   2  -7 18798.9 1093.56  34
   2   2  -6 27870.3 1669.28   6
   2   2  -6 27894.9 1345.25  34
   2   2  -6 23650.8 1168.56  32
   2   2  -5 129814. 2877.25   6
   2   2  -5 123029. 2820.11  34
   2   2  -5 119251. 2547.26  50
   2   2  -5 129126. 2554.58  32
   2   2  -4 119339. 1992.59  13
   2   2  -4 120368. 2365.34   6
   2   2  -4 123889. 2210.82  36
   2   2  -4 112680. 2782.50  34
   2   2  -4 108311. 2329.47  50
   2   2  -4 118110. 2245.16  32
   2   2  -3 163394. 1942.54  13
   2   2  -3 160494. 2367.89  36
   2   2  -3 159685. 3361.20  34
   2   2  -3 153321. 2594.99  50
   2   2  -3 154621. 2346.29  32
   2   2  -2 15915.6 671.362   6
   2   2  -2 14049.1 680.684  36
   2   2  -2 14837.9 1010.17  34
   2   2  -2 13121.4 727.185  50
   2   2  -2 12614.0 639.962  32
   2   2  -2 13392.3 519.255  13
   2   2  -1 243516. 2810.18  36
   2   2  -1 253945. 3003.16  50
   2   2  -1 260626. 2831.29  32
   2   2  -1 235854. 2191.61  13
   2   2  -1 263039. 2543.01  48
   2   2   0 10321.5 520.452  48
   2   2   0 10669.3 608.675  36
   2   2   0 11532.7 643.801  50
   2   2   0 10830.2 472.658  13
   2   2   0 10327.5 577.772  32
   2   2   1 61569.4 1502.04  50
   2   2   1 66152.7 1179.00  13
   2   2   1 64554.6 1486.52  32
   2   2   1 62293.6 1299.27  48
   2   2   2 14315.5 647.922   7
   2   2   2 17590.5 897.133  36
   2   2   2 17678.2 846.028  50
   2   2   2 16042.9 598.043  13
   2   2   2 19272.3 870.843  32
   2   2   2 15886.0 706.504  48
   2   2   3 46705.1 1263.36   7
   2   2   3 51551.4 1634.63  36
   2   2   3 50127.0 1500.90  50
   2   2   3 45673.9 1075.84  13
   2   2   3 50456.8 1371.86  48
   2   2   4 140526. 2159.38  35
   2   2   4 141072. 2824.62  36
   2   2   4 140734. 2721.50  50
   2   2   4 145114. 2620.86  48
   2   2   4 142286. 2438.15   7
   2   2   5 87495.9 1875.52  35
   2   2   5 88691.8 2191.88   7
   2   2   5 89371.5 2276.33  48
   2   2   6 73575.7 1936.88  35
   2   2   6 77010.0 2269.49   7
   2   2   6 78423.5 2289.56  48
   2   2   7 111601. 2550.59  35
   2   2   7 117211. 2872.72  48
   2   2   8 649.649 347.561   7
   2   2   8 757.612 269.644  35
   2   2   8 1385.30 388.595  48
   2   2   9 44889.5 2654.31  27
   2   2   9 45923.7 1717.39  35
   2   2   9 44223.2 1646.58  55
   2   2  10 54194.5 1637.62  55
   2   2  10 57022.9 1827.50  52
   2   2  11 10718.1 1192.12  27
   2   2  11 13027.5 799.561  52
   2   2  12 25278.2 1608.15  27
   2   2  12 29588.8 1007.85  52
   2   2  13 1881.76 213.377  52
   2   3 -13 13921.0 745.048  45
   2   3 -13 13585.2 565.271  17
   2   3 -12 54249.4 1784.38  45
   2   3 -12 58022.0 1410.21  17
   2   3 -11 32862.0 1576.35  45
   2   3 -11 30216.7 1146.84  17
   2   3 -10 17580.3 1264.45  45
   2   3 -10 14365.1 915.200  34
   2   3  -9 79204.0 2808.80  45
   2   3  -9 67579.8 2117.08  34
   2   3  -8 2289.67 640.125   6
   2   3  -8 2798.67 450.673  34
   2   3  -7 128209. 3929.06   6
   2   3  -7 129769. 3086.25  34
   2   3  -7 119727. 3000.56  32
   2   3  -6 156927. 3435.85  50
   2   3  -6 157495. 3423.11  32
   2   3  -5 4562.45 551.919   6
   2   3  -5 5587.45 701.528  34
   2   3  -5 4365.03 606.037  50
   2   3  -5 5240.75 611.657  32
   2   3  -4 274210. 3080.97  13
   2   3  -4 284370. 3818.79   6
   2   3  -4 279934. 3548.49  36
   2   3  -4 268210. 4733.83  34
   2   3  -4 261005. 3912.11  32
   2   3  -3 55083.1 1541.55   6
   2   3  -3 54396.9 1543.45  36
   2   3  -3 58681.2 2261.80  34
   2   3  -3 54474.2 1867.43  50
   2   3  -3 54007.2 1666.33  32
   2   3  -3 56091.2 1266.67  13
   2   3  -2 169885. 2667.14  36
   2   3  -2 176833. 3901.81  34
   2   3  -2 174147. 3122.91  50
   2   3  -2 174271. 2851.56  32
   2   3  -2 176535. 2193.82  13
   2   3  -1 81945.1 1885.75  36
   2   3  -1 82927.3 2045.95  50
   2   3  -1 82495.0 1920.21  32
   2   3  -1 83290.8 1557.24  13
   2   3  -1 80533.8 1596.85  48
   2   3   0 15857.9 870.572  36
   2   3   0 15031.8 862.389  50
   2   3   0 16687.9 704.584  13
   2   3   0 16185.3 849.962  32
   2   3   0 14316.2 705.102  48
   2   3   1 234460. 3536.37  36
   2   3   1 235973. 3405.85  50
   2   3   1 232375. 2669.27  13
   2   3   1 228107. 3256.93  32
   2   3   1 231841. 2900.48  48
   2   3   2 36320.1 1504.30  36
   2   3   2 35452.9 1358.98  50
   2   3   2 33897.4 1049.23  13
   2   3   2 33259.6 1312.68  32
   2   3   2 33845.2 1187.23  48
   2   3   3 111340. 2508.35  50
   2   3   3 109547. 1968.01  13
   2   3   3 114350. 2367.68  48
   2   3   4 45311.7 1475.04   7
   2   3   4 51108.6 1991.65  36
   2   3   4 48603.4 1727.87  50
   2   3   4 45338.8 1356.08  13
   2   3   4 47313.5 1679.57  48
   2   3   5 64201.8 1955.73   7
   2   3   5 57946.8 1991.63  50
   2   3   5 61144.2 1705.54  13
   2   3   5 65280.5 2154.60  48
   2   3   6 179769. 3587.16   7
   2   3   6 172980. 3073.06  13
   2   3   6 185988. 3844.82  48
   2   3   7 42443.8 1848.59   7
   2   3   7 43283.9 1879.24  48
   2   3   8 26036.6 1454.18   7
   2   3   8 21580.2 2131.06  42
   2   3   8 24829.7 1366.23  55
   2   3   8 17897.5 1515.00  27
   2   3   8 21077.8 1111.11  13
   2   3   9 102191. 3631.80  27
   2   3   9 99694.6 2500.47  55
   2   3  10 5021.06 787.205  27
   2   3  10 6533.20 532.185  55
   2   3  10 6688.28 583.932  52
   2   3  11 68838.7 1569.73  52
   2   3  12 4116.05 304.927  52
   2   4 -13 11658.5 529.238  45
   2   4 -12 46292.2 1415.58  45
   2   4 -11 2430.22 425.968  45
   2   4 -10 71963.0 2440.02  45
   2   4  -9 7699.28 899.511  45
   2   4  -9 6091.02 637.268  34
   2   4  -8 69889.5 2739.78  45
   2   4  -8 90904.0 2659.86  44
   2   4  -8 64524.3 3065.05   6
   2   4  -8 81676.9 2444.27  34
   2   4  -8 90240.7 2600.32  32
   2   4  -7 101287. 2829.88  34
   2   4  -7 95108.9 2843.13  32
   2   4  -6 2006.96 460.870  32
   2   4  -6 2340.76 510.635   6
   2   4  -6 2765.27 485.658  34
   2   4  -6 2618.34 501.324  50
   2   4  -5 76772.5 2710.95  50
   2   4  -5 78476.8 2553.93  32
   2   4  -4 21576.8 957.733  13
   2   4  -4 21428.3 1168.28   6
   2   4  -4 21750.9 1100.16  36
   2   4  -4 19291.3 1413.55  34
   2   4  -4 17855.7 1276.54  50
   2   4  -4 19332.9 1224.19  32
   2   4  -3 66835.9 1602.07  13
   2   4  -3 60965.1 1883.23   6
   2   4  -3 58947.8 1815.47  36
   2   4  -3 64323.1 2617.15  34
   2   4  -3 62979.9 2071.04  32
   2   4  -2 356378. 4445.38  36
   2   4  -2 363776. 3671.11  13
   2   4  -1 516.894 246.617  32
   2   4  -1 484.601 169.343  13
   2   4  -1 414.214 191.034  36
   2   4  -1 463.576 242.974  50
   2   4   0 180033. 3417.69  50
   2   4   0 182892. 3414.85  36
   2   4   0 178974. 3261.89  32
   2   4   0 175158. 2671.67  13
   2   4   0 181426. 2821.13  48
   2   4   1 40401.9 1621.36  50
   2   4   1 39385.8 1279.48  13
   2   4   1 42757.6 1631.53  32
   2   4   1 41471.7 1401.84  48
   2   4   2 14429.1 1107.71  36
   2   4   2 13692.9 787.995  13
   2   4   2 16263.9 1048.39  32
   2   4   2 13473.7 844.167  48
   2   4   2 14974.6 1001.72  50
   2   4   3 130562. 2986.24  50
   2   4   3 124299. 2426.38  13
   2   4   3 124589. 2727.96  48
   2   4   4 37569.7 1907.40  36
   2   4   4 34812.8 1590.06  50
   2   4   4 34420.2 1337.19  13
   2   4   4 37933.1 1629.84  48
   2   4   5 92053.0 2859.45  36
   2   4   5 92022.4 2602.78  50
   2   4   5 96629.6 2353.34  13
   2   4   5 98431.9 2792.46  48
   2   4   6 15366.1 1204.11  44
   2   4   6 17631.6 1816.55  42
   2   4   6 14108.9 1158.35  55
   2   4   6 15155.4 973.312  13
   2   4   6 17242.0 1231.80  48
   2   4   7 27057.3 2298.46  42
   2   4   7 29131.7 1340.92  13
   2   4   8 76247.6 3969.61  42
   2   4   8 77071.3 2332.21  55
   2   4   9 249.561 472.777  42
   2   4   9 166.532 107.340  52
   2   4  10 122337. 1908.04  55
   2   4  10 104927. 1774.48  52
   2   4  11 2344.82 198.152  52
   2   5 -11 67814.9 1621.66  45
   2   5 -10 13120.7 911.915  45
   2   5 -10 11920.5 658.904  44
   2   5  -9 124137. 3154.65  45
   2   5  -9 130400. 2641.37  44
   2   5  -8 53320.2 2252.50  45
   2   5  -8 62920.9 2122.25  44
   2   5  -7 24687.2 1600.82  45
   2   5  -7 25020.6 1479.97  44
   2   5  -7 24234.3 1318.33  34
   2   5  -6 49575.5 2197.33  45
   2   5  -6 44088.2 2055.39  44
   2   5  -6 47506.2 1945.56  34
   2   5  -5 38276.7 1886.88  45
   2   5  -5 34983.6 1822.44  44
   2   5  -5 36836.4 1841.66  34
   2   5  -5 31301.3 1771.58  50
   2   5  -5 35080.4 1787.83  32
   2   5  -4 33037.8 1638.68  45
   2   5  -4 30984.3 1293.65  13
   2   5  -4 32192.4 1709.88  44
   2   5  -4 34715.6 1610.10   6
   2   5  -4 30053.1 1631.02  32
   2   5  -3 103649. 2632.98  36
   2   5  -3 95893.7 3051.71  50
   2   5  -3 96042.5 2791.32  32
   2   5  -2 12948.0 930.084   6
   2   5  -2 12024.0 906.585  36
   2   5  -2 12340.6 1057.99  50
   2   5  -2 11974.6 962.344  32
   2   5  -2 14438.3 813.115  13
   2   5  -1 117096. 2906.76  36
   2   5  -1 114580. 3095.21  50
   2   5  -1 114656. 2883.19  32
   2   5  -1 123312. 2357.01  13
   2   5   0 3371.40 520.758  36
   2   5   0 3893.46 565.721  50
   2   5   0 3444.62 517.688  32
   2   5   0 3664.06 419.297  13
   2   5   1 69879.6 2450.62  36
   2   5   1 69077.9 2283.62  50
   2   5   1 71752.2 2293.79  32
   2   5   1 69680.7 1872.67  13
   2   5   2 39741.5 1957.59  36
   2   5   2 38704.8 1704.16  50
   2   5   2 36961.5 1673.06  32
   2   5   2 39624.3 1432.30  13
   2   5   2 38528.0 1486.73  48
   2   5   3 21420.3 1374.32  44
   2   5   3 21254.9 1709.86  42
   2   5   3 17832.0 1417.24  55
   2   5   3 17642.1 1367.74  36
   2   5   3 18218.9 1168.06  50
   2   5   3 19831.9 1028.83  13
   2   5   3 17950.3 1086.55  48
   2   5   4 70991.9 2498.48  44
   2   5   4 72148.6 3154.17  42
   2   5   4 51779.3 2276.80  36
   2   5   4 50779.5 2306.56  55
   2   5   4 63794.6 1910.88  13
   2   5   5 1463.43 364.950  44
   2   5   5 2053.98 608.586  42
   2   5   5 1075.20 401.461  36
   2   5   5 2115.28 526.687  55
   2   5   5 2150.62 376.417  13
   2   5   6 59916.2 3221.45  42
   2   5   6 56680.5 2185.41  55
   2   5   7 49494.9 2959.03  42
   2   5   7 48704.9 1848.25  55
   2   5   8 574.670 442.451  42
   2   5   8 742.123 233.588  55
   2   5   9 8228.01 967.199  42
   2   5   9 57062.9 1279.55  55
   2   6  -9 46365.3 1409.08  45
   2   6  -9 45090.2 1196.54  44
   2   6  -8 7206.76 682.240  45
   2   6  -8 8466.13 662.855  44
   2   6  -7 76772.1 2423.18  45
   2   6  -7 79517.8 2304.94  44
   2   6  -6 11126.1 978.210  45
   2   6  -6 9863.91 900.038  44
   2   6  -5 18133.8 1215.76  45
   2   6  -5 15434.3 1167.87  44
   2   6  -4 63348.8 2231.91  45
   2   6  -4 64718.6 2390.41  44
   2   6  -3 3053.91 509.539  45
   2   6  -3 3843.57 620.852  44
   2   6  -2 114608. 2875.63  45
   2   6  -2 109058. 2695.46  36
   2   6  -1 13657.8 774.226  13
   2   6  -1 13013.0 1021.91  44
   2   6  -1 11559.6 916.959  36
   2   6  -1 10749.5 1217.63  55
   2   6   0 10827.4 944.017  44
   2   6   0 7982.03 785.130  36
   2   6   0 9800.18 1141.83  55
   2   6   0 9583.66 650.377  13
   2   6   1 19198.5 1289.42  36
   2   6   1 21955.0 1715.24  55
   2   6   1 20742.1 970.716  13
   2   6   2 3138.40 505.615  44
   2   6   2 3929.52 669.934  55
   2   6   2 4701.74 799.917  42
   2   6   3 143231. 3319.08  44
   2   6   3 120123. 3467.59  55
   2   6   4 7984.02 796.711  44
   2   6   4 7354.08 838.226  55
   2   6   4 9384.24 1130.91  42
   2   6   5 84697.9 2472.41  55
   2   6   5 85136.2 1872.45  22
   2   6   6 26601.0 1811.11  42
   2   6   6 26504.8 1202.42  55
   2   6   7 9775.32 614.616  55
   2   6   7 6505.70 787.305  42
   2   7  -7 12420.0 644.065  44
   2   7  -6 3172.61 405.895  44
   2   7  -5 56508.0 1823.82  44
   2   7  -4 4091.67 544.909  44
   2   7  -3 48729.3 1802.27  44
   2   7  -3 69847.1 2406.70  42
   2   7  -2 4159.92 555.630  44
   2   7  -2 5995.49 717.663  42
   2   7  -1 8897.33 755.835  44
   2   7  -1 8496.77 850.704  55
   2   7   0 22247.1 1160.54  44
   2   7   0 21136.8 1390.18  55
   2   7   1 3766.46 497.022  44
   2   7   1 4286.74 690.252  42
   2   7   1 3358.83 571.155  55
   2   7   2 75565.0 1937.80  44
   2   7   2 73695.2 2332.21  55
   2   7   3 12189.0 999.089  42
   2   7   3 15131.9 962.604  55
   2   7   4 43194.2 1383.93  55
   2   7   4 37676.8 959.193  22
   2   7   5 31884.8 947.902  55
   3  -8  -6 37479.0 1055.61  56
   3  -8  -6 29782.6 775.741  24
   3  -8  -5 1557.67 235.193  24
   3  -8  -5 1774.93 290.231  56
   3  -8  -4 78931.7 2194.97  56
   3  -8  -4 73602.7 1680.95  24
   3  -8  -3 31948.5 1582.70  56
   3  -8  -3 29856.9 1124.53  24
   3  -8  -2 43007.0 2027.01  56
   3  -8  -2 40534.8 1321.73  24
   3  -8  -1 38854.1 1709.40  41
   3  -8  -1 42655.1 2147.21  56
   3  -8  -1 40879.6 1330.91  24
   3  -8   0 2379.02 483.723  41
   3  -8   0 2512.86 355.680  24
   3  -8   1 26654.8 1529.64  41
   3  -8   1 26308.3 1063.28  24
   3  -8   2 21658.1 1415.13  41
   3  -8   2 21339.2 1034.81  26
   3  -8   2 20044.3 922.291  24
   3  -8   3 42162.9 1559.74  26
   3  -8   3 41981.4 1307.94  24
   3  -8   4 56821.0 1797.32  53
   3  -8   4 68640.0 2174.98  41
   3  -8   4 66871.1 1897.18  26
   3  -8   4 53567.7 1418.23  24
   3  -8   5 7256.94 637.476  53
   3  -8   5 7318.25 482.962  24
   3  -8   6 71965.1 1407.74  26
   3  -8   6 63130.2 1597.74  53
   3  -7  -8 23307.8 834.922  39
   3  -7  -8 12917.6 609.935  24
   3  -7  -7 21757.0 945.010  39
   3  -7  -7 25181.9 1037.03  24
   3  -7  -7 22595.7 1120.61  56
   3  -7  -6 7338.82 623.699  39
   3  -7  -6 8790.07 688.974  24
   3  -7  -6 6905.74 745.248  56
   3  -7  -5 18738.9 1307.44  56
   3  -7  -5 19482.7 1065.81  24
   3  -7  -4 5821.68 792.639  56
   3  -7  -4 5424.51 569.291  24
   3  -7  -3 40690.8 1897.12  41
   3  -7  -3 45478.3 2349.79  56
   3  -7  -3 47025.4 1641.24  24
   3  -7  -2 76667.3 2618.78  41
   3  -7  -2 83997.7 3400.60  56
   3  -7  -2 81385.7 2102.02  24
   3  -7  -1 5219.17 716.437  41
   3  -7  -1 6214.20 1108.42  56
   3  -7  -1 5209.19 542.761  24
   3  -7  -1 4807.02 469.493  14
   3  -7   0 109392. 3267.77  41
   3  -7   0 107933. 2730.57  53
   3  -7   0 102087. 2272.46  24
   3  -7   1 1613.02 487.401  41
   3  -7   1 1169.34 325.974  26
   3  -7   1 1174.21 361.689  53
   3  -7   1 1102.32 244.388  14
   3  -7   2 17413.4 1423.96  41
   3  -7   2 20360.0 1431.22  26
   3  -7   2 17842.3 1203.01  53
   3  -7   3 34493.2 2010.50  41
   3  -7   3 38481.5 2020.59  26
   3  -7   3 37163.3 1741.50  53
   3  -7   4 8936.94 1020.77  41
   3  -7   4 9852.02 1010.51  26
   3  -7   4 8368.29 873.560  53
   3  -7   5 85309.9 2593.01  26
   3  -7   5 68188.9 2471.87  53
   3  -7   6 1144.07 320.397  26
   3  -7   6 844.123 411.120  53
   3  -7   7 4550.74 461.097  26
   3  -7   7 4244.24 557.855  53
   3  -7   8 34063.5 951.215  26
   3  -7   8 39327.3 1294.35  53
   3  -6 -10 17040.3 688.969  18
   3  -6 -10 17240.9 729.830  39
   3  -6  -9 28933.8 1103.80  18
   3  -6  -9 26734.3 1084.34  39
   3  -6  -8 96709.2 2327.05  18
   3  -6  -8 95303.6 2287.67  39
   3  -6  -8 92424.1 2482.65  56
   3  -6  -7 13434.1 917.240  24
   3  -6  -7 12553.5 943.376  18
   3  -6  -7 13583.0 940.229  39
   3  -6  -7 13350.2 1061.00  56
   3  -6  -6 34403.2 1480.06  14
   3  -6  -6 38127.5 1693.92  39
   3  -6  -6 35211.8 1648.21  37
   3  -6  -6 34176.9 1836.75  56
   3  -6  -6 35148.2 1517.52  24
   3  -6  -5 12478.2 1032.47  39
   3  -6  -5 9677.57 914.943  37
   3  -6  -5 8513.08 1012.92  56
   3  -6  -5 9962.07 817.434  14
   3  -6  -5 9923.52 826.762  24
   3  -6  -4 24942.2 1510.73  41
   3  -6  -4 25698.1 1396.61  37
   3  -6  -4 25089.0 1710.80  56
   3  -6  -4 26656.1 1275.73  14
   3  -6  -4 27733.5 1302.34  24
   3  -6  -3 166614. 3498.79  31
   3  -6  -3 183499. 4036.30  41
   3  -6  -3 170306. 3418.09  37
   3  -6  -3 179010. 4699.14  56
   3  -6  -3 176159. 3111.66  14
   3  -6  -3 178516. 3155.55  24
   3  -6  -2 505.375 230.817  31
   3  -6  -2 917.397 258.080  37
   3  -6  -2 1139.81 291.922  14
   3  -6  -1 77644.6 2536.98  31
   3  -6  -1 81629.4 2199.25  37
   3  -6  -1 86060.1 2008.09  14
   3  -6   0 12558.8 1090.03  31
   3  -6   0 13161.6 744.729  14
   3  -6   1 48689.7 2229.30  31
   3  -6   1 48211.5 1376.03  14
   3  -6   2 92271.5 3264.18  31
   3  -6   2 91410.7 1885.74  14
   3  -6   3 9959.15 1133.55  31
   3  -6   3 11523.5 679.270  14
   3  -6   3 11664.5 1189.66  41
   3  -6   3 12163.1 1176.18  30
   3  -6   3 12621.9 1265.71  26
   3  -6   3 12609.3 1100.31  53
   3  -6   4 99064.9 3323.54  26
   3  -6   4 99776.7 3121.95  53
   3  -6   5 19717.3 1254.36  43
   3  -6   5 22015.7 1445.80  26
   3  -6   5 19276.3 1436.02  53
   3  -6   6 18120.7 1243.83  43
   3  -6   6 19053.3 1221.60  26
   3  -6   6 18088.1 1022.70  25
   3  -6   6 17975.1 1382.59  53
   3  -6   7 53070.2 1719.44  25
   3  -6   7 54542.5 1819.29  26
   3  -6   7 48460.1 2150.94  53
   3  -6   8 2576.60 503.059  43
   3  -6   8 2839.99 388.464  26
   3  -6   8 2972.30 376.778  25
   3  -6   8 2987.33 502.855  53
   3  -6   9 56248.9 1810.11  43
   3  -6   9 58194.8 1417.30  25
   3  -6   9 60448.6 1609.86  53
   3  -6  10 18097.7 627.281  25
   3  -5 -12 31396.6 788.472  18
   3  -5 -12 27342.0 691.898  39
   3  -5 -11 42405.9 1217.63  18
   3  -5 -11 40765.1 1197.25  39
   3  -5 -10 22167.8 1050.73  18
   3  -5 -10 21232.2 1022.88  39
   3  -5 -10 20151.1 873.746  15
   3  -5  -9 44126.5 1638.60  39
   3  -5  -9 43082.6 1662.79  56
   3  -5  -8 5853.31 656.938  39
   3  -5  -8 5176.07 612.110  37
   3  -5  -8 4542.89 671.814  56
   3  -5  -8 6111.56 624.192  24
   3  -5  -7 60208.9 2144.44  39
   3  -5  -7 59009.4 2139.43  37
   3  -5  -7 58826.9 2370.73  56
   3  -5  -7 56280.0 1962.76  24
   3  -5  -6 22838.8 1385.07  39
   3  -5  -6 21844.8 1327.53  37
   3  -5  -6 22461.1 1532.38  56
   3  -5  -6 20905.2 1174.48  24
   3  -5  -6 24028.4 1746.24   5
   3  -5  -6 19891.0 1300.91  49
   3  -5  -5 22619.5 1636.88   5
   3  -5  -5 20450.8 1243.11  37
   3  -5  -5 19549.3 1078.73  14
   3  -5  -5 18241.2 1309.30  49
   3  -5  -4 178905. 3450.32  37
   3  -5  -4 176487. 3048.14  14
   3  -5  -3 16134.3 1067.65  31
   3  -5  -3 18076.1 1043.46  37
   3  -5  -3 19065.0 949.504  14
   3  -5  -3 15527.9 1199.36   5
   3  -5  -2 205174. 3295.06  37
   3  -5  -2 198328. 2915.93  14
   3  -5  -1 103709. 2284.53  37
   3  -5  -1 107186. 2071.89  14
   3  -5   0 18464.5 1200.74  31
   3  -5   0 20256.4 1008.43  37
   3  -5   0 17364.9 804.078  14
   3  -5   1 87938.6 2781.48  31
   3  -5   1 86374.5 1741.83  14
   3  -5   2 51971.8 2390.97  30
   3  -5   2 50316.2 1322.96  14
   3  -5   3 98262.0 2286.73   9
   3  -5   3 98160.5 1874.31  14
   3  -5   4 60700.4 2425.00  30
   3  -5   4 58672.6 1966.26   9
   3  -5   5 43784.1 1940.29  30
   3  -5   5 42117.0 1835.98   9
   3  -5   6 53776.2 2191.02  43
   3  -5   6 52939.3 2019.98  30
   3  -5   6 55910.4 2108.12  26
   3  -5   6 53009.8 2206.49   9
   3  -5   6 47797.6 1826.58  25
   3  -5   6 46873.5 2245.40  53
   3  -5   7 3159.12 601.944  43
   3  -5   7 3961.93 523.569  26
   3  -5   7 4410.68 591.271  25
   3  -5   7 4409.92 673.326  53
   3  -5   8 75079.4 2031.09  26
   3  -5   8 72967.2 2111.61  25
   3  -5   8 78329.2 2518.45  53
   3  -5   9 23478.7 1082.89  25
   3  -5   9 22021.0 1352.54  43
   3  -5   9 22903.9 977.456  26
   3  -5  10 36046.2 1474.96  43
   3  -5  10 33786.9 1111.30  25
   3  -5  11 78489.4 1674.01  43
   3  -5  11 70290.0 1279.70  25
   3  -4 -13 14326.1 486.218  18
   3  -4 -13 14314.5 537.380  54
   3  -4 -12 15136.3 715.633  18
   3  -4 -12 14018.7 676.286  39
   3  -4 -12 13958.9 685.855  15
   3  -4 -12 14902.8 744.974  54
   3  -4 -11 32171.2 1255.34  39
   3  -4 -11 31265.8 1186.20  15
   3  -4 -11 31809.1 1301.67  54
   3  -4 -10 115538. 2660.14  39
   3  -4 -10 116507. 2490.80  15
   3  -4 -10 112414. 2710.89  54
   3  -4  -9 183.234 184.096  39
   3  -4  -9 466.277 280.336  54
   3  -4  -9 57.9025 163.542  24
   3  -4  -9 842.312 246.742  15
   3  -4  -8 154354. 3362.23  39
   3  -4  -8 158046. 3277.03  37
   3  -4  -8 153337. 4517.91   5
   3  -4  -8 158659. 3717.01  56
   3  -4  -8 164277. 3371.75  24
   3  -4  -7 4336.48 575.999  37
   3  -4  -7 4975.72 861.624   5
   3  -4  -7 3583.44 547.229  49
   3  -4  -6 18678.7 1146.19  37
   3  -4  -6 18178.6 1511.73   5
   3  -4  -6 18380.6 1226.35  49
   3  -4  -5 121103. 2711.14  37
   3  -4  -5 117980. 3517.31   5
   3  -4  -5 122699. 3230.51  49
   3  -4  -4 1423.47 423.508   5
   3  -4  -4 1389.47 291.752  37
   3  -4  -4 932.567 340.696  49
   3  -4  -3 262307. 4019.88  31
   3  -4  -3 251175. 3343.83  37
   3  -4  -3 256296. 2944.04  14
   3  -4  -3 257218. 4257.36   5
   3  -4  -2 30091.6 1342.01  31
   3  -4  -2 28668.5 949.216  14
   3  -4  -2 31234.1 1123.86  37
   3  -4  -2 26753.7 1297.09   5
   3  -4  -2 27207.6 1268.47  49
   3  -4  -1 831.635 277.766  31
   3  -4  -1 1213.46 247.962  37
   3  -4  -1 1375.40 223.893  14
   3  -4   0 64943.7 2025.42  31
   3  -4   0 65973.5 1608.61  37
   3  -4   0 65307.0 1355.49  14
   3  -4   1 2172.71 431.073  31
   3  -4   1 2242.86 262.905  14
   3  -4   1 2440.85 483.726  30
   3  -4   1 2504.29 329.545   9
   3  -4   2 203939. 4009.66  31
   3  -4   2 240581. 4703.36  30
   3  -4   2 209816. 2936.34  10
   3  -4   2 220182. 3030.90   9
   3  -4   2 227881. 2472.27  14
   3  -4   3 97759.7 1690.52  14
   3  -4   3 96965.5 2242.63   9
   3  -4   4 70107.6 2493.13  30
   3  -4   4 61180.9 1979.42   9
   3  -4   5 73050.6 2435.53  30
   3  -4   5 68197.3 2314.41   9
   3  -4   6 4789.28 602.180  30
   3  -4   6 3967.21 605.588   9
   3  -4   7 18716.5 1354.91   9
   3  -4   8 1358.82 447.990  43
   3  -4   8 916.167 380.463  40
   3  -4   8 1114.21 297.016  26
   3  -4   8 1152.33 278.640  25
   3  -4   9 14894.4 1168.33  43
   3  -4   9 12584.9 1137.52  40
   3  -4  10 99858.2 2639.80  43
   3  -4  10 98991.0 2085.90  25
   3  -4  11 184.925 146.091  43
   3  -4  11 37.6192 106.348  25
   3  -4  12 49409.7 1125.47  43
   3  -4  12 50055.7 955.584  25
   3  -3 -13 6141.47 381.208  18
   3  -3 -13 6996.38 476.484  15
   3  -3 -13 7454.39 529.028  54
   3  -3 -12 10728.8 655.841  18
   3  -3 -12 9867.56 637.590  39
   3  -3 -12 10363.4 695.505  15
   3  -3 -12 10119.6 748.982  54
   3  -3 -11 80040.7 2118.89  15
   3  -3 -11 80592.8 2314.85  54
   3  -3 -10 7260.05 711.018  39
   3  -3 -10 6585.52 654.810  15
   3  -3 -10 7078.86 751.719  54
   3  -3  -9 54035.8 1940.09  39
   3  -3  -9 48012.8 2364.18   5
   3  -3  -9 52272.4 1850.45  15
   3  -3  -9 57404.8 2199.76  54
   3  -3  -9 45214.1 1780.83  51
   3  -3  -9 50994.4 1855.33  49
   3  -3  -8 29882.0 1514.03  51
   3  -3  -8 31997.5 1515.54  49
   3  -3  -7 103894. 2531.45  37
   3  -3  -7 98934.5 2691.16  49
   3  -3  -6 223354. 4964.92   5
   3  -3  -6 224395. 3503.97  37
   3  -3  -6 224570. 4086.21  49
   3  -3  -5 3701.27 597.540   5
   3  -3  -5 3525.59 419.819  37
   3  -3  -5 3131.05 416.161  51
   3  -3  -5 3344.65 522.120  49
   3  -3  -4 187752. 3673.88   5
   3  -3  -4 196249. 2715.38  37
   3  -3  -4 175531. 2549.09  51
   3  -3  -4 174439. 3566.37  49
   3  -3  -3 79219.8 1403.28  11
   3  -3  -3 77410.4 2083.49   5
   3  -3  -3 79910.4 1536.65  51
   3  -3  -3 77348.2 2210.00  49
   3  -3  -2 35667.2 1368.87  31
   3  -3  -2 32393.3 865.094  11
   3  -3  -2 31408.5 876.530  51
   3  -3  -2 35603.5 1018.88  37
   3  -3  -2 31527.6 1206.93   5
   3  -3  -2 31405.0 1254.40  49
   3  -3  -1 65188.5 1824.95  31
   3  -3  -1 52211.7 1089.33  11
   3  -3  -1 54887.8 1137.30  51
   3  -3  -1 58329.0 1289.91  37
   3  -3  -1 60614.2 1497.17  49
   3  -3  -1 56732.9 1514.70   5
   3  -3   0 3713.51 469.438  31
   3  -3   0 3671.22 337.141  37
   3  -3   0 3219.54 385.961  10
   3  -3   0 3375.41 325.247   9
   3  -3   0 3102.61 283.696  51
   3  -3   1 77319.0 2043.51  30
   3  -3   1 80505.6 1756.03  10
   3  -3   1 80668.9 1424.22  51
   3  -3   1 81160.6 1629.52   9
   3  -3   2 101315. 2525.34  31
   3  -3   2 110360. 2682.18  30
   3  -3   2 106784. 1941.09  10
   3  -3   2 117951. 2102.51   9
   3  -3   2 106468. 1732.05  51
   3  -3   2 117086. 1508.08  14
   3  -3   3 110163. 1941.68  10
   3  -3   3 113186. 1938.03  51
   3  -3   4 54008.1 1766.54   9
   3  -3   4 70884.5 1723.99  51
   3  -3   5 64981.7 2153.94   9
   3  -3   5 62553.7 1846.52  51
   3  -3   6 113623. 3105.33   9
   3  -3   7 5529.89 772.819   9
   3  -3   8 92195.9 2866.83   9
   3  -3   9 70023.8 2426.52  43
   3  -3   9 75754.1 2095.22  25
   3  -3  10 5138.29 629.712  43
   3  -3  10 4720.67 683.643  40
   3  -3  10 5192.77 501.066  25
   3  -3  11 82948.2 2304.29  40
   3  -3  11 78886.1 1662.91  25
   3  -3  12 10634.2 549.269  43
   3  -3  12 11801.1 715.863  40
   3  -3  12 12443.1 516.158  25
   3  -2 -14 8338.50 487.058  54
   3  -2 -13 773.688 215.684  15
   3  -2 -13 1213.80 290.444  54
   3  -2 -12 41100.0 1176.98  17
   3  -2 -12 45268.7 1553.14  15
   3  -2 -12 45500.6 1688.06  54
   3  -2 -11 28890.1 1222.76  18
   3  -2 -11 29079.9 1307.64  39
   3  -2 -11 25394.5 1064.08  17
   3  -2 -11 27522.3 1310.29  15
   3  -2 -11 29560.0 1475.60  54
   3  -2 -10 43064.6 1688.29  51
   3  -2 -10 42361.9 1962.74   5
   3  -2 -10 42774.0 1691.93  39
   3  -2 -10 43265.7 1518.14  17
   3  -2 -10 46868.9 1765.66  15
   3  -2 -10 48922.3 2005.71  54
   3  -2  -9 60742.1 2427.06   5
   3  -2  -9 59519.6 1985.74  49
   3  -2  -8 16204.9 1247.59   5
   3  -2  -8 16389.6 1067.15  49
   3  -2  -7 25598.1 1544.38   5
   3  -2  -7 21355.5 1306.35  34
   3  -2  -7 24443.0 1300.98  49
   3  -2  -6 14075.4 1095.91   5
   3  -2  -6 13080.8 1031.70  34
   3  -2  -6 12153.7 885.343  51
   3  -2  -6 14645.1 1009.02  49
   3  -2  -5 101045. 2693.38   5
   3  -2  -5 88556.3 2655.59  34
   3  -2  -5 89767.7 1835.16  10
   3  -2  -5 97769.1 2203.67  51
   3  -2  -5 94885.3 2521.88  49
   3  -2  -4 37355.2 1412.48   5
   3  -2  -4 46098.2 1381.35  10
   3  -2  -4 43567.2 1688.26  34
   3  -2  -4 40781.9 1236.98  51
   3  -2  -4 32600.1 1425.60  49
   3  -2  -3 37135.5 1223.75   5
   3  -2  -3 40759.2 1083.16  51
   3  -2  -3 37799.6 1441.64  49
   3  -2  -2 57363.4 1142.98  11
   3  -2  -2 50885.5 1313.22   5
   3  -2  -2 60326.3 1228.37  51
   3  -2  -2 67920.8 1693.03  10
   3  -2  -2 60180.8 1591.66  49
   3  -2  -1 71658.0 1268.59  11
   3  -2  -1 72775.0 1300.28  51
   3  -2  -1 72825.2 1535.39  49
   3  -2   0 86806.6 1421.86  51
   3  -2   0 87366.9 1430.14  11
   3  -2   1 34054.6 1058.07  10
   3  -2   1 34781.1 920.702  51
   3  -2   1 34853.8 1037.33   9
   3  -2   2 34633.7 1038.69  10
   3  -2   2 35688.6 1095.72   9
   3  -2   2 33573.4 956.337  51
   3  -2   3 146163. 1751.94  35
   3  -2   3 150359. 2184.01  10
   3  -2   3 147381. 2161.68  51
   3  -2   4 9346.78 567.657  10
   3  -2   4 8653.22 668.907   9
   3  -2   4 8796.54 501.268  35
   3  -2   4 8638.88 592.149  51
   3  -2   5 29032.5 1344.01   9
   3  -2   5 30363.2 1087.64  35
   3  -2   5 27281.0 1186.94  51
   3  -2   6 19434.7 1010.42  35
   3  -2   6 15883.3 1097.63   9
   3  -2   7 79391.0 2267.43  35
   3  -2   7 62237.0 2253.26   9
   3  -2   8 100009. 2672.40  35
   3  -2   8 76924.1 2469.75   9
   3  -2   9 1802.31 474.152  40
   3  -2   9 2603.71 751.272  27
   3  -2   9 2616.55 466.846  35
   3  -2   9 2308.36 368.436  25
   3  -2   9 2128.96 456.523  52
   3  -2  10 158490. 3648.75  40
   3  -2  10 148546. 4974.15  27
   3  -2  10 189592. 3314.82  35
   3  -2  10 160594. 2677.54  25
   3  -2  10 175757. 3139.79  52
   3  -2  11 21771.1 1239.57  40
   3  -2  11 21131.7 1755.53  27
   3  -2  11 22747.9 962.911  52
   3  -2  12 16092.6 876.964  40
   3  -2  12 17514.1 1545.38  27
   3  -2  13 40092.3 1042.26  40
   3  -2  13 47053.8 1928.07  27
   3  -1 -14 1952.96 187.600  17
   3  -1 -14 2137.34 279.579  54
   3  -1 -13 32342.7 985.778  17
   3  -1 -13 35716.9 1343.86  54
   3  -1 -12 4301.05 431.344  17
   3  -1 -12 4563.19 512.204  15
   3  -1 -12 4932.87 582.883  54
   3  -1 -11 54228.7 1673.26  17
   3  -1 -11 58357.9 1949.16  15
   3  -1 -11 56803.8 2100.59  54
   3  -1 -10 35572.7 1656.77   5
   3  -1 -10 38739.0 1499.72  17
   3  -1 -10 35938.8 1584.82  15
   3  -1 -10 38663.1 1813.35  54
   3  -1  -9 6227.34 723.825   5
   3  -1  -9 5146.05 579.721  34
   3  -1  -9 5979.61 612.368  49
   3  -1  -8 45310.2 1809.85   5
   3  -1  -8 43165.0 2763.82   6
   3  -1  -8 47746.9 1744.62  34
   3  -1  -8 46448.0 1734.07  49
   3  -1  -7 7116.02 1151.98   6
   3  -1  -7 8315.31 732.715  34
   3  -1  -7 7718.18 705.242  49
   3  -1  -7 8933.42 794.753   5
   3  -1  -6 155590. 5022.49   6
   3  -1  -6 167683. 3225.44  34
   3  -1  -6 154248. 3160.80   5
   3  -1  -5 147308. 4813.08   6
   3  -1  -5 148464. 2963.02  34
   3  -1  -5 138777. 2573.91  51
   3  -1  -5 140793. 2779.80   5
   3  -1  -4 6218.65 1035.11   6
   3  -1  -4 7897.16 663.271  34
   3  -1  -4 6301.66 482.413  51
   3  -1  -4 6247.34 609.859  49
   3  -1  -4 7034.12 557.129   5
   3  -1  -3 162303. 2206.79   5
   3  -1  -3 190325. 2287.46  51
   3  -1  -3 202387. 2732.77  10
   3  -1  -3 158624. 4555.42   6
   3  -1  -3 191829. 2900.03  34
   3  -1  -3 184394. 2898.75  49
   3  -1  -2 10209.8 482.520  11
   3  -1  -2 10824.8 637.380  10
   3  -1  -2 8515.46 974.256   6
   3  -1  -2 9825.75 598.194  34
   3  -1  -2 10924.5 519.100  51
   3  -1  -2 9773.81 612.077  49
   3  -1  -1 74550.5 1280.20  11
   3  -1  -1 77467.9 1649.94  10
   3  -1  -1 73894.1 1287.55  51
   3  -1   0 3275.39 281.914  11
   3  -1   0 2667.78 257.447  51
   3  -1   1 12115.5 623.215  10
   3  -1   1 12041.4 614.110   8
   3  -1   1 11661.2 537.422  51
   3  -1   2 140941. 2096.56   9
   3  -1   2 144057. 1734.18  35
   3  -1   2 144613. 2307.99   8
   3  -1   2 143748. 1990.52  51
   3  -1   3 32478.7 1064.29  10
   3  -1   3 28924.1 1007.72   9
   3  -1   3 30138.1 863.330  35
   3  -1   3 30291.6 1173.70   8
   3  -1   3 31395.7 1006.01  51
   3  -1   4 64853.0 1433.97  35
   3  -1   4 63697.2 1596.32  10
   3  -1   4 64817.2 1648.23   9
   3  -1   4 64313.0 1588.41  51
   3  -1   5 45314.9 1423.80  10
   3  -1   5 35898.7 1346.36   9
   3  -1   5 43826.8 1354.11  35
   3  -1   5 39434.2 1565.95   8
   3  -1   5 37709.9 1390.54  51
   3  -1   6 117864. 2537.83  35
   3  -1   6 123957. 2840.45   8
   3  -1   7 118655. 2835.48  35
   3  -1   8 672.951 286.899  35
   3  -1   9 61116.8 2315.88  40
   3  -1   9 60843.8 3239.07  27
   3  -1  10 31570.7 1572.75  40
   3  -1  10 30493.8 2377.78  27
   3  -1  10 34577.3 1479.11  52
   3  -1  11 9675.13 786.904  40
   3  -1  11 10667.5 716.060  52
   3  -1  12 38046.5 1302.46  40
   3  -1  12 40491.5 1136.86  52
   3  -1  12 39296.7 2216.73  27
   3  -1  13 1273.24 204.984  40
   3  -1  13 1122.51 138.192  52
   3   0 -14 77159.9 1251.77  17
   3   0 -14 73904.8 1309.75  54
   3   0 -13 13477.4 674.544  17
   3   0 -13 14906.7 839.390  54
   3   0 -12 53900.3 1551.13  17
   3   0 -12 55753.9 1868.75  54
   3   0 -11 57610.1 1762.64  17
   3   0 -11 61797.0 2151.05  54
   3   0 -10 25309.2 2185.68   6
   3   0 -10 26695.0 1261.58  17
   3   0 -10 26902.4 1373.25  15
   3   0 -10 29043.0 1553.98  54
   3   0 -10 22195.2 1131.78  34
   3   0 -10 22827.2 1197.86  51
   3   0 -10 24624.0 1311.71   5
   3   0  -9 31043.0 2413.06   6
   3   0  -9 29070.4 1304.66  34
   3   0  -9 25936.2 1352.25  51
   3   0  -9 31585.7 1447.91   5
   3   0  -8 1885.14 712.271   6
   3   0  -8 1725.32 353.198  34
   3   0  -8 2490.98 418.195   5
   3   0  -7 55566.4 3136.63   6
   3   0  -7 70275.6 2034.63  34
   3   0  -7 79067.5 2148.39   5
   3   0  -7 58689.4 1985.36  51
   3   0  -6 179234. 3262.05  34
   3   0  -6 168907. 3091.70  51
   3   0  -5 98854.7 2379.57  34
   3   0  -5 93108.9 2019.74  51
   3   0  -4 449870. 4866.07  34
   3   0  -4 454089. 3843.34  51
   3   0  -3 4466.21 438.431  10
   3   0  -3 4041.61 746.835   6
   3   0  -3 3385.25 483.426  36
   3   0  -3 4088.94 447.533  34
   3   0  -3 3499.77 321.059  51
   3   0  -2 493338. 3380.40  11
   3   0  -2 513958. 4559.94  10
   3   0  -2 414457. 6560.04   6
   3   0  -2 407005. 5154.86  36
   3   0  -2 471544. 4028.68  34
   3   0  -2 516499. 3407.56  51
   3   0  -1 189225. 2049.71  11
   3   0  -1 181558. 2750.12  10
   3   0  -1 178218. 3091.76  36
   3   0  -1 185570. 2044.93  51
   3   0  -1 183541. 2717.56  50
   3   0   0 148417. 1868.17  11
   3   0   0 142096. 2389.60  10
   3   0   0 157034. 2969.73  36
   3   0   0 157172. 2046.84   8
   3   0   0 161853. 1945.96  51
   3   0   0 153135. 2639.62  50
   3   0   1 98293.7 1985.33  10
   3   0   1 117273. 2564.17  36
   3   0   1 112279. 1874.01   8
   3   0   1 112546. 1702.29  51
   3   0   1 99755.0 2227.12  50
   3   0   1 94014.3 1736.84  48
   3   0   2 48558.6 1417.74  10
   3   0   2 51223.9 1755.37  36
   3   0   2 52429.0 1431.74   8
   3   0   2 50573.0 1220.45  51
   3   0   2 51382.7 1255.47  48
   3   0   3 156179. 2672.87  10
   3   0   3 155840. 2334.41  51
   3   0   3 170963. 2898.43   8
   3   0   3 158239. 2156.82  35
   3   0   3 176210. 2435.21  48
   3   0   4 118219. 2237.46   7
   3   0   4 133316. 2598.47  10
   3   0   4 122569. 2057.04  35
   3   0   4 123838. 2325.81  51
   3   0   4 127969. 2784.76   8
   3   0   4 140137. 2363.81  48
   3   0   5 48486.1 1608.48   7
   3   0   5 46432.7 1653.25  10
   3   0   5 49553.6 1484.43  35
   3   0   5 43328.4 1572.11  51
   3   0   5 42903.8 1727.04   8
   3   0   6 220915. 3822.09   7
   3   0   6 219015. 3955.87   8
   3   0   6 208076. 3405.08  35
   3   0   7 10162.7 891.522   7
   3   0   7 12036.1 918.087   8
   3   0   7 10027.8 844.951  35
   3   0   8 185003. 3887.56   7
   3   0   8 183636. 3679.00  35
   3   0   9 87249.9 2558.70   7
   3   0   9 81791.2 3759.99  27
   3   0   9 83061.4 2477.46  52
   3   0  10 48511.8 1837.85  40
   3   0  10 43674.3 2701.45  27
   3   0  10 57095.0 1869.55  35
   3   0  10 55124.1 1849.24  52
   3   0  11 76811.6 2017.58  40
   3   0  11 76899.0 3392.53  27
   3   0  11 77830.6 1928.76  52
   3   0  12 1034.36 215.781  40
   3   0  12 1081.70 214.884  52
   3   0  12 1667.75 559.084  27
   3   0  13 27486.9 701.025  40
   3   0  13 30481.5 725.734  52
   3   1 -14 7985.01 389.959  17
   3   1 -13 61413.4 1389.08  17
   3   1 -12 17393.0 949.770  45
   3   1 -12 18352.4 889.189  17
   3   1 -11 21046.4 1176.99  45
   3   1 -11 21193.1 1053.22  17
   3   1 -10 36145.1 1673.46  45
   3   1 -10 39133.0 1510.04  17
   3   1 -10 36684.9 2672.58   6
   3   1 -10 39671.9 1778.74  54
   3   1 -10 33922.0 1379.81  34
   3   1 -10 35778.3 1490.61   5
   3   1  -9 799.963 494.182   6
   3   1  -9 1575.94 325.500  34
   3   1  -9 1518.20 342.055   5
   3   1  -8 66379.2 2030.57  34
   3   1  -8 63869.5 1980.27  51
   3   1  -7 27158.5 1309.44  34
   3   1  -7 26823.3 1244.18  51
   3   1  -6 46916.3 1735.20  34
   3   1  -6 43836.6 1453.86  51
   3   1  -5 274512. 4213.88  34
   3   1  -5 260326. 3080.10  51
   3   1  -4 22721.2 1402.13   6
   3   1  -4 19234.9 1243.20  36
   3   1  -4 29961.2 1382.06  34
   3   1  -4 29534.6 925.378  51
   3   1  -3 168959. 2326.43  13
   3   1  -3 162598. 3107.36  36
   3   1  -3 150781. 2855.16  34
   3   1  -3 152047. 1882.88  51
   3   1  -2 64585.7 1222.64  13
   3   1  -2 53055.7 1110.06  11
   3   1  -2 60863.2 1928.01  10
   3   1  -2 57291.1 1798.15   6
   3   1  -2 56090.0 1684.59  36
   3   1  -2 46218.8 1371.76  34
   3   1  -2 54861.2 1105.14  51
   3   1  -2 55090.7 1546.05  50
   3   1  -2 56306.5 1341.13  32
   3   1  -1 100885. 1519.85  11
   3   1  -1 104123. 2583.95  10
   3   1  -1 114900. 2340.15  36
   3   1  -1 106997. 1592.13   8
   3   1  -1 102464. 1518.12  51
   3   1  -1 104335. 2130.38  50
   3   1  -1 103214. 1849.30  32
   3   1  -1 111051. 1509.10  13
   3   1   0 265217. 2492.55  11
   3   1   0 255208. 4046.04  10
   3   1   0 295624. 3810.70  36
   3   1   0 276038. 2772.74   8
   3   1   0 257116. 2510.06  51
   3   1   0 269071. 3470.88  50
   3   1   0 253166. 3042.02  32
   3   1   0 246166. 2210.86  13
   3   1   0 276088. 3083.09  48
   3   1   1 82918.4 2254.15  10
   3   1   1 80246.5 1490.00  51
   3   1   1 84165.8 2012.04  50
   3   1   1 84589.9 1704.96  48
   3   1   2 254336. 3982.85  10
   3   1   2 366685. 4658.63  36
   3   1   2 323785. 3221.54  51
   3   1   2 321477. 4104.41  50
   3   1   2 297885. 2518.62  13
   3   1   2 319055. 3428.37  48
   3   1   3 170348. 2612.04  51
   3   1   3 172420. 3195.94  50
   3   1   4 19485.6 986.655   7
   3   1   4 19628.2 892.294  35
   3   1   4 20085.7 1031.14  51
   3   1   4 22013.5 1058.66  48
   3   1   5 61779.8 1954.12   7
   3   1   5 60600.6 1693.18  35
   3   1   5 66389.6 2014.21  48
   3   1   6 2924.79 516.875   7
   3   1   6 2588.18 405.645  35
   3   1   6 2384.79 427.010  48
   3   1   7 40180.4 1879.38   7
   3   1   7 36406.4 1572.33  35
   3   1   8 222580. 4438.96   7
   3   1   8 166475. 6139.86  42
   3   1   8 197981. 5389.73  27
   3   1   8 179795. 3405.23  55
   3   1   8 219229. 3958.61  35
   3   1   8 231592. 3844.07   8
   3   1   8 183347. 3783.79  52
   3   1   9 15709.2 1646.39  27
   3   1   9 16612.6 1001.13  55
   3   1   9 20693.5 1175.81  35
   3   1   9 17938.4 1139.41  52
   3   1  10 113777. 4154.27  27
   3   1  10 114946. 2607.92  52
   3   1  11 2281.69 622.428  27
   3   1  11 2793.47 371.763  52
   3   1  12 76005.4 2643.09  27
   3   1  12 81848.2 1531.18  52
   3   2 -13 37567.1 1099.44  45
   3   2 -13 38951.1 977.564  17
   3   2 -12 250.756 168.201  45
   3   2 -12 332.390 139.529  17
   3   2 -11 46014.9 1760.28  45
   3   2 -11 48711.4 1490.00  17
   3   2 -10 2958.56 494.801  45
   3   2 -10 3490.30 454.967  17
   3   2 -10 2623.58 409.886  34
   3   2  -9 57089.4 2286.50  45
   3   2  -9 54357.3 1825.82  34
   3   2  -8 6549.57 1137.47   6
   3   2  -8 8983.35 775.119  34
   3   2  -7 44902.4 2796.99   6
   3   2  -7 56451.9 1981.44  34
   3   2  -6 116567. 3952.91   6
   3   2  -6 130542. 3082.40  34
   3   2  -5 3867.68 674.435   6
   3   2  -5 4068.49 550.642  36
   3   2  -4 90729.3 2642.04   6
   3   2  -4 89165.7 2362.03  36
   3   2  -4 89925.2 2603.22  34
   3   2  -4 81841.9 2074.04  32
   3   2  -3 95986.0 1807.50  13
   3   2  -3 86768.3 2244.05   6
   3   2  -3 87959.3 2214.01  36
   3   2  -3 77415.2 2300.32  34
   3   2  -3 80389.0 2216.80  50
   3   2  -3 85725.9 2025.91  32
   3   2  -2 46772.3 1488.32   6
   3   2  -2 44269.4 1527.06  36
   3   2  -2 43567.3 1581.81  50
   3   2  -2 45252.3 1432.16  32
   3   2  -1 225270. 2949.58   6
   3   2  -1 213103. 3382.31  36
   3   2  -1 209182. 3356.31  50
   3   2  -1 210960. 3054.01  32
   3   2  -1 222794. 2451.01  13
   3   2   0 17099.7 1007.39  36
   3   2   0 16839.1 963.368  50
   3   2   0 16900.5 888.285  32
   3   2   0 18220.6 705.886  13
   3   2   0 16744.6 840.623  48
   3   2   1 18059.7 1088.99  36
   3   2   1 18425.4 1009.34  50
   3   2   1 18624.4 974.390  32
   3   2   1 17374.4 702.830  13
   3   2   1 17552.5 856.725  48
   3   2   2 64529.8 2176.39  36
   3   2   2 62129.3 1926.00  50
   3   2   2 56796.6 1317.26  13
   3   2   2 60697.7 1667.23  48
   3   2   3 40583.4 1801.70  36
   3   2   3 35130.7 1523.68  50
   3   2   3 34564.6 1089.27  13
   3   2   3 38347.2 1422.44  48
   3   2   4 27976.4 1435.70  50
   3   2   4 25483.5 995.730  13
   3   2   4 29351.4 1366.35  48
   3   2   5 2675.12 440.915   7
   3   2   5 3076.91 383.504  13
   3   2   5 2599.11 476.659  48
   3   2   6 55799.6 2115.77   7
   3   2   6 56284.4 2134.17  48
   3   2   7 22930.0 1438.51   7
   3   2   7 19252.1 2088.86  42
   3   2   7 19175.6 1225.16  55
   3   2   7 23230.6 1360.92  48
   3   2   8 3089.10 738.903  27
   3   2   8 3176.12 487.118  55
   3   2   8 3277.96 552.878  52
   3   2   9 75704.9 3243.29  27
   3   2   9 76497.7 2108.73  55
   3   2   9 75461.7 2180.73  52
   3   2  10-84.0519 280.130  27
   3   2  10 56.2971 151.877  55
   3   2  10 41.0558 158.596  52
   3   2  11 42891.0 1209.29  52
   3   2  11 42162.0 2043.52  27
   3   2  12 8001.08 688.797  27
   3   2  12 7891.25 392.625  52
   3   3 -13 2594.12 264.080  45
   3   3 -12 66577.5 1679.30  45
   3   3 -11 29618.1 1347.60  45
   3   3 -10 76565.4 2456.90  45
   3   3  -9 82812.7 2792.19  45
   3   3  -9 78044.6 2140.72  34
   3   3  -8 35720.4 1918.55  45
   3   3  -8 39175.4 1617.11  34
   3   3  -7 37024.7 2381.97   6
   3   3  -7 44899.1 1823.84  34
   3   3  -6 9462.03 1095.61   6
   3   3  -6 9538.21 887.985  34
   3   3  -5 41806.8 2019.86   6
   3   3  -5 43979.8 1832.58  36
   3   3  -5 44412.5 1957.63  34
   3   3  -4 148709. 2763.96  13
   3   3  -4 146575. 3324.69   6
   3   3  -4 140817. 3167.35  36
   3   3  -4 145413. 3589.68  34
   3   3  -4 138180. 3155.23  32
   3   3  -3 2511.26 325.992  13
   3   3  -3 1769.43 360.021   6
   3   3  -3 1852.78 366.339  36
   3   3  -3 2390.17 440.608  50
   3   3  -2 235723. 3532.40   6
   3   3  -2 249297. 3946.39  36
   3   3  -2 244808. 4267.97  50
   3   3  -2 241761. 3837.18  32
   3   3  -1 9626.33 688.319   6
   3   3  -1 10503.9 835.724  36
   3   3  -1 10031.8 846.120  50
   3   3  -1 10073.7 784.462  32
   3   3  -1 9938.46 606.145  13
   3   3   0 128753. 3037.02  36
   3   3   0 115142. 2779.56  50
   3   3   0 116812. 2647.67  32
   3   3   0 126744. 2163.19  13
   3   3   0 132467. 2554.59  48
   3   3   1 184386. 3512.06  50
   3   3   1 183845. 3415.62  32
   3   3   1 189488. 2709.01  13
   3   3   1 182261. 3041.83  48
   3   3   2 13253.4 1116.97  36
   3   3   2 12510.2 950.509  50
   3   3   2 12529.4 716.056  13
   3   3   2 13029.3 859.098  48
   3   3   3 43549.0 2065.56  36
   3   3   3 42256.3 1784.46  50
   3   3   3 41309.5 1354.51  13
   3   3   3 44017.4 1675.55  48
   3   3   4 857.033 249.472  13
   3   3   4 682.867 327.050  36
   3   3   4 1057.57 365.260  50
   3   3   4 1771.78 400.095  48
   3   3   5 19376.7 1035.03  13
   3   3   5 21634.8 1364.93  48
   3   3   6 9253.29 1371.30  42
   3   3   6 9140.49 980.252  27
   3   3   6 8342.84 890.952  55
   3   3   6 9350.43 735.900  13
   3   3   6 9614.28 941.103  48
   3   3   7 3461.22 867.566  42
   3   3   7 2756.96 614.278  27
   3   3   7 2645.17 489.210  55
   3   3   8 166187. 4560.37  27
   3   3   8 169902. 3359.21  55
   3   3   9 6444.29 921.805  27
   3   3   9 7137.89 605.829  55
   3   3   9 6817.85 573.178  52
   3   3  10 41326.6 1952.21  27
   3   3  10 37893.1 1121.18  55
   3   3  10 39485.3 1120.55  52
   3   3  11 4499.65 470.025  27
   3   3  11 4147.11 269.488  52
   3   4 -12 37195.5 994.796  45
   3   4 -11 29492.4 1166.59  45
   3   4 -10 25945.1 1321.97  45
   3   4  -9 15100.2 1153.04  45
   3   4  -8 67900.4 2611.69  45
   3   4  -7 14886.5 1276.50  45
   3   4  -7 14289.4 997.696  34
   3   4  -6 39308.4 2014.69  45
   3   4  -6 34771.1 1758.00  44
   3   4  -6 37625.4 2186.50   6
   3   4  -6 38760.3 1734.82  34
   3   4  -5 123642. 3418.16  45
   3   4  -5 121401. 3555.31   6
   3   4  -5 109263. 3037.72  34
   3   4  -5 94340.8 3003.62  50
   3   4  -5 99420.4 2967.68  32
   3   4  -4 722.123 302.862  32
   3   4  -4 905.736 255.510  13
   3   4  -4 1250.76 311.009  36
   3   4  -4 1223.11 343.797   6
   3   4  -4 1152.46 357.529  50
   3   4  -3 102015. 2728.82   6
   3   4  -3 101292. 2746.61  36
   3   4  -3 94038.0 2765.87  32
   3   4  -2 5136.80 490.505  13
   3   4  -2 4686.66 572.227   6
   3   4  -2 4825.42 618.701  36
   3   4  -2 4933.34 683.205  50
   3   4  -2 4769.49 625.746  32
   3   4  -1 32933.4 1409.29   6
   3   4  -1 33633.3 1634.48  36
   3   4  -1 29716.9 1614.90  50
   3   4  -1 32240.6 1549.90  32
   3   4  -1 35616.9 1265.95  13
   3   4   0 152892. 3645.20  36
   3   4   0 147563. 3468.82  50
   3   4   0 130795. 3137.35  32
   3   4   0 140386. 2514.62  13
   3   4   0 138344. 2842.97  48
   3   4   1 9995.28 997.797  36
   3   4   1 8972.76 877.380  50
   3   4   1 10782.7 926.338  32
   3   4   1 9233.79 665.820  13
   3   4   1 9564.55 774.378  48
   3   4   2 133617. 3789.88  36
   3   4   2 126543. 3218.82  50
   3   4   2 131310. 2534.42  13
   3   4   2 121437. 2862.84  48
   3   4   3 2499.34 511.263  44
   3   4   3 2410.03 599.050  42
   3   4   3 1724.59 363.216  27
   3   4   3 1644.95 533.348  36
   3   4   3 1839.32 581.724  55
   3   4   3 2218.08 473.921  50
   3   4   3 1907.74 334.387  13
   3   4   3 1345.63 326.956  48
   3   4   4 123953. 3554.05  44
   3   4   4 103991. 3001.71  27
   3   4   4 104834. 3303.17  36
   3   4   4 103856. 3339.80  55
   3   4   4 98820.2 2890.18  50
   3   4   4 109433. 2456.61  13
   3   4   4 123071. 3070.77  48
   3   4   5 40918.0 2086.30  44
   3   4   5 44302.4 2743.26  42
   3   4   5 43205.5 2050.07  27
   3   4   5 36419.6 1869.63  55
   3   4   5 36341.9 1515.33  22
   3   4   5 37875.5 1475.94  13
   3   4   6 21705.6 2070.68  42
   3   4   6 19417.2 1481.53  27
   3   4   6 19887.8 1016.70  22
   3   4   6 18004.7 1263.57  55
   3   4   7 51850.7 3207.53  42
   3   4   7 46217.6 2265.93  27
   3   4   7 47130.2 1798.11  55
   3   4   8 19545.4 1403.15  27
   3   4   8 16877.5 924.706  55
   3   4   9 7376.67 1037.91  42
   3   4   9 29963.8 1000.51  55
   3   5 -10 8285.68 587.150  45
   3   5 -10 7687.73 380.308  23
   3   5  -9 59636.5 1895.06  45
   3   5  -8 121.467 218.840  45
   3   5  -8 378.818 155.474  44
   3   5  -7 10465.3 1007.34  45
   3   5  -7 12687.5 925.991  44
   3   5  -6 42263.2 2035.79  45
   3   5  -6 39868.7 1811.66  44
   3   5  -5 30776.2 1725.75  45
   3   5  -5 26950.6 1577.29  44
   3   5  -4 108198. 3154.68  45
   3   5  -4 101606. 3110.81  44
   3   5  -3 274.338 202.558  45
   3   5  -3 441.255 195.752  13
   3   5  -3 387.210 217.209  44
   3   5  -3 394.722 190.847  27
   3   5  -3 460.295 256.332  36
   3   5  -2 97756.5 2878.82  45
   3   5  -2 124166. 2522.17  13
   3   5  -2 108039. 3116.35  44
   3   5  -2 131204. 2996.02  27
   3   5  -2 95367.3 2700.74  36
   3   5  -1 19616.7 976.078  13
   3   5  -1 15990.8 1163.31  45
   3   5  -1 19072.0 1313.62  44
   3   5  -1 21647.8 1185.86  27
   3   5  -1 17175.8 1173.78  36
   3   5   0 2306.35 482.255  44
   3   5   0 1711.06 397.690  36
   3   5   0 1895.84 292.732  13
   3   5   1 103080. 3013.19  44
   3   5   1 101953. 3809.58  55
   3   5   1 98149.5 2148.29  13
   3   5   2 11193.3 1012.86  44
   3   5   2 8933.30 995.306  36
   3   5   2 10549.6 1170.26  55
   3   5   2 9190.82 673.156  13
   3   5   3 64028.3 2424.44  44
   3   5   3 56905.0 2560.36  55
   3   5   4 28987.3 1649.94  44
   3   5   4 31720.2 2144.96  42
   3   5   4 27389.2 1632.39  55
   3   5   4 27354.9 1326.61  22
   3   5   5 37774.7 2464.91  42
   3   5   5 33458.2 1623.00  55
   3   5   5 37231.0 1360.94  22
   3   5   6 44213.5 2626.61  42
   3   5   6 45636.6 1662.01  55
   3   5   6 45704.7 1244.92  22
   3   5   7 1090.08 414.558  42
   3   5   7 889.021 223.945  55
   3   5   8 26614.9 1576.96  42
   3   5   8 83060.6 1440.13  55
   3   6  -8 42370.6 1266.13  45
   3   6  -8 40849.6 938.637  44
   3   6  -7 45593.8 1593.48  45
   3   6  -7 54989.6 1476.99  44
   3   6  -6 6888.61 710.361  45
   3   6  -6 8038.41 685.236  44
   3   6  -5 48353.9 1885.30  45
   3   6  -5 48589.9 1849.18  44
   3   6  -4 507.955 252.023  45
   3   6  -4 637.870 287.655  44
   3   6  -3 45014.5 1926.35  44
   3   6  -2 22185.1 1369.69  44
   3   6  -1 1859.70 427.263  44
   3   6  -1 2699.45 589.968  42
   3   6   0 163906. 3548.23  44
   3   6   0 217101. 4650.01  42
   3   6   1 6935.90 745.560  44
   3   6   1 8208.51 980.041  42
   3   6   1 6709.72 809.854  55
   3   6   2 69669.6 2240.01  44
   3   6   2 76114.3 2614.38  55
   3   6   3 22652.2 1239.46  44
   3   6   3 24742.1 1678.56  42
   3   6   3 24059.5 1346.23  55
   3   6   3 22848.0 1115.75  22
   3   6   4 31345.8 1342.03  55
   3   6   4 32003.5 1110.48  22
   3   6   5 53654.9 1474.70  55
   3   6   5 50652.9 1066.70  22
   3   6   6 4128.38 592.585  42
   3   6   6 6169.79 386.727  55
   3   7  -4 51893.8 1472.30  44
   3   7  -4 35481.6 1398.56  42
   3   7  -3 48817.6 1551.42  44
   3   7  -3 50143.4 1762.58  42
   3   7  -2 4833.68 513.507  44
   3   7  -2 4226.45 359.269  22
   3   7  -1 24403.4 1127.73  44
   3   7  -1 26759.8 1343.14  42
   3   7  -1 23038.1 954.608  22
   3   7   0 46898.1 1491.14  44
   3   7   0 45113.5 1742.14  42
   3   7   0 47976.0 1426.01  22
   3   7   1 22322.8 949.313  44
   3   7   1 27093.1 1004.48  22
   3   7   2 26850.4 835.462  22
   4  -8  -5 3748.67 314.168  24
   4  -8  -4 51268.4 1272.19  24
   4  -8  -4 53654.1 1561.70  56
   4  -8  -3 10885.0 660.764  16
   4  -8  -3 11218.2 824.042  56
   4  -8  -3 9804.08 603.111  24
   4  -8  -2 96815.2 2506.11  56
   4  -8  -2 95404.8 1937.56  24
   4  -8  -1 12106.4 716.848  24
   4  -8   0 34439.4 1191.45  24
   4  -8   1 66826.6 1650.22  24
   4  -8   2 3521.18 511.208  16
   4  -8   2 3914.50 401.695  24
   4  -8   3 83624.8 1773.74  16
   4  -8   3 84949.3 1666.33  24
   4  -8   4 12951.0 676.162  26
   4  -8   5 13147.5 589.877  26
   4  -7  -8 16104.0 551.321  39
   4  -7  -7 436.614 164.438  39
   4  -7  -7 304.195 167.304  24
   4  -7  -6 24926.0 1224.45  56
   4  -7  -6 30309.4 1147.88  24
   4  -7  -5 35314.6 1648.52  56
   4  -7  -5 35225.1 1327.99  24
   4  -7  -4 2897.76 556.992  56
   4  -7  -4 2941.83 404.365  24
   4  -7  -3 72553.1 2884.32  56
   4  -7  -3 66269.8 1872.99  24
   4  -7  -2 15102.0 1424.03  56
   4  -7  -2 11698.0 785.318  24
   4  -7  -1 45358.3 2167.64  41
   4  -7  -1 46716.6 1532.38  24
   4  -7   0 40107.7 2138.42  41
   4  -7   0 43519.6 1463.66  24
   4  -7   1 668.884 308.988  41
   4  -7   1 255.770 152.121  24
   4  -7   2 62413.3 2835.61  41
   4  -7   2 60902.5 2212.95  53
   4  -7   2 63672.7 1757.33  24
   4  -7   3 2971.09 708.113  41
   4  -7   3 3672.89 589.722  26
   4  -7   3 2363.36 506.443  53
   4  -7   4 37362.6 1712.45  26
   4  -7   4 33246.6 1707.20  53
   4  -7   5 24296.4 1257.30  26
   4  -7   5 18865.7 1258.40  53
   4  -7   6 1476.28 275.443  26
   4  -7   6 1543.73 327.671  53
   4  -7   7 34850.2 1033.68  26
   4  -6 -10 135.805 92.5995  18
   4  -6 -10 146.201 88.9229  39
   4  -6  -9 84273.2 1725.09  18
   4  -6  -9 77862.4 1654.39  39
   4  -6  -8 11731.9 790.905  18
   4  -6  -8 11757.1 755.083  39
   4  -6  -8 10462.3 699.893  24
   4  -6  -7 6346.54 658.473  18
   4  -6  -7 7362.08 662.672  39
   4  -6  -7 6741.90 725.380  56
   4  -6  -6 38064.5 1619.48  39
   4  -6  -6 35499.0 1767.85  56
   4  -6  -6 33239.8 1438.44  24
   4  -6  -5 236.200 262.459  56
   4  -6  -5 44.3948 122.847  24
   4  -6  -4 129152. 3073.18  37
   4  -6  -4 140454. 4052.12  56
   4  -6  -4 138706. 2891.83  24
   4  -6  -3 107.927 160.917  37
   4  -6  -3 429.526 418.409  56
   4  -6  -3 426.444 190.092  24
   4  -6  -2 41599.1 2062.34  41
   4  -6  -2 49253.0 2816.36  56
   4  -6  -2 45501.7 1539.27  24
   4  -6  -1 67454.1 2671.62  41
   4  -6  -1 61556.4 2318.93  10
   4  -6  -1 67428.4 1827.43  24
   4  -6   0 8669.32 1053.24  41
   4  -6   0 8313.74 642.908  24
   4  -6   1 57246.6 2686.19  31
   4  -6   1 58385.6 2728.74  41
   4  -6   1 51560.1 1764.63  10
   4  -6   1 58765.1 2224.53  53
   4  -6   2 43676.8 2425.68  41
   4  -6   2 42845.9 1946.40  53
   4  -6   3 83653.3 3024.32  26
   4  -6   3 81913.4 2803.45  53
   4  -6   4 69138.2 2685.82  26
   4  -6   4 59908.8 2494.18  53
   4  -6   5 2810.91 546.774  26
   4  -6   5 1862.57 510.143  53
   4  -6   6 29747.2 1425.05  26
   4  -6   6 26601.6 1151.60  25
   4  -6   6 25232.0 1559.37  53
   4  -6   7 973.672 241.070  26
   4  -6   7 863.902 207.545  25
   4  -6   7 1412.81 314.937  53
   4  -6   8 12494.2 659.785  26
   4  -6   8 12584.8 668.148  25
   4  -6   9 14798.0 526.896  26
   4  -6   9 17174.9 630.296  25
   4  -5 -11 154.471 126.718  18
   4  -5 -11 189.476 105.335  39
   4  -5 -10 60528.2 1612.88  18
   4  -5 -10 52995.6 1491.09  39
   4  -5  -9 47435.5 1687.27  18
   4  -5  -9 42426.0 1512.23  39
   4  -5  -8 4200.28 586.776  18
   4  -5  -8 3983.05 524.463  39
   4  -5  -8 3732.98 487.903  24
   4  -5  -7 72728.4 2568.43  18
   4  -5  -7 68986.7 2279.84  39
   4  -5  -7 68104.8 2459.59  56
   4  -5  -6 613.139 257.589  18
   4  -5  -6 19.8162 193.581  39
   4  -5  -6 110.009 167.614  37
   4  -5  -6 627.197 345.021  56
   4  -5  -6 240.475 201.847  24
   4  -5  -5 95466.6 2924.25  39
   4  -5  -5 93183.3 2600.19  37
   4  -5  -5 95642.8 2607.51  10
   4  -5  -5 95205.2 3217.94  56
   4  -5  -5 88839.3 2400.85  24
   4  -5  -5 90448.6 3138.20   5
   4  -5  -4 37367.1 1584.92  37
   4  -5  -4 40906.8 1880.81  10
   4  -5  -3 10776.6 833.437  37
   4  -5  -3 11148.1 1035.15  10
   4  -5  -2 69304.9 2011.25  37
   4  -5  -2 65463.6 2496.30  10
   4  -5  -1 2094.35 464.806  10
   4  -5   0 30541.9 1525.60  10
   4  -5   1 71472.1 2929.72  31
   4  -5   1 58970.6 1919.63  10
   4  -5   2 41168.0 2325.63  31
   4  -5   2 47241.4 1599.75  10
   4  -5   3 73646.7 2090.92   9
   4  -5   4 2720.66 482.851  43
   4  -5   4 2774.47 547.651  26
   4  -5   4 2188.81 411.884   9
   4  -5   4 2318.66 551.230  53
   4  -5   5 81717.1 2659.71  43
   4  -5   5 87426.5 2304.88  25
   4  -5   5 77917.7 2850.70  53
   4  -5   6 17656.4 1301.03  43
   4  -5   6 21395.9 1303.49  26
   4  -5   6 18708.8 1126.14  25
   4  -5   6 16906.7 1291.95  53
   4  -5   7 19434.2 1111.37  26
   4  -5   7 18710.4 1108.73  25
   4  -5   8 57992.1 1651.25  26
   4  -5   8 58539.3 1773.44  25
   4  -5   9 1086.28 269.582  43
   4  -5   9 1073.34 203.386  26
   4  -5   9 1324.81 250.652  25
   4  -5  10 45787.1 1077.94  25
   4  -4 -12 4331.62 329.845  18
   4  -4 -12 3913.25 327.373  54
   4  -4 -11 36547.3 1231.05  39
   4  -4 -11 36109.7 1247.87  54
   4  -4 -10 38044.6 1454.71  18
   4  -4 -10 35640.9 1400.58  39
   4  -4 -10 34500.7 1290.39  15
   4  -4 -10 35397.2 1456.29  54
   4  -4  -9 27217.3 1405.34  18
   4  -4  -9 25923.3 1302.33  39
   4  -4  -9 25094.7 1231.42  15
   4  -4  -9 26122.2 1406.83  54
   4  -4  -8 42514.1 1776.58  39
   4  -4  -8 42908.3 1706.04  24
   4  -4  -7 178.289 163.484  18
   4  -4  -7 113.711 126.619  39
   4  -4  -7 116.923 245.021  56
   4  -4  -7 356.378 193.694  24
   4  -4  -7 468.771 211.297  49
   4  -4  -6 58932.8 2636.96   5
   4  -4  -6 60815.5 2387.14  49
   4  -4  -5 4961.59 578.680  10
   4  -4  -5 4737.07 696.831   5
   4  -4  -5 4002.25 621.847  49
   4  -4  -4 103817. 2383.66  37
   4  -4  -4 99447.9 2858.11   5
   4  -4  -3 40952.8 1860.62  10
   4  -4  -3 37364.0 1356.94  37
   4  -4  -2 256.774 171.685  37
   4  -4  -2 339.696 245.669  10
   4  -4  -1 105921. 2844.30  10
   4  -4   0 55912.3 1937.40  10
   4  -4   1 32751.3 1376.55  10
   4  -4   2 87005.2 2133.95  10
   4  -4   2 99448.3 2277.43   9
   4  -4   3 18159.4 944.280  10
   4  -4   3 15194.6 961.043   9
   4  -4   4 78762.7 2359.05   9
   4  -4   5 25763.7 1463.08   9
   4  -4   6 15015.8 1173.01  43
   4  -4   6 17953.9 1220.97  26
   4  -4   6 13836.8 1157.36   9
   4  -4   6 14842.3 1041.47  25
   4  -4   6 17054.2 879.679  21
   4  -4   7 41769.0 1665.80  26
   4  -4   7 40185.0 1697.00  25
   4  -4   8 5615.15 766.961  43
   4  -4   8 6055.62 569.905  26
   4  -4   8 6382.15 635.291  25
   4  -4   9 113025. 2797.96  43
   4  -4   9 116163. 2384.32  25
   4  -4  10 8328.93 609.708  43
   4  -4  10 9213.41 576.485  25
   4  -4  11 32820.9 820.424  25
   4  -3 -13 953.248 180.472  54
   4  -3 -12 84507.1 1608.07  18
   4  -3 -12 81442.3 1884.73  54
   4  -3 -11 19099.3 939.765  18
   4  -3 -11 17924.7 964.895  39
   4  -3 -11 17447.6 929.564  15
   4  -3 -11 18745.4 1070.29  54
   4  -3 -10 19863.5 1106.04  18
   4  -3 -10 19353.0 1110.98  39
   4  -3 -10 20216.2 1116.22  15
   4  -3 -10 19748.5 1254.04  54
   4  -3  -9 75719.1 2373.47  18
   4  -3  -9 64754.8 2161.92  39
   4  -3  -9 61524.3 1803.30  17
   4  -3  -9 69443.2 2215.25  15
   4  -3  -9 69735.3 2517.77  54
   4  -3  -8 5865.49 739.376  18
   4  -3  -8 5682.22 702.749  39
   4  -3  -8 5488.21 861.784   5
   4  -3  -8 5077.84 684.502  15
   4  -3  -8 5838.77 855.466  54
   4  -3  -8 4333.48 576.439  51
   4  -3  -8 5556.46 680.160  49
   4  -3  -7 15939.7 993.918  11
   4  -3  -7 24364.5 1776.19   5
   4  -3  -7 18557.8 1178.12  51
   4  -3  -7 24793.0 1481.28  49
   4  -3  -6 12433.4 908.823  51
   4  -3  -6 11125.7 785.985  11
   4  -3  -6 14074.6 1287.02   5
   4  -3  -6 14171.7 1147.28  49
   4  -3  -5 79451.8 1945.98  11
   4  -3  -5 85695.9 2780.43   5
   4  -3  -5 79382.9 2085.51  51
   4  -3  -5 78384.1 2705.94  49
   4  -3  -4 126221. 2265.28  11
   4  -3  -4 122530. 2327.54  51
   4  -3  -4 118723. 3191.97  49
   4  -3  -3 11200.5 646.502  11
   4  -3  -3 12582.2 953.706  10
   4  -3  -3 10414.8 643.670  51
   4  -3  -3 9776.53 851.074  49
   4  -3  -2 164085. 2402.76  11
   4  -3  -2 158044. 2387.93  51
   4  -3  -2 155453. 2960.94  49
   4  -3  -1 14848.5 985.601  10
   4  -3  -1 12743.4 679.408  51
   4  -3   0 113438. 2567.92  10
   4  -3   0 110337. 1994.14  51
   4  -3   1 105490. 2347.70  10
   4  -3   1 92444.1 1865.41  51
   4  -3   2 7270.86 609.287  10
   4  -3   2 7251.28 554.304  51
   4  -3   3 167312. 3080.15   9
   4  -3   3 153356. 2653.18  51
   4  -3   4 124728. 2409.59  10
   4  -3   4 125176. 2607.08  51
   4  -3   5 116055. 3035.03   9
   4  -3   5 110211. 2654.35  51
   4  -3   6 43915.3 1981.26   9
   4  -3   7 10065.2 1017.75  40
   4  -3   7 13657.4 934.498  26
   4  -3   7 11097.5 1023.75   9
   4  -3   7 11880.2 943.857  25
   4  -3   7 10955.2 943.034  52
   4  -3   8 115903. 2761.17  25
   4  -3   8 110009. 2827.09  52
   4  -3   9 2975.23 594.425  40
   4  -3   9 4021.46 468.361  25
   4  -3   9 3452.03 477.657  52
   4  -3  10 47327.1 1340.55  25
   4  -3  10 50243.5 1414.10  52
   4  -3  11 36988.0 934.672  25
   4  -2 -13 25844.5 653.911  17
   4  -2 -13 29702.8 1035.50  54
   4  -2 -12 38532.6 1066.25  17
   4  -2 -12 42878.5 1525.06  54
   4  -2 -11 8798.65 640.419  18
   4  -2 -11 8356.04 690.073  39
   4  -2 -11 7965.61 591.265  17
   4  -2 -11 8343.27 781.723  54
   4  -2 -10 26099.0 1235.92  18
   4  -2 -10 23005.0 1224.01  39
   4  -2 -10 23344.6 1122.60  17
   4  -2 -10 24161.5 1293.05  15
   4  -2 -10 25021.9 1458.22  54
   4  -2  -9 821.537 420.777   5
   4  -2  -9 1061.43 299.202  18
   4  -2  -9 404.727 168.381  39
   4  -2  -9 445.663 206.346  17
   4  -2  -9 313.207 255.211  15
   4  -2  -9 204.734 293.087  54
   4  -2  -9 105.907 216.890  34
   4  -2  -9 800.041 237.149  51
   4  -2  -9 1276.73 305.923  49
   4  -2  -8 6840.48 737.428  51
   4  -2  -8 7657.30 788.342  49
   4  -2  -7 21749.2 1525.14   5
   4  -2  -7 14290.4 1194.02  34
   4  -2  -7 15934.4 1105.35  51
   4  -2  -7 20295.3 1271.93  49
   4  -2  -6 11031.3 1091.88  34
   4  -2  -6 10160.0 840.194  51
   4  -2  -6 9325.92 920.004  49
   4  -2  -5 94572.8 2165.10  11
   4  -2  -5 111093. 3309.39  34
   4  -2  -5 108902. 2445.56  51
   4  -2  -5 94579.2 2848.70  49
   4  -2  -4 463.551 170.181  11
   4  -2  -4 333.278 183.352  10
   4  -2  -4 43.7385 239.922  34
   4  -2  -4 376.215 153.881  51
   4  -2  -4 410.972 190.227  49
   4  -2  -3 159894. 2425.23  11
   4  -2  -3 158702. 2427.56  51
   4  -2  -3 155332. 3177.44  49
   4  -2  -2 33648.4 1087.60  11
   4  -2  -2 32300.6 1071.86  51
   4  -2  -1 97157.8 2327.80  10
   4  -2  -1 93116.4 1807.50  51
   4  -2   0 66696.4 1880.44  10
   4  -2   0 76293.3 1650.65  51
   4  -2   1 880.962 237.877  10
   4  -2   1 794.780 205.419  51
   4  -2   2 94209.8 2101.46  10
   4  -2   2 92261.7 1956.18  51
   4  -2   3 44823.7 1488.23  10
   4  -2   3 43847.5 1417.14  51
   4  -2   4 20006.1 1024.03  10
   4  -2   4 21031.7 1144.07   9
   4  -2   4 20322.8 1042.60  51
   4  -2   5 130563. 2379.24  35
   4  -2   5 128560. 2885.96  51
   4  -2   6 7376.59 789.351   9
   4  -2   6 9737.29 727.784  35
   4  -2   7 77311.3 2497.61   9
   4  -2   7 103990. 2549.37  35
   4  -2   8 27560.6 1308.81  25
   4  -2   8 23861.5 1397.36  52
   4  -2   9 53138.8 1628.01  25
   4  -2   9 53318.4 1908.72  52
   4  -2  10 75367.3 1643.03  25
   4  -2  10 75656.0 1949.90  52
   4  -2  11 510.982 208.248  40
   4  -2  11 123.530 389.362  27
   4  -2  11 309.274 140.582  52
   4  -1 -13 18817.5 659.972  17
   4  -1 -13 20539.9 892.324  54
   4  -1 -12 52339.9 1360.66  17
   4  -1 -12 52308.9 1718.92  54
   4  -1 -11 41329.0 1409.67  17
   4  -1 -11 43198.8 1794.28  54
   4  -1 -10 5316.07 577.121  17
   4  -1 -10 6162.18 729.549  54
   4  -1  -9 30333.1 1568.17   5
   4  -1  -9 29523.8 1474.58  39
   4  -1  -9 32605.1 1496.62  17
   4  -1  -9 33192.3 1825.18  54
   4  -1  -9 25664.9 1400.86  34
   4  -1  -9 25706.2 1360.09  51
   4  -1  -8 24076.9 1463.31   5
   4  -1  -8 24256.7 1434.37  34
   4  -1  -7 6041.78 1069.49   6
   4  -1  -7 5951.52 731.262  34
   4  -1  -7 5690.46 647.663  51
   4  -1  -6 88700.7 4002.98   6
   4  -1  -6 93067.4 2838.07  34
   4  -1  -5 19960.8 1314.05  34
   4  -1  -5 17064.5 956.279  51
   4  -1  -4 153120. 2505.86  11
   4  -1  -4 177822. 2936.35  10
   4  -1  -4 178518. 5479.26   6
   4  -1  -4 169912. 3599.51  34
   4  -1  -4 150075. 2551.58  51
   4  -1  -3 47475.4 1320.58  11
   4  -1  -3 51653.0 1681.07  10
   4  -1  -3 48974.5 1792.21  34
   4  -1  -3 44712.1 1284.88  51
   4  -1  -2 51465.2 1333.84  11
   4  -1  -2 53078.9 1740.93  10
   4  -1  -2 48692.2 1299.97  51
   4  -1  -1 40213.5 1197.04  11
   4  -1  -1 43257.8 1552.26  10
   4  -1  -1 44005.5 1242.71  51
   4  -1   0 5920.48 589.618  10
   4  -1   0 7967.71 553.270  51
   4  -1   1 282414. 3848.89  10
   4  -1   1 298048. 3393.40  51
   4  -1   2 173603. 3042.55  10
   4  -1   2 173939. 3043.94   8
   4  -1   2 178155. 2739.26  51
   4  -1   3 20111.1 1064.13  10
   4  -1   3 18107.4 1083.90   8
   4  -1   3 18620.5 947.797  51
   4  -1   4 112716. 2612.35  10
   4  -1   4 113152. 2499.47  51
   4  -1   5 1864.58 390.824  10
   4  -1   5 2132.47 326.662  35
   4  -1   5 2001.98 391.087  51
   4  -1   5 1754.00 435.618   8
   4  -1   6 8302.94 727.129  35
   4  -1   6 8743.91 863.150   8
   4  -1   7 60403.2 2024.85  35
   4  -1   7 59683.5 2092.18   8
   4  -1   8 10301.1 997.491  40
   4  -1   8 13405.1 1460.49  27
   4  -1   8 12510.6 834.273  25
   4  -1   8 13438.6 1068.88  52
   4  -1   9 84121.8 2557.91  40
   4  -1   9 87300.9 3608.30  27
   4  -1  10 154.343 257.444  40
   4  -1  10 181.524 318.590  27
   4  -1  10 190.195 154.817  52
   4  -1  11 46359.1 1358.57  40
   4  -1  11 47623.2 1304.76  52
   4  -1  12 660.297 342.507  27
   4  -1  12 1379.79 185.496  52
   4   0 -13 18994.4 679.682  17
   4   0 -13 19666.7 814.967  54
   4   0 -12 119471. 2083.87  17
   4   0 -12 129093. 2608.98  54
   4   0 -11 3702.74 427.518  17
   4   0 -11 4405.99 580.346  54
   4   0 -10 90428.2 2326.98  17
   4   0 -10 85937.9 2693.94  54
   4   0  -9 20104.0 1171.84  17
   4   0  -9 18381.8 1861.48   6
   4   0  -9 18846.3 1365.60  54
   4   0  -9 18449.4 1122.64  34
   4   0  -9 16602.6 1035.47  51
   4   0  -8 49172.6 3075.65   6
   4   0  -8 54293.8 2009.31  34
   4   0  -7 88993.4 4134.80   6
   4   0  -7 87688.0 2440.41  51
   4   0  -6 2370.95 776.218   6
   4   0  -6 4290.36 591.776  34
   4   0  -6 3382.98 469.673  51
   4   0  -5 127436. 4895.88   6
   4   0  -5 140495. 2630.45  51
   4   0  -4 164182. 2597.73  11
   4   0  -4 156315. 2504.20  51
   4   0  -3 67065.2 1574.11  11
   4   0  -3 70329.6 2040.65  34
   4   0  -3 66618.7 1552.82  51
   4   0  -2 161156. 2385.27  11
   4   0  -2 166793. 3413.46  10
   4   0  -2 160824. 2360.12  51
   4   0  -1 682.406 265.132  10
   4   0  -1 401.912 352.763  36
   4   0  -1 148.012 136.450  51
   4   0   0 270221. 4348.38  10
   4   0   0 279902. 3325.60   8
   4   0   1 136911. 3035.73  10
   4   0   1 143804. 4131.34  36
   4   0   1 155946. 2679.43   8
   4   0   1 149535. 2447.26  51
   4   0   2 74363.5 2240.93  10
   4   0   2 74880.2 2057.83   8
   4   0   2 75394.1 1830.30  51
   4   0   3 147206. 3224.25  10
   4   0   3 138592. 3109.92   8
   4   0   3 146542. 2729.32  51
   4   0   4 1884.51 407.505  10
   4   0   4 1639.19 364.733   8
   4   0   4 1472.19 328.369  51
   4   0   5 55977.7 2274.01   8
   4   0   5 64202.5 2182.20  51
   4   0   6 90638.8 2851.54   8
   4   0   7 18907.7 1739.87  27
   4   0   7 21621.4 1269.02  55
   4   0   7 23846.5 1383.29   8
   4   0   7 19251.1 1281.40  52
   4   0   8 71047.4 3377.78  27
   4   0   8 62697.1 2252.44  52
   4   0   9 96.3993 374.521  27
   4   0   9 412.176 276.615  52
   4   0  10 58276.7 2841.06  27
   4   0  10 66191.6 1831.15  52
   4   0  11 2395.27 609.253  27
   4   0  11 3017.05 334.585  52
   4   0  12 12045.2 903.824  27
   4   0  12 15965.6 529.417  52
   4   1 -13 63120.3 1119.11  17
   4   1 -12 12397.2 634.091  17
   4   1 -11 52183.4 1507.46  17
   4   1 -11 52267.3 1773.32  54
   4   1 -10 93993.1 2262.87  17
   4   1 -10 93417.3 2670.19  54
   4   1  -9 34189.7 1487.59  17
   4   1  -9 35301.2 1799.62  54
   4   1  -9 33212.9 1456.36  34
   4   1  -8 41537.4 1686.00  17
   4   1  -8 41583.7 1726.67  34
   4   1  -7-829.592 421.160   6
   4   1  -7 225.241 209.802  34
   4   1  -6 39874.3 2847.98   6
   4   1  -6 59386.6 2185.71  34
   4   1  -5 21933.0 1030.08  11
   4   1  -5 23419.6 1388.67  34
   4   1  -4 4066.89 418.468  11
   4   1  -4 2645.50 501.509  36
   4   1  -4 3822.37 780.239   6
   4   1  -4 4097.54 557.668  34
   4   1  -3 210620. 2757.47  11
   4   1  -3 205682. 2680.32  51
   4   1  -2 13741.1 744.096  13
   4   1  -2 14285.0 713.785  11
   4   1  -2 15809.0 1244.08  10
   4   1  -2 13485.3 1099.01  36
   4   1  -2 13708.2 691.029  51
   4   1  -1 122130. 2077.73  11
   4   1  -1 127916. 3678.45  10
   4   1  -1 126009. 3428.96  36
   4   1  -1 127293. 2107.24  51
   4   1  -1 117712. 3030.80  50
   4   1   0 159320. 2083.16  13
   4   1   0 154397. 4059.85  10
   4   1   0 157383. 3865.09  36
   4   1   0 150005. 2457.33   8
   4   1   0 154788. 2386.88  51
   4   1   0 155742. 3522.31  50
   4   1   1 99417.5 3133.82  10
   4   1   1 93213.7 2138.97   8
   4   1   1 92649.4 1945.43  51
   4   1   1 96191.0 2805.55  50
   4   1   2 182437. 4157.83  10
   4   1   2 179059. 3305.70   8
   4   1   2 178919. 2895.20  51
   4   1   3 3134.95 545.799   8
   4   1   3 4271.47 494.497  51
   4   1   3 4025.73 531.381  48
   4   1   4 28350.7 1617.54   8
   4   1   4 28390.0 1403.35  51
   4   1   5 2876.43 520.770   8
   4   1   5 3581.68 577.447  48
   4   1   6 2307.33 475.886   8
   4   1   7 156851. 5571.50  42
   4   1   7 156421. 4853.03  27
   4   1   7 158415. 3356.46  55
   4   1   8 3633.14 798.865  27
   4   1   8 3494.18 502.812  55
   4   1   8 3569.56 545.667  52
   4   1   9 108831. 3990.99  27
   4   1   9 108795. 2548.58  52
   4   1  10 13458.5 1365.19  27
   4   1  10 14560.5 786.111  52
   4   1  11 15979.0 1160.32  27
   4   1  11 19697.0 715.771  52
   4   2 -12 62424.1 1145.60  17
   4   2 -12 57552.4 1118.55  23
   4   2 -11 60826.1 1665.23  45
   4   2 -11 61551.4 1396.37  17
   4   2 -10 13854.7 955.333  45
   4   2 -10 15942.3 828.390  17
   4   2  -9 25227.9 1441.59  45
   4   2  -9 24917.1 1221.65  34
   4   2  -8 1081.95 416.346  45
   4   2  -8 348.012 230.804  34
   4   2  -7 33780.7 1828.30  45
   4   2  -7 41876.8 1780.37  34
   4   2  -6 44192.0 2692.18   6
   4   2  -6 70860.0 2406.05  34
   4   2  -5 3715.52 652.884  36
   4   2  -5 4936.65 882.727   6
   4   2  -5 5992.42 711.947  34
   4   2  -4 53764.0 2762.87   6
   4   2  -4 53863.2 2326.56  36
   4   2  -4 61211.7 2189.20  34
   4   2  -3 29509.2 1248.38  13
   4   2  -3 29215.2 1673.75  36
   4   2  -2 7672.38 572.048  13
   4   2  -2 6539.15 794.028  36
   4   2  -2 6841.97 676.963  32
   4   2  -1 17190.0 801.076  13
   4   2  -1 18919.2 1334.37  36
   4   2  -1 15917.6 1164.43  50
   4   2  -1 15721.6 1043.19  32
   4   2   0 31557.2 1624.52  50
   4   2   0 33344.3 1079.86  13
   4   2   1 172380. 3789.09  50
   4   2   1 178313. 2499.67  13
   4   2   2 15076.2 1334.48  36
   4   2   2 12571.5 908.961   8
   4   2   2 14371.7 1094.92  50
   4   2   2 13739.3 723.483  13
   4   2   2 13340.7 962.146  48
   4   2   3 72512.5 2432.05   8
   4   2   3 88624.7 2612.85  48
   4   2   4 7111.49 840.198   8
   4   2   4 10000.4 926.891  48
   4   2   5 37159.4 2517.00  42
   4   2   5 38733.6 1983.06  27
   4   2   5 32291.5 1753.72  55
   4   2   5 33673.3 1815.49   8
   4   2   5 36540.4 1526.70  22
   4   2   5 35960.8 1798.90  48
   4   2   6 41909.6 2907.80  42
   4   2   6 37093.4 1778.13  55
   4   2   6 42284.0 1521.84  22
   4   2   7 3120.48 979.990  42
   4   2   7 2874.02 691.579  27
   4   2   7 2879.33 467.449  55
   4   2   8 6891.49 1081.88  27
   4   2   8 7888.06 682.417  55
   4   2   8 8600.14 723.308  52
   4   2   9 13562.2 1285.55  27
   4   2   9 13053.1 749.662  52
   4   2  10 12388.3 1065.59  27
   4   2  10 13482.3 614.257  52
   4   3 -12 59116.7 951.034  23
   4   3 -11 1526.64 234.072  45
   4   3 -11 1191.04 201.745  23
   4   3 -10 60006.0 1841.83  45
   4   3  -9 491.287 316.102  45
   4   3  -8 19613.2 1369.66  45
   4   3  -7 47351.3 2212.38  45
   4   3  -7 57174.4 2001.02  34
   4   3  -6 10332.4 1039.68  45
   4   3  -6 7984.86 1155.00   6
   4   3  -6 10628.1 915.393  34
   4   3  -5 55812.5 2847.77   6
   4   3  -5 50934.1 2288.81  36
   4   3  -4 1676.57 449.441  36
   4   3  -4 3669.16 717.736   6
   4   3  -3 109030. 2506.60  13
   4   3  -3 110661. 3292.95  36
   4   3  -3 92223.5 3024.06  50
   4   3  -3 95148.3 2797.65  32
   4   3  -2 15083.3 853.566  13
   4   3  -2 12478.0 1071.23  36
   4   3  -2 11182.8 1056.09  50
   4   3  -2 11391.0 995.125  32
   4   3  -1 6655.62 548.541  13
   4   3  -1 7465.13 850.555  36
   4   3  -1 5676.33 752.661  50
   4   3  -1 5580.83 691.865  32
   4   3   0 88292.3 2879.01  50
   4   3   0 94680.1 2013.71  13
   4   3   1 8841.04 1078.78  36
   4   3   1 6749.09 798.373  50
   4   3   1 7275.36 558.619  13
   4   3   2 123914. 3990.70  36
   4   3   2 98328.7 2501.80   8
   4   3   2 95867.4 2981.97  50
   4   3   2 111183. 2210.16  13
   4   3   2 113950. 2884.21  48
   4   3   3 42528.0 2117.33  44
   4   3   3 42911.8 2391.20  42
   4   3   3 50367.5 2064.96  27
   4   3   3 46466.0 2423.74  36
   4   3   3 43012.1 2298.02  55
   4   3   3 35950.6 1678.08   8
   4   3   3 46289.2 2043.29  22
   4   3   3 38226.8 1880.18  50
   4   3   3 43188.8 1433.03  13
   4   3   3 46181.0 1949.02  48
   4   3   4 37734.5 2381.41  42
   4   3   4 41637.6 1950.40  27
   4   3   4 37169.4 1992.51  55
   4   3   4 36718.1 1670.02  22
   4   3   5 56753.5 3192.64  42
   4   3   5 62531.1 2509.02  27
   4   3   5 52645.9 2178.76  55
   4   3   5 58432.5 1915.74  22
   4   3   6 1950.30 806.781  42
   4   3   6 2668.25 569.149  27
   4   3   6 1414.08 376.275  55
   4   3   6 1812.07 325.283  22
   4   3   7 100711. 3475.21  27
   4   3   7 114898. 2581.07  55
   4   3   8 6962.23 906.776  27
   4   3   8 5696.40 521.331  55
   4   3   9 10843.3 924.632  27
   4   4 -11 50995.6 802.315  23
   4   4 -10 17645.0 825.883  45
   4   4 -10 15668.9 601.194  23
   4   4  -9 10471.3 787.364  45
   4   4  -9 8669.11 543.097  23
   4   4  -8 54738.1 2059.07  45
   4   4  -8 53440.5 1524.50  23
   4   4  -7 6927.98 843.390  45
   4   4  -7 6546.92 581.490  23
   4   4  -6 77499.2 2780.58  45
   4   4  -6 81039.6 2061.23  23
   4   4  -5 388.890 299.268  45
   4   4  -5 515.654 191.735  23
   4   4  -4 37537.0 1942.60  45
   4   4  -4 35843.0 1886.17  44
   4   4  -3 1922.97 500.695  45
   4   4  -3 894.130 274.357  13
   4   4  -3 1035.62 339.236  44
   4   4  -3 1428.85 351.942  27
   4   4  -3 970.641 331.949  36
   4   4  -2 196.098 247.348  45
   4   4  -2 517.620 230.577  13
   4   4  -2 300.583 289.509  44
   4   4  -2 195.040 229.105  27
   4   4  -2 57.9315 227.755  36
   4   4  -1 226398. 3267.89  13
   4   4  -1 210060. 4532.51  44
   4   4  -1 216452. 4706.32  36
   4   4   0 14519.4 828.642  13
   4   4   0 11878.5 1100.32  44
   4   4   0 15718.9 1106.23  27
   4   4   0 12543.8 1186.30  36
   4   4   1 147440. 3794.14  44
   4   4   1 151405. 3349.35  27
   4   4   1 132746. 3973.70  36
   4   4   1 138283. 2499.19  13
   4   4   2 120514. 3478.09  44
   4   4   2 142847. 4213.59  42
   4   4   2 134199. 3183.18  27
   4   4   2 102442. 3593.88  36
   4   4   2 117713. 3556.75  22
   4   4   2 108113. 2243.02  13
   4   4   3 12875.8 1170.45  44
   4   4   3 16514.7 1548.62  42
   4   4   3 13977.3 1071.12  27
   4   4   3 13717.3 1257.39  55
   4   4   3 12497.9 1047.25  22
   4   4   4 49868.1 2236.26  44
   4   4   4 55583.8 2879.51  42
   4   4   4 55092.0 2186.51  27
   4   4   4 50624.0 2154.52  55
   4   4   4 48715.7 1795.74  22
   4   4   5 7503.54 1134.69  42
   4   4   5 8320.75 920.471  27
   4   4   5 7107.49 763.998  55
   4   4   5 7430.02 626.566  22
   4   4   6 54971.5 2928.15  42
   4   4   6 53127.4 1692.75  55
   4   4   6 57116.9 1418.65  22
   4   4   7 43880.8 2363.34  42
   4   4   7 46134.4 1915.41  27
   4   4   7 47805.8 1354.57  55
   4   4   8 163.277 253.827  42
   4   4   8 1099.03 186.838  55
   4   5  -9 12542.4 596.425  45
   4   5  -8 5325.32 501.638  45
   4   5  -8 1362.64 275.993  27
   4   5  -7 62061.2 1993.58  45
   4   5  -7 28041.1 1282.56  27
   4   5  -6 3516.35 547.327  45
   4   5  -6 2487.94 404.058  27
   4   5  -5 41469.5 1868.19  45
   4   5  -5 44076.7 1748.62  27
   4   5  -4 19383.2 1285.14  45
   4   5  -4 20264.2 1319.91  44
   4   5  -3 56889.4 2301.15  44
   4   5  -3 77612.2 2256.59  27
   4   5  -2 49356.0 2173.93  44
   4   5  -2 49548.2 1875.82  22
   4   5  -1 1543.86 416.949  44
   4   5  -1 2537.01 616.647  42
   4   5  -1 1089.73 297.230  27
   4   5  -1 1390.83 425.167  22
   4   5   0 59434.0 2349.34  44
   4   5   0 66541.5 1987.57  27
   4   5   0 63139.5 2587.84  22
   4   5   1 48958.0 2099.16  44
   4   5   1 54573.6 1803.55  27
   4   5   1 51405.4 2277.31  22
   4   5   2 19989.6 1314.34  44
   4   5   2 23319.4 1192.41  27
   4   5   2 18628.9 1230.93  55
   4   5   2 22288.0 1373.05  22
   4   5   3 69806.1 2375.88  44
   4   5   3 82022.1 3140.63  42
   4   5   3 81462.4 2252.74  27
   4   5   3 67436.4 2209.34  55
   4   5   3 79091.7 2205.87  22
   4   5   4 6995.59 912.422  42
   4   5   4 7341.45 661.357  27
   4   5   4 7351.15 647.434  55
   4   5   4 8820.21 629.486  22
   4   5   5 54201.0 1459.75  55
   4   5   5 58040.1 1261.49  22
   4   5   6 31611.9 1633.35  42
   4   5   6 50139.9 1112.13  55
   4   6  -6 3596.21 411.489  42
   4   6  -5 31622.1 1011.80  44
   4   6  -5 10586.5 806.361  42
   4   6  -4 18292.7 941.957  44
   4   6  -4 12901.3 959.664  42
   4   6  -3 58374.9 1870.69  44
   4   6  -3 67711.9 2270.84  42
   4   6  -2 7916.38 737.359  44
   4   6  -2 7129.31 478.636  22
   4   6  -1 177177. 3443.40  44
   4   6  -1 164268. 2672.32  22
   4   6   0 19128.0 1121.18  44
   4   6   0 22294.0 1398.44  42
   4   6   0 20470.7 1025.08  22
   4   6   1 4926.66 586.146  44
   4   6   1 5257.15 676.538  42
   4   6   1 6402.21 576.770  22
   4   6   2 27677.7 1529.66  42
   4   6   2 52086.3 1371.82  22
   4   6   3 1948.35 452.725  42
   4   6   3 5433.92 358.182  22
   5  -8  -2 34488.0 1123.71  16
   5  -8  -1 523.094 189.185  16
   5  -8   0 56265.8 1773.93  16
   5  -8   1 37825.9 1363.52  16
   5  -7  -6 23796.5 788.155  24
   5  -7  -5 344.156 144.038  24
   5  -7  -4 16443.3 838.245  16
   5  -7  -4 14233.6 756.790  24
   5  -7  -3 20865.1 1120.82  16
   5  -7  -3 16585.8 856.173  24
   5  -7  -2 3187.78 521.848  16
   5  -7  -2 2719.75 378.223  24
   5  -7  -1 33070.1 1846.46  16
   5  -7   0 11916.4 1203.27  16
   5  -7   1 85453.8 3008.28  16
   5  -7   2 10875.9 965.739  16
   5  -7   2 10686.5 724.441  26
   5  -7   3 759.981 249.778  16
   5  -7   3 1045.43 263.512  26
   5  -7   4 54164.8 1689.49  26
   5  -7   5 3365.29 404.052  26
   5  -7   6 17129.1 690.622  26
   5  -6  -9 29069.1 797.902  18
   5  -6  -8 136.181 128.593  18
   5  -6  -8 220.063 151.975  39
   5  -6  -7 73691.2 1939.78  18
   5  -6  -7 75937.9 1821.25  39
   5  -6  -6 10052.5 803.484  18
   5  -6  -6 13512.3 773.309  24
   5  -6  -5 27822.0 1170.74  24
   5  -6  -4 17448.7 1049.68  16
   5  -6  -4 15850.0 1275.23  56
   5  -6  -4 14660.1 887.721  24
   5  -6  -3 5931.89 713.927  16
   5  -6  -3 5100.38 804.695  56
   5  -6  -2 47033.5 2252.68  16
   5  -6  -1 20890.6 1715.38  16
   5  -6   0 23332.1 1886.76  16
   5  -6   1 54526.4 2762.48  16
   5  -6   2 15042.0 1307.58  16
   5  -6   2 14527.0 1054.65  26
   5  -6   3 79790.0 2490.29  16
   5  -6   3 77866.9 2580.58  26
   5  -6   4 2464.38 495.997  26
   5  -6   5 43381.4 1739.85  26
   5  -6   6 54004.8 1662.82  26
   5  -6   6 49198.2 1319.74  25
   5  -6   7 1759.77 269.761  26
   5  -6   7 1319.13 214.789  25
   5  -6   8 37415.3 838.161  26
   5  -6   8 39078.3 830.635  25
   5  -5 -10 45848.5 1177.04  18
   5  -5  -9 1249.80 292.543  18
   5  -5  -9 1263.80 276.490  39
   5  -5  -8 14811.7 987.415  18
   5  -5  -8 12236.5 825.801  39
   5  -5  -7 49460.5 1994.02  18
   5  -5  -7 51692.5 1872.07  39
   5  -5  -6 4836.31 646.108  18
   5  -5  -6 5134.94 651.024  39
   5  -5  -6 5825.89 548.359  24
   5  -5  -5 31252.6 1672.25  18
   5  -5  -5 40292.6 1512.51  24
   5  -5  -4 1252.72 352.867  18
   5  -5  -4 2046.39 385.700  16
   5  -5  -4 1766.85 547.760  56
   5  -5  -3 148658. 3687.55  16
   5  -5  -3 124413. 4027.74  56
   5  -5  -2 7798.19 866.121  10
   5  -5  -2 11112.3 1140.21  16
   5  -5  -1 28455.8 1604.80  10
   5  -5  -1 30546.6 1527.51  52
   5  -5   0 35427.3 1676.14  10
   5  -5   0 41062.5 1617.66  52
   5  -5   1 8688.45 780.066  10
   5  -5   1 10139.5 851.281  26
   5  -5   1 10635.0 842.964  52
   5  -5   2 46607.1 2378.50  16
   5  -5   2 42405.9 1935.07  26
   5  -5   2 40578.0 1601.87  52
   5  -5   3 103980. 3036.17  16
   5  -5   3 102718. 3210.08  26
   5  -5   3 103990. 2596.17  52
   5  -5   4 61247.4 2464.07  26
   5  -5   4 57499.5 1693.15  25
   5  -5   4 59261.8 1986.62  52
   5  -5   5 92037.2 2265.69  25
   5  -5   5 81625.9 2306.88  52
   5  -5   6 382.397 235.018  26
   5  -5   6 429.233 206.763  25
   5  -5   7 73905.4 1903.10  26
   5  -5   7 73326.8 1914.46  25
   5  -5   8 4691.34 408.162  26
   5  -5   8 5587.15 476.542  25
   5  -5   9 28176.1 661.826  26
   5  -5   9 36415.3 914.828  25
   5  -4 -11 34996.4 976.563  18
   5  -4 -11 25843.6 799.059  54
   5  -4 -10 3767.61 418.276  18
   5  -4 -10 2935.88 367.883  39
   5  -4 -10 3739.93 401.023  54
   5  -4  -9 37782.0 1523.74  18
   5  -4  -9 32187.7 1351.38  39
   5  -4  -8 15550.3 1115.37  18
   5  -4  -8 12791.3 950.457  39
   5  -4  -7 33367.6 1795.71  18
   5  -4  -7 33971.7 1667.76  39
   5  -4  -6 32572.9 1821.00  18
   5  -4  -6 36079.2 1813.10  39
   5  -4  -5 994.299 334.366  18
   5  -4  -5 1118.14 341.451  39
   5  -4  -5 887.195 280.672  17
   5  -4  -5 1859.43 367.959  10
   5  -4  -5 956.147 249.720  51
   5  -4  -5 1452.72 415.608  49
   5  -4  -4 108486. 2931.30  10
   5  -4  -4 71802.9 1953.51  51
   5  -4  -3 5788.85 734.559  10
   5  -4  -3 3813.35 441.592  51
   5  -4  -2 58267.8 2340.38  10
   5  -4  -2 49709.7 1524.95  51
   5  -4  -1 45439.9 2013.75  10
   5  -4  -1 38565.8 1332.62  51
   5  -4   0 10159.8 912.592  10
   5  -4   1 84445.6 2430.11  10
   5  -4   2 6158.04 629.046  10
   5  -4   3 82600.3 2159.18  10
   5  -4   3 91261.5 3013.81  26
   5  -4   3 95547.9 2158.70  25
   5  -4   3 97457.1 2488.67  52
   5  -4   3 79837.4 2438.53  21
   5  -4   4 53317.1 2323.43  26
   5  -4   4 51922.6 1726.64  25
   5  -4   4 51484.1 1875.71  52
   5  -4   4 53966.9 1939.37  21
   5  -4   5 6546.96 816.282  26
   5  -4   5 5174.47 598.084  25
   5  -4   5 4418.76 601.246  52
   5  -4   5 5936.83 600.673  21
   5  -4   6 129048. 3117.03  26
   5  -4   6 109930. 2751.01  25
   5  -4   6 100699. 2732.49  52
   5  -4   6 132640. 2424.71  21
   5  -4   7 45732.2 1629.59  26
   5  -4   7 46587.1 1730.13  25
   5  -4   7 42285.4 1667.36  52
   5  -4   8 18823.4 882.266  26
   5  -4   8 18862.3 968.256  25
   5  -4   9 49162.3 1284.78  25
   5  -4  10 6236.66 347.954  25
   5  -3 -12 17633.3 690.961  54
   5  -3 -11 6734.82 472.959  18
   5  -3 -11 5894.49 376.552  17
   5  -3 -11 6079.46 537.178  54
   5  -3 -10 57873.8 1683.15  18
   5  -3 -10 55916.5 1432.64  17
   5  -3 -10 55047.9 1867.69  54
   5  -3  -9 16532.1 1052.89  18
   5  -3  -9 14575.9 977.300  39
   5  -3  -9 14309.6 856.268  17
   5  -3  -9 15353.1 1128.18  54
   5  -3  -8 4841.27 649.847  18
   5  -3  -8 3785.61 586.914  39
   5  -3  -8 3879.92 512.751  17
   5  -3  -8 4153.02 655.989  54
   5  -3  -7 85181.9 2913.85  18
   5  -3  -7 85973.1 2750.23  39
   5  -3  -7 70030.1 2199.21  17
   5  -3  -7 75593.8 2776.06  54
   5  -3  -6 5695.41 632.395  11
   5  -3  -6 8519.01 949.446  18
   5  -3  -6 7663.24 875.468  39
   5  -3  -6 8204.32 760.400  17
   5  -3  -6 7339.71 719.712  51
   5  -3  -5 107503. 2536.78  11
   5  -3  -5 100787. 2499.22  51
   5  -3  -4 2599.10 410.582  11
   5  -3  -4 3473.85 501.416  10
   5  -3  -4 3036.83 414.318  51
   5  -3  -3 110685. 2392.20  11
   5  -3  -3 107655. 2348.33  51
   5  -3  -2 57968.6 2233.99  10
   5  -3  -2 68407.4 1827.94  51
   5  -3  -1 2.53755 145.117  10
   5  -3  -1-115.030 116.879  51
   5  -3   0 102596. 2811.50  10
   5  -3   0 97958.2 2191.16  51
   5  -3   1 14543.8 1015.87  10
   5  -3   1 14059.8 866.884  51
   5  -3   2 113823. 2712.15  10
   5  -3   2 119542. 2546.21  51
   5  -3   3 165955. 3226.95  10
   5  -3   3 172755. 3192.22  51
   5  -3   4 33963.8 1444.01  10
   5  -3   4 31998.0 1447.30  51
   5  -3   5 31054.2 1434.56  19
   5  -3   5 34600.9 1776.77  26
   5  -3   5 32134.3 1481.58  25
   5  -3   5 32415.2 1555.59  52
   5  -3   5 29974.0 1482.19  51
   5  -3   5 34142.5 1378.77  21
   5  -3   6 15230.4 1100.02  26
   5  -3   6 12367.9 944.953  25
   5  -3   6 13653.9 1053.25  52
   5  -3   6 15662.4 841.634  21
   5  -3   7 23674.8 1207.18  26
   5  -3   7 22915.6 1259.88  25
   5  -3   7 22068.5 885.499  21
   5  -3   8 69302.6 1756.20  26
   5  -3   8 71911.6 1981.01  25
   5  -3   8 69752.0 2110.51  52
   5  -3   9 4292.41 414.013  25
   5  -3   9 4818.73 473.277  52
   5  -3  10 88705.0 1396.40  25
   5  -3  10 88947.8 1454.33  52
   5  -2 -12 651.213 143.129  17
   5  -2 -12 338.548 156.242  54
   5  -2 -11 96222.1 1781.19  17
   5  -2 -11 99557.8 2336.23  54
   5  -2 -10 26061.3 1112.72  18
   5  -2 -10 24100.7 1071.31  17
   5  -2 -10 24405.9 1353.82  54
   5  -2  -9 19240.7 1127.21  18
   5  -2  -9 18758.8 1075.69  17
   5  -2  -9 18632.8 1344.37  54
   5  -2  -8 42860.3 1852.39  18
   5  -2  -8 39013.3 1663.20  17
   5  -2  -8 36684.6 2012.38  54
   5  -2  -7 487.441 255.234  11
   5  -2  -7 882.997 286.223  18
   5  -2  -7 940.605 378.059  39
   5  -2  -7 228.686 206.836  17
   5  -2  -7 670.694 433.678  54
   5  -2  -7 725.568 233.440  51
   5  -2  -6 17366.4 1106.89  11
   5  -2  -6 19121.4 1158.61  51
   5  -2  -5 95074.6 2405.88  11
   5  -2  -5 96345.5 2463.66  51
   5  -2  -4 25895.9 1203.81  11
   5  -2  -4 25907.4 1204.18  51
   5  -2  -3 51098.1 1632.18  11
   5  -2  -3 54106.1 2015.09  10
   5  -2  -3 51764.6 1625.66  51
   5  -2  -2 1734.51 319.183  11
   5  -2  -2 2159.60 443.960  10
   5  -2  -2 1616.23 297.141  51
   5  -2  -1 85410.9 2589.33  10
   5  -2  -1 90863.7 2116.49  51
   5  -2   0 26346.8 1412.95  10
   5  -2   0 26803.7 1171.69  51
   5  -2   1 90889.1 2570.49  10
   5  -2   1 95885.3 2239.18  51
   5  -2   2 101882. 2674.35  10
   5  -2   2 108313. 2480.85  51
   5  -2   3 3235.17 515.933  10
   5  -2   3 3619.31 480.256  51
   5  -2   4 24381.8 1325.01  10
   5  -2   4 25076.8 1322.78  51
   5  -2   5 99873.3 2464.94  19
   5  -2   5 104118. 2995.69  26
   5  -2   5 92932.8 2604.33  52
   5  -2   5 93739.6 2694.58  51
   5  -2   6 18897.0 1142.07  19
   5  -2   6 19781.1 1230.16  26
   5  -2   6 15696.1 1080.51  25
   5  -2   6 17605.7 1205.87  52
   5  -2   6 17152.4 862.669  21
   5  -2   7 65270.8 2089.17  25
   5  -2   7 67081.3 1548.28  21
   5  -2   8 226.274 188.007  25
   5  -2   8-250.105 173.594  52
   5  -2   9 57463.2 1447.61  25
   5  -2   9 59166.8 1750.62  52
   5  -2  10 401.925 118.569  25
   5  -2  10 549.296 179.393  52
   5  -1 -12 40824.7 988.118  17
   5  -1 -12 40152.7 1254.21  54
   5  -1 -11 34292.9 1125.12  17
   5  -1 -11 33218.6 1390.88  54
   5  -1 -10 42451.3 1466.13  17
   5  -1 -10 42337.5 1827.99  54
   5  -1  -9 64970.7 2034.14  17
   5  -1  -9 67166.6 2565.34  54
   5  -1  -8 248.705 153.382  17
   5  -1  -8 720.882 417.406  54
   5  -1  -8 150.380 257.453  34
   5  -1  -7 54594.0 2005.29  11
   5  -1  -7 71055.3 2280.97  17
   5  -1  -7 65767.1 2762.41  54
   5  -1  -7 69732.9 2786.65  34
   5  -1  -7 54746.1 1985.45  51
   5  -1  -6 6888.90 700.940  11
   5  -1  -6 7755.26 994.352  34
   5  -1  -6 6128.55 656.592  51
   5  -1  -5 9076.34 759.701  11
   5  -1  -5 9144.74 1051.55  34
   5  -1  -5 10013.7 800.187  51
   5  -1  -4 52575.7 1719.51  11
   5  -1  -4 51521.2 1687.82  51
   5  -1  -3 22582.4 1092.68  11
   5  -1  -3 25602.5 1403.05  10
   5  -1  -3 22950.2 1086.64  51
   5  -1  -2 43432.4 1473.08  11
   5  -1  -2 43193.5 1899.87  10
   5  -1  -2 44664.0 1484.19  51
   5  -1  -1 75635.9 2586.82  10
   5  -1  -1 76206.5 1940.51  51
   5  -1   0 22183.8 1367.00  10
   5  -1   0 20170.4 1019.16  51
   5  -1   1 66086.2 2336.58  10
   5  -1   1 67460.1 1908.35  51
   5  -1   2 22899.0 1367.88  10
   5  -1   2 23031.3 1155.74  51
   5  -1   3 75930.9 2462.52  10
   5  -1   3 77278.4 2219.25  51
   5  -1   4 5268.63 680.015  10
   5  -1   4 5415.30 635.359  51
   5  -1   5 2551.51 399.971  19
   5  -1   5 2975.60 545.190  10
   5  -1   5 2750.11 531.478  26
   5  -1   5 1841.63 349.825  25
   5  -1   5 2378.23 438.536  52
   5  -1   5 2730.11 507.555  51
   5  -1   6 53262.1 1832.91  19
   5  -1   6 54110.1 1956.29  26
   5  -1   6 44969.2 1747.30  25
   5  -1   6 46213.9 1923.86  52
   5  -1   7 666.491 355.255  27
   5  -1   7 766.405 277.352  25
   5  -1   7 449.569 264.737  52
   5  -1   8 74209.4 1827.69  25
   5  -1   8 68536.0 2187.97  52
   5  -1   9 7139.47 884.740  27
   5  -1   9 11681.6 795.028  52
   5  -1  10 7373.46 769.170  27
   5  -1  10 12864.4 650.802  52
   5  -1  11 18741.6 530.112  52
   5   0 -12 51800.4 1075.74  17
   5   0 -12 49517.9 1297.16  54
   5   0 -11 57453.9 1405.85  17
   5   0 -11 53742.2 1690.57  54
   5   0 -10 95190.7 2129.59  17
   5   0 -10 94602.8 2636.61  54
   5   0  -9 6000.39 617.326  17
   5   0  -9 6892.73 821.847  54
   5   0  -9 7092.91 587.529  23
   5   0  -8 32906.7 1508.27  17
   5   0  -8 30919.8 1831.76  54
   5   0  -8 32074.6 1359.70  23
   5   0  -8 35571.4 1760.79  34
   5   0  -7 34084.5 1547.64  11
   5   0  -7 37634.8 1624.12  17
   5   0  -7 34531.6 1993.66  54
   5   0  -7 35427.3 1520.38  23
   5   0  -7 34084.9 1474.11  51
   5   0  -6 10831.5 849.016  11
   5   0  -6 10374.1 817.591  51
   5   0  -5 228150. 3692.52  11
   5   0  -5 229986. 3628.07  51
   5   0  -4 9751.03 739.233  11
   5   0  -4 8578.48 892.258  34
   5   0  -4 9789.55 732.513  51
   5   0  -3 17532.7 957.077  11
   5   0  -3 17385.6 943.271  51
   5   0  -2 16726.7 911.197  11
   5   0  -2 19328.1 1419.67  10
   5   0  -2 16486.7 893.370  51
   5   0  -1 27212.4 1743.90  10
   5   0  -1 30189.1 1218.26  51
   5   0   0 120614. 3648.23  10
   5   0   0 119150. 2450.83  51
   5   0   1 500.428 300.682  10
   5   0   1 271.331 193.436  51
   5   0   2 193536. 4414.85  10
   5   0   2 190242. 3363.10  51
   5   0   3 41129.3 2012.20  10
   5   0   3 41125.3 1851.64   8
   5   0   3 43808.7 1701.59  51
   5   0   4 20834.7 1413.61   8
   5   0   4 22067.4 1300.07  51
   5   0   5 84137.1 2851.34   8
   5   0   5 82849.1 2305.51  52
   5   0   6 20747.6 1687.90  27
   5   0   6 20757.6 1130.85  25
   5   0   6 18638.4 1180.33  52
   5   0   7 43387.1 2533.17  27
   5   0   7 46478.6 1843.37  52
   5   0   8 6636.75 965.917  27
   5   0   8 7758.77 717.703  52
   5   0   9 11757.6 1126.37  27
   5   0   9 18142.2 906.762  52
   5   0  10 18683.1 1171.42  27
   5   0  10 28194.7 873.414  52
   5   1 -12 13630.4 449.276  17
   5   1 -11 49338.1 1401.49  54
   5   1 -11 46061.9 1009.35  23
   5   1 -10 424.720 131.187  17
   5   1 -10 366.529 201.589  54
   5   1 -10 387.980 149.292  23
   5   1  -9 44989.8 1490.79  17
   5   1  -9 41622.8 1836.41  54
   5   1  -9 40507.2 1401.79  23
   5   1  -8 49387.8 1681.56  17
   5   1  -8 39246.8 1986.13  54
   5   1  -8 46508.7 1868.07  34
   5   1  -8 41998.1 1610.66  23
   5   1  -7 15565.7 1312.22  54
   5   1  -7 15425.8 1064.67  23
   5   1  -6 71322.9 2076.60  11
   5   1  -6 68992.9 2746.71  54
   5   1  -6 72229.3 2262.29  23
   5   1  -5 2641.38 410.274  11
   5   1  -5 3210.51 575.598  34
   5   1  -4 32862.5 1303.28  11
   5   1  -4 29041.2 1570.10  34
   5   1  -3 21927.9 1026.94  11
   5   1  -2 18133.4 1534.64  10
   5   1  -1 45378.7 2594.39  10
   5   1  -1 24140.7 2132.20  36
   5   1   0 47.2581 329.895  10
   5   1   0 220.002 444.009  36
   5   1   1 111845. 4799.39  36
   5   1   1 125367. 2666.77   8
   5   1   2 18167.2 1123.34   8
   5   1   3 74295.9 1845.82  19
   5   1   3 80797.5 2569.26  27
   5   1   3 65322.9 2352.01   8
   5   1   3 90696.5 2931.55  22
   5   1   4 102081. 3049.87  55
   5   1   4 107770. 3172.48   8
   5   1   5 1135.95 424.046  27
   5   1   5 1352.26 456.268  55
   5   1   6 97723.0 3526.52  27
   5   1   6 92369.7 2352.70  52
   5   1   7 19943.3 1646.66  27
   5   1   7 19058.3 1054.08  52
   5   1   8 25839.0 1817.04  27
   5   1   8 34454.2 1269.49  52
   5   1   9 39443.6 1894.19  27
   5   1   9 56618.8 1328.44  52
   5   1  10 1206.46 313.639  27
   5   2 -11 1397.32 177.401  23
   5   2 -10 11416.3 597.065  23
   5   2  -9 40015.4 1328.21  23
   5   2  -8 6191.88 608.495  23
   5   2  -7 52338.5 1873.19  23
   5   2  -6 4501.37 599.871  23
   5   2  -6 4378.45 609.739  34
   5   2  -5 108835. 2704.32  23
   5   2  -4 6725.11 636.783  23
   5   2  -3 2607.98 468.389  27
   5   2  -3 1664.15 467.651  36
   5   2  -3 1933.71 314.602  23
   5   2  -2 33031.5 1656.69  27
   5   2  -2 25408.0 1093.46  23
   5   2  -1 884.719 233.564  13
   5   2  -1 889.633 259.187  27
   5   2  -1 308.470 288.848  36
   5   2  -1 381.797 171.172  23
   5   2   0 101544. 4264.72  36
   5   2   0 114413. 3671.04  22
   5   2   1 38023.3 2115.84  44
   5   2   1 41397.9 1790.20  27
   5   2   1 34491.0 2535.16  36
   5   2   1 41182.8 2265.32  22
   5   2   2 74312.5 2442.43  27
   5   2   2 76412.9 2947.33  22
   5   2   3 47810.0 2019.14  27
   5   2   3 51397.2 2183.93  22
   5   2   4 328.856 215.122  27
   5   2   4 305.822 181.563  55
   5   2   4 400.508 194.142  22
   5   2   5 62013.5 2568.16  27
   5   2   5 51800.7 1970.00  55
   5   2   6 7808.01 969.273  27
   5   2   6 7609.71 713.688  55
   5   2   7 19113.9 1513.57  27
   5   2   8 55514.3 2248.76  27
   5   2   9 1292.19 285.811  27
   5   3 -10 19433.1 623.173  23
   5   3  -9 9284.26 611.256  45
   5   3  -9 8864.14 526.040  23
   5   3  -8 71419.7 2067.97  45
   5   3  -8 69922.6 1726.35  23
   5   3  -7 7597.05 804.108  45
   5   3  -7 7385.23 628.712  23
   5   3  -6 52916.2 2194.77  45
   5   3  -6 56715.0 1793.21  23
   5   3  -5 36567.1 1865.54  45
   5   3  -5 38342.6 1471.56  23
   5   3  -4 8598.32 914.435  45
   5   3  -4 9434.46 710.544  23
   5   3  -3 43998.9 2013.71  45
   5   3  -3 48009.7 1484.77  23
   5   3  -2 7803.01 1010.20  36
   5   3  -2 11200.3 694.978  23
   5   3  -1 48860.7 1621.63  13
   5   3  -1 58259.0 2921.85  36
   5   3   0 27992.9 1810.63  44
   5   3   0 28643.9 1742.87  42
   5   3   0 32300.1 1585.74  27
   5   3   0 23027.1 1918.38  36
   5   3   0 25431.1 1712.36  22
   5   3   1 46052.8 2306.06  44
   5   3   1 52630.8 2444.36  42
   5   3   1 54321.1 2052.31  27
   5   3   1 43645.0 2734.19  36
   5   3   1 51867.4 2508.86  22
   5   3   2 74595.4 3013.36  42
   5   3   2 75675.7 2457.96  27
   5   3   2 75099.8 2781.95  22
   5   3   3 6378.90 957.450  42
   5   3   3 6552.66 748.408  27
   5   3   3 7466.35 776.740  22
   5   3   4 86847.8 3449.87  42
   5   3   4 96981.9 2952.65  27
   5   3   4 80745.2 2356.96  55
   5   3   4 103053. 2513.39  22
   5   3   5 52067.3 2658.11  42
   5   3   5 46274.9 2166.46  27
   5   3   5 47304.0 1634.39  55
   5   3   6 15453.0 1356.14  42
   5   3   6 13719.1 1104.46  27
   5   3   6 17383.9 852.788  55
   5   3   7 6259.12 706.654  42
   5   3   7 44765.3 1807.05  27
   5   4  -8 1910.89 260.917  45
   5   4  -8 1913.26 202.821  23
   5   4  -7 35838.8 1389.07  45
   5   4  -7 39135.1 1038.82  23
   5   4  -6 34495.3 1542.45  45
   5   4  -6 32423.0 1488.57  27
   5   4  -5 6870.41 760.921  45
   5   4  -5 7688.52 816.379  27
   5   4  -4 72087.1 2324.32  27
   5   4  -3 46481.7 2220.96  42
   5   4  -3 42718.1 1754.14  27
   5   4  -2 131334. 3676.31  42
   5   4  -2 116956. 2824.85  27
   5   4  -1 28514.8 1759.47  44
   5   4  -1 37870.9 1979.55  42
   5   4  -1 34899.7 1541.59  27
   5   4  -1 28397.1 1448.26  22
   5   4   0 27228.0 1723.93  44
   5   4   0 26820.3 1577.30  22
   5   4   1 88571.8 3136.29  42
   5   4   1 84699.3 2359.62  27
   5   4   1 79158.3 2674.92  22
   5   4   2 4648.28 763.323  42
   5   4   2 4712.51 593.091  27
   5   4   2 5201.23 655.716  22
   5   4   3 20614.6 1533.10  42
   5   4   3 22728.6 1239.93  27
   5   4   3 23609.6 1177.94  22
   5   4   4 49553.4 2300.93  42
   5   4   4 47503.2 1337.22  55
   5   4   5 4742.32 700.099  42
   5   4   5 5415.48 601.925  27
   5   4   5 6121.75 413.091  55
   5   5  -5 13495.6 799.518  42
   5   5  -5 21535.7 879.485  27
   5   5  -4 530.735 201.437  42
   5   5  -4 367.393 152.660  27
   5   5  -3 46350.2 1527.38  44
   5   5  -3 47809.9 1462.75  27
   5   5  -2 5842.91 639.708  44
   5   5  -2 6523.16 790.384  42
   5   5  -2 7500.23 590.444  27
   5   5  -1 11086.1 921.852  44
   5   5  -1 13366.4 1059.16  42
   5   5  -1 11415.1 635.228  22
   5   5   0 87136.4 2703.98  42
   5   5   0 93319.1 2033.63  27
   5   5   1 3474.04 567.707  42
   5   5   1 4434.67 456.616  27
   5   5   1 4784.67 474.920  22
   5   5   2 16871.8 1191.48  42
   5   5   2 16755.8 834.279  27
   6  -7  -4 37635.4 857.564  16
   6  -7  -3 1040.13 220.090  16
   6  -7  -2 55413.0 1649.26  16
   6  -7  -1 32167.6 1428.68  16
   6  -7   0 16777.2 1088.45  16
   6  -7   1 4636.39 560.254  16
   6  -7   2 1664.17 287.678  16
   6  -6  -7 10464.2 527.305  18
   6  -6  -6 64.6045 145.647  18
   6  -6  -5 31615.6 1175.73  18
   6  -6  -4 4060.44 448.474  16
   6  -6  -3 33055.0 1426.65  16
   6  -6  -2 28993.1 1545.62  16
   6  -6  -1 21040.3 1474.95  16
   6  -6   0 67353.3 2728.71  16
   6  -6   1 6112.07 841.488  16
   6  -6   2 73654.6 2277.86  16
   6  -6   2 75955.9 1938.36  26
   6  -6   3 6529.78 557.631  16
   6  -6   3 6783.89 645.862  26
   6  -6   4 4995.95 524.371  26
   6  -6   5 60373.7 1579.67  26
   6  -6   6 8567.36 469.603  26
   6  -5  -9 9815.15 503.683  18
   6  -5  -8 48370.4 1405.14  18
   6  -5  -7 2759.13 424.742  18
   6  -5  -6 67855.8 2182.85  18
   6  -5  -5 6067.25 713.561  18
   6  -5  -5 8583.31 634.161  16
   6  -5  -4 33474.5 1568.93  18
   6  -5  -4 51689.3 1756.18  16
   6  -5  -3 43634.8 1723.00  18
   6  -5  -3 71262.9 2364.03  16
   6  -5  -2 185.886 221.405  16
   6  -5  -1 74246.8 3028.34  16
   6  -5   0 45782.7 2476.83  16
   6  -5   0 34488.4 1522.60  52
   6  -5   1 18567.5 1508.40  16
   6  -5   1 15837.6 962.176  26
   6  -5   1 18155.0 1061.06  52
   6  -5   2 55717.4 2280.78  16
   6  -5   2 52899.0 1927.84  26
   6  -5   2 58987.0 1897.06  52
   6  -5   3 16283.4 1033.20  16
   6  -5   3 16314.1 1150.49  26
   6  -5   3 16929.2 1025.75  52
   6  -5   4 79296.9 2440.61  26
   6  -5   4 78175.4 1784.19  25
   6  -5   4 80591.6 2184.82  52
   6  -5   5 17599.9 1052.89  26
   6  -5   5 17218.8 854.166  25
   6  -5   5 16892.9 964.211  52
   6  -5   6 19732.4 942.482  26
   6  -5   6 18823.2 837.597  25
   6  -5   6 20696.9 903.089  52
   6  -5   7 53156.8 1192.57  26
   6  -5   7 55444.8 1206.62  25
   6  -4 -10 36588.9 915.951  18
   6  -4  -9 50096.3 1408.26  18
   6  -4  -8 14714.7 932.960  18
   6  -4  -8 13285.9 685.432  17
   6  -4  -7 10784.9 918.973  18
   6  -4  -7 8659.42 652.566  17
   6  -4  -6 16112.8 1223.10  18
   6  -4  -6 13654.1 892.470  17
   6  -4  -5 35605.9 1836.74  18
   6  -4  -5 34088.5 1446.54  17
   6  -4  -4 51298.0 2157.95  18
   6  -4  -4 69935.3 2195.64  16
   6  -4  -3 435.838 213.318  18
   6  -4  -3 824.015 355.597  16
   6  -4  -2 68637.5 2256.18  18
   6  -4  -2 101307. 3324.08  16
   6  -4  -1 30718.7 2007.10  16
   6  -4  -1 27317.8 1300.49  52
   6  -4   0 66111.3 3032.32  16
   6  -4   0 59831.2 1924.48  52
   6  -4   1 68346.8 2944.86  16
   6  -4   1 61401.8 2022.05  26
   6  -4   1 66917.1 2023.60  52
   6  -4   1 58436.7 1838.83  21
   6  -4   2 18112.3 1353.23  16
   6  -4   2 16530.2 1174.25  26
   6  -4   2 17583.1 889.311  25
   6  -4   2 17868.2 1072.81  52
   6  -4   2 16952.6 1075.39  21
   6  -4   3 16758.7 1134.27  16
   6  -4   3 14665.5 1163.61  26
   6  -4   3 16778.3 923.986  25
   6  -4   3 17570.1 1086.65  52
   6  -4   3 15937.8 1059.12  21
   6  -4   4 22290.9 1413.71  26
   6  -4   4 22680.7 1111.96  25
   6  -4   4 24456.1 1290.57  52
   6  -4   5 12547.5 976.252  26
   6  -4   5 10670.2 784.061  25
   6  -4   5 9573.07 817.602  52
   6  -4   5 12363.0 775.344  21
   6  -4   6 59815.6 1775.90  25
   6  -4   6 55378.1 1806.58  52
   6  -4   7 290.693 165.471  26
   6  -4   7 231.212 95.5778  25
   6  -4   7 535.441 217.644  52
   6  -4   8 70260.1 1337.88  25
   6  -4   8 72279.4 1276.63  52
   6  -3 -10 35941.9 1007.07  18
   6  -3 -10 34304.7 884.971  17
   6  -3  -9 7821.00 605.470  18
   6  -3  -9 7312.74 533.214  17
   6  -3  -9 6393.99 605.574  54
   6  -3  -8 99252.4 2240.10  17
   6  -3  -8 93479.6 2597.94  54
   6  -3  -7 18296.8 1077.36  17
   6  -3  -7 17265.5 1231.33  54
   6  -3  -6 51831.7 2245.17  18
   6  -3  -6 50761.8 1854.12  17
   6  -3  -5 21285.2 1472.70  18
   6  -3  -5 22202.6 1228.09  17
   6  -3  -4 446.320 303.011  18
   6  -3  -4 354.410 224.464  17
   6  -3  -4 132.444 116.627  16
   6  -3  -3 60637.7 2311.63  18
   6  -3  -3 64996.6 1954.55  17
   6  -3  -2 42334.6 1843.26  18
   6  -3  -2 43510.4 2045.13  10
   6  -3  -2 59250.5 2526.59  16
   6  -3  -2 54145.6 1773.72  52
   6  -3  -2 40592.6 1532.31  51
   6  -3  -1 20454.8 1265.41  18
   6  -3  -1 21723.4 1476.99  10
   6  -3  -1 24201.3 1173.79  52
   6  -3  -1 21676.2 1115.04  51
   6  -3   0 67312.2 2183.13  18
   6  -3   0 76014.7 2663.67  10
   6  -3   0 81508.9 3281.29  16
   6  -3   0 76270.9 2116.87  26
   6  -3   0 77297.6 1840.75  25
   6  -3   0 82371.8 2161.40  52
   6  -3   0 71263.4 2006.09  51
   6  -3   0 66241.2 1803.52  21
   6  -3   1 28944.9 1262.81  19
   6  -3   1 34210.9 2053.23  16
   6  -3   1 29630.2 1463.43  26
   6  -3   1 30976.1 1206.47  25
   6  -3   1 31908.6 1375.00  52
   6  -3   2 53328.0 1737.13  19
   6  -3   2 61662.7 2502.65  16
   6  -3   2 54999.5 2160.02  26
   6  -3   2 58781.0 1742.44  25
   6  -3   2 58178.1 1880.96  52
   6  -3   2 50307.1 1885.04  21
   6  -3   3 1613.67 307.852  19
   6  -3   3 2107.67 437.130  16
   6  -3   3 2237.61 486.385  26
   6  -3   3 1842.17 339.826  25
   6  -3   3 1787.97 362.364  52
   6  -3   3 1687.43 407.805  21
   6  -3   4 45513.5 1678.73  19
   6  -3   4 51279.4 2198.72  26
   6  -3   4 49845.5 1768.60  25
   6  -3   4 49082.0 1846.92  52
   6  -3   4 53963.5 1862.72  21
   6  -3   5 66411.3 2330.42  26
   6  -3   5 56337.5 1920.06  25
   6  -3   5 57973.6 2040.62  52
   6  -3   5 70345.5 1887.69  21
   6  -3   6 1662.51 356.371  26
   6  -3   6 1347.04 305.955  25
   6  -3   6 1024.39 346.783  52
   6  -3   6 1885.78 285.406  21
   6  -3   7 52793.6 1484.74  26
   6  -3   7 54106.2 1608.66  25
   6  -3   7 50582.0 1687.29  52
   6  -3   7 53942.1 1155.17  21
   6  -3   8 896.541 193.956  25
   6  -3   8 995.326 246.500  52
   6  -2 -11 32434.0 756.719  17
   6  -2 -11 31151.1 954.980  54
   6  -2 -10 479.273 155.270  17
   6  -2 -10 361.155 163.039  54
   6  -2  -9 33922.3 1205.04  18
   6  -2  -9 33433.5 1227.09  17
   6  -2  -9 30744.9 1463.80  54
   6  -2  -8 13950.0 933.776  18
   6  -2  -8 15015.3 949.188  17
   6  -2  -8 12215.5 1080.56  54
   6  -2  -7 789.477 291.050  18
   6  -2  -7 614.520 252.381  17
   6  -2  -7 889.471 460.366  54
   6  -2  -6 78217.6 2718.17  18
   6  -2  -6 76618.9 2788.58  54
   6  -2  -5 7378.07 871.325  18
   6  -2  -5 10171.8 825.154  17
   6  -2  -5 8401.13 902.992  54
   6  -2  -4 62293.9 2001.40  11
   6  -2  -4 61822.7 2461.70  18
   6  -2  -4 68669.6 2049.84  17
   6  -2  -4 61098.9 2275.45  54
   6  -2  -4 63185.5 2007.23  51
   6  -2  -3 34569.6 1773.15  18
   6  -2  -3 36834.7 1439.51  17
   6  -2  -3 35760.4 1480.21  51
   6  -2  -2 2439.36 411.306  19
   6  -2  -2 1958.56 462.242  18
   6  -2  -2 2789.82 405.651  17
   6  -2  -2 2842.35 561.248  16
   6  -2  -2 2021.09 495.391  10
   6  -2  -2 2471.48 422.635  51
   6  -2  -1 34971.6 1383.30  19
   6  -2  -1 33709.1 1646.93  18
   6  -2  -1 36251.3 1964.44  10
   6  -2  -1 39343.4 2228.22  16
   6  -2  -1 35424.5 1330.80  52
   6  -2  -1 35151.9 1440.88  51
   6  -2   0 328.386 175.025  19
   6  -2   0 392.635 517.586  16
   6  -2   0-17.0204 224.131  10
   6  -2   0 291.316 191.950  26
   6  -2   0 389.250 146.556  25
   6  -2   0 274.193 183.482  52
   6  -2   0-26.5206 113.669  51
   6  -2   1 49811.4 1633.38  19
   6  -2   1 57305.0 2360.83  10
   6  -2   1 59757.7 2662.77  16
   6  -2   1 50577.0 1954.22  26
   6  -2   1 56703.0 1722.15  25
   6  -2   1 53888.5 1683.91  52
   6  -2   1 54467.0 1819.20  51
   6  -2   2 8457.52 690.889  19
   6  -2   2 10830.6 1053.62  16
   6  -2   2 8559.93 879.187  26
   6  -2   2 9110.21 733.311  25
   6  -2   2 9553.14 740.513  52
   6  -2   3 20751.8 1088.18  19
   6  -2   3 21654.1 1305.25  16
   6  -2   3 17658.2 1300.73  26
   6  -2   3 19952.0 1117.88  25
   6  -2   3 20225.2 1131.01  52
   6  -2   4 54300.0 1774.59  19
   6  -2   4 55848.0 2306.96  26
   6  -2   4 53204.8 1877.53  52
   6  -2   4 58209.5 1908.05  21
   6  -2   5 7993.80 695.502  19
   6  -2   5 8925.11 871.923  26
   6  -2   5 6475.11 678.174  25
   6  -2   5 7728.01 749.041  52
   6  -2   5 8373.24 661.691  21
   6  -2   6 66896.3 2031.42  25
   6  -2   6 69998.1 1613.47  21
   6  -2   7 215.480 188.318  25
   6  -2   7 434.044 168.248  52
   6  -2   7 66.1887 90.0319  21
   6  -2   8 51287.6 1225.07  25
   6  -2   8 49206.6 1437.96  52
   6  -2   8 46532.2 828.839  21
   6  -2   9 22576.8 707.837  52
   6  -1 -11 201.324 74.4329  17
   6  -1 -10 38899.7 1104.77  17
   6  -1 -10 34289.1 1336.58  54
   6  -1  -9 18230.9 906.284  17
   6  -1  -9 18741.5 1186.82  54
   6  -1  -8 18270.0 1032.63  17
   6  -1  -8 15923.1 1241.62  54
   6  -1  -7 74133.3 2230.57  18
   6  -1  -7 66408.0 2089.21  17
   6  -1  -6 3262.51 568.400  18
   6  -1  -6 4237.94 559.804  17
   6  -1  -6 3132.86 674.657  54
   6  -1  -6 3501.43 450.408  23
   6  -1  -5 13341.0 1116.20  18
   6  -1  -5 16545.3 1029.00  17
   6  -1  -5 14973.3 1252.39  54
   6  -1  -5 13776.0 935.739  23
   6  -1  -4 14686.9 1161.13  18
   6  -1  -4 17201.8 998.144  17
   6  -1  -4 17886.5 1246.22  16
   6  -1  -3 4598.16 627.673  18
   6  -1  -3 4112.14 477.573  17
   6  -1  -3 4631.07 689.766  16
   6  -1  -3 3531.12 487.573  51
   6  -1  -2 24971.8 1461.39  18
   6  -1  -2 26605.3 1130.22  17
   6  -1  -2 29429.7 1764.54  10
   6  -1  -2 25285.2 1227.05  51
   6  -1  -1 2622.44 388.793  19
   6  -1  -1 2436.07 599.768  16
   6  -1  -1 2145.73 495.532  10
   6  -1  -1 2323.69 403.724  51
   6  -1   0 49566.2 1630.15  19
   6  -1   0 53128.8 2474.55  10
   6  -1   0 49846.7 2553.36  16
   6  -1   0 51507.8 1748.23  51
   6  -1   1 831.113 228.277  19
   6  -1   1 555.241 510.033  16
   6  -1   1 1843.34 477.508  10
   6  -1   1 838.170 240.975  25
   6  -1   1 964.598 239.238  51
   6  -1   2 23141.7 1108.87  19
   6  -1   2 21745.9 1471.91  16
   6  -1   2 22129.6 1166.86  25
   6  -1   2 22228.1 1064.13  52
   6  -1   3 42637.8 1831.26  16
   6  -1   3 43145.0 1683.39  25
   6  -1   3 44306.0 1544.29  52
   6  -1   4 2497.68 398.244  19
   6  -1   4 1519.62 344.677  25
   6  -1   4 1572.78 333.833  52
   6  -1   5 59354.4 1960.92  25
   6  -1   5 64749.7 2010.14  52
   6  -1   6 6431.50 598.557  25
   6  -1   6 5469.44 600.445  52
   6  -1   6 6635.12 494.202  21
   6  -1   7 15145.6 779.303  25
   6  -1   7 13316.7 853.149  52
   6  -1   7 13129.5 572.816  21
   6  -1   8 23516.6 942.928  52
   6  -1   9 899.212 138.979  52
   6   0 -11 17287.7 486.497  17
   6   0 -10 26727.4 819.721  17
   6   0  -9 6701.31 508.069  17
   6   0  -9 7005.28 451.971  23
   6   0  -8 86311.5 2044.86  17
   6   0  -8 86566.7 1904.00  23
   6   0  -7 1722.16 337.568  17
   6   0  -7 1398.18 495.605  54
   6   0  -7 1900.72 349.405  23
   6   0  -6 150752. 2934.65  17
   6   0  -6 128770. 2870.59  23
   6   0  -5 1320.75 268.769  17
   6   0  -5 660.466 225.118  23
   6   0  -5 607.289 251.273  34
   6   0  -4 33510.5 1698.11  16
   6   0  -4 31038.0 1390.42  23
   6   0  -3 69451.8 2694.11  16
   6   0  -2 8789.38 1080.73  16
   6   0  -1 41472.2 1501.02  19
   6   0  -1 38009.1 2284.49  10
   6   0   0 14440.4 871.605  19
   6   0   0 11845.9 1293.63  16
   6   0   1 70763.8 1900.36  19
   6   0   1 57585.1 2645.27  16
   6   0   2 64684.0 1806.01  19
   6   0   3 6228.78 567.526  19
   6   0   4 77539.2 1954.34  19
   6   0   4 67325.5 2594.50  27
   6   0   5 9193.28 1007.18  27
   6   0   5 11499.7 782.068  52
   6   0   6 47614.6 2205.39  27
   6   0   6 54278.4 1639.42  52
   6   0   7 48733.3 1400.30  52
   6   0   7 51594.8 1033.71  21
   6   0   8 1661.29 380.560  27
   6   0   8 4603.17 354.209  52
   6   1 -10 5220.67 283.328  23
   6   1  -9 24806.7 828.090  23
   6   1  -8 391.771 182.481  23
   6   1  -7 72412.5 1982.11  23
   6   1  -6 12743.0 902.742  23
   6   1  -5 11824.8 884.248  23
   6   1  -4 92811.5 2766.39  27
   6   1  -4 85461.9 2270.75  23
   6   1  -3 122.141 240.277  27
   6   1  -2 99090.0 2716.60  27
   6   1  -1 15252.8 903.333  19
   6   1  -1 19502.7 1204.83  27
   6   1   0 62589.4 1751.94  19
   6   1   0 74076.5 2302.13  27
   6   1   1 41924.7 1401.51  19
   6   1   1 45002.8 1830.14  27
   6   1   2 5552.94 496.905  19
   6   1   2 6235.61 729.710  27
   6   1   3 79967.6 1830.05  19
   6   1   3 80398.8 2592.40  27
   6   1   4 42329.9 1297.65  19
   6   1   4 36704.9 1900.47  27
   6   1   5 24352.3 1576.41  27
   6   1   6 34392.5 1735.95  27
   6   1   7 394.537 322.332  27
   6   1   7 332.196 75.1366  21
   6   2  -9 963.559 155.842  23
   6   2  -8 11937.0 711.937  27
   6   2  -8 53294.5 1292.74  23
   6   2  -7 2838.06 450.376  27
   6   2  -7 6989.45 553.810  23
   6   2  -6 19075.0 1214.45  27
   6   2  -6 21864.6 1049.51  23
   6   2  -5 58292.5 2163.82  27
   6   2  -5 56283.9 1737.05  23
   6   2  -4 4165.56 627.366  27
   6   2  -4 3518.45 432.663  23
   6   2  -3 69842.8 2376.41  27
   6   2  -2 26379.0 1408.21  27
   6   2  -1 19003.3 915.975  19
   6   2  -1 23034.6 1293.38  27
   6   2   0 21466.0 932.986  19
   6   2   0 27559.8 1410.35  27
   6   2   1 7854.66 531.357  19
   6   2   1 9842.93 858.861  27
   6   2   2 39889.8 1725.96  27
   6   2   3 22283.6 1303.69  27
   6   2   4 3561.43 634.595  27
   6   2   5 33056.5 1653.99  27
   6   2   6 514.351 289.820  27
   6   3  -7 16191.7 761.978  27
   6   3  -6 43043.0 1475.09  27
   6   3  -5 2881.58 471.314  27
   6   3  -4 74819.2 2217.10  27
   6   3  -3 28058.5 988.168  19
   6   3  -3 32917.5 1492.64  27
   6   3  -2 26576.8 1319.80  27
   6   3  -1 57790.1 1936.27  27
   6   3   0 426.832 278.525  27
   6   3   1 33883.7 1487.26  27
   6   3   2 40566.9 1618.52  27
   6   3   3 10850.3 847.690  27
   6   3   4 7620.04 697.049  27
   6   3   5 453.042 190.582  27
   6   4  -5 15477.9 663.077  27
   6   4  -4 32070.5 1086.09  27
   6   4  -3 1339.47 270.456  27
   6   4  -2 60165.1 1633.93  27
   6   4  -1 7402.47 603.236  27
   6   4   0 62844.8 1715.74  27
   6   4   1 8691.17 643.474  27
   7  -6  -3 71778.7 1470.28  16
   7  -6  -2 22087.4 988.070  16
   7  -6  -1 62993.5 1849.99  16
   7  -6   0 44511.8 1586.59  16
   7  -6   1 12127.1 751.330  16
   7  -5  -6 22366.6 881.843  18
   7  -5  -5 1.84124 163.800  18
   7  -5  -4 28360.1 1013.05  16
   7  -5  -3 13951.5 854.574  16
   7  -5  -2 21720.2 1230.60  16
   7  -5  -1 144083. 3480.09  16
   7  -5   0 3900.93 662.990  16
   7  -5   1 45622.6 1836.73  16
   7  -5   2 2455.57 412.360  16
   7  -5   2 3550.49 362.697  26
   7  -5   3 8990.37 624.916  26
   7  -4  -8 10575.2 513.102  18
   7  -4  -7 27329.3 1052.07  18
   7  -4  -6 4153.21 498.849  18
   7  -4  -5 30051.9 1406.84  18
   7  -4  -5 41914.5 1204.54  16
   7  -4  -4 6135.26 677.621  18
   7  -4  -4 9893.60 712.584  16
   7  -4  -3 21015.2 1197.74  18
   7  -4  -3 37341.6 1566.75  16
   7  -4  -2 80453.5 2612.66  16
   7  -4  -1 249.106 311.042  16
   7  -4   0 24115.7 1610.06  16
   7  -4   0 23626.6 1089.10  52
   7  -4   1 6578.86 790.543  16
   7  -4   1 6266.70 576.591  52
   7  -4   2 19280.0 1153.87  16
   7  -4   2 18468.9 1004.80  26
   7  -4   2 20246.0 1015.30  52
   7  -4   3 27034.6 1267.20  26
   7  -4   3 28134.1 1006.53  25
   7  -4   3 27588.5 1177.64  52
   7  -4   4 2948.80 339.439  25
   7  -4   4 2934.53 404.135  52
   7  -4   5 43926.0 1166.92  25
   7  -4   5 44611.2 1315.77  52
   7  -4   6 757.031 152.963  52
   7  -3  -8 43816.8 1158.28  18
   7  -3  -7 15092.5 861.589  18
   7  -3  -6 35911.0 1526.75  18
   7  -3  -5 172.578 228.994  18
   7  -3  -5 263.834 127.994  16
   7  -3  -4 17526.1 1191.79  18
   7  -3  -4 27540.5 1266.49  16
   7  -3  -3 27668.2 1441.81  16
   7  -3  -2 2049.06 512.278  16
   7  -3  -1 121088. 3643.66  16
   7  -3  -1 99662.5 2163.83  52
   7  -3   0 2610.74 436.533  19
   7  -3   0 3044.75 620.210  16
   7  -3   0 2503.89 387.234  52
   7  -3   0 2871.25 327.054  21
   7  -3   1 25836.2 1207.02  19
   7  -3   1 27341.8 1660.29  16
   7  -3   1 26314.9 1122.80  52
   7  -3   1 27309.9 1120.83  21
   7  -3   2 25945.1 1204.09  19
   7  -3   2 29595.1 1512.59  16
   7  -3   2 28689.2 1188.52  52
   7  -3   2 29230.6 1241.10  21
   7  -3   3 4134.32 496.657  16
   7  -3   3 5110.53 491.474  25
   7  -3   3 5217.98 520.067  52
   7  -3   3 5488.84 563.259  21
   7  -3   4 85942.8 1997.06  25
   7  -3   4 85544.0 2044.05  52
   7  -3   5 1440.81 271.825  25
   7  -3   5 1591.69 285.963  52
   7  -3   5 1808.75 248.187  21
   7  -3   6 35387.9 1057.39  52
   7  -2  -8 251.223 139.775  17
   7  -2  -7 44883.4 1362.84  17
   7  -2  -6 418.060 209.579  18
   7  -2  -5 20469.6 1259.49  18
   7  -2  -5 29931.8 1198.16  16
   7  -2  -4 26733.1 1137.27  19
   7  -2  -4 34264.9 1458.66  16
   7  -2  -3 1501.88 332.626  19
   7  -2  -3 1642.15 461.460  16
   7  -2  -2 41538.1 1511.28  19
   7  -2  -2 56883.2 2353.72  16
   7  -2  -1 15956.1 943.353  19
   7  -2  -1 18389.7 1459.59  16
   7  -2   0 13182.7 843.360  19
   7  -2   0 13643.8 1302.81  16
   7  -2   0 13022.4 732.258  52
   7  -2   0 10906.6 673.711  21
   7  -2   1 29892.8 1238.66  19
   7  -2   1 31151.0 1770.72  16
   7  -2   1 30179.8 1122.75  52
   7  -2   1 28457.1 1197.73  21
   7  -2   2 14221.0 848.702  19
   7  -2   2 13875.1 1053.06  16
   7  -2   2 12562.0 750.919  52
   7  -2   2 13787.5 886.014  21
   7  -2   3 62817.6 1741.69  19
   7  -2   3 63475.5 1693.87  52
   7  -2   4 14395.1 815.353  52
   7  -2   4 18520.5 898.602  21
   7  -2   5 31201.2 1130.94  52
   7  -2   5 38323.1 1066.37  21
   7  -2   6 38666.4 1089.26  52
   7  -2   6 40492.6 844.611  21
   7  -1  -8 19808.2 720.261  17
   7  -1  -7 283.912 102.608  17
   7  -1  -6 30688.9 1086.44  19
   7  -1  -5 23536.6 1082.61  19
   7  -1  -4 800.531 242.359  19
   7  -1  -3 63307.3 1886.73  19
   7  -1  -3 73083.9 2432.00  16
   7  -1  -2 16329.7 950.187  19
   7  -1  -2 16872.6 1312.88  16
   7  -1  -1 49406.3 1601.42  19
   7  -1  -1 46930.4 2306.34  16
   7  -1   0 18992.1 974.994  19
   7  -1   0 15319.7 1325.56  16
   7  -1   0 16395.0 820.677  21
   7  -1   1 613.452 239.067  19
   7  -1   1 637.450 193.816  21
   7  -1   2 25118.4 1070.60  19
   7  -1   2 23006.6 1127.26  21
   7  -1   3 24495.5 1021.95  19
   7  -1   3 28007.0 1188.55  21
   7  -1   4 18021.9 859.224  19
   7  -1   4 18192.4 795.076  52
   7  -1   5 17973.8 730.159  52
   7  -1   5 25619.8 821.773  21
   7  -1   6 75.1354 58.4146  21
   7   0  -8 3078.32 226.964  19
   7   0  -7 15845.2 675.607  19
   7   0  -6 37296.6 1236.35  19
   7   0  -5 1202.50 257.920  19
   7   0  -4 106394. 2393.44  19
   7   0  -3 12526.1 839.050  19
   7   0  -2 40104.9 1433.39  19
   7   0  -1 52359.1 1580.15  19
   7   0   0 2401.02 337.524  19
   7   0   1 50444.3 1447.00  19
   7   0   2 13354.1 726.454  19
   7   0   3 18379.7 812.933  19
   7   0   4 91136.3 1690.12  21
   7   0   5 459.046 116.485  21
   7   1  -7 35672.0 910.318  19
   7   1  -6 4360.88 390.472  19
   7   1  -5 71909.7 1729.83  19
   7   1  -4 49578.4 1497.13  19
   7   1  -3 29743.6 1156.98  19
   7   1  -2 67480.4 1686.21  19
   7   1  -1 846.034 224.704  19
   7   1   0 35981.9 1130.38  19
   7   1   1 28076.7 947.923  19
   7   1   1 27156.3 1351.23  27
   7   1   2 13239.0 610.502  19
   7   1   2 10136.4 872.938  27
   7   1   3 27162.2 794.731  19
   7   1   3 22546.7 1240.82  27
   7   2  -6 29422.2 702.490  19
   7   2  -5 7919.45 434.191  19
   7   2  -4 17362.9 692.438  19
   7   2  -4 20332.0 818.953  27
   7   2  -3 26261.4 860.631  19
   7   2  -3 30270.2 1133.23  27
   7   2  -2 3159.97 298.741  19
   7   2  -2 4216.63 492.209  27
   7   2  -1 57129.3 1162.50  19
   7   2  -1 65548.6 1875.14  27
   7   2   0 10247.5 448.304  19
   7   2   0 12960.3 884.201  27
   7   2   1 12435.6 877.330  27
   7   2   2 6517.33 621.665  27
   8  -4  -2 427.988 148.302  16
   8  -4  -1 29236.8 1150.35  16
   8  -4   0 22495.3 975.598  16
   8  -3  -2 64160.3 1735.44  16
   8  -3  -1 18110.5 1019.82  16
   8  -2  -2 29637.5 951.234  19
   8  -2  -1 7529.87 520.736  19
   8  -2   0 31626.1 1065.99  19
   8  -2   1 10589.3 611.545  19
   8  -1  -3 45351.7 1095.25  19
   8  -1  -2 1595.83 258.322  19
   8  -1  -1 23559.1 875.793  19
   8  -1   0 3568.25 358.630  19
   8  -1   1 17603.3 720.574  19
   8   0  -2 56290.8 1154.37  19
   8   0  -1 12922.8 556.874  19
   0   0   0    0.00    0.00   0
TITL exp_4949 in P1
REM P1 (#1 in standard setting)
CELL 1.54184   6.561891   7.106310  12.046872  91.5172  96.0932 104.6104
ZERR    1.00   0.000300   0.000263   0.000421   0.0029   0.0033   0.0036
LATT -1
SFAC C H N O
UNIT 28.00 19.00 5.00 1.00
TREF
HKLF 4
END
;
_shelx_hkl_checksum              52553
loop_
_space_group_symop_operation_xyz
'x, y, z'
'-x, -y, -z'
loop_
_atom_site_label
_atom_site_type_symbol
_atom_site_fract_x
_atom_site_fract_y
_atom_site_fract_z
_atom_site_U_iso_or_equiv
_atom_site_adp_type
_atom_site_occupancy
_atom_site_site_symmetry_order
_atom_site_calc_flag
_atom_site_refinement_flags_posn
_atom_site_refinement_flags_adp
_atom_site_refinement_flags_occupancy
_atom_site_disorder_assembly
_atom_site_disorder_group
Mo1 Mo 0.61021(4) 0.69453(3) 0.70111(2) 0.01147(14) Uani 1 1 d . . . . .
O2 O 0.6680(5) 0.6295(4) 0.5536(2) 0.0181(6) Uani 1 1 d . . . . .
O3 O 0.7924(4) 0.7210(4) 0.8535(2) 0.0162(5) Uani 1 1 d . . . . .
O4 O 1.1004(5) 0.9270(4) 0.8207(2) 0.0181(6) Uani 1 1 d . . . . .
O5 O 0.3180(4) 0.5440(4) 0.6670(2) 0.0177(5) Uani 1 1 d . . . . .
O6 O 0.3829(4) 0.5782(4) 0.7888(2) 0.0186(6) Uani 1 1 d . . . . .
O7 O 0.8650(5) 0.7022(4) 0.6309(2) 0.0207(6) Uani 1 1 d . . . . .
N8 N 1.2138(6) 1.0996(5) 0.6166(3) 0.0174(6) Uani 1 1 d D . . . .
H84 H 1.160(8) 1.025(6) 0.670(3) 0.021 Uiso 1 1 d D U . . .
H82 H 1.335(4) 1.187(6) 0.641(4) 0.021 Uiso 1 1 d D U . . .
H83 H 1.116(6) 1.157(7) 0.587(4) 0.021 Uiso 1 1 d D U . . .
H81 H 1.241(8) 1.013(6) 0.570(4) 0.021 Uiso 1 1 d D U . . .
O10 O 0.5919(5) 0.9258(4) 0.6949(3) 0.0240(6) Uani 1 1 d . . . . .
C1 C 0.9932(6) 0.8135(5) 0.8778(3) 0.0148(7) Uani 1 1 d . . . . .
C2 C 1.0888(6) 0.7689(5) 0.9900(3) 0.0125(7) Uani 1 1 d . . . . .
C3 C 0.9650(6) 0.6925(5) 1.0735(3) 0.0137(7) Uani 1 1 d . . . . .
H3 H 0.8151 0.6680 1.0608 0.016 Uiso 1 1 calc R U . . .
C4 C 1.3069(6) 0.8016(5) 1.0105(3) 0.0148(7) Uani 1 1 d . . . . .
H4 H 1.3939 0.8530 0.9546 0.018 Uiso 1 1 calc R U . . .
C5 C 1.3976(6) 0.7592(5) 1.1125(3) 0.0164(7) Uani 1 1 d . . . . .
H5 H 1.5472 0.7816 1.1269 0.020 Uiso 1 1 calc R U . . .
C7 C 1.0610(6) 0.6524(5) 1.1745(3) 0.0127(7) Uani 1 1 d . . . . .
H7 H 0.9772 0.6012 1.2318 0.015 Uiso 1 1 calc R U . . .
N6 N 1.2734(5) 0.6859(4) 1.1919(2) 0.0118(6) Uani 1 1 d . . . . .
O11 O 1.3639(4) 0.6399(4) 1.2881(2) 0.0146(5) Uani 1 1 d . . . . .
O20 O 1.1622(5) 0.7630(4) 1.4662(2) 0.0212(6) Uani 1 1 d D . . . .
H21 H 1.160(9) 0.681(6) 1.517(3) 0.025 Uiso 1 1 d D U . . .
H22 H 1.242(7) 0.724(8) 1.424(4) 0.025 Uiso 1 1 d D U . . .
loop_
_atom_site_aniso_label
_atom_site_aniso_U_11
_atom_site_aniso_U_22
_atom_site_aniso_U_33
_atom_site_aniso_U_23
_atom_site_aniso_U_13
_atom_site_aniso_U_12
Mo1 0.0151(2) 0.00870(19) 0.0091(2) 0.00097(11) -0.00051(13) 0.00106(13)
O2 0.0236(14) 0.0177(12) 0.0090(11) 0.0013(9) -0.0005(10) -0.0012(11)
O3 0.0189(13) 0.0154(12) 0.0118(12) 0.0007(9) -0.0006(10) 0.0011(10)
O4 0.0229(14) 0.0144(12) 0.0142(13) 0.0041(10) 0.0024(11) -0.0005(11)
O5 0.0146(13) 0.0203(13) 0.0149(12) -0.0011(10) -0.0031(10) 0.0008(10)
O6 0.0174(13) 0.0227(13) 0.0133(12) -0.0021(10) 0.0027(10) 0.0009(11)
O7 0.0187(14) 0.0232(14) 0.0143(13) -0.0008(11) 0.0009(11) -0.0049(11)
N8 0.0226(17) 0.0141(14) 0.0133(15) 0.0026(12) -0.0003(12) 0.0017(13)
O10 0.0302(16) 0.0129(12) 0.0259(15) 0.0013(11) -0.0047(12) 0.0033(12)
C1 0.0223(19) 0.0102(15) 0.0116(16) -0.0032(13) -0.0023(14) 0.0057(14)
C2 0.0163(17) 0.0082(14) 0.0103(15) 0.0009(12) 0.0002(13) -0.0010(13)
C3 0.0156(17) 0.0125(15) 0.0128(16) -0.0024(13) -0.0002(14) 0.0043(13)
C4 0.0206(19) 0.0093(15) 0.0119(16) 0.0023(12) 0.0049(14) -0.0021(13)
C5 0.0162(18) 0.0166(17) 0.0143(17) 0.0003(13) 0.0005(14) 0.0010(14)
C7 0.0153(17) 0.0114(15) 0.0112(15) 0.0012(13) 0.0045(14) 0.0018(13)
N6 0.0159(15) 0.0085(13) 0.0094(13) 0.0006(10) 0.0008(11) 0.0005(11)
O11 0.0206(14) 0.0125(12) 0.0096(11) 0.0012(9) -0.0035(10) 0.0041(10)
O20 0.0270(16) 0.0236(14) 0.0156(13) 0.0016(11) 0.0051(11) 0.0104(12)
loop_
_atom_type_symbol
_atom_type_description
_atom_type_scat_dispersion_real
_atom_type_scat_dispersion_imag
_atom_type_scat_source
C C 0.0181 0.0091 'International Tables Vol C Tables 4.2.6.8 and 6.1.1.4'
H H 0.0000 0.0000 'International Tables Vol C Tables 4.2.6.8 and 6.1.1.4'
Mo Mo -0.0483 2.7339 'International Tables Vol C Tables 4.2.6.8 and 6.1.1.4'
N N 0.0311 0.0180 'International Tables Vol C Tables 4.2.6.8 and 6.1.1.4'
O O 0.0492 0.0322 'International Tables Vol C Tables 4.2.6.8 and 6.1.1.4'
loop_
_geom_angle_atom_site_label_1
_geom_angle_atom_site_label_2
_geom_angle_atom_site_label_3
_geom_angle
_geom_angle_site_symmetry_1
_geom_angle_site_symmetry_3
O10 Mo1 O2 104.07(14) . .
O10 Mo1 O5 103.10(14) . .
O2 Mo1 O5 90.37(12) . .
O10 Mo1 O7 102.38(14) . .
O2 Mo1 O7 44.97(11) . .
O5 Mo1 O7 132.83(11) . .
O10 Mo1 O6 102.57(14) . .
O2 Mo1 O6 132.02(11) . .
O5 Mo1 O6 44.77(11) . .
O7 Mo1 O6 154.35(13) . .
O10 Mo1 O3 98.46(12) . .
O2 Mo1 O3 130.87(12) . .
O5 Mo1 O3 126.11(11) . .
O7 Mo1 O3 87.96(11) . .
O6 Mo1 O3 82.64(11) . .
O10 Mo1 O11 179.49(12) . 2_767
O2 Mo1 O11 76.44(10) . 2_767
O5 Mo1 O11 76.87(10) . 2_767
O7 Mo1 O11 77.96(11) . 2_767
O6 Mo1 O11 77.04(11) . 2_767
O3 Mo1 O11 81.18(9) . 2_767
O7 O2 Mo1 68.16(15) . .
C1 O3 Mo1 127.5(2) . .
O6 O5 Mo1 67.79(15) . .
O5 O6 Mo1 67.45(15) . .
O2 O7 Mo1 66.87(16) . .
H84 N8 H82 113(5) . .
H84 N8 H83 108(5) . .
H82 N8 H83 111(5) . .
H84 N8 H81 102(5) . .
H82 N8 H81 109(5) . .
H83 N8 H81 114(5) . .
O4 C1 O3 126.8(3) . .
O4 C1 C2 119.8(4) . .
O3 C1 C2 113.4(3) . .
C4 C2 C3 118.8(3) . .
C4 C2 C1 118.9(3) . .
C3 C2 C1 122.3(3) . .
C7 C3 C2 119.9(4) . .
C7 C3 H3 120.1 . .
C2 C3 H3 120.1 . .
C5 C4 C2 119.8(3) . .
C5 C4 H4 120.1 . .
C2 C4 H4 120.1 . .
N6 C5 C4 120.0(4) . .
N6 C5 H5 120.0 . .
C4 C5 H5 120.0 . .
N6 C7 C3 119.9(3) . .
N6 C7 H7 120.1 . .
C3 C7 H7 120.1 . .
O11 N6 C7 119.4(3) . .
O11 N6 C5 118.9(3) . .
C7 N6 C5 121.7(3) . .
N6 O11 Mo1 116.47(19) . 2_767
H21 O20 H22 99(5) . .
loop_
_geom_bond_atom_site_label_1
_geom_bond_atom_site_label_2
_geom_bond_distance
_geom_bond_site_symmetry_2
Mo1 O10 1.681(3) .
Mo1 O2 1.924(3) .
Mo1 O5 1.940(3) .
Mo1 O7 1.942(3) .
Mo1 O6 1.945(3) .
Mo1 O3 2.059(3) .
Mo1 O11 2.431(3) 2_767
O2 O7 1.479(4) .
O3 C1 1.314(5) .
O4 C1 1.209(5) .
O5 O6 1.479(4) .
N8 H84 0.887(10) .
N8 H82 0.888(10) .
N8 H83 0.888(10) .
N8 H81 0.889(10) .
C1 C2 1.505(5) .
C2 C4 1.385(5) .
C2 C3 1.395(5) .
C3 C7 1.381(5) .
C3 H3 0.9500 .
C4 C5 1.383(5) .
C4 H4 0.9500 .
C5 N6 1.352(5) .
C5 H5 0.9500 .
C7 N6 1.345(5) .
C7 H7 0.9500 .
N6 O11 1.333(4) .
O11 Mo1 2.431(3) 2_767
O20 H21 0.857(10) .
O20 H22 0.857(10) .
loop_
_geom_torsion_atom_site_label_1
_geom_torsion_atom_site_label_2
_geom_torsion_atom_site_label_3
_geom_torsion_atom_site_label_4
_geom_torsion
_geom_torsion_site_symmetry_1
_geom_torsion_site_symmetry_2
_geom_torsion_site_symmetry_3
_geom_torsion_site_symmetry_4
Mo1 O3 C1 O4 13.1(5) . . . .
Mo1 O3 C1 C2 -167.8(2) . . . .
O4 C1 C2 C4 -22.0(5) . . . .
O3 C1 C2 C4 158.8(3) . . . .
O4 C1 C2 C3 159.1(3) . . . .
O3 C1 C2 C3 -20.1(5) . . . .
C4 C2 C3 C7 0.5(5) . . . .
C1 C2 C3 C7 179.4(3) . . . .
C3 C2 C4 C5 -0.3(5) . . . .
C1 C2 C4 C5 -179.2(3) . . . .
C2 C4 C5 N6 0.0(5) . . . .
C2 C3 C7 N6 -0.4(5) . . . .
C3 C7 N6 O11 -177.5(3) . . . .
C3 C7 N6 C5 0.2(5) . . . .
C4 C5 N6 O11 177.7(3) . . . .
C4 C5 N6 C7 0.0(5) . . . .
C7 N6 O11 Mo1 85.4(3) . . . 2_767
C5 N6 O11 Mo1 -92.3(3) . . . 2_767
