#------------------------------------------------------------------------------
#$Date: 2022-02-01 10:53:28 +0200 (Tue, 01 Feb 2022) $
#$Revision: 272376 $
#$URL: file:///home/coder/svn-repositories/cod/cif/1/56/62/1566223.cif $
#------------------------------------------------------------------------------
#
# This file is available in the Crystallography Open Database (COD),
# http://www.crystallography.net/
#
# All data on this site have been placed in the public domain by the
# contributors.
#
data_1566223
loop_
_publ_author_name
'Vladislav V. Gurzhiy'
'Alina R. Izatulina'
'Maria G. Krzhizhanovskaya'
'Mikhail N. Murashko'
'Dar-ya V. Spiridonova'
'Vladimir V. Shilovskikh'
'Sergey V. Krivovichev'
_publ_section_title
;
 Thermal behavior of uranyl selenite minerals derriksite and
 demesmaekerite
;
_journal_name_full               'Journal of GeoSciences'
_journal_page_first              249
_journal_page_last               259
_journal_paper_doi               10.3190/jgeosci.315
_journal_volume                  65
_journal_year                    2020
_chemical_formula_moiety         'Cu5 H10 O30 Pb2 Se6 U2'
_chemical_formula_sum            'Cu5 H10 O30 Pb2 Se6 U2'
_chemical_formula_weight         2171.98
_space_group_crystal_system      triclinic
_space_group_IT_number           2
_space_group_name_Hall           '-P 1'
_space_group_name_H-M_alt        'P -1'
_atom_sites_solution_hydrogens   difmap
_cell_angle_alpha                88.671(3)
_cell_angle_beta                 79.718(4)
_cell_angle_gamma                89.932(3)
_cell_formula_units_Z            1
_cell_length_a                   5.6660(3)
_cell_length_b                   10.0840(4)
_cell_length_c                   11.9746(5)
_cell_measurement_reflns_used    2755
_cell_measurement_temperature    333(2)
_cell_measurement_theta_max      30.2200
_cell_measurement_theta_min      3.6560
_cell_volume                     673.01(5)
_computing_cell_refinement       'CrysAlisPro 1.171.39.44a (Rigaku OD, 2018)'
_computing_data_collection       'CrysAlisPro 1.171.39.44a (Rigaku OD, 2018)'
_computing_data_reduction        'CrysAlisPro 1.171.39.44a (Rigaku OD, 2018)'
_computing_molecular_graphics    'Olex2 1.3 (Dolomanov et al., 2009)'
_computing_publication_material  'Olex2 1.3 (Dolomanov et al., 2009)'
_computing_structure_refinement  'SHELXL 2018/3 (Sheldrick, 2015)'
_computing_structure_solution    'SHELXT 2018/3 (Sheldrick, 2015)'
_diffrn_ambient_environment      air
_diffrn_ambient_temperature      333(3)
_diffrn_detector                 'CCD plate'
_diffrn_detector_area_resol_mean 10.3829
_diffrn_detector_type            Atlas
_diffrn_measured_fraction_theta_full 0.995
_diffrn_measured_fraction_theta_max 0.995
_diffrn_measurement_details
;
List of Runs (angles in degrees, time in seconds):

  # Type    Start    End  Width  t~exp~   \w     \q     \k     \f   Frames
--------------------------------------------------------------------------
  1  \w    -26.00   1.00   1.00   22.50    --  -15.14 -77.00-150.00   27
  2  \w    -40.00  17.00   1.00   22.50    --  -15.14 -77.00 -30.00   57
  3  \w     39.00 102.00   1.00   22.50    --   16.86 178.00  60.00   63
  4  \w     -2.00  93.00   1.00   22.50    --   16.86  38.00-120.00   95
  5  \w    -57.00  41.00   1.00   22.50    --   16.86 -57.00  90.00   98
;
_diffrn_measurement_device       'four-circle diffractometer'
_diffrn_measurement_device_type  'SuperNova, Dual, Cu at home/near, Atlas'
_diffrn_measurement_method       '\w scans'
_diffrn_orient_matrix_type
'CrysAlisPro convention (1999,Acta A55,543-557)'
_diffrn_orient_matrix_UB_11      -0.0796627000
_diffrn_orient_matrix_UB_12      -0.0257696000
_diffrn_orient_matrix_UB_13      -0.0336041000
_diffrn_orient_matrix_UB_21      0.0881076000
_diffrn_orient_matrix_UB_22      0.0104833000
_diffrn_orient_matrix_UB_23      -0.0494876000
_diffrn_orient_matrix_UB_31      0.0455892000
_diffrn_orient_matrix_UB_32      -0.0646250000
_diffrn_orient_matrix_UB_33      0.0069190000
_diffrn_radiation_monochromator  mirror
_diffrn_radiation_probe          x-ray
_diffrn_radiation_type           'Mo K\a'
_diffrn_radiation_wavelength     0.71073
_diffrn_reflns_av_R_equivalents  0.0359
_diffrn_reflns_av_unetI/netI     0.0616
_diffrn_reflns_Laue_measured_fraction_full 0.995
_diffrn_reflns_Laue_measured_fraction_max 0.995
_diffrn_reflns_limit_h_max       7
_diffrn_reflns_limit_h_min       -7
_diffrn_reflns_limit_k_max       13
_diffrn_reflns_limit_k_min       -13
_diffrn_reflns_limit_l_max       14
_diffrn_reflns_limit_l_min       -15
_diffrn_reflns_number            5544
_diffrn_reflns_point_group_measured_fraction_full 0.995
_diffrn_reflns_point_group_measured_fraction_max 0.995
_diffrn_reflns_theta_full        25.242
_diffrn_reflns_theta_max         27.493
_diffrn_reflns_theta_min         3.459
_diffrn_source                   'micro-focus sealed X-ray tube'
_diffrn_source_type              'SuperNova (Mo) X-ray Source'
_exptl_absorpt_coefficient_mu    36.544
_exptl_absorpt_correction_T_max  0.267
_exptl_absorpt_correction_T_min  0.076
_exptl_absorpt_correction_type   analytical
_exptl_absorpt_process_details
;
CrysAlisPro 1.171.39.44a (Rigaku Oxford Diffraction, 2018)
Analytical numeric absorption correction using a multifaceted crystal
			model based on expressions derived by R.C. Clark & J.S. Reid.
(Clark, R. C. & Reid, J. S. (1995). Acta Cryst. A51, 887-897)
Empirical absorption correction using spherical harmonics,
 implemented in SCALE3 ABSPACK scaling algorithm.
;
_exptl_crystal_colour            brown
_exptl_crystal_density_diffrn    5.359
_exptl_crystal_description       prism
_exptl_crystal_F_000             947
_exptl_crystal_size_max          0.12
_exptl_crystal_size_mid          0.063
_exptl_crystal_size_min          0.055
_refine_diff_density_max         2.105
_refine_diff_density_min         -2.086
_refine_diff_density_rms         0.364
_refine_ls_extinction_coef       .
_refine_ls_extinction_method     none
_refine_ls_goodness_of_fit_ref   1.038
_refine_ls_hydrogen_treatment    mixed
_refine_ls_matrix_type           full
_refine_ls_number_parameters     209
_refine_ls_number_reflns         3077
_refine_ls_number_restraints     5
_refine_ls_restrained_S_all      1.037
_refine_ls_R_factor_all          0.0456
_refine_ls_R_factor_gt           0.0345
_refine_ls_shift/su_max          0.000
_refine_ls_shift/su_mean         0.000
_refine_ls_structure_factor_coef Fsqd
_refine_ls_weighting_details
'w=1/[\s^2^(Fo^2^)+(0.0202P)^2^] where P=(Fo^2^+2Fc^2^)/3'
_refine_ls_weighting_scheme      calc
_refine_ls_wR_factor_gt          0.0645
_refine_ls_wR_factor_ref         0.0703
_reflns_Friedel_coverage         0.000
_reflns_Friedel_fraction_full    .
_reflns_Friedel_fraction_max     .
_reflns_number_gt                2594
_reflns_number_total             3077
_reflns_threshold_expression     'I > 2\s(I)'
_cod_data_source_file            Demesmaekerite_SN_60C_last.cif
_cod_data_source_block           demesmaekerite_sn_60C
_cod_original_cell_volume        673.00(5)
_cod_database_code               1566223
_chemical_oxdiff_formula         'Pb2 Cu5 U2 Se6 O30'
_shelx_space_group_comment
;
The symmetry employed for this shelxl refinement is uniquely defined
by the following loop, which should always be used as a source of
symmetry information in preference to the above space-group names.
They are only intended as comments.
;
_reflns_odcompleteness_completeness 99.71
_reflns_odcompleteness_iscentric 1
_reflns_odcompleteness_theta     28.51
_olex2_refinement_description
;
1. Fixed Uiso
 At 1.5 times of:
  All O(H) groups, All O(H,H) groups
2. Restrained distances
 O14-H14
 0.95 with sigma of 0.02
 O13-H13
 0.95 with sigma of 0.02
 O12-H12
 0.95 with sigma of 0.02
 H15A-O5_$3
 2 with sigma of 0.02
 O9_$2-H13
 2 with sigma of 0.02
3. Uiso/Uaniso restraints and constraints
Uanis(O6) = Uanis(O7)
4.a Rotating group:
 O15(H15A,H15B)
;
_shelx_res_file
;
TITL Demesmaekerite_SN_333K in P-1
    demesmaekerite_sn_333k.res
    created by SHELXL-2018/3 at 02:34:25 on 09-Sep-2020
REM P-1 (#2 in standard setting)
CELL 0.71073 5.665974 10.083994 11.974583 88.6711 79.7175 89.932
ZERR 1 0.000253 0.000391 0.000534 0.0034 0.0037 0.0034
LATT 1
SFAC Cu H O Pb Se U
UNIT 5 10 30 2 6 2
EQIV $1 +X,-1+Y,+Z
EQIV $2 -1+X,+Y,+Z
EQIV $3 2-X,1-Y,-Z
DFIX 0.95 O14 H14
DFIX 0.95 O13 H13
DFIX 0.95 O12 H12
DFIX 2 H15a O5_$3
DFIX 2 O9_$2 H13
EADP O6 O7

L.S. 20
PLAN  4
CONF
HTAB O12 O8_$1
HTAB O13 O9_$2
HTAB O14 O3_$3
HTAB O15 O5_$3
HTAB O15 O6_$1
Htab
BOND $H
MORE -1
fmap 2
acta
OMIT -4 55
OMIT 1 2 11
OMIT -1 1 0
OMIT 1 2 10
OMIT 4 0 7
OMIT 1 -12 5
OMIT 1 -8 1
OMIT 1 0 2
REM <olex2.extras>
REM <HklSrc "%.\\Demesmaekerite_SN_333K.hkl">
REM </olex2.extras>

WGHT    0.020200
FVAR       1.57494
U1    6    1.260719    0.916408    0.252600    11.00000    0.01575    0.00892 =
         0.00700    0.00026   -0.00125   -0.00361
PB1   4    0.171547    0.310260    0.194585    11.00000    0.01852    0.01585 =
         0.01803    0.00255   -0.00296   -0.00370
SE1   5    1.288913    0.888368   -0.046798    11.00000    0.01531    0.00951 =
         0.00869    0.00037   -0.00133   -0.00272
SE2   5    1.224767    1.168256    0.488097    11.00000    0.02563    0.01695 =
         0.01027    0.00043   -0.00187   -0.00363
SE3   5    0.906839    0.624480    0.221927    11.00000    0.01811    0.01065 =
         0.01380   -0.00325    0.00002   -0.00228
CU1   1    1.000000    0.500000    0.500000    10.50000    0.01431    0.01582 =
         0.01016   -0.00221   -0.00145   -0.00409
CU2   1    0.707011    0.443151    0.046330    11.00000    0.01559    0.01047 =
         0.01644    0.00182   -0.00545   -0.00328
CU3   1    0.564224    0.423185    0.385495    11.00000    0.01743    0.02117 =
         0.00945   -0.00031   -0.00151   -0.00850
O1    3    1.521163    0.865582    0.303681    11.00000    0.02137    0.03493 =
         0.02157    0.00473   -0.00763    0.00003
O2    3    1.002229    0.965039    0.197214    11.00000    0.02115    0.02297 =
         0.02969    0.00127   -0.01176    0.00276
O3    3    1.444614    0.864706    0.062544    11.00000    0.02047    0.01809 =
         0.00285    0.00144   -0.00100   -0.00336
O4    3    1.161163    0.738328   -0.058462    11.00000    0.02595    0.01179 =
         0.02243    0.00198   -0.01281   -0.00890
O5    3    1.519483    0.886998   -0.162621    11.00000    0.02115    0.01394 =
         0.01187   -0.00067    0.00051   -0.00485
O6    3    1.160793    1.100330    0.369291    11.00000    0.03832    0.01365 =
         0.01631   -0.00503    0.00537   -0.00665
O7    3    1.240294    1.330266    0.443510    11.00000    0.03832    0.01365 =
         0.01631   -0.00503    0.00537   -0.00665
O8    3    0.953464    1.168659    0.574009    11.00000    0.04171    0.02292 =
         0.01426    0.00186    0.01290   -0.00081
O9    3    1.176702    0.691059    0.223748    11.00000    0.02567    0.01054 =
         0.01544   -0.00117   -0.00530   -0.00596
O10   3    0.889823    0.513094    0.332548    11.00000    0.02162    0.02675 =
         0.01160    0.00342   -0.00146   -0.01284
O11   3    0.980842    0.514695    0.114269    11.00000    0.01757    0.01213 =
         0.01083   -0.00435    0.00347    0.00107
O12   3    0.693394    0.409473    0.525674    11.00000    0.01990    0.01362 =
         0.01362    0.00906   -0.00394   -0.00363
H12   2    0.757990    0.332257    0.554241    11.00000   -1.50000
O13   3    0.470122    0.456436    0.238257    11.00000    0.01536    0.01863 =
         0.01712   -0.00327   -0.00346    0.00239
H13   2    0.363174    0.527156    0.245128    11.00000   -1.50000
O14   3    0.405049    0.383386    0.006573    11.00000    0.02432    0.00678 =
         0.01289    0.00107   -0.00698    0.00052
H14   2    0.420713    0.294554   -0.015812    11.00000   -1.50000
O15   3    0.703874    0.201351    0.343117    11.00000    0.02704    0.05220 =
         0.04871   -0.02574   -0.00847   -0.00533
AFIX   7
H15A  2    0.668598    0.175610    0.277168    11.00000   -1.50000
H15B  2    0.863974    0.196622    0.330544    11.00000   -1.50000
AFIX   0
HKLF 4




REM  Demesmaekerite_SN_333K in P-1
REM wR2 = 0.0703, GooF = S = 1.038, Restrained GooF = 1.037 for all data
REM R1 = 0.0345 for 2594 Fo > 4sig(Fo) and 0.0456 for all 3077 data
REM 209 parameters refined using 5 restraints

END

WGHT      0.0202      0.0000

REM Instructions for potential hydrogen bonds
HTAB O12 Se2_$1
HTAB O12 O8_$1
HTAB O13 Se3_$2
HTAB O13 O9_$2
HTAB O14 Se1_$3
HTAB O14 O3_$3
HTAB O15 Se1_$3
HTAB O15 O5_$3
HTAB O15 Se2_$1
HTAB O15 O6_$1

REM Highest difference peak  2.105,  deepest hole -2.086,  1-sigma level  0.364
Q1    1   1.3281  0.8815  0.3004  11.00000  0.05    2.10
Q2    1   1.0693  1.1858  0.4568  11.00000  0.05    1.84
Q3    1   0.2363  0.2671  0.2476  11.00000  0.05    1.73
Q4    1   0.1048  0.3437  0.1357  11.00000  0.05    1.54
;
_shelx_res_checksum              20494
_shelx_hkl_file
;
   0   0   2 46219.5 1288.73   1
   0   0  -3 35435.5 1408.38   4
   0   0   3 35528.4 1186.44   1
   0   0  -4 201903. 5345.42   4
   0   0  -4 201248. 4535.70   3
   0   0   4 203525. 4913.43   1
   0   0   5 50228.6 1740.73   1
   0   0  -5 51626.1 2127.91   4
   0   0   6 7314.31 635.728   1
   0   0  -6 7531.01 824.943   4
   0   0  -7 115867. 4084.33   4
   0   0  -7 105877. 2746.90   3
   0   0   7 113306. 3432.21   1
   0   0  -8 4080.25 741.162   4
   0   0  -8 3938.75 301.389   3
   0   0   8 3928.29 550.450   1
   0   0  -9 22272.5 1822.63   4
   0   0 -10 2309.32 658.230   4
   0   0 -11 9311.26 1309.35   4
   0   0 -12 941.508 583.962   4
   0   0 -13 16722.2 1943.50   4
   0   0 -14 13545.6 1827.37   4
   0   0 -15 1791.79 779.611   4
   0   1 -15 992.437 547.730   4
   0   1 -14 34665.6 2956.82   4
   0   1 -13 6920.41 1226.96   4
   0   1 -12 32814.6 2611.76   4
   0   1 -11 37824.4 2667.53   4
   0   1 -10 96631.2 4320.90   4
   0   1  -9 34557.0 2256.70   4
   0   1  -9 29246.3 1325.59   3
   0   1  -8 12854.9 842.688   3
   0   1  -8 16207.0 1418.23   4
   0   1  -7 137878. 3914.98   3
   0   1  -7 155644. 4941.67   4
   0   1  -6 2076.75 353.860   1
   0   1  -6 1806.45 292.442   3
   0   1  -6 1963.99 449.455   4
   0   1  -5 74810.3 2395.79   1
   0   1  -5 72806.2 2721.66   4
   0   1  -5 69265.0 2237.71   3
   0  -1   4 2416.89 236.826   3
   0   1  -4 2094.70 273.719   3
   0   1  -4 2317.55 378.159   4
   0   1  -3 79041.5 2485.72   4
   0  -1   3 84344.3 2143.87   3
   0   1  -3 81976.7 2297.67   3
   0   1  -2 367.699 115.284   4
   0  -1   2 340.523 94.1347   3
   0  -1  -2 53170.3 1591.34   4
   0  -1  -3 22724.6 1053.72   4
   0  -1  -4 61048.8 2206.45   4
   0  -1  -5 2530.08 441.817   4
   0  -1  -6 114655. 3925.85   4
   0   1   6 116778. 3455.30   1
   0   1   7 30601.4 1523.56   1
   0  -1  -7 32518.9 1915.33   4
   0  -1  -8 8143.95 1024.68   4
   0   1   8 8834.07 819.549   1
   0  -1  -9 4490.30 836.666   4
   0   1   9 3378.24 546.480   1
   0  -1 -10 9425.14 1228.36   4
   0  -1 -11 21688.0 1975.99   4
   0  -1 -12 10361.0 1442.51   4
   0  -1 -13 168.148 427.349   4
   0  -1 -14 2321.59 834.755   4
   0  -1 -15 1224.69 726.820   4
   0   2 -15 15624.7 2051.16   4
   0   2 -14 753.894 653.479   4
   0   2 -13 2016.42 719.942   4
   0   2 -12 4750.28 937.859   4
   0   2 -11 252.568 451.641   4
   0   2 -10 3269.84 499.113   3
   0   2 -10 7164.56 1067.04   4
   0   2  -9 1447.15 486.327   4
   0   2  -9 1135.92 297.067   3
   0   2  -8 10412.6 897.428   3
   0   2  -8 11188.4 992.641   1
   0   2  -7 35639.1 2006.21   4
   0  -2   7 38282.3 1985.14   4
   0   2  -7 31112.0 1612.78   3
   0   2  -6 50125.0 2279.48   4
   0   2  -6 47102.4 1977.88   3
   0   2  -5 35702.4 1620.72   3
   0  -2   5 36575.8 1401.85   3
   0   2  -5 38773.4 1795.13   4
   0   2  -4 17135.3 1028.67   4
   0   2  -4 15403.2 960.419   3
   0  -2   4 16896.0 724.079   2
   0  -2   4 17418.4 886.214   3
   0   2  -3 133970. 3588.63   4
   0  -2   3 133498. 3264.47   2
   0  -2   3 135999. 3554.22   3
   0   2  -3 124752. 3663.49   3
   0   2  -2 1934.63 237.752   4
   0  -2   2 1775.43 219.547   2
   0  -2   2 1755.17 282.654   3
   0   2  -2 1847.08 222.207   2
   0   2  -1 78868.7 1946.43   4
   0  -2   1 78265.7 2241.01   2
   0  -2   1 79366.7 2366.22   3
   0  -2   0 8950.17 595.446   3
   0  -2   0 8428.49 583.398   2
   0  -2  -1 76792.6 1800.69   4
   0   2   1 79874.0 1955.92   5
   0  -2  -1 73784.6 2233.73   3
   0   2   1 74626.3 1823.70   4
   0  -2  -1 81715.6 1960.89   5
   0  -2  -2 293.731 111.397   3
   0  -2  -2 240.777 90.7789   4
   0  -2  -2 270.674 136.245   5
   0   2   2 230.128 97.8208   4
   0   2   2 351.397 110.067   3
   0  -2  -3 425.558 125.613   3
   0  -2  -3 553.759 156.273   4
   0   2   3 384.552 132.114   4
   0  -2  -4 478.238 193.506   4
   0  -2  -4 497.537 131.012   3
   0   2   4 789.928 210.554   4
   0   2   5 530.550 215.489   4
   0  -2  -5 680.052 247.464   4
   0  -2  -5 469.033 103.101   3
   0   2   6 10398.9 878.804   4
   0  -2  -6 11322.1 993.158   4
   0   2   7 8964.27 867.409   4
   0  -2  -7 8806.50 951.731   4
   0   2   8 89455.5 3201.93   1
   0  -2  -8 89435.3 3663.62   4
   0   2   9 7903.72 854.962   1
   0  -2  -9 8715.46 1078.60   4
   0  -2 -10 61812.0 3281.64   4
   0  -2 -11 22107.7 1967.84   4
   0  -2 -12 37902.3 2745.53   4
   0  -2 -13 17513.3 1971.18   4
   0  -2 -14 14611.1 1888.26   4
   0  -2 -15 43675.4 3408.17   4
   0  -2 -15 38686.2 3723.28   5
   0  -2 -16 19052.8 2657.42   5
   0   3 -15 15427.6 1978.84   4
   0   3 -14 871.854 574.993   4
   0   3 -13 15257.7 1799.73   4
   0   3 -12 23715.5 2149.49   4
   0   3 -11 57932.9 3295.81   4
   0   3 -10 9809.76 1094.79   1
   0   3 -10 10819.3 1291.73   4
   0  -3  10 11081.5 748.833   2
   0   3 -10 7857.79 895.602   3
   0   3  -9 15936.4 1316.46   1
   0  -3   9 15712.7 879.812   2
   0   3  -9 17909.6 1538.07   4
   0   3  -8-181.487 180.398   3
   0   3  -8 35.7031 252.198   4
   0  -3   8 250.544 109.668   2
   0   3  -8 316.008 278.644   1
   0   3  -7 13149.0 1099.72   3
   0  -3   7 14337.9 1179.47   4
   0  -3   7 13516.6 795.126   2
   0   3  -7 15109.0 1245.69   4
   0   3  -7 13167.9 1063.15   1
   0   3  -6 6123.07 731.202   4
   0  -3   6 5922.86 593.283   3
   0   3  -6 4839.74 631.293   3
   0  -3   6 5580.67 481.704   2
   0  -3   5 37003.3 1733.65   4
   0   3  -5 38123.0 1737.14   4
   0   3  -5 37041.7 1801.92   3
   0  -3   5 33578.7 1334.99   2
   0  -3   5 36411.2 1598.38   3
   0   3  -4 25688.2 1437.07   3
   0   3  -4 27354.0 1322.48   4
   0  -3   4 26943.3 1328.10   4
   0  -3   4 29486.7 1397.53   3
   0  -3   4 25729.2 1103.90   2
   0   3  -3 70086.5 2516.41   3
   0  -3   3 65926.2 2110.94   2
   0  -3   3 69267.8 2215.08   4
   0   3  -3 72242.4 2160.66   2
   0  -3   3 68538.5 2433.67   3
   0   3  -3 70083.4 2181.36   4
   0   3  -2 185021. 4775.84   2
   0  -3   2 189564. 4490.87   4
   0  -3   2 183915. 5001.90   3
   0  -3   2 184819. 4733.92   2
   0   3  -2 183798. 4418.98   4
   0  -3   1 20079.6 1144.65   3
   0   3  -1 18658.2 1025.65   2
   0  -3   1 18595.5 683.868   4
   0  -3   1 19315.2 1062.81   2
   0   3  -1 18979.9 650.394   4
   0  -3   0 1449.19 300.339   2
   0   3   0 980.241 158.440   5
   0  -3   0 1408.96 304.824   3
   0  -3  -1 179936. 4196.62   5
   0  -3  -1 182086. 4844.88   3
   0   3   1 181331. 4178.95   5
   0  -3  -2 89330.5 2242.99   4
   0  -3  -2 89028.5 2436.07   5
   0   3   2 87718.5 2594.38   3
   0   3   2 87620.6 2274.10   4
   0  -3  -2 88184.5 2787.64   3
   0  -3  -3 368676. 8474.48   5
   0   3   3 366772. 8285.42   3
   0  -3  -3 368308. 8246.75   4
   0  -3  -3 344705. 8521.72   3
   0   3   3 362709. 8228.21   4
   0   3   4 26505.7 1198.17   4
   0  -3  -4 24694.8 1169.97   3
   0  -3  -4 25471.0 1208.67   4
   0  -3  -5 216037. 5470.53   3
   0  -3  -5 234626. 6006.17   4
   0   3   5 231481. 5828.97   4
   0  -3  -6 15761.0 751.786   3
   0   3   6 17025.5 1102.92   4
   0  -3  -6 15192.1 1117.20   4
   0   3   7 28327.4 1580.10   4
   0  -3  -7 27701.0 1698.26   4
   0  -3  -8 97644.3 3792.08   4
   0   3   9 34634.8 1922.12   1
   0  -3  -9 36059.2 2224.99   4
   0  -3 -10 11799.1 1336.46   4
   0  -3 -11 837.114 470.807   4
   0  -3 -12 293.846 367.721   4
   0  -3 -13 17372.0 2149.54   5
   0  -3 -13 18359.0 1938.62   4
   0  -3 -14 1690.94 637.215   4
   0  -3 -14 1600.31 777.253   5
   0  -3 -15 2074.16 899.764   5
   0  -3 -15 2198.85 892.828   4
   0  -3 -16 4664.83 1324.30   5
   0   4 -15 3907.76 995.953   4
   0   4 -14-341.063 437.704   4
   0   4 -13 28129.1 2386.95   4
   0   4 -12 13253.5 1537.60   4
   0   4 -11 32588.1 2345.78   4
   0   4 -11 30450.9 2173.12   1
   0   4 -10 15600.6 1442.32   1
   0   4 -10 15189.8 1484.23   4
   0  -4  10 12995.5 862.097   2
   0  -4   9 65856.8 2276.98   2
   0   4  -9 66022.0 3054.01   1
   0   4  -9 63910.3 3034.08   3
   0   4  -9 73804.0 3272.42   4
   0   4  -8 20238.9 1509.31   4
   0  -4   8 16045.5 960.066   2
   0   4  -8 18189.5 1392.89   1
   0   4  -8 18692.0 1483.21   3
   0   4  -7 95865.9 3449.71   4
   0  -4   7 87679.4 3108.67   3
   0   4  -7 89376.2 3341.39   1
   0   4  -7 91926.4 3537.02   3
   0  -4   7 82618.4 2696.09   2
   0  -4   6 34312.1 1744.48   3
   0   4  -6 38529.9 1870.17   4
   0  -4   6 33943.1 1478.31   2
   0   4  -6 37851.5 1884.25   1
   0   4  -6 38304.0 2031.46   3
   0   4  -5 87874.3 2862.87   4
   0   4  -5 86155.4 3202.93   3
   0  -4   5 74907.3 2535.10   2
   0  -4   5 81680.3 2955.11   3
   0  -4   5 80528.3 2867.39   4
   0  -4   4 130053. 3746.20   4
   0   4  -4 135985. 4216.03   3
   0   4  -4 126734. 3615.67   4
   0  -4   4 121563. 3606.91   2
   0  -4   4 126619. 4040.61   3
   0   4  -3 543.178 181.472   4
   0   4  -3 351.067 208.724   3
   0  -4   3 212.652 120.534   4
   0  -4   3 578.119 188.975   2
   0   4  -3 391.984 193.385   2
   0  -4   3 554.669 236.895   3
   0   4  -2 46152.1 1952.41   2
   0   4  -2 46882.5 1457.33   4
   0  -4   2 48866.7 1998.08   2
   0  -4   2 48600.9 1553.72   4
   0  -4   2 50391.1 2192.78   3
   0  -4   1 8637.00 833.610   3
   0  -4   1 8651.11 440.308   4
   0   4  -1 9156.86 782.343   2
   0   4  -1 9602.33 722.285   5
   0   4  -1 9124.28 387.435   4
   0  -4   1 10571.1 859.723   2
   0  -4   0 99044.4 3335.75   3
   0   4   0 94540.8 2538.89   5
   0  -4   0 97053.3 3260.40   2
   0  -4  -1 1924.88 251.106   5
   0   4   1 1566.93 199.407   5
   0  -4  -1 1561.39 340.909   3
   0  -4  -2 6645.10 482.112   5
   0  -4  -2 6968.46 715.201   3
   0   4   2 6805.58 382.037   4
   0   4   2 7786.28 659.123   3
   0  -4  -3 8094.65 618.741   5
   0   4   3 8543.40 671.778   3
   0  -4  -3 9951.74 844.856   3
   0   4   3 8433.02 531.244   4
   0  -4  -3 9008.86 542.520   4
   0  -4  -4 423.739 190.037   5
   0  -4  -4 722.180 208.128   4
   0  -4  -4 819.649 273.053   3
   0   4   4 505.978 176.300   4
   0  -4  -5 17835.4 1206.43   5
   0   4   5 17751.6 1018.84   4
   0  -4  -5 16690.3 1063.46   3
   0  -4  -5 18414.6 1088.94   4
   0  -4  -6 4694.50 701.170   5
   0  -4  -6 4769.79 506.066   3
   0  -4  -6 5794.04 663.337   4
   0   4   6 4351.66 532.977   4
   0  -4  -7 40271.2 1522.75   3
   0  -4  -7 44948.1 2137.76   4
   0   4   7 44377.7 1997.27   4
   0  -4  -7 44431.3 2382.30   5
   0  -4  -8-118.928 267.011   5
   0  -4  -8 219.766 220.092   4
   0  -4  -9 103971. 4056.88   4
   0  -4  -9 98287.8 4420.35   5
   0  -4 -10 6067.10 1058.42   5
   0  -4 -10 5505.09 905.696   4
   0  -4 -11 4848.79 886.912   4
   0  -4 -11 3862.60 944.685   5
   0  -4 -12 10333.2 1579.16   5
   0   4  12 12657.9 1218.56   2
   0  -4 -12 11146.0 1447.01   4
   0  -4 -13 10851.7 1700.10   5
   0   4  13 12200.5 1235.07   2
   0  -4 -13 12847.9 1591.86   4
   0  -4 -14 6281.05 1381.66   5
   0  -4 -14 4371.25 962.749   4
   0  -4 -15 977.354 753.029   5
   0  -4 -15 2354.43 798.250   4
   0   5 -15 2110.88 811.678   4
   0   5 -14 35641.2 2797.01   4
   0   5 -13 4407.73 1004.20   4
   0   5 -12 12889.6 1532.67   1
   0   5 -12 14937.6 1608.14   4
   0   5 -11 715.790 402.896   1
   0   5 -11 1331.08 468.757   4
   0   5 -10 20151.6 1727.42   1
   0   5 -10 21880.8 1742.83   4
   0   5  -9 1.45986 230.701   4
   0   5  -9 185.014 287.636   1
   0  -5   9 217.008 125.072   2
   0   5  -8 8243.65 937.720   4
   0  -5   8 9391.29 943.658   3
   0  -5   8 8064.17 733.861   2
   0   5  -8 8942.20 1040.15   1
   0   5  -7 1539.55 449.293   1
   0  -5   7 1661.86 343.483   2
   0  -5   7 1565.42 437.782   3
   0   5  -7 2695.60 495.258   4
   0   5  -6 25763.5 1448.04   4
   0  -5   6 24400.3 1575.35   3
   0  -5   6 24326.5 1337.15   2
   0  -5   5 8112.13 771.208   4
   0   5  -5 9383.76 764.638   4
   0  -5   5 7840.47 737.977   2
   0  -5   5 7383.12 857.359   3
   0   5  -5 7853.98 913.325   3
   0  -5   4 6756.39 816.734   3
   0   5  -4 7325.11 756.122   2
   0  -5   4 6517.79 704.106   2
   0   5  -4 6013.32 553.346   4
   0   5  -4 7044.92 834.506   3
   0  -5   4 7061.72 645.405   4
   0   5  -3 49504.1 2219.85   2
   0  -5   3 47439.7 2305.25   3
   0   5  -3 47627.8 1612.75   4
   0  -5   3 45120.2 2071.71   2
   0  -5   3 47349.2 1721.28   4
   0  -5   2 46557.4 1539.77   4
   0  -5   2 50578.5 2214.07   2
   0  -5   2 50040.9 2371.52   3
   0   5  -2 47528.2 1989.58   5
   0   5  -2 49615.2 1436.44   4
   0  -5   1 44053.6 2221.16   3
   0   5  -1 46133.2 2089.38   2
   0  -5   1 46756.0 2181.38   2
   0   5  -1 44083.7 1135.52   4
   0   5  -1 49810.9 1912.65   5
   0   5   0 117108. 3863.46   2
   0   5   0 116584. 3056.30   5
   0  -5   0 117490. 4039.03   3
   0   5   1 11094.2 582.398   5
   0  -5  -1 12129.0 681.325   5
   0  -5  -1 11976.1 1069.18   3
   0   5   2 74474.0 1895.44   4
   0   5   2 81681.0 2798.58   3
   0  -5  -2 77922.9 3043.79   3
   0  -5  -2 76843.2 2256.46   5
   0  -5  -3 573.271 255.761   3
   0  -5  -3 531.909 177.294   5
   0   5   3 879.549 277.827   3
   0   5   3 655.213 136.502   4
   0   5   4 64885.7 2353.53   3
   0  -5  -4 65724.2 2666.59   3
   0   5   4 62757.5 1996.62   4
   0  -5  -4 61445.6 1989.51   4
   0  -5  -4 61575.3 2240.58   5
   0   5   5 2072.54 424.799   2
   0  -5  -5 1476.25 301.852   4
   0   5   5 1740.64 299.628   4
   0  -5  -5 849.841 298.234   3
   0  -5  -5 1665.41 337.211   5
   0  -5  -6 1834.89 459.415   5
   0  -5  -6 1095.06 293.487   3
   0   5   6 1830.42 349.736   4
   0   5   6 1428.05 383.120   2
   0  -5  -6 1849.44 375.406   4
   0   5   7 3746.34 593.969   2
   0  -5  -7 2922.96 586.868   5
   0  -5  -7 2949.71 530.549   4
   0  -5  -7 3193.46 459.731   3
   0   5   7 3645.45 504.923   4
   0  -5  -8 572.169 269.146   4
   0  -5  -8 573.646 330.675   5
   0  -5  -8 340.766 164.287   3
   0   5   8 541.123 306.013   2
   0   5   9 11905.5 1134.89   2
   0  -5  -9 13157.5 1418.00   5
   0  -5  -9 14882.7 1315.29   4
   0   5  10 400.263 257.922   2
   0  -5 -10 738.618 503.396   5
   0  -5 -10 955.220 471.247   4
   0  -5 -11 7313.24 1062.16   4
   0   5  11 7180.75 934.190   2
   0  -5 -12 595.842 485.697   4
   0  -5 -12 508.467 480.519   5
   0   5  12 12.5774 274.405   2
   0  -5 -13 56752.2 3909.66   5
   0   5  13 58506.1 3042.73   2
   0  -5 -13 59507.8 3450.98   4
   0   5  14 2142.97 595.705   2
   0  -5 -14 1872.35 939.695   5
   0  -5 -14 2180.14 707.569   4
   0  -5 -15 6287.64 1420.49   5
   0   6 -14 45085.5 3080.16   4
   0   6 -13 102.403 433.488   1
   0   6 -13-274.496 432.718   4
   0   6 -12 4129.06 937.059   1
   0   6 -12 3338.92 774.490   4
   0   6 -11 4149.28 793.676   4
   0   6 -11 3106.59 803.330   1
   0   6 -10 59479.0 3250.23   1
   0   6 -10 60088.5 2980.57   4
   0   6  -9 13025.6 1395.81   1
   0   6  -9 11874.2 1163.21   4
   0   6  -8 23949.1 1575.64   4
   0  -6   8 26330.7 1781.82   3
   0  -6   8 23694.3 1440.88   2
   0   6  -8 25277.0 1865.08   1
   0  -6   7 40906.2 1994.14   2
   0   6  -7 42519.4 2375.57   1
   0  -6   7 40492.4 2292.06   3
   0   6  -7 46554.5 2102.07   4
   0  -6   6 829.890 370.950   3
   0  -6   6 1228.46 358.775   2
   0   6  -6 1089.90 293.527   4
   0  -6   5 15324.5 1178.71   2
   0  -6   5 13971.3 1286.23   3
   0  -6   5 15402.1 1074.78   4
   0   6  -5 15528.5 971.964   4
   0  -6   4 2737.52 579.187   3
   0   6  -4 2677.39 350.602   4
   0  -6   4 2572.03 387.525   4
   0  -6   4 2561.28 500.661   2
   0   6  -4 2937.84 567.524   2
   0   6  -3 46937.1 2160.83   5
   0  -6   3 46583.3 1704.67   4
   0  -6   3 49367.7 2313.22   2
   0   6  -3 48915.4 1577.10   4
   0   6  -3 46898.1 2324.38   2
   0  -6   3 48603.3 2507.09   3
   0   6  -2 2605.05 515.550   2
   0  -6   2 3284.57 578.011   2
   0   6  -2 2951.82 484.273   5
   0  -6   2 3051.90 303.788   4
   0   6  -2 2807.37 245.999   4
   0  -6   2 3137.38 604.020   3
   0   6  -1 98303.0 2993.00   5
   0  -6   1 94597.2 3845.27   3
   0   6  -1 103843. 3654.59   2
   0   6   0 5105.56 423.705   5
   0  -6   0 4644.64 731.584   3
   0   6   0 5427.95 720.691   2
   0   6   1 17154.8 774.584   5
   0  -6  -1 19440.3 1506.16   3
   0   6   1 19869.4 1341.41   3
   0  -6  -2 71321.5 2186.14   5
   0  -6  -2 75907.7 3216.35   3
   0  -6  -3 86798.2 3447.86   3
   0  -6  -3 86508.8 2579.94   5
   0   6   3 79015.4 2155.07   4
   0   6   4 22472.0 1528.48   2
   0  -6  -4 25267.5 1680.05   3
   0   6   4 23038.1 1008.38   4
   0  -6  -4 23814.3 1236.90   5
   0   6   5 5856.07 762.849   2
   0  -6  -5 6361.05 675.936   5
   0  -6  -5 5917.21 782.984   3
   0   6   5 5784.46 527.226   4
   0  -6  -6 262929. 7322.30   3
   0   6   6 255306. 7369.91   2
   0   6   6 259248. 6618.96   4
   0  -6  -6 275563. 7186.15   5
   0  -6  -7 861.037 341.582   5
   0  -6  -7 928.505 325.072   3
   0   6   7 753.990 232.561   4
   0   6   7 837.160 337.862   2
   0  -6  -7 783.116 269.924   4
   0  -6  -8 30216.1 1724.14   4
   0  -6  -8 32273.8 2044.05   5
   0   6   8 28984.8 1863.69   2
   0  -6  -8 24857.0 1472.14   3
   0  -6  -9 842.794 321.237   4
   0   6   9 298.039 270.001   2
   0  -6 -10 71114.0 3684.90   5
   0  -6 -10 65638.0 3097.03   4
   0   6  10 61357.9 3036.71   2
   0  -6 -11 4914.56 984.128   5
   0   6  11 4770.26 826.130   2
   0  -6 -11 4473.53 817.812   4
   0  -6 -12 1934.37 561.239   4
   0   6  12 1341.89 427.879   2
   0  -6 -12 1761.68 700.112   5
   0  -6 -13 17229.1 2053.94   5
   0   6  13 16525.6 1602.52   2
   0  -6 -14 7408.15 1505.85   5
   0   6  14 8916.14 1195.48   2
   0  -6 -15 1786.29 828.004   5
   0   7 -14 1969.87 628.985   4
   0   7 -13 2699.51 716.603   4
   0   7 -13 1194.23 630.163   1
   0   7 -12 11235.8 1321.69   4
   0   7 -12 11891.8 1610.56   1
   0   7 -11 1138.03 497.759   4
   0   7 -11 1495.41 570.046   1
   0   7 -10 7324.62 947.720   4
   0   7 -10 6654.40 1132.42   1
   0   7  -9 11166.7 1096.34   4
   0   7  -9 9742.64 1272.46   1
   0  -7   8 78647.5 3612.14   3
   0   7  -8 85422.8 3197.05   4
   0   7  -8 80130.9 3754.80   1
   0   7  -7 2697.70 476.093   4
   0  -7   7 1769.04 525.502   3
   0  -7   7 2987.11 567.131   2
   0  -7   6 32033.0 2121.60   3
   0  -7   6 29245.1 1799.88   2
   0   7  -6 32225.5 1550.25   4
   0  -7   5 29792.2 1543.24   4
   0   7  -5 33090.8 2014.37   2
   0   7  -5 31313.1 1412.10   4
   0  -7   5 31888.6 1892.74   2
   0  -7   5 29161.5 2039.12   3
   0   7  -4 104805. 3854.70   5
   0  -7   4 112396. 3998.02   2
   0  -7   4 104185. 4230.59   3
   0  -7   4 101926. 3164.51   4
   0   7  -4 100417. 4017.15   2
   0   7  -4 105562. 2961.15   4
   0  -7   3 44889.7 1605.21   4
   0  -7   3 46244.2 2381.22   2
   0   7  -3 43545.3 1416.37   4
   0  -7   3 44893.5 2555.10   3
   0   7  -3 43409.0 2152.51   5
   0   7  -3 41147.2 2282.03   2
   0   7  -2 59004.2 2729.44   2
   0  -7   2 57399.7 2942.20   3
   0   7  -2 58998.9 2417.72   5
   0   7  -1 63863.4 2155.00   5
   0  -7   1 65925.8 3183.31   3
   0   7  -1 70443.3 2997.24   2
   0   7   0 154.477 117.445   5
   0   7   0 202.169 269.391   2
   0  -7   0 152.085 298.306   3
   0  -7  -1 29070.3 1997.00   3
   0   7   1 31616.4 1892.07   2
   0   7   1 28921.8 1054.12   5
   0  -7  -2 12607.7 1287.77   3
   0   7   2 13272.0 1196.01   2
   0  -7  -2 13746.8 770.967   5
   0  -7  -3 44054.7 2471.26   3
   0   7   3 47554.7 2392.29   2
   0  -7  -3 44969.9 1630.02   5
   0   7   3 42344.0 1212.47   4
   0   7   4 396.518 114.144   4
   0   7   4 545.330 269.226   2
   0  -7  -4 269.285 264.084   3
   0   7   4 768.078 283.755   3
   0  -7  -4 597.130 226.255   5
   0   7   5 15.4190 234.413   2
   0  -7  -5 469.789 212.923   5
   0  -7  -5 651.880 359.872   3
   0   7   5 203.695 121.617   4
   0   7   6 5981.37 855.288   2
   0   7   6 4826.62 510.732   4
   0  -7  -6 7568.33 944.557   3
   0  -7  -6 8407.11 829.543   5
   0  -7  -7 2738.52 542.724   5
   0  -7  -7 1880.56 468.040   3
   0   7   7 2013.36 558.833   2
   0   7   7 1951.04 364.039   4
   0  -7  -8 4268.97 695.133   5
   0   7   8 3376.53 682.935   2
   0  -7  -8 3690.26 613.768   3
   0  -7  -9 7004.61 1024.07   5
   0   7   9 5626.49 875.731   2
   0  -7 -10 22052.5 1909.61   5
   0   7  10 17861.7 1622.01   2
   0   7  11 908.127 404.490   2
   0  -7 -11 373.756 382.279   5
   0   7  12 24944.7 2032.44   2
   0  -7 -12 28834.8 2509.94   5
   0  -7 -13 4524.38 1125.47   5
   0   7  13 4527.41 881.535   2
   0  -7 -14 6968.51 1369.69   5
   0   7  14 6563.36 1080.73   2
   0  -7 -15-1438.70 769.557   5
   0   8 -13 39110.7 3200.15   1
   0   8 -13 33083.0 2352.01   4
   0   8 -12 142.862 431.248   1
   0   8 -12 56.6971 290.432   4
   0   8 -11 16964.0 1497.84   4
   0   8 -11 19103.5 2026.72   1
   0   8 -10 7205.49 918.248   4
   0   8 -10 8445.57 1294.91   1
   0   8  -9 20382.0 1471.83   4
   0   8  -9 21764.6 2001.64   1
   0  -8   8-5.73133 268.833   3
   0   8  -8 153.942 306.362   1
   0   8  -8-120.742 230.828   4
   0   8  -7 11111.9 915.736   4
   0  -8   7 9947.73 1270.27   3
   0   8  -6 1358.91 332.553   4
   0  -8   6 1513.76 532.338   3
   0   8  -5 2448.76 355.927   4
   0  -8   5 2277.47 579.107   3
   0   8  -5 3100.15 699.880   2
   0   8  -5 2566.29 607.672   5
   0  -8   5 2108.08 403.095   4
   0   8  -4 6712.46 877.087   5
   0   8  -4 5552.27 857.917   2
   0  -8   4 7143.90 603.555   4
   0  -8   4 8211.13 1100.50   3
   0   8  -3 1205.80 356.546   5
   0  -8   3 1865.33 559.184   3
   0   8  -3 1360.38 451.903   2
   0  -8   2 7157.59 1041.38   3
   0   8  -2 8077.94 982.716   2
   0   8  -2 6074.32 639.313   5
   0  -8   1 22229.8 1861.79   3
   0   8  -1 25670.3 1766.52   2
   0   8  -1 21433.8 1037.05   5
   0   8   0 27038.1 1029.83   5
   0  -8   0 28083.2 2091.12   3
   0   8   0 31786.9 1981.67   2
   0   8   1 9179.89 1069.57   2
   0  -8  -1 8741.11 1162.16   3
   0   8   2 27749.5 1865.16   2
   0  -8  -2 24940.2 1951.15   3
   0  -8  -3 51354.7 1801.50   5
   0   8   3 54400.8 2702.80   2
   0  -8  -3 50557.1 2865.74   3
   0   8   4-71.6840 243.478   2
   0  -8  -4-96.7197 335.373   3
   0   8   4 20.3041 69.8388   4
   0  -8  -4 370.509 161.620   5
   0   8   5 26625.0 1866.33   2
   0  -8  -5 29984.9 1416.05   5
   0  -8  -5 28278.0 1996.63   3
   0   8   6 2583.91 601.264   2
   0   8   6 1994.21 321.411   4
   0  -8  -6 2761.29 652.142   3
   0  -8  -6 2522.95 472.199   5
   0  -8  -7 28004.5 1968.29   3
   0   8   7 28206.3 2021.68   2
   0  -8  -8 156.440 254.503   3
   0   8   8 973.248 460.801   2
   0  -8  -8 1247.62 396.563   5
   0  -8  -9 1976.34 575.539   5
   0   8   9 1543.78 571.898   2
   0  -8 -10 619.824 428.496   5
   0   8  10 1471.35 539.457   2
   0   8  11 1375.38 525.956   2
   0  -8 -11 3228.10 788.830   5
   0   8  12 1151.14 515.918   2
   0  -8 -12 751.617 496.794   5
   0   8  13 777.641 493.237   2
   0   8  14 11940.3 1475.57   2
   0   9 -11 29446.7 2681.75   1
   0   9 -10 5385.93 1116.72   1
   0   9  -9 18154.9 1926.42   1
   0  -9   8 2705.32 772.329   3
   0   9  -8 2324.41 696.192   1
   0  -9   7 19672.6 1884.01   3
   0  -9   6 33897.4 2483.28   3
   0   9  -5 50598.1 2935.45   2
   0  -9   5 53887.9 3158.32   3
   0  -9   4 5457.40 971.715   3
   0   9  -4 5250.89 849.259   2
   0   9  -4 5156.17 771.086   5
   0  -9   3 390.682 394.395   3
   0   9  -3 397.926 224.351   5
   0   9  -3 409.605 313.252   2
   0  -9   2 3214.84 782.037   3
   0   9  -2 1860.46 559.422   2
   0   9  -2 1900.71 331.381   5
   0   9  -1 9016.49 583.973   5
   0  -9   1 9649.07 1282.45   3
   0   9  -1 10354.3 1165.31   2
   0   9   0 1082.61 157.754   5
   0  -9   0 1727.31 576.023   3
   0   9   0 2109.56 556.104   2
   0  -9  -1 29085.4 2257.45   3
   0   9   1 33598.4 2134.33   2
   0   9   2 3745.97 720.954   2
   0  -9  -2 2263.06 675.474   3
   0  -9  -3 35628.2 2481.70   3
   0   9   3 38236.3 2321.30   2
   0   9   4 36485.4 2270.18   2
   0  -9  -4 35250.9 2447.30   3
   0  -9  -4 35756.8 1452.41   5
   0   9   5 4978.28 839.494   2
   0  -9  -5 5614.36 951.835   3
   0  -9  -5 4984.11 527.222   5
   0   9   6 11185.6 1275.86   2
   0  -9  -6 10539.4 847.923   5
   0  -9  -6 9889.33 1251.00   3
   0  -9  -7 31422.1 1673.67   5
   0  -9  -7 26686.3 2037.88   3
   0   9   7 29003.2 2115.91   2
   0  -9  -8 29884.1 1772.90   5
   0  -9  -8 23138.3 1860.16   3
   0   9   8 27992.2 2100.87   2
   0   9   9 55130.9 3122.34   2
   0   9  10 8441.25 1209.93   2
   0   9  11 35648.2 2551.07   2
   0   9  12 5127.37 979.247   2
   0   9  13 18042.0 1818.20   2
   0  10 -10 1861.80 816.987   1
   0  10  -9 607.750 401.807   1
   0 -10   8 300.774 439.109   3
   0  10  -8 318.111 459.556   1
   0 -10   7 12889.9 1621.64   3
   0 -10   6 16301.6 1786.77   3
   0 -10   5 36972.1 2717.82   3
   0  10  -5 39435.1 2622.22   2
   0  10  -4 153.885 279.317   2
   0 -10   4 272.649 351.365   3
   0 -10   3 32250.2 2509.55   3
   0  10  -3 33188.9 2310.81   2
   0 -10   2 6237.15 1112.25   3
   0  10  -2 6870.21 1022.59   2
   0  10  -1 69229.7 3333.95   2
   0 -10   1 65175.0 3681.59   3
   0 -10   0 29035.8 2336.18   3
   0  10   0 29599.1 2079.14   2
   0  10   1 51112.6 2802.71   2
   0 -10  -1 46106.2 3037.47   3
   0  10   2 32893.2 2192.17   2
   0 -10  -2 27327.7 2290.36   3
   0  10   3 2516.53 641.947   2
   0 -10  -3 1782.84 587.752   3
   0 -10  -4 11190.7 1415.02   3
   0  10   4 13500.9 1399.52   2
   0 -10  -5 1415.66 527.609   3
   0  10   5 2296.48 606.593   2
   0 -10  -6 17233.1 1739.47   3
   0  10   6 20168.4 1774.70   2
   0 -10  -7 699.383 422.922   3
   0  10   7 1332.71 531.991   2
   0 -10  -8-444.629 353.578   3
   0  10   8-332.678 392.712   2
   0  10   9 2837.10 738.665   2
   0  10  10-124.619 409.461   2
   0  10  11 6368.94 1126.69   2
   0  10  12-607.403 471.685   2
   0  11  -9 566.031 490.392   1
   0  11  -8 28793.5 2587.79   1
   0 -11   7 1669.46 632.469   3
   0 -11   6 10789.0 1545.11   3
   0  11  -5 1683.94 633.168   2
   0 -11   5 468.406 435.772   3
   0  11  -4 16033.1 1643.03   2
   0 -11   4 14600.5 1746.65   3
   0  11  -3 312.444 440.150   2
   0 -11   3 39.8103 392.141   3
   0  11  -2 784.880 497.716   2
   0 -11   2 486.718 455.223   3
   0 -11   1 4837.15 1043.66   3
   0  11  -1 4791.45 877.421   2
   0 -11   0 1725.17 628.673   3
   0  11   0 2890.78 687.215   2
   0  11   1 2932.06 705.609   2
   0 -11  -1 1606.28 667.133   3
   0  11   2 6642.88 1019.98   2
   0 -11  -2 5055.40 1065.14   3
   0 -11  -3 15111.3 1771.52   3
   0  11   3 15979.1 1583.42   2
   0 -11  -4 12602.0 1573.31   3
   0  11   4 12838.5 1448.08   2
   0 -11  -5 7408.61 1225.07   3
   0  11   5 8596.11 1180.91   2
   0  11   6 24453.9 2036.73   2
   0 -11  -6 20032.2 1985.73   3
   0  11   7 190.607 354.877   2
   0 -11  -7 557.374 383.327   3
   0 -11  -8 5005.40 894.298   3
   0  11   8 7137.87 1135.65   2
   0  11   9 2.26225 395.197   2
   0  11  10 18342.0 1888.13   2
   0 -12   6 3381.37 940.576   3
   0  12  -5 232.331 423.068   2
   0 -12   5 940.237 532.511   3
   0  12  -4 44104.8 2840.89   2
   0 -12   4 40365.9 3123.77   3
   0  12  -3 6793.79 1068.63   2
   0 -12   3 3755.46 1004.12   3
   0  12  -2 3019.87 791.528   2
   0 -12   2 2796.18 850.677   3
   0  12  -1 22901.1 1950.21   2
   0 -12   1 21959.0 2228.82   3
   0 -12   0 4940.54 1054.13   3
   0  12   0 6283.55 1029.75   2
   0  12   1 6951.92 1080.78   2
   0 -12  -1 5403.55 1140.15   3
   0 -12  -2 777.660 578.721   3
   0  12   2 737.026 561.361   2
   0  12   3 14266.5 1546.39   2
   0 -12  -3 11964.9 1624.08   3
   0  12   4 4312.00 893.359   2
   0 -12  -4 1728.39 687.378   3
   0  12   5 19478.2 1868.41   2
   0 -12  -5 15901.0 1858.82   3
   0 -12  -6 2107.12 788.838   3
   0  12   6 3997.64 930.952   2
   0  12   7 1807.35 690.699   2
   0 -12  -7 731.545 460.936   3
   0  12   8 9278.90 1385.74   2
   0  13  -4 3697.18 838.369   2
   0 -13   4 2751.35 1021.02   3
   0 -13   3 4086.14 1058.35   3
   0  13  -3 4363.33 908.615   2
   0  13  -2 32262.7 2421.82   2
   0 -13   2 28766.0 2697.61   3
   0 -13   1-393.323 588.714   3
   0  13  -1-839.492 500.191   2
   0 -13   0 11553.4 1706.98   3
   0  13   0 15680.7 1679.85   2
   0 -13  -1 294.368 406.921   3
   0  13   1-40.1885 390.348   2
   0 -13  -2 32590.7 2848.73   3
   0  13   2 38951.6 2655.35   2
   0 -13  -3 11590.4 1669.73   3
   0  13   3 12723.0 1516.20   2
   0 -13  -4 22496.6 2352.10   3
   0  13   4 28468.0 2288.08   2
   0  13   5 10353.4 1441.53   2
   0 -13  -5 6801.45 1326.41   3
   0 -13  -6 3731.34 1009.86   3
   0  14  -4 2579.68 770.931   2
   0  14  -3 11467.5 1481.10   2
   0  14  -2 810.936 517.300   2
   0  14  -1 7763.01 1237.29   2
   0 -14  -3 1643.16 714.101   3
   0 -14  -4 158.422 577.797   3
   0 -14  -5 517.166 512.330   3
  -1  14  -1 869.594 543.430   2
  -1  14  -2 3100.60 808.457   2
  -1  14  -3 2218.55 724.717   2
  -1  14  -4 10117.4 1358.46   2
  -1  13   4 1473.46 652.915   2
  -1  13   3 8164.97 1279.74   2
  -1  13   2 4230.44 934.154   2
  -1  13   1 14163.2 1583.08   2
  -1  13   0 2991.12 733.955   2
  -1  13  -1 12477.3 1458.44   2
  -1  13  -2-398.108 470.183   2
  -1  13  -3 343.435 342.322   2
  -1  13  -4 1912.79 601.465   2
  -1  13  -5 70.9388 327.203   2
  -1  12   7 1330.03 576.464   2
  -1  12   6 2832.54 810.753   2
  -1  12   5 453.217 460.870   2
  -1  12   4 871.708 452.770   2
  -1  12   3 4421.34 945.804   2
  -1  12   2 12289.1 1449.28   2
  -1  12   1 7151.11 1112.63   2
  -1  12   0 20764.3 1830.54   2
  -1  12  -1 56352.8 3094.27   2
  -1  12  -2 2469.57 586.413   2
  -1  12  -3 9999.72 1249.44   2
  -1  12  -4-90.5866 378.932   2
  -1  12  -5 52317.5 2984.05   2
  -1  12  -6 926.008 598.844   1
  -1  12  -6 830.568 516.569   2
  -1  12  -7 11026.9 1620.17   1
  -1  11   9 29090.6 2479.78   2
  -1  11   8 274.051 502.795   2
  -1  11   7 19702.8 1960.62   2
  -1  11   6 35278.7 2589.65   2
  -1  11   5 27254.5 2213.20   2
  -1  11   4 5464.35 969.267   2
  -1  11   3 3056.57 825.147   2
  -1  11   2 31148.5 2257.12   2
  -1  11   1 497.197 411.289   2
   1 -11   0 1046.83 580.166   3
  -1  11   0 3184.98 748.512   2
  -1  11  -1 595.298 433.119   2
   1 -11   1 240.283 384.463   3
  -1  11  -2 4306.82 798.717   2
  -1  11  -3 11982.9 1294.37   2
  -1  11  -4 3846.99 776.242   2
  -1  11  -5 350.788 373.921   2
  -1  11  -6 1303.68 655.876   1
  -1  11  -6 670.816 467.825   2
  -1  11  -7 22726.8 2191.96   1
  -1  11  -8-139.819 424.998   1
  -1  11  -9 14475.7 1902.27   1
  -1  10  11 5068.99 1106.04   2
  -1  10  10 4542.32 961.778   2
  -1  10   9 2870.49 786.860   2
  -1  10   8 2672.95 769.624   2
  -1  10   7 830.723 528.851   2
  -1  10   6 652.496 371.431   2
  -1  10   5 5949.01 1001.44   2
  -1  10   4 944.215 467.886   2
  -1  10   3 11822.2 1334.86   2
   1 -10  -3 11530.8 1016.83   5
   1 -10  -2 37864.0 2797.16   3
  -1  10   2 41645.1 2519.98   2
  -1  10   1 9616.60 1145.21   2
   1 -10  -1 8747.56 1315.69   3
   1 -10   0 6985.04 1187.84   3
  -1  10   0 9006.79 1099.71   2
   1 -10   1 4558.37 989.879   3
  -1  10  -1 6735.66 956.381   2
   1 -10   2 45593.6 3101.05   3
  -1  10  -2 48902.2 2628.61   2
   1 -10   3 580.601 412.772   3
  -1  10  -3 1424.74 491.849   2
  -1  10  -4 6983.37 983.659   2
  -1  10  -5 803.927 456.328   2
  -1  10  -6 10030.7 1326.61   1
  -1  10  -6 10146.2 1258.89   2
  -1  10  -7 1647.88 641.153   1
  -1  10  -8 1877.88 691.005   1
  -1  10  -9 913.682 587.308   1
  -1  10 -10 5168.59 1152.85   1
  -1   9  12 26698.8 2335.00   2
  -1   9  11 940.167 506.793   2
   1  -9 -10 9787.98 1304.73   5
  -1   9  10 9125.66 1294.93   2
  -1   9   9 4942.24 959.651   2
   1  -9  -9 6310.32 997.430   5
  -1   9   8 3168.36 816.017   2
   1  -9  -8 3322.89 680.380   5
  -1   9   7 3320.58 752.753   2
   1  -9  -7 2662.11 550.278   5
  -1   9   6 17456.5 1651.62   2
   1  -9  -6 20438.9 1510.37   5
  -1   9   5 12097.9 1337.60   2
   1  -9  -5 12648.0 1116.16   5
   1  -9  -4 6460.74 778.256   5
  -1   9   4 6886.52 994.210   2
  -1   9   3 6410.28 938.679   2
  -1   9   3 5306.42 313.568   4
   1  -9  -3 5275.92 709.970   5
   1  -9  -3 4866.42 922.543   3
  -1   9   2 1317.60 323.546   5
  -1   9   2 1197.26 419.722   2
   1  -9  -2 1621.03 409.001   5
   1  -9  -2 1838.09 632.029   3
  -1   9   1 4451.25 766.343   2
  -1   9   1 3622.64 497.088   5
   1  -9  -1 3407.08 794.891   3
  -1   9   0 941.181 407.645   2
  -1   9   0 897.282 266.504   5
   1  -9   0 1095.06 553.885   3
  -1   9  -1 19087.0 1517.11   2
   1  -9   1 17734.3 1764.13   3
  -1   9  -1 16852.1 1172.10   5
  -1   9  -2 25756.9 1740.63   2
  -1   9  -2 22582.1 1430.84   5
   1  -9   2 22443.3 2000.96   3
  -1   9  -3 74067.0 2113.80   4
  -1   9  -3 83288.6 3296.86   5
   1  -9   3 82418.6 4035.21   3
  -1   9  -4 70682.2 3108.62   2
  -1   9  -4 58404.8 1931.64   4
  -1   9  -5-363.456 395.210   2
  -1   9  -5 26.6233 138.091   4
  -1   9  -6 29947.4 1457.84   4
  -1   9  -6 25863.0 2059.78   1
  -1   9  -6 30435.6 2131.77   2
  -1   9  -7 15310.2 1085.31   4
  -1   9  -7 13659.9 1540.06   1
  -1   9  -8 77835.4 2984.94   4
  -1   9  -8 78041.9 4050.79   1
  -1   9  -9 15300.3 1758.08   1
  -1   9  -9 14108.8 1191.70   4
  -1   9 -10 35400.5 2788.19   1
  -1   9 -10 29069.8 1882.00   4
  -1   9 -11 289.992 522.002   1
  -1   9 -11 60.9184 306.465   4
  -1   9 -12 40.1286 394.465   4
  -1   9 -13 3809.37 803.393   4
  -1   8  14 64.8013 433.997   2
   1  -8 -13 3109.40 971.197   5
  -1   8  13 1725.00 681.059   2
   1  -8 -12 1934.63 794.198   5
  -1   8  12 2530.29 672.584   2
   1  -8 -11 7031.63 1233.41   5
  -1   8  11 9399.69 1298.08   2
  -1   8  10 9061.28 1208.54   2
   1  -8 -10 10733.2 1400.12   5
  -1   8   9 774.570 449.317   2
   1  -8  -9 746.340 471.893   5
  -1   8   8 64011.0 3306.40   2
   1  -8  -8 65975.6 3313.86   5
   1  -8  -7 18279.9 1576.65   5
  -1   8   7 15494.6 1514.26   2
   1  -8  -6 36048.9 2116.94   5
  -1   8   6 33797.4 2205.65   2
  -1   8   6 34390.9 1552.73   4
  -1   8   5 26802.4 1244.91   4
   1  -8  -5 29376.3 1815.78   5
  -1   8   5 25583.2 1870.94   2
   1  -8  -4 85026.7 3037.01   5
  -1   8   4 81361.1 3359.80   2
  -1   8   3 24600.6 966.766   4
   1  -8  -3 21821.3 1828.94   3
   1  -8  -3 27863.1 1619.24   5
  -1   8   3 23689.5 1736.68   2
   1  -8  -2 35881.8 1844.79   5
  -1   8   2 29699.8 1923.04   2
   1  -8  -2 31779.7 2215.88   3
  -1   8   2 30666.7 974.192   4
  -1   8   1 51825.5 2516.17   2
  -1   8   1 39931.0 1077.50   4
   1  -8  -1 52284.4 2221.12   5
  -1   8   1 41727.5 1109.73   4
   1  -8  -1 48468.7 2760.20   3
  -1   8   1 35670.4 1755.80   5
  -1   8   0 42736.7 2232.83   2
   1  -8   0 40664.8 2524.00   3
  -1   8  -1 25628.7 799.030   4
   1  -8   1 27484.5 2083.86   3
  -1   8  -2 4406.33 630.232   5
   1  -8   2 5901.95 967.141   3
  -1   8  -2 5079.58 365.553   4
   1  -8   3 17932.8 1683.61   3
  -1   8  -3 16144.8 1383.89   5
  -1   8  -3 19632.1 1460.89   2
  -1   8  -3 16637.8 825.862   4
  -1   8  -4 5944.06 528.623   4
   1  -8   4 5243.79 911.114   3
  -1   8  -4 7050.63 929.474   2
  -1   8  -4 5769.14 900.214   5
  -1   8  -5 2000.27 531.284   2
  -1   8  -5 2072.71 365.595   4
  -1   8  -6 2855.29 678.478   1
  -1   8  -6 2979.72 465.268   4
  -1   8  -6 2575.12 609.955   2
  -1   8  -7-57.7877 356.152   1
  -1   8  -7 119.768 184.532   4
  -1   8  -8 10838.3 1011.28   4
  -1   8  -8 9602.76 1294.49   1
  -1   8  -9 4295.88 690.501   4
  -1   8  -9 5684.09 1046.14   1
  -1   8 -10 17034.8 1852.66   1
  -1   8 -10 13800.1 1295.46   4
  -1   8 -11 5505.96 892.059   4
  -1   8 -11 5561.18 1131.62   1
  -1   8 -12 12931.8 1758.67   1
  -1   8 -12 13498.4 1453.82   4
  -1   8 -13-481.217 491.020   4
  -1   8 -13 457.426 485.838   1
  -1   8 -14 24209.1 2122.82   4
  -1   7  14 5325.68 1008.35   2
   1  -7 -14 4641.49 1213.59   5
   1  -7 -13 31345.5 2933.48   5
  -1   7  13 30117.8 2317.77   2
   1  -7 -12 793.413 602.253   5
  -1   7  12 2302.07 621.014   2
   1  -7 -11 20178.0 2104.41   5
  -1   7  11 21545.9 1861.65   2
   1  -7 -10 436.419 371.541   5
   1  -7  -9 28047.8 2202.60   5
   1  -7  -8 17761.0 1651.70   5
   1  -7  -7 4666.09 782.272   5
   1  -7  -6 371.341 233.744   5
  -1   7   6 1339.99 309.721   4
  -1   7   5 15922.7 1129.41   3
   1  -7  -5 14540.6 1233.14   5
   1  -7  -4 10011.0 977.890   5
  -1   7   4 8930.88 988.789   2
  -1   7   4 11087.9 975.493   3
   1  -7  -3 3686.29 589.781   5
  -1   7   3 3391.57 509.312   5
  -1   7   3 3331.45 346.804   4
  -1   7   3 2958.14 583.862   2
   1  -7  -3 2886.85 606.866   3
  -1   7   2 8088.91 908.591   2
  -1   7   2 8994.71 513.558   4
   1  -7  -2 8250.25 1031.64   3
  -1   7   2 9976.13 866.580   5
   1  -7  -2 8299.64 870.286   5
  -1   7   1 8406.24 431.520   4
   1  -7  -1 8075.69 844.607   5
   1  -7  -1 8165.58 1025.89   3
  -1   7   1 8174.44 757.352   5
  -1   7   1 7310.81 856.744   2
  -1   7   0 24577.1 880.266   4
   1  -7   0 22221.9 1754.57   3
  -1   7   0 28182.0 1503.15   5
   1  -7   0 26433.0 1546.86   5
  -1   7   0 23259.4 1564.77   2
  -1   7  -1 30821.6 1643.47   5
  -1   7  -1 28657.0 1717.08   2
   1  -7   1 26755.6 1909.89   3
  -1   7  -1 28428.4 994.738   4
  -1   7  -2 4234.31 363.925   4
  -1   7  -2 4387.88 644.099   2
   1  -7   2 3935.42 795.531   3
  -1   7  -2 4591.84 663.249   5
  -1   7  -3 44259.2 1599.05   4
  -1   7  -3 48863.5 2562.96   5
   1  -7   3 38769.3 2404.03   3
  -1   7  -3 53053.0 2388.80   2
   1  -7   4 34655.5 2197.19   3
  -1   7  -4 35507.0 2291.97   5
  -1   7  -4 37360.3 1983.16   2
  -1   7  -4 34018.1 1467.66   4
  -1   7  -5 33311.0 1960.12   2
  -1   7  -5 33209.9 1559.70   4
  -1   7  -5 33967.4 2306.59   5
  -1   7  -6 8790.99 809.447   4
  -1   7  -6 8480.49 1043.72   1
   1  -7   6 8783.39 925.065   4
  -1   7  -6 8685.38 918.348   2
  -1   7  -7 17850.8 1592.36   1
  -1   7  -7 17887.8 1260.49   4
  -1   7  -8 372.583 336.201   1
  -1   7  -8 61.7210 274.053   4
  -1   7  -9 4468.80 929.001   1
  -1   7  -9 3751.28 662.726   4
  -1   7 -10 185.087 258.626   4
  -1   7 -10-100.062 332.504   1
  -1   7 -11 355.740 326.094   4
  -1   7 -11 445.224 479.018   1
  -1   7 -12 660.898 516.081   1
  -1   7 -12 1546.63 504.139   4
  -1   7 -13 7952.48 1193.41   4
  -1   7 -14 5163.20 1006.27   4
   1  -6 -15 1793.85 877.763   5
  -1   6  14 5175.11 922.690   2
   1  -6 -14 4539.71 1165.15   5
  -1   6  13 14611.5 1521.72   2
   1  -6 -13 16230.2 2123.61   5
   1  -6 -12 2177.58 869.921   5
   1  -6 -11 7910.38 1313.51   5
   1  -6 -10 1565.14 628.167   5
   1  -6  -9 76525.0 3863.00   5
   1  -6  -8 1399.55 525.389   5
   1  -6  -7 36985.0 2247.78   5
   1  -6  -6 15620.3 1367.33   5
  -1   6   6 15615.0 1068.54   4
  -1   6   6 15882.0 1021.53   3
  -1   6   5 4363.26 518.817   4
   1  -6  -5 3572.09 605.657   5
  -1   6   5 3916.28 518.708   3
  -1   6   4 5480.97 512.862   4
   1  -6  -4 5756.38 736.714   5
   1  -6  -3 27542.9 1680.59   3
   1  -6  -3 30419.9 1668.06   5
  -1   6   3 27803.5 1158.98   4
  -1   6   3 30352.2 1614.61   5
   1  -6  -2 76526.9 2840.57   5
  -1   6   2 70135.0 2021.25   4
   1  -6  -2 68189.1 2916.21   3
  -1   6   2 73624.0 2681.40   5
  -1   6   1 6466.17 735.359   2
   1  -6  -1 5930.24 778.548   3
  -1   6   1 6525.30 679.298   5
   1  -6  -1 6063.84 716.000   5
  -1   6   1 7468.68 813.930   3
   1  -6   0 50504.5 2276.59   5
  -1   6   0 48291.8 1546.27   4
   1  -6   0 46036.0 2362.89   3
  -1   6   0 46600.2 2178.76   2
  -1   6   0 51447.9 2147.59   5
   1  -6   1-95.4623 183.813   3
  -1   6  -1 93.4337 98.2158   4
  -1   6  -1-4.02707 150.401   2
  -1   6  -1 190.962 229.666   5
  -1   6  -2 258.068 207.872   5
  -1   6  -2 1105.88 207.001   4
   1  -6   2 796.914 351.837   3
  -1   6  -2 563.815 251.586   2
  -1   6  -3 1227.45 240.821   4
  -1   6  -3 1013.43 365.078   5
  -1   6  -3 1457.38 349.929   2
   1  -6   3 1183.37 378.593   3
   1  -6   4 56041.9 2335.80   4
  -1   6  -4 56476.6 2396.45   2
  -1   6  -4 54127.5 2010.75   4
  -1   6  -4 56874.7 2934.20   5
  -1   6  -5 4574.20 704.385   1
  -1   6  -5 4827.18 668.842   2
  -1   6  -5 4701.25 784.291   5
  -1   6  -5 4353.33 557.537   4
  -1   6  -6 60212.8 2388.00   2
  -1   6  -6 64795.7 2544.31   4
  -1   6  -6 62551.1 2880.50   1
  -1   6  -7 111372. 4339.56   1
  -1   6  -7 116879. 3957.90   4
  -1   6  -8 20709.4 1713.42   1
  -1   6  -8 20754.9 1500.25   4
  -1   6  -9 16108.1 1561.90   1
  -1   6  -9 15330.5 1351.59   4
  -1   6 -10 3473.98 679.218   4
  -1   6 -10 3904.03 840.888   1
  -1   6 -11 113074. 5039.22   1
  -1   6 -11 121435. 4812.32   4
  -1   6 -12 1567.92 563.902   4
  -1   6 -12 783.456 446.127   1
  -1   6 -13 16903.6 1763.59   4
  -1   6 -14 1631.33 655.017   4
  -1   6 -15 11846.5 1621.82   4
   1  -5 -15-339.725 526.097   5
   1  -5 -14 1055.98 762.522   5
   1  -5 -13 1058.15 590.138   5
   1  -5 -12 9756.04 1577.85   5
   1  -5 -11 1921.07 687.027   5
   1  -5 -10 7261.07 1208.77   5
   1  -5  -9 5365.29 983.907   5
   1  -5  -8-3.73521 280.583   5
   1  -5  -7 67474.4 3209.25   5
   1  -5  -6 15741.0 1336.47   5
  -1   5   6 16163.7 1093.59   4
  -1   5   6 14747.0 883.622   3
  -1   5   5 23696.8 1246.93   4
   1  -5  -5 21131.8 1519.41   5
  -1   5   5 23683.1 1200.02   3
  -1   5   4 6112.46 556.090   4
   1  -5  -4 5422.03 692.334   5
  -1   5   4 6701.72 637.393   3
  -1   5   3 186571. 5320.04   5
  -1   5   3 178793. 4589.17   4
   1  -5  -3 181281. 5304.83   5
  -1   5   2 1408.98 314.651   5
  -1   5   2 1634.07 235.632   4
   1  -5  -2 1343.49 337.375   5
   1  -5  -2 1754.36 410.585   3
  -1   5   2 1804.29 352.211   3
   1  -5  -1 59216.5 2465.30   3
   1  -5  -1 61425.6 2469.71   5
  -1   5   1 63485.0 2381.14   5
  -1   5   0 150358. 4318.94   5
   1  -5   0 136422. 4376.20   3
  -1   5   0 141523. 4192.13   2
   1  -5   0 143996. 4537.43   5
   1  -5   1 132437. 4209.39   3
   1  -5   1 140432. 4315.26   5
  -1   5  -1 132885. 4139.75   5
  -1   5  -1 129982. 3943.53   2
  -1   5  -1 125083. 3361.87   4
   1  -5   2 7371.58 794.696   3
  -1   5  -2 7525.69 723.234   2
  -1   5  -2 7959.02 925.255   5
  -1   5  -2 6854.14 528.850   4
  -1   5  -3 51754.4 1873.76   4
   1  -5   3 52264.4 2354.33   3
  -1   5  -3 57108.3 2216.83   2
  -1   5  -3 53497.6 2756.82   5
  -1   5  -4 107223. 3182.59   4
   1  -5   4 100481. 3378.97   4
  -1   5  -4 93862.8 3234.13   2
  -1   5  -4 110699. 3738.05   3
  -1   5  -4 99212.8 3950.68   5
  -1   5  -5 1100.35 295.389   2
  -1   5  -5 1260.31 323.427   4
  -1   5  -5 1691.09 433.769   1
  -1   5  -6 1697.73 376.408   4
  -1   5  -6 1280.50 402.012   1
  -1   5  -7 574.037 314.581   1
  -1   5  -7 303.159 233.407   4
  -1   5  -8 20327.4 1546.31   4
  -1   5  -8 19898.0 1596.87   1
  -1   5  -9 7994.12 1007.56   4
  -1   5  -9 6888.39 968.519   1
  -1   5 -10 2343.25 641.342   1
  -1   5 -10 4079.83 787.478   4
  -1   5 -11 10638.8 1339.10   1
  -1   5 -11 11767.6 1384.64   4
  -1   5 -12 5511.58 997.569   4
  -1   5 -13 18078.9 1896.45   4
  -1   5 -14 2323.95 773.981   4
  -1   5 -15 13842.6 1838.70   4
   1  -4 -15 7622.84 1599.49   5
   1  -4 -14 1985.78 854.384   5
   1  -4 -13 22656.9 2540.83   5
   1  -4 -12 40041.9 3283.95   5
   1  -4 -11 9250.31 1465.79   5
   1  -4 -10 55050.3 3483.12   5
  -1   4  10 57804.6 2399.00   1
   1  -4  -9 9470.76 1290.42   5
  -1   4   9 10045.5 879.309   1
   1  -4  -8 67041.6 3446.09   5
   1  -4  -7 3135.91 651.162   5
   1  -4  -6 45794.7 2408.04   5
  -1   4   6 45835.6 1986.58   4
  -1   4   6 41835.2 1460.85   3
   1  -4  -5 16218.2 1293.19   5
  -1   4   5 17196.1 1052.82   4
  -1   4   5 17024.5 883.584   3
   1  -4  -4 24703.9 1513.27   5
  -1   4   4 26507.4 1256.66   4
  -1   4   4 27515.6 1241.71   3
  -1   4   3 864.365 198.539   4
   1  -4  -3 985.989 299.886   5
  -1   4   3 1000.41 293.750   5
  -1   4   3 953.065 228.645   3
  -1   4   2 52143.0 2115.24   5
  -1   4   2 55722.4 1964.23   3
  -1   4   1 6606.92 653.906   5
   1  -4  -1 5477.97 616.209   5
  -1   4   0 14084.3 999.047   5
   1  -4   0 14996.0 1137.03   5
   1  -4   1 106310. 3636.41   5
  -1   4  -1 103257. 3462.31   5
  -1   4  -1 98299.9 2818.60   4
  -1   4  -2 3691.35 455.175   2
  -1   4  -2 3547.64 396.425   4
  -1   4  -2 3674.50 631.003   5
  -1   4  -3 6156.34 564.353   4
   1  -4   3 6062.61 644.396   4
  -1   4  -3 6408.22 850.578   5
  -1   4  -3 6348.49 586.580   2
  -1   4  -4 97310.2 3726.38   5
   1  -4   4 97937.6 3307.09   4
  -1   4  -4 94444.0 2979.22   2
  -1   4  -4 103562. 3168.14   4
  -1   4  -4 105353. 3370.40   3
  -1   4  -5 34290.2 1672.00   4
  -1   4  -5 32659.8 1716.82   3
   1  -4   5 35973.2 1847.94   4
  -1   4  -5 33197.6 1326.26   2
  -1   4  -6 55065.6 2408.93   3
  -1   4  -6 55337.4 2397.28   4
  -1   4  -7 20534.6 1447.54   3
  -1   4  -7 20378.9 1500.06   1
  -1   4  -7 23291.3 1556.12   4
  -1   4  -8 86739.4 3482.50   3
  -1   4  -8 87205.5 3545.02   1
  -1   4  -8 94988.8 3743.74   4
  -1   4  -9 693.670 396.406   4
  -1   4  -9 211.284 255.842   1
  -1   4 -10 8604.00 1090.02   1
  -1   4 -10 8600.72 1170.16   4
  -1   4 -11 2734.76 707.719   4
  -1   4 -12 12277.8 1505.94   4
  -1   4 -13 48.2989 497.997   4
  -1   4 -14-108.617 402.734   4
  -1   4 -15 658.831 565.784   4
   1  -3 -15 11308.8 2031.01   5
   1  -3 -14 7369.62 1609.27   5
   1  -3 -13 1719.91 817.634   5
   1  -3 -12 1444.68 703.252   5
   1  -3 -11 8770.10 1427.08   5
   1  -3 -10 27700.5 2435.61   5
  -1   3  10 26983.0 1497.14   1
  -1   3   9 1680.69 351.114   1
   1  -3  -9 1043.01 368.882   5
   1  -3  -8 15084.7 1563.79   5
  -1   3   8 12884.5 912.225   1
   1  -3  -7 7167.20 1029.96   5
  -1   3   7 6866.91 616.852   1
  -1   3   6 188126. 5161.07   4
  -1   3   6 174580. 4030.87   3
   1  -3  -6 187188. 5900.62   5
   1  -3  -5 15192.7 1258.25   5
  -1   3   5 14928.1 697.400   3
  -1   3   5 14795.3 988.917   4
  -1   3   4 104317. 2742.56   3
  -1   3   4 96259.8 3005.94   4
   1  -3  -4 97931.8 3483.43   5
   1  -3  -3 2812.20 461.257   5
  -1   3   3 2707.76 339.605   4
  -1   3   3 3655.71 511.290   5
  -1   3   3 2888.09 314.524   3
   1  -3  -2 4711.40 581.964   5
  -1   3   2 5660.56 602.912   5
  -1   3   2 5191.47 435.601   3
  -1   3   1 119481. 3585.43   5
   1  -3  -1 115768. 3602.34   5
  -1   3   1 125318. 3270.28   3
  -1   3   0 55834.3 2135.91   5
   1  -3   0 58943.3 2284.88   5
  -1   3  -1 94085.4 2794.33   4
   1  -3   1 101352. 3532.51   5
  -1   3  -2 62689.8 2128.89   4
  -1   3  -2 64062.1 1983.25   2
  -1   3  -2 68834.5 2978.19   5
   1  -3   3 4600.86 538.685   4
  -1   3  -3 3917.49 614.325   5
  -1   3  -3 4231.21 472.801   4
  -1   3  -3 4292.43 408.052   2
  -1   3  -4 4606.56 548.770   4
  -1   3  -4 4234.69 489.472   3
   1  -3   4 4482.59 575.275   4
  -1   3  -4 3686.78 351.758   2
   1  -3   5 12774.8 1058.42   4
  -1   3  -5 13742.9 945.954   3
  -1   3  -5 13580.5 1013.40   4
  -1   3  -6 36602.0 1729.94   3
  -1   3  -6 39642.3 1978.86   4
  -1   3  -7 27671.6 1670.23   1
   1  -3   7 28727.4 1854.29   4
  -1   3  -7 29508.3 1812.41   4
  -1   3  -7 30945.6 1620.88   3
  -1   3  -8 42970.9 2367.25   4
  -1   3  -8 39686.5 2137.93   1
  -1   3  -8 39401.8 1992.31   3
  -1   3  -9 79435.0 3223.21   3
  -1   3  -9 87261.0 3772.68   4
  -1   3 -10 25078.7 1743.54   3
  -1   3 -10 28702.1 2135.06   4
  -1   3 -11 4899.56 934.331   4
  -1   3 -12 33519.3 2575.46   4
  -1   3 -13 32175.2 2675.70   4
  -1   3 -14 41655.5 3173.01   4
  -1   3 -15 9546.73 1576.39   4
   1  -2 -15 9814.24 1931.29   5
   1  -2 -14 11760.0 2002.81   5
   1  -2 -13 19185.5 2457.47   5
   1  -2 -12 5385.52 1260.30   5
   1  -2 -11 44503.0 3367.42   5
   1  -2 -10 10368.2 1500.89   5
   1  -2 -10 12121.2 1378.53   4
  -1   2   9 1386.44 317.548   1
   1  -2  -9 1521.03 487.076   4
   1  -2  -9 1225.99 505.247   5
   1  -2  -8 15953.6 1644.58   5
   1  -2  -8 16748.8 1415.56   4
  -1   2   8 15022.3 955.386   1
  -1   2   7 2080.88 314.034   1
   1  -2  -7 2944.82 662.569   5
   1  -2  -7 1993.78 487.278   4
  -1   2   6 1494.89 327.577   4
  -1   2   6 1663.95 256.606   1
   1  -2  -6 1912.03 516.571   5
   1  -2  -5 99894.3 3703.70   5
  -1   2   5 91099.4 3077.53   4
  -1   2   5 97816.8 2293.10   3
  -1   2   5 96240.1 2611.07   1
  -1   2   4 21031.1 1127.87   4
  -1   2   4 23155.0 777.413   3
   1  -2  -4 22783.2 1429.69   5
   1  -2  -3 4468.04 561.033   5
  -1   2   3 5217.62 602.747   5
  -1   2   3 4626.47 319.757   3
  -1   2   3 3804.71 410.964   4
   1  -2  -2 165539. 4584.92   5
   1  -2  -1 137822. 3897.15   5
   1  -2   0 163202. 4456.98   5
  -1   2  -1 10802.9 568.481   1
   1  -2   1 10983.7 988.261   5
  -1   2  -2 188993. 4877.06   4
  -1   2  -3 12816.3 857.249   4
  -1   2  -3 13090.3 571.848   2
   1  -2   4 65727.0 2207.11   1
  -1   2  -4 67492.1 2164.51   3
  -1   2  -4 62913.9 2376.41   4
  -1   2  -5 96501.0 3307.77   4
  -1   2  -5 98477.4 2917.31   3
   1  -2   5 96007.2 3043.10   1
   1  -2   6 172411. 4885.07   1
  -1   2  -6 173304. 4652.54   3
  -1   2  -6 177420. 5275.40   4
   1  -2   7 16289.4 1363.83   4
  -1   2  -7 17000.0 1046.59   3
   1  -2   7 16080.2 1135.21   1
  -1   2  -7 17505.6 1389.88   4
  -1   2  -8 820.434 246.971   3
  -1   2  -8 719.950 372.154   4
  -1   2  -9 7994.42 798.831   3
  -1   2  -9 9026.02 1137.39   4
  -1   2 -10 15391.4 1574.65   4
  -1   2 -10 12840.9 1101.71   3
  -1   2 -11 7172.01 1140.49   4
  -1   2 -11 6441.70 802.837   3
  -1   2 -12 4947.54 1016.88   4
  -1   2 -13 16.2479 484.524   4
  -1   2 -14 12811.8 1753.72   4
  -1   2 -15 4473.83 1155.45   4
   1  -1 -15-902.703 743.173   5
   1  -1 -14 13605.3 2252.39   5
   1  -1 -13 10203.5 1855.32   5
   1  -1 -12 21694.0 2530.06   5
   1  -1 -12 27626.0 2388.07   4
   1  -1 -11 2126.33 814.190   5
   1  -1 -11 1240.28 537.020   4
   1  -1 -10 73966.5 3686.98   4
   1  -1 -10 63869.0 4061.59   5
   1  -1  -9 66204.4 3248.63   4
   1  -1  -9 58273.2 3607.45   5
   1  -1  -8 1634.27 487.563   4
   1  -1  -8 2026.37 622.623   5
   1  -1  -7 110536. 4621.69   5
   1  -1  -7 115381. 4101.72   4
   1  -1  -6 31653.1 2083.77   5
   1  -1  -6 33094.1 1800.98   4
  -1   1   5 138935. 3495.53   1
   1  -1  -5 143818. 4766.44   5
   1  -1  -5 143521. 4245.57   4
  -1   1   4 641.485 125.304   1
   1  -1  -4 254.890 182.272   5
   1  -1  -3 88310.9 3037.71   5
   1  -1  -2 9849.96 750.726   5
   1  -1  -1 1849.92 305.762   5
   1  -1   0 1552.53 283.286   5
   1  -1   0 1698.07 147.828   1
   1  -1   1 122861. 2942.86   1
   1  -1   1 115400. 3809.40   5
  -1   1  -2 28597.3 1303.40   4
   1  -1   2 28402.7 1057.31   1
   1  -1   3 7174.81 545.755   1
  -1   1  -3 7220.23 632.911   4
  -1   1  -4 31076.9 1532.89   4
   1  -1   4 34336.1 1411.24   1
   1  -1   5 356.484 204.313   1
  -1   1  -5 425.875 240.228   4
   1  -1   6 38199.0 1721.31   1
  -1   1  -6 36251.1 1944.75   4
   1  -1   7 62461.6 2421.55   1
   1  -1   7 54891.6 1468.64   2
  -1   1  -7 60962.9 2011.36   3
  -1   1  -7 57432.3 2708.25   4
  -1   1  -8 8931.33 1059.80   4
   1  -1   8 8667.04 448.267   2
  -1   1  -8 8758.84 693.125   3
   1  -1   9 54107.7 1604.36   2
  -1   1  -9 58302.5 2164.02   3
  -1   1  -9 54300.2 2962.24   4
   1  -1  10 38838.7 1250.74   2
  -1   1 -10 35717.9 2472.67   4
   1  -1  11 50088.5 1544.00   2
  -1   1 -11 44199.5 2108.61   3
  -1   1 -11 48688.0 3088.35   4
  -1   1 -12 768.584 502.234   4
  -1   1 -13 10487.7 1577.81   4
  -1   1 -14 306.780 487.249   4
  -1   1 -15 5091.39 1241.28   4
  -1   1 -16-264.980 472.564   4
   1   0 -15 2405.84 1175.72   5
   1   0 -14 197.392 630.382   5
   1   0 -13 9379.67 1811.69   5
   1   0 -12 11242.8 1544.25   4
   1   0 -12 12148.7 1927.05   5
   1   0 -11 3573.24 1027.78   5
   1   0 -11 1149.07 529.622   4
   1   0 -10 599.151 364.601   4
   1   0  -9 20234.9 1720.34   4
   1   0  -8 34312.2 2142.43   4
   1   0  -7 52260.3 2532.22   4
   1   0  -6 1085.47 333.986   4
  -1   0   6 1622.10 174.059   3
   1   0  -5 17654.3 862.933   1
   1   0  -5 17623.6 1405.83   5
   1   0  -5 17770.8 1160.63   4
  -1   0   5 16841.2 684.248   3
   1   0  -4 66247.0 1880.65   1
   1   0  -4 66776.3 2739.28   5
   1   0  -3 427038. 9206.90   1
   1   0  -3 423377. 10257.0   5
   1   0  -2 13158.4 868.179   5
   1   0  -1 95999.2 2778.66   5
   1   0   0 11527.6 697.855   5
   1   0   1 115263. 3525.55   5
  -1   0  -2 19523.9 635.978   2
  -1   0  -2 19339.6 1042.37   4
  -1   0  -3 15541.5 605.734   2
  -1   0  -3 14171.6 909.225   4
  -1   0  -4 201202. 5521.30   4
   1   0   4 209573. 4619.70   2
   1   0   5 1872.96 330.235   1
  -1   0  -5 1805.40 376.418   4
   1   0   5 2123.11 219.732   2
   1   0   6 32070.4 1157.10   2
   1   0   6 35904.3 1672.62   1
  -1   0  -6 33504.4 1827.23   4
   1   0   7 336.203 134.551   2
  -1   0  -7 219.115 185.892   4
   1   0   7 285.392 161.143   1
  -1   0  -8 4508.70 764.573   4
   1   0   8 4012.86 391.544   2
  -1   0  -8 3711.63 390.769   3
   1   0   9 5638.98 496.189   2
  -1   0  -9 4673.63 823.705   4
  -1   0  -9 5949.65 528.589   3
   1   0  10 57491.8 1960.44   2
  -1   0 -10 51041.3 1973.08   3
  -1   0 -10 58942.3 3222.99   4
   1   0  11 348.871 160.508   2
  -1   0 -11 450.192 182.321   3
  -1   0 -11 191.963 404.949   4
   1   0  12 14478.8 897.094   2
  -1   0 -12 13273.1 1629.80   4
  -1   0 -13 64437.4 3938.51   4
  -1   0 -14 22182.4 2343.08   4
  -1   0 -15 3505.35 1050.46   4
  -1   0 -16 4253.01 1168.47   4
   1   1 -15 6573.59 1570.76   5
   1   1 -14 24605.1 3107.97   5
   1   1 -13 38146.5 2990.69   4
   1   1 -13 39930.7 3770.66   5
   1   1 -12 1291.20 619.861   4
   1   1 -11 12216.6 1497.54   4
   1   1 -10 98601.2 4398.63   4
   1   1  -9 927.708 445.782   4
  -1  -1   8 18421.6 778.870   3
   1   1  -8 16740.1 1461.54   4
  -1  -1   7 1180.72 212.381   3
   1   1  -7 926.527 394.106   4
  -1  -1   6 94096.7 2622.53   3
   1   1  -6 87808.5 3297.49   4
   1   1  -6 89408.3 2826.30   1
   1   1  -5 10536.5 693.284   1
   1   1  -5 10890.8 892.032   4
  -1  -1   5 9314.96 613.572   3
  -1  -1   4 441.565 135.676   3
   1   1  -3 57970.6 2315.13   5
  -1  -1   3 58698.2 1782.72   3
   1   1  -2 10663.7 769.088   5
   1   1  -1 54019.8 1784.87   5
   1   1   0 15383.4 758.288   5
   1   1   1 28394.9 1291.79   5
  -1  -1  -1 30080.1 1026.11   2
  -1  -1  -2 17584.1 974.078   4
  -1  -1  -2 18587.6 819.704   2
  -1  -1  -3 337264. 8190.23   4
  -1  -1  -3 333867. 7899.22   2
   1   1   3 357550. 7793.23   2
  -1  -1  -4 18487.0 1118.07   4
   1   1   4 19642.6 907.843   2
  -1  -1  -5 33340.8 1691.38   4
   1   1   5 34874.3 1366.69   2
   1   1   6 57162.6 1983.13   2
  -1  -1  -6 58426.6 2513.24   4
   1   1   7 85766.7 3319.50   4
  -1  -1  -7 84336.7 3372.23   4
   1   1   7 79491.9 2570.52   2
   1   1   8 22744.8 1173.98   2
  -1  -1  -8 22980.6 1716.49   4
   1   1   8 23499.4 1518.30   1
   1   1   9 49529.2 1937.98   2
  -1  -1  -9 48384.3 2761.37   4
  -1  -1 -10 33426.2 1296.10   3
   1   1  10 34135.7 1588.47   2
  -1  -1 -10 33861.9 2376.50   4
  -1  -1 -11 5503.51 984.226   4
   1   1  11 4925.04 580.979   2
  -1  -1 -11 4633.05 420.348   3
   1   1  12 225.281 161.617   2
  -1  -1 -12 616.765 477.669   4
  -1  -1 -13 878.386 551.499   4
  -1  -1 -14 2449.03 798.590   4
  -1  -1 -15 4966.14 1190.09   4
  -1  -1 -16 470.172 580.109   4
   1   2 -15 2370.32 1117.16   5
   1   2 -14 1720.57 856.397   5
   1   2 -12-113.656 361.359   4
   1   2 -11 10495.9 1363.00   4
   1   2 -10 6339.39 1026.12   4
   1   2  -9 63577.3 2708.54   1
   1   2  -9 64339.8 3202.37   4
   1   2  -8 198.888 193.341   1
   1   2  -8 239.032 290.386   4
  -1  -2   8 404.670 159.832   3
  -1  -2   7 97362.8 2963.67   3
   1   2  -7 97887.0 3675.77   4
  -1  -2   6 51279.7 1991.00   3
   1   2  -6 55112.3 2385.16   4
  -1  -2   6 54909.4 2332.81   4
  -1  -2   5 16670.8 1000.87   3
   1   2  -5 17757.9 1147.11   4
  -1  -2   4 132665. 3769.79   4
  -1  -2   4 130211. 3665.01   3
  -1  -2   3 15875.0 872.205   4
  -1  -2   3 15221.5 873.893   3
   1   2  -2 239835. 6088.23   5
  -1  -2   2 241639. 5714.21   4
  -1  -2   2 246600. 5902.17   3
  -1  -2   1 35014.7 1264.73   2
   1   2  -1 32727.9 1263.26   5
   1   2   0 52142.4 1566.88   5
  -1  -2   0 52842.4 1511.82   5
  -1  -2   0 51035.0 1708.33   2
  -1  -2  -1 18909.9 931.475   2
  -1  -2  -1 20164.6 791.969   5
   1   2   1 19994.0 910.907   5
   1   2   2 12897.1 787.089   4
  -1  -2  -2 11517.9 692.287   5
  -1  -2  -2 12303.2 749.056   4
  -1  -2  -2 12224.7 789.572   2
  -1  -2  -3 9521.35 748.280   2
   1   2   3 8999.10 672.109   4
  -1  -2  -3 9319.33 678.580   4
   1   2   3 8886.93 678.893   2
   1   2   4 567.339 190.947   2
   1   2   4 842.499 239.555   4
  -1  -2  -4 831.728 247.209   4
  -1  -2  -5 5896.90 653.003   4
   1   2   5 4516.03 568.691   4
   1   2   5 5813.89 587.113   2
   1   2   6 2065.71 374.844   2
  -1  -2  -6 1748.76 402.834   4
   1   2   6 1489.86 377.985   4
   1   2   7 117511. 3997.44   4
  -1  -2  -7 113504. 4058.75   4
   1   2   7 109522. 3510.45   2
   1   2   8 529.592 215.430   2
  -1  -2  -8 848.117 374.835   4
   1   2   9 12455.9 982.810   2
  -1  -2  -9 14248.1 1397.89   4
  -1  -2 -10 28382.2 2126.34   4
  -1  -2 -11 18978.7 1810.28   4
  -1  -2 -12 32464.4 2530.02   4
  -1  -2 -13 19839.7 2055.81   4
  -1  -2 -14 37024.3 2964.61   4
  -1  -2 -15 1620.01 716.114   4
  -1  -2 -16 2427.06 825.973   4
   1   3 -14 38983.6 4061.37   5
   1   3 -12 9123.35 1341.30   4
   1   3 -11 270.196 334.413   4
   1   3 -11 366.624 298.778   1
   1   3 -10 17860.5 1469.73   1
   1   3 -10 18461.6 1667.17   4
  -1  -3   9 40910.7 1772.71   3
   1   3  -9 40935.7 2178.45   1
   1   3  -9 42862.0 2471.63   4
  -1  -3   8 406.597 228.466   3
   1   3  -8 498.394 290.039   4
   1   3  -8 329.431 258.629   1
   1   3  -7 263.792 194.160   1
  -1  -3   7 254.200 187.326   3
  -1  -3   6 25685.9 1449.49   3
   1   3  -6 27170.6 1560.18   4
  -1  -3   6 26673.9 1550.76   4
  -1  -3   5 34854.7 1717.03   3
   1   3  -5 36007.0 1680.66   4
  -1  -3   4 80389.2 2504.70   2
  -1  -3   4 76424.5 2732.33   3
  -1  -3   4 76355.3 2578.52   4
  -1  -3   3 4674.42 460.671   4
  -1  -3   3 4539.42 536.282   3
  -1  -3   3 4531.15 464.029   2
  -1  -3   2 50238.1 1634.45   4
   1   3  -2 48153.1 1863.61   5
  -1  -3   2 49883.4 1963.47   3
  -1  -3   2 53541.1 1866.56   2
  -1  -3   1 64701.6 2237.86   3
   1   3  -1 62273.2 1915.19   5
  -1  -3   1 61711.1 2098.91   2
   1   3   0 272441. 6068.65   5
  -1  -3   0 274132. 6686.69   2
  -1  -3   0 270307. 6678.94   3
  -1  -3  -1 41454.7 1742.13   2
  -1  -3  -1 43198.7 1690.17   3
  -1  -3  -2 138605. 4265.82   2
  -1  -3  -2 146582. 3791.24   4
  -1  -3  -3 68.5559 113.380   2
   1   3   3-12.2900 108.224   4
  -1  -3  -3 46.2244 105.622   4
  -1  -3  -4 57738.8 2078.13   4
   1   3   4 57550.7 2104.09   4
   1   3   4 56431.9 2294.17   2
   1   3   5 53990.4 2143.66   4
   1   3   5 53740.8 2217.19   2
  -1  -3  -5 51159.9 2115.78   4
   1   3   6 53848.4 2274.11   4
  -1  -3  -6 52500.2 2301.29   4
   1   3   6 52754.7 2250.90   2
   1   3   7 61615.5 2626.19   4
  -1  -3  -7 59174.3 2660.30   4
  -1  -3  -8 7091.73 570.881   3
  -1  -3  -8 9098.34 1015.04   4
  -1  -3  -9 564.237 165.420   3
  -1  -3  -9 922.708 422.303   4
   1   3  10 23338.3 1497.06   2
  -1  -3 -10 19025.3 896.816   3
  -1  -3 -10 24996.1 1914.01   4
   1   3  11 1761.87 434.768   2
  -1  -3 -11 2606.86 721.210   4
  -1  -3 -12 26612.9 2235.89   4
   1   3  12 27821.1 1731.61   2
  -1  -3 -13 3194.05 872.181   4
   1   3  13 4675.55 690.980   2
  -1  -3 -14 10651.6 1534.59   4
  -1  -3 -15 17794.8 2083.84   4
  -1  -3 -16 6951.14 1369.77   4
   1   4 -14 4808.81 1598.74   5
   1   4 -12 37676.4 2548.59   1
   1   4 -11 3894.17 788.297   1
   1   4 -11 2690.74 697.264   4
   1   4 -10 14073.6 1412.87   4
  -1  -4  10 15303.2 1120.08   3
   1   4 -10 14169.7 1377.56   1
   1   4  -9 45196.1 2432.69   1
   1   4  -9 47023.8 2556.18   4
  -1  -4   9 47544.0 2135.85   3
  -1  -4   9 44902.8 1984.76   2
  -1  -4   8 93642.7 3355.60   3
   1   4  -8 90584.9 3533.21   1
   1   4  -8 95213.7 3647.40   4
  -1  -4   8 89147.7 3058.11   2
  -1  -4   7 21033.5 1240.52   2
   1   4  -7 22791.8 1499.40   1
  -1  -4   7 21756.1 1430.94   3
   1   4  -7 24091.9 1532.12   4
  -1  -4   6 16918.6 1208.60   4
  -1  -4   6 15717.6 1218.82   3
   1   4  -6 16445.5 1149.24   4
  -1  -4   6 15461.9 1033.57   2
   1   4  -5 116554. 4159.63   3
  -1  -4   5 112268. 3508.12   2
  -1  -4   5 117112. 3953.05   3
   1   4  -4 13074.6 1158.24   3
  -1  -4   4 12127.6 1035.39   3
  -1  -4   4 13430.4 931.073   2
  -1  -4   4 12731.3 878.709   4
  -1  -4   3 23570.2 1255.79   2
   1   4  -3 24778.2 1575.63   3
  -1  -4   3 23732.3 1127.13   4
  -1  -4   3 23333.1 1421.13   3
  -1  -4   2 11129.2 923.849   3
  -1  -4   2 11339.3 652.054   4
  -1  -4   2 10015.1 793.377   2
   1   4  -1 197.511 121.028   5
  -1  -4   1 138.704 80.6085   4
  -1  -4   1 163.257 106.880   2
  -1  -4   1 120.654 172.275   3
  -1  -4   0 5670.74 640.749   2
  -1  -4   0 7037.09 701.162   3
  -1  -4  -1 31059.5 1079.21   4
  -1  -4  -1 29528.2 1593.57   2
  -1  -4  -1 31813.9 1554.07   3
  -1  -4  -2 133.911 84.9713   4
  -1  -4  -2 91.7173 143.485   2
  -1  -4  -3 359.843 200.744   3
   1   4   3 147.483 96.7391   4
  -1  -4  -3 238.766 125.722   4
  -1  -4  -3 158.340 150.725   2
  -1  -4  -4 66656.1 2215.12   4
   1   4   4 64081.5 2213.23   4
  -1  -4  -4 64128.6 2349.10   3
   1   4   5 60327.0 2261.07   4
  -1  -4  -5 58008.1 2205.31   3
  -1  -4  -5 63034.2 2311.45   4
   1   4   6 108554. 3524.15   4
  -1  -4  -6 110757. 3605.12   4
  -1  -4  -6 102051. 3237.18   3
  -1  -4  -7 170.061 150.744   3
  -1  -4  -7 82.4578 194.808   4
   1   4   7 402.783 168.205   4
   1   4   8 67910.5 2841.70   2
  -1  -4  -8 73203.4 3030.83   4
  -1  -4  -9 11.2134 115.453   3
  -1  -4  -9 480.793 252.267   4
   1   4   9 198.943 194.820   2
   1   4  10 33527.7 1951.81   2
  -1  -4 -10 29364.2 1356.59   3
  -1  -4 -10 30474.0 2098.46   4
  -1  -4 -11 28313.3 2096.97   4
   1   4  11 27660.6 1765.00   2
   1   4  12 49135.7 2517.88   2
  -1  -4 -12 45279.4 2891.23   4
   1   4  13 12847.8 1219.10   2
  -1  -4 -13 12474.6 1550.53   4
  -1  -4 -14 4131.68 942.935   4
  -1  -4 -15-689.317 592.842   4
  -1  -4 -16 7149.43 1399.14   4
  -1  -4 -16 6771.79 1609.11   5
   1   5 -14 3477.71 1223.16   5
   1   5 -13 4434.91 883.850   1
   1   5 -12 2518.23 713.292   1
   1   5 -11 3554.50 829.950   1
  -1  -5  10 1250.54 379.204   3
   1   5 -10 1326.29 562.018   1
  -1  -5   9 216.332 225.695   3
   1   5  -9 110.426 258.599   4
   1   5  -9 59.0485 310.322   1
   1   5  -8 7829.94 979.199   1
  -1  -5   8 7262.53 876.740   3
  -1  -5   8 7731.58 798.795   2
   1   5  -8 9774.78 990.219   4
  -1  -5   7 4935.05 714.436   3
  -1  -5   7 5215.58 655.148   2
  -1  -5   6 59919.9 2754.80   3
  -1  -5   6 56410.1 2357.98   2
  -1  -5   6 60160.3 2486.48   4
  -1  -5   5 3269.95 609.887   3
   1   5  -5 4261.80 731.415   3
  -1  -5   5 3099.62 494.763   2
  -1  -5   4 156190. 5002.65   3
  -1  -5   4 147585. 4449.82   2
   1   5  -4 152278. 5164.41   3
  -1  -5   4 146712. 4207.62   4
  -1  -5   3 41719.8 1921.24   2
   1   5  -3 42290.0 2278.51   3
  -1  -5   3 40189.9 2135.01   3
  -1  -5   3 39531.5 1571.44   4
  -1  -5   2 8459.07 903.949   3
   1   5  -2 8885.89 884.823   2
  -1  -5   2 8241.61 810.844   2
  -1  -5   2 8878.78 575.230   4
   1   5  -1 116557. 3054.74   5
  -1  -5   1 121835. 4056.24   3
  -1  -5   1 118129. 2948.91   4
   1   5  -1 125508. 4165.96   2
  -1  -5   1 127399. 3992.57   2
  -1  -5   0 40993.7 2013.27   2
  -1  -5   0 39960.6 1107.15   4
  -1  -5   0 41591.7 2030.45   3
  -1  -5  -1 171324. 5317.04   2
  -1  -5  -1 171531. 3897.74   4
  -1  -5  -1 178484. 5172.75   3
  -1  -5  -2 2144.23 218.688   4
  -1  -5  -2 2521.24 524.456   2
  -1  -5  -2 2323.56 445.184   3
  -1  -5  -3 90688.9 3534.32   2
  -1  -5  -3 84734.9 2198.42   5
  -1  -5  -3 81484.5 3036.18   3
  -1  -5  -3 86404.4 2402.56   4
  -1  -5  -4 1921.40 395.062   3
   1   5   4 2440.86 337.107   4
  -1  -5  -4 2764.07 362.960   4
   1   5   5 268.358 142.532   4
   1   5   5 279.773 226.774   2
  -1  -5  -5 277.374 155.095   4
  -1  -5  -5 182.661 193.554   3
   1   5   6 1324.27 354.692   2
  -1  -5  -6 597.282 255.455   3
  -1  -5  -6 530.610 241.387   4
   1   5   6 548.180 210.680   4
   1   5   7 28107.8 1556.88   4
   1   5   7 27717.3 1751.81   2
  -1  -5  -7 24635.9 1451.78   3
  -1  -5  -7 26745.0 1578.35   4
  -1  -5  -8 789.259 253.199   3
  -1  -5  -8 812.122 324.810   4
   1   5   8 876.693 380.689   2
  -1  -5  -9 658.430 271.006   3
  -1  -5  -9 542.529 263.739   4
   1   5   9 673.778 301.883   2
  -1  -5 -10 34711.5 2190.34   4
   1   5  10 35782.7 2127.48   2
  -1  -5 -10 32835.1 1646.16   3
  -1  -5 -11 6481.23 988.617   4
   1   5  11 6032.09 858.778   2
   1   5  12 21753.9 1671.08   2
  -1  -5 -12 20572.8 1859.12   4
  -1  -5 -13 4445.37 940.117   4
   1   5  13 4363.34 772.817   2
  -1  -5 -14 3058.97 791.631   4
  -1  -5 -14 4949.27 1165.67   5
  -1  -5 -15 26766.9 2801.31   5
  -1  -5 -15 22767.9 2237.56   4
  -1  -5 -16 8661.67 1460.15   4
  -1  -5 -16 12487.8 2008.41   5
   1   6 -14 3109.64 1160.50   5
   1   6 -13 19422.9 2075.64   1
   1   6 -12 834.538 550.021   1
   1   6 -11 60499.5 3465.43   1
  -1  -6  10 16397.5 1429.71   3
   1   6 -10 16558.9 1661.17   1
   1   6  -9 9576.01 1193.48   1
  -1  -6   9 8157.82 1017.38   3
  -1  -6   8 1148.00 400.204   3
   1   6  -8 1175.48 472.023   1
  -1  -6   7 28556.2 1935.64   3
  -1  -6   6 32173.1 1707.82   4
  -1  -6   6 31400.1 2040.26   3
  -1  -6   5 667.423 306.408   3
  -1  -6   4 1842.94 420.865   2
  -1  -6   4 2007.53 360.637   4
  -1  -6   4 1586.74 433.287   3
   1   6  -3 10332.1 1065.79   2
  -1  -6   3 10740.3 999.998   2
  -1  -6   3 12112.1 1196.55   3
  -1  -6   3 9094.15 660.363   4
  -1  -6   2 9541.64 1061.59   3
  -1  -6   2 10682.9 1011.69   2
  -1  -6   2 9849.09 601.646   4
   1   6  -2 9991.96 1087.01   2
  -1  -6   1 78210.9 3141.71   2
  -1  -6   1 75697.0 3253.17   3
   1   6  -1 72455.0 2030.66   5
   1   6  -1 78549.4 3268.07   2
  -1  -6   1 76181.3 1971.54   4
  -1  -6   0 22545.7 1606.82   3
  -1  -6   0 26017.4 1695.92   2
   1   6   0 21241.1 1558.09   2
  -1  -6  -1 446.574 256.700   3
  -1  -6  -2 27936.7 787.230   4
  -1  -6  -2 30519.1 1837.23   3
  -1  -6  -3 237572. 6756.03   3
  -1  -6  -3 232828. 5356.92   4
   1   6   4 5537.33 775.672   2
  -1  -6  -4 3977.46 644.050   3
   1   6   4 4485.14 440.089   4
  -1  -6  -4 4482.57 425.747   4
  -1  -6  -4 4575.83 386.954   5
  -1  -6  -5 37015.4 1532.86   5
   1   6   5 33611.7 1462.84   4
   1   6   5 37709.2 2126.73   2
  -1  -6  -5 33853.4 1916.97   3
  -1  -6  -5 35529.3 1504.83   4
  -1  -6  -6 3089.10 542.241   3
   1   6   6 2886.51 435.970   4
   1   6   6 2598.67 569.106   2
  -1  -6  -6 3383.54 504.899   5
  -1  -6  -6 3672.29 498.917   4
   1   6   7 76664.7 3272.91   2
   1   6   7 70282.2 2704.07   4
  -1  -6  -7 74850.5 2814.02   4
  -1  -6  -7 69582.4 2966.06   3
  -1  -6  -8 2471.14 489.676   3
  -1  -6  -8 1811.90 473.035   4
   1   6   8 2789.14 593.725   2
  -1  -6  -8 3809.21 664.384   5
   1   6   9 6028.71 877.556   2
  -1  -6  -9 7607.08 1019.89   5
  -1  -6  -9 6011.46 777.869   3
  -1  -6  -9 6260.01 843.719   4
  -1  -6 -10 48253.6 2849.92   5
   1   6  10 42657.9 2459.88   2
  -1  -6 -10 40325.9 2042.92   3
  -1  -6 -10 45233.6 2448.20   4
  -1  -6 -11 1162.44 458.349   4
   1   6  11 625.490 293.640   2
  -1  -6 -11 810.179 499.454   5
  -1  -6 -12 4925.17 881.024   4
   1   6  12 4469.73 783.436   2
  -1  -6 -12 6092.35 1156.41   5
  -1  -6 -13 417.511 343.608   4
   1   6  13 29.6823 399.927   2
  -1  -6 -13 386.583 388.454   5
  -1  -6 -14 211.119 400.724   4
  -1  -6 -14 883.008 459.891   5
  -1  -6 -15 520.712 463.249   4
  -1  -6 -15 1201.70 741.344   5
   1   7 -14 1130.40 679.438   1
   1   7 -13 463.536 442.399   1
   1   7 -12 252.063 723.377   1
   1   7 -11 38039.0 2860.64   1
  -1  -7  10 683.872 333.536   3
   1   7 -10 1126.63 550.755   1
  -1  -7   9 6394.35 962.021   3
   1   7  -9 5108.19 971.071   1
  -1  -7   8 23561.6 1843.61   3
  -1  -7   7 90442.4 3949.63   3
  -1  -7   6 7038.87 752.236   4
  -1  -7   6 8243.33 1067.24   3
  -1  -7   5 28368.3 2044.38   3
  -1  -7   4 100440. 3118.94   4
  -1  -7   4 108471. 4323.21   3
  -1  -7   3 6760.86 543.559   4
  -1  -7   3 8081.82 1054.03   3
   1   7  -3 8751.57 1079.91   2
  -1  -7   2 10856.8 582.828   4
   1   7  -2 10539.7 713.271   5
  -1  -7   2 12246.6 1282.93   3
   1   7  -2 10874.5 1181.02   2
  -1  -7   1 1402.25 500.480   3
   1   7  -1 948.272 143.361   5
   1   7  -1 1149.84 143.795   5
   1   7  -1 936.723 405.229   2
  -1  -7   0 125857. 4668.93   3
   1   7   0 117139. 4447.71   2
  -1  -7  -1 1428.55 464.252   3
   1   7   1 2646.44 586.684   2
  -1  -7  -2 3569.65 687.857   3
   1   7   2 4245.56 715.800   2
   1   7   3 13386.5 1279.90   2
  -1  -7  -3 9825.99 1116.50   3
  -1  -7  -4 5703.91 336.025   5
  -1  -7  -4 6436.25 435.098   4
  -1  -7  -4 6110.36 862.900   3
   1   7   5 19857.4 1030.31   4
  -1  -7  -5 18510.6 1546.57   3
  -1  -7  -5 21534.1 1015.04   5
   1   7   5 23150.4 1715.64   2
  -1  -7  -5 21118.3 1019.00   4
   1   7   6 6384.42 880.596   2
  -1  -7  -6 6472.93 620.802   5
  -1  -7  -6 6329.01 898.533   3
  -1  -7  -6 5409.62 559.549   4
   1   7   7 2947.86 595.482   2
  -1  -7  -7 3623.60 669.825   3
  -1  -7  -7 3058.88 492.235   4
   1   7   7 2925.36 437.781   4
  -1  -7  -7 2809.81 489.073   5
   1   7   8 8254.37 1047.77   2
  -1  -7  -8 8575.75 943.532   5
  -1  -7  -8 8602.19 1013.70   3
  -1  -7  -8 8967.83 883.939   4
  -1  -7  -9 94027.9 3546.04   4
  -1  -7  -9 86918.9 3626.89   3
   1   7   9 87693.3 3858.27   2
  -1  -7 -10 741.794 323.963   3
  -1  -7 -10 977.086 409.633   4
   1   7  10 837.170 434.318   2
  -1  -7 -10 873.369 418.652   5
   1   7  11 19217.3 1709.90   2
  -1  -7 -11 23160.8 2020.46   5
  -1  -7 -11 18961.7 1581.27   4
  -1  -7 -12-107.678 300.252   4
   1   7  12 291.404 388.796   2
  -1  -7 -12 452.001 306.633   5
  -1  -7 -13 27822.2 2470.36   5
  -1  -7 -13 21116.0 1877.58   4
   1   7  13 23093.2 1920.36   2
  -1  -7 -14 4926.77 937.232   4
  -1  -7 -14 6209.46 1254.95   5
  -1  -7 -15 16956.7 1838.08   4
   1   8 -13 5986.70 1425.89   5
   1   8 -12 13162.1 1870.36   1
   1   8 -11 1621.91 664.270   1
  -1  -8  10 8829.05 1220.56   3
   1   8 -10 9546.36 1413.16   1
  -1  -8   9 5012.81 936.923   3
   1   8  -9 5046.16 960.652   1
  -1  -8   8 3627.81 816.446   3
  -1  -8   7 270.229 414.759   3
  -1  -8   6 5107.31 919.450   3
  -1  -8   5 6838.21 1048.29   3
  -1  -8   4 860.834 470.084   3
  -1  -8   4 621.157 234.163   4
   1   8  -3 40798.0 2495.75   2
  -1  -8   3 38931.0 1383.80   4
  -1  -8   3 41842.4 2577.87   3
  -1  -8   2 1762.14 171.245   4
  -1  -8   2 2302.27 634.212   3
   1   8  -2 2142.59 311.242   5
   1   8  -2 1409.50 504.663   2
   1   8  -2 1855.86 271.901   5
  -1  -8   1 96471.4 4188.38   3
   1   8  -1 90626.0 3968.12   2
  -1  -8   0 31671.7 2237.60   3
   1   8   0 32422.9 2161.49   2
   1   8   1 20880.0 1674.60   2
  -1  -8  -1 18098.4 1661.97   3
   1   8   2 19654.3 1621.74   2
  -1  -8  -2 20770.5 1768.10   3
  -1  -8  -3 12349.9 1347.14   3
   1   8   3 12516.5 1292.33   2
   1   8   4 123775. 4639.75   2
  -1  -8  -4 115879. 4704.97   3
  -1  -8  -5 9551.82 499.208   5
   1   8   5 9660.71 1153.15   2
  -1  -8  -5 8642.17 1128.72   3
   1   8   6 15835.5 944.742   4
   1   8   6 17531.7 1556.12   2
  -1  -8  -6 16642.6 1542.69   3
  -1  -8  -6 16029.7 897.944   4
  -1  -8  -6 16054.5 910.603   5
  -1  -8  -7 1011.21 395.173   3
  -1  -8  -7 689.147 236.372   4
   1   8   7 938.014 413.418   2
  -1  -8  -7 566.441 284.227   5
  -1  -8  -8 2981.17 506.051   4
   1   8   8 3316.39 738.008   2
  -1  -8  -8 2683.43 618.490   3
  -1  -8  -8 4164.78 609.962   5
  -1  -8  -9 2730.42 609.722   3
  -1  -8  -9 4259.62 627.229   4
   1   8   9 2400.74 669.837   2
  -1  -8  -9 2806.79 563.834   5
  -1  -8 -10 2711.63 588.541   3
  -1  -8 -10 2795.99 548.932   4
   1   8  10 3704.02 826.887   2
  -1  -8 -10 4025.63 731.790   5
  -1  -8 -11 31.0146 251.159   4
   1   8  11-199.712 351.629   2
  -1  -8 -11-226.437 366.374   5
  -1  -8 -12 2086.11 560.787   4
   1   8  12 1593.36 616.146   2
   1   8  13 19619.1 1837.54   2
   1   9 -12 9055.00 1628.02   5
   1   9 -11 3555.96 975.083   1
   1   9 -11 6393.89 1302.60   5
   1   9 -10 24759.9 2390.93   1
  -1  -9  10 22313.7 2080.82   3
  -1  -9   9 513.895 387.798   3
   1   9  -9 284.199 386.675   1
  -1  -9   8 43621.6 2883.82   3
  -1  -9   7 12817.6 1501.00   3
  -1  -9   6 13843.2 1561.12   3
  -1  -9   5 682.697 491.969   3
   1   9  -4 30685.5 1615.03   5
  -1  -9   4 30868.3 2348.62   3
   1   9  -3 8505.67 681.004   5
  -1  -9   3 8633.26 1217.06   3
   1   9  -3 6819.84 1069.06   2
  -1  -9   2 912.709 489.079   3
   1   9  -2 889.960 145.544   5
   1   9  -2 711.570 123.608   5
   1   9  -2 543.227 323.382   2
   1   9  -1 374.242 381.321   2
  -1  -9   1 484.095 382.316   3
  -1  -9   0 30468.6 2289.87   3
   1   9   0 28683.4 2105.64   2
  -1  -9  -1 11850.8 1408.61   3
   1   9   1 12431.8 1349.92   2
   1   9   2 28449.1 2048.52   2
  -1  -9  -2 26173.9 2116.76   3
  -1  -9  -3 1929.47 596.391   3
   1   9   3 3493.24 723.269   2
  -1  -9  -4 14892.6 1581.06   3
   1   9   4 16705.1 1561.24   2
  -1  -9  -5 34127.8 2426.79   3
   1   9   5 37460.8 2390.52   2
   1   9   6 58281.2 3111.44   2
  -1  -9  -6 58938.4 3233.54   3
   1   9   7 13578.4 1449.50   2
  -1  -9  -7 11245.7 1350.72   3
   1   9   8 46718.0 2794.38   2
  -1  -9  -8 46167.3 2755.81   3
  -1  -9  -9 3021.63 711.142   3
   1   9   9 4248.45 867.421   2
   1   9  10 29083.4 2228.33   2
   1   9  11 12137.2 1440.65   2
   1   9  12 14218.1 1615.01   2
   1   9  13 3881.49 898.077   2
   1  10 -10 8345.54 1438.86   1
  -1 -10  10 8116.66 1306.45   3
  -1 -10   9 4737.24 1005.94   3
   1  10  -9 5261.59 1220.85   1
  -1 -10   8 12668.2 1598.93   3
  -1 -10   7 4424.08 956.282   3
  -1 -10   6 31855.8 2518.57   3
  -1 -10   5 1047.61 523.460   3
  -1 -10   4 17961.7 1858.90   3
   1  10  -3 29664.9 2304.53   2
  -1 -10   3 29579.3 2396.13   3
  -1 -10   2 74351.7 3982.97   3
   1  10  -2 77398.6 3839.09   2
  -1 -10   1 26668.0 2267.11   3
   1  10  -1 29242.9 2220.49   2
  -1 -10   0 895.949 553.733   3
   1  10   0 414.109 362.557   2
   1  10   1 38984.8 2550.38   2
  -1 -10  -1 33760.4 2562.31   3
  -1 -10  -2 4618.95 921.700   3
   1  10   2 5201.75 922.228   2
   1  10   3 25085.3 2008.27   2
  -1 -10  -3 24325.0 2143.92   3
   1  10   4 5881.02 937.735   2
  -1 -10  -4 5573.05 1012.17   3
  -1 -10  -5 8595.78 1263.77   3
   1  10   5 7632.10 1093.53   2
  -1 -10  -6 2434.28 736.458   3
   1  10   6 1979.09 640.039   2
   1  10   7 10388.3 1314.21   2
  -1 -10  -7 8863.03 1238.31   3
  -1 -10  -8-38.1224 307.725   3
   1  10   8 1104.45 502.322   2
   1  10   9 693.396 437.961   2
  -1 -10  -9 892.119 391.763   3
   1  10  10 5235.28 984.857   2
   1  10  11 9140.41 1290.37   2
   1  10  12 20971.4 1989.44   2
  -1 -11  10 2804.71 810.147   3
  -1 -11   9 7556.65 1270.84   3
  -1 -11   8 3175.57 833.048   3
  -1 -11   7 16218.8 1886.91   3
  -1 -11   6 3903.85 961.711   3
  -1 -11   5 799.959 577.724   3
  -1 -11   4 1199.36 551.437   3
   1  11  -3-111.380 353.037   2
  -1 -11   3-104.300 451.533   3
  -1 -11   2 2000.08 705.507   3
   1  11  -2 1064.85 590.070   2
  -1 -11   1 1262.21 540.148   3
   1  11  -1 1586.47 650.697   2
  -1 -11   0 10010.6 1440.45   3
   1  11   0 13358.7 1535.02   2
  -1 -11  -1 2562.91 791.331   3
   1  11   1 2768.50 770.106   2
  -1 -11  -2 66036.9 3854.99   3
   1  11   2 71759.6 3642.56   2
  -1 -11  -3 9481.91 1403.06   3
   1  11   3 8909.11 1214.67   2
  -1 -11  -4 7935.32 1271.98   3
   1  11   4 11081.4 1355.77   2
  -1 -11  -5 11047.1 1487.42   3
   1  11   5 13983.7 1538.55   2
  -1 -11  -6 11652.9 1513.01   3
   1  11   6 12713.9 1468.87   2
  -1 -11  -7 21643.0 2051.35   3
   1  11   7 26452.8 2131.44   2
  -1 -11  -8 1158.04 516.832   3
   1  11   8 2172.71 689.436   2
   1  11   9 18573.3 1827.02   2
   1  11  10 1903.62 649.342   2
  -1 -12   7 14895.4 1870.27   3
  -1 -12   6 169.445 368.552   3
  -1 -12   5 29895.1 2621.18   3
  -1 -12   4 8194.01 1407.64   3
   1  12  -3 7104.80 1195.70   2
  -1 -12   3 5796.23 1162.78   3
  -1 -12   2 341.091 454.764   3
   1  12  -2 2092.52 659.404   2
   1  12  -1 25728.9 2196.20   2
  -1 -12   1 24668.1 2357.50   3
  -1 -12   0 10662.2 1586.13   3
   1  12   0 15128.9 1667.32   2
  -1 -12  -1-74.8188 332.189   3
   1  12   1 87.1140 348.042   2
  -1 -12  -2 4021.14 938.884   3
   1  12   2 6051.81 1053.49   2
   1  12   3 6327.56 1057.87   2
  -1 -12  -3 5223.41 1094.93   3
  -1 -12  -4-1215.75 602.183   3
   1  12   4-324.540 394.337   2
  -1 -12  -5 16054.5 1881.77   3
   1  12   5 19501.2 1878.77   2
  -1 -12  -6 9180.88 1419.68   3
   1  12   6 11422.5 1405.69   2
  -1 -12  -7 2863.24 831.132   3
   1  12   7 3112.08 754.670   2
  -1 -12  -8 5200.90 1014.24   3
   1  12   8 4997.26 992.252   2
  -1 -13   3 7129.25 1340.28   3
   1  13  -3 10343.7 1489.12   2
  -1 -13   2 4522.44 1110.68   3
   1  13  -2 2934.81 811.655   2
  -1 -13   1 37659.7 3048.65   3
   1  13  -1 41435.6 2866.68   2
  -1 -13   0 3995.56 1088.72   3
   1  13   0 3767.93 865.395   2
  -1 -13  -1 19070.2 2153.17   3
   1  13   1 21853.0 2031.77   2
  -1 -13  -2 29845.6 2699.30   3
   1  13   2 32435.0 2511.03   2
  -1 -13  -3 6381.24 1275.45   3
   1  13   3 8579.29 1295.89   2
  -1 -13  -4 1891.60 677.739   3
   1  13   4 4305.09 918.320   2
  -1 -13  -5 1422.73 745.418   3
  -1 -13  -6 24622.3 2348.82   3
  -1 -13  -7-481.684 424.769   3
  -2  14  -2 377.794 390.233   1
  -2  14  -2 2329.58 706.078   2
  -2  13   2 19487.2 1943.22   2
  -2  13   1-286.320 412.610   2
  -2  13   0 10459.6 1378.68   2
  -2  13  -1 1712.53 763.044   2
  -2  13  -2 2942.21 719.618   2
  -2  13  -3-503.528 482.724   1
  -2  13  -3 372.822 413.604   2
  -2  13  -4 1532.59 744.513   1
  -2  13  -4 264.838 373.185   2
  -2  13  -5 3385.04 953.258   1
  -2  12   5-183.112 501.723   2
  -2  12   4 6807.17 1177.71   2
  -2  12   3 22391.1 2082.95   2
  -2  12   2 24242.0 2118.70   2
  -2  12   1 525.489 427.214   2
  -2  12   0 16773.5 1676.90   2
  -2  12  -1 1667.28 584.195   2
  -2  12  -2 36217.8 2407.71   2
  -2  12  -3 4411.46 954.661   1
  -2  12  -3 4611.11 861.873   2
  -2  12  -4 28868.5 2388.29   1
  -2  12  -4 25533.8 1941.90   2
  -2  12  -5 4160.85 985.715   1
  -2  12  -5 5040.62 872.493   2
  -2  12  -6 167.124 457.183   1
  -2  12  -7 528.308 592.417   1
  -2  11   7 5589.65 1121.43   2
  -2  11   6 3795.11 907.539   2
  -2  11   5 21529.0 2069.32   2
  -2  11   4-716.344 481.119   2
  -2  11   3 2078.15 633.069   2
  -2  11   2 3923.66 812.664   2
  -2  11   1 3320.34 781.840   2
  -2  11   0 3331.08 761.965   2
  -2  11  -1 3634.62 779.359   2
  -2  11  -2 322.579 410.139   2
  -2  11  -3 9772.81 1177.56   2
  -2  11  -4 21218.6 1955.37   1
  -2  11  -4 25389.6 1856.26   2
  -2  11  -5 5291.19 1035.36   1
  -2  11  -5 6738.78 950.393   2
  -2  11  -6 8140.22 1071.31   2
  -2  11  -6 9333.18 1362.65   1
  -2  11  -7 1079.58 815.039   1
  -2  11  -8 39211.0 3057.22   1
  -2  11  -9 1314.42 622.956   1
  -2  10   9 4232.90 987.188   2
  -2  10   8 1439.53 659.375   2
  -2  10   7 856.782 449.211   2
   2 -10  -6 32170.7 2226.70   5
  -2  10   6 33668.6 2549.35   2
  -2  10   5 5218.48 1027.65   2
   2 -10  -5 4599.55 831.799   5
   2 -10  -4 11377.6 1267.69   5
  -2  10   4 10086.8 1332.84   2
  -2  10   3 8870.29 1187.16   2
   2 -10  -3 7412.30 1065.90   5
  -2  10   2 54924.3 3073.70   2
   2 -10  -2 56117.6 2952.07   5
   2 -10  -1 22918.9 1748.27   5
  -2  10   1 22901.4 1878.72   2
  -2  10   0 1788.17 578.095   2
  -2  10  -1 27575.8 1990.41   2
  -2  10  -2 3998.96 745.226   2
  -2  10  -3 19916.2 1604.03   2
  -2  10  -4 4148.44 878.111   1
  -2  10  -4 4365.47 735.433   2
  -2  10  -5 10300.1 1336.80   1
  -2  10  -5 9698.96 1098.05   2
  -2  10  -6 1250.02 603.091   1
  -2  10  -6-107.232 276.195   2
  -2  10  -7 301.315 451.015   1
  -2  10  -8 5085.93 1082.05   1
  -2  10  -9 1141.22 683.483   1
  -2  10 -10 4955.46 1174.95   1
  -2   9  11 9303.10 1454.41   2
   2  -9 -11 10056.7 1562.03   5
  -2   9  10 757.913 522.445   2
   2  -9 -10 164.234 401.355   5
  -2   9   9 29660.6 2429.39   2
   2  -9  -9 28856.4 2440.35   5
   2  -9  -8 12739.8 1552.63   5
  -2   9   8 12911.3 1546.68   2
   2  -9  -7 6552.14 1097.20   5
  -2   9   6 3988.49 856.848   2
   2  -9  -6 2813.90 736.709   5
  -2   9   5 3333.28 813.875   2
   2  -9  -5 2953.16 687.145   5
  -2   9   4 1757.48 559.085   2
   2  -9  -4 1314.72 466.097   5
  -2   9   3 7194.48 1042.83   2
   2  -9  -3 6249.25 962.448   5
  -2   9   2 262.400 245.691   2
   2  -9  -2 881.817 438.774   5
  -2   9   1 5453.49 882.380   2
  -2   9   1 4008.24 441.737   4
   2  -9  -1 4952.76 843.993   5
  -2   9   0 31277.3 1299.63   4
   2  -9   0 31330.8 2065.95   5
  -2   9   0 30688.2 2052.47   2
  -2   9  -1 70115.8 2212.79   4
  -2   9  -1 72473.2 3266.26   2
  -2   9  -2 1986.65 523.463   2
  -2   9  -2 839.109 193.661   4
  -2   9  -3 6273.23 563.660   4
  -2   9  -3 7000.69 897.354   2
  -2   9  -4 6936.90 1006.30   1
  -2   9  -4 6999.73 898.505   2
  -2   9  -4 6129.14 598.709   4
  -2   9  -5 80726.0 3809.61   1
  -2   9  -5 83103.2 3366.22   2
  -2   9  -5 81945.9 2828.05   4
  -2   9  -6 3984.32 557.020   4
  -2   9  -6 3915.95 679.856   2
  -2   9  -6 3839.14 836.267   1
  -2   9  -7 31932.9 1780.84   4
  -2   9  -7 35307.4 2551.63   1
  -2   9  -7 35204.3 2202.39   2
  -2   9  -8 8612.32 1315.59   1
  -2   9  -8 7095.05 863.819   4
  -2   9  -9 6249.40 828.741   4
  -2   9  -9 6191.95 1151.06   1
  -2   9 -10 195.267 305.520   4
  -2   9 -10 216.085 429.057   1
  -2   9 -11 2672.61 608.977   4
  -2   9 -11 2040.49 789.139   1
  -2   9 -12 10730.9 1289.10   4
  -2   9 -13 1665.71 506.352   4
   2  -8 -13 10912.7 1854.29   5
   2  -8 -12 2686.15 924.418   5
   2  -8 -11 16083.8 2044.86   5
   2  -8 -10 22.4124 458.904   5
   2  -8  -9 20800.7 2075.39   5
   2  -8  -8 7120.03 1175.27   5
   2  -8  -7 47467.9 2983.55   5
   2  -8  -6 18011.0 1684.52   5
   2  -8  -5 10094.1 1238.48   5
   2  -8  -4 39541.9 2414.30   5
  -2   8   4 35666.8 1575.19   4
   2  -8  -3 68894.7 3320.40   5
  -2   8   3 60491.1 2108.97   4
   2  -8  -2 22634.9 1805.96   5
  -2   8   2 21325.5 1031.82   4
  -2   8   1 7594.11 952.047   2
  -2   8   1 6749.71 852.023   5
   2  -8  -1 6761.42 1011.42   5
  -2   8   0 33549.9 1481.30   4
  -2   8   0 35890.2 2081.82   5
   2  -8   0 34402.1 2212.25   5
  -2   8   0 31695.7 1975.42   2
  -2   8  -1 212.339 237.838   2
  -2   8  -1-128.602 171.298   4
  -2   8  -1 45.6766 276.318   5
  -2   8  -2 429.723 244.171   2
  -2   8  -2 588.057 202.138   4
  -2   8  -3 1585.99 482.142   1
  -2   8  -3 2052.79 489.277   2
  -2   8  -3 2218.91 357.517   4
  -2   8  -4 2342.99 594.171   1
  -2   8  -4 2426.57 500.326   2
  -2   8  -4 1956.42 353.937   4
  -2   8  -5 4326.66 553.914   4
  -2   8  -5 3745.62 719.499   1
  -2   8  -5 5428.26 730.100   2
  -2   8  -6 46988.3 2810.06   1
  -2   8  -6 54662.3 2533.62   2
  -2   8  -6 49042.8 2195.97   4
  -2   8  -7 5291.32 704.171   4
  -2   8  -7 4318.72 696.055   2
  -2   8  -7 4875.65 932.008   1
  -2   8  -8 348.666 236.560   4
  -2   8  -8-170.120 386.352   1
  -2   8  -9 27084.2 2319.14   1
  -2   8  -9 28794.6 1893.54   4
  -2   8 -10 8269.80 1338.29   1
  -2   8 -10 8809.89 1077.79   4
  -2   8 -11 27837.7 2033.49   4
  -2   8 -11 28873.7 2596.36   1
  -2   8 -12 1616.13 643.881   4
  -2   8 -12 3146.20 921.068   1
  -2   8 -13 26959.5 2215.02   4
  -2   8 -14 1462.24 611.428   4
   2  -7 -13 1097.03 744.764   5
   2  -7 -12 12493.0 1902.78   5
   2  -7 -11 24095.3 2477.59   5
   2  -7 -10 6529.39 1229.31   5
   2  -7  -9 318.476 385.290   5
   2  -7  -8-77.3338 302.869   5
   2  -7  -7 2394.45 675.452   5
   2  -7  -6-462.817 353.638   5
   2  -7  -5 8957.00 1161.93   5
  -2   7   5 10307.0 949.028   3
   2  -7  -4 18336.1 1568.71   5
  -2   7   4 17261.0 1049.03   4
  -2   7   3 9517.02 731.061   4
   2  -7  -3 11645.5 1240.42   5
   2  -7  -2 20256.2 1697.55   5
  -2   7   2 20538.5 1558.78   5
  -2   7   1 59257.6 2747.87   5
   2  -7  -1 53889.9 2987.18   5
   2  -7   0 4018.94 776.106   5
  -2   7   0 5271.00 773.217   5
  -2   7  -1 72087.9 2502.18   4
  -2   7  -1 72606.0 2954.89   2
   2  -7   1 69525.4 3313.10   5
  -2   7  -1 77598.3 3283.71   5
  -2   7  -2 46518.3 1882.11   4
  -2   7  -2 47012.2 2236.86   2
  -2   7  -2 48572.5 2629.79   5
  -2   7  -3 13885.4 949.015   4
  -2   7  -3 14257.6 1237.04   1
  -2   7  -3 13100.4 1106.03   2
  -2   7  -4 33746.7 2040.51   1
  -2   7  -4 34102.2 1811.12   2
  -2   7  -4 34857.1 1651.69   4
  -2   7  -5 300.814 193.269   4
  -2   7  -5 401.256 363.228   1
  -2   7  -5 738.135 256.165   2
  -2   7  -6 21325.2 1392.99   4
  -2   7  -6 24903.4 1548.56   2
  -2   7  -6 21824.4 1767.46   1
  -2   7  -7 4629.14 833.133   1
  -2   7  -7 4397.02 653.236   4
  -2   7  -7 3591.36 544.420   2
  -2   7  -8 8065.02 1159.59   1
  -2   7  -8 8005.05 952.134   4
  -2   7  -9-55.6538 258.665   4
  -2   7  -9 192.925 409.711   1
  -2   7 -10 886.474 413.120   4
  -2   7 -10 1167.30 479.200   1
  -2   7 -11 4351.23 833.932   4
  -2   7 -11 4664.15 1042.57   1
  -2   7 -12 1260.45 489.197   4
  -2   7 -13 9326.24 1313.08   4
  -2   7 -14 461.885 440.812   4
   2  -6 -13 7624.77 1606.23   5
   2  -6 -12 16854.7 2204.71   5
   2  -6 -11 5080.76 1130.35   5
   2  -6 -10 36488.8 2950.87   5
   2  -6  -9 1406.06 583.698   5
   2  -6  -8 6491.89 1098.50   5
   2  -6  -7 632.305 406.445   5
   2  -6  -6 85941.4 3976.22   5
   2  -6  -5 19817.4 1676.89   5
  -2   6   4 415.401 184.510   4
   2  -6  -4 289.798 264.144   5
  -2   6   3 6597.77 887.675   5
   2  -6  -3 5560.12 847.948   5
  -2   6   3 6786.74 744.595   3
  -2   6   3 6056.79 586.845   4
  -2   6   2 21487.8 1376.32   3
  -2   6   2 21020.7 1550.65   5
   2  -6  -2 18043.7 1511.96   5
  -2   6   1 2372.78 531.832   5
   2  -6  -1 1969.52 546.753   5
   2  -6   0 91.3577 242.552   5
  -2   6   0 1.34435 254.245   5
  -2   6  -1 349.641 297.628   5
  -2   6  -1 513.424 185.933   4
   2  -6   1 548.876 313.750   5
  -2   6  -2 14061.8 1114.39   1
  -2   6  -2 15068.8 1005.33   4
  -2   6  -2 15212.1 1087.95   2
  -2   6  -2 15903.6 1427.73   5
   2  -6   2 14047.7 1391.49   5
  -2   6  -3 71518.2 2608.95   4
  -2   6  -3 77158.5 2972.98   1
  -2   6  -3 76767.3 3610.19   5
  -2   6  -3 70560.4 2698.85   2
  -2   6  -4 114276. 3636.95   4
  -2   6  -4 113339. 3673.03   2
  -2   6  -4 116665. 4072.79   1
  -2   6  -5 9090.78 857.351   4
  -2   6  -5 10040.4 1080.16   1
  -2   6  -5 10089.7 867.686   2
  -2   6  -6 24325.4 1530.60   4
  -2   6  -6 25240.4 1804.80   1
  -2   6  -6 27097.7 1495.30   2
  -2   6  -7 17389.6 1348.51   4
  -2   6  -7 18642.6 1599.03   1
  -2   6  -7 17709.4 1011.56   2
  -2   6  -8 86124.0 3960.94   1
  -2   6  -8 91272.1 3617.15   4
  -2   6  -9 5690.89 868.180   4
  -2   6  -9 6186.46 1016.72   1
  -2   6 -10 49337.0 3056.85   1
  -2   6 -10 49609.7 2799.83   4
  -2   6 -11 4401.40 887.843   4
  -2   6 -12 11192.8 1414.24   4
  -2   6 -13 629.928 495.911   4
  -2   6 -14 5507.78 1066.96   4
   2  -5 -14 6636.68 1596.91   5
   2  -5 -13 1146.51 648.347   5
   2  -5 -12-662.263 571.514   5
   2  -5 -11-428.903 456.593   5
   2  -5 -10 12643.2 1719.34   5
   2  -5  -9-113.200 407.085   5
  -2   5   8 16026.2 784.949   1
   2  -5  -8 17410.4 1797.67   5
  -2   5   7 528.174 189.999   3
  -2   5   7 64.6843 105.357   1
   2  -5  -7 555.483 318.047   5
   2  -5  -6 96128.4 4259.96   5
  -2   5   6 101719. 3104.22   3
  -2   5   5 1068.96 254.472   3
  -2   5   5 553.970 236.526   4
   2  -5  -5 796.982 391.416   5
  -2   5   4 60431.5 2238.48   3
   2  -5  -4 56062.9 2895.55   5
  -2   5   4 60811.6 2287.04   4
   2  -5  -3 85910.6 3637.18   5
  -2   5   3 97572.6 3783.55   5
   2  -5  -2 62256.9 2956.76   5
  -2   5   2 72523.7 3060.65   5
   2  -5  -1 35190.0 2142.21   5
  -2   5   1 40016.4 2159.33   5
  -2   5   0 43697.2 2311.52   5
  -2   5   0 47592.4 2077.54   3
  -2   5  -1 130212. 3818.48   1
  -2   5  -1 130258. 4589.82   5
   2  -5   1 128211. 4997.97   5
  -2   5  -2 9491.29 820.383   4
  -2   5  -2 9588.42 841.362   1
  -2   5  -2 9070.29 1074.33   5
   2  -5   2 8264.77 1082.28   5
  -2   5  -3 4586.72 608.720   1
  -2   5  -3 3176.68 495.244   4
  -2   5  -3 3684.03 740.292   5
  -2   5  -4 20461.1 1277.24   4
  -2   5  -4 19458.0 1367.75   1
  -2   5  -4 18729.3 1098.09   2
  -2   5  -4 21636.6 1975.98   5
  -2   5  -5 74764.7 2879.16   4
  -2   5  -5 78449.0 2598.97   2
  -2   5  -5 74168.4 3099.65   1
  -2   5  -6 3430.16 439.298   2
  -2   5  -6 4954.93 760.757   1
  -2   5  -6 4517.35 658.921   4
  -2   5  -7 7553.27 907.201   4
  -2   5  -7 6207.10 896.348   1
  -2   5  -8 2006.56 515.901   4
  -2   5  -8 2083.95 569.410   1
  -2   5  -9 6543.35 977.511   4
  -2   5  -9 4644.33 866.871   1
  -2   5 -10 26754.3 2044.78   4
  -2   5 -11 15702.3 1634.09   4
  -2   5 -12 2272.69 747.276   4
  -2   5 -13-49.7694 411.052   4
  -2   5 -14 48664.6 3357.15   4
  -2   5 -15 1142.37 681.595   4
   2  -4 -14 350.958 651.432   5
   2  -4 -13 56785.0 4338.95   5
   2  -4 -12 2803.24 955.226   5
   2  -4 -11 25434.8 2577.52   5
   2  -4 -10 692.351 392.906   5
   2  -4  -9 45537.9 3149.94   5
   2  -4  -8 6710.26 1129.77   5
  -2   4   7 508.061 139.747   3
   2  -4  -7 681.975 379.380   5
   2  -4  -6 14934.0 1473.79   5
  -2   4   6 12071.8 519.103   1
  -2   4   6 15153.4 822.998   3
   2  -4  -5 14375.8 1427.32   5
  -2   4   5 16057.8 887.205   3
  -2   4   5 16257.6 1134.80   4
  -2   4   4 559.337 191.880   3
  -2   4   4 181.512 217.269   4
   2  -4  -4-51.1926 317.651   5
  -2   4   4 87.8077 204.000   5
  -2   4   3 31844.0 1939.54   5
  -2   4   3 30985.9 1395.62   3
  -2   4   2 4197.24 501.638   3
  -2   4   2 3898.20 642.026   5
   2  -4  -2 2563.89 551.855   5
  -2   4   1 1373.74 226.363   1
   2  -4  -1 942.090 336.463   5
  -2   4   1 901.343 291.984   5
  -2   4   1 1113.76 274.180   3
   2  -4   0 45939.0 2512.09   5
  -2   4   0 48511.6 1700.12   1
  -2   4   0 52593.9 2501.96   5
  -2   4  -1 3123.07 600.672   5
  -2   4  -1 2736.03 382.665   1
   2  -4   1 3382.04 689.830   5
  -2   4  -2 40061.6 1928.22   4
  -2   4  -2 42360.0 2432.62   5
  -2   4  -2 42064.9 1755.63   1
   2  -4   2 40283.1 2474.58   5
  -2   4  -3 22734.0 1401.37   4
  -2   4  -3 24488.0 1352.58   1
  -2   4  -3 27003.4 2122.26   5
  -2   4  -4 173967. 5157.63   4
  -2   4  -4 181561. 6444.05   5
  -2   4  -4 172685. 5088.45   1
  -2   4  -5 42724.8 2102.65   1
  -2   4  -5 44849.8 1614.62   2
  -2   4  -5 43879.7 2760.51   5
  -2   4  -5 44934.6 2100.31   3
  -2   4  -5 40150.5 2040.68   4
  -2   4  -6 16269.7 1277.90   4
  -2   4  -6 13966.1 709.064   2
   2  -4   6 14821.4 1369.99   4
  -2   4  -6 16680.9 1306.48   1
  -2   4  -7 25924.2 1744.82   1
  -2   4  -7 26908.1 1754.28   4
  -2   4  -8 5103.17 802.273   4
  -2   4  -9 39756.9 2442.25   4
  -2   4 -10 2219.92 652.899   4
  -2   4 -11 10987.9 1405.01   4
  -2   4 -12-344.118 439.149   4
  -2   4 -13 2564.70 779.284   4
  -2   4 -14 10977.4 1642.79   4
  -2   4 -15 711.548 545.156   4
   2  -3 -14 3298.58 1240.11   5
   2  -3 -13 6179.76 1599.52   5
   2  -3 -12 246.769 541.430   5
   2  -3 -11 1184.42 659.842   5
   2  -3 -10 8370.36 1456.05   5
   2  -3  -9 64922.0 3886.72   5
   2  -3  -8 10719.2 1434.12   5
   2  -3  -7 35282.2 2464.80   5
  -2   3   7 34743.4 1144.97   3
  -2   3   6 71.1476 100.693   3
   2  -3  -6 245.332 324.032   5
   2  -3  -5 33455.9 2177.52   5
  -2   3   5 36948.1 1339.76   3
  -2   3   5 37558.8 1816.92   4
   2  -3  -4 7943.91 1003.43   5
  -2   3   4 8971.87 1018.73   5
  -2   3   4 7381.82 712.748   4
   2  -3  -3 99097.9 3944.32   5
  -2   3   3 113569. 4038.17   5
  -2   3   2 98955.2 2348.74   1
  -2   3   2 106415. 3759.86   5
   2  -3  -2 104090. 3837.21   5
   2  -3  -1 13505.5 1190.25   5
  -2   3   1 12586.1 1108.51   5
  -2   3   1 12565.4 587.353   1
   2  -3   0 7572.62 933.378   5
  -2   3   0 9002.15 939.328   5
  -2   3   0 9061.08 557.657   1
  -2   3  -1 16350.9 1333.47   5
   2  -3   1 14862.5 1433.68   5
  -2   3  -1 16184.5 869.427   1
   2  -3   2 401.523 228.727   5
  -2   3  -2 80.6144 196.186   4
  -2   3  -2 407.902 270.254   5
  -2   3  -2 310.090 174.186   1
  -2   3  -3 861.284 258.033   1
  -2   3  -3 782.190 306.669   4
  -2   3  -4 3052.31 545.395   4
  -2   3  -4 3669.48 530.848   1
  -2   3  -5 3740.97 772.343   5
  -2   3  -5 3581.86 594.022   4
  -2   3  -5 3544.87 543.553   1
  -2   3  -5 2832.17 277.903   2
  -2   3  -6 50517.0 2470.54   4
   2  -3   6 54512.8 2737.05   4
  -2   3  -6 54495.5 2287.99   3
  -2   3  -7 148958. 5040.95   4
  -2   3  -7 150606. 4613.87   3
  -2   3  -8 16932.0 1483.43   4
  -2   3  -9 14993.4 1461.41   4
  -2   3 -10 41815.3 2674.85   4
  -2   3 -11 83402.3 4146.41   4
  -2   3 -12 5468.71 1056.75   4
  -2   3 -13 40433.1 3041.25   4
  -2   3 -14 1737.47 755.260   4
  -2   3 -15 10761.8 1701.27   4
   2  -2 -14 10225.0 1997.19   5
   2  -2 -13 8781.17 1787.49   5
   2  -2 -12 9729.33 1702.80   5
   2  -2 -11 5998.82 1326.52   5
   2  -2 -10 2546.73 759.383   5
   2  -2  -9 328.689 436.522   5
   2  -2  -8 14337.4 1663.81   5
   2  -2  -7 1715.63 611.270   5
  -2   2   7 2238.13 195.544   3
   2  -2  -6 15097.5 1498.73   5
   2  -2  -5 44075.9 2499.30   5
  -2   2   5 45990.2 2068.81   4
   2  -2  -4 33989.9 2048.70   5
  -2   2   4 31394.0 1599.03   4
   2  -2  -3 139726. 4723.84   5
   2  -2  -2 277.540 170.049   5
   2  -2  -1 172734. 5346.65   5
   2  -2   0 2556.23 245.623   1
   2  -2   0 2140.19 474.613   5
   2  -2   1 56315.0 1722.98   1
   2  -2   1 51498.8 2637.18   5
   2  -2   2 126384. 3393.13   1
   2  -2   2 124795. 4779.51   5
   2  -2   3 229620. 7371.41   5
  -2   2  -3 237544. 6479.86   4
  -2   2  -4 86709.5 3293.29   4
   2  -2   4 78955.6 2667.11   1
  -2   2  -5 4038.79 633.490   4
   2  -2   5 3339.55 487.835   1
  -2   2  -6 36797.2 2080.12   4
   2  -2   6 35709.4 1775.55   1
  -2   2  -7 7312.09 931.657   4
  -2   2  -8 2307.27 590.132   4
  -2   2  -8 2886.28 468.579   3
  -2   2  -9 4929.95 871.434   4
  -2   2  -9 6729.39 741.250   3
  -2   2 -10 10979.7 1356.45   4
  -2   2 -10 11274.4 1006.84   3
  -2   2 -11 9676.20 1347.96   4
  -2   2 -12 41037.2 2973.62   4
  -2   2 -13 3053.90 901.401   4
  -2   2 -14-533.747 503.070   4
  -2   2 -15 9782.83 1632.61   4
   2  -1 -14-1222.70 827.460   5
   2  -1 -13 13525.6 2190.09   5
   2  -1 -12 35179.6 3450.31   5
   2  -1 -11 20460.5 2461.05   5
   2  -1 -10 42992.1 3374.15   5
   2  -1  -9 1012.85 568.758   5
   2  -1  -8 161517. 6435.51   5
   2  -1  -7 14536.7 1589.26   5
  -2   1   7 15893.9 710.522   3
   2  -1  -6 49388.4 2859.67   5
   2  -1  -5 53900.4 2809.35   5
   2  -1  -4 15529.0 1347.14   5
   2  -1  -3 2650.30 517.186   5
   2  -1  -2 1329.96 407.717   5
   2  -1  -1 23345.6 1497.00   5
   2  -1   0 1448.50 367.714   5
   2  -1   1 9551.38 1001.66   5
   2  -1   2 7666.81 982.208   5
   2  -1   3 65957.8 2221.12   1
  -2   1  -3 70360.4 3007.48   4
   2  -1   3 62032.7 3192.19   5
  -2   1  -4 18968.1 1414.43   4
   2  -1   4 16899.5 1030.40   1
  -2   1  -5 40033.8 2134.32   4
  -2   1  -5 38088.6 1125.77   2
   2  -1   5 41252.9 1802.00   1
  -2   1  -6 16366.7 1347.68   4
   2  -1   6 17649.1 1204.49   1
  -2   1  -7 129836. 4641.64   4
  -2   1  -8 57125.5 2895.40   4
  -2   1  -9 11754.2 1326.17   4
  -2   1 -10 9910.12 886.700   3
  -2   1 -10 9099.47 1242.73   4
  -2   1 -11 2788.87 499.612   3
  -2   1 -11 2249.19 662.300   4
  -2   1 -12 18831.7 2005.23   4
  -2   1 -13 1126.24 573.257   4
  -2   1 -14 12884.6 1792.58   4
  -2   1 -15 1144.37 618.575   4
  -2   1 -16 224.486 696.899   4
   2   0 -14 1532.65 920.179   5
   2   0 -13 12529.2 2248.06   5
   2   0 -12-873.006 683.650   5
   2   0 -11 9779.76 1693.23   5
   2   0 -10 5058.84 1187.06   5
   2   0  -9 34.9734 381.600   5
  -2   0   9 126.699 63.8537   3
   2   0  -8 676.360 450.963   5
  -2   0   8 1212.65 201.356   3
   2   0  -7 43346.2 2864.73   5
  -2   0   7 46934.9 1607.67   3
   2   0  -6 51444.2 2960.09   5
   2   0  -6 55878.5 1854.65   1
   2   0  -5 2396.64 283.636   1
   2   0  -5 2523.75 588.373   5
   2   0  -4 155942. 5187.03   5
   2   0  -3 14418.3 1201.01   5
   2   0  -2 11934.5 1046.27   5
   2   0  -1 236.544 180.305   5
   2   0   0 133454. 4248.78   5
   2   0   1 38980.5 2023.46   5
   2   0   2 2229.84 534.699   5
  -2   0  -3 4478.91 677.288   4
  -2   0  -4 48162.8 2401.91   4
  -2   0  -4 48138.5 1523.09   2
  -2   0  -5 3029.16 554.579   4
  -2   0  -5 3655.13 359.738   2
  -2   0  -6 4722.51 726.056   4
  -2   0  -7 1353.10 411.245   4
  -2   0  -8 4443.51 775.143   4
  -2   0  -9 35983.3 2352.54   4
  -2   0 -10 73378.7 3738.22   4
  -2   0 -11 13304.5 1008.11   3
  -2   0 -11 12033.5 1517.42   4
  -2   0 -12 15664.4 1840.74   4
  -2   0 -13 30763.0 2689.91   4
  -2   0 -14 41990.0 3289.63   4
  -2   0 -15 642.039 572.321   4
  -2   0 -16 13393.3 2003.10   4
   2   1 -14 29237.9 3531.35   5
   2   1 -13 15974.6 2503.83   5
   2   1 -12 5416.47 1380.08   5
   2   1 -11 7585.95 1589.64   5
   2   1 -10 5548.26 1294.85   5
   2   1  -9 36124.2 3067.87   5
  -2  -1   9 45860.4 1599.52   3
   2   1  -8 38016.2 2888.08   5
  -2  -1   8 38456.0 1589.86   3
   2   1  -7 334.987 195.145   1
  -2  -1   7 265.443 132.722   3
   2   1  -7 230.615 287.134   5
  -2  -1   6 2051.48 323.112   3
   2   1  -6 2491.42 364.301   1
   2   1  -6 2211.97 600.286   5
   2   1  -5 4353.85 770.309   5
   2   1  -4 27025.1 1787.12   5
   2   1  -3 789.462 293.740   5
   2   1  -2 13201.9 1079.38   5
   2   1  -1 197.426 133.699   5
   2   1   0 284139. 7385.10   5
  -2  -1  -1 25154.8 1367.24   5
   2   1   1 21106.5 1380.71   5
  -2  -1  -2 115213. 3111.94   2
   2   1   2 109150. 4050.08   5
  -2  -1  -3 66278.4 2707.74   4
  -2  -1  -3 70279.7 2937.71   5
  -2  -1  -3 69658.1 2136.28   2
  -2  -1  -4 103395. 3762.06   4
  -2  -1  -4 103869. 3801.61   5
  -2  -1  -4 97573.1 2859.98   2
  -2  -1  -5 10801.6 1035.94   4
  -2  -1  -5 9804.14 1031.95   5
  -2  -1  -5 11092.9 795.070   2
   2   1   6 73194.8 2169.89   2
  -2  -1  -6 76284.2 3172.01   4
  -2  -1  -6 70816.9 2377.25   2
  -2  -1  -7 191114. 5968.83   4
   2   1   7 182671. 4559.15   2
  -2  -1  -8 39819.7 2335.41   4
   2   1   8 36530.4 1388.19   2
  -2  -1  -9 4459.82 807.543   4
   2   1   9 3880.10 411.670   2
  -2  -1 -10 3434.94 785.787   4
   2   1  10 2859.46 359.926   2
   2   1  11 25906.5 1113.21   2
  -2  -1 -11 27654.8 2289.11   4
  -2  -1 -12 419.838 415.351   4
  -2  -1 -13-148.877 371.288   4
  -2  -1 -14-52.1015 395.828   4
  -2  -1 -15 990.368 775.343   4
  -2  -1 -16 15264.5 2178.26   4
   2   2 -14 13068.2 2351.25   5
   2   2 -13 2615.72 1098.13   5
   2   2 -12 4590.78 1300.82   5
   2   2 -11 12247.1 1954.64   5
  -2  -2  10 87837.3 2686.57   3
   2   2 -10 85601.3 3436.90   1
  -2  -2   9 21921.7 1216.40   3
   2   2  -9 20002.9 1404.11   1
  -2  -2   8 2960.14 455.277   3
   2   2  -8 4047.66 928.802   5
   2   2  -8 3118.92 512.112   1
   2   2  -7 118998. 5210.89   5
  -2  -2   7 123047. 3778.54   3
   2   2  -6 23770.2 1977.44   5
  -2  -2   6 25654.0 1355.61   3
   2   2  -5 101029. 4177.55   5
  -2  -2   5 107781. 3568.06   4
  -2  -2   5 104888. 3267.28   3
  -2  -2   4 1037.24 282.278   3
   2   2  -4 1347.75 434.415   5
   2   2  -3 200638. 5898.56   5
   2   2  -2 5530.62 671.570   5
  -2  -2   2 5371.90 637.839   5
   2   2  -1 1696.86 371.981   5
  -2  -2   1 1994.96 354.790   5
  -2  -2   0 59335.4 2125.20   5
   2   2   0 54257.5 2212.81   5
  -2  -2  -1 29138.6 1274.93   2
   2   2   1 29810.7 1585.96   5
  -2  -2  -1 30797.5 1416.28   5
   2   2   2 31850.8 1755.26   5
  -2  -2  -2 33350.6 1579.07   5
  -2  -2  -2 32177.1 1400.69   2
  -2  -2  -3 25074.6 1443.89   4
  -2  -2  -3 24699.3 1198.61   2
  -2  -2  -3 25163.7 1504.88   5
   2   2   4 16962.7 972.061   2
  -2  -2  -4 16381.1 1253.95   4
  -2  -2  -4 17355.1 1281.99   5
  -2  -2  -4 15629.1 1013.30   2
  -2  -2  -5 5563.97 735.462   4
   2   2   5 4649.93 660.698   4
  -2  -2  -5 5465.65 724.875   5
  -2  -2  -5 4544.37 576.431   2
   2   2   5 4752.66 517.041   2
  -2  -2  -6 40390.9 2139.26   4
   2   2   6 39865.3 2132.11   4
  -2  -2  -6 35140.2 1746.96   2
   2   2   6 40556.1 1690.83   2
  -2  -2  -7 249.665 259.677   4
   2   2   7 66.6172 140.457   2
  -2  -2  -8 31889.2 2078.55   4
   2   2   8 32840.7 1533.32   2
  -2  -2  -9 3513.70 736.076   4
   2   2   9 3964.73 490.019   2
   2   2  10 67784.5 2486.79   2
  -2  -2 -10 75635.6 3700.00   4
   2   2  11 31658.6 1541.22   2
  -2  -2 -11 34191.7 2545.94   4
   2   2  12 18684.8 1133.55   2
  -2  -2 -12 21432.4 2077.10   4
  -2  -2 -13 5200.98 1093.42   4
  -2  -2 -14 1532.44 677.895   4
  -2  -2 -15 14895.9 1957.22   4
  -2  -2 -16 1723.18 663.681   4
   2   3 -14 690.211 662.396   5
   2   3 -13 10069.1 2062.93   5
   2   3 -12 23639.9 2913.16   5
   2   3 -11 1526.08 684.158   5
   2   3 -11 2261.49 578.293   1
  -2  -3  10 11913.3 949.564   3
   2   3 -10 11925.6 1201.95   1
   2   3 -10 10786.7 1726.55   5
  -2  -3   9 198.809 227.208   3
   2   3  -9 533.529 453.312   5
   2   3  -9 82.8272 232.029   1
  -2  -3   8 783.939 281.178   3
   2   3  -8 977.569 357.063   1
   2   3  -8 1178.52 482.539   5
  -2  -3   7 14801.3 1140.34   3
   2   3  -7 11787.7 1475.86   5
   2   3  -6 7078.83 1056.60   5
  -2  -3   6 7391.94 764.873   3
   2   3  -5 11554.8 1247.03   5
  -2  -3   5 13517.3 1017.70   3
  -2  -3   5 12105.0 990.636   4
   2   3  -4 36518.9 2125.13   5
  -2  -3   4 38984.6 1803.39   3
   2   3  -3 87350.1 3330.18   5
  -2  -3   3 88993.7 2879.35   4
  -2  -3   3 90122.7 3010.70   3
  -2  -3   2 5511.92 567.909   2
   2   3  -2 5258.94 621.561   5
  -2  -3   1 98282.4 3049.96   2
  -2  -3   1 98798.5 3034.68   5
   2   3  -1 94835.0 3176.33   5
  -2  -3   0 39622.7 1576.98   5
   2   3   0 40274.1 1744.94   5
  -2  -3   0 41810.8 1715.45   2
   2   3   1 88892.8 3038.58   5
  -2  -3  -1 95119.9 2782.68   5
  -2  -3  -1 91494.2 2940.23   2
  -2  -3  -2 8858.90 672.455   5
  -2  -3  -2 6926.87 649.810   2
   2   3   2 8418.73 798.732   5
  -2  -3  -3 97684.3 3240.58   4
  -2  -3  -3 93073.4 3119.36   5
  -2  -3  -3 97608.0 3165.31   2
   2   3   3 98375.4 3200.28   2
  -2  -3  -4 90175.2 3270.80   4
  -2  -3  -4 93023.1 3287.37   5
  -2  -3  -4 87268.7 3192.15   2
   2   3   4 86632.6 3058.46   2
  -2  -3  -5 3270.82 575.270   2
  -2  -3  -5 3262.69 550.048   4
   2   3   5 3067.18 515.274   4
  -2  -3  -5 2991.85 509.131   5
   2   3   5 2497.84 456.861   2
  -2  -3  -6 16086.3 1259.68   4
   2   3   6 16714.3 1296.23   4
  -2  -3  -6 16319.5 1262.89   2
  -2  -3  -7 39577.0 2147.94   4
   2   3   7 40494.8 2196.56   4
  -2  -3  -8 1891.22 475.205   4
  -2  -3  -9 342.844 344.843   4
  -2  -3 -10 19184.5 1730.08   4
  -2  -3 -11 3874.12 856.737   4
  -2  -3 -12 10350.8 1420.06   4
  -2  -3 -13 37652.6 2845.82   4
  -2  -3 -14 5122.34 1108.67   4
  -2  -3 -15 16326.1 2041.13   4
  -2  -3 -16 23094.9 2518.50   4
   2   4 -14 567.023 651.678   5
   2   4 -13 7380.24 1742.31   5
   2   4 -12 1304.98 762.912   5
   2   4 -12-64.2819 369.927   1
   2   4 -11 45657.2 3915.42   5
   2   4 -11 57786.8 3073.14   1
   2   4 -10 6604.76 938.448   1
  -2  -4  10 6389.15 772.092   3
   2   4  -9 4456.07 766.959   1
  -2  -4   9 6145.15 809.286   3
   2   4  -9 4120.63 1023.08   5
   2   4  -8 27195.8 1759.16   1
   2   4  -8 23511.0 2255.98   5
  -2  -4   8 25881.4 1702.79   3
   2   4  -7 19709.2 1946.49   5
  -2  -4   7 24378.4 1623.32   3
   2   4  -6 23000.9 1921.52   5
  -2  -4   6 25921.3 1613.82   3
  -2  -4   5 872.363 278.882   4
  -2  -4   5 368.227 233.068   3
   2   4  -5 598.921 361.070   5
  -2  -4   4 24181.2 1361.73   2
   2   4  -4 21944.1 1580.03   5
  -2  -4   4 23867.0 1478.53   3
   2   4  -3 10596.7 975.759   5
  -2  -4   3 12505.1 864.420   4
  -2  -4   3 11650.2 982.482   3
  -2  -4   3 12936.5 963.651   2
  -2  -4   2 55182.2 2177.64   2
  -2  -4   2 52400.7 2227.16   3
   2   4  -1 54.7474 117.311   5
  -2  -4   1 11.7775 140.871   2
   2   4   0 7534.94 629.068   5
  -2  -4   0 6261.18 517.352   5
  -2  -4   0 6668.39 675.735   2
   2   4   1 44851.2 1811.09   5
  -2  -4  -1 44157.5 1500.64   5
  -2  -4  -1 41643.9 1880.16   2
  -2  -4  -2 33849.4 1539.13   4
  -2  -4  -2 32448.1 1274.59   5
  -2  -4  -2 29378.9 1580.92   2
  -2  -4  -3 96234.7 3395.63   2
  -2  -4  -3 89872.3 2807.93   5
  -2  -4  -4 1956.71 399.035   4
  -2  -4  -4 2616.10 546.759   2
  -2  -4  -4 2030.13 374.581   5
  -2  -4  -5 203463. 5836.66   4
  -2  -4  -5 209555. 5883.61   5
  -2  -4  -5 220893. 6496.36   2
  -2  -4  -6 537.313 262.655   4
   2   4   6 640.024 255.515   4
  -2  -4  -7 20196.5 1430.49   4
   2   4   7 19242.6 1414.59   4
   2   4   8 60034.0 2690.75   2
  -2  -4  -8 59161.4 2807.78   4
   2   4   9 92219.3 3571.71   2
  -2  -4  -9 96463.3 3943.52   4
   2   4  10 34686.5 1993.36   2
  -2  -4 -10 31742.4 2200.80   4
  -2  -4 -11 711.412 428.386   4
   2   4  11 1479.32 446.346   2
  -2  -4 -11 1314.62 316.887   3
   2   4  12 13189.7 1202.66   2
  -2  -4 -12 13523.3 1543.90   4
  -2  -4 -13 13935.8 1654.79   4
  -2  -4 -14 2852.31 810.718   4
  -2  -4 -15 5821.65 1239.19   4
  -2  -4 -16 2143.02 835.933   4
   2   5 -13 1767.32 697.650   1
   2   5 -13 2695.46 1193.61   5
   2   5 -12 4549.92 1279.24   5
   2   5 -12 6486.32 1136.24   1
   2   5 -11 2911.20 778.055   1
   2   5 -11 1379.96 740.110   5
   2   5 -10 11257.5 1772.37   5
   2   5 -10 13074.6 1418.97   1
  -2  -5  10 12422.6 1191.97   3
   2   5  -9 28664.6 2044.24   1
   2   5  -9 24683.7 2460.47   5
  -2  -5   8 489.506 326.586   3
   2   5  -8 15.2457 351.447   5
   2   5  -7 62463.6 3586.54   5
  -2  -5   7 72395.8 3203.23   3
   2   5  -6 79432.0 3776.50   5
  -2  -5   6 81748.2 3421.68   3
   2   5  -5 68584.5 3238.70   5
  -2  -5   5 72755.6 3097.88   3
  -2  -5   5 71541.0 2721.59   4
   2   5  -4 52647.6 2536.41   5
  -2  -5   4 53384.6 2525.25   3
  -2  -5   3 4358.92 668.469   3
   2   5  -3 3908.94 576.468   5
  -2  -5   3 4159.75 493.766   4
   2   5  -2 232554. 6173.83   5
  -2  -5   2 235577. 5852.61   4
  -2  -5   2 238247. 6676.46   3
   2   5  -1 23597.5 1202.61   5
  -2  -5   1 23030.0 1497.95   3
   2   5   0 92286.5 2683.76   5
  -2  -5   0 87989.0 3205.48   2
  -2  -5   0 94611.1 3382.96   3
   2   5   1 11504.0 679.911   5
  -2  -5  -1 12164.1 1039.70   2
  -2  -5  -1 12505.4 1055.85   3
  -2  -5  -2 13141.6 838.013   4
  -2  -5  -2 12260.1 576.443   5
  -2  -5  -2 11946.9 1064.33   2
  -2  -5  -2 12868.8 1071.85   3
  -2  -5  -3 5918.48 584.580   4
  -2  -5  -3 5227.92 412.305   5
  -2  -5  -3 4702.98 724.160   2
   2   5   3 4804.31 726.616   2
  -2  -5  -3 5114.14 680.264   3
  -2  -5  -4 13964.7 969.802   4
  -2  -5  -4 13400.6 869.154   5
   2   5   4 14288.5 1257.83   2
  -2  -5  -4 15282.6 1177.68   3
  -2  -5  -5 22876.1 1327.36   4
  -2  -5  -5 24830.7 1393.70   5
   2   5   5 21067.3 1583.25   2
  -2  -5  -5 26608.6 1597.23   3
  -2  -5  -6 919.712 300.765   4
  -2  -5  -6 1443.55 399.151   3
   2   5   6 573.164 232.014   2
   2   5   6 1502.78 382.639   4
   2   5   7 9371.01 943.495   4
   2   5   7 10298.6 1090.79   2
  -2  -5  -7 9781.62 950.173   3
  -2  -5  -7 8893.64 900.403   4
  -2  -5  -8 3577.03 626.383   4
  -2  -5  -8 4381.63 637.858   3
   2   5   8 3209.00 649.657   2
   2   5   9 17406.6 1464.49   2
  -2  -5  -9 18627.1 1316.77   3
  -2  -5  -9 18149.4 1504.45   4
  -2  -5 -10 417.665 333.037   4
  -2  -5 -10 40.4973 231.459   3
   2   5  10-63.4206 321.378   2
   2   5  11 11258.2 1174.62   2
  -2  -5 -11 12761.5 1038.77   3
  -2  -5 -11 12324.5 1368.22   4
  -2  -5 -12 3047.07 721.454   4
   2   5  12 2060.82 553.597   2
   2   5  13 28669.6 1929.66   2
  -2  -5 -13 29657.5 2362.83   4
  -2  -5 -14 11531.4 1540.87   4
  -2  -5 -15 8799.50 1436.08   4
  -2  -5 -16 4562.69 1140.15   4
   2   6 -13 13596.9 2284.13   5
   2   6 -13 14945.0 1890.13   1
   2   6 -12 16449.9 1901.38   1
   2   6 -12 16865.2 2359.74   5
   2   6 -11 3578.03 1125.04   5
   2   6 -11 4730.18 989.148   1
   2   6 -10 36550.4 2562.63   1
   2   6 -10 30714.2 2871.30   5
  -2  -6  10 36846.3 2284.95   3
   2   6  -9 20568.6 1848.51   1
   2   6  -9 20884.3 2219.66   5
  -2  -6   9 23472.9 1826.24   3
  -2  -6   8 96.3351 226.486   3
   2   6  -8 173.730 279.958   5
   2   6  -7 30828.6 2367.98   5
  -2  -6   7 35868.7 2268.75   3
  -2  -6   6 2079.89 545.906   3
   2   6  -6 1283.00 494.727   5
  -2  -6   5 5705.29 863.950   3
   2   6  -5 6826.34 905.838   5
  -2  -6   5 5653.71 668.831   4
   2   6  -4 7675.24 900.249   5
  -2  -6   4 7504.71 960.625   3
  -2  -6   3 4348.90 708.418   3
   2   6  -3 4424.03 597.059   5
  -2  -6   3 3550.91 453.233   4
   2   6  -2 8788.43 736.744   5
  -2  -6   2 8373.03 967.974   3
  -2  -6   2 8634.56 653.070   4
   2   6  -1 72545.7 2283.19   5
  -2  -6   1 68892.9 2171.91   4
  -2  -6   1 75588.8 3142.17   3
   2   6   0 48215.9 2626.13   2
   2   6   0 50806.4 1578.08   5
  -2  -6   0 48928.0 2431.12   3
  -2  -6  -1 3198.41 377.786   4
  -2  -6  -1 2857.36 562.897   3
   2   6   1 2527.14 566.157   2
  -2  -6  -2 51430.5 1783.59   4
  -2  -6  -2 52343.5 2477.98   3
   2   6   2 48262.7 2600.42   2
  -2  -6  -3 16848.9 946.432   4
   2   6   3 15343.1 1398.36   2
  -2  -6  -3 18332.6 1380.08   3
  -2  -6  -4 37708.6 1545.13   4
  -2  -6  -4 32663.4 1181.03   5
   2   6   4 35536.6 2195.80   2
  -2  -6  -4 34047.3 1976.86   3
  -2  -6  -5 11639.3 859.775   4
  -2  -6  -5 12151.4 847.267   5
   2   6   5 12963.9 1271.00   2
  -2  -6  -5 12152.5 1132.79   3
  -2  -6  -6 43585.5 1954.14   5
  -2  -6  -6 43471.7 2257.92   3
   2   6   6 41841.8 2404.78   2
  -2  -6  -6 41908.2 1903.51   4
   2   6   7 19730.7 1344.43   4
   2   6   7 18636.8 1577.16   2
  -2  -6  -7 20717.9 1502.44   3
  -2  -6  -7 20449.2 1361.35   4
  -2  -6  -8 716.194 328.389   4
  -2  -6  -8 826.280 330.045   3
   2   6   8 331.296 249.851   2
   2   6   9 554.461 346.519   2
  -2  -6  -9 1383.96 443.459   4
  -2  -6  -9 1093.64 377.007   3
   2   6  10 20423.5 1685.85   2
  -2  -6 -10 21594.0 1495.73   3
  -2  -6 -10 19972.1 1608.41   4
  -2  -6 -11 513.556 307.801   3
  -2  -6 -11-219.491 276.503   4
   2   6  11 83.3416 285.067   2
  -2  -6 -12 146.378 411.091   4
   2   6  12-92.9182 256.137   2
   2   6  13 11725.5 1284.61   2
  -2  -6 -13 11695.8 1430.43   4
  -2  -6 -14 158.314 434.680   4
  -2  -6 -15 6990.91 1257.45   4
   2   7 -13-888.534 595.508   1
   2   7 -13 1500.10 808.102   5
   2   7 -12 1844.73 725.103   1
   2   7 -12 2033.42 810.996   5
  -2  -7  11 1289.66 460.669   3
   2   7 -11 652.363 431.400   5
   2   7 -10 16074.2 1788.06   1
  -2  -7  10 15603.7 1546.31   3
   2   7 -10 12946.9 1809.51   5
  -2  -7   9 215.803 286.726   3
   2   7  -9 20.0121 373.742   1
   2   7  -9 346.062 469.069   5
   2   7  -8 43227.2 2943.53   5
  -2  -7   8 43116.4 2660.22   3
   2   7  -7 15562.9 1625.13   5
  -2  -7   7 16054.5 1572.87   3
   2   7  -6 16703.8 1532.52   5
  -2  -7   6 18588.2 1693.79   3
  -2  -7   5 1546.62 500.695   3
   2   7  -5 1922.61 487.632   5
  -2  -7   4 5572.09 890.570   3
   2   7  -4 5353.55 734.053   5
   2   7  -3 41260.2 1883.62   5
  -2  -7   3 41424.5 2481.35   3
  -2  -7   3 42026.7 1716.04   4
   2   7  -2 16643.5 975.912   5
  -2  -7   2 17134.6 1493.25   3
  -2  -7   2 16671.7 910.703   4
   2   7  -1 4279.66 795.801   2
  -2  -7   1 3995.08 714.651   3
   2   7  -1 4484.77 367.945   5
  -2  -7   1 3932.27 375.526   4
  -2  -7   0 645.487 152.268   4
  -2  -7   0 350.283 336.610   3
   2   7   0 101.521 276.397   2
  -2  -7  -1 5599.33 427.648   4
  -2  -7  -1 6555.49 889.169   3
   2   7   1 5508.39 875.199   2
  -2  -7  -2 28122.6 1100.78   4
  -2  -7  -2 28916.5 1912.78   3
   2   7   2 26964.8 1986.23   2
  -2  -7  -3 16877.3 850.005   4
   2   7   3 15691.5 1499.83   2
  -2  -7  -3 18536.4 1504.53   3
  -2  -7  -4 556.794 341.353   3
  -2  -7  -4 840.152 226.446   4
   2   7   4 333.330 321.658   2
  -2  -7  -5 1177.98 445.545   3
  -2  -7  -5 1271.73 286.583   4
  -2  -7  -5 1302.52 194.758   5
   2   7   5 948.667 456.419   2
  -2  -7  -5 1163.90 197.633   5
  -2  -7  -6 165215. 4587.44   5
   2   7   6 167077. 5790.91   2
  -2  -7  -6 164205. 5505.97   3
  -2  -7  -6 163297. 4681.01   4
  -2  -7  -7 8205.93 819.437   5
   2   7   7 9841.68 1179.24   2
  -2  -7  -7 8903.29 1053.04   3
  -2  -7  -7 9047.75 855.577   4
   2   7   8 41006.9 2505.57   2
  -2  -7  -8 41486.9 2330.27   3
  -2  -7  -8 41110.0 2069.91   4
  -2  -7  -9 2626.04 583.708   3
  -2  -7  -9 3127.93 596.370   4
   2   7   9 2221.50 625.785   2
   2   7  10 71756.4 3489.10   2
  -2  -7 -10 68081.1 3124.32   3
  -2  -7 -10 74644.7 3237.44   4
  -2  -7 -11 1709.68 511.974   4
   2   7  11 1912.93 612.596   2
   2   7  12 20000.4 1767.25   2
  -2  -7 -12 20543.8 1774.22   4
   2   7  13 43437.9 2655.73   2
  -2  -7 -13 41338.5 2706.65   4
  -2  -7 -14 17855.8 1812.08   4
  -2  -7 -15 360.627 414.209   4
   2   8 -12 824.955 630.615   1
   2   8 -12 1778.45 814.506   5
  -2  -8  11 268.610 288.524   3
   2   8 -11 1187.56 669.935   1
  -2  -8  10-123.948 355.037   3
   2   8 -10-313.428 378.229   1
   2   8 -10-1288.46 619.619   5
  -2  -8   9 123.502 373.435   3
   2   8  -9 781.348 509.822   5
   2   8  -8 9664.51 1343.70   5
  -2  -8   8 11047.1 1375.66   3
  -2  -8   7-107.892 339.105   3
   2   8  -7-41.1659 250.321   5
  -2  -8   6 6679.00 1047.05   3
   2   8  -6 7554.69 1023.61   5
  -2  -8   5 8534.57 1196.47   3
   2   8  -5 8613.83 972.755   5
   2   8  -4 107290. 3702.27   5
  -2  -8   4 111042. 4703.84   3
   2   8  -3 18345.3 1117.72   5
  -2  -8   3 19899.3 1810.09   3
  -2  -8   3 20694.4 1092.85   4
   2   8  -2 29221.6 1188.19   5
  -2  -8   2 28685.1 2157.80   3
  -2  -8   2 28671.6 1224.31   4
   2   8  -1 58654.7 3199.32   2
  -2  -8   1 56652.4 3069.20   3
  -2  -8   1 54503.3 1703.99   4
   2   8   0 42305.3 2656.18   2
  -2  -8   0 44473.8 1307.61   4
  -2  -8   0 41654.2 1268.21   4
  -2  -8  -1 99137.0 2298.86   4
  -2  -8  -1 104802. 4238.36   3
   2   8   1 102532. 4334.91   2
  -2  -8  -2 646.857 322.403   3
  -2  -8  -2 892.286 124.834   4
   2   8   2 474.019 341.285   2
  -2  -8  -3 96437.7 4075.79   3
   2   8   3 99264.8 4257.74   2
  -2  -8  -3 91480.8 2395.46   4
  -2  -8  -4-234.241 272.681   3
  -2  -8  -4 232.682 127.440   4
   2   8   4 392.096 445.511   2
   2   8   5 12251.2 1352.93   2
  -2  -8  -5 12405.5 1324.55   3
  -2  -8  -5 10940.7 733.975   4
  -2  -8  -6 5830.89 922.356   3
  -2  -8  -6 5728.73 374.766   5
   2   8   6 6595.29 1010.78   2
  -2  -8  -6 6735.89 633.139   4
  -2  -8  -7 12675.5 799.008   5
   2   8   7 11248.7 1321.71   2
  -2  -8  -7 10262.3 1203.62   3
  -2  -8  -7 11767.2 919.526   4
  -2  -8  -8 4173.65 760.761   3
   2   8   8 5899.35 978.811   2
  -2  -8  -8 6973.95 757.568   4
  -2  -8  -9 99.3189 340.686   3
  -2  -8  -9 424.827 269.146   4
   2   8   9 725.545 393.081   2
  -2  -8 -10 3755.01 748.943   3
  -2  -8 -10 3950.14 690.953   4
   2   8  10 2678.51 663.687   2
  -2  -8 -11 331.982 262.916   4
   2   8  11 599.269 381.162   2
  -2  -8 -12 7854.80 1051.32   4
   2   8  12 8215.40 1170.64   2
   2   8  13 263.391 441.063   2
   2   9 -11 48206.2 3680.15   1
   2   9 -10 16873.4 2067.43   1
   2   9 -10 13928.6 1766.18   5
  -2  -9  10 11969.3 1528.05   3
   2   9  -9 29151.8 2412.33   5
  -2  -9   9 28588.8 2374.85   3
  -2  -9   8-204.438 327.226   3
   2   9  -8 1026.04 477.487   5
   2   9  -7 31686.9 2186.37   5
  -2  -9   7 33283.0 2523.88   3
   2   9  -6 36963.3 2197.66   5
  -2  -9   6 37053.1 2653.42   3
  -2  -9   5 3621.57 841.680   3
   2   9  -5 3434.56 603.921   5
  -2  -9   4 6459.72 1072.85   3
   2   9  -4 6575.04 700.573   5
  -2  -9   3-467.261 394.906   3
   2   9  -3 231.129 153.544   5
  -2  -9   2 187.290 338.434   3
   2   9  -1 12357.6 1499.41   2
  -2  -9   1 15291.5 1634.39   3
  -2  -9   0 1443.87 617.417   3
   2   9   0 346.902 391.686   2
  -2  -9  -1 3499.59 789.253   3
   2   9   1 2937.64 729.679   2
  -2  -9  -2 24855.4 2110.63   3
   2   9   2 25700.3 2090.73   2
  -2  -9  -3 33633.7 2415.58   3
   2   9   3 35286.1 2478.73   2
  -2  -9  -4 585.373 398.715   3
   2   9   4 790.067 428.305   2
  -2  -9  -5 17524.7 1728.56   3
   2   9   5 17452.2 1707.56   2
  -2  -9  -6 4983.89 934.542   3
   2   9   6 4060.90 840.739   2
  -2  -9  -7 42319.4 2733.76   3
   2   9   7 44948.8 2784.84   2
  -2  -9  -8 4824.11 937.507   3
   2   9   8 6451.77 1030.14   2
  -2  -9  -9 12355.0 1445.12   3
   2   9   9 11954.1 1425.29   2
  -2  -9 -10 3393.79 726.300   3
   2   9  10 4420.94 892.954   2
   2   9  11 1042.73 514.073   2
   2   9  12-29.6577 295.457   2
   2   9  13 15000.0 1622.66   2
  -2 -10  10-242.643 377.237   3
  -2 -10   9 3306.75 832.840   3
  -2 -10   8 323.632 482.580   3
  -2 -10   7 5809.64 1117.86   3
  -2 -10   6 4146.74 943.693   3
  -2 -10   5 59775.2 3606.40   3
  -2 -10   4 10676.9 1478.31   3
  -2 -10   3 3660.01 910.695   3
  -2 -10   2 7010.33 1186.24   3
   2  10  -1 15062.2 1682.34   2
  -2 -10   1 14976.3 1715.48   3
   2  10   0 15342.4 1674.78   2
  -2 -10   0 15271.7 1716.01   3
  -2 -10  -1 292.663 321.294   3
   2  10   1 438.018 367.936   2
  -2 -10  -2 11802.4 1536.12   3
   2  10   2 12306.9 1485.21   2
  -2 -10  -3 8715.02 1289.75   3
   2  10   3 9056.11 1285.92   2
  -2 -10  -4 10306.4 1414.32   3
   2  10   4 10686.9 1367.57   2
  -2 -10  -5 746.501 625.628   3
   2  10   5 900.671 498.952   2
  -2 -10  -6 317.755 469.690   3
   2  10   6-226.357 459.461   2
  -2 -10  -7 3980.63 937.157   3
   2  10   7 4089.09 894.164   2
  -2 -10  -8 17510.7 1808.05   3
   2  10   8 16455.3 1728.47   2
  -2 -10  -9 21663.8 1994.33   3
   2  10   9 21974.1 1975.70   2
   2  10  10 1795.50 654.525   2
   2  10  11 41241.3 2820.76   2
   2  10  12 2409.27 802.055   2
  -2 -11   9 4481.67 1027.28   3
  -2 -11   8 1994.14 710.560   3
  -2 -11   7 6110.77 1207.35   3
  -2 -11   6 3788.54 956.635   3
  -2 -11   5 59.3116 313.768   3
  -2 -11   4 128.744 423.349   3
  -2 -11   3 15929.3 1859.20   3
  -2 -11   2 342.715 436.629   3
   2  11  -1 52745.7 3328.52   2
  -2 -11   1 44559.1 3190.18   3
   2  11   0 23780.6 2176.71   2
  -2 -11   0 22729.4 2227.80   3
  -2 -11  -1 36266.4 2836.04   3
   2  11   1 38843.3 2770.73   2
  -2 -11  -2 12620.5 1638.27   3
   2  11   2 13852.3 1637.28   2
  -2 -11  -3 18550.9 2035.77   3
   2  11   3 20452.0 1964.16   2
  -2 -11  -4 48126.3 3301.18   3
   2  11   4 45867.8 3005.73   2
  -2 -11  -5 7757.06 1273.50   3
   2  11   5 7226.32 1175.69   2
  -2 -11  -6 43698.0 3144.36   3
   2  11   6 44874.0 2954.42   2
  -2 -11  -7 541.959 580.952   3
   2  11   7-324.363 458.490   2
  -2 -11  -8 8756.61 1345.62   3
   2  11   8 10205.7 1368.93   2
  -2 -11  -9 1374.30 605.934   3
   2  11   9 116.586 426.805   2
   2  11  10 8891.06 1341.54   2
  -2 -12   5 515.114 510.091   3
  -2 -12   4 50902.3 3504.65   3
  -2 -12   3 8750.42 1448.78   3
  -2 -12   2-422.520 470.605   3
   2  12  -1 6495.76 1170.23   2
  -2 -12   1 7503.51 1353.91   3
  -2 -12   0 2503.86 884.993   3
   2  12   0 4246.83 1001.92   2
  -2 -12  -1 662.265 529.473   3
   2  12   1 27.1638 402.551   2
  -2 -12  -2 4356.73 1121.05   3
   2  12   2 4036.12 947.036   2
  -2 -12  -3 142.018 539.268   3
   2  12   3 579.951 514.891   2
  -2 -12  -4 981.393 664.538   3
   2  12   4 317.834 622.080   2
  -2 -12  -5 20118.6 2157.54   3
   2  12   5 19969.5 1988.11   2
  -2 -12  -6 11307.0 1644.30   3
   2  12   6 9800.82 1390.56   2
  -2 -12  -7 724.367 492.055   3
   2  12   7 745.072 446.943   2
  -2 -12  -8 10412.4 1521.96   3
  -2 -13   1 15315.0 1980.92   3
   2  13   0 16723.7 1939.77   2
  -2 -13   0 14512.1 1955.41   3
  -2 -13  -1 554.680 703.577   3
   2  13   1 257.390 446.629   2
  -2 -13  -2 3855.56 1086.18   3
   2  13   2 3777.04 903.344   2
  -2 -13  -3 21734.1 2343.15   3
   2  13   3 22107.6 2125.18   2
  -2 -13  -4 1700.89 814.723   3
  -2 -13  -5 1525.18 631.207   3
  -2 -13  -6-255.065 461.043   3
  -2 -13  -7-1661.69 754.579   3
  -3  13   0 4975.49 1000.79   2
  -3  13  -1 2338.06 695.768   2
  -3  13  -2 627.157 401.968   2
  -3  13  -2-268.715 401.170   1
  -3  13  -3 977.655 467.984   2
  -3  13  -3 790.168 561.370   1
  -3  13  -4 884.167 581.143   1
  -3  12   3 1031.91 542.771   2
  -3  12   2 2856.56 819.751   2
  -3  12   1 9587.41 1375.17   2
  -3  12   0 1263.10 608.931   2
  -3  12   0 1492.57 572.922   1
  -3  12  -1 17444.4 1712.77   1
  -3  12  -1 29271.4 2269.08   2
  -3  12  -2 884.692 439.962   2
  -3  12  -2 992.626 467.384   1
  -3  12  -3 1720.88 550.983   2
  -3  12  -3 1490.07 574.815   1
  -3  12  -4 338.581 309.308   2
  -3  12  -4 104.568 309.735   1
  -3  12  -5 9785.99 1466.62   1
  -3  12  -6 3632.63 985.138   1
  -3  11   6 4120.02 1024.16   2
  -3  11   5 148.394 455.082   2
  -3  11   4 309.806 392.871   2
  -3  11   3 3271.07 848.454   2
  -3  11   2 262.545 399.807   2
  -3  11   1-172.620 351.857   2
  -3  11   1 594.987 269.656   1
   3 -11  -1 1237.52 528.290   5
  -3  11   0 9281.31 1119.65   1
  -3  11   0 10213.1 1335.61   2
  -3  11  -1 7246.37 1124.14   2
  -3  11  -1 8217.22 1091.76   1
  -3  11  -2 1706.54 592.511   2
  -3  11  -2 750.894 428.512   1
  -3  11  -3 13148.8 1376.84   2
  -3  11  -3 12089.9 1455.79   1
  -3  11  -4 1206.98 493.119   2
  -3  11  -4 682.553 461.275   1
  -3  11  -5 43954.5 3032.78   1
  -3  11  -5 45407.5 2513.12   2
  -3  11  -6-521.501 573.905   1
  -3  11  -7 26256.3 2482.54   1
  -3  11  -8 7423.90 1393.01   1
   3 -10  -7 7598.57 1290.87   5
   3 -10  -6 10900.6 1522.45   5
   3 -10  -5 52722.3 3352.85   5
   3 -10  -4 11459.5 1507.14   5
  -3  10   3 4899.34 988.315   2
   3 -10  -3 3280.16 843.173   5
  -3  10   2 49564.6 2417.76   1
   3 -10  -2 50408.3 3243.14   5
  -3  10   2 54347.9 3152.91   2
  -3  10   1 4727.23 903.710   2
  -3  10   1 3323.56 669.360   1
   3 -10  -1 2362.78 751.612   5
  -3  10   0 15368.8 1389.41   1
  -3  10   0 17572.0 1654.28   2
   3 -10   0 18088.3 1801.58   5
  -3  10  -1-94.4096 272.469   2
  -3  10  -1-548.217 418.085   1
  -3  10  -2 44086.0 2606.42   1
  -3  10  -2 42506.1 2565.85   2
  -3  10  -3 329.428 276.776   2
  -3  10  -3-131.364 320.404   1
  -3  10  -4 1483.90 479.093   2
  -3  10  -4 1277.05 539.057   1
  -3  10  -5 2420.08 725.937   1
  -3  10  -5 3065.00 636.886   2
  -3  10  -6 1979.36 673.755   1
  -3  10  -6 3055.57 618.043   2
  -3  10  -7 2065.60 732.153   1
  -3  10  -8 119.535 491.570   1
  -3  10  -9 1981.73 852.459   1
   3  -9 -10 11481.9 1842.50   5
   3  -9  -9 5336.06 1199.15   5
   3  -9  -8 6409.60 1346.91   5
   3  -9  -7 1538.87 671.592   5
   3  -9  -6 421.292 433.831   5
   3  -9  -5 8254.19 1315.16   5
   3  -9  -4 1636.16 677.525   5
  -3   9   3 9882.15 872.391   1
   3  -9  -3 12300.5 1598.02   5
  -3   9   2 16828.8 1228.90   1
   3  -9  -2 19262.9 1993.59   5
  -3   9   1 1072.92 368.377   1
   3  -9  -1 697.717 485.674   5
  -3   9   0 1666.77 535.091   2
  -3   9   0 1322.15 395.257   1
   3  -9   0 1131.20 518.115   5
  -3   9   0 1561.47 396.453   4
  -3   9  -1 9342.59 863.441   4
  -3   9  -1 10515.0 1114.78   1
  -3   9  -1 11111.9 1217.86   2
   3  -9   1 10489.7 1383.94   5
  -3   9  -2 16052.5 1459.60   1
  -3   9  -2 16241.5 1155.31   4
  -3   9  -2 15515.1 1418.45   2
  -3   9  -3 1188.02 442.667   2
  -3   9  -3 917.633 297.447   4
  -3   9  -3 809.603 352.761   1
  -3   9  -4 36907.2 2444.26   1
  -3   9  -4 40381.4 1952.16   4
  -3   9  -4 40818.5 2262.38   2
  -3   9  -5 2159.67 623.881   1
  -3   9  -5 1634.44 402.015   4
  -3   9  -5 1561.40 428.236   2
  -3   9  -6 7993.18 864.736   4
  -3   9  -6 6745.60 1137.07   1
  -3   9  -6 8185.36 910.881   2
  -3   9  -7 3574.57 636.006   4
  -3   9  -7 2212.49 751.453   1
  -3   9  -8 12393.4 1631.27   1
  -3   9  -8 10083.4 1078.76   4
  -3   9  -9 10449.9 1531.93   1
  -3   9  -9 11640.2 1226.84   4
  -3   9 -10-228.171 518.043   1
  -3   9 -10 238.600 321.118   4
  -3   9 -11 1487.90 569.841   4
  -3   9 -12-1386.24 569.190   4
   3  -8 -11 490.613 549.078   5
   3  -8 -10 7167.47 1466.70   5
   3  -8  -9 5581.29 1229.30   5
   3  -8  -8 8656.85 1441.60   5
   3  -8  -7 518.730 446.325   5
   3  -8  -6 29021.2 2494.22   5
   3  -8  -5 14191.5 1648.23   5
  -3   8   4 3660.54 428.904   1
   3  -8  -4 4114.98 942.973   5
  -3   8   3 3865.48 491.645   1
   3  -8  -3 3901.97 904.380   5
  -3   8   2-135.077 201.088   1
   3  -8  -2 391.061 425.836   5
  -3   8   1 2288.71 450.769   1
   3  -8  -1 2492.18 799.861   5
  -3   8   0 4829.06 674.194   1
   3  -8   0 4523.91 988.983   5
  -3   8  -1-131.026 220.364   4
   3  -8   1 310.473 314.456   5
  -3   8  -2 808.137 351.778   2
  -3   8  -2 630.804 297.298   4
   3  -8   2 625.871 446.783   5
  -3   8  -2 754.043 345.422   1
  -3   8  -3 29765.0 1685.51   4
  -3   8  -3 31327.6 1886.94   2
  -3   8  -3 27438.7 1927.33   1
  -3   8  -4 7562.34 825.757   4
  -3   8  -4 7644.05 893.207   2
  -3   8  -4 9357.90 1141.32   1
  -3   8  -5 2669.12 519.611   2
  -3   8  -5 3027.35 746.415   1
  -3   8  -5 2980.37 545.510   4
  -3   8  -6 20393.1 1450.94   4
  -3   8  -6 20734.4 1404.88   2
  -3   8  -6 17800.6 1740.84   1
  -3   8  -7 4695.43 984.477   1
  -3   8  -7 4931.98 654.449   2
  -3   8  -7 5420.33 767.557   4
  -3   8  -8 39894.7 2253.03   4
  -3   8  -8 37404.4 2760.86   1
  -3   8  -9-596.490 368.417   4
  -3   8  -9 650.346 433.235   1
  -3   8 -10 69037.6 3396.99   4
  -3   8 -11 2395.46 686.738   4
  -3   8 -12 8446.87 1229.70   4
  -3   8 -13 4815.64 942.669   4
   3  -7 -12-711.105 657.856   5
   3  -7 -11 994.750 720.338   5
   3  -7 -10 1074.00 679.453   5
   3  -7  -9 669.861 511.102   5
   3  -7  -8 11149.5 1589.79   5
   3  -7  -7 7228.63 1259.07   5
   3  -7  -6 11680.8 1558.55   5
   3  -7  -5 16725.6 1801.72   5
  -3   7   4 43098.1 1489.81   1
   3  -7  -4 46210.0 2966.90   5
  -3   7   3 1071.32 239.695   1
   3  -7  -3 1689.54 634.385   5
  -3   7   2 51253.9 1978.83   1
   3  -7  -2 52012.7 3210.53   5
   3  -7  -1 62726.5 3640.25   5
  -3   7   1 61403.3 2364.43   1
   3  -7   0 66802.7 3840.01   5
  -3   7   0 65951.8 2599.40   1
  -3   7  -1 35514.2 2002.53   4
  -3   7  -1 32029.7 1785.85   1
   3  -7   1 34346.9 2651.08   5
  -3   7  -2 713.854 325.587   1
  -3   7  -2 1243.43 368.952   4
   3  -7   2 1162.75 490.042   5
  -3   7  -3 86818.3 3319.62   4
  -3   7  -3 88657.1 3530.20   1
  -3   7  -4 9289.03 959.807   4
  -3   7  -4 9806.86 958.773   2
  -3   7  -4 10049.1 1126.11   1
  -3   7  -5 32741.1 1881.72   4
  -3   7  -5 31991.7 1742.43   2
  -3   7  -5 33973.0 2213.10   1
  -3   7  -6 10253.6 1044.86   4
  -3   7  -6 10927.1 929.326   2
  -3   7  -6 9287.74 1231.75   1
  -3   7  -7 4126.57 571.935   2
  -3   7  -7 3491.29 639.620   4
  -3   7  -7 2234.26 647.934   1
  -3   7  -8 1509.88 500.818   4
  -3   7  -8 1704.48 618.805   1
  -3   7  -9 1025.69 401.305   4
  -3   7 -10 2935.10 695.434   4
  -3   7 -11 1796.46 607.013   4
  -3   7 -12 15174.3 1662.21   4
  -3   7 -13 505.954 496.138   4
  -3   7 -14 10554.5 1528.22   4
   3  -6 -12 2289.96 888.722   5
   3  -6 -11 15131.5 2135.51   5
   3  -6 -10 2868.60 981.138   5
   3  -6  -9 41517.5 3290.46   5
   3  -6  -8 29717.9 2642.34   5
   3  -6  -7 25276.6 2344.18   5
   3  -6  -6 2315.67 761.162   5
   3  -6  -5 14727.8 1658.55   5
   3  -6  -4 3084.03 778.139   5
  -3   6   3 2293.82 271.022   1
   3  -6  -3 1519.11 588.839   5
   3  -6  -2 9126.59 1277.64   5
  -3   6   2 10005.4 674.329   1
  -3   6   1 2529.53 376.006   1
   3  -6  -1 3269.45 809.552   5
   3  -6   0 13090.4 1600.69   5
  -3   6   0 12433.0 915.729   1
   3  -6   1 22029.5 2111.74   5
  -3   6  -1 20178.3 1276.41   1
  -3   6  -2 5071.19 732.036   4
   3  -6   2 4407.80 977.510   5
  -3   6  -2 5120.27 679.581   1
  -3   6  -3 2107.70 473.392   4
   3  -6   3 2847.15 766.759   5
  -3   6  -3 2682.67 534.128   1
  -3   6  -4 44168.1 2252.63   4
  -3   6  -4 44172.1 2326.50   1
  -3   6  -5 26220.4 1710.86   4
  -3   6  -5 25165.5 1410.57   2
  -3   6  -5 28430.5 1901.44   1
  -3   6  -6 452.190 219.374   2
  -3   6  -6 148.729 316.029   1
  -3   6  -6 179.631 305.788   4
  -3   6  -7 58742.4 2819.60   4
  -3   6  -7 55422.3 3065.55   1
  -3   6  -7 62565.6 2263.37   2
  -3   6  -8 357.286 306.987   4
  -3   6  -8 124.676 104.511   2
  -3   6  -9 6667.04 999.167   4
  -3   6 -10 1638.95 542.455   4
  -3   6 -11 25327.4 2103.22   4
  -3   6 -12 5497.66 1024.32   4
  -3   6 -13 2146.78 740.728   4
  -3   6 -14 1194.33 709.336   4
   3  -5 -12 7789.04 1645.19   5
   3  -5 -11 1741.36 716.482   5
   3  -5 -10-116.674 572.004   5
   3  -5  -9 5905.86 1287.27   5
   3  -5  -8 4776.07 1066.17   5
   3  -5  -7 30219.2 2559.47   5
   3  -5  -6 1822.54 617.145   5
   3  -5  -5 14000.6 1606.80   5
   3  -5  -4 10326.1 1346.85   5
  -3   5   4 11651.4 928.314   3
   3  -5  -3 70977.2 3735.23   5
  -3   5   3 84628.1 3010.49   3
   3  -5  -2 20452.5 1842.39   5
   3  -5  -1 10991.9 1372.55   5
  -3   5   1 11085.7 723.847   1
   3  -5   0 21326.5 1998.33   5
  -3   5   0 21430.3 1141.21   1
  -3   5  -1 2731.25 430.699   1
   3  -5   1 2079.30 680.351   5
   3  -5   2 6063.00 1087.30   5
  -3   5  -2 7152.23 750.316   1
  -3   5  -3 1855.68 416.606   1
  -3   5  -3 1252.01 406.675   4
   3  -5   3 1402.93 552.917   5
  -3   5  -4 886.762 347.981   4
  -3   5  -4 653.325 317.686   1
  -3   5  -5 312.310 281.404   4
  -3   5  -5 657.756 374.654   1
  -3   5  -6 23444.1 1665.82   4
  -3   5  -6 22583.2 1159.08   2
  -3   5  -7 16548.9 1461.27   4
  -3   5  -7 19676.6 1006.75   2
  -3   5  -8 15790.5 1470.96   4
  -3   5  -9 6887.80 1004.89   4
  -3   5 -10-208.373 352.266   4
  -3   5 -11 63116.5 3491.45   4
  -3   5 -12 1038.28 565.421   4
  -3   5 -13 40041.0 2981.43   4
  -3   5 -14 3180.08 1005.87   4
   3  -4 -13 1476.43 898.139   5
   3  -4 -12 24103.1 2881.35   5
   3  -4 -11-7.65890 434.558   5
   3  -4 -10 338.819 497.714   5
   3  -4  -9 6053.79 1294.19   5
   3  -4  -8 13465.1 1784.25   5
   3  -4  -7 2767.10 816.117   5
  -3   4   6 4378.67 479.917   3
   3  -4  -6 3116.76 826.014   5
   3  -4  -5 650.830 442.357   5
   3  -4  -4 4790.19 917.569   5
   3  -4  -3 93202.0 4215.04   5
   3  -4  -2 329.717 408.251   5
   3  -4  -1 16542.6 1629.41   5
   3  -4   0 32856.5 2405.05   5
   3  -4   1 195466. 7149.96   5
   3  -4   2 30637.4 2461.93   5
  -3   4  -3 29802.3 1894.73   4
   3  -4   3 28289.0 2339.27   5
  -3   4  -4 79565.7 3384.39   4
  -3   4  -5 18444.1 1515.54   4
  -3   4  -6 37063.4 2210.35   4
  -3   4  -7 374.327 270.722   4
  -3   4  -7 408.696 123.258   2
  -3   4  -8 100346. 4180.80   4
  -3   4  -9 1238.55 522.005   4
  -3   4 -10 1805.72 614.948   4
  -3   4 -11 1174.97 527.130   4
  -3   4 -12 1423.72 651.981   4
  -3   4 -13 278.007 727.366   4
  -3   4 -14 974.469 657.996   4
  -3   4 -15 1511.98 669.915   4
   3  -3 -13 12961.6 2218.78   5
   3  -3 -12 10688.4 1965.58   5
   3  -3 -11 4431.82 1224.12   5
   3  -3 -10 74643.5 4758.33   5
   3  -3  -9 9141.52 1527.32   5
   3  -3  -8 21750.0 2237.92   5
  -3   3   7 5429.53 482.688   3
   3  -3  -7 5475.16 1113.57   5
   3  -3  -6 110890. 5028.46   5
   3  -3  -5 52730.7 3214.62   5
   3  -3  -4 39396.9 2630.86   5
   3  -3  -3 6240.14 992.796   5
   3  -3  -2 58580.5 3136.42   5
   3  -3  -1 3476.00 748.902   5
   3  -3   0 4820.29 860.477   5
   3  -3   1 12172.4 1455.83   5
   3  -3   2 7192.75 618.459   1
   3  -3   2 7480.00 1190.77   5
  -3   3  -3 20480.5 1534.10   4
   3  -3   3 19616.6 1148.23   1
   3  -3   3 18823.4 1856.52   5
  -3   3  -4 71302.4 3228.41   4
   3  -3   4 69506.5 2585.73   1
  -3   3  -5 1146.25 446.960   4
  -3   3  -6 601.315 370.254   4
  -3   3  -7 58080.3 3009.17   4
  -3   3  -8 53135.8 2932.46   4
  -3   3  -9 6165.20 997.307   4
  -3   3 -10 29547.7 2297.81   4
  -3   3 -11 3533.46 856.934   4
  -3   3 -12 27730.0 2424.74   4
  -3   3 -13 6772.52 1277.98   4
  -3   3 -14 17014.5 2104.46   4
  -3   3 -15 7110.98 1390.16   4
   3  -2 -13 10494.5 2017.72   5
   3  -2 -12-119.561 497.429   5
   3  -2 -11 2172.30 898.641   5
   3  -2 -10 1510.00 740.559   5
   3  -2  -9 5133.30 1157.91   5
   3  -2  -8-450.798 428.359   5
   3  -2  -7 5.11519 313.237   5
   3  -2  -6 24038.7 2168.33   5
   3  -2  -5 7849.42 1177.30   5
   3  -2  -4 24919.3 2046.88   5
   3  -2  -3 644.953 370.634   5
   3  -2  -2 21979.9 1816.11   5
   3  -2  -1 6573.22 401.778   1
   3  -2  -1 8152.48 1090.40   5
   3  -2   0 97816.6 4265.61   5
   3  -2   0 101048. 2728.09   1
   3  -2   1 52960.1 3086.78   5
   3  -2   1 57085.4 1900.31   1
   3  -2   2 24696.1 2153.34   5
   3  -2   2 26893.7 1273.36   1
  -3   2  -3 11484.8 1140.86   4
   3  -2   3 13369.2 1544.57   5
   3  -2   3 14126.6 948.689   1
  -3   2  -4 2741.76 615.796   4
   3  -2   4 2341.58 756.424   5
   3  -2   4 2785.12 451.638   1
   3  -2   5 3923.50 555.531   1
  -3   2  -5 4040.44 756.117   4
  -3   2  -6 436.377 399.998   4
  -3   2  -7 6701.82 999.515   4
  -3   2  -8 622.463 402.732   4
  -3   2  -9 40798.8 2666.76   4
  -3   2 -10 10434.2 1373.56   4
  -3   2 -11 7020.83 1183.74   4
  -3   2 -12 7243.93 1261.87   4
  -3   2 -13 15168.6 1895.90   4
  -3   2 -14 33643.5 3005.36   4
  -3   2 -15 209.279 506.126   4
   3  -1 -13 9009.13 1931.43   5
   3  -1 -12 2443.86 1038.86   5
   3  -1 -11 28549.4 3087.58   5
   3  -1 -10 19419.9 2385.20   5
   3  -1  -9 16502.0 2073.14   5
   3  -1  -8 8197.35 1346.57   5
  -3   1   8 7774.73 635.941   3
   3  -1  -7 11542.0 1547.63   5
   3  -1  -6 426.166 277.520   5
   3  -1  -5 262.366 312.317   5
   3  -1  -4 13533.7 1471.79   5
   3  -1  -3 19473.4 1718.74   5
   3  -1  -2 67123.5 3288.23   5
   3  -1  -1 70525.8 3377.81   5
   3  -1   0 23724.0 1853.08   5
   3  -1   1 4215.76 797.376   5
   3  -1   2 113640. 4860.73   5
   3  -1   3 564.377 275.153   5
  -3   1  -4 127365. 4582.11   4
   3  -1   4 127945. 5325.83   5
   3  -1   5 132752. 4264.32   1
  -3   1  -5 140210. 5205.03   4
  -3   1  -6 129405. 5048.33   4
  -3   1  -6 112020. 3033.39   2
  -3   1  -7 26497.3 2049.29   4
  -3   1  -7 24258.9 1015.86   2
  -3   1  -8 5448.25 966.933   4
  -3   1  -9 96557.2 4414.72   4
  -3   1 -10 5986.07 1052.72   4
  -3   1 -11 30094.1 2461.21   4
  -3   1 -12 1317.82 636.255   4
  -3   1 -13 8824.35 1484.71   4
  -3   1 -14 3038.99 1001.22   4
  -3   1 -15-380.190 574.551   4
   3   0 -13 10432.7 2173.67   5
   3   0 -12 3876.41 1344.45   5
   3   0 -11 3038.62 870.350   5
   3   0 -10 10108.0 1742.99   5
   3   0  -9 22320.2 2441.69   5
  -3   0   9 22463.2 1144.82   3
   3   0  -8 28632.9 2631.41   5
  -3   0   8 33376.1 1505.69   3
   3   0  -7 77648.5 4228.46   5
   3   0  -6 4875.13 426.786   1
   3   0  -6 2887.95 716.726   5
   3   0  -5 70800.8 2012.81   1
   3   0  -5 66799.9 3588.55   5
   3   0  -4 37492.6 2459.78   5
   3   0  -3 160225. 5682.10   5
   3   0  -2 96720.1 4029.67   5
   3   0  -1 59976.1 3010.54   5
   3   0   0 10585.2 1166.55   5
   3   0   1 78908.1 3622.40   5
   3   0   2 11380.8 1348.21   5
   3   0   3 5338.44 943.855   5
  -3   0  -4 10883.3 1115.06   4
  -3   0  -5 6543.77 940.881   4
  -3   0  -5 5454.17 929.125   5
  -3   0  -5 5697.66 497.172   2
  -3   0  -6 17497.5 1643.30   4
  -3   0  -6 16286.4 892.950   2
  -3   0  -7 24142.0 1963.34   4
  -3   0  -7 21507.8 1154.21   2
  -3   0  -8 457.824 369.215   4
  -3   0  -9 8104.83 1194.29   4
  -3   0 -10 49157.9 3124.94   4
  -3   0 -11 14580.4 1708.17   4
  -3   0 -12-305.585 406.085   4
  -3   0 -13 19580.7 2199.53   4
  -3   0 -14 1003.36 601.837   4
  -3   0 -15 9103.74 1647.40   4
   3   1 -13 19131.2 2840.77   5
   3   1 -12 16253.4 2542.37   5
   3   1 -11 7427.47 1552.60   5
   3   1 -10 35739.4 3334.00   5
  -3  -1   9 2099.06 399.806   3
   3   1  -9 3374.14 970.061   5
  -3  -1   8 1993.04 411.834   3
   3   1  -8 1987.29 691.408   5
  -3  -1   7 501.471 235.416   3
   3   1  -7 320.320 175.715   1
   3   1  -6 7085.10 614.945   1
   3   1  -6 6715.61 1117.83   5
   3   1  -5 52.6232 275.309   5
   3   1  -4 2139.15 589.486   5
   3   1  -3 25974.1 1939.69   5
  -3  -1   3 31961.8 2016.80   5
   3   1  -2 9997.71 1149.22   5
   3   1  -1 81725.0 3527.98   5
   3   1   0 1987.16 484.186   5
  -3  -1  -1 17093.9 1327.87   5
   3   1   1 14822.2 1402.96   5
  -3  -1  -2 7571.44 899.390   5
   3   1   2 6085.39 930.795   5
  -3  -1  -3 104963. 3054.11   2
   3   1   3 96010.6 4251.87   5
  -3  -1  -4 67379.5 3013.25   4
  -3  -1  -4 70653.0 2340.94   2
  -3  -1  -5 40042.3 2310.46   4
  -3  -1  -5 40436.7 1650.04   2
  -3  -1  -6 1015.40 261.333   2
  -3  -1  -6 1651.83 522.169   4
  -3  -1  -7 2654.23 437.084   2
  -3  -1  -7 3477.44 750.316   4
  -3  -1  -8 10844.4 1306.31   4
  -3  -1  -9 494.660 362.110   4
  -3  -1 -10 991.178 514.573   4
  -3  -1 -11 779.171 438.038   4
  -3  -1 -12 8991.60 1398.52   4
  -3  -1 -13 18178.3 2139.90   4
  -3  -1 -14 9452.02 1595.68   4
  -3  -1 -15 975.975 698.630   4
   3   2 -13 20856.8 3028.52   5
   3   2 -12 408.606 654.168   5
   3   2 -11 5354.22 1437.54   5
   3   2 -10 27253.0 2954.50   5
   3   2 -10 34851.1 2020.73   1
   3   2  -9 11217.2 1036.94   1
   3   2  -9 10426.2 1696.38   5
  -3  -2   9 11318.1 1009.16   3
   3   2  -8 20177.4 2198.27   5
  -3  -2   8 22387.6 1405.45   3
  -3  -2   7 1998.34 415.068   3
   3   2  -7 1341.62 646.788   5
   3   2  -6 85936.7 4300.69   5
  -3  -2   6 91333.6 3184.11   3
   3   2  -5-176.551 273.853   5
   3   2  -4 2661.32 640.288   5
   3   2  -3 25479.7 1875.36   5
  -3  -2   3 31398.0 1946.79   5
   3   2  -2 53075.2 2721.09   5
   3   2  -1 2546.88 543.717   5
  -3  -2   0 21761.2 1424.57   5
   3   2   0 19608.5 1521.86   5
   3   2   1 8006.73 986.235   5
  -3  -2  -1 7939.50 836.199   5
   3   2   2 295.915 326.632   5
  -3  -2  -2 186.372 138.606   5
  -3  -2  -2 512.332 227.255   2
  -3  -2  -3 122860. 4155.47   4
  -3  -2  -3 119993. 4089.40   5
   3   2   3 112344. 4484.01   5
  -3  -2  -3 116985. 3546.29   2
  -3  -2  -4 27127.9 1707.64   4
  -3  -2  -4 25592.2 1338.16   2
  -3  -2  -5 5622.10 813.973   4
  -3  -2  -5 5769.58 618.263   2
  -3  -2  -6 10973.5 1183.18   4
  -3  -2  -6 11691.9 1306.86   5
  -3  -2  -6 10856.3 920.207   2
  -3  -2  -7 205969. 6662.23   4
  -3  -2  -7 192706. 5844.42   2
  -3  -2  -8 23284.8 1914.35   4
  -3  -2  -9 41746.1 2699.75   4
  -3  -2 -10 52111.6 3145.25   4
  -3  -2 -11 41527.2 2902.52   4
  -3  -2 -12 12427.7 1633.64   4
  -3  -2 -13 61.1552 397.357   4
  -3  -2 -14 53003.3 3795.00   4
  -3  -2 -15 737.187 523.677   4
   3   3 -13 14360.2 2492.75   5
   3   3 -12-2373.15 1021.59   5
   3   3 -11 4577.14 1288.33   5
   3   3 -10 3962.76 728.237   1
   3   3 -10 1278.07 734.720   5
  -3  -3   9 1358.25 399.893   3
   3   3  -9 1785.81 471.498   1
   3   3  -9 1126.49 702.835   5
   3   3  -8 2590.90 530.703   1
  -3  -3   8 1970.10 461.485   3
   3   3  -8 1894.34 692.751   5
   3   3  -7 45290.8 3164.17   5
  -3  -3   7 52002.3 2392.18   3
   3   3  -6 11476.9 1439.45   5
  -3  -3   6 12568.0 1065.45   3
   3   3  -5 18381.6 1729.99   5
  -3  -3   5 20520.0 1358.97   3
   3   3  -4 70571.8 3424.07   5
   3   3  -3 22796.4 1732.57   5
   3   3  -2 77876.9 3346.27   5
   3   3  -1 69042.8 3028.09   5
  -3  -3   1 70926.7 2822.68   5
  -3  -3   0 199886. 5604.19   2
   3   3   0 213202. 6309.58   5
  -3  -3   0 222129. 5953.70   5
   3   3   1 27001.0 1803.81   5
  -3  -3  -1 29438.5 1589.41   5
  -3  -3  -1 26877.8 1431.71   2
   3   3   2 26727.3 1839.77   5
  -3  -3  -2 29774.7 1591.68   5
  -3  -3  -2 27099.2 1463.21   2
   3   3   3 3953.87 700.367   5
  -3  -3  -3 3303.52 554.489   4
  -3  -3  -3 4149.34 574.578   5
  -3  -3  -3 3143.41 469.168   2
  -3  -3  -4 138773. 4509.56   4
  -3  -3  -4 135855. 4417.04   5
  -3  -3  -4 132575. 4104.62   2
  -3  -3  -5 11498.0 1104.97   4
  -3  -3  -5 12463.7 1006.34   2
  -3  -3  -6 12021.4 1186.33   4
  -3  -3  -6 12392.4 1082.29   2
  -3  -3  -7-53.8744 191.597   2
  -3  -3  -7-174.655 234.238   5
  -3  -3  -7 81.9714 227.743   4
  -3  -3  -8 1311.59 487.241   4
  -3  -3  -9 3016.08 697.613   4
  -3  -3 -10 25496.4 2096.07   4
  -3  -3 -11 1902.30 637.832   4
  -3  -3 -12 597.120 432.743   4
  -3  -3 -13 27462.8 2535.95   4
  -3  -3 -14 30588.2 2744.56   4
  -3  -3 -15 3064.46 952.518   4
   3   4 -13 2324.65 1047.89   5
   3   4 -12 28427.3 3275.10   5
   3   4 -11 1471.40 622.356   1
   3   4 -11 305.369 664.020   5
   3   4 -10 18312.4 1654.13   1
   3   4 -10 12694.2 1948.70   5
   3   4  -9 48169.0 2626.72   1
  -3  -4   9 49903.7 2590.11   3
   3   4  -8 24699.2 2427.55   5
  -3  -4   8 32518.7 1997.93   3
   3   4  -7 41060.7 2942.47   5
  -3  -4   7 43015.9 2288.21   3
  -3  -4   6 905.483 370.694   3
   3   4  -6 674.351 391.416   5
  -3  -4   5 4715.58 685.411   3
   3   4  -5 4440.36 845.714   5
   3   4  -4 13405.4 1342.32   5
  -3  -4   4 13724.7 1159.56   3
   3   4  -3 9960.70 1107.96   5
  -3  -4   3 10514.4 1022.17   3
   3   4  -2 4293.10 677.377   5
   3   4  -1 113.271 167.106   5
  -3  -4   1 551.710 264.408   5
   3   4   0 29182.6 1721.47   5
  -3  -4   0 28051.2 1501.61   5
  -3  -4  -1 3831.39 507.195   5
   3   4   1 2695.97 543.413   5
  -3  -4  -2 73418.7 2638.90   5
   3   4   2 71227.1 3012.45   5
  -3  -4  -3 300.372 248.664   4
  -3  -4  -3 665.268 215.584   5
  -3  -4  -4 20414.9 1377.48   4
  -3  -4  -4 16519.6 1145.09   5
  -3  -4  -5 8682.70 929.333   4
  -3  -4  -5 8847.69 914.542   5
   3   4   6 102834. 3760.87   2
  -3  -4  -6 104454. 3895.44   4
   3   4   7 58197.6 2652.19   2
  -3  -4  -7 59008.8 2841.12   4
  -3  -4  -7 59045.5 2989.10   5
   3   4   8 8459.18 927.948   2
  -3  -4  -8 9233.44 1112.53   4
  -3  -4  -9 7102.41 1038.08   4
   3   4   9 9035.05 965.856   2
   3   4  10 8559.99 950.674   2
  -3  -4 -10 9835.94 1248.18   4
  -3  -4 -11 1076.60 519.492   4
   3   4  11 1838.03 463.474   2
  -3  -4 -12 2594.69 759.705   4
   3   4  12 1775.59 447.678   2
  -3  -4 -13 4159.62 1008.97   4
  -3  -4 -14-336.202 475.910   4
  -3  -4 -15 10573.5 1670.65   4
   3   5 -12 864.942 657.784   5
   3   5 -11 1218.40 580.996   1
   3   5 -11-695.144 609.427   5
   3   5 -10 18990.6 1793.57   1
  -3  -5  10 18437.5 1594.79   3
   3   5 -10 15178.2 2097.74   5
   3   5  -9 14485.9 1507.24   1
  -3  -5   9 12076.0 1310.98   3
   3   5  -9 11630.3 1713.22   5
   3   5  -8 24790.7 2406.43   5
  -3  -5   8 31193.9 2109.03   3
  -3  -5   7 4678.57 748.753   3
   3   5  -7 5411.19 1040.96   5
  -3  -5   6 1243.10 415.040   3
   3   5  -6 2053.41 651.973   5
   3   5  -5 78516.0 3704.67   5
  -3  -5   5 79186.0 3346.37   3
   3   5  -4 28813.5 1976.36   5
  -3  -5   4 30091.2 1865.74   3
   3   5  -3 45044.1 2386.87   5
  -3  -5   3 43664.8 2298.26   3
   3   5  -2 18595.6 1392.28   5
  -3  -5   2 17579.7 1363.46   3
   3   5  -1 23160.0 1485.72   5
  -3  -5   1 22778.9 1580.13   3
   3   5   0 80.6335 150.609   5
  -3  -5   0 90.5346 154.713   5
   3   5   1 29.7512 247.768   5
  -3  -5  -1 188.386 161.685   5
  -3  -5  -2 38457.1 1635.55   5
   3   5   2 37201.4 1880.52   5
  -3  -5  -3 6017.19 686.293   4
  -3  -5  -3 5232.07 542.598   5
   3   5   4 17689.7 1457.43   2
  -3  -5  -4 18519.6 1266.31   4
  -3  -5  -4 15871.9 1025.13   5
   3   5   5 39921.5 2277.87   2
  -3  -5  -5 43952.2 2099.25   4
  -3  -5  -5 37490.8 1824.54   5
   3   5   6 32973.6 2048.66   2
  -3  -5  -6 31542.1 1833.36   4
  -3  -5  -7 654.561 368.154   4
   3   5   7 399.026 304.581   2
  -3  -5  -8 45838.2 2468.57   4
   3   5   8 45517.2 2493.79   2
  -3  -5  -9 4198.07 782.265   4
   3   5   9 4520.83 755.933   2
   3   5  10 33210.8 2091.11   2
  -3  -5 -10 32726.0 2268.71   4
   3   5  11 40466.5 2340.75   2
  -3  -5 -11 43631.8 2768.30   4
   3   5  12 63514.3 2989.00   2
  -3  -5 -12 60825.2 2700.43   3
  -3  -5 -12 63329.9 3575.48   4
  -3  -5 -13 3494.46 868.729   4
  -3  -5 -14 10931.9 1531.70   4
  -3  -5 -15 12744.5 1759.00   4
   3   6 -12 6053.19 1498.43   5
   3   6 -11 6025.84 1342.20   5
   3   6 -11 7350.55 1267.74   1
   3   6 -10 12295.6 1540.33   1
  -3  -6  10 12176.8 1380.63   3
   3   6 -10 11141.5 1733.80   5
  -3  -6   9 3073.36 748.289   3
   3   6  -9 2958.22 812.740   5
  -3  -6   8 527.373 449.198   3
   3   6  -8-15.6974 332.919   5
   3   6  -7 13624.5 1593.68   5
  -3  -6   7 12210.7 1345.44   3
  -3  -6   6 915.056 398.102   3
   3   6  -6 899.704 408.956   5
   3   6  -5 11396.3 1292.52   5
  -3  -6   5 11437.0 1225.88   3
   3   6  -4 66419.3 3091.31   5
  -3  -6   4 63482.0 3069.88   3
   3   6  -3 12745.3 1172.14   5
  -3  -6   3 12020.2 1216.15   3
   3   6  -2 20511.7 1388.66   5
  -3  -6   2 16904.0 1110.00   4
  -3  -6   2 19371.6 1517.68   3
   3   6  -1 50793.4 2201.22   5
  -3  -6   1 49709.0 2557.66   3
   3   6   0 20700.1 1272.58   5
  -3  -6   0 21096.5 1580.32   3
   3   6   1 70678.3 2579.16   5
  -3  -6  -1 76674.9 3278.53   3
  -3  -6  -2 37423.1 1773.37   4
  -3  -6  -2 38502.4 1455.17   5
  -3  -6  -2 39141.1 2197.14   3
   3   6   3 138883. 5010.98   2
  -3  -6  -3 129264. 3968.87   4
  -3  -6  -3 124464. 3462.84   5
  -3  -6  -3 137294. 4650.50   3
   3   6   4 5652.69 905.056   2
  -3  -6  -4 4890.21 611.833   4
  -3  -6  -4 4990.41 481.909   5
  -3  -6  -4 6959.78 890.940   3
   3   6   5 15745.9 1471.02   2
  -3  -6  -5 15718.9 1138.46   4
  -3  -6  -5 13142.6 899.810   5
  -3  -6  -6 2573.30 498.211   4
  -3  -6  -6 2621.62 441.615   5
   3   6   6 2902.91 709.063   2
  -3  -6  -7 90035.8 3415.61   4
   3   6   7 84657.0 3845.71   2
  -3  -6  -7 94186.6 3670.28   3
  -3  -6  -8 4864.52 752.586   4
   3   6   8 3471.25 758.074   2
   3   6   9 7133.87 1013.66   2
  -3  -6  -9 8398.60 967.758   3
  -3  -6  -9 8317.09 1014.02   4
  -3  -6 -10 257.161 307.110   4
  -3  -6 -10 657.342 355.743   3
   3   6  10 210.155 329.433   2
  -3  -6 -11 658.184 430.120   4
  -3  -6 -11 453.271 358.465   3
   3   6  11 542.827 418.007   2
  -3  -6 -12 6836.18 1108.32   4
   3   6  12 4846.98 826.793   2
  -3  -6 -13 5682.40 1016.28   4
  -3  -6 -14 643.726 456.558   4
  -3  -6 -15 2471.46 708.223   4
   3   7 -12-96.7137 501.061   5
   3   7 -11 61894.5 3926.34   1
   3   7 -11 49747.0 3910.93   5
  -3  -7  10 1613.20 549.108   3
   3   7 -10 1385.27 600.081   1
   3   7 -10 208.229 360.194   5
   3   7  -9 27815.6 2593.87   5
  -3  -7   9 34637.7 2461.01   3
  -3  -7   8 4410.25 911.247   3
   3   7  -8 6738.97 1204.21   5
   3   7  -7 22884.3 2034.03   5
  -3  -7   7 26854.2 2129.70   3
   3   7  -6 20162.9 1765.06   5
  -3  -7   6 16749.4 1648.78   3
   3   7  -5 20407.0 1644.16   5
  -3  -7   5 15806.4 1561.01   3
   3   7  -4 62800.0 2896.67   5
  -3  -7   4 57687.7 3069.19   3
  -3  -7   3 6206.28 911.754   3
   3   7  -3 5241.96 705.703   5
  -3  -7   2 440.118 387.119   3
   3   7  -2 407.396 222.822   5
   3   7  -1 4204.74 519.921   5
  -3  -7   1 4379.44 782.571   3
  -3  -7   0 4632.10 780.315   3
   3   7   0 4389.36 498.532   5
  -3  -7  -1 476.804 308.908   3
  -3  -7  -2 2005.55 354.513   4
  -3  -7  -2 2653.08 638.253   3
   3   7   3 20226.9 1807.32   2
  -3  -7  -3 19057.9 1133.21   4
  -3  -7  -3 19854.2 1616.04   3
  -3  -7  -4 450.782 198.242   4
  -3  -7  -4 413.872 302.415   3
  -3  -7  -4 244.010 101.381   5
   3   7   4 572.704 389.170   2
  -3  -7  -5 40041.2 1800.52   4
  -3  -7  -5 33177.1 1311.00   5
  -3  -7  -5 40529.8 2333.92   3
   3   7   5 40496.5 2576.12   2
  -3  -7  -6 214.777 198.641   4
  -3  -7  -6 259.813 346.126   3
   3   7   6 46.4197 347.577   2
  -3  -7  -7 27485.4 1621.31   4
  -3  -7  -7 29803.4 2016.48   3
   3   7   7 27676.9 2144.75   2
  -3  -7  -8 158.007 221.872   4
  -3  -7  -8 222.595 245.597   3
   3   7   8 249.243 314.025   2
  -3  -7  -9 35637.6 2184.15   3
   3   7   9 30578.9 2265.46   2
  -3  -7  -9 31359.1 1970.56   4
  -3  -7 -10 28721.8 1953.02   3
   3   7  10 24695.4 2059.00   2
  -3  -7 -10 30449.0 2035.67   4
  -3  -7 -11 22830.0 1733.56   3
  -3  -7 -11 21560.0 1781.18   4
  -3  -7 -12 1573.58 536.857   4
   3   7  12 1607.71 575.053   2
  -3  -7 -13 2383.94 697.709   4
  -3  -7 -14 1968.46 642.090   4
   3   8 -11 2496.90 848.679   1
   3   8 -11 2520.95 957.105   5
  -3  -8  10 1145.84 619.279   3
   3   8 -10 707.951 514.891   1
   3   8 -10 1941.76 687.138   5
  -3  -8   9-135.214 384.390   3
   3   8  -9 324.170 341.169   5
  -3  -8   8 7571.02 1245.98   3
   3   8  -8 6987.98 1187.78   5
   3   8  -7 43370.2 2766.13   5
  -3  -8   7 41605.2 2852.63   3
  -3  -8   6 2931.78 762.643   3
   3   8  -6 3920.68 810.360   5
   3   8  -5 9676.43 1092.33   5
  -3  -8   5 8836.26 1245.01   3
   3   8  -4 23119.9 1565.11   5
  -3  -8   4 20759.0 1871.85   3
   3   8  -3 25947.2 1510.65   5
  -3  -8   3 25237.2 2018.82   3
   3   8  -2 19774.0 1140.06   5
  -3  -8   2 19726.9 1763.71   3
  -3  -8   1 1132.19 490.276   3
   3   8  -1 1219.00 258.279   5
  -3  -8   0 109525. 4541.85   3
  -3  -8  -1 3683.02 438.608   4
  -3  -8  -1 4053.25 843.055   3
   3   8   2 5309.65 973.440   2
  -3  -8  -2 4619.74 491.055   4
  -3  -8  -2 4803.23 858.285   3
   3   8   3 6005.95 995.365   2
  -3  -8  -3 5083.56 512.236   4
  -3  -8  -3 6411.66 1008.32   3
   3   8   4 18867.2 1829.30   2
  -3  -8  -4 21134.4 1131.17   4
  -3  -8  -4 22468.2 1846.49   3
  -3  -8  -5 2903.14 679.753   3
  -3  -8  -5 1894.51 356.203   4
   3   8   5 1981.68 627.980   2
  -3  -8  -6 1599.18 571.037   3
  -3  -8  -6 1120.67 289.834   4
   3   8   6 2595.95 744.193   2
  -3  -8  -7-59.5974 329.157   3
  -3  -8  -7 179.888 180.967   4
   3   8   7-265.202 441.683   2
  -3  -8  -8 545.136 446.411   3
  -3  -8  -8 280.862 227.009   4
   3   8   8 330.378 401.668   2
  -3  -8  -9 29288.2 2119.22   3
   3   8   9 26369.0 2203.50   2
  -3  -8  -9 30326.8 1861.45   4
   3   8  10 8745.22 1277.74   2
  -3  -8 -10 9701.37 1188.69   3
  -3  -8 -10 8797.42 1039.01   4
  -3  -8 -11 4669.29 867.320   3
  -3  -8 -11 4548.07 803.772   4
   3   8  11 4399.29 901.180   2
   3   8  12-916.325 546.470   2
   3   9 -10 39553.9 3327.13   1
  -3  -9  10 32379.3 2620.16   3
  -3  -9   9 4380.62 995.971   3
  -3  -9   8 390.525 441.510   3
  -3  -9   7 14159.9 1690.41   3
  -3  -9   6-100.233 416.557   3
  -3  -9   5-129.754 433.820   3
  -3  -9   4 5774.56 1078.64   3
  -3  -9   3 1047.76 532.474   3
  -3  -9   2 5316.72 974.569   3
  -3  -9   1 54079.3 3181.43   3
  -3  -9   0 4389.86 877.144   3
  -3  -9  -1 11506.1 1412.12   3
   3   9   2 11487.4 1489.36   2
  -3  -9  -2 13521.4 1535.77   3
   3   9   3 17084.9 1821.75   2
  -3  -9  -3 17879.8 1775.70   3
   3   9   4 40262.1 2831.81   2
  -3  -9  -4 47743.7 2950.75   3
  -3  -9  -5 34436.8 2476.63   3
   3   9   5 28913.1 2392.10   2
  -3  -9  -6 69477.0 3644.57   3
   3   9   6 65731.1 3695.80   2
  -3  -9  -7 4610.68 903.380   3
   3   9   7 4541.62 952.439   2
  -3  -9  -8 9409.99 1270.49   3
   3   9   8 9554.99 1332.64   2
  -3  -9  -9 1471.84 560.418   3
   3   9   9 1832.21 616.919   2
  -3  -9 -10 30520.2 2296.72   3
   3   9  10 27382.0 2312.70   2
   3   9  11 4809.80 984.111   2
   3   9  12 6501.93 1100.86   2
  -3 -10   9 1739.48 754.102   3
  -3 -10   8 35340.6 2818.10   3
  -3 -10   7 2498.92 787.117   3
  -3 -10   6 40545.4 2989.42   3
  -3 -10   5-77.0361 344.634   3
  -3 -10   4 29752.2 2535.86   3
  -3 -10   3 22038.6 2157.02   3
  -3 -10   2 11930.0 1575.84   3
  -3 -10   1 26454.0 2326.57   3
  -3 -10   0 6388.35 1175.88   3
  -3 -10  -1 2643.10 754.082   3
   3  10   2 4680.45 990.426   2
  -3 -10  -2 6668.74 1149.36   3
   3  10   3 1354.74 570.150   2
  -3 -10  -3 1449.49 595.310   3
  -3 -10  -4-159.773 489.062   3
   3  10   4-404.504 538.939   2
  -3 -10  -5 2244.93 711.403   3
   3  10   5 2154.82 661.301   2
  -3 -10  -6 14510.6 1699.48   3
   3  10   6 15409.9 1766.82   2
  -3 -10  -7-14.3928 462.798   3
   3  10   7-773.311 515.837   2
  -3 -10  -8 26030.2 2258.21   3
   3  10   8 25956.7 2279.61   2
  -3 -10  -9 326.248 388.181   3
   3  10   9 426.302 604.629   2
  -3 -10 -10 12715.0 1580.69   3
   3  10  10 13809.6 1674.17   2
   3  10  11 845.579 630.505   2
   3  10  12 18663.9 1945.38   2
  -3 -11   6 1710.44 713.373   3
  -3 -11   5 772.682 527.037   3
  -3 -11   4 9012.16 1441.15   3
  -3 -11   3 16396.4 1934.76   3
  -3 -11   2 38355.9 2987.27   3
  -3 -11   1 701.102 491.371   3
  -3 -11   0 1249.80 622.181   3
  -3 -11  -1 40249.2 3052.43   3
   3  11   2 10643.5 1554.63   2
  -3 -11  -2 10583.7 1567.52   3
   3  11   3 26220.3 2403.33   2
  -3 -11  -3 30276.8 2650.58   3
  -3 -11  -4 1203.52 737.065   3
   3  11   4 839.609 445.089   2
  -3 -11  -5 16244.1 1963.28   3
   3  11   5 16209.8 1853.51   2
  -3 -11  -6 5130.11 1100.86   3
   3  11   6 3086.88 850.299   2
  -3 -11  -7 838.363 481.798   3
   3  11   7 979.096 582.644   2
  -3 -11  -8 9690.28 1485.45   3
   3  11   8 7549.41 1261.03   2
  -3 -11  -9 2627.96 895.636   3
   3  11   9 1299.00 465.082   2
   3  11  10 2029.39 698.806   2
  -3 -12   2 476.588 574.036   3
  -3 -12   1 7326.39 1350.69   3
  -3 -12   0-15.1589 475.549   3
  -3 -12  -1 1389.29 632.252   3
  -3 -12  -2 34697.0 3004.69   3
   3  12   3 4303.30 1006.54   2
  -3 -12  -3 4382.28 1157.29   3
  -3 -12  -4 8126.92 1511.21   3
   3  12   4 7939.61 1334.59   2
  -3 -12  -5 8001.86 1450.48   3
   3  12   5 4635.18 1058.63   2
  -3 -12  -6 7762.13 1403.96   3
   3  12   6 7679.98 1355.45   2
  -3 -12  -7 17887.9 2142.82   3
  -3 -12  -8 13309.1 1780.10   3
  -4  12   1 350.773 597.011   2
  -4  12   0 14963.5 1750.55   2
  -4  12  -1 6858.62 1171.50   2
  -4  12  -2 11633.7 1462.32   2
  -4  12  -3 6363.96 1039.80   2
  -4  12  -4 6340.01 1135.76   1
  -4  12  -5-103.397 456.646   1
  -4  12  -6 1350.27 828.145   1
  -4  11   3 626.449 516.370   2
  -4  11   2 2240.75 744.754   2
   4 -11  -2 1803.91 743.270   5
  -4  11   1 868.554 534.234   2
   4 -11  -1 178.657 622.193   5
  -4  11   0 3583.19 870.665   2
   4 -11   0 4470.64 1110.59   5
  -4  11  -1 263.945 344.865   2
  -4  11  -2 5578.90 1005.82   2
  -4  11  -2 7991.59 1142.04   1
  -4  11  -3-885.044 484.298   1
  -4  11  -3-53.5990 256.110   2
  -4  11  -4 29638.3 2110.14   2
  -4  11  -4 17439.6 1881.51   1
  -4  11  -5 586.815 446.041   1
  -4  11  -6 7030.79 1304.99   1
  -4  11  -7 3768.61 1018.15   1
   4 -10  -7 3537.05 1175.22   5
   4 -10  -6 9819.45 1722.93   5
   4 -10  -5 11221.2 1820.42   5
   4 -10  -4-1218.89 709.035   5
   4 -10  -3 6102.20 1346.47   5
   4 -10  -2 560.418 623.355   5
   4 -10  -1 20809.6 2336.77   5
   4 -10   0 304.847 507.770   5
  -4  10  -1-238.092 306.668   1
  -4  10  -1 865.814 474.485   2
  -4  10  -2 1579.57 612.784   2
  -4  10  -2 1466.94 495.522   1
  -4  10  -3-249.225 346.022   2
  -4  10  -3-292.750 335.886   1
  -4  10  -4-333.143 328.029   2
  -4  10  -4 767.007 511.900   1
  -4  10  -5 2384.22 742.781   1
  -4  10  -6 2131.70 734.922   1
   4  -9  -9 322.554 569.164   5
   4  -9  -8 10102.3 1730.38   5
   4  -9  -7 1207.40 598.199   5
   4  -9  -6 11537.0 1752.53   5
   4  -9  -5 783.224 576.758   5
   4  -9  -4 2354.31 796.033   5
   4  -9  -3 2728.82 893.273   5
   4  -9  -2 22509.5 2476.06   5
   4  -9  -1-369.389 658.594   5
  -4   9   0 15900.6 1449.78   4
   4  -9   0 11836.7 1772.88   5
  -4   9   0 13120.1 1197.94   1
  -4   9  -1 70566.6 3157.34   4
   4  -9   1 68420.4 4215.34   5
  -4   9  -1 66323.4 3074.30   1
  -4   9  -2 1766.35 447.443   4
   4  -9   2 2253.64 856.128   5
  -4   9  -2 1328.23 460.425   1
  -4   9  -3 10832.1 1129.68   4
  -4   9  -3 10437.9 1214.31   2
  -4   9  -3 9481.22 1203.52   1
  -4   9  -4 3428.96 685.423   2
  -4   9  -4 3859.11 693.152   4
  -4   9  -4 4647.99 905.218   1
  -4   9  -5 54534.8 3206.59   1
  -4   9  -5 53099.2 2654.61   4
  -4   9  -5 52089.6 2656.21   2
  -4   9  -6 3042.48 634.361   4
  -4   9  -7 2778.98 637.417   4
  -4   9  -8 3782.42 740.944   4
  -4   9  -9 7184.56 1032.00   4
  -4   9 -10 1124.19 475.833   4
  -4   9 -11 2661.22 713.968   4
   4  -8  -9 31758.8 3133.20   5
   4  -8  -8 3041.38 1052.18   5
   4  -8  -7 25134.6 2652.07   5
   4  -8  -6 4965.08 1193.84   5
   4  -8  -5 2660.76 861.344   5
   4  -8  -4 11758.3 1745.86   5
   4  -8  -3 7941.08 1423.40   5
   4  -8  -2 7831.59 1402.93   5
   4  -8  -1-160.585 476.133   5
   4  -8   0 790.199 556.547   5
  -4   8  -1 5802.09 903.486   4
   4  -8   1 6562.45 1310.91   5
  -4   8  -2 2871.16 650.339   1
  -4   8  -2 3525.72 705.381   4
   4  -8   2 1951.62 780.053   5
  -4   8  -3 1177.86 531.902   1
  -4   8  -3 715.453 379.271   4
  -4   8  -4 743.492 361.328   2
  -4   8  -4 489.377 343.933   4
  -4   8  -5 20332.0 1607.57   4
  -4   8  -5 18202.9 1418.81   2
  -4   8  -6 2702.28 542.810   2
  -4   8  -6 3298.86 676.830   4
  -4   8  -7 42549.5 2481.62   4
  -4   8  -8 3129.36 693.829   4
  -4   8  -9 12573.0 1370.93   4
  -4   8 -10 199.695 383.061   4
  -4   8 -11 9066.42 1266.87   4
  -4   8 -12 11444.4 1498.13   4
   4  -7 -10 2794.91 1025.20   5
   4  -7  -9 4266.60 1214.30   5
   4  -7  -8 2305.70 860.776   5
   4  -7  -7 2947.92 960.077   5
   4  -7  -6 5373.18 1217.16   5
   4  -7  -5 23012.3 2389.21   5
   4  -7  -4 12102.0 1691.36   5
   4  -7  -3 24340.4 2412.39   5
   4  -7  -2 16324.5 2017.19   5
   4  -7  -1 675.478 568.013   5
   4  -7   0 23716.5 2518.74   5
   4  -7   1 2612.52 945.304   5
  -4   7  -2 33071.5 2202.72   4
   4  -7   2 31078.4 2763.78   5
  -4   7  -3 4895.99 805.224   4
   4  -7   3 4097.02 991.801   5
  -4   7  -4 1318.34 463.710   4
  -4   7  -5 1722.60 552.385   4
  -4   7  -6 386.219 224.158   2
  -4   7  -6 469.931 295.371   4
  -4   7  -7 3285.70 720.442   4
  -4   7  -8 218.543 356.869   4
  -4   7  -9 10191.1 1264.74   4
  -4   7 -10 7302.75 1116.99   4
  -4   7 -11 18448.9 1815.88   4
  -4   7 -12 858.083 571.398   4
  -4   7 -13 20950.6 2133.64   4
   4  -6 -10 22053.4 2745.94   5
   4  -6  -9 1920.36 925.860   5
   4  -6  -8 920.494 759.791   5
   4  -6  -7 2937.02 906.370   5
   4  -6  -6 8432.63 1513.39   5
   4  -6  -5 2863.33 918.230   5
   4  -6  -4 16750.0 1960.98   5
   4  -6  -3 452.411 384.840   5
   4  -6  -2 12612.6 1718.11   5
   4  -6  -1 17109.1 2021.93   5
   4  -6   0 1689.91 599.173   5
   4  -6   1 24475.1 2554.21   5
   4  -6   2 13424.6 1831.53   5
  -4   6  -2 15411.6 1458.65   4
  -4   6  -3 49412.5 2720.96   4
   4  -6   3 41175.3 3232.70   5
  -4   6  -4 38013.3 2368.66   4
  -4   6  -5 158.366 321.950   4
  -4   6  -6 35625.3 2305.20   4
  -4   6  -7 24511.9 1889.57   4
  -4   6  -7 20684.1 1200.46   2
  -4   6  -8 54657.7 3005.36   4
  -4   6  -9 6862.24 1062.90   4
  -4   6 -10 6161.88 1079.38   4
  -4   6 -11 241.245 362.245   4
  -4   6 -12 7886.95 1259.42   4
  -4   6 -13-742.682 542.983   4
   4  -5 -11 7379.25 1603.43   5
   4  -5 -10 10766.8 1925.94   5
   4  -5  -9 456.604 554.996   5
   4  -5  -8 12603.4 1937.15   5
   4  -5  -7 55.5035 526.210   5
   4  -5  -6 67465.7 4245.59   5
   4  -5  -5 5832.84 1198.40   5
   4  -5  -4 54123.5 3636.58   5
   4  -5  -3 6606.60 1198.77   5
   4  -5  -2 21112.9 2173.77   5
   4  -5  -1 6707.90 1263.66   5
   4  -5   0 7748.82 1379.44   5
   4  -5   1 45827.9 3472.45   5
   4  -5   2 1165.81 597.676   5
  -4   5  -3 2562.49 626.058   4
   4  -5   3 2981.05 898.982   5
  -4   5  -4 3565.99 755.010   4
   4  -5   4 3606.78 977.508   5
  -4   5  -5 272.207 358.704   4
  -4   5  -6 6665.36 1020.07   4
  -4   5  -7 4764.96 512.373   2
  -4   5  -7 3911.43 804.178   4
  -4   5  -8 16081.1 1603.37   4
  -4   5  -9-40.2582 314.085   4
  -4   5 -10 69831.8 3682.48   4
  -4   5 -11-74.8927 376.665   4
  -4   5 -12 10941.1 1508.44   4
  -4   5 -13 158.324 453.579   4
  -4   5 -14 18190.6 2122.51   4
   4  -4 -11 11900.5 2127.60   5
   4  -4 -10-1103.16 729.438   5
   4  -4  -9 17209.3 2335.55   5
   4  -4  -8 383.654 511.586   5
   4  -4  -7 650.455 533.094   5
   4  -4  -6 17616.1 2095.56   5
   4  -4  -5 2286.40 805.511   5
   4  -4  -4 1042.23 600.471   5
   4  -4  -3 7415.22 1323.35   5
   4  -4  -2 56185.7 3554.12   5
   4  -4  -1 20682.3 2127.93   5
   4  -4   0 27786.8 2545.65   5
   4  -4   1 41481.5 3230.18   5
   4  -4   2 8069.53 1411.32   5
  -4   4  -3 18188.1 1584.98   4
   4  -4   3 17084.0 2059.54   5
  -4   4  -4-107.634 270.274   4
   4  -4   4 368.031 495.741   5
  -4   4  -5 85856.0 3872.71   4
  -4   4  -6 1884.99 588.442   4
  -4   4  -7-27.3881 286.054   4
  -4   4  -8 2426.01 241.797   2
  -4   4  -8 3362.36 764.829   4
  -4   4  -9 130.745 330.403   4
  -4   4 -10 1199.18 508.994   4
  -4   4 -11 5448.78 1057.41   4
  -4   4 -12-84.7789 416.110   4
  -4   4 -13-2.82244 444.798   4
  -4   4 -14 38386.6 3140.48   4
   4  -3 -11 2483.53 1157.94   5
   4  -3 -10 838.436 643.281   5
   4  -3  -9 65561.0 4640.86   5
   4  -3  -8 3074.57 974.647   5
   4  -3  -7 11221.3 1735.39   5
   4  -3  -6 25125.1 2515.86   5
   4  -3  -5 32139.3 2733.07   5
   4  -3  -4 329.419 296.210   5
   4  -3  -3 368.093 537.841   5
   4  -3  -2 44136.2 3064.35   5
   4  -3  -1 11843.6 1565.19   5
   4  -3   0 33475.3 2731.27   5
   4  -3   1 1909.17 332.379   1
   4  -3   1 1279.12 530.982   5
   4  -3   2 181.250 172.295   1
   4  -3   2 354.621 405.395   5
   4  -3   3 444.776 241.580   1
   4  -3   3 777.467 621.000   5
  -4   3  -4 119398. 4541.84   4
   4  -3   4 109084. 5465.05   5
  -4   3  -5 282.984 294.736   4
  -4   3  -6 23683.3 1955.27   4
  -4   3  -7 65327.3 3549.21   4
  -4   3  -8 7216.22 1147.92   4
  -4   3  -8 4432.19 309.466   2
  -4   3  -9 22873.8 2084.19   4
  -4   3 -10 16152.1 1810.08   4
  -4   3 -11 78340.9 4259.00   4
  -4   3 -12 218.958 388.673   4
  -4   3 -13 2773.06 899.094   4
  -4   3 -14-282.905 498.533   4
   4  -2 -11 634.469 803.644   5
   4  -2 -10 186.387 502.209   5
   4  -2  -9 679.965 712.727   5
   4  -2  -8 18931.4 2339.46   5
   4  -2  -7 21614.9 2381.35   5
   4  -2  -6 3788.63 995.344   5
   4  -2  -5 21891.2 2236.88   5
   4  -2  -4 3285.16 878.365   5
   4  -2  -3 100999. 4866.98   5
   4  -2  -2 15303.8 1749.65   5
   4  -2  -1 127318. 3298.47   1
   4  -2  -1 121043. 5440.73   5
   4  -2   0 6644.33 557.854   1
   4  -2   0 4083.77 914.614   5
   4  -2   1 12383.5 1698.64   5
   4  -2   1 14086.5 916.415   1
   4  -2   2 4108.29 1010.14   5
   4  -2   2 5071.75 591.841   1
   4  -2   3 15526.9 1890.20   5
   4  -2   3 16974.9 1158.26   1
  -4   2  -4 32215.6 2096.02   4
   4  -2   4 32782.9 2759.54   5
  -4   2  -5-75.5192 291.006   4
  -4   2  -6 96.7789 303.617   4
  -4   2  -7 20665.4 1907.99   4
  -4   2  -7 18296.6 904.725   2
  -4   2  -8 1796.27 635.222   4
  -4   2  -8 1933.15 250.482   2
  -4   2  -9 1140.02 572.377   4
  -4   2 -10 2248.41 711.450   4
  -4   2 -11 23585.6 2320.68   4
  -4   2 -12 1286.63 612.632   4
  -4   2 -13 36943.4 3123.88   4
  -4   2 -14 3300.77 1046.84   4
   4  -1 -11 2661.47 1043.22   5
   4  -1 -10 6789.26 1574.28   5
   4  -1  -9-719.443 622.082   5
   4  -1  -8 14875.3 2070.18   5
   4  -1  -7 330.942 374.673   5
   4  -1  -6 21331.0 2262.63   5
   4  -1  -5 2657.65 822.617   5
   4  -1  -4 228.812 401.714   5
   4  -1  -3 18767.3 1932.32   5
   4  -1  -2 3851.21 868.375   5
   4  -1  -1 19263.3 1927.68   5
   4  -1   0 276.979 378.930   5
   4  -1   1 35997.3 2790.56   5
   4  -1   2 59040.4 3718.07   5
   4  -1   3 82688.5 4503.77   5
  -4   1  -4 18013.4 1516.60   4
   4  -1   4 14751.5 1803.06   5
  -4   1  -5 5040.88 812.427   4
  -4   1  -6 44256.7 1670.66   2
  -4   1  -6 41467.4 2591.56   4
  -4   1  -7 6851.28 1108.28   4
  -4   1  -7 8188.65 640.258   2
  -4   1  -8 34363.3 2584.37   4
  -4   1  -8 29740.4 1282.55   2
  -4   1  -9 9961.16 1511.61   4
  -4   1 -10 25840.8 2421.45   4
  -4   1 -11 1941.57 738.330   4
  -4   1 -12 483.744 549.011   4
  -4   1 -13 4715.61 1163.60   4
  -4   1 -14-167.080 503.930   4
   4   0 -12 5431.12 1647.13   5
   4   0 -11 6840.29 1723.90   5
   4   0 -10 22789.7 2869.66   5
   4   0  -9 858.895 488.883   5
   4   0  -8 37671.8 3375.09   5
  -4   0   8 43941.3 2070.20   3
   4   0  -7 30564.8 2833.21   5
   4   0  -6 62370.9 4030.89   5
   4   0  -6 65339.1 1904.12   1
   4   0  -5 38388.6 2959.17   5
   4   0  -4 50853.2 3319.66   5
   4   0  -3 1455.89 568.814   5
   4   0  -2 27558.8 2279.29   5
   4   0  -1 32243.4 2471.40   5
   4   0   0 38196.1 2719.76   5
   4   0   1 8748.77 1319.92   5
   4   0   2 50514.8 3350.63   5
   4   0   3 1024.72 511.638   5
  -4   0  -4 14089.3 1334.96   4
   4   0   4 12071.9 1618.21   5
  -4   0  -5 6250.96 590.074   2
  -4   0  -5 5220.94 821.388   4
  -4   0  -6 6793.15 1011.51   4
  -4   0  -6 8066.18 690.472   2
  -4   0  -7 47157.5 2885.60   4
  -4   0  -7 49903.4 1939.19   2
  -4   0  -8 10416.0 1351.15   4
  -4   0  -8 10511.3 806.157   2
  -4   0  -9 42080.9 2942.78   4
  -4   0  -9 44766.6 1806.02   2
  -4   0 -10 13098.1 1663.17   4
  -4   0 -11 809.663 606.953   4
  -4   0 -12 26031.2 2526.52   4
  -4   0 -13 22383.2 2444.39   4
  -4   0 -14 50829.4 3892.19   4
  -4   0 -15 96.3142 475.984   4
   4   1 -12 1110.00 904.478   5
   4   1 -11 879.554 760.058   5
   4   1 -10-652.612 667.367   5
   4   1  -9 2839.42 1010.47   5
   4   1  -8 4512.94 1117.82   5
  -4  -1   8 5891.59 724.345   3
   4   1  -7 363.229 194.097   1
   4   1  -7 6.44365 361.189   5
   4   1  -6-133.942 331.570   5
   4   1  -5 17943.6 1960.77   5
   4   1  -4 30323.0 2507.08   5
   4   1  -3 15264.3 1671.82   5
   4   1  -2 14696.6 1618.74   5
   4   1  -1 5874.03 1045.26   5
   4   1   0 126971. 5291.38   5
   4   1   1 2830.32 719.340   5
   4   1   2 78249.3 4145.13   5
   4   1   3 4909.26 1009.58   5
  -4  -1  -4 54706.3 2098.83   2
  -4  -1  -4 54648.5 2769.90   4
   4   1   4 51719.7 3295.95   5
  -4  -1  -5 2238.42 587.502   4
  -4  -1  -5 2430.04 402.153   2
  -4  -1  -6 1791.68 507.473   4
  -4  -1  -6 841.655 255.980   2
  -4  -1  -7 21429.0 1833.43   4
  -4  -1  -7 23121.7 1318.56   2
  -4  -1  -8 755.756 263.440   2
  -4  -1  -8 548.732 375.065   4
  -4  -1  -9 1362.37 361.158   2
  -4  -1  -9 765.294 462.939   4
  -4  -1 -10 17080.6 1837.30   4
  -4  -1 -11 907.039 530.885   4
  -4  -1 -12 6680.38 1262.49   4
  -4  -1 -13 9660.61 1657.76   4
  -4  -1 -14 9334.71 1654.42   4
  -4  -1 -15 716.242 533.670   4
   4   2 -12 4977.31 1534.96   5
   4   2 -11 6851.76 1719.53   5
   4   2 -10 25360.5 3019.24   5
   4   2  -9 32570.8 3263.60   5
   4   2  -8 9371.48 1653.77   5
  -4  -2   8 10486.8 1048.86   3
   4   2  -7 12181.7 1778.30   5
  -4  -2   7 17042.7 1326.79   3
   4   2  -6 3827.87 893.117   5
   4   2  -5 26054.3 2368.75   5
   4   2  -4 1744.78 604.788   5
   4   2  -3 9463.36 1298.59   5
   4   2  -2 582.066 392.791   5
   4   2  -1 1077.70 503.831   5
   4   2   0 44426.2 2802.51   5
   4   2   1 344.164 380.722   5
  -4  -2  -1-106.348 303.108   5
   4   2   2 10282.6 1414.64   5
  -4  -2  -2 12837.0 1227.41   5
   4   2   3 2694.07 731.077   5
  -4  -2  -3 2602.16 571.352   5
  -4  -2  -4 74475.5 3300.67   4
   4   2   4 81676.3 4038.12   5
  -4  -2  -5 27354.8 1856.19   4
  -4  -2  -5 26472.1 1493.82   2
  -4  -2  -6 41996.5 2457.94   4
  -4  -2  -6 41792.5 1946.48   2
  -4  -2  -7 51947.3 2872.95   4
  -4  -2  -7 52057.0 2297.89   2
  -4  -2  -8 42363.0 2663.04   4
  -4  -2  -8 41545.4 2106.80   2
  -4  -2  -9 11026.9 1376.39   4
  -4  -2  -9 8419.52 942.083   2
  -4  -2 -10 311.501 365.996   4
  -4  -2 -11 76246.1 4105.60   4
  -4  -2 -12 426.232 400.776   4
  -4  -2 -13 1603.55 782.741   4
  -4  -2 -14 466.682 677.595   4
  -4  -2 -15 8217.67 1601.08   4
   4   3 -11 2962.52 1129.30   5
   4   3 -10 18133.7 2532.30   5
   4   3  -9 151.370 409.671   5
   4   3  -8 1996.24 501.598   1
  -4  -3   8 1389.73 429.878   3
   4   3  -8 1045.92 503.394   5
   4   3  -7 59958.4 4017.41   5
  -4  -3   7 67148.6 2974.97   3
   4   3  -6 3196.70 852.609   5
  -4  -3   6 5928.91 796.843   3
   4   3  -5 15302.6 1771.84   5
   4   3  -4 21666.9 2035.07   5
   4   3  -3 169961. 6312.98   5
   4   3  -2 7106.64 1074.63   5
   4   3  -1 14034.8 1477.19   5
   4   3   0 27756.8 2119.57   5
  -4  -3   0 32538.0 1970.13   5
   4   3   1 83479.4 4052.05   5
  -4  -3  -1 94388.0 3655.63   5
   4   3   2 2294.37 637.548   5
  -4  -3  -2 2793.20 529.296   5
  -4  -3  -3 7126.24 854.394   5
   4   3   3 5887.86 980.162   5
  -4  -3  -4 31005.1 1922.90   4
  -4  -3  -4 31658.3 1906.21   5
  -4  -3  -5 4973.21 767.075   4
  -4  -3  -6 12207.8 1254.49   4
  -4  -3  -7 353.536 248.857   4
  -4  -3  -8 3944.14 778.727   4
  -4  -3  -9 106.071 294.451   4
  -4  -3 -10 63704.9 3481.91   4
  -4  -3 -11 1285.18 495.439   4
  -4  -3 -12 20726.7 2066.81   4
  -4  -3 -13 12274.4 1692.03   4
  -4  -3 -14 4745.78 1132.00   4
  -4  -3 -15 7118.52 1393.67   4
   4   4 -11 11043.1 2085.78   5
   4   4 -10 38525.1 3622.52   5
  -4  -4   9 675.233 256.088   3
   4   4  -9 894.722 673.323   5
  -4  -4   8 2142.81 574.013   3
   4   4  -8 1316.68 680.549   5
  -4  -4   7 1002.55 409.979   3
   4   4  -7 681.529 606.731   5
  -4  -4   6 4334.35 728.266   3
   4   4  -6 4582.96 1009.79   5
   4   4  -5 13526.8 1625.07   5
  -4  -4   5 12871.7 1228.38   3
  -4  -4   4 546.381 349.417   3
   4   4  -4 534.950 359.535   5
   4   4  -3 2051.01 597.370   5
   4   4  -2 11802.5 1330.60   5
   4   4  -1 26474.9 2000.34   5
  -4  -4   1 28665.7 1837.48   5
   4   4   0 5801.56 900.750   5
  -4  -4   0 5882.36 797.752   5
   4   4   1 30034.5 2158.86   5
   4   4   2 25670.3 1976.81   5
   4   4   3 82781.6 3759.43   5
  -4  -4  -4 15631.9 1299.80   4
  -4  -4  -5 72324.7 3104.75   4
  -4  -4  -5 64945.8 2856.02   5
  -4  -4  -6 870.234 333.054   4
  -4  -4  -7 31564.9 2082.97   4
  -4  -4  -8 4144.67 788.138   4
  -4  -4  -9 14748.5 1507.36   4
  -4  -4 -10 11969.0 1398.48   4
  -4  -4 -11 277.016 305.688   4
  -4  -4 -12 787.941 514.803   4
  -4  -4 -13 19164.8 2044.46   4
  -4  -4 -14 638.422 474.344   4
  -4  -4 -15 1506.51 762.246   4
   4   5 -11 11330.7 2007.69   5
   4   5 -10 1556.53 835.996   5
   4   5  -9 12846.3 1480.92   1
   4   5  -9 12334.6 1926.12   5
  -4  -5   9 10009.7 1268.69   3
  -4  -5   8 4040.36 776.114   3
   4   5  -8 5131.19 1132.77   5
   4   5  -7 18932.8 2089.35   5
  -4  -5   7 18583.9 1614.45   3
   4   5  -6 44834.6 3134.48   5
  -4  -5   6 42760.1 2492.13   3
   4   5  -5 10407.0 1387.44   5
  -4  -5   5 11264.0 1215.83   3
   4   5  -4 18225.0 1751.46   5
  -4  -5   4 17296.8 1466.03   3
   4   5  -3 13638.6 1440.14   5
  -4  -5   3 10175.2 1143.58   3
   4   5  -2 10384.5 1218.17   5
   4   5  -1 3246.88 675.109   5
  -4  -5   1 2153.91 456.473   5
   4   5   0 21776.8 1692.98   5
   4   5   1 480.940 313.906   5
   4   5   2 198.216 242.207   5
  -4  -5  -3 12865.9 1127.49   4
  -4  -5  -4 1224.69 376.385   4
  -4  -5  -5 20489.3 1520.09   4
  -4  -5  -6 3747.74 687.152   4
  -4  -5  -7 34677.5 2112.25   4
  -4  -5  -8 34428.1 2161.45   4
  -4  -5  -9 53374.2 2857.04   4
  -4  -5 -10 6457.05 998.821   4
  -4  -5 -11 13911.1 1517.29   4
  -4  -5 -12 19848.4 1898.26   4
  -4  -5 -13 10189.5 1453.89   4
  -4  -5 -14 14027.7 1735.13   4
  -4  -5 -15 1479.73 734.929   4
   4   6 -11-33.5308 474.415   5
   4   6 -10 24134.1 2736.08   5
  -4  -6   9-1214.37 548.234   3
   4   6  -9-349.667 452.240   5
  -4  -6   8 1689.60 581.541   3
   4   6  -8 885.478 566.087   5
  -4  -6   7 2551.46 656.313   3
   4   6  -7 3209.59 923.052   5
  -4  -6   6 7251.80 1021.24   3
   4   6  -6 8717.64 1342.50   5
   4   6  -5 26513.6 2205.30   5
  -4  -6   5 25869.0 1953.94   3
   4   6  -4 12186.7 1399.11   5
  -4  -6   4 12007.6 1286.50   3
  -4  -6   3 379.054 345.980   3
   4   6  -3 170.244 219.962   5
   4   6  -2 68709.6 3218.76   5
  -4  -6   2 71084.0 3308.72   3
   4   6  -1 64389.8 2966.39   5
  -4  -6   1 62269.6 3027.35   3
   4   6   0 74113.4 3226.68   5
  -4  -6   0 70806.5 3216.71   3
   4   6   1 11581.6 1128.15   5
  -4  -6  -1 11863.9 955.874   5
   4   6   2 56326.3 2614.65   5
  -4  -6  -2 58489.3 2291.75   5
  -4  -6  -3-112.587 259.513   4
  -4  -6  -3 355.833 144.618   5
  -4  -6  -4 40479.7 2079.76   4
  -4  -6  -5 25008.4 1629.75   4
  -4  -6  -6 27169.5 1730.46   4
  -4  -6  -7 2504.66 557.708   4
  -4  -6  -8 7069.22 930.559   4
  -4  -6  -9 1344.09 475.467   4
  -4  -6 -10 2317.04 556.721   4
  -4  -6 -11 786.161 386.664   4
  -4  -6 -12 619.979 448.083   4
  -4  -6 -12 740.357 317.935   3
  -4  -6 -13 20352.6 1974.61   4
  -4  -6 -14 6679.40 1191.01   4
   4   7 -10 13842.3 1976.79   5
   4   7  -9 14517.2 1899.21   5
  -4  -7   9 14102.6 1663.98   3
   4   7  -8 19397.5 2114.64   5
  -4  -7   8 17785.5 1847.61   3
   4   7  -7 45884.5 3175.04   5
  -4  -7   7 42760.5 2840.93   3
  -4  -7   6 1081.62 344.377   3
   4   7  -6 340.783 271.998   5
   4   7  -5 8581.44 1196.42   5
  -4  -7   5 8385.46 1177.94   3
  -4  -7   4 703.444 429.797   3
   4   7  -4 248.961 372.136   5
  -4  -7   3 5130.04 887.728   3
   4   7  -3 4802.68 784.344   5
   4   7  -2 10220.2 1060.81   5
  -4  -7   2 10995.9 1259.38   3
  -4  -7   1 429.282 329.603   3
   4   7  -1-411.489 255.359   5
  -4  -7   0 937.811 424.099   3
   4   7   0 809.490 319.584   5
  -4  -7  -1 2155.36 546.484   3
   4   7   1 1840.55 413.425   5
  -4  -7  -2 32704.3 1758.74   4
  -4  -7  -2 36465.4 2217.93   3
  -4  -7  -3 10467.2 932.867   4
  -4  -7  -3 11399.9 1208.16   3
  -4  -7  -4 10910.3 983.710   4
  -4  -7  -4 9155.60 1088.02   3
  -4  -7  -5 11360.9 1020.98   4
  -4  -7  -5 10640.4 1180.23   3
  -4  -7  -6 57416.5 2528.40   4
  -4  -7  -6 51787.9 2781.23   3
  -4  -7  -7 1521.04 502.179   3
  -4  -7  -7 967.491 385.475   4
  -4  -7  -8 23252.4 1614.74   4
  -4  -7  -8 20641.0 1697.99   3
  -4  -7  -9 5318.89 797.256   4
  -4  -7  -9 4082.70 782.467   3
  -4  -7 -10 28233.7 2027.52   3
  -4  -7 -10 32123.8 2073.56   4
  -4  -7 -11 613.337 448.742   4
  -4  -7 -11-1833.13 555.484   3
  -4  -7 -12 3750.91 763.977   4
  -4  -7 -13 4491.80 888.085   4
  -4  -8   9 226.147 341.591   3
  -4  -8   8 16768.9 1840.65   3
  -4  -8   7-21.5950 336.477   3
  -4  -8   6 14612.1 1665.23   3
  -4  -8   5 2313.96 715.985   3
  -4  -8   4 19528.3 1849.75   3
  -4  -8   3 58572.9 3275.04   3
  -4  -8   2 12422.8 1438.40   3
  -4  -8   1 10592.4 1319.38   3
  -4  -8   0 8031.07 1117.30   3
  -4  -8  -1 17645.5 1196.26   4
  -4  -8  -1 17805.9 1674.81   3
  -4  -8  -2-129.591 249.891   3
  -4  -8  -2-225.580 178.781   4
  -4  -8  -3 2030.86 605.069   3
  -4  -8  -3 2624.18 446.925   4
  -4  -8  -4 61.5748 328.352   3
  -4  -8  -4 244.404 243.054   4
  -4  -8  -5 4990.79 638.305   4
  -4  -8  -5 4253.05 800.266   3
  -4  -8  -6 25665.3 1527.25   4
  -4  -8  -6 25681.7 1982.46   3
  -4  -8  -7 963.476 521.700   3
  -4  -8  -7 409.097 223.934   4
  -4  -8  -8 3712.68 785.692   3
  -4  -8  -8 3384.62 587.859   4
  -4  -8  -9 369.377 379.934   3
  -4  -8  -9 262.695 237.331   4
   4   8  10 35480.9 2690.96   2
  -4  -8 -10 36777.1 2437.66   3
   4   8  11 2525.28 746.807   2
  -4  -8 -11 1878.05 638.887   3
  -4  -9   8 2659.76 786.825   3
  -4  -9   7 2650.87 788.210   3
  -4  -9   6 7522.01 1276.54   3
  -4  -9   5 2372.37 722.233   3
  -4  -9   4 23457.6 2150.78   3
  -4  -9   3-2.29381 402.151   3
  -4  -9   2 1707.67 665.666   3
  -4  -9   1 28206.1 2282.06   3
  -4  -9   0 10866.3 1392.21   3
  -4  -9  -1 13846.4 1585.48   3
  -4  -9  -2 15371.1 1632.11   3
  -4  -9  -3 120121. 5037.47   3
  -4  -9  -4-4.02639 309.064   3
  -4  -9  -5 4569.30 919.062   3
  -4  -9  -6 2418.10 683.555   3
  -4  -9  -7 55888.8 3198.02   3
  -4  -9  -8 5633.32 1028.26   3
   4   9   9 4074.31 979.654   2
  -4  -9  -9 6426.48 1069.27   3
   4   9  10 3277.73 806.972   2
  -4  -9 -10 4569.62 879.256   3
   4   9  11-1849.26 717.039   2
  -4 -10   6 8875.43 1428.06   3
  -4 -10   5 16086.3 1924.03   3
  -4 -10   4 29158.1 2562.18   3
  -4 -10   3 812.426 574.935   3
  -4 -10   2 9944.11 1442.40   3
  -4 -10   1 4765.13 934.432   3
  -4 -10   0 5525.47 1107.15   3
  -4 -10  -1 7528.68 1256.89   3
  -4 -10  -2 39.7501 339.680   3
  -4 -10  -3-152.945 435.524   3
  -4 -10  -4 2514.16 726.782   3
  -4 -10  -5 12144.8 1558.40   3
  -4 -10  -6 3487.06 854.724   3
  -4 -10  -7 12121.6 1519.97   3
   4  10   8 17440.2 2039.65   2
  -4 -10  -8 15856.2 1744.41   3
   4  10   9 19467.3 2151.48   2
  -4 -10  -9 21706.2 2048.14   3
   4  10  10 1836.85 723.480   2
  -4 -10 -10 2481.97 685.224   3
   4  10  11 10382.2 1533.39   2
  -4 -11   2 933.998 654.044   3
  -4 -11   1 21368.0 2240.18   3
  -4 -11   0 17942.4 2041.40   3
  -4 -11  -1 3138.05 804.498   3
  -4 -11  -2 16826.5 1893.84   3
  -4 -11  -3 15368.8 1818.33   3
  -4 -11  -4 3096.70 911.317   3
  -4 -11  -5 91.3299 477.516   3
  -4 -11  -6 4595.90 1003.13   3
  -4 -11  -7-10.4341 362.598   3
  -4 -11  -8-1500.02 642.328   3
  -4 -11  -9 1554.13 649.422   3
   5 -11  -1 2127.93 743.826   5
  -5  11   0 6684.98 1215.26   2
   5 -11   0 7049.27 1430.98   5
  -5  11  -1 17304.3 1846.53   2
  -5  11  -2 374.957 421.301   2
   5 -10  -5 6299.23 1541.52   5
   5 -10  -4 10645.5 1866.78   5
   5 -10  -3 480.570 688.163   5
   5 -10  -2 3826.76 1169.86   5
   5 -10  -1-1353.43 806.784   5
   5 -10   0 3.68388 550.299   5
   5 -10   1 147.004 511.581   5
  -5  10  -2 2447.94 695.672   2
  -5  10  -3 2015.77 607.894   2
   5  -9  -6 8632.76 1783.38   5
   5  -9  -5 7487.12 1552.27   5
   5  -9  -4 547.921 551.167   5
   5  -9  -3 3370.96 1115.03   5
   5  -9  -2 33371.3 3369.74   5
   5  -9  -1-2089.12 972.860   5
  -5   9   0 8254.76 1219.29   4
   5  -9   0 5265.75 1298.25   5
  -5   9  -1 2988.50 742.838   4
   5  -9   1 2914.48 984.980   5
  -5   9  -2 59058.3 3176.97   4
   5  -9   2 53827.0 4139.89   5
  -5   9  -3-272.046 388.926   4
  -5   9  -4 6096.44 938.877   2
  -5   9  -4 7955.59 1115.21   4
  -5   9  -5 12250.3 1402.19   4
  -5   9  -6 5067.61 902.228   4
  -5   9  -7 368.374 363.925   4
  -5   9  -8 193.765 319.750   4
  -5   9  -9 3394.37 805.803   4
  -5   9 -10 2802.41 756.833   4
   5  -8  -7 1006.00 678.280   5
   5  -8  -6 387.257 555.018   5
   5  -8  -5 24811.0 2840.27   5
   5  -8  -4-212.662 711.957   5
   5  -8  -3-383.100 520.940   5
   5  -8  -2 436.480 456.586   5
   5  -8  -1-510.687 627.588   5
   5  -8   0-417.044 720.849   5
  -5   8  -1 1181.45 509.205   4
   5  -8   1 1127.21 770.311   5
  -5   8  -2 416.188 388.796   4
   5  -8   2 28.7815 497.616   5
  -5   8  -3 8122.53 1167.84   4
   5  -8   3 7126.65 1533.34   5
  -5   8  -4 26232.7 2104.10   4
  -5   8  -5 2045.83 619.589   4
  -5   8  -6 13449.3 1474.16   4
  -5   8  -7 859.483 493.066   4
  -5   8  -8 19484.8 1839.40   4
  -5   8  -9 2012.37 653.742   4
  -5   8 -10 10400.9 1394.53   4
  -5   8 -11 1081.55 634.268   4
   5  -7  -8 4774.35 1372.35   5
   5  -7  -7 717.696 561.651   5
   5  -7  -6 15179.0 2241.16   5
   5  -7  -5 1960.05 876.761   5
   5  -7  -4 8772.24 1668.03   5
   5  -7  -3 1235.08 670.670   5
   5  -7  -2 7698.05 1539.13   5
   5  -7  -1 26507.4 2927.19   5
   5  -7   0 4925.15 1409.46   5
   5  -7   1 1853.94 836.441   5
  -5   7  -2 2066.92 616.919   4
   5  -7   2 1453.88 739.043   5
  -5   7  -3 1186.10 503.714   4
   5  -7   3 886.687 595.572   5
  -5   7  -4 607.072 410.632   4
  -5   7  -5-49.9018 311.678   4
  -5   7  -6 743.646 539.989   4
  -5   7  -7 315.266 418.967   4
  -5   7  -8 24845.7 2110.70   4
  -5   7  -9 700.470 499.923   4
  -5   7 -10 12003.1 1538.36   4
  -5   7 -11-45.9654 374.105   4
   5  -6  -8 3807.33 1571.21   5
   5  -6  -7 1047.37 709.445   5
   5  -6  -6-169.410 668.567   5
   5  -6  -5 8889.41 1633.54   5
   5  -6  -4 4226.58 1160.07   5
   5  -6  -3 294.254 541.764   5
   5  -6  -2 10978.1 1871.02   5
   5  -6  -1 4364.51 1246.14   5
   5  -6   0 36421.6 3480.90   5
   5  -6   1 27146.8 3012.36   5
   5  -6   2 2755.73 947.813   5
  -5   6  -3 47468.7 2836.47   4
   5  -6   3 42090.9 3627.77   5
  -5   6  -4 24353.1 1984.80   4
   5  -6   4 19171.8 2430.64   5
  -5   6  -5 48925.5 3007.91   4
  -5   6  -6 4829.97 963.098   4
  -5   6  -7 30822.0 2408.10   4
  -5   6  -8 1603.95 625.555   4
  -5   6  -9 470.539 481.004   4
  -5   6 -10 4723.62 970.082   4
  -5   6 -11 9376.41 1436.18   4
  -5   6 -12 1582.11 716.033   4
   5  -5  -9 19512.6 2718.57   5
   5  -5  -8 10038.0 1925.91   5
   5  -5  -7 40638.2 3714.83   5
   5  -5  -6 5026.91 1391.11   5
   5  -5  -5 5349.88 1383.39   5
   5  -5  -4 13839.5 1965.89   5
   5  -5  -3 14589.4 2069.06   5
   5  -5  -2 22702.0 2603.75   5
   5  -5  -1 2157.87 877.271   5
   5  -5   0 7148.68 1514.06   5
   5  -5   1 3562.24 1173.83   5
   5  -5   2 171.860 538.551   5
   5  -5   3 3210.77 995.449   5
  -5   5  -3 2844.80 775.021   4
  -5   5  -4 1218.76 478.751   4
   5  -5   4 1954.39 870.600   5
  -5   5  -5 591.663 393.524   4
  -5   5  -6 9741.69 1300.29   4
  -5   5  -7 25874.8 2207.99   4
  -5   5  -8 118.856 329.535   4
  -5   5  -9 14544.3 1714.50   4
  -5   5 -10 3670.07 913.030   4
  -5   5 -11 29027.7 2519.97   4
  -5   5 -12 117.490 426.480   4
   5  -4  -9 74.9519 558.585   5
   5  -4  -8 247.584 523.711   5
   5  -4  -7 1501.22 824.980   5
   5  -4  -6 395.577 512.088   5
   5  -4  -5 4316.44 1218.62   5
   5  -4  -4 187.061 519.805   5
   5  -4  -3 30456.9 2952.05   5
   5  -4  -2 1812.05 800.898   5
   5  -4  -1 11828.3 1869.94   5
   5  -4   0 3221.74 1073.40   5
   5  -4   1 17958.7 2424.54   5
   5  -4   2 32719.2 3226.79   5
   5  -4   3 1197.02 649.518   5
  -5   4  -4 13041.2 1439.49   4
   5  -4   4 13257.8 1974.63   5
  -5   4  -5 3984.33 810.132   4
  -5   4  -6-174.900 305.606   4
  -5   4  -7 320.117 456.514   4
  -5   4  -8 1956.43 661.338   4
  -5   4  -9-761.053 473.766   4
  -5   4 -10 1017.29 723.208   4
  -5   4 -11 27413.6 2520.14   4
  -5   4 -12 606.174 462.232   4
  -5   4 -13 15538.5 1976.07   4
   5  -3  -9 2069.26 1069.69   5
   5  -3  -8 13316.7 2184.21   5
   5  -3  -7 2328.06 880.429   5
   5  -3  -6 14269.7 2122.71   5
   5  -3  -5 8699.88 1629.64   5
   5  -3  -4 776.546 677.421   5
   5  -3  -3 8194.62 1497.65   5
   5  -3  -2 315.899 394.231   5
   5  -3  -1 86.8458 459.108   5
   5  -3   0 5629.39 1297.89   5
   5  -3   1 51189.9 2085.13   1
   5  -3   1 45746.1 3783.26   5
   5  -3   2 1222.59 331.005   1
   5  -3   2 320.483 594.696   5
   5  -3   3 32319.4 3142.27   5
  -5   3  -4 56686.4 3091.35   4
   5  -3   4 56676.9 4089.30   5
  -5   3  -5 8264.26 1129.72   4
   5  -3   5 9741.66 1702.57   5
  -5   3  -6 15623.1 1598.20   4
  -5   3  -7 4455.39 902.344   4
  -5   3  -8 119836. 5239.93   4
  -5   3  -9 2116.65 741.791   4
  -5   3 -10 6505.69 1234.39   4
  -5   3 -11 6099.26 1299.23   4
  -5   3 -12 14991.9 1953.80   4
  -5   3 -13 298.523 485.227   4
   5  -2  -9 4755.70 1471.68   5
   5  -2  -8 6238.66 1533.01   5
   5  -2  -7 763.196 634.741   5
   5  -2  -6 68744.8 4715.13   5
   5  -2  -5 717.064 540.343   5
   5  -2  -4 63943.6 4282.48   5
   5  -2  -3 25577.3 2610.30   5
   5  -2  -2 35093.7 3076.18   5
   5  -2  -1 7713.97 612.214   1
   5  -2  -1 7103.83 1366.24   5
   5  -2   0 14085.1 1967.27   5
   5  -2   0 14727.7 985.748   1
   5  -2   1 64076.7 4503.50   5
   5  -2   1 74066.5 2726.35   1
   5  -2   2 195.579 211.735   1
   5  -2   2-14.4761 488.817   5
   5  -2   3 5395.31 1220.03   5
   5  -2   4 1234.04 667.378   5
  -5   2  -4 1079.71 457.336   4
  -5   2  -5 569.929 431.923   4
   5  -2   5 198.594 330.251   5
  -5   2  -6 284.257 253.118   4
  -5   2  -7 3726.60 798.964   4
  -5   2  -8 672.160 438.030   4
  -5   2  -9 4607.23 1001.65   4
  -5   2 -10 27811.9 2483.44   4
  -5   2 -11-1313.33 687.600   4
  -5   2 -12 17004.6 2103.42   4
  -5   2 -13 3715.67 1103.88   4
   5  -1 -10 2886.37 1329.19   5
   5  -1  -9 20851.8 2864.19   5
   5  -1  -8 4320.04 1262.90   5
   5  -1  -7 4302.71 1280.86   5
   5  -1  -6 2674.27 1018.22   5
   5  -1  -5-277.566 401.704   5
   5  -1  -4 2977.78 948.066   5
   5  -1  -3 69.5689 365.603   5
   5  -1  -2 13920.5 1870.15   5
   5  -1  -1 297.671 462.602   5
   5  -1   0 29054.8 2801.83   5
   5  -1   1 8965.71 1591.97   5
   5  -1   2 20452.8 2428.21   5
   5  -1   3-150.412 569.136   5
  -5   1  -4 8891.34 1155.78   4
   5  -1   4 7719.92 1472.21   5
  -5   1  -5 33693.3 2273.96   4
   5  -1   5 36092.4 3163.23   5
  -5   1  -6 2269.12 371.164   2
  -5   1  -6 1787.55 555.915   4
  -5   1  -7 7877.62 1128.60   4
  -5   1  -8 5175.14 966.371   4
  -5   1  -9 1966.43 567.537   4
  -5   1 -10 803.238 487.724   4
  -5   1 -11 616.480 564.956   4
  -5   1 -12 1671.84 788.263   4
  -5   1 -13 923.958 712.544   4
   5   0 -10 20570.5 3022.33   5
   5   0  -9 15315.0 2509.63   5
   5   0  -8-208.397 498.154   5
   5   0  -7 15551.7 2256.96   5
   5   0  -6 7.48222 516.428   5
   5   0  -5 22560.7 2548.45   5
   5   0  -4 235.761 332.247   5
   5   0  -3 42662.0 3326.81   5
   5   0  -2 1478.71 630.550   5
   5   0  -1 9124.84 1515.97   5
   5   0   0 849.304 518.992   5
   5   0   1 8451.97 1491.69   5
   5   0   2 2625.59 882.557   5
   5   0   3 1438.53 749.531   5
  -5   0  -4 15363.1 1478.73   4
   5   0   4 15865.4 2043.37   5
  -5   0  -5 11848.1 1308.39   4
   5   0   5 13704.6 1902.68   5
  -5   0  -6 63206.3 3247.39   4
  -5   0  -7 11945.5 1385.02   4
  -5   0  -8 588.591 307.358   4
  -5   0  -9 30508.5 2436.95   4
  -5   0 -10 35971.5 2737.07   4
  -5   0 -11 68715.0 4058.00   4
  -5   0 -12 3222.08 881.764   4
  -5   0 -13 22649.0 2405.47   4
   5   1 -10 1793.20 1000.34   5
   5   1  -9 3857.74 1278.10   5
   5   1  -8 12284.4 2088.08   5
   5   1  -7 15081.6 2254.16   5
   5   1  -6 1999.88 868.451   5
   5   1  -5 28457.2 2816.03   5
   5   1  -4 19563.1 2230.41   5
   5   1  -3 37850.8 3104.71   5
   5   1  -2 6170.94 1242.44   5
   5   1  -1 93304.6 4946.20   5
   5   1   0 5671.70 1186.32   5
   5   1   1 41727.3 3291.19   5
   5   1   2 16050.6 2059.84   5
   5   1   3 27553.7 2647.30   5
  -5  -1  -4 37573.7 2343.31   4
   5   1   4 38328.2 3127.32   5
  -5  -1  -5 23.6803 279.155   4
  -5  -1  -6 9235.82 1179.84   4
  -5  -1  -7 1697.26 543.491   4
  -5  -1  -8 533.611 309.162   4
  -5  -1  -9 316.419 431.272   4
  -5  -1 -10 4542.50 951.143   4
  -5  -1 -11-121.423 421.994   4
  -5  -1 -12 3858.68 988.263   4
  -5  -1 -13 15892.4 1951.80   4
  -5  -1 -14 247.162 474.998   4
   5   2 -10 17617.3 2741.94   5
   5   2  -9 4699.05 1408.01   5
   5   2  -8 13701.9 2174.90   5
  -5  -2   7 568.314 406.911   3
   5   2  -7-74.7312 414.830   5
   5   2  -6 43317.3 3609.29   5
   5   2  -5 1837.85 700.382   5
   5   2  -4 3142.13 935.327   5
   5   2  -3 2219.98 785.394   5
   5   2  -2 495.604 415.309   5
   5   2  -1 248.383 465.892   5
   5   2   0 5385.23 1077.63   5
   5   2   1 4202.58 1008.79   5
   5   2   2 1452.80 664.493   5
   5   2   3 53386.2 3640.63   5
   5   2   4 1715.77 732.620   5
  -5  -2  -4 1477.42 467.726   4
  -5  -2  -5 21381.2 1729.12   4
  -5  -2  -6 3121.31 680.640   4
  -5  -2  -7 25697.3 2011.23   4
  -5  -2  -8 21974.6 1918.07   4
  -5  -2  -9 212.455 320.820   4
  -5  -2 -10 14555.7 1634.39   4
  -5  -2 -11 5763.39 1116.89   4
  -5  -2 -12 2960.94 850.199   4
  -5  -2 -13 1527.11 659.331   4
  -5  -2 -14 3.01326 376.443   4
   5   3 -10 8601.25 1888.08   5
   5   3  -9 2173.71 995.648   5
   5   3  -8 960.940 821.826   5
   5   3  -7 22768.1 2647.35   5
  -5  -3   7 19092.5 1629.70   3
   5   3  -6 43739.3 3600.14   5
  -5  -3   6 49228.6 2671.34   3
   5   3  -5 5740.69 1259.20   5
   5   3  -4 8260.59 1427.68   5
   5   3  -3 7298.11 1304.75   5
   5   3  -2 49220.4 3322.93   5
   5   3  -1 856.063 523.167   5
   5   3   0 32813.7 2688.08   5
   5   3   1 18971.4 2061.66   5
   5   3   2 2136.29 728.718   5
   5   3   3 23942.2 2253.69   5
   5   3   4 576.997 467.226   5
  -5  -3  -4 90.4526 205.157   4
  -5  -3  -5 6501.96 920.452   4
  -5  -3  -6 549.955 359.115   4
  -5  -3  -7 37735.7 2435.88   4
  -5  -3  -8 243.682 368.533   4
  -5  -3  -9 29106.4 2224.36   4
  -5  -3 -10 34879.0 2536.65   4
  -5  -3 -11 10597.9 1428.86   4
  -5  -3 -12 3269.97 817.978   4
  -5  -3 -13 4903.83 1124.29   4
  -5  -3 -14 64849.2 4049.19   4
   5   4 -10-2247.29 1015.14   5
   5   4  -9 4476.79 1410.24   5
  -5  -4   8 660.007 420.537   3
   5   4  -8 876.952 648.741   5
  -5  -4   7 1353.50 521.207   3
   5   4  -7-423.990 505.018   5
  -5  -4   6 1482.99 527.569   3
   5   4  -6 1793.68 742.368   5
  -5  -4   5 455.738 325.191   3
   5   4  -5 78.1737 381.104   5
   5   4  -4 43836.6 3214.05   5
   5   4  -3 17890.9 1950.29   5
   5   4  -2 17000.9 1888.37   5
   5   4  -1 15215.8 1737.19   5
   5   4   0 78686.5 4194.02   5
   5   4   1-378.043 496.626   5
   5   4   2 62256.1 3645.10   5
   5   4   3 19875.8 1937.40   5
  -5  -4  -4 54551.3 2758.29   4
  -5  -4  -5 2163.11 580.905   4
  -5  -4  -6 24436.0 1831.13   4
  -5  -4  -7 32244.3 2188.91   4
  -5  -4  -8 37.9500 413.522   4
  -5  -4  -9 3312.51 752.067   4
  -5  -4 -10 5699.32 1010.74   4
  -5  -4 -11 1262.20 551.313   4
  -5  -4 -12-668.257 447.345   4
  -5  -4 -13 1488.38 630.067   4
   5   5 -10 10770.1 2016.88   5
   5   5  -9 29127.7 3142.98   5
   5   5  -8 16675.5 2232.32   5
  -5  -5   8 16036.2 1643.41   3
   5   5  -7 29684.2 2892.15   5
  -5  -5   7 24462.3 1999.30   3
  -5  -5   6 3941.77 801.154   3
   5   5  -6 5717.39 1218.69   5
   5   5  -5 32942.2 2785.41   5
  -5  -5   5 31505.8 2208.62   3
  -5  -5   4 686.535 433.286   3
   5   5  -4 558.213 408.573   5
   5   5  -3 30776.0 2490.14   5
  -5  -5   3 28269.2 1974.27   3
   5   5  -2 6492.78 1088.79   5
   5   5  -1 14946.8 1662.29   5
   5   5   0 1612.46 609.457   5
   5   5   1 448.675 296.389   5
   5   5   2 58.5509 264.553   5
   5   5   3 4629.03 876.287   5
  -5  -5  -3 3012.78 590.584   4
  -5  -5  -4 7758.48 953.032   4
  -5  -5  -5 740.753 344.227   4
  -5  -5  -6 11305.1 1209.54   4
  -5  -5  -7 2707.48 631.996   4
  -5  -5  -8 27331.5 2002.35   4
  -5  -5  -9 566.497 423.956   4
  -5  -5 -10 12754.5 1433.33   4
  -5  -5 -11 11528.1 1386.18   4
  -5  -5 -12 775.119 492.444   4
  -5  -5 -13 8275.33 1282.51   4
   5   6  -9 1350.48 739.614   5
  -5  -6   8 3062.84 702.616   3
   5   6  -8 3423.31 949.976   5
  -5  -6   7 2107.41 630.686   3
   5   6  -7 1720.74 723.857   5
  -5  -6   6 651.171 559.914   3
   5   6  -6 2110.32 847.152   5
  -5  -6   5 3387.80 755.840   3
   5   6  -5 3855.19 948.504   5
   5   6  -4 36998.8 2751.43   5
  -5  -6   4 33818.0 2340.32   3
   5   6  -3 29671.7 2317.06   5
  -5  -6   3 24876.1 1915.22   3
  -5  -6   2 760.179 422.295   3
   5   6  -2 1024.44 559.482   5
   5   6  -1 17806.4 1726.88   5
  -5  -6   1 18394.0 1563.07   3
   5   6   0 3111.89 759.920   5
   5   6   1 13732.2 1453.68   5
   5   6   2 5214.68 843.630   5
  -5  -6  -3 58030.7 2721.48   4
  -5  -6  -4-31.9580 225.922   4
  -5  -6  -5 8787.09 1000.76   4
  -5  -6  -6 1122.60 442.448   4
  -5  -6  -7 5460.18 833.587   4
  -5  -6  -8 601.493 447.109   4
  -5  -6  -9 4902.15 868.436   4
  -5  -6 -10 8375.89 1132.49   4
  -5  -6 -11 12559.2 1417.35   4
  -5  -6 -12 36178.0 2549.09   4
  -5  -6 -13 3793.04 888.656   4
  -5  -7   8 7147.11 1212.37   3
  -5  -7   7 8864.95 1311.65   3
   5   7  -7 10218.6 1568.00   5
  -5  -7   6-471.769 430.388   3
   5   7  -6 515.278 416.612   5
  -5  -7   5 1991.97 683.033   3
   5   7  -5 2333.82 722.895   5
  -5  -7   4 826.906 450.558   3
   5   7  -4 921.732 478.964   5
  -5  -7   3 636.010 387.969   3
   5   7  -3 1265.34 571.870   5
   5   7  -2 8897.81 1158.01   5
  -5  -7   2 9207.77 1196.91   3
   5   7  -1 9631.76 1219.71   5
  -5  -7   1 11606.7 1292.26   3
  -5  -7   0 1017.03 454.435   3
   5   7   0 1839.10 589.893   5
   5   7   1 22931.4 1696.36   5
  -5  -7  -1 22162.6 1773.53   3
  -5  -7  -2 29782.8 1819.93   4
  -5  -7  -2 30880.5 2070.15   3
  -5  -7  -3 35651.9 1988.51   4
  -5  -7  -4 1290.67 399.714   4
  -5  -7  -5 48242.9 2442.14   4
  -5  -7  -6 4172.32 698.564   4
  -5  -7  -7 45401.9 2426.87   4
  -5  -7  -8 7890.93 981.753   4
  -5  -7  -9 28504.2 1971.30   4
  -5  -7 -10 12389.4 1282.54   4
  -5  -7 -11-17.7776 354.124   4
  -5  -7 -11 917.005 467.637   3
  -5  -7 -12 3673.81 851.871   4
  -5  -7 -12 1769.47 610.631   3
  -5  -8   7 31397.0 2606.53   3
  -5  -8   6 15353.6 1762.93   3
  -5  -8   5 13579.1 1625.17   3
  -5  -8   4 26093.9 2218.46   3
  -5  -8   3 22069.0 2006.98   3
  -5  -8   2 26177.0 2120.50   3
  -5  -8   1 304.817 328.723   3
  -5  -8   0 25763.4 2013.89   3
  -5  -8  -1 642.472 409.915   3
  -5  -8  -2 5901.25 957.184   3
  -5  -8  -2 5720.88 738.753   4
  -5  -8  -3 563.941 382.602   3
  -5  -8  -3 267.933 251.332   4
  -5  -8  -4 5942.82 915.486   3
  -5  -8  -4 4361.00 679.213   4
  -5  -8  -5 1062.35 486.418   3
  -5  -8  -5 487.605 289.996   4
  -5  -8  -6 4205.48 807.968   3
  -5  -8  -6 6599.77 833.947   4
  -5  -8  -7 5379.35 907.136   3
  -5  -8  -8 453.878 310.873   3
  -5  -8  -9 7974.98 1102.87   3
  -5  -8 -10 2762.03 730.391   3
  -5  -8 -11 11659.1 1354.92   3
  -5  -9   5 316.814 387.490   3
  -5  -9   4 3068.00 857.745   3
  -5  -9   3 1064.37 477.637   3
  -5  -9   2 507.349 434.719   3
  -5  -9   1 14504.5 1615.44   3
  -5  -9   0 52685.8 3128.40   3
  -5  -9  -1 1521.70 564.076   3
  -5  -9  -2 2872.39 717.668   3
  -5  -9  -3-49.7239 370.766   3
  -5  -9  -4 25777.2 2078.67   3
  -5  -9  -5 313.873 346.441   3
  -5  -9  -6 9259.18 1239.25   3
  -5  -9  -7 5261.32 999.513   3
  -5  -9  -8 1028.71 537.196   3
  -5  -9  -9 9078.16 1283.43   3
  -5  -9 -10 2.13241 363.802   3
  -5 -10   0 978.390 411.865   3
  -5 -10  -1 3087.44 764.307   3
  -5 -10  -2 10558.1 1404.50   3
  -5 -10  -3 3837.40 856.697   3
  -5 -10  -4 6739.72 1134.98   3
  -5 -10  -5 17915.8 1822.77   3
  -5 -10  -6 33893.3 2551.03   3
  -5 -10  -7 1684.88 759.426   3
  -5 -10  -8 14552.7 1669.11   3
   6  -9  -1 13529.0 2400.17   5
  -6   9   0 263.024 416.088   4
   6  -9   0-2880.95 1140.16   5
  -6   9  -1 4469.08 965.062   4
   6  -9   1 4879.36 1455.09   5
  -6   9  -2 2614.21 733.464   4
   6  -9   2 1591.31 956.779   5
  -6   9  -3 1255.65 588.977   4
  -6   9  -4 585.502 492.427   4
  -6   9  -5 3352.26 842.419   4
  -6   9  -6 510.076 474.068   4
  -6   9  -7 906.403 510.536   4
   6  -8  -3 3334.41 1174.27   5
   6  -8  -2 577.778 802.132   5
   6  -8  -1 1685.87 1078.41   5
   6  -8   0 1778.33 992.850   5
  -6   8  -1 27528.3 2319.25   4
   6  -8   1 20116.2 2806.03   5
  -6   8  -2 8696.15 1281.45   4
   6  -8   2 7833.31 1794.13   5
  -6   8  -3 11409.4 1466.43   4
   6  -8   3 8417.43 1802.80   5
  -6   8  -4 138.555 432.032   4
  -6   8  -5 36192.9 2786.00   4
  -6   8  -6 862.565 531.972   4
  -6   8  -7 14563.4 1758.67   4
  -6   8  -8 9475.18 1398.30   4
   6  -7  -4 11513.1 2072.79   5
   6  -7  -3 4144.22 1264.80   5
   6  -7  -2 15167.0 2514.33   5
   6  -7  -1 109.689 586.522   5
   6  -7   0 3897.75 1448.79   5
   6  -7   1 526.791 861.155   5
  -6   7  -2 8083.76 1222.92   4
   6  -7   2 7492.63 1869.17   5
  -6   7  -3 802.995 479.335   4
   6  -7   3 1049.21 830.905   5
  -6   7  -4-1590.52 598.882   4
  -6   7  -5 4079.80 938.627   4
  -6   7  -6 749.536 536.222   4
  -6   7  -7 3422.57 944.404   4
  -6   7  -8 2067.24 755.270   4
  -6   7  -9 5808.03 1165.58   4
   6  -6  -5 987.025 776.879   5
   6  -6  -4 891.375 729.963   5
   6  -6  -3 10728.9 2080.96   5
   6  -6  -2 12118.7 2154.04   5
   6  -6  -1-908.136 772.480   5
   6  -6   0 4738.45 1517.55   5
   6  -6   1 7038.67 1730.66   5
   6  -6   2 27732.8 3333.04   5
  -6   6  -3 1067.24 545.377   4
   6  -6   3-672.228 685.292   5
  -6   6  -4 17057.9 1750.44   4
   6  -6   4 16463.9 2501.50   5
  -6   6  -5 1269.91 620.075   4
  -6   6  -6 1352.91 498.647   4
  -6   6  -7 49.5384 353.657   4
  -6   6  -8 15878.2 1830.10   4
  -6   6  -9 1271.82 637.702   4
  -6   6 -10 5430.52 1149.39   4
   6  -5  -5 7550.03 1701.47   5
   6  -5  -4 955.673 733.152   5
   6  -5  -3 5192.56 1443.65   5
   6  -5  -2 2164.08 1005.93   5
   6  -5  -1 1068.21 902.676   5
   6  -5   0 492.437 601.129   5
   6  -5   1 195.856 610.135   5
   6  -5   2 448.734 713.458   5
  -6   5  -3 18173.3 1827.48   4
   6  -5   3 16906.8 2501.58   5
  -6   5  -4 7543.46 1167.75   4
   6  -5   4 9614.58 1912.18   5
  -6   5  -5 252.098 354.987   4
  -6   5  -6 30053.3 2414.04   4
  -6   5  -7 17108.5 1861.37   4
  -6   5  -8 17192.8 1897.57   4
  -6   5  -9 594.492 565.512   4
  -6   5 -10 34824.3 2850.31   4
   6  -4  -6 21613.1 2890.65   5
   6  -4  -5 1275.90 842.591   5
   6  -4  -4 26951.0 3156.02   5
   6  -4  -3 78.1474 508.893   5
   6  -4  -2 23701.7 2948.99   5
   6  -4  -1 21116.4 2797.42   5
   6  -4   0 12735.0 2298.10   5
   6  -4   1 25353.6 3200.43   5
   6  -4   2 6482.46 1674.89   5
   6  -4   3 9796.70 1982.80   5
   6  -4   4 2923.37 1171.15   5
  -6   4  -4 1849.77 585.222   4
  -6   4  -5 10987.4 1398.40   4
   6  -4   5 9872.00 1940.49   5
  -6   4  -6 355.991 389.496   4
  -6   4  -7-174.563 331.575   4
  -6   4  -8 2287.18 712.332   4
  -6   4  -9 2220.24 717.996   4
  -6   4 -10 5310.41 1133.15   4
  -6   4 -11 3355.45 937.868   4
   6  -3  -6 1643.81 908.950   5
   6  -3  -5 4590.42 1426.11   5
   6  -3  -4 120.542 502.779   5
   6  -3  -3 4960.92 1297.17   5
   6  -3  -2-540.434 628.165   5
   6  -3  -1-91.6488 592.680   5
   6  -3   0 21095.6 2827.06   5
   6  -3   1 11189.9 2092.09   5
   6  -3   2 308.716 805.042   5
   6  -3   3 4217.61 1237.79   5
  -6   3  -4 9808.94 1301.94   4
   6  -3   4 10555.4 1994.93   5
  -6   3  -5 34701.4 2481.61   4
   6  -3   5 40617.3 3798.29   5
  -6   3  -6 1777.76 587.833   4
  -6   3  -7 14222.4 1619.19   4
  -6   3  -8 2291.96 747.772   4
  -6   3  -9 3129.54 886.428   4
  -6   3 -10-591.067 518.236   4
  -6   3 -11 7682.81 1345.14   4
   6  -2  -7 13283.9 2341.29   5
   6  -2  -6 6395.75 1633.66   5
   6  -2  -5 25894.8 3076.84   5
   6  -2  -4 673.288 430.331   5
   6  -2  -3 4857.71 1298.48   5
   6  -2  -2 22393.9 2772.39   5
   6  -2  -1 3894.87 1203.99   5
   6  -2   0 440.054 617.643   5
   6  -2   1-191.702 673.294   5
   6  -2   2 1730.51 1007.53   5
   6  -2   3 1081.74 793.281   5
  -6   2  -4 8236.01 1171.05   4
   6  -2   4 4199.67 1292.91   5
  -6   2  -5 3677.65 799.900   4
   6  -2   5 2592.05 951.069   5
  -6   2  -6 5315.94 956.979   4
  -6   2  -7 23169.1 2028.57   4
  -6   2  -8 7883.95 1233.41   4
  -6   2  -9 11723.9 1554.71   4
  -6   2 -10 6983.89 1201.62   4
  -6   2 -11 34560.5 2809.68   4
   6  -1  -7 1142.32 781.704   5
   6  -1  -6 3788.59 1247.25   5
   6  -1  -5-205.103 498.623   5
   6  -1  -4-284.420 522.307   5
   6  -1  -3 34472.7 3374.46   5
   6  -1  -2 594.707 559.102   5
   6  -1  -1 31804.8 3282.42   5
   6  -1   0-379.501 622.728   5
   6  -1   1 41265.5 3923.24   5
   6  -1   2 25348.8 3072.76   5
   6  -1   3 8100.62 1734.31   5
  -6   1  -4 22287.7 1921.31   4
   6  -1   4 17575.9 2465.59   5
   6  -1   5 8458.24 1705.88   5
  -6   1  -5 7541.91 1119.92   4
  -6   1  -6 23091.6 1957.69   4
  -6   1  -7 3317.10 762.445   4
  -6   1  -8 3191.43 789.389   4
  -6   1  -9 1878.51 628.459   4
  -6   1 -10 675.145 467.512   4
  -6   1 -11 3437.19 888.283   4
   6   0  -7 1971.75 1177.02   5
   6   0  -6 53891.4 4583.81   5
   6   0  -5 2766.80 1054.90   5
   6   0  -4 3021.38 1054.31   5
   6   0  -3-39.1987 625.149   5
   6   0  -2 1997.53 933.822   5
   6   0  -1 3540.85 1124.93   5
   6   0   0 1176.84 698.630   5
   6   0   1 872.848 647.780   5
   6   0   2-833.422 739.332   5
   6   0   3 30931.5 3265.60   5
  -6   0  -4 13093.6 1430.96   4
   6   0   4 12006.5 1979.35   5
   6   0   5 3301.65 1061.86   5
  -6   0  -5 718.369 380.421   4
  -6   0  -6 2560.51 635.236   4
  -6   0  -7 19091.7 1806.40   4
  -6   0  -8 37228.5 2640.98   4
  -6   0  -9 684.703 523.537   4
  -6   0 -10 15543.4 1769.62   4
  -6   0 -11-406.051 420.510   4
  -6   0 -12 3090.57 959.621   4
   6   1  -7 6979.60 1639.99   5
   6   1  -6 6970.83 1662.42   5
   6   1  -5 2483.42 1023.99   5
   6   1  -4 43616.6 3814.04   5
   6   1  -3 561.376 548.123   5
   6   1  -2 9266.68 1716.34   5
   6   1  -1 3902.84 1066.68   5
   6   1   0 33675.6 3300.47   5
   6   1   1 10945.8 1876.29   5
   6   1   2 4218.85 1208.36   5
   6   1   3 19220.9 2439.47   5
   6   1   4 4976.50 1224.20   5
  -6  -1  -4 4506.73 835.562   4
   6   1   5 384.096 466.325   5
  -6  -1  -5 389.892 312.781   4
  -6  -1  -6 353.741 385.106   4
  -6  -1  -7 45.0331 327.968   4
  -6  -1  -8 348.215 405.737   4
  -6  -1  -9 23652.8 2133.22   4
  -6  -1 -10 4354.60 931.147   4
  -6  -1 -11-93.6123 350.725   4
  -6  -1 -12 17543.6 1980.11   4
   6   2  -7 1503.30 739.162   5
   6   2  -6 1990.71 938.553   5
   6   2  -5 148.570 410.307   5
   6   2  -4-284.834 539.159   5
   6   2  -3 2698.76 911.587   5
   6   2  -2 4715.85 1172.63   5
   6   2  -1 3627.82 996.425   5
   6   2   0 21770.2 2548.58   5
   6   2   1 1290.60 619.546   5
   6   2   2 46745.2 3817.90   5
   6   2   3 693.944 480.938   5
  -6  -2  -4 44452.0 2698.59   4
   6   2   4 53747.0 3913.42   5
  -6  -2  -5 11620.1 1346.17   4
  -6  -2  -6 9072.30 1183.78   4
  -6  -2  -7 28293.4 2197.51   4
  -6  -2  -8 12757.1 1493.93   4
  -6  -2  -9 12305.2 1533.56   4
  -6  -2 -10 5963.92 1097.78   4
  -6  -2 -11 8514.29 1310.92   4
  -6  -2 -12-1518.02 639.416   4
   6   3  -8 9665.77 2035.20   5
   6   3  -7 23832.9 3080.83   5
  -6  -3   6 3785.99 773.729   3
   6   3  -6 3497.26 1187.56   5
   6   3  -5 17727.6 2386.54   5
   6   3  -4 2875.26 926.871   5
   6   3  -3 73368.7 4700.11   5
   6   3  -2 4613.74 1141.20   5
   6   3  -1 3342.62 946.424   5
   6   3   0 40.9566 387.812   5
   6   3   1 8745.42 1597.17   5
   6   3   2 8577.56 1623.14   5
   6   3   3 1197.24 705.328   5
   6   3   4 221.505 502.502   5
  -6  -3  -4 31.7432 257.657   4
  -6  -3  -5 1000.68 433.979   4
  -6  -3  -6 16580.0 1580.16   4
  -6  -3  -7 14619.9 1529.17   4
  -6  -3  -8 4030.21 859.121   4
  -6  -3  -9 538.463 395.855   4
  -6  -3 -10 7802.95 1206.71   4
  -6  -3 -11 40983.2 2874.53   4
  -6  -3 -12 386.656 435.725   4
   6   4  -7 16752.3 2460.38   5
  -6  -4   6 1876.05 612.082   3
   6   4  -6-564.167 600.300   5
  -6  -4   5 1072.71 437.288   3
   6   4  -5 1441.39 739.859   5
   6   4  -4 1682.74 744.258   5
   6   4  -3 24731.1 2546.94   5
   6   4  -2 2053.34 788.835   5
   6   4  -1 17580.0 2147.34   5
   6   4   0 14932.6 2006.46   5
   6   4   1 37863.1 3166.49   5
   6   4   2 609.303 507.896   5
   6   4   3 10115.2 1494.02   5
  -6  -4  -4 24119.1 1866.67   4
   6   4   4 26537.3 2439.66   5
  -6  -4  -5 1401.52 501.933   4
  -6  -4  -6 1241.19 475.016   4
  -6  -4  -7 744.148 431.008   4
  -6  -4  -8 8033.97 1183.22   4
  -6  -4  -9 3496.43 776.683   4
  -6  -4 -10 7734.20 1170.94   4
  -6  -4 -11 2399.50 780.388   4
  -6  -4 -12 6003.87 1116.10   4
   6   5  -7 325.714 559.268   5
   6   5  -6 20116.2 2491.57   5
  -6  -5   6 20271.3 1902.27   3
  -6  -5   5 3442.45 814.918   3
   6   5  -5 3344.67 994.047   5
  -6  -5   4 5160.14 895.643   3
   6   5  -4 5300.62 1232.03   5
   6   5  -3 1016.54 581.454   5
   6   5  -2 961.751 617.210   5
   6   5  -1-1120.79 604.712   5
   6   5   0 8443.74 1409.35   5
   6   5   1 2896.07 839.919   5
   6   5   2 3888.77 905.037   5
  -6  -5  -3 12622.1 1317.69   4
   6   5   3 14341.0 1687.19   5
  -6  -5  -4-170.662 268.932   4
  -6  -5  -5 32068.4 2114.92   4
  -6  -5  -6 936.199 438.813   4
  -6  -5  -7 35043.5 2328.29   4
  -6  -5  -8 4994.59 910.786   4
  -6  -5  -9 11193.2 1334.85   4
  -6  -5 -10 11080.4 1401.58   4
  -6  -5 -11 8813.76 1271.13   4
  -6  -5 -12 14242.2 1652.58   4
   6   6  -6 21669.9 2522.04   5
  -6  -6   6 20690.0 2003.06   3
   6   6  -5 17116.0 2087.89   5
  -6  -6   5 18156.0 1800.86   3
   6   6  -4 8239.10 1410.20   5
  -6  -6   4 9801.69 1247.00   3
  -6  -6   3 4400.63 865.661   3
   6   6  -3 5111.72 1078.07   5
   6   6  -2 22488.0 2213.60   5
  -6  -6   2 19510.8 1716.25   3
   6   6  -1 3765.56 939.419   5
   6   6   0 45067.2 3145.53   5
   6   6   1 3935.60 894.786   5
   6   6   2 2665.16 695.930   5
  -6  -6  -3 2427.00 554.830   4
  -6  -6  -4 7680.59 1020.88   4
  -6  -6  -5 2426.21 610.378   4
  -6  -6  -6 100.015 277.119   4
  -6  -6  -7-3.41721 278.357   4
  -6  -6  -8 2991.47 702.264   4
  -6  -6  -9 17251.9 1652.69   4
  -6  -6 -10 3832.59 794.612   4
  -6  -6 -11 2608.88 726.424   4
  -6  -7   5-130.268 345.259   3
  -6  -7   4 4651.89 903.028   3
  -6  -7   3 2756.86 782.944   3
  -6  -7   2 9880.57 1253.10   3
  -6  -7   1 10546.2 1263.50   3
  -6  -7   0 11392.7 1307.42   3
  -6  -7  -1 685.886 374.396   3
  -6  -7  -2 30190.3 1967.21   4
  -6  -7  -3-97.1569 216.865   4
  -6  -7  -4 16075.1 1373.83   4
  -6  -7  -5 4782.50 761.090   4
  -6  -7  -6 36648.3 2235.85   4
  -6  -7  -7 2389.37 532.369   4
  -6  -7  -8 1354.78 479.444   4
  -6  -7  -9 9214.99 1150.64   4
  -6  -8   1 7177.09 1090.81   3
  -6  -8   0 1103.17 485.983   3
  -6  -8  -1 2953.91 703.142   3
  -6  -8  -2 637.255 456.444   3
  -6  -8  -3 3152.60 712.085   3
  -6  -8  -4 421.803 318.757   3
  -6  -8  -5 3782.77 788.270   3
  -6  -8  -6 5372.39 916.751   3
  -6  -8  -7 463.816 362.491   3
  -7   7  -2-857.937 644.344   4
  -7   7  -3-1149.97 580.184   4
  -7   6  -2-1154.45 635.400   4
  -7   6  -3 3871.61 890.644   4
  -7   6  -4 2362.60 672.773   4
  -7   6  -5 14408.1 1749.04   4
   7  -5   0 581.484 952.225   5
   7  -5   1 617.728 721.703   5
   7  -5   2-2495.67 1186.99   5
  -7   5  -3 12535.7 1588.39   4
   7  -5   3 12075.1 2310.05   5
  -7   5  -4 3396.10 865.012   4
   7  -5   4 3191.40 1342.96   5
  -7   5  -5 7700.95 1275.39   4
  -7   5  -6 382.997 503.376   4
   7  -4  -1-832.686 907.163   5
   7  -4   0 15278.3 2629.96   5
   7  -4   1 3063.46 1502.15   5
   7  -4   2 2451.85 1206.66   5
   7  -4   3 5985.03 1716.76   5
  -7   4  -3 5383.00 1041.17   4
  -7   4  -4 1140.64 565.218   4
   7  -4   4 1942.45 1241.09   5
  -7   4  -5 926.334 521.334   4
  -7   4  -6 610.095 474.514   4
  -7   4  -7 234.129 338.788   4
   7  -3  -2-43.7269 527.814   5
   7  -3  -1 2652.98 1324.15   5
   7  -3   0-1829.36 1100.91   5
   7  -3   1 14056.9 2550.48   5
   7  -3   2 12618.4 2436.11   5
   7  -3   3 8058.36 1966.57   5
  -7   3  -3 8077.66 1248.98   4
  -7   3  -4 19377.8 1923.50   4
   7  -3   4 24188.9 3242.25   5
  -7   3  -5 1828.40 592.341   4
   7  -3   5 633.598 735.665   5
  -7   3  -6 2025.55 659.095   4
  -7   3  -7 1036.51 535.365   4
  -7   3  -8 22105.4 2139.52   4
   7  -2  -3 1576.11 773.986   5
   7  -2  -2 754.629 686.136   5
   7  -2  -1 1859.60 1054.38   5
   7  -2   0 8227.57 1978.86   5
   7  -2   1 276.879 687.643   5
   7  -2   2 1006.63 796.964   5
   7  -2   3 2173.65 1087.42   5
   7  -2   4 7544.09 1857.46   5
  -7   2  -4 7794.27 1211.90   4
  -7   2  -5 252.575 434.654   4
   7  -2   5 1125.20 853.871   5
  -7   2  -6 4884.15 958.877   4
  -7   2  -7 1612.88 650.452   4
  -7   2  -8 23614.3 2197.23   4
   7  -1  -3 4245.63 1382.36   5
   7  -1  -2 31902.3 3702.11   5
   7  -1  -1 2531.49 1081.31   5
   7  -1   0 1651.71 781.342   5
   7  -1   1 30869.1 3752.51   5
   7  -1   2 13951.5 2520.19   5
   7  -1   3 11411.3 2234.21   5
   7  -1   4-725.758 1019.00   5
  -7   1  -4 922.677 483.486   4
  -7   1  -5 13825.6 1562.53   4
   7  -1   5 11629.1 2190.24   5
  -7   1  -6 1328.51 544.211   4
  -7   1  -7 586.081 522.149   4
  -7   1  -8 2557.87 760.017   4
   7   0  -4 5947.42 1588.66   5
   7   0  -3 1958.10 957.401   5
   7   0  -2 3549.81 1228.05   5
   7   0  -1 2927.88 1390.04   5
   7   0   0 13935.9 2475.39   5
   7   0   1 1522.29 931.685   5
   7   0   2 2425.43 1113.36   5
   7   0   3 1495.47 895.246   5
  -7   0  -4 12731.6 1499.27   4
   7   0   4 14250.0 2403.60   5
  -7   0  -5 12263.1 1454.93   4
   7   0   5 13737.8 2317.84   5
  -7   0  -6 12159.4 1450.11   4
  -7   0  -7 17095.6 1792.96   4
  -7   0  -8 2481.03 707.328   4
  -7   0  -9 4729.88 1010.04   4
   7   1  -4 3043.36 1181.01   5
   7   1  -3 29020.7 3398.35   5
   7   1  -2 1610.33 1033.23   5
   7   1  -1 3353.66 1199.88   5
   7   1   0 8296.64 1872.75   5
   7   1   1 8067.36 1903.80   5
   7   1   2 374.194 549.788   5
   7   1   3 4842.51 1376.02   5
   7   1   4 1099.78 852.838   5
  -7  -1  -4-22.6435 409.704   4
  -7  -1  -5 1039.16 501.887   4
  -7  -1  -6 10623.2 1350.47   4
  -7  -1  -7 2002.80 625.155   4
  -7  -1  -8 4.56889 317.730   4
  -7  -1  -9 11062.7 1488.19   4
   7   2  -4 3696.47 1205.92   5
   7   2  -3 2179.52 1136.14   5
   7   2  -2 312.829 789.121   5
   7   2  -1 24893.6 3129.37   5
   7   2   0 4.55486 484.976   5
   7   2   1 22748.5 2979.35   5
   7   2   2 12673.6 2184.08   5
   7   2   3 15454.2 2349.76   5
  -7  -2  -4 11757.7 1406.47   4
   7   2   4 13610.2 2128.64   5
  -7  -2  -5 2632.77 713.140   4
  -7  -2  -6 21388.4 1912.10   4
  -7  -2  -7 8158.56 1238.13   4
  -7  -2  -8 5471.63 987.327   4
  -7  -2  -9 2113.10 703.550   4
   7   3  -4 7823.48 1717.50   5
   7   3  -3 2111.66 959.371   5
   7   3  -2 7485.80 1644.34   5
   7   3  -1 3068.63 1085.34   5
   7   3   0 1404.86 781.881   5
   7   3   1 5633.47 1470.98   5
   7   3   2-1283.08 792.044   5
   7   3   3 10851.9 1811.95   5
   7   3   4-377.889 564.962   5
  -7  -3  -4 98.0819 277.195   4
  -7  -3  -5 2538.96 661.454   4
  -7  -3  -6-240.204 339.709   4
  -7  -3  -7 12885.0 1487.28   4
  -7  -3  -8 7179.62 1135.29   4
  -7  -3  -9 5932.80 1040.09   4
   7   4  -4 5857.13 1489.60   5
   7   4  -3 228.322 553.509   5
   7   4  -2 8379.87 1665.19   5
   7   4  -1 2302.53 877.948   5
   7   4   0 25292.6 2893.31   5
   7   4   1 360.282 515.751   5
   7   4   2 6032.38 1397.67   5
   7   4   3-3.25475 411.317   5
  -7  -4  -3-86.6026 480.459   4
  -7  -4  -4 1513.08 539.179   4
  -7  -4  -5 4272.92 802.678   4
  -7  -4  -6 7804.41 1098.70   4
  -7  -4  -7 1122.19 563.691   4
  -7  -4  -8 916.045 523.207   4
  -7  -4  -9 4144.19 884.258   4
   7   5  -3-178.616 485.791   5
   7   5  -2 71.8026 342.903   5
   7   5  -1-750.176 553.614   5
   7   5   0 11987.0 1831.80   5
   7   5   1-1166.29 634.759   5
   7   5   2 9870.18 1547.13   5
   7   5   3 414.064 428.693   5
  -7  -5  -3-243.015 464.863   4
  -7  -5  -4 42819.5 2607.64   4
  -7  -5  -5 1527.59 529.888   4
  -7  -5  -6 9299.57 1190.31   4
  -7  -5  -7 16241.0 1612.30   4
  -7  -5  -8 9360.74 1242.18   4
  -7  -6  -2 5690.99 884.752   4
  -7  -6  -3 1024.29 439.529   4
  -7  -6  -4 678.244 370.746   4
  -7  -6  -5 993.641 425.259   4
  -7  -6  -6 3247.34 737.155   4
  -7  -6  -7 3168.07 704.247   4
  -7  -6  -8 1224.01 480.218   4
  -7  -7  -2 908.727 429.184   4
  -7  -7  -3 28187.2 1987.72   4
  -7  -7  -4-1131.74 457.488   4
   8   2   2 2119.34 1057.87   5
   8   2   3 10172.5 2033.09   5
   8   2   4 7210.64 1669.49   5
   8   3   1 800.646 755.763   5
   8   3   2 3883.81 1248.76   5
   8   3   3-273.329 464.272   5
   0   0   0    0.00    0.00   0
;
_shelx_hkl_checksum              98642
_olex2_submission_special_instructions 'No special instructions were received'
_oxdiff_exptl_absorpt_empirical_details
;
Empirical correction (ABSPACK) includes:
- Absorption correction using spherical harmonics
- Frame scaling
;
_oxdiff_exptl_absorpt_empirical_full_max 1.750
_oxdiff_exptl_absorpt_empirical_full_min 0.544
loop_
_space_group_symop_operation_xyz
'x, y, z'
'-x, -y, -z'
loop_
_atom_site_label
_atom_site_type_symbol
_atom_site_fract_x
_atom_site_fract_y
_atom_site_fract_z
_atom_site_U_iso_or_equiv
_atom_site_adp_type
_atom_site_occupancy
_atom_site_site_symmetry_order
_atom_site_calc_flag
_atom_site_refinement_flags_posn
_atom_site_refinement_flags_adp
_atom_site_refinement_flags_occupancy
_atom_site_disorder_assembly
_atom_site_disorder_group
U1 U 1.26072(7) 0.91641(3) 0.25260(3) 0.01066(10) Uani 1 1 d . . . . .
Pb1 Pb 0.17155(8) 0.31026(3) 0.19458(3) 0.01755(11) Uani 1 1 d . . . . .
Se1 Se 1.28891(19) 0.88837(8) -0.04680(7) 0.0113(2) Uani 1 1 d . . . . .
Se2 Se 1.2248(2) 1.16826(8) 0.48810(8) 0.0178(2) Uani 1 1 d . . . . .
Se3 Se 0.9068(2) 0.62448(8) 0.22193(8) 0.0145(2) Uani 1 1 d . . . . .
Cu1 Cu 1.000000 0.500000 0.500000 0.0135(4) Uani 1 2 d S . P . .
Cu2 Cu 0.7070(2) 0.44315(9) 0.04633(10) 0.0139(3) Uani 1 1 d . . . . .
Cu3 Cu 0.5642(2) 0.42318(10) 0.38550(10) 0.0161(3) Uani 1 1 d . . . . .
O1 O 1.5212(15) 0.8656(6) 0.3037(6) 0.0256(17) Uani 1 1 d . . . . .
O2 O 1.0022(14) 0.9650(6) 0.1972(6) 0.0237(17) Uani 1 1 d . . . . .
O3 O 1.4446(13) 0.8647(5) 0.0625(5) 0.0140(15) Uani 1 1 d . . . . .
O4 O 1.1612(14) 0.7383(5) -0.0585(5) 0.0190(16) Uani 1 1 d . . . . .
O5 O 1.5195(13) 0.8870(5) -0.1626(5) 0.0161(15) Uani 1 1 d . . . . .
O6 O 1.1608(15) 1.1003(6) 0.3693(5) 0.0239(13) Uani 1 1 d . . . . .
O7 O 1.2403(15) 1.3303(6) 0.4435(5) 0.0239(13) Uani 1 1 d . . . . .
O8 O 0.9535(16) 1.1687(6) 0.5740(6) 0.029(2) Uani 1 1 d . . . . .
O9 O 1.1767(14) 0.6911(5) 0.2237(5) 0.0170(16) Uani 1 1 d . . . . .
O10 O 0.8898(14) 0.5131(6) 0.3325(5) 0.0202(16) Uani 1 1 d . . . . .
O11 O 0.9808(13) 0.5147(5) 0.1143(5) 0.0142(15) Uani 1 1 d . . . . .
O12 O 0.6934(13) 0.4095(5) 0.5257(5) 0.0157(15) Uani 1 1 d D . . . .
H12 H 0.758(19) 0.332(6) 0.554(8) 0.024 Uiso 1 1 d D U . . .
O13 O 0.4701(13) 0.4564(6) 0.2383(5) 0.0169(15) Uani 1 1 d D . . . .
H13 H 0.363(14) 0.527(6) 0.245(7) 0.025 Uiso 1 1 d D U . . .
O14 O 0.4050(13) 0.3834(5) 0.0066(5) 0.0142(15) Uani 1 1 d D . . . .
H14 H 0.42(2) 0.295(4) -0.016(8) 0.021 Uiso 1 1 d D U . . .
O15 O 0.7039(17) 0.2014(7) 0.3431(7) 0.042(2) Uani 1 1 d . . . . .
H15A H 0.668598 0.175610 0.277168 0.063 Uiso 1 1 d DR U . . .
H15B H 0.863974 0.196622 0.330544 0.063 Uiso 1 1 d R U . . .
loop_
_atom_site_aniso_label
_atom_site_aniso_U_11
_atom_site_aniso_U_22
_atom_site_aniso_U_33
_atom_site_aniso_U_23
_atom_site_aniso_U_13
_atom_site_aniso_U_12
U1 0.0157(2) 0.00892(16) 0.00700(18) 0.00026(11) -0.00125(15) -0.00361(13)
Pb1 0.0185(2) 0.01585(18) 0.0180(2) 0.00255(13) -0.00296(17) -0.00370(15)
Se1 0.0153(6) 0.0095(4) 0.0087(4) 0.0004(3) -0.0013(4) -0.0027(3)
Se2 0.0256(7) 0.0170(4) 0.0103(5) 0.0004(3) -0.0019(5) -0.0036(4)
Se3 0.0181(6) 0.0106(4) 0.0138(5) -0.0033(3) 0.0000(4) -0.0023(4)
Cu1 0.0143(10) 0.0158(7) 0.0102(8) -0.0022(6) -0.0015(7) -0.0041(6)
Cu2 0.0156(7) 0.0105(5) 0.0164(6) 0.0018(4) -0.0055(5) -0.0033(4)
Cu3 0.0174(8) 0.0212(6) 0.0095(6) -0.0003(4) -0.0015(5) -0.0085(5)
O1 0.021(5) 0.035(4) 0.022(4) 0.005(3) -0.008(4) 0.000(3)
O2 0.021(5) 0.023(3) 0.030(4) 0.001(3) -0.012(4) 0.003(3)
O3 0.020(4) 0.018(3) 0.003(3) 0.001(2) -0.001(3) -0.003(3)
O4 0.026(5) 0.012(3) 0.022(4) 0.002(2) -0.013(4) -0.009(3)
O5 0.021(5) 0.014(3) 0.012(3) -0.001(2) 0.001(3) -0.005(3)
O6 0.038(4) 0.014(2) 0.016(3) -0.0050(18) 0.005(3) -0.007(2)
O7 0.038(4) 0.014(2) 0.016(3) -0.0050(18) 0.005(3) -0.007(2)
O8 0.042(6) 0.023(4) 0.014(4) 0.002(3) 0.013(4) -0.001(3)
O9 0.026(5) 0.011(3) 0.015(4) -0.001(2) -0.005(3) -0.006(3)
O10 0.022(5) 0.027(3) 0.012(3) 0.003(3) -0.001(3) -0.013(3)
O11 0.018(4) 0.012(3) 0.011(3) -0.004(2) 0.003(3) 0.001(3)
O12 0.020(4) 0.014(3) 0.014(3) 0.009(2) -0.004(3) -0.004(3)
O13 0.015(4) 0.019(3) 0.017(4) -0.003(3) -0.003(3) 0.002(3)
O14 0.024(5) 0.007(3) 0.013(3) 0.001(2) -0.007(3) 0.001(3)
O15 0.027(6) 0.052(5) 0.049(6) -0.026(4) -0.008(5) -0.005(4)
loop_
_atom_type_symbol
_atom_type_description
_atom_type_scat_dispersion_real
_atom_type_scat_dispersion_imag
_atom_type_scat_source
Cu Cu 0.3201 1.2651 'International Tables Vol C Tables 4.2.6.8 and 6.1.1.4'
H H 0.0000 0.0000 'International Tables Vol C Tables 4.2.6.8 and 6.1.1.4'
O O 0.0106 0.0060 'International Tables Vol C Tables 4.2.6.8 and 6.1.1.4'
Pb Pb -3.3944 10.1111 'International Tables Vol C Tables 4.2.6.8 and 6.1.1.4'
Se Se -0.0929 2.2259 'International Tables Vol C Tables 4.2.6.8 and 6.1.1.4'
U U -9.6767 9.6646 'International Tables Vol C Tables 4.2.6.8 and 6.1.1.4'
loop_
_exptl_crystal_face_index_h
_exptl_crystal_face_index_k
_exptl_crystal_face_index_l
_exptl_crystal_face_perp_dist
3 -13 5 0.0399
3 2 -14 0.0592
-2 13 -7 0.0239
-4 3 13 0.0446
7 -2 9 0.0377
-2 -13 -4 0.0406
-7 -3 -9 0.0219
0 14 1 0.0073
loop_
_geom_angle_atom_site_label_1
_geom_angle_atom_site_label_2
_geom_angle_atom_site_label_3
_geom_angle
_geom_angle_site_symmetry_1
_geom_angle_site_symmetry_3
O1 U1 O2 178.2(3) . .
O1 U1 O3 90.7(3) . .
O1 U1 O5 89.2(3) . 2_875
O1 U1 O6 98.5(3) . .
O1 U1 O8 85.9(3) . 2_776
O1 U1 O9 89.0(3) . .
O2 U1 O3 87.5(3) . .
O2 U1 O5 90.6(3) . 2_875
O2 U1 O6 83.2(3) . .
O2 U1 O8 95.2(3) . 2_776
O2 U1 O9 90.1(3) . .
O3 U1 O5 71.03(19) . 2_875
O6 U1 O3 140.6(2) . .
O6 U1 O5 70.8(2) . 2_875
O6 U1 O9 145.6(2) . .
O8 U1 O3 145.4(2) 2_776 .
O8 U1 O5 143.2(2) 2_776 2_875
O8 U1 O6 73.8(2) 2_776 .
O8 U1 O9 73.2(2) 2_776 .
O9 U1 O3 72.3(2) . .
O9 U1 O5 143.2(2) . 2_875
O5 Pb1 O4 105.97(19) 2_765 2_665
O11 Pb1 O4 63.50(18) 1_455 2_665
O11 Pb1 O5 149.05(19) 1_455 2_765
O13 Pb1 O4 147.0(2) . 2_665
O13 Pb1 O5 91.5(2) . 2_765
O13 Pb1 O11 87.1(2) . 1_455
O13 Pb1 O14 75.1(2) . .
O14 Pb1 O4 80.1(2) . 2_665
O14 Pb1 O5 81.15(19) . 2_765
O14 Pb1 O11 68.6(2) . 1_455
O3 Se1 O5 101.0(3) . .
O4 Se1 O3 103.9(3) . .
O4 Se1 O5 100.6(3) . .
O6 Se2 O7 98.5(3) . .
O6 Se2 O8 102.1(4) . .
O8 Se2 O7 99.6(3) . .
O9 Se3 O10 99.9(3) . .
O9 Se3 O11 100.1(3) . .
O10 Se3 O11 97.6(3) . .
O7 Cu1 O7 180.0 1_545 2_776
O10 Cu1 O7 90.6(3) 2_766 2_776
O10 Cu1 O7 89.4(3) . 2_776
O10 Cu1 O7 89.4(3) 2_766 1_545
O10 Cu1 O7 90.6(3) . 1_545
O10 Cu1 O10 180.0 . 2_766
O12 Cu1 O7 99.6(3) 2_766 2_776
O12 Cu1 O7 80.4(3) 2_766 1_545
O12 Cu1 O7 99.6(3) . 1_545
O12 Cu1 O7 80.4(3) . 2_776
O12 Cu1 O10 103.3(2) . 2_766
O12 Cu1 O10 76.7(2) 2_766 2_766
O12 Cu1 O10 76.7(2) . .
O12 Cu1 O10 103.3(2) 2_766 .
O12 Cu1 O12 180.0 . 2_766
O4 Cu2 Cu2 134.6(2) 2_765 2_665
O4 Cu2 O11 89.0(3) 2_765 .
O4 Cu2 O11 88.4(3) 2_765 2_765
O4 Cu2 O14 165.9(3) 2_765 2_665
O11 Cu2 Cu2 99.10(17) 2_765 2_665
O11 Cu2 Cu2 136.38(17) . 2_665
O11 Cu2 O11 75.8(3) . 2_765
O14 Cu2 Cu2 40.4(2) 2_665 2_665
O14 Cu2 Cu2 41.22(16) . 2_665
O14 Cu2 O4 94.9(3) . 2_765
O14 Cu2 O11 96.9(2) 2_665 .
O14 Cu2 O11 114.0(2) . 2_765
O14 Cu2 O11 80.6(2) 2_665 2_765
O14 Cu2 O11 169.5(3) . .
O14 Cu2 O14 81.6(2) . 2_665
O7 Cu3 O12 74.5(2) 1_445 2_666
O7 Cu3 O15 83.8(3) 1_445 .
O10 Cu3 O7 178.1(3) . 1_445
O10 Cu3 O12 105.8(2) . 2_666
O10 Cu3 O15 95.7(3) . .
O12 Cu3 O7 97.8(3) . 1_445
O12 Cu3 O10 80.4(3) . .
O12 Cu3 O12 86.9(3) . 2_666
O12 Cu3 O13 171.8(3) . .
O12 Cu3 O15 88.5(3) . .
O12 Cu3 O15 157.0(3) 2_666 .
O13 Cu3 O7 90.1(3) . 1_445
O13 Cu3 O10 91.8(3) . .
O13 Cu3 O12 92.9(2) . 2_666
O13 Cu3 O15 94.7(3) . .
Se1 O3 U1 120.0(4) . .
Se1 O4 Pb1 124.6(3) . 2_665
Se1 O4 Cu2 130.1(4) . 2_765
Cu2 O4 Pb1 99.9(2) 2_765 2_665
U1 O5 Pb1 105.5(3) 2_875 2_765
Se1 O5 U1 125.5(3) . 2_875
Se1 O5 Pb1 121.5(3) . 2_765
Se2 O6 U1 140.8(4) . .
Se2 O7 Cu1 130.3(4) . 1_565
Se2 O7 Cu3 121.6(4) . 1_665
Cu3 O7 Cu1 102.4(2) 1_665 1_565
Se2 O8 U1 143.2(4) . 2_776
Se3 O9 U1 126.7(4) . .
Se3 O10 Cu1 138.1(3) . .
Se3 O10 Cu3 116.3(4) . .
Cu3 O10 Cu1 95.0(3) . .
Se3 O11 Pb1 107.9(3) . 1_655
Se3 O11 Cu2 122.9(3) . 2_765
Se3 O11 Cu2 116.4(4) . .
Cu2 O11 Pb1 97.3(2) 2_765 1_655
Cu2 O11 Pb1 105.3(2) . 1_655
Cu2 O11 Cu2 104.2(3) . 2_765
Cu1 O12 Cu3 101.3(2) . 2_666
Cu1 O12 Cu3 107.7(3) . .
Cu1 O12 H12 93(7) . .
Cu3 O12 Cu3 93.1(3) . 2_666
Cu3 O12 H12 132(6) 2_666 .
Cu3 O12 H12 126(6) . .
Pb1 O13 H13 91(6) . .
Cu3 O13 Pb1 115.1(3) . .
Cu3 O13 H13 108(6) . .
Pb1 O14 H14 90(6) . .
Cu2 O14 Pb1 112.3(3) 2_665 .
Cu2 O14 Pb1 102.3(2) . .
Cu2 O14 Cu2 98.4(2) . 2_665
Cu2 O14 H14 140(6) 2_665 .
Cu2 O14 H14 109(7) . .
Cu3 O15 H15A 111.1 . .
Cu3 O15 H15B 111.9 . .
H15A O15 H15B 102.4 . .
loop_
_geom_bond_atom_site_label_1
_geom_bond_atom_site_label_2
_geom_bond_distance
_geom_bond_site_symmetry_2
U1 O1 1.766(8) .
U1 O2 1.776(7) .
U1 O3 2.397(6) .
U1 O5 2.464(6) 2_875
U1 O6 2.355(6) .
U1 O8 2.354(7) 2_776
U1 O9 2.368(5) .
Pb1 O4 2.754(7) 2_665
Pb1 O5 2.637(7) 2_765
Pb1 O11 2.572(6) 1_455
Pb1 O13 2.380(7) .
Pb1 O14 2.495(6) .
Se1 O3 1.717(6) .
Se1 O4 1.697(6) .
Se1 O5 1.728(7) .
Se2 O6 1.689(6) .
Se2 O7 1.704(6) .
Se2 O8 1.690(8) .
Se3 O9 1.675(7) .
Se3 O10 1.706(6) .
Se3 O11 1.713(6) .
Cu1 O7 2.227(7) 1_545
Cu1 O7 2.227(7) 2_776
Cu1 O10 2.205(6) 2_766
Cu1 O10 2.205(6) .
Cu1 O12 1.935(7) 2_766
Cu1 O12 1.935(7) .
Cu2 Cu2 2.985(2) 2_665
Cu2 O4 1.988(6) 2_765
Cu2 O11 2.399(7) 2_765
Cu2 O11 2.017(7) .
Cu2 O14 1.955(7) .
Cu2 O14 1.988(6) 2_665
Cu3 O7 2.061(8) 1_445
Cu3 O10 2.046(7) .
Cu3 O12 1.949(6) .
Cu3 O12 2.373(7) 2_666
Cu3 O13 1.953(6) .
Cu3 O15 2.407(8) .
O12 H12 0.94(2) .
O13 H13 0.931(18) .
O14 H14 0.94(2) .
O15 H15A 0.8927 .
O15 H15B 0.8940 .
loop_
_geom_hbond_atom_site_label_D
_geom_hbond_atom_site_label_H
_geom_hbond_atom_site_label_A
_geom_hbond_distance_DH
_geom_hbond_distance_HA
_geom_hbond_distance_DA
_geom_hbond_angle_DHA
_geom_hbond_site_symmetry_A
_geom_hbond_publ_flag
O12 H12 O8 0.94(2) 2.02(4) 2.938(10) 165(9) 1_545 yes
O13 H13 O9 0.931(18) 1.997(18) 2.910(9) 166(7) 1_455 yes
O14 H14 O3 0.94(2) 1.83(4) 2.740(8) 161(10) 2_765 yes
O15 H15A O5 0.89 1.99 2.852(10) 160.6 2_765 yes
O15 H15B O6 0.89 2.06 2.847(13) 146.4 1_545 yes
loop_
_geom_torsion_atom_site_label_1
_geom_torsion_atom_site_label_2
_geom_torsion_atom_site_label_3
_geom_torsion_atom_site_label_4
_geom_torsion
_geom_torsion_site_symmetry_1
_geom_torsion_site_symmetry_2
_geom_torsion_site_symmetry_3
_geom_torsion_site_symmetry_4
O3 Se1 O4 Pb1 171.7(4) . . . 2_665
O3 Se1 O4 Cu2 -39.7(5) . . . 2_765
O3 Se1 O5 U1 -92.1(4) . . . 2_875
O3 Se1 O5 Pb1 53.4(4) . . . 2_765
O4 Se1 O3 U1 -93.6(4) . . . .
O4 Se1 O5 U1 161.3(4) . . . 2_875
O4 Se1 O5 Pb1 -53.1(4) . . . 2_765
O5 Se1 O3 U1 162.5(3) . . . .
O5 Se1 O4 Pb1 -84.0(4) . . . 2_665
O5 Se1 O4 Cu2 64.6(5) . . . 2_765
O6 Se2 O7 Cu1 111.6(5) . . . 1_565
O6 Se2 O7 Cu3 -99.7(4) . . . 1_665
O6 Se2 O8 U1 117.8(6) . . . 2_776
O7 Se2 O6 U1 138.5(6) . . . .
O7 Se2 O8 U1 -141.3(6) . . . 2_776
O8 Se2 O6 U1 -119.7(6) . . . .
O8 Se2 O7 Cu1 7.7(6) . . . 1_565
O8 Se2 O7 Cu3 156.4(4) . . . 1_665
O9 Se3 O10 Cu1 36.0(7) . . . .
O9 Se3 O10 Cu3 170.2(4) . . . .
O9 Se3 O11 Pb1 78.6(3) . . . 1_655
O9 Se3 O11 Cu2 -33.0(4) . . . 2_765
O9 Se3 O11 Cu2 -163.4(3) . . . .
O10 Se3 O9 U1 -119.2(4) . . . .
O10 Se3 O11 Pb1 -23.0(4) . . . 1_655
O10 Se3 O11 Cu2 95.0(4) . . . .
O10 Se3 O11 Cu2 -134.6(4) . . . 2_765
O11 Se3 O9 U1 141.2(4) . . . .
O11 Se3 O10 Cu1 137.7(6) . . . .
O11 Se3 O10 Cu3 -88.1(4) . . . .
loop_
_exptl_oxdiff_crystal_face_indexfrac_h
_exptl_oxdiff_crystal_face_indexfrac_k
_exptl_oxdiff_crystal_face_indexfrac_l
_exptl_oxdiff_crystal_face_x
_exptl_oxdiff_crystal_face_y
_exptl_oxdiff_crystal_face_z
2.7488 -12.7968 5.0768 -0.0421 -0.1495 0.9879
2.6772 1.8415 -14.4772 0.2308 0.9686 -0.0923
-2.3407 12.5631 -6.5853 0.0675 0.2571 -0.9640
-3.7935 3.0340 12.8520 -0.2198 -0.9329 -0.2852
7.3134 -2.4873 8.6646 -0.7969 0.1932 0.5724
-2.2948 -13.4171 -4.0183 0.6757 -0.1557 0.7205
-7.2355 -2.7805 -9.0520 0.9455 -0.2263 -0.2340
0.1619 14.1853 1.4952 -0.4446 0.0996 -0.8902
