#------------------------------------------------------------------------------
#$Date: 2022-02-01 10:53:03 +0200 (Tue, 01 Feb 2022) $
#$Revision: 272373 $
#$URL: file:///home/coder/svn-repositories/cod/cif/1/56/62/1566220.cif $
#------------------------------------------------------------------------------
#
# This file is available in the Crystallography Open Database (COD),
# http://www.crystallography.net/
#
# All data on this site have been placed in the public domain by the
# contributors.
#
data_1566220
loop_
_publ_author_name
'Vladislav V. Gurzhiy'
'Alina R. Izatulina'
'Maria G. Krzhizhanovskaya'
'Mikhail N. Murashko'
'Dar-ya V. Spiridonova'
'Vladimir V. Shilovskikh'
'Sergey V. Krivovichev'
_publ_section_title
;
 Thermal behavior of uranyl selenite minerals derriksite and
 demesmaekerite
;
_journal_name_full               'Journal of GeoSciences'
_journal_page_first              249
_journal_page_last               259
_journal_paper_doi               10.3190/jgeosci.315
_journal_volume                  65
_journal_year                    2020
_chemical_formula_moiety         'Cu5 H10 O30 Pb2 Se6 U2'
_chemical_formula_sum            'Cu5 H10 O30 Pb2 Se6 U2'
_chemical_formula_weight         2171.98
_space_group_crystal_system      triclinic
_space_group_IT_number           2
_space_group_name_Hall           '-P 1'
_space_group_name_H-M_alt        'P -1'
_atom_sites_solution_hydrogens   difmap
_cell_angle_alpha                88.654(4)
_cell_angle_beta                 79.604(4)
_cell_angle_gamma                89.804(4)
_cell_formula_units_Z            1
_cell_length_a                   5.6456(3)
_cell_length_b                   10.0564(4)
_cell_length_c                   11.9803(6)
_cell_measurement_reflns_used    2886
_cell_measurement_temperature    183(2)
_cell_measurement_theta_max      30.6650
_cell_measurement_theta_min      3.6670
_cell_volume                     668.82(6)
_computing_cell_refinement       'CrysAlisPro 1.171.39.44a (Rigaku OD, 2018)'
_computing_data_collection       'CrysAlisPro 1.171.39.44a (Rigaku OD, 2018)'
_computing_data_reduction        'CrysAlisPro 1.171.39.44a (Rigaku OD, 2018)'
_computing_molecular_graphics    'Olex2 1.3 (Dolomanov et al., 2009)'
_computing_publication_material  'Olex2 1.3 (Dolomanov et al., 2009)'
_computing_structure_refinement  'SHELXL 2018/3 (Sheldrick, 2015)'
_computing_structure_solution    'SHELXT 2018/3 (Sheldrick, 2015)'
_diffrn_ambient_environment      N~2~
_diffrn_ambient_temperature      183(2)
_diffrn_detector                 'CCD plate'
_diffrn_detector_area_resol_mean 10.3829
_diffrn_detector_type            Atlas
_diffrn_measured_fraction_theta_full 0.996
_diffrn_measured_fraction_theta_max 0.996
_diffrn_measurement_details
;
List of Runs (angles in degrees, time in seconds):

  # Type    Start    End  Width  t~exp~   \w     \q     \k     \f   Frames
--------------------------------------------------------------------------
  1  \w    -26.00   1.00   1.00   22.50    --  -15.14 -77.00-150.00   27
  2  \w    -40.00  17.00   1.00   22.50    --  -15.14 -77.00 -30.00   57
  3  \w     39.00 102.00   1.00   22.50    --   16.86 178.00  60.00   63
  4  \w     -2.00  93.00   1.00   22.50    --   16.86  38.00-120.00   95
  5  \w    -57.00  41.00   1.00   22.50    --   16.86 -57.00  90.00   98
;
_diffrn_measurement_device       'four-circle diffractometer'
_diffrn_measurement_device_type  'SuperNova, Dual, Cu at home/near, Atlas'
_diffrn_measurement_method       '\w scans'
_diffrn_orient_matrix_type
'CrysAlisPro convention (1999,Acta A55,543-557)'
_diffrn_orient_matrix_UB_11      -0.0828984000
_diffrn_orient_matrix_UB_12      -0.0268650000
_diffrn_orient_matrix_UB_13      -0.0314408000
_diffrn_orient_matrix_UB_21      0.0850570000
_diffrn_orient_matrix_UB_22      0.0095574000
_diffrn_orient_matrix_UB_23      -0.0508551000
_diffrn_orient_matrix_UB_31      0.0469937000
_diffrn_orient_matrix_UB_32      -0.0645324000
_diffrn_orient_matrix_UB_33      0.0070875000
_diffrn_radiation_monochromator  mirror
_diffrn_radiation_probe          x-ray
_diffrn_radiation_type           'Mo K\a'
_diffrn_radiation_wavelength     0.71073
_diffrn_reflns_av_R_equivalents  0.0358
_diffrn_reflns_av_unetI/netI     0.0600
_diffrn_reflns_Laue_measured_fraction_full 0.996
_diffrn_reflns_Laue_measured_fraction_max 0.996
_diffrn_reflns_limit_h_max       7
_diffrn_reflns_limit_h_min       -7
_diffrn_reflns_limit_k_max       13
_diffrn_reflns_limit_k_min       -13
_diffrn_reflns_limit_l_max       14
_diffrn_reflns_limit_l_min       -15
_diffrn_reflns_number            5491
_diffrn_reflns_point_group_measured_fraction_full 0.996
_diffrn_reflns_point_group_measured_fraction_max 0.996
_diffrn_reflns_theta_full        25.242
_diffrn_reflns_theta_max         27.495
_diffrn_reflns_theta_min         3.459
_diffrn_source                   'micro-focus sealed X-ray tube'
_diffrn_source_type              'SuperNova (Mo) X-ray Source'
_exptl_absorpt_coefficient_mu    36.772
_exptl_absorpt_correction_T_max  0.229
_exptl_absorpt_correction_T_min  0.061
_exptl_absorpt_correction_type   analytical
_exptl_absorpt_process_details
;
CrysAlisPro 1.171.39.44a (Rigaku Oxford Diffraction, 2018)
Analytical numeric absorption correction using a multifaceted crystal
			model based on expressions derived by R.C. Clark & J.S. Reid.
(Clark, R. C. & Reid, J. S. (1995). Acta Cryst. A51, 887-897)
Empirical absorption correction using spherical harmonics,
 implemented in SCALE3 ABSPACK scaling algorithm.
;
_exptl_crystal_colour            brown
_exptl_crystal_density_diffrn    5.393
_exptl_crystal_description       prism
_exptl_crystal_F_000             947
_exptl_crystal_size_max          0.12
_exptl_crystal_size_mid          0.063
_exptl_crystal_size_min          0.055
_refine_diff_density_max         2.084
_refine_diff_density_min         -2.529
_refine_diff_density_rms         0.381
_refine_ls_extinction_coef       .
_refine_ls_extinction_method     none
_refine_ls_goodness_of_fit_ref   1.006
_refine_ls_hydrogen_treatment    mixed
_refine_ls_matrix_type           full
_refine_ls_number_parameters     197
_refine_ls_number_reflns         3058
_refine_ls_number_restraints     5
_refine_ls_restrained_S_all      1.005
_refine_ls_R_factor_all          0.0424
_refine_ls_R_factor_gt           0.0327
_refine_ls_shift/su_max          0.000
_refine_ls_shift/su_mean         0.000
_refine_ls_structure_factor_coef Fsqd
_refine_ls_weighting_details
'w=1/[\s^2^(Fo^2^)+(0.0229P)^2^] where P=(Fo^2^+2Fc^2^)/3'
_refine_ls_weighting_scheme      calc
_refine_ls_wR_factor_gt          0.0653
_refine_ls_wR_factor_ref         0.0699
_reflns_Friedel_coverage         0.000
_reflns_Friedel_fraction_full    .
_reflns_Friedel_fraction_max     .
_reflns_number_gt                2595
_reflns_number_total             3058
_reflns_threshold_expression     'I > 2\s(I)'
_cod_data_source_file            Demesmaekerite_SN_-90C_last.cif
_cod_data_source_block           demesmaekerite_sn_-90C
_cod_original_cell_volume        668.82(5)
_cod_database_code               1566220
_chemical_oxdiff_formula         'Pb2 Cu5 U2 Se3 O30'
_shelx_space_group_comment
;
The symmetry employed for this shelxl refinement is uniquely defined
by the following loop, which should always be used as a source of
symmetry information in preference to the above space-group names.
They are only intended as comments.
;
_reflns_odcompleteness_completeness 99.80
_reflns_odcompleteness_iscentric 1
_reflns_odcompleteness_theta     28.51
_olex2_refinement_description
;
1. Fixed Uiso
 At 1.5 times of:
  All O(H) groups, All O(H,H) groups
2. Restrained distances
 O14-H14
 0.95 with sigma of 0.02
 O13-H13
 0.95 with sigma of 0.02
 O12-H12
 0.95 with sigma of 0.02
 H15A-O5_$3
 2 with sigma of 0.02
 O9_$2-H13
 2 with sigma of 0.02
3. Uiso/Uaniso restraints and constraints
Uanis(O6) = Uanis(O7)
Uanis(O11) = Uanis(O10)
Uanis(O3) = Uanis(O9)
4.a Rotating group:
 O15(H15A,H15B)
;
_shelx_res_file
;
TITL Demesmaekerite_SN_183K in P-1
    demesmaekerite_sn_183k.res
    created by SHELXL-2018/3 at 02:12:25 on 09-Sep-2020
REM P-1 (#2 in standard setting)
CELL 0.71073 5.645561 10.056441 11.980293 88.6542 79.6035 89.8035
ZERR 1 0.00026 0.000402 0.000562 0.0035 0.0039 0.0035
LATT 1
SFAC Cu H O Pb Se U
UNIT 5 10 30 2 6 2
EQIV $1 +X,-1+Y,+Z
EQIV $2 -1+X,+Y,+Z
EQIV $3 2-X,1-Y,-Z
DFIX 0.95 O14 H14
DFIX 0.95 O13 H13
DFIX 0.95 O12 H12
DFIX 2 H15a O5_$3
EADP O6 O7
EADP O11 O10
EADP O3 O9
DFIX 2 O9_$2 H13

L.S. 20
PLAN  4
CONF
HTAB O12 O8_$1
HTAB O13 O9_$2
HTAB O14 O3_$3
HTAB O15 O5_$3
HTAB O15 O6_$1
Htab
BOND $H
MORE -1
fmap 2
acta
OMIT -4 55
OMIT 1 2 11
OMIT -1 1 0
OMIT 1 2 10
OMIT 4 0 7
REM <olex2.extras>
REM <HklSrc "%.\\Demesmaekerite_SN_183K.hkl">
REM </olex2.extras>

WGHT    0.022900
FVAR       1.73400
U1    6    1.261109    0.916590    0.252461    11.00000    0.01161    0.00647 =
         0.00265    0.00001   -0.00019   -0.00339
PB1   4    0.171432    0.311420    0.194297    11.00000    0.01320    0.01064 =
         0.00943    0.00153   -0.00164   -0.00344
SE1   5    1.287866    0.889268   -0.046308    11.00000    0.01167    0.00681 =
         0.00373    0.00016   -0.00055   -0.00296
SE2   5    1.225492    1.169493    0.487215    11.00000    0.01850    0.01203 =
         0.00537    0.00030   -0.00084   -0.00393
SE3   5    0.906207    0.625471    0.220858    11.00000    0.01274    0.00738 =
         0.00759   -0.00216    0.00069   -0.00294
CU1   1    1.000000    0.500000    0.500000    10.50000    0.01063    0.01010 =
         0.00452   -0.00092   -0.00017   -0.00355
CU2   1    0.707667    0.443193    0.046155    11.00000    0.01023    0.00713 =
         0.00829    0.00089   -0.00246   -0.00258
CU3   1    0.564043    0.424064    0.384651    11.00000    0.01236    0.01420 =
         0.00401   -0.00083   -0.00131   -0.00659
O1    3    1.521596    0.865990    0.305222    11.00000    0.01226    0.02269 =
         0.01562    0.00471   -0.00177   -0.00115
O2    3    1.001225    0.966397    0.194942    11.00000    0.01263    0.01426 =
         0.01971   -0.00082   -0.00188    0.00086
O3    3    1.445565    0.866107    0.062314    11.00000    0.01325    0.00945 =
         0.00262    0.00052   -0.00150   -0.00504
O4    3    1.157916    0.738380   -0.057124    11.00000    0.01420    0.00825 =
         0.00766    0.00316   -0.00038   -0.00560
O5    3    1.518684    0.886274   -0.162688    11.00000    0.02105    0.01107 =
         0.00473   -0.00138   -0.00060   -0.00656
O6    3    1.156168    1.100561    0.368603    11.00000    0.02514    0.01209 =
         0.01000   -0.00182    0.00077   -0.00390
O7    3    1.238806    1.331837    0.441490    11.00000    0.02514    0.01209 =
         0.01000   -0.00182    0.00077   -0.00390
O8    3    0.957440    1.170587    0.574720    11.00000    0.02055    0.02050 =
         0.01244    0.00053    0.00823   -0.00220
O9    3    1.179955    0.691100    0.222174    11.00000    0.01325    0.00945 =
         0.00262    0.00052   -0.00150   -0.00504
O10   3    0.887592    0.513700    0.331917    11.00000    0.01520    0.01178 =
         0.00405   -0.00010    0.00260   -0.00640
O11   3    0.978725    0.514544    0.114137    11.00000    0.01520    0.01178 =
         0.00405   -0.00010    0.00260   -0.00640
O12   3    0.693393    0.409117    0.525214    11.00000    0.01913    0.00878 =
         0.01053    0.00389   -0.00248   -0.00470
H12   2    0.751161    0.322929    0.537695    11.00000   -1.50000
O13   3    0.472260    0.457896    0.237105    11.00000    0.01029    0.01051 =
         0.01300   -0.00026   -0.00084   -0.00407
H13   2    0.343972    0.519287    0.250511    11.00000   -1.50000
O14   3    0.403697    0.383253    0.006612    11.00000    0.01091    0.00869 =
         0.00402   -0.00342   -0.00170   -0.00046
H14   2    0.405816    0.295694   -0.019636    11.00000   -1.50000
O15   3    0.696664    0.203750    0.340838    11.00000    0.02347    0.03378 =
         0.02289   -0.01398   -0.00698   -0.00085
AFIX   7
H15A  2    0.685905    0.183450    0.269848    11.00000   -1.50000
H15B  2    0.853684    0.195750    0.340778    11.00000   -1.50000
AFIX   0
HKLF 4




REM  Demesmaekerite_SN_183K in P-1
REM wR2 = 0.0699, GooF = S = 1.006, Restrained GooF = 1.005 for all data
REM R1 = 0.0327 for 2595 Fo > 4sig(Fo) and 0.0424 for all 3058 data
REM 197 parameters refined using 5 restraints

END

WGHT      0.0229      0.0000

REM Instructions for potential hydrogen bonds
HTAB O12 Se2_$1
HTAB O12 O8_$1
HTAB O13 Se3_$2
HTAB O13 O9_$2
HTAB O13 O10_$2
HTAB O14 Se1_$3
HTAB O14 O3_$3
HTAB O15 Se1_$3
HTAB O15 O4_$3
HTAB O15 O5_$3
HTAB O15 Se2_$1
HTAB O15 O6_$1

REM Highest difference peak  2.084,  deepest hole -2.529,  1-sigma level  0.381
Q1    1   1.3238  0.8880  0.3032  11.00000  0.05    2.08
Q2    1   1.0578  1.1736  0.4611  11.00000  0.05    2.03
Q3    1   0.1198  0.2485  0.1606  11.00000  0.05    1.61
Q4    1   1.0130  1.0598  0.6636  11.00000  0.05    1.55
;
_shelx_res_checksum              77806
_shelx_hkl_file
;
   0   0   2 52808.6 1670.82   1
   0   0   3 41479.9 1521.80   1
   0   0  -3 43946.6 1825.88   4
   0   0   4 234125. 6600.28   1
   0   0  -4 247166. 7125.38   4
   0   0   5 61585.7 2335.59   1
   0   0  -5 65666.7 2840.45   4
   0   0  -5 60048.9 2093.07   3
   0   0   6 5594.80 600.297   1
   0   0  -6 5118.27 435.629   3
   0   0  -7 153641. 5558.84   4
   0   0   7 145293. 4750.51   1
   0   0  -8 3084.43 703.397   4
   0   0   8 3023.59 543.853   1
   0   0  -9 29740.3 2352.31   4
   0   0 -10 1234.50 653.757   4
   0   0 -11 11042.3 1578.38   4
   0   0 -12 1211.97 801.839   4
   0   0 -13 35921.1 3234.84   4
   0   0 -14 22413.7 2650.86   4
   0   0 -15 2924.56 1126.13   4
   0   1 -15 1033.76 777.906   4
   0   1 -14 66156.8 4727.38   4
   0   1 -13 9609.04 1693.48   4
   0   1 -12 59697.5 4026.17   4
   0   1 -11 52472.8 3582.12   4
   0   1 -10 143229. 6323.28   4
   0   1  -9 44024.9 2898.58   4
   0   1  -8 21915.8 1832.48   4
   0   1  -8 17281.2 1200.91   3
   0   1  -7 188702. 6213.81   3
   0   1  -7 211829. 7136.83   4
   0   1  -6 1518.81 335.217   3
   0   1  -6 2123.39 414.221   1
   0   1  -6 2068.40 491.386   4
   0   1  -5 88546.4 3143.83   1
   0   1  -5 90397.6 3535.25   4
   0  -1   5 92722.8 2844.76   3
   0  -1   4 2482.62 302.601   3
   0   1  -4 2658.09 466.467   4
   0   1  -4 2847.29 421.676   3
   0  -1   3 104337. 3170.36   3
   0   1  -3 103367. 3468.99   4
   0   1  -3 98365.6 3411.10   3
   0  -1   2 418.688 146.561   3
   0   1  -2 312.410 137.788   4
   0  -1  -2 61666.1 2087.79   4
   0  -1  -3 25340.6 1274.34   4
   0  -1  -4 75012.9 2912.39   4
   0  -1  -5 2849.09 541.853   4
   0   1   5 2557.20 377.612   1
   0  -1  -6 147795. 5414.03   4
   0   1   6 148318. 4840.60   1
   0  -1  -7 39566.7 2416.47   4
   0   1   7 41419.0 2012.32   1
   0  -1  -8 11942.3 1358.46   4
   0   1   8 12795.6 1099.86   1
   0   1   9 5143.01 736.246   1
   0  -1  -9 5062.43 1016.78   4
   0  -1 -10 14388.9 1706.47   4
   0  -1 -11 31190.5 2682.68   4
   0  -1 -12 15192.7 1956.88   4
   0  -1 -13 1116.32 767.417   4
   0  -1 -14 3350.50 1061.48   4
   0  -1 -15 1360.36 996.196   5
   0  -1 -15 104.046 754.548   4
   0   2 -15 24638.4 2863.01   4
   0   2 -14 2185.33 862.263   4
   0   2 -13 3896.77 1143.30   4
   0   2 -12 10789.2 1647.20   4
   0   2 -11 82.7674 543.272   4
   0   2 -10 10309.4 1431.47   4
   0   2 -10 5630.40 825.366   3
   0   2  -9 2061.52 634.420   4
   0   2  -9 1913.65 554.864   1
   0   2  -9 1155.32 435.292   3
   0   2  -8 16305.4 1302.06   1
   0   2  -8 12909.9 1239.93   3
   0   2  -8 15608.4 1503.22   4
   0   2  -7 48988.9 2624.08   4
   0  -2   7 46116.7 2459.34   4
   0  -2   6 62413.9 2410.01   3
   0   2  -6 68180.8 3012.37   4
   0   2  -5 42308.3 2237.82   3
   0  -2   5 43046.8 1888.29   3
   0   2  -5 46173.9 2215.09   4
   0   2  -4 20513.7 1392.96   3
   0   2  -4 20723.3 1271.27   4
   0  -2   4 21628.9 1216.02   3
   0  -2   4 20413.3 1002.03   2
   0   2  -3 159006. 5446.80   3
   0  -2   3 165565. 4886.76   2
   0  -2   3 166094. 5219.57   3
   0   2  -3 166349. 5092.63   4
   0   2  -2 2342.62 302.947   4
   0   2  -2 2241.48 314.931   2
   0  -2   2 1798.44 368.492   3
   0  -2   2 1672.03 273.653   2
   0  -2   1 100778. 3508.97   3
   0   2  -1 98731.2 2865.47   4
   0  -2   1 99401.9 3305.56   2
   0  -2   0 11003.2 837.743   3
   0  -2   0 12196.7 855.373   2
   0  -2  -1 99435.6 2797.42   5
   0  -2  -1 94037.2 2682.93   4
   0  -2  -1 96050.2 3302.65   3
   0   2   1 94103.6 2709.77   4
   0   2   1 96112.6 2809.43   5
   0   2   2 458.726 144.889   4
   0  -2  -2 291.230 177.928   3
   0   2   2 466.562 160.801   3
   0  -2  -2 253.215 131.700   4
   0  -2  -2 431.828 162.536   5
   0  -2  -3 315.430 168.016   3
   0   2   3 735.573 220.415   4
   0  -2  -3 759.724 233.532   4
   0  -2  -4 485.930 171.442   3
   0  -2  -4 807.582 277.106   4
   0   2   4 1148.67 288.354   4
   0   2   5 799.123 282.324   4
   0  -2  -5 693.775 348.215   4
   0   2   6 12431.4 1070.50   4
   0  -2  -6 14182.9 1220.72   4
   0   2   7 12731.4 1038.80   1
   0   2   7 11402.0 1091.28   4
   0  -2  -7 12157.2 1241.79   4
   0  -2  -8 126812. 5230.84   4
   0   2   8 120908. 4554.75   1
   0  -2  -9 13879.3 1548.48   4
   0   2   9 13819.7 1254.64   1
   0  -2 -10 89592.6 4651.64   4
   0  -2 -11 38148.2 2971.02   4
   0  -2 -12 64154.2 4145.25   4
   0  -2 -13 28058.0 2781.08   4
   0  -2 -14 19870.3 2651.24   5
   0  -2 -14 19994.1 2480.88   4
   0  -2 -15 70965.3 5441.91   5
   0  -2 -15 83915.1 5429.47   4
   0   3 -15 24882.7 2764.53   4
   0   3 -14 2818.51 926.631   4
   0   3 -13 24747.4 2552.18   4
   0   3 -12 37690.7 2982.17   4
   0   3 -11 79839.5 3990.78   1
   0   3 -11 93039.0 4731.40   4
   0   3 -10 15408.3 1617.43   3
   0   3 -10 18351.4 1846.93   4
   0   3 -10 17552.9 1597.15   1
   0  -3  10 16391.6 1143.07   2
   0  -3   9 20701.5 1282.56   2
   0   3  -9 25112.0 2017.21   4
   0   3  -9 23900.2 1798.66   1
   0   3  -8-104.489 429.476   3
   0   3  -8 263.154 338.105   4
   0   3  -8 559.694 409.842   1
   0  -3   8 778.271 309.627   2
   0   3  -7 18976.7 1516.18   4
   0  -3   7 17054.7 1221.26   3
   0  -3   7 17376.6 1123.79   2
   0   3  -7 17601.5 1405.21   1
   0   3  -7 14814.3 1447.32   3
   0  -3   7 18578.8 1469.39   4
   0  -3   6 7704.16 814.875   3
   0  -3   6 8234.77 722.814   2
   0   3  -6 8835.13 1063.76   3
   0   3  -6 8688.64 930.420   4
   0   3  -5 55183.8 2787.89   3
   0   3  -5 50858.1 2342.67   4
   0  -3   5 49627.5 2358.56   3
   0  -3   5 51072.8 2354.72   4
   0  -3   5 45166.8 2043.94   2
   0  -3   4 31825.7 1565.27   2
   0   3  -4 34378.7 2067.61   3
   0   3  -4 34823.4 1670.75   4
   0  -3   4 33661.3 1871.69   3
   0  -3   4 33042.1 1683.02   4
   0  -3   3 82587.2 2866.46   4
   0  -3   3 79670.5 3317.39   3
   0  -3   3 74153.2 2863.62   2
   0   3  -3 79203.8 2791.08   4
   0   3  -3 83928.7 3488.33   3
   0   3  -3 86024.1 2975.11   2
   0  -3   2 234951. 6609.03   4
   0   3  -2 227147. 6520.80   4
   0  -3   2 234038. 7044.46   2
   0  -3   2 231926. 7459.78   3
   0   3  -2 236139. 7157.54   2
   0  -3   1 20975.8 1443.46   3
   0   3  -1 20830.3 774.225   4
   0   3  -1 20596.7 1333.19   2
   0  -3   1 20622.2 828.814   4
   0  -3   1 22174.4 1392.25   2
   0  -3   0 1710.89 437.400   3
   0   3   0 1423.10 200.340   5
   0  -3   0 1255.95 204.055   5
   0  -3   0 1456.76 393.689   2
   0   3   1 220226. 6111.48   5
   0  -3  -1 222707. 7103.93   3
   0  -3  -1 221344. 6116.44   5
   0   3   2 112672. 3374.06   4
   0  -3  -2 113780. 3472.25   5
   0   3   2 111905. 3811.31   3
   0  -3  -2 112864. 3330.71   4
   0  -3  -2 107365. 4051.69   3
   0  -3  -3 467370. 12830.8   5
   0  -3  -3 440287. 13130.9   3
   0  -3  -3 470747. 12686.8   4
   0   3   3 460054. 12651.9   4
   0   3   3 463076. 12864.1   3
   0   3   4 31414.6 1518.14   4
   0  -3  -4 30955.4 1650.57   5
   0  -3  -4 30049.7 1582.13   3
   0  -3  -4 30872.3 1559.54   4
   0  -3  -5 313108. 9010.17   4
   0  -3  -5 282019. 8465.96   3
   0   3   5 298053. 8775.32   4
   0  -3  -6 19629.2 930.225   3
   0  -3  -6 21414.6 1514.66   4
   0   3   6 21397.8 1394.40   4
   0  -3  -7 36246.9 2249.75   4
   0   3   7 37087.5 2043.78   4
   0  -3  -8 140394. 5620.94   4
   0  -3  -9 43020.4 2782.02   4
   0   3   9 42832.8 2387.45   1
   0  -3 -10 18513.1 1868.92   4
   0  -3 -11 2284.35 798.034   4
   0  -3 -12-403.892 682.967   4
   0  -3 -12 1080.90 824.905   5
   0  -3 -13 20167.1 2309.97   4
   0  -3 -13 18428.0 2343.90   5
   0  -3 -14 1774.22 865.933   5
   0  -3 -14 2045.65 963.772   4
   0  -3 -15 6988.82 1458.99   4
   0  -3 -15 7017.24 1786.13   5
   0   4 -15 4924.77 1244.69   4
   0   4 -14 846.753 751.247   4
   0   4 -13 38747.6 3109.14   4
   0   4 -12 32877.5 2694.36   4
   0   4 -12 27123.2 2325.01   1
   0   4 -11 41466.4 2836.29   1
   0   4 -11 44260.3 3014.19   4
   0  -4  10 15696.8 1229.42   2
   0   4 -10 19996.7 1859.93   4
   0   4 -10 19586.4 1805.41   1
   0  -4   9 102136. 3928.23   2
   0   4  -9 110356. 4726.58   1
   0   4  -8 19210.2 1648.92   1
   0   4  -8 18782.4 1577.94   4
   0   4  -8 16710.7 1713.21   3
   0  -4   8 16878.6 1236.17   2
   0  -4   8 18002.0 1409.71   3
   0  -4   7 117229. 4620.96   3
   0   4  -7 127888. 5368.44   3
   0   4  -7 121080. 4802.82   1
   0   4  -7 124792. 4721.87   4
   0  -4   7 118703. 4694.11   4
   0  -4   7 112867. 4233.77   2
   0  -4   6 45379.6 2472.62   3
   0   4  -6 48878.2 2354.36   4
   0  -4   6 43435.8 2135.68   2
   0   4  -6 44988.4 2781.95   3
   0   4  -5 123333. 4918.46   3
   0  -4   5 112244. 4491.58   3
   0  -4   5 105670. 3960.65   2
   0  -4   5 107926. 4051.53   4
   0   4  -5 113036. 4009.71   4
   0  -4   4 148129. 5214.60   2
   0  -4   4 155204. 5103.26   4
   0   4  -4 159795. 5011.48   4
   0  -4   4 154313. 5767.58   3
   0   4  -3 523.135 199.637   4
   0  -4   3 567.612 208.739   4
   0  -4   3 834.359 336.208   2
   0   4  -3 662.509 304.320   2
   0  -4   3 943.226 439.145   3
   0   4  -2 62256.0 2077.90   4
   0  -4   2 66379.1 2895.80   2
   0  -4   2 62905.3 2190.85   4
   0   4  -2 68261.2 3056.11   2
   0  -4   2 66069.3 3153.50   3
   0  -4   1 13807.3 1291.52   3
   0  -4   1 13710.3 1206.71   2
   0   4  -1 14226.6 1184.44   2
   0   4  -1 15749.9 951.058   5
   0  -4   1 12881.9 615.152   4
   0   4  -1 12702.8 520.562   4
   0   4   0 118411. 3542.58   5
   0  -4   0 120514. 4733.71   3
   0  -4   0 121652. 4608.59   2
   0  -4  -1 1603.22 238.914   5
   0  -4  -1 1862.33 503.296   3
   0   4   1 1687.75 219.843   5
   0   4   2 8278.60 494.981   4
   0  -4  -2 9175.10 1014.93   3
   0   4   2 9545.10 882.120   3
   0  -4  -2 8461.04 587.309   5
   0   4   3 9422.96 646.593   4
   0   4   3 9675.62 867.319   3
   0  -4  -3 9344.82 720.044   5
   0  -4  -3 9573.82 642.585   4
   0  -4  -3 9904.24 1045.84   3
   0  -4  -4 545.848 267.728   5
   0   4   4 618.589 284.255   3
   0  -4  -4 795.832 369.671   3
   0  -4  -4 661.091 257.572   4
   0   4   4 956.328 253.904   4
   0  -4  -5 22533.6 1451.50   5
   0  -4  -5 21985.0 1347.18   4
   0   4   5 19838.5 1224.63   4
   0  -4  -5 17484.9 1311.11   3
   0  -4  -6 4737.02 755.353   5
   0   4   6 4933.50 632.882   4
   0  -4  -6 4693.05 597.585   3
   0  -4  -6 4863.31 690.713   4
   0  -4  -7 54213.9 2116.29   3
   0  -4  -7 63487.4 2957.89   4
   0   4   7 60505.0 2692.67   4
   0  -4  -7 56957.8 3057.51   5
   0  -4  -8 200.036 411.745   4
   0  -4  -8-85.2883 480.028   5
   0  -4  -9 147718. 6389.33   5
   0  -4  -9 155908. 6141.69   4
   0  -4 -10 7279.78 1304.52   5
   0  -4 -10 9354.34 1308.27   4
   0  -4 -11 7791.39 1285.95   4
   0  -4 -11 8613.29 1465.14   5
   0  -4 -12 19676.5 2327.07   5
   0  -4 -12 18653.5 2071.72   4
   0  -4 -13 15108.9 2160.94   5
   0  -4 -13 15770.4 1946.59   4
   0  -4 -14 9224.29 1786.02   5
   0   4  14 12054.7 1442.32   2
   0  -4 -14 12533.9 1896.88   4
   0  -4 -15 1660.62 926.074   5
   0   5 -15-120.522 901.838   4
   0   5 -14 61951.1 4070.38   4
   0   5 -13 3879.62 1044.88   1
   0   5 -13 3830.64 972.948   4
   0   5 -12 24724.8 2238.95   4
   0   5 -12 20609.0 2159.20   1
   0   5 -11 1815.19 752.148   1
   0   5 -11 1593.57 753.585   4
   0   5 -10 32773.2 2342.14   4
   0   5 -10 30934.4 2454.35   1
   0  -5   9 624.757 350.631   2
   0   5  -9 410.959 431.292   4
   0   5  -9 403.556 453.360   1
   0  -5   8 12516.8 1320.21   3
   0   5  -8 11510.6 1341.60   1
   0  -5   8 11918.5 1120.29   2
   0   5  -8 13853.0 1305.67   4
   0  -5   7 1885.00 472.973   2
   0   5  -7 1714.08 554.256   1
   0   5  -7 2638.83 544.331   4
   0  -5   7 2095.72 604.253   3
   0  -5   6 34743.9 2013.17   2
   0   5  -6 35254.6 1910.68   4
   0  -5   6 36238.3 2385.10   3
   0  -5   5 10506.7 1077.60   2
   0  -5   5 10872.2 1264.60   3
   0  -5   5 10817.9 961.726   4
   0   5  -5 13118.6 972.099   4
   0   5  -5 11023.4 1323.70   3
   0   5  -4 6338.46 847.911   2
   0  -5   4 6472.13 673.696   4
   0  -5   4 6442.75 832.931   2
   0   5  -4 7091.72 1035.83   3
   0  -5   4 7325.86 1038.87   3
   0   5  -4 6879.58 630.172   4
   0   5  -3 61630.9 3098.42   2
   0  -5   3 60177.5 2296.22   4
   0   5  -3 60646.8 2155.91   4
   0  -5   3 59057.2 3218.83   3
   0  -5   3 62837.5 3005.89   2
   0   5  -2 59838.3 1919.11   4
   0   5  -2 59007.2 2981.45   2
   0  -5   2 61753.7 3268.62   3
   0   5  -2 60415.1 2456.36   5
   0  -5   2 55880.8 2028.81   4
   0  -5   2 64177.4 3064.54   2
   0  -5   1 64869.3 3184.89   2
   0  -5   1 65235.9 3350.80   3
   0   5  -1 62068.0 2378.55   5
   0   5  -1 62517.0 3057.98   2
   0  -5   0 149162. 5753.70   3
   0   5   0 141061. 4175.78   5
   0   5   1 13816.9 734.834   5
   0  -5  -1 15290.2 828.051   5
   0  -5  -1 15382.9 1523.29   3
   0  -5  -2 99017.1 4357.35   3
   0  -5  -2 97689.8 3138.86   5
   0   5   2 95304.5 2864.75   4
   0  -5  -3 1733.61 319.998   5
   0   5   3 1780.27 443.569   3
   0   5   3 1502.04 242.229   4
   0  -5  -3 1094.52 472.369   3
   0   5   4 96184.7 3664.84   3
   0   5   4 88466.1 3024.23   4
   0  -5  -4 82995.6 3873.45   3
   0  -5  -4 85932.5 3223.60   5
   0  -5  -5 2414.65 422.853   4
   0   5   5 2647.31 424.536   4
   0   5   5 2876.96 590.473   2
   0  -5  -5 1822.99 497.413   3
   0  -5  -5 2937.11 528.279   5
   0   5   6 2208.05 417.993   4
   0  -5  -6 2510.60 547.896   5
   0  -5  -6 2198.00 516.321   3
   0  -5  -6 2803.29 514.149   4
   0  -5  -7 5149.02 836.549   5
   0  -5  -7 4266.38 626.472   3
   0   5   7 5255.03 692.729   4
   0  -5  -7 5574.93 794.168   4
   0  -5  -8 1592.77 585.909   5
   0  -5  -8 741.021 423.416   4
   0  -5  -9 15638.8 1518.73   4
   0  -5  -9 14501.0 1633.13   5
   0  -5 -10 243.701 447.282   4
   0  -5 -10 105.491 584.161   5
   0  -5 -11 11034.6 1441.92   4
   0   5  11 10350.2 1295.15   2
   0  -5 -11 9404.23 1535.93   5
   0  -5 -12 937.898 766.758   5
   0   5  12 1133.40 567.796   2
   0  -5 -12 1313.55 670.633   4
   0  -5 -13 108403. 5471.74   4
   0  -5 -13 103495. 6001.11   5
   0   5  13 98948.4 4865.26   2
   0   5  14 3135.69 870.910   2
   0  -5 -14 2455.88 1095.05   5
   0  -5 -15 13439.8 2251.44   5
   0   6 -14 63043.8 3980.83   4
   0   6 -13 779.873 675.687   4
   0   6 -13 928.788 630.604   1
   0   6 -12 7258.15 1393.35   1
   0   6 -12 5652.29 1043.82   4
   0   6 -11 6011.78 1064.84   4
   0   6 -11 3645.86 980.029   1
   0   6 -10 93948.0 4339.79   4
   0   6 -10 96748.2 4901.81   1
   0   6  -9 18593.8 1576.41   4
   0  -6   9 18913.9 1774.50   3
   0   6  -9 17303.4 1838.33   1
   0  -6   8 36264.6 2269.17   2
   0   6  -8 36045.7 2563.77   1
   0  -6   8 39104.2 2629.53   3
   0   6  -8 39578.2 2246.76   4
   0  -6   7 54568.4 3275.65   3
   0   6  -7 58966.4 2710.00   4
   0  -6   7 55368.7 2928.05   2
   0   6  -6 994.195 373.437   4
   0  -6   6 1189.67 557.256   3
   0  -6   6 470.434 299.281   2
   0  -6   5 16803.3 1714.86   3
   0  -6   5 14802.6 1420.36   2
   0   6  -5 18054.2 1137.69   4
   0  -6   5 17639.0 1257.23   4
   0  -6   4 4370.34 816.212   2
   0  -6   4 5113.98 600.656   4
   0   6  -4 4539.75 490.251   4
   0   6  -4 4890.22 883.050   2
   0  -6   4 4154.84 856.777   3
   0   6  -3 66471.0 2262.39   4
   0  -6   3 72334.0 3784.22   3
   0   6  -3 66889.7 2852.71   5
   0  -6   3 70386.1 3476.88   2
   0   6  -3 67155.0 3524.73   2
   0  -6   3 65669.3 2430.92   4
   0  -6   2 4913.29 867.048   2
   0   6  -2 4252.73 815.345   2
   0   6  -2 4657.88 596.071   5
   0  -6   2 5639.83 1001.67   3
   0  -6   2 4703.99 396.496   4
   0   6  -1 130106. 5086.96   2
   0  -6   1 131796. 5516.22   3
   0   6  -1 118591. 3864.13   5
   0  -6   0 4412.56 877.984   3
   0   6   0 4678.70 399.765   5
   0  -6  -1 22777.3 1061.20   5
   0   6   1 21636.6 977.521   5
   0  -6  -1 22002.1 1954.75   3
   0   6   2 79676.7 2325.83   4
   0  -6  -2 88244.2 4192.51   3
   0  -6  -2 83680.8 2754.95   5
   0  -6  -3 113073. 4987.84   3
   0  -6  -3 113533. 3657.63   5
   0   6   3 109145. 3349.13   4
   0   6   4 30616.3 1370.41   4
   0  -6  -4 31822.6 1582.64   5
   0   6   4 28467.4 2057.73   2
   0  -6  -4 30374.6 2236.85   3
   0  -6  -5 8299.91 1132.81   3
   0  -6  -5 9232.13 873.500   5
   0   6   5 9880.17 764.503   4
   0   6   5 7878.39 1060.44   2
   0  -6  -6 320354. 11048.9   3
   0   6   6 345893. 10193.9   4
   0   6   6 350244. 11244.6   2
   0   6   7 1516.07 576.472   2
   0  -6  -7 413.597 359.870   3
   0  -6  -7 1156.18 424.731   5
   0   6   7 1472.00 429.089   4
   0   6   8 38597.8 2589.06   2
   0  -6  -8 45967.7 2467.02   4
   0  -6  -8 46320.1 2689.18   5
   0  -6  -8 35799.1 2058.96   3
   0  -6  -9 1071.75 620.029   5
   0   6   9 1557.70 627.982   2
   0  -6  -9 734.714 443.442   4
   0   6  10 98480.1 4748.68   2
   0  -6 -10 109323. 5232.96   5
   0  -6 -11 8904.92 1480.85   5
   0   6  11 9853.17 1348.40   2
   0  -6 -12 1411.95 742.560   5
   0   6  12 1856.76 714.326   2
   0  -6 -13 29929.7 2974.77   5
   0   6  13 30247.8 2538.40   2
   0   6  14 11838.2 1640.49   2
   0  -6 -14 12187.5 2036.47   5
   0  -6 -15 5037.39 1463.44   5
   0   7 -14 4539.54 1243.48   1
   0   7 -13 2170.72 850.223   1
   0   7 -13 897.030 579.674   4
   0   7 -12 16499.0 1697.52   4
   0   7 -12 18753.0 2217.74   1
   0   7 -11 3326.00 966.138   1
   0   7 -11 3741.24 835.703   4
   0   7 -10 5163.89 1109.70   1
   0   7 -10 5489.25 893.807   4
   0   7  -9 18662.6 1539.99   4
   0  -7   9 17748.5 1863.92   3
   0   7  -9 20051.4 2017.95   1
   0   7  -8 116273. 4456.19   4
   0  -7   8 115452. 5433.20   3
   0   7  -8 108926. 5175.37   1
   0  -7   7 1781.38 710.288   3
   0   7  -7 1496.50 404.493   4
   0  -7   6 37850.6 2853.16   3
   0   7  -6 43038.8 2016.83   4
   0   7  -5 38198.0 2558.30   2
   0  -7   5 37674.3 2780.95   3
   0   7  -5 38114.7 1733.59   4
   0  -7   5 35872.0 1896.03   4
   0  -7   4 144642. 4774.01   4
   0   7  -4 149762. 6235.78   2
   0   7  -4 148681. 4547.55   4
   0   7  -4 149601. 5364.65   5
   0  -7   4 158685. 6555.41   3
   0   7  -3 51308.6 2438.09   5
   0  -7   3 51144.4 3316.16   3
   0  -7   3 52462.6 1960.53   4
   0   7  -3 43674.1 2929.31   2
   0  -7   2 78935.6 4241.01   3
   0   7  -2 77676.4 2976.41   5
   0   7  -2 75364.0 3861.50   2
   0   7  -1 82734.5 2820.68   5
   0  -7   1 86579.4 4471.34   3
   0   7  -1 91922.6 4155.39   2
   0   7   0 258.725 337.565   2
   0   7   0 372.718 152.026   5
   0  -7   0 647.361 451.502   3
   0   7   1 39819.1 1463.66   5
   0   7   1 41741.5 2600.70   2
   0  -7  -1 38207.8 2800.44   3
   0  -7  -2 14110.2 1635.00   3
   0  -7  -2 16803.1 943.665   5
   0   7   2 15398.3 1525.75   2
   0   7   3 62228.0 3312.35   2
   0  -7  -3 62019.8 2301.18   5
   0  -7  -3 62118.7 3602.81   3
   0   7   3 57781.0 1929.94   4
   0   7   4 1109.93 442.321   2
   0   7   4 752.477 194.406   4
   0  -7  -4 796.489 272.442   5
   0  -7  -4 537.506 529.676   3
   0   7   4 1174.37 488.719   3
   0  -7  -5-113.718 216.346   5
   0  -7  -5-170.749 430.413   3
   0   7   5 137.757 154.225   4
   0   7   5-132.195 399.126   2
   0   7   6 7332.44 1118.52   2
   0   7   6 7005.38 699.344   4
   0  -7  -6 8970.71 910.937   5
   0  -7  -6 7071.15 1099.41   3
   0   7   7 3909.34 848.600   2
   0   7   7 3194.48 513.663   4
   0  -7  -7 2663.92 726.331   3
   0  -7  -7 4203.03 698.220   5
   0  -7  -8 4884.58 828.681   5
   0   7   8 4096.54 874.109   2
   0  -7  -8 3489.49 754.116   3
   0  -7  -9 8980.87 1187.01   5
   0   7   9 8090.00 1268.93   2
   0  -7 -10 36378.3 2657.04   5
   0   7  10 32677.4 2605.06   2
   0  -7 -11 2824.07 853.083   5
   0   7  11 95.3288 481.908   2
   0  -7 -12 50938.2 3616.75   5
   0   7  12 44229.1 3239.30   2
   0   7  13 5979.23 1233.74   2
   0  -7 -13 7049.02 1450.83   5
   0   7  14 13975.3 1806.64   2
   0  -7 -14 17311.9 2268.28   5
   0  -7 -15-195.318 703.485   5
   0   8 -13 62866.8 4474.05   1
   0   8 -12 1002.89 886.443   1
   0   8 -11 30384.1 2825.29   1
   0   8 -10 13721.5 1835.42   1
   0   8 -10 11521.6 1262.90   4
   0   8  -9 30435.0 2644.94   1
   0   8  -9 30986.9 1979.08   4
   0  -8   9 32463.6 2727.77   3
   0   8  -8 649.244 383.396   4
   0   8  -8 89.3494 494.272   1
   0  -8   8 1094.57 783.014   3
   0  -8   7 15770.0 1896.10   3
   0   8  -7 15690.4 1161.12   4
   0   8  -6 2588.01 443.865   4
   0  -8   6 4041.27 1059.57   3
   0   8  -5 2572.84 784.856   2
   0   8  -5 3543.35 660.967   5
   0  -8   5 4632.53 1077.00   3
   0  -8   5 3597.40 527.895   4
   0  -8   4 8074.01 675.814   4
   0  -8   4 8291.85 1410.69   3
   0   8  -4 8743.34 963.887   5
   0   8  -4 8069.46 1304.57   2
   0   8  -3 1608.69 658.884   2
   0   8  -3 999.482 334.829   5
   0  -8   3 788.633 626.171   3
   0   8  -2 8978.29 1269.29   2
   0   8  -2 6252.63 602.379   5
   0  -8   2 6743.07 1254.27   3
   0  -8   1 28286.9 2481.91   3
   0   8  -1 26571.6 2116.51   2
   0   8  -1 24499.8 1125.18   5
   0   8   0 44528.5 2785.03   2
   0   8   0 40087.6 1461.30   5
   0  -8   0 42986.1 3133.20   3
   0   8   1 11330.5 1354.21   2
   0  -8  -1 10519.0 1536.90   3
   0   8   2 37706.3 2553.01   2
   0  -8  -2 33368.6 2772.57   3
   0   8   3 69716.1 3700.87   2
   0  -8  -3 68832.2 2524.12   5
   0  -8  -3 72745.8 4165.95   3
   0  -8  -4 364.272 474.957   3
   0  -8  -4 130.378 177.554   5
   0   8   4 66.8231 376.773   2
   0   8   4 124.633 120.559   4
   0  -8  -5 37581.4 2791.83   3
   0   8   5 40019.7 2671.96   2
   0  -8  -5 42772.5 1851.51   5
   0   8   6 3384.08 855.328   2
   0  -8  -6 2652.12 772.641   3
   0  -8  -6 2851.64 494.729   5
   0   8   6 3837.17 493.812   4
   0   8   7 47909.8 3154.57   2
   0  -8  -7 52129.4 2507.45   5
   0  -8  -8 1538.23 476.441   5
   0   8   8 1331.08 722.744   2
   0  -8  -8 845.775 477.602   3
   0   8   9 2278.37 781.559   2
   0  -8  -9 2597.56 638.470   5
   0   8  10 225.973 476.420   2
   0  -8 -10-93.7431 410.581   5
   0   8  11 5444.63 1194.23   2
   0  -8 -11 5105.98 1009.14   5
   0  -8 -12 329.180 575.360   5
   0   8  12-440.264 598.060   2
   0   8  13-103.391 568.684   2
   0  -8 -13 2297.22 925.210   5
   0   8  14 16563.9 2068.01   2
   0   9 -11 46119.6 3643.26   1
   0   9 -10 6710.32 1364.17   1
   0  -9   9 22300.9 2403.46   3
   0   9  -9 25351.6 2456.44   1
   0  -9   8 5221.10 1226.23   3
   0  -9   7 34610.5 2983.54   3
   0  -9   6 52200.3 3714.92   3
   0  -9   5 81262.5 4733.67   3
   0   9  -5 76563.8 4444.33   2
   0   9  -4 7361.80 862.362   5
   0  -9   4 6488.64 1312.15   3
   0   9  -4 6930.91 1246.97   2
   0   9  -3 662.437 263.487   5
   0   9  -3 700.511 483.798   2
   0  -9   3 1131.39 677.921   3
   0   9  -2 5526.56 1060.68   2
   0   9  -2 3023.94 387.018   5
   0  -9   2 3967.66 1057.66   3
   0   9  -1 10176.7 601.976   5
   0  -9   1 10436.4 1590.29   3
   0   9  -1 12700.6 1529.46   2
   0   9   0 3779.92 867.556   2
   0  -9   0 2275.35 833.361   3
   0  -9  -1 45077.2 3434.82   3
   0   9   1 47568.9 3017.34   2
   0  -9  -2 2852.70 870.507   3
   0   9   2 4367.67 959.328   2
   0  -9  -3 43598.5 3390.36   3
   0   9   3 49836.1 3112.92   2
   0  -9  -4 46713.0 3422.17   3
   0  -9  -4 49608.0 2041.99   5
   0   9   4 50865.2 3191.24   2
   0  -9  -5 4711.06 1129.15   3
   0   9   5 3192.62 833.296   2
   0  -9  -5 4183.47 538.510   5
   0   9   6 16304.6 1792.45   2
   0  -9  -6 15097.5 1805.27   3
   0  -9  -6 15803.1 1133.65   5
   0  -9  -7 45841.9 2239.72   5
   0   9   7 42111.4 3061.37   2
   0   9   8 45138.2 3213.65   2
   0  -9  -8 47040.4 2431.47   5
   0  -9  -9 95466.0 4109.32   5
   0   9   9 87255.2 4869.69   2
   0   9  10 11943.6 1682.93   2
   0   9  11 62533.4 4079.37   2
   0   9  12 7671.25 1455.02   2
   0   9  13 32401.9 2948.02   2
   0  10 -10 1156.67 832.655   1
   0  10  -9 767.087 704.401   1
   0 -10   8-359.609 714.415   3
   0 -10   7 20868.4 2396.35   3
   0 -10   6 28938.5 2818.11   3
   0 -10   5 44749.9 3500.30   3
   0  10  -5 42728.2 3235.44   2
   0 -10   4 1477.42 763.687   3
   0  10  -4-113.090 486.499   2
   0  10  -3 48788.6 3320.54   2
   0 -10   3 42853.7 3463.73   3
   0 -10   2 6147.33 1339.66   3
   0  10  -2 8320.73 1323.75   2
   0 -10   1 92768.6 5388.81   3
   0  10  -1 102856. 5002.32   2
   0 -10   0 32488.5 2983.44   3
   0  10   0 38651.3 2753.95   2
   0  10   1 68667.4 3855.12   2
   0 -10  -1 66296.6 4384.54   3
   0 -10  -2 38812.8 3243.68   3
   0  10   2 39640.4 2818.50   2
   0 -10  -3 2150.00 910.406   3
   0  10   3 5413.41 1084.45   2
   0  10   4 20765.0 2026.68   2
   0 -10  -4 17362.1 2132.98   3
   0 -10  -5 3303.94 997.436   3
   0  10   5 2069.81 729.144   2
   0 -10  -6 25935.2 2539.65   3
   0  10   6 28724.5 2510.00   2
   0  10   7 1669.58 742.866   2
   0 -10  -7 1660.60 708.747   3
   0  10   8-486.510 641.333   2
   0  10   9 2736.87 907.623   2
   0  10  10 550.951 741.560   2
   0  10  11 7767.38 1458.16   2
   0  10  12 2852.13 995.441   2
   0  11  -9-225.031 758.274   1
   0 -11   8 47743.7 3839.76   3
   0 -11   7 1546.52 884.408   3
   0 -11   6 20227.7 2449.71   3
   0  11  -5 1778.63 799.397   2
   0 -11   5 2109.13 951.683   3
   0 -11   4 20880.5 2520.84   3
   0  11  -4 21958.0 2254.16   2
   0  11  -3-437.681 517.671   2
   0 -11   3-156.019 622.628   3
   0 -11   2 944.472 683.094   3
   0  11  -2 1893.25 744.837   2
   0  11  -1 4079.92 993.124   2
   0 -11   1 3974.25 1168.17   3
   0  11   0 5454.61 1149.91   2
   0 -11   0 2380.29 1020.52   3
   0  11   1 4079.33 1010.96   2
   0 -11  -1 2975.60 1075.77   3
   0 -11  -2 4388.89 1209.40   3
   0  11   2 7781.54 1284.11   2
   0 -11  -3 24412.2 2656.91   3
   0  11   3 27637.9 2406.28   2
   0 -11  -4 17658.0 2237.02   3
   0  11   4 18474.0 2003.08   2
   0  11   5 17806.3 1959.25   2
   0 -11  -5 10365.4 1729.17   3
   0 -11  -6 28560.5 2796.42   3
   0  11   6 33994.2 2813.49   2
   0  11   7 607.901 624.198   2
   0 -11  -7 883.715 592.356   3
   0  11   8 13908.0 1889.94   2
   0  11   9 398.244 602.979   2
   0  11  10 34227.1 3056.46   2
   0 -12   7-15.1110 640.116   3
   0 -12   6 5958.83 1410.01   3
   0 -12   5 1004.69 847.783   3
   0  12  -5 327.227 532.355   2
   0 -12   4 64675.2 4685.72   3
   0  12  -4 66402.3 4178.22   2
   0 -12   3 7403.01 1637.57   3
   0  12  -3 8816.57 1464.68   2
   0  12  -2 4517.90 1083.39   2
   0 -12   2 5414.44 1411.62   3
   0 -12   1 32484.0 3285.17   3
   0  12  -1 37143.4 2943.62   2
   0 -12   0 9119.33 1740.38   3
   0  12   0 11183.1 1606.31   2
   0  12   1 6204.79 1227.23   2
   0 -12  -1 6832.58 1562.22   3
   0  12   2 1478.39 778.915   2
   0 -12  -2 609.925 796.756   3
   0  12   3 24701.6 2354.92   2
   0 -12  -3 22587.3 2634.95   3
   0 -12  -4 4894.61 1297.29   3
   0  12   4 5205.09 1164.00   2
   0 -12  -5 26218.2 2786.72   3
   0  12   5 23433.3 2352.44   2
   0  12   6 4053.86 1137.57   2
   0 -12  -6 2297.07 897.494   3
   0  12   7 1203.22 769.524   2
   0  13  -5 2509.43 914.654   2
   0 -13   4 8055.69 1748.88   3
   0  13  -4 2228.86 878.759   2
   0 -13   3 8822.22 1806.58   3
   0  13  -3 8163.54 1473.00   2
   0 -13   2 44017.8 3910.53   3
   0  13  -2 39413.1 3183.89   2
   0 -13   1 941.154 901.120   3
   0  13  -1 257.209 556.279   2
   0  13   0 20600.7 2247.36   2
   0 -13   0 19282.4 2612.01   3
   0 -13  -1 816.927 831.011   3
   0  13   1 1301.35 754.970   2
   0  13   2 61235.6 3976.66   2
   0 -13  -2 54525.8 4423.14   3
   0  13   3 16135.9 2005.26   2
   0 -13  -3 16506.2 2371.93   3
   0  13   4 45349.3 3368.19   2
   0 -13  -4 39538.9 3634.05   3
   0 -13  -5 12699.5 2054.59   3
   0  14  -4 168.069 610.765   2
   0  14  -3 21625.3 2354.34   2
   0  14  -2-1083.98 773.635   2
   0 -14  -3-215.544 820.916   3
   0 -14  -4 921.519 1095.33   3
  -1  14  -1 862.135 704.474   2
  -1  14  -2 5443.48 1239.03   2
  -1  14  -3 4958.57 1202.80   2
  -1  14  -4 15793.5 1967.50   2
  -1  13   4 2441.20 914.285   2
  -1  13   3 10540.2 1617.74   2
  -1  13   2 5465.99 1173.23   2
  -1  13   1 19852.1 2182.04   2
  -1  13   0 6496.18 1301.76   2
  -1  13  -1 20588.9 2202.16   2
  -1  13  -2 526.111 628.851   2
  -1  13  -3-807.581 576.493   2
  -1  13  -4 2356.34 818.662   2
  -1  13  -5-242.549 513.117   2
  -1  12   7 4372.09 1216.97   2
  -1  12   6 8792.43 1542.07   2
  -1  12   5 617.086 648.556   2
  -1  12   4 3412.11 1021.53   2
  -1  12   3 7399.88 1394.61   2
  -1  12   2 17106.2 1970.56   2
  -1  12   1 9669.05 1521.23   2
  -1  12   0 28327.6 2484.82   2
  -1  12  -1 93867.5 4898.39   2
  -1  12  -2 2476.12 851.428   2
  -1  12  -3 13622.3 1729.22   2
  -1  12  -4 535.392 576.894   2
  -1  12  -5 95273.8 4977.03   2
  -1  12  -6 2014.29 790.741   2
  -1  12  -7 8939.04 1631.11   1
  -1  11   9 52338.1 3994.14   2
  -1  11   8 1945.02 826.690   2
  -1  11   7 24594.0 2529.48   2
  -1  11   6 64840.0 4188.14   2
  -1  11   5 31772.2 2767.13   2
  -1  11   4 7569.68 1369.92   2
  -1  11   3 3838.09 975.265   2
  -1  11   2 42875.2 3102.57   2
  -1  11   1 168.045 448.868   2
  -1  11   0 3599.31 921.016   2
   1 -11   0 2182.55 900.303   3
   1 -11   1 54.4036 661.994   3
  -1  11  -1 220.898 455.001   2
   1 -11   2 2253.82 924.829   3
  -1  11  -2 6231.33 1145.21   2
  -1  11  -3 16660.6 1823.57   2
  -1  11  -4 6439.14 1187.05   2
  -1  11  -5 620.403 531.485   2
  -1  11  -6 2199.01 815.630   2
  -1  11  -7 33426.1 2921.21   1
  -1  11  -8 1477.12 858.739   1
  -1  11  -9 26344.3 2744.33   1
  -1  10  11 11242.2 1885.61   2
  -1  10  10 7756.68 1589.62   2
  -1  10   9 5089.44 1227.42   2
  -1  10   8 2590.31 955.789   2
  -1  10   7 680.687 698.342   2
  -1  10   6 341.607 561.949   2
  -1  10   5 9951.12 1575.98   2
  -1  10   4 1740.93 771.886   2
   1 -10  -4 2492.96 570.171   5
   1 -10  -3 19080.8 1441.91   5
  -1  10   3 15904.0 1820.30   2
  -1  10   2 65520.2 3778.94   2
   1 -10  -2 57690.9 4139.31   3
   1 -10  -1 13159.1 1938.17   3
  -1  10   1 14136.6 1647.66   2
  -1  10   0 13412.7 1590.56   2
   1 -10   0 12813.8 1922.14   3
   1 -10   1 5354.31 1292.27   3
  -1  10  -1 6884.40 1111.82   2
  -1  10  -2 63750.3 3588.53   2
   1 -10   2 60514.9 4290.24   3
   1 -10   3 1529.81 877.527   3
  -1  10  -3 2395.92 726.555   2
  -1  10  -4 9857.58 1339.40   2
  -1  10  -5 2373.12 701.480   2
  -1  10  -6 12190.5 1631.53   2
  -1  10  -7 2573.04 896.776   1
  -1  10  -8 2278.62 851.094   1
  -1  10  -9-235.288 709.443   1
  -1  10 -10 6273.35 1430.04   1
  -1   9  12 50847.7 3911.46   2
  -1   9  11 794.734 763.862   2
   1  -9 -10 18692.5 1845.21   5
  -1   9  10 18385.1 2210.70   2
  -1   9   9 10990.0 1683.77   2
   1  -9  -9 9961.62 1290.34   5
  -1   9   8 4514.97 1088.20   2
   1  -9  -8 4240.93 852.327   5
  -1   9   7 6072.19 1191.70   2
   1  -9  -7 5678.60 891.612   5
  -1   9   6 22573.3 2227.66   2
   1  -9  -6 27282.6 1850.88   5
   1  -9  -5 18121.4 1428.70   5
  -1   9   5 20221.2 2046.53   2
   1  -9  -4 12075.4 1102.14   5
  -1   9   4 11396.9 1501.29   2
  -1   9   3 8677.26 498.018   4
   1  -9  -3 9666.10 976.608   5
  -1   9   3 9147.89 1313.26   2
   1  -9  -2 1561.64 747.262   3
  -1   9   2 2028.54 408.142   5
   1  -9  -2 2170.55 511.277   5
  -1   9   2 1231.71 556.043   2
  -1   9   1 7621.87 1156.48   2
   1  -9  -1 7001.68 1350.01   3
  -1   9   1 8041.19 772.092   5
  -1   9   0 1147.26 585.991   2
  -1   9   0 869.753 294.318   5
   1  -9   0 655.541 693.353   3
   1  -9   1 19892.6 2285.69   3
  -1   9  -1 21877.5 1346.13   5
  -1   9  -1 24457.4 2037.26   2
  -1   9  -2 38039.8 1964.35   5
   1  -9   2 36247.9 3073.97   3
  -1   9  -2 39833.8 2620.40   2
   1  -9   3 110441. 5772.13   3
  -1   9  -3 113624. 4186.44   5
  -1   9  -3 102902. 3165.88   4
  -1   9  -4 88020.8 2940.63   4
  -1   9  -4 97716.8 4551.93   2
   1  -9   4 91787.3 5152.11   3
  -1   9  -5 333.518 216.653   4
  -1   9  -5 482.300 493.062   2
  -1   9  -6 48671.1 3272.98   2
  -1   9  -6 45525.2 2073.50   4
  -1   9  -7 17893.3 1971.79   1
  -1   9  -7 20424.1 1358.46   4
  -1   9  -8 112527. 4311.62   4
  -1   9  -8 115051. 5662.92   1
  -1   9  -9 31006.9 1968.23   4
  -1   9  -9 30734.1 2764.85   1
  -1   9 -10 50519.7 2767.29   4
  -1   9 -10 51352.1 3753.55   1
  -1   9 -11-16.7410 692.242   1
  -1   9 -11-396.110 451.720   4
  -1   9 -12 893.036 599.769   4
   1  -8 -13 4385.26 1228.46   5
  -1   8  13 2169.87 940.899   2
  -1   8  12 3309.88 1045.81   2
   1  -8 -12 4529.94 1179.89   5
   1  -8 -11 16617.8 1979.01   5
  -1   8  11 16401.7 2041.46   2
   1  -8 -10 15886.6 1837.80   5
  -1   8  10 18936.2 2093.65   2
  -1   8   9 1843.79 808.569   2
   1  -8  -9 1015.28 572.819   5
  -1   8   8 97011.9 4950.82   2
   1  -8  -8 96974.2 4474.42   5
   1  -8  -7 25807.8 1933.97   5
  -1   8   7 23900.8 2182.60   2
   1  -8  -6 48455.5 2637.38   5
  -1   8   6 50580.8 3191.82   2
   1  -8  -5 40312.5 2248.14   5
  -1   8   5 40782.2 2777.20   2
  -1   8   5 37749.7 1756.18   4
   1  -8  -4 116349. 3978.39   5
  -1   8   4 113036. 4754.82   2
  -1   8   3 34717.7 1451.42   4
   1  -8  -3 37089.7 2845.23   3
   1  -8  -3 42964.2 2157.67   5
  -1   8   3 42208.6 2727.55   2
  -1   8   2 37587.9 2543.17   2
  -1   8   2 36411.8 1287.52   4
   1  -8  -2 36793.8 2848.92   3
   1  -8  -2 40404.1 2082.11   5
  -1   8   1 60328.4 1768.05   4
  -1   8   1 54023.6 1707.27   4
   1  -8  -1 69062.2 4010.46   3
  -1   8   1 67494.7 3498.05   2
  -1   8   1 49358.3 2359.74   5
   1  -8  -1 73849.2 2924.48   5
  -1   8   0 54687.6 2957.31   2
   1  -8   0 50132.3 3384.64   3
   1  -8   1 37214.3 2897.61   3
  -1   8  -1 28006.8 1617.63   5
  -1   8  -1 31073.8 1034.94   4
  -1   8  -1 42852.8 2563.75   2
   1  -8   2 8547.49 1431.68   3
  -1   8  -2 9085.09 519.621   4
  -1   8  -2 7034.01 800.162   5
  -1   8  -3 22101.4 1570.28   5
  -1   8  -3 19668.5 978.440   4
  -1   8  -3 23316.8 1872.60   2
   1  -8   3 20888.5 2159.64   3
  -1   8  -4 5057.83 833.092   5
  -1   8  -4 5600.52 535.309   4
  -1   8  -4 7607.58 1110.73   2
   1  -8   4 6215.12 1212.87   3
   1  -8   5 2183.15 788.808   3
  -1   8  -5 2091.48 379.006   4
  -1   8  -5 2207.87 676.775   2
  -1   8  -6 4010.02 868.496   2
  -1   8  -6 4194.70 583.057   4
  -1   8  -7 198.734 307.464   4
  -1   8  -7 84.2887 472.033   1
  -1   8  -8 15237.3 1775.72   1
  -1   8  -8 15152.9 1271.22   4
  -1   8  -9 7938.94 1372.72   1
  -1   8  -9 7940.77 1003.10   4
  -1   8 -10 23913.0 2420.17   1
  -1   8 -10 21582.3 1757.04   4
  -1   8 -11 7035.78 1065.76   4
  -1   8 -11 11112.7 1759.16   1
  -1   8 -12 19940.1 2390.52   1
  -1   8 -12 19408.7 1843.42   4
  -1   8 -13-202.722 546.713   4
  -1   8 -13 2010.59 956.331   1
  -1   8 -14 39530.4 2965.76   4
  -1   7  14 10062.5 1672.00   2
   1  -7 -14 7938.90 1672.67   5
  -1   7  13 56131.2 3793.30   2
   1  -7 -13 57417.6 4361.22   5
   1  -7 -12 2911.23 890.813   5
   1  -7 -11 32377.0 2827.49   5
   1  -7 -10-90.4436 643.875   5
   1  -7  -9 37482.7 2736.18   5
   1  -7  -8 28594.7 2227.16   5
   1  -7  -7 5167.17 876.068   5
  -1   7   6 1540.55 400.074   4
   1  -7  -6 1770.63 521.956   5
  -1   7   5 20263.8 1515.86   3
   1  -7  -5 18154.7 1426.07   5
   1  -7  -4 16209.4 1269.93   5
  -1   7   4 19083.7 1501.62   3
   1  -7  -3 4826.15 953.079   3
  -1   7   3 3897.65 785.579   2
   1  -7  -3 5116.70 705.016   5
  -1   7   3 5222.75 686.732   5
  -1   7   3 4271.49 432.194   4
  -1   7   2 14516.6 1097.82   5
   1  -7  -2 13369.5 1140.22   5
  -1   7   2 11837.3 1311.90   2
  -1   7   2 12425.0 681.733   4
   1  -7  -2 11246.1 1426.86   3
  -1   7   1 11445.1 1273.98   2
   1  -7  -1 10600.4 1394.74   3
  -1   7   1 10089.6 545.863   4
   1  -7  -1 9802.08 971.015   5
  -1   7   1 11767.3 939.035   5
  -1   7   0 33206.9 1231.67   4
  -1   7   0 34417.2 1734.14   5
   1  -7   0 33004.9 1890.06   5
   1  -7   0 28292.9 2420.79   3
  -1   7   0 33955.3 2247.36   2
  -1   7  -1 36587.5 1348.07   4
   1  -7   1 37862.6 2812.00   3
  -1   7  -1 42025.8 2486.90   2
  -1   7  -1 40755.9 1965.33   5
  -1   7  -2 4944.59 417.222   4
  -1   7  -2 5292.37 706.169   5
  -1   7  -2 4756.88 853.936   2
   1  -7   2 4087.63 933.783   3
  -1   7  -3 63046.8 3058.08   5
   1  -7   3 63210.8 3700.09   3
  -1   7  -3 69388.5 3338.39   2
  -1   7  -3 60168.4 2250.28   4
  -1   7  -4 43647.8 2625.57   2
  -1   7  -4 44599.5 2641.81   5
   1  -7   4 43011.1 2951.60   3
  -1   7  -4 41246.6 1831.25   4
  -1   7  -5 43809.6 1999.99   4
   1  -7   5 40376.8 2144.03   4
  -1   7  -5 47832.2 2810.65   5
   1  -7   5 38853.6 2800.87   3
  -1   7  -5 44824.6 2781.17   2
  -1   7  -6 13150.8 1445.76   1
  -1   7  -6 12479.8 1365.49   2
  -1   7  -6 13597.1 1069.48   4
  -1   7  -7 22322.9 1495.53   4
  -1   7  -7 22475.1 1986.15   1
  -1   7  -8 92.8033 268.976   4
  -1   7  -8-132.706 471.507   1
  -1   7  -9 4496.74 988.007   1
  -1   7  -9 4689.76 826.588   4
  -1   7 -10 276.129 509.813   1
  -1   7 -10 1500.88 605.749   4
  -1   7 -11-191.349 636.799   1
  -1   7 -11-575.877 555.661   4
  -1   7 -12 2009.59 869.119   1
  -1   7 -12 3935.82 932.399   4
  -1   7 -13 16561.5 1824.63   4
  -1   7 -13 16033.2 2093.50   1
  -1   7 -14 8552.16 1438.21   4
   1  -6 -14 11656.7 2026.39   5
   1  -6 -13 27461.2 2983.65   5
   1  -6 -12 3622.59 1131.23   5
   1  -6 -11 12837.6 1847.00   5
   1  -6 -10 3513.84 916.527   5
   1  -6  -9 121202. 5602.80   5
   1  -6  -8 1723.61 581.872   5
   1  -6  -7 53910.6 3117.91   5
  -1   6   7 61069.2 2662.12   3
  -1   6   6 21993.0 1437.27   4
  -1   6   6 27056.7 1641.13   3
   1  -6  -6 26275.4 1883.96   5
   1  -6  -5 4765.34 747.204   5
  -1   6   5 4689.88 682.516   3
  -1   6   5 3911.70 540.002   4
   1  -6  -4 7711.97 879.753   5
  -1   6   4 7873.71 668.408   4
   1  -6  -3 35599.4 1932.94   5
  -1   6   3 37028.5 1945.46   5
  -1   6   3 32895.6 1454.74   4
  -1   6   2 103017. 3630.92   5
   1  -6  -2 91692.8 4253.33   3
   1  -6  -2 94450.2 3619.11   5
  -1   6   2 89556.5 2947.21   4
  -1   6   1 9801.38 1067.56   2
  -1   6   1 9878.47 851.587   5
   1  -6  -1 7566.93 853.206   5
  -1   6   1 8856.44 1062.22   3
   1  -6  -1 7858.53 1134.76   3
   1  -6   0 69603.6 3016.31   5
  -1   6   0 73188.9 2851.89   5
  -1   6   0 66045.4 3226.50   2
  -1   6   0 77269.5 3520.83   3
  -1   6   0 68533.0 2353.69   4
   1  -6   0 66439.3 3559.87   3
  -1   6  -1 339.459 223.882   5
   1  -6   1 295.544 461.297   3
  -1   6  -1 412.579 315.321   2
  -1   6  -1 100.365 99.3686   4
  -1   6  -2 1000.15 214.318   4
   1  -6   2 513.355 371.594   3
  -1   6  -2 857.287 318.858   5
  -1   6  -2 992.921 431.446   2
  -1   6  -3 2867.81 595.529   5
   1  -6   3 2442.86 661.373   3
  -1   6  -3 3048.92 620.244   2
  -1   6  -3 2626.63 366.158   4
  -1   6  -4 76297.1 3639.93   5
  -1   6  -4 76234.7 2781.98   4
  -1   6  -4 69566.0 3356.07   2
   1  -6   4 67914.5 2937.41   4
   1  -6   4 74002.6 3712.44   3
  -1   6  -5 7185.85 999.733   5
   1  -6   5 7360.46 830.238   4
  -1   6  -5 6812.10 727.010   4
  -1   6  -5 6770.71 943.877   2
  -1   6  -6 74832.4 3364.35   2
  -1   6  -6 81848.0 3837.95   1
  -1   6  -6 80693.1 3267.20   4
  -1   6  -7 175609. 6066.21   4
  -1   6  -7 175582. 6764.92   1
  -1   6  -8 27040.0 2211.57   1
  -1   6  -8 30347.3 1950.24   4
  -1   6  -9 23703.2 1819.88   4
  -1   6  -9 23783.6 2175.92   1
  -1   6 -10 3275.82 743.349   4
  -1   6 -10 3582.05 954.869   1
  -1   6 -11 183393. 7593.10   1
  -1   6 -11 174965. 6919.34   4
  -1   6 -12 3350.77 1023.79   1
  -1   6 -12 3604.59 916.785   4
  -1   6 -13 26790.3 2426.88   4
  -1   6 -14 4528.83 1113.61   4
  -1   6 -15 22529.9 2487.00   4
   1  -5 -15 2538.79 1172.92   5
   1  -5 -14 8329.46 1771.67   5
   1  -5 -13 2223.51 1042.83   5
   1  -5 -12 13520.3 2058.43   5
   1  -5 -11 1793.57 836.127   5
   1  -5 -10 11272.0 1627.64   5
  -1   5   9 9974.74 983.068   1
   1  -5  -9 10796.6 1489.71   5
   1  -5  -8 563.658 476.835   5
   1  -5  -7 94494.8 4353.89   5
  -1   5   6 23497.0 1365.23   3
   1  -5  -6 24036.8 1807.46   5
  -1   5   6 20412.2 1378.44   4
  -1   5   5 35583.8 1782.24   3
   1  -5  -5 31902.5 1988.28   5
  -1   5   5 29350.4 1582.04   4
  -1   5   4 7294.10 653.662   4
   1  -5  -4 6666.17 807.608   5
  -1   5   4 7554.68 819.514   3
  -1   5   3 251619. 7633.95   5
   1  -5  -3 238633. 7583.71   5
  -1   5   3 259081. 7778.14   3
  -1   5   3 228188. 6949.67   4
  -1   5   2 1570.17 247.519   4
  -1   5   2 2003.13 420.033   5
  -1   5   2 2559.45 526.129   3
   1  -5  -2 2201.91 434.090   5
   1  -5  -1 76074.8 3405.02   3
  -1   5   1 74617.6 2905.54   5
   1  -5  -1 70903.4 2977.70   5
   1  -5   0 193892. 6786.28   3
  -1   5   0 190290. 6401.08   2
  -1   5   0 200396. 6176.38   5
   1  -5   0 190354. 6425.12   5
  -1   5  -1 152281. 5425.47   2
  -1   5  -1 150616. 4650.84   4
  -1   5  -1 158774. 5222.84   5
   1  -5   1 156678. 5766.67   3
   1  -5   1 160661. 5416.79   5
   1  -5   2 11685.7 1196.58   3
  -1   5  -2 11356.1 1126.74   5
  -1   5  -2 11482.3 751.927   4
  -1   5  -2 11590.8 1096.14   2
  -1   5  -3 62591.9 2453.98   4
   1  -5   3 67783.3 3230.50   3
  -1   5  -3 71327.8 3077.75   2
  -1   5  -3 69883.7 3342.42   5
  -1   5  -4 131582. 4293.27   4
  -1   5  -4 118299. 4676.45   2
  -1   5  -4 127420. 5037.59   5
   1  -5   4 119909. 4488.18   4
   1  -5   5 374.107 303.282   4
  -1   5  -5 664.106 377.176   1
  -1   5  -5 334.466 261.625   2
  -1   5  -5 851.921 287.977   4
  -1   5  -6 1939.71 484.612   4
  -1   5  -6 2523.72 618.301   1
  -1   5  -7 414.261 372.550   4
  -1   5  -7 176.843 358.297   1
  -1   5  -8 25287.1 1828.30   4
  -1   5  -8 23540.9 1964.79   1
  -1   5  -9 10281.7 1365.79   1
  -1   5  -9 8766.92 1122.06   4
  -1   5 -10 5582.97 959.855   4
  -1   5 -10 4307.44 986.305   1
  -1   5 -11 19202.0 1983.12   1
  -1   5 -11 20000.8 1922.13   4
  -1   5 -12 10448.7 1545.93   1
  -1   5 -12 10994.2 1493.43   4
  -1   5 -13 27268.5 2510.77   4
  -1   5 -14 2669.28 921.637   4
  -1   5 -15 19237.9 2371.75   4
   1  -4 -15 23657.6 3060.59   5
   1  -4 -14 4663.82 1436.04   5
   1  -4 -13 40803.6 3731.22   5
   1  -4 -12 60704.1 4393.84   5
   1  -4 -11 10989.7 1726.22   5
   1  -4 -10 83038.0 4735.46   5
  -1   4  10 79004.1 3318.48   1
  -1   4   9 14785.2 1155.92   1
   1  -4  -9 15794.8 1806.07   5
  -1   4   8 94057.5 3522.71   1
   1  -4  -8 93639.4 4602.74   5
   1  -4  -7 3142.55 758.672   5
   1  -4  -6 56292.2 2978.00   5
  -1   4   6 58587.0 2197.43   3
  -1   4   6 53190.1 2495.23   4
   1  -4  -5 20660.6 1619.45   5
  -1   4   5 21496.9 1330.64   4
  -1   4   5 25451.3 1330.24   3
  -1   4   4 29941.8 1509.68   4
  -1   4   4 32477.1 1605.22   3
   1  -4  -4 30520.9 1815.87   5
   1  -4  -3 1274.09 382.289   5
  -1   4   3 1365.73 287.498   4
  -1   4   3 1247.25 340.264   3
  -1   4   3 1170.49 336.084   5
  -1   4   2 62695.4 2591.54   5
   1  -4  -2 58921.4 2578.74   5
  -1   4   2 64342.0 2588.65   3
  -1   4   1 10678.2 913.265   3
  -1   4   1 11116.3 875.662   5
   1  -4  -1 8800.70 829.248   5
  -1   4   0 17947.7 1163.70   5
   1  -4   0 15312.3 1202.65   5
  -1   4  -1 128936. 4125.85   4
   1  -4   1 137046. 4814.51   5
  -1   4  -1 129835. 4553.28   5
  -1   4  -2 4275.20 699.096   5
  -1   4  -2 4593.11 622.877   2
  -1   4  -2 4448.20 484.249   4
  -1   4  -3 7297.70 906.637   5
   1  -4   3 6842.80 733.669   4
  -1   4  -3 6811.52 634.099   4
  -1   4  -3 8532.65 837.798   2
  -1   4  -4 132419. 4429.15   4
  -1   4  -4 125393. 4529.96   2
   1  -4   4 127470. 4606.39   4
  -1   4  -4 137685. 4981.74   3
  -1   4  -5 39675.5 1836.26   2
  -1   4  -5 43323.8 2106.27   4
  -1   4  -5 40801.6 2336.85   3
   1  -4   5 39414.0 2183.36   4
  -1   4  -6 74981.1 3272.23   4
  -1   4  -6 75517.7 3559.44   3
  -1   4  -7 24302.8 1820.27   1
   1  -4   7 25873.5 1928.25   4
  -1   4  -7 23254.9 1882.06   3
  -1   4  -7 27544.6 1855.75   4
  -1   4  -8 124120. 5021.90   4
  -1   4  -8 118820. 4979.76   1
  -1   4  -8 119667. 5217.24   3
  -1   4  -9 1883.25 616.120   4
  -1   4  -9 1546.58 565.009   1
  -1   4 -10 11545.5 1396.86   4
  -1   4 -10 9194.57 1237.36   1
  -1   4 -11 4962.60 1047.78   4
  -1   4 -12 16394.6 1890.18   4
  -1   4 -13-266.712 563.178   4
  -1   4 -14 1255.01 820.789   4
  -1   4 -15 881.667 872.046   4
   1  -3 -15 18381.8 2794.80   5
   1  -3 -14 13334.8 2292.10   5
   1  -3 -13 1948.45 1024.19   5
   1  -3 -12 625.266 739.322   5
   1  -3 -11 15786.8 2065.48   5
  -1   3  10 37698.9 2000.82   1
   1  -3 -10 43104.3 3271.55   5
  -1   3   9 680.648 299.554   1
   1  -3  -9 1355.91 647.313   5
   1  -3  -8 22512.1 2045.35   5
  -1   3   8 19079.9 1206.90   1
  -1   3   7 9813.21 785.732   1
   1  -3  -7 9818.90 1243.12   5
  -1   3   6 244058. 7649.94   4
  -1   3   6 241129. 6729.10   3
   1  -3  -6 247124. 8311.84   5
   1  -3  -5 18902.1 1490.92   5
  -1   3   5 17869.7 1215.48   4
  -1   3   5 19472.3 985.658   3
  -1   3   4 131133. 3959.35   3
   1  -3  -4 123305. 4594.27   5
  -1   3   4 118277. 4151.57   4
   1  -3  -3 4109.48 569.416   5
  -1   3   3 4946.89 489.667   3
  -1   3   3 5605.41 660.202   5
  -1   3   3 4226.56 474.668   4
   1  -3  -2 4860.13 588.809   5
  -1   3   2 4978.65 596.613   5
  -1   3   2 5632.48 549.264   3
  -1   3   1 154807. 4724.98   3
   1  -3  -1 148060. 4842.38   5
  -1   3   1 140232. 4752.71   5
   1  -3   0 68298.4 2856.38   5
  -1   3   0 73998.1 2804.28   5
  -1   3  -1 110288. 4013.57   5
  -1   3  -1 108777. 3696.18   4
   1  -3   1 114541. 4308.51   5
  -1   3  -2 80340.8 2933.77   4
  -1   3  -2 79748.4 2886.69   2
  -1   3  -3 6179.21 789.245   5
   1  -3   3 5457.27 678.962   4
  -1   3  -3 6662.05 624.306   2
  -1   3  -3 5849.77 618.009   4
  -1   3  -4 5496.47 652.633   4
  -1   3  -4 5847.53 710.141   3
  -1   3  -4 5327.24 535.950   2
   1  -3   4 5380.51 711.617   4
  -1   3  -5 21884.2 1474.99   3
  -1   3  -5 21923.6 1446.50   4
   1  -3   5 22699.1 1602.38   4
  -1   3  -6 48625.8 2500.85   4
  -1   3  -6 47076.4 2424.98   3
   1  -3   7 42754.2 2546.32   4
   1  -3   7 41593.9 1576.18   2
  -1   3  -7 39025.5 2281.99   1
  -1   3  -7 42587.1 2369.45   3
  -1   3  -7 42063.8 2459.61   4
  -1   3  -8 59946.3 3086.77   3
  -1   3  -8 60060.1 3188.31   4
   1  -3   8 57563.3 1988.10   2
  -1   3  -8 53756.6 2868.78   1
  -1   3  -9 112558. 4617.25   1
   1  -3   9 105608. 3270.78   2
  -1   3  -9 120028. 5067.64   4
  -1   3  -9 109942. 4818.76   3
   1  -3  10 35640.1 1280.54   2
  -1   3 -10 38007.0 2640.98   3
  -1   3 -11 5984.29 1137.16   4
  -1   3 -12 56637.7 3728.44   4
  -1   3 -13 54345.8 3822.34   4
  -1   3 -14 73454.8 4766.94   4
  -1   3 -15 25427.1 2844.84   4
   1  -2 -15 18318.9 2798.30   5
   1  -2 -14 24969.5 3105.96   5
   1  -2 -13 26575.6 3038.01   5
   1  -2 -12 7424.79 1560.15   5
   1  -2 -11 77056.3 4899.11   5
   1  -2 -10 12842.9 1785.22   5
   1  -2  -9 2962.73 870.435   5
   1  -2  -8 23204.4 2085.97   5
  -1   2   8 19929.8 1224.15   1
  -1   2   7 3335.73 451.321   1
   1  -2  -7 2698.37 724.098   5
   1  -2  -6 1420.92 466.930   5
  -1   2   6 1529.23 405.164   4
  -1   2   6 1382.53 272.778   1
   1  -2  -5 124195. 4864.42   5
  -1   2   5 119935. 3763.49   1
  -1   2   5 130909. 3571.44   3
  -1   2   5 116118. 4313.30   4
   1  -2  -4 27078.1 1723.71   5
  -1   2   4 28341.5 1514.54   4
  -1   2   4 30167.9 1129.95   3
   1  -2  -3 6288.15 711.091   5
  -1   2   3 5789.86 571.349   4
   1  -2  -2 205159. 6330.31   5
   1  -2  -1 169065. 5302.45   5
   1  -2   0 228305. 6941.77   5
  -1   2  -1 14030.5 766.072   1
   1  -2   1 14813.5 1226.05   5
  -1   2  -2 235686. 7061.73   4
  -1   2  -3 18167.9 875.091   2
  -1   2  -3 19214.5 1175.15   4
  -1   2  -4 76032.7 3079.04   4
  -1   2  -4 79514.3 2915.05   3
  -1   2  -5 127856. 4716.06   4
  -1   2  -5 132313. 4440.85   3
  -1   2  -6 227111. 7443.04   4
  -1   2  -6 216753. 6929.50   3
   1  -2   7 26938.0 1959.05   4
  -1   2  -7 24321.6 1553.01   3
  -1   2  -7 24725.1 1874.79   4
   1  -2   8 976.763 154.565   2
  -1   2  -8 984.879 339.146   3
  -1   2  -8 991.090 432.083   4
   1  -2   9 9436.20 519.756   2
  -1   2  -9 10740.7 1160.30   3
  -1   2  -9 11530.0 1406.98   4
  -1   2 -10 12431.8 1345.27   3
   1  -2  10 12692.8 643.501   2
  -1   2 -10 15256.2 1714.46   4
  -1   2 -11 12815.0 1662.28   4
  -1   2 -11 12241.7 1372.08   3
  -1   2 -12 5003.58 1152.30   4
  -1   2 -13-12.9828 622.983   4
  -1   2 -14 22551.4 2597.89   4
  -1   2 -15 8391.06 1758.64   4
   1  -1 -15 1469.66 1053.76   5
   1  -1 -14 21964.7 2940.05   5
   1  -1 -13 10434.8 1972.73   5
   1  -1 -12 35856.0 3457.04   5
   1  -1 -11 863.317 709.624   5
   1  -1 -10 90803.1 5211.13   5
   1  -1  -9 82964.1 4741.46   5
   1  -1  -9 90704.7 4454.09   4
   1  -1  -8 2411.31 773.818   5
   1  -1  -8 3427.88 743.812   4
   1  -1  -7 140680. 6049.14   5
   1  -1  -7 155478. 5760.56   4
   1  -1  -6 39234.5 2477.63   5
   1  -1  -5 174520. 6245.23   5
   1  -1  -4 473.117 321.305   5
   1  -1  -3 109087. 3951.71   5
   1  -1  -2 13061.7 925.030   5
   1  -1  -1 2524.32 381.205   5
   1  -1   0 2013.21 181.029   1
   1  -1   0 1653.68 319.282   5
   1  -1   1 142794. 5004.54   5
   1  -1   1 147435. 4197.10   1
   1  -1   2 35598.3 1415.27   1
  -1   1  -2 36139.6 1721.68   4
   1  -1   3 8698.89 647.135   1
  -1   1  -3 7950.03 763.755   4
  -1   1  -4 37574.2 1975.88   4
   1  -1   4 44047.1 1836.91   1
  -1   1  -5 590.107 319.440   4
   1  -1   5 227.051 193.488   1
  -1   1  -6 43196.0 2465.14   4
   1  -1   6 46367.0 2184.73   1
  -1   1  -6 47030.9 1971.74   3
   1  -1   7 76254.9 3214.90   1
  -1   1  -7 78111.9 3719.32   4
  -1   1  -7 76337.4 2928.05   3
  -1   1  -8 10444.6 933.373   3
  -1   1  -8 11770.3 1387.32   4
  -1   1  -9 78149.3 3309.69   3
  -1   1  -9 77899.4 4159.36   4
  -1   1 -10 32124.4 2095.03   3
  -1   1 -10 51453.1 3268.24   4
  -1   1 -11 61847.1 3161.24   3
  -1   1 -11 69512.9 4136.53   4
  -1   1 -12 1094.68 493.334   4
  -1   1 -13 15748.3 2124.82   4
  -1   1 -14 825.689 817.683   4
  -1   1 -15 7534.79 1689.01   4
  -1   1 -16 2641.06 1234.95   4
   1   0 -15 1775.52 1137.08   5
   1   0 -14 501.927 821.227   5
   1   0 -13 12677.2 2225.26   5
   1   0 -12 16991.3 2403.66   5
   1   0 -11 1534.80 848.311   5
   1   0 -10 921.299 611.155   4
   1   0 -10 936.717 689.002   5
   1   0  -9 21769.9 2292.43   5
   1   0  -9 22744.9 2053.86   4
   1   0  -8 43897.7 3155.82   5
   1   0  -8 52480.2 3001.54   4
   1   0  -7 64273.0 3715.53   5
   1   0  -7 73239.9 3485.85   4
  -1   0   7 71338.2 2212.98   3
   1   0  -6 1862.63 329.055   1
  -1   0   6 1807.25 276.584   3
   1   0  -6 1670.61 561.090   5
   1   0  -6 1891.51 478.427   4
   1   0  -5 21811.4 1673.81   5
  -1   0   5 23335.4 1051.93   3
   1   0  -5 22574.0 1076.89   1
   1   0  -4 83252.8 2664.85   1
   1   0  -4 89464.8 3567.74   5
   1   0  -3 515771. 14638.5   5
   1   0  -2 14308.4 965.146   5
   1   0  -1 109024. 3530.92   5
   1   0   0 13441.7 823.673   5
   1   0   1 149391. 4906.48   5
  -1   0  -2 23036.3 1300.02   4
  -1   0  -2 22670.3 850.035   2
  -1   0  -3 15658.2 747.375   2
   1   0   3 17644.0 667.058   2
  -1   0  -3 17701.4 1150.90   4
   1   0   4 275417. 7441.75   2
  -1   0  -4 267820. 8375.61   4
   1   0   5 2545.73 297.796   2
   1   0   5 2145.19 398.295   1
  -1   0  -5 2711.39 570.923   4
  -1   0  -6 44256.3 2482.68   4
   1   0   6 46354.8 1740.97   2
   1   0   6 45579.5 2188.33   1
  -1   0  -7 107.834 381.643   4
   1   0   7 56.7429 245.998   1
   1   0   8 4256.41 707.460   1
  -1   0  -8 4996.10 930.505   4
  -1   0  -8 3913.61 487.995   3
  -1   0  -9 8556.77 793.606   3
  -1   0  -9 9153.47 1315.64   4
  -1   0 -10 74624.6 3157.16   3
  -1   0 -10 88325.3 4519.14   4
  -1   0 -11 1480.91 725.747   4
   1   0  11 990.194 322.133   2
   1   0  12 24910.8 1471.03   2
  -1   0 -12 23567.3 2460.43   4
  -1   0 -13 107509. 5981.66   4
  -1   0 -14 35498.5 3386.30   4
  -1   0 -15 5875.65 1588.10   4
  -1   0 -16 12601.4 2317.16   4
   1   1 -15 13059.7 2543.34   5
   1   1 -14 35892.3 3967.78   5
   1   1 -13 51948.2 4604.23   5
   1   1 -12 3107.23 1246.02   5
   1   1 -11 22983.0 2714.77   5
   1   1 -10 152877. 6651.21   4
   1   1  -9 1495.13 601.807   4
  -1  -1   8 28516.2 1325.96   3
   1   1  -8 30681.1 2242.86   4
   1   1  -7 1921.33 622.572   4
  -1  -1   7 1709.40 336.837   3
   1   1  -6 115753. 4477.67   4
  -1  -1   6 113195. 3926.07   3
   1   1  -6 114124. 3908.39   1
   1   1  -5 13732.4 905.024   1
  -1  -1   5 13783.1 935.029   3
   1   1  -4 359.195 260.291   5
  -1  -1   4 335.735 173.423   3
   1   1  -3 71279.4 2905.20   5
   1   1  -2 12890.4 896.783   5
   1   1  -1 65339.3 2292.02   5
   1   1   0 19050.6 928.788   5
   1   1   1 37051.5 1638.03   5
  -1  -1  -1 37074.4 1452.42   2
  -1  -1  -2 22650.7 1256.19   4
  -1  -1  -2 21154.1 1064.49   2
   1   1   3 467625. 12415.8   2
  -1  -1  -3 453901. 12797.2   4
  -1  -1  -3 429068. 12543.1   2
  -1  -1  -4 23332.0 1482.29   4
   1   1   4 27068.0 1329.36   2
   1   1   5 49600.5 2084.32   2
  -1  -1  -5 47900.2 2421.39   4
  -1  -1  -6 75413.3 3472.64   4
   1   1   6 79434.4 2954.27   2
  -1  -1  -7 112945. 4742.53   4
   1   1   7 110845. 3829.65   2
   1   1   7 104769. 4123.30   1
   1   1   8 38578.3 1860.55   2
   1   1   8 36865.2 2180.04   1
  -1  -1  -8 36508.9 2512.81   4
   1   1   9 70440.3 2792.58   2
  -1  -1  -9 62199.0 2363.24   3
  -1  -1  -9 68673.4 3783.17   4
  -1  -1 -10 45286.2 1965.52   3
  -1  -1 -10 49381.9 3267.02   4
  -1  -1 -11 7213.24 1295.56   4
   1   1  11 6945.83 784.104   2
  -1  -1 -12 668.453 601.725   4
  -1  -1 -13 1107.33 727.830   4
  -1  -1 -14 7765.88 1614.77   4
  -1  -1 -15 5855.15 1574.56   4
  -1  -1 -16 1026.30 1072.98   4
   1   2 -15 1911.66 1261.60   5
   1   2 -14 3152.21 1404.72   5
   1   2 -13-289.224 753.586   5
   1   2 -12 1216.44 898.817   5
   1   2 -10 7172.55 1191.70   4
   1   2 -10 5751.67 858.047   1
  -1  -2   9 96550.6 3440.88   3
   1   2  -9 89955.8 3881.72   1
   1   2  -9 99743.0 4641.86   4
   1   2  -8 214.017 417.329   4
   1   2  -8 494.483 354.706   1
  -1  -2   8 532.658 278.407   3
   1   2  -7 134059. 5154.86   4
  -1  -2   7 129012. 4609.74   3
   1   2  -6 65229.6 2978.18   4
  -1  -2   6 62782.8 2855.82   4
  -1  -2   6 62444.1 2818.39   3
  -1  -2   5 22480.7 1447.64   3
  -1  -2   4 161677. 5202.03   4
  -1  -2   4 163303. 5386.31   3
   1   2  -3 22877.1 1415.81   5
  -1  -2   3 21631.6 1169.18   4
  -1  -2   3 21941.6 1324.08   3
  -1  -2   2 291809. 8267.48   4
   1   2  -2 291176. 8549.45   5
  -1  -2   2 304066. 8719.74   3
  -1  -2   1 44771.8 1788.56   2
   1   2  -1 39783.7 1594.15   5
  -1  -2   0 63469.2 1977.91   5
   1   2   0 59808.6 2012.29   5
  -1  -2   0 60566.1 2330.10   2
  -1  -2  -1 23969.3 1318.72   2
   1   2   1 24849.6 1119.18   5
  -1  -2  -1 26341.5 1081.30   5
   1   2   2 15302.6 971.908   4
  -1  -2  -2 16420.7 990.233   4
  -1  -2  -2 14877.5 1074.24   2
  -1  -2  -3 11401.8 865.411   4
   1   2   3 11981.1 885.361   4
  -1  -2  -3 11008.9 995.876   2
   1   2   3 10652.7 911.864   2
   1   2   4 658.094 271.286   2
  -1  -2  -4 606.746 278.550   4
   1   2   4 836.662 262.775   4
  -1  -2  -5 7143.66 809.427   4
   1   2   5 4908.47 666.527   4
   1   2   5 5676.77 717.349   2
  -1  -2  -6 1794.37 477.863   4
   1   2   6 2189.09 484.716   4
   1   2   6 1816.48 437.059   2
  -1  -2  -7 157636. 5961.78   4
   1   2   7 157963. 5807.77   4
   1   2   7 156161. 5428.72   2
   1   2   8 589.016 332.070   2
  -1  -2  -8 404.688 405.634   4
  -1  -2  -9 19049.0 1814.82   4
   1   2   9 18227.2 1396.26   2
  -1  -2 -10 27303.7 1110.63   3
  -1  -2 -10 25716.8 1073.20   3
  -1  -2 -11 27291.1 2438.60   4
  -1  -2 -12 55724.7 3817.06   4
  -1  -2 -13 30108.5 2879.08   4
  -1  -2 -14 63371.7 4556.86   4
  -1  -2 -15 1920.43 1341.71   4
  -1  -2 -16 7721.21 1782.84   4
   1   3 -15-3672.59 1500.37   5
   1   3 -14 70037.3 5791.94   5
   1   3 -13 20502.5 2931.58   5
   1   3 -11 1624.06 640.723   1
  -1  -3  10 24456.9 1569.27   3
   1   3 -10 25433.5 1963.81   1
  -1  -3   9 62606.4 2871.07   3
   1   3  -9 59925.4 3358.69   4
   1   3  -9 63776.6 3204.64   1
  -1  -3   8 175.014 267.242   3
   1   3  -8 471.328 403.284   4
   1   3  -8 405.999 322.292   1
  -1  -3   7 764.723 341.144   3
   1   3  -7-22.5484 336.939   4
   1   3  -7 627.473 352.309   1
  -1  -3   6 29123.7 1804.31   4
  -1  -3   6 31548.1 2007.70   3
  -1  -3   5 41793.4 1958.43   2
  -1  -3   5 44557.3 2407.13   3
  -1  -3   4 96700.1 3854.23   3
  -1  -3   4 93468.3 3404.24   2
  -1  -3   4 93028.5 3370.30   4
  -1  -3   3 7387.40 725.142   2
  -1  -3   3 6771.80 803.868   3
  -1  -3   3 6897.76 609.491   4
   1   3  -2 58073.5 2329.83   5
  -1  -3   2 60513.1 2513.84   2
  -1  -3   2 62306.1 2170.58   4
  -1  -3   2 61034.9 2691.86   3
   1   3  -1 77828.1 2599.37   5
  -1  -3   1 83701.1 3100.66   2
  -1  -3   1 80028.0 3217.10   3
   1   3   0 343558. 9248.80   5
  -1  -3   0 345943. 10143.9   2
  -1  -3   0 347578. 10196.1   3
  -1  -3  -1 49257.5 2256.92   3
  -1  -3  -1 44495.7 2245.67   2
  -1  -3  -1 51239.3 1881.89   4
  -1  -3  -2 180761. 5400.11   4
  -1  -3  -2 180444. 6176.92   2
  -1  -3  -3 101.307 161.906   4
  -1  -3  -3 44.9587 248.259   2
   1   3   3 219.536 161.398   4
  -1  -3  -4 76681.3 2979.27   4
   1   3   4 76993.3 3010.53   4
   1   3   4 85746.9 3497.14   2
   1   3   5 71697.2 3212.85   2
   1   3   5 69520.6 2946.49   4
  -1  -3  -5 70721.7 2986.65   4
   1   3   6 69951.9 3057.26   4
  -1  -3  -6 66688.3 3073.65   4
   1   3   6 64210.1 3097.33   2
   1   3   7 86887.6 3711.08   4
  -1  -3  -7 88761.1 3847.68   4
  -1  -3  -7 80243.9 3136.57   3
  -1  -3  -8 10143.4 803.649   3
  -1  -3  -8 12884.4 1344.91   4
  -1  -3  -9 1275.67 573.362   4
  -1  -3  -9 839.464 256.751   3
  -1  -3 -10 25987.9 1151.61   3
  -1  -3 -10 32507.2 2414.83   4
   1   3  11 4314.48 769.344   2
  -1  -3 -11 5241.42 1100.62   4
   1   3  12 46177.3 2716.26   2
  -1  -3 -12 48461.6 3404.53   4
   1   3  13 9624.78 1198.74   2
  -1  -3 -13 8511.52 1514.72   4
  -1  -3 -14 16981.3 2251.36   4
  -1  -3 -15 37522.0 3471.42   4
  -1  -3 -16 8926.45 1804.02   4
   1   4 -14 8127.01 2017.43   5
   1   4 -13 5576.14 1647.38   5
   1   4 -12 71660.9 4039.00   1
   1   4 -11 4046.49 920.992   1
   1   4 -10 22919.0 1997.38   1
  -1  -4  10 25713.8 1828.77   3
   1   4  -9 62299.0 3361.76   1
  -1  -4   9 61494.6 3130.41   3
  -1  -4   8 119034. 4604.88   2
  -1  -4   8 131807. 5193.16   3
   1   4  -8 133333. 5215.93   1
  -1  -4   7 28254.8 1753.47   2
  -1  -4   7 32865.2 2177.37   3
  -1  -4   6 17560.4 1333.36   2
  -1  -4   6 19668.2 1676.93   3
  -1  -4   6 18634.5 1398.83   4
  -1  -4   5 152206. 5841.75   3
  -1  -4   5 150492. 5252.70   2
  -1  -4   4 19469.3 1607.33   3
  -1  -4   4 18440.9 1327.20   2
  -1  -4   4 18985.7 1184.20   4
  -1  -4   3 30154.3 1750.51   2
  -1  -4   3 28373.5 1380.00   4
  -1  -4   3 29919.0 1979.62   3
   1   4  -2 13909.7 925.539   5
   1   4  -2 14768.1 1230.71   2
  -1  -4   2 14402.2 1170.48   2
  -1  -4   2 16500.7 1368.67   3
  -1  -4   2 14558.9 821.882   4
   1   4  -1 362.363 133.661   5
  -1  -4   1 292.692 127.789   4
  -1  -4   1 10.0818 238.005   3
  -1  -4   1 566.997 306.426   2
  -1  -4   0 7360.86 858.257   2
  -1  -4   0 6991.74 858.364   3
  -1  -4  -1 41302.5 1511.98   4
  -1  -4  -1 35286.1 2157.23   2
  -1  -4  -1 35178.2 2049.49   3
  -1  -4  -2 786.955 441.900   2
  -1  -4  -2 579.795 292.747   3
  -1  -4  -2 602.697 134.719   5
  -1  -4  -2 436.201 150.109   4
  -1  -4  -3 581.676 325.900   3
  -1  -4  -3 197.139 177.267   4
   1   4   3 191.403 160.491   4
  -1  -4  -3 171.344 287.342   2
  -1  -4  -4 85039.1 3105.50   4
   1   4   4 86133.5 3123.31   4
  -1  -4  -4 80401.8 3419.14   3
   1   4   5 81376.7 3197.87   4
  -1  -4  -5 77204.6 3306.98   3
  -1  -4  -5 87367.7 3304.24   4
   1   4   6 144360. 4981.44   4
  -1  -4  -6 147083. 5090.02   4
  -1  -4  -7 863.137 302.981   3
  -1  -4  -7 977.667 405.736   4
   1   4   7 899.628 365.258   4
  -1  -4  -8 87905.1 3497.29   3
   1   4   8 99785.0 4282.77   2
  -1  -4  -8 96923.4 4142.95   4
  -1  -4  -9 361.246 257.418   3
   1   4   9 325.481 386.674   2
  -1  -4  -9 1000.85 446.921   4
  -1  -4 -10 50418.6 3016.36   4
   1   4  10 46611.1 2761.91   2
   1   4  11 42388.3 2658.13   2
  -1  -4 -11 41269.0 2943.36   4
   1   4  12 66720.2 3555.22   2
  -1  -4 -12 68758.9 4085.63   4
   1   4  13 24673.2 2032.22   2
  -1  -4 -13 23808.0 2427.32   4
  -1  -4 -14 5797.84 1252.57   4
  -1  -4 -15 465.906 964.384   4
  -1  -4 -15 127.601 710.880   5
  -1  -4 -16 6263.37 1531.02   4
  -1  -4 -16 6659.15 1647.05   5
   1   5 -14 851.927 1098.32   5
   1   5 -13 7670.11 1912.11   5
   1   5 -13 5345.14 1233.80   1
   1   5 -12 5281.16 1147.62   1
  -1  -5  11 4858.73 876.613   3
   1   5 -11 4913.04 1060.04   1
   1   5 -10 1122.02 601.495   1
  -1  -5  10 1150.64 606.913   3
  -1  -5   9 980.977 489.199   3
   1   5  -9 763.076 510.319   1
  -1  -5   8 8383.47 1189.94   3
  -1  -5   7 4902.78 771.153   2
  -1  -5   7 6505.32 1052.64   3
  -1  -5   6 82345.0 4094.13   3
  -1  -5   6 83885.1 3465.74   4
  -1  -5   6 78993.3 3606.41   2
  -1  -5   5 1497.23 585.119   3
  -1  -5   5 2073.40 547.249   2
  -1  -5   4 192887. 7376.01   3
  -1  -5   4 194633. 6222.46   4
  -1  -5   4 201724. 6893.09   2
   1   5  -3 53148.2 3243.29   3
  -1  -5   3 48807.1 2901.57   3
  -1  -5   3 51991.5 2617.39   2
  -1  -5   3 45932.7 1963.06   4
  -1  -5   2 13012.6 1216.09   2
   1   5  -2 11439.9 1245.54   2
   1   5  -2 11880.4 818.319   5
  -1  -5   2 10964.5 1267.49   3
  -1  -5   2 11498.7 709.545   4
  -1  -5   1 159729. 5612.62   2
   1   5  -1 147606. 4255.82   5
  -1  -5   1 149782. 5733.08   3
  -1  -5   1 142426. 4222.96   4
   1   5  -1 158680. 5918.17   2
  -1  -5   0 56276.7 2921.59   2
  -1  -5   0 55925.7 1712.25   4
  -1  -5   0 56047.4 2961.47   3
  -1  -5  -1 230970. 7864.42   2
  -1  -5  -1 219194. 6016.65   4
  -1  -5  -1 218250. 7559.28   3
  -1  -5  -2 3366.31 317.711   4
  -1  -5  -2 3458.70 751.869   2
  -1  -5  -2 3535.05 667.411   3
   1   5   3 112589. 3606.54   4
  -1  -5  -3 114643. 4964.30   2
  -1  -5  -3 108037. 3308.42   5
  -1  -5  -3 111642. 3533.41   4
  -1  -5  -3 106017. 4442.78   3
   1   5   4 3344.24 449.573   4
  -1  -5  -4 3250.56 447.652   4
  -1  -5  -5 236.632 270.414   3
   1   5   5 795.473 277.608   4
  -1  -5  -5 365.205 249.166   4
   1   5   5 660.285 360.879   2
  -1  -5  -6 1073.74 380.999   3
  -1  -5  -6 1603.08 416.564   4
   1   5   6 1494.93 558.804   2
   1   5   6 1567.65 373.396   4
   1   5   7 38454.7 2455.81   2
   1   5   7 32919.5 1929.04   4
  -1  -5  -7 35909.1 2050.49   4
  -1  -5  -8 654.114 326.196   3
  -1  -5  -8 1257.53 467.445   4
   1   5   8 314.885 406.731   2
  -1  -5  -9 1616.39 492.094   3
  -1  -5  -9 1586.43 518.698   4
   1   5   9 2561.50 682.847   2
   1   5  10 47949.5 2937.45   2
  -1  -5 -10 52563.0 3024.62   4
  -1  -5 -11 10265.9 1388.05   4
   1   5  11 8538.29 1240.43   2
   1   5  12 34544.6 2508.38   2
  -1  -5 -12 31702.7 2637.77   4
  -1  -5 -13 5678.47 1241.13   4
   1   5  13 6318.60 1070.69   2
  -1  -5 -13 5759.75 1325.92   5
  -1  -5 -14 8077.49 1517.75   4
  -1  -5 -14 10014.3 1855.89   5
  -1  -5 -15 36479.3 3516.06   5
  -1  -5 -15 37980.3 3282.34   4
  -1  -5 -16 20058.0 2708.52   5
   1   6 -14 5924.81 1684.09   5
   1   6 -14 6948.75 1407.21   1
   1   6 -13 31053.6 3437.99   5
   1   6 -13 29817.3 2815.90   1
   1   6 -12 283.013 636.610   1
   1   6 -12 1859.04 1023.61   5
  -1  -6  11 106955. 4941.27   3
   1   6 -11 100673. 5259.80   1
   1   6 -10 22353.5 2180.37   1
  -1  -6  10 23146.9 2091.49   3
   1   6  -9 10809.4 1441.33   1
  -1  -6   9 10218.0 1398.70   3
  -1  -6   8 1562.32 623.470   3
  -1  -6   7 40688.8 2831.95   3
  -1  -6   6 44822.2 2283.98   4
  -1  -6   6 41254.6 2867.57   3
  -1  -6   5 479.071 480.983   3
  -1  -6   4 3175.32 752.659   3
  -1  -6   4 2765.61 445.995   4
  -1  -6   3 14119.4 914.596   4
   1   6  -3 14331.8 1492.39   2
  -1  -6   3 15116.7 1620.87   3
  -1  -6   3 13291.2 1364.56   2
   1   6  -2 16094.0 1645.08   2
  -1  -6   2 12490.7 1502.41   3
   1   6  -2 12804.6 832.252   5
  -1  -6   2 14962.5 1446.52   2
  -1  -6   2 14616.1 811.403   4
  -1  -6   1 93624.7 4233.50   2
   1   6  -1 89857.4 2685.21   5
   1   6  -1 93813.1 2773.91   5
  -1  -6   1 90531.8 4416.79   3
   1   6  -1 98711.6 4644.63   2
  -1  -6   1 91081.6 2744.07   4
  -1  -6   0 30744.7 2246.50   2
  -1  -6   0 32576.5 2364.58   3
   1   6   0 30804.3 2316.44   2
  -1  -6  -1 471.984 416.567   3
  -1  -6  -2 41619.3 1332.28   4
  -1  -6  -2 38995.6 2613.46   3
  -1  -6  -3 287598. 9859.48   3
  -1  -6  -3 290515. 7806.14   5
  -1  -6  -3 295776. 8107.86   4
  -1  -6  -4 5317.92 468.800   5
   1   6   4 5081.02 527.787   4
  -1  -6  -4 5505.70 929.828   3
   1   6   4 5434.80 921.065   2
  -1  -6  -4 5678.70 545.607   4
   1   6   5 52035.3 3000.78   2
  -1  -6  -5 50440.4 2088.33   5
  -1  -6  -5 44293.7 2783.92   3
  -1  -6  -5 48010.3 2104.63   4
   1   6   5 45562.5 2057.37   4
  -1  -6  -6 3179.89 739.987   3
  -1  -6  -6 3474.57 558.104   4
   1   6   6 3693.01 561.169   4
  -1  -6  -6 3075.60 533.419   5
   1   6   6 4250.09 895.577   2
   1   6   7 102428. 4012.22   4
  -1  -6  -7 96618.3 4535.44   3
   1   6   7 112034. 4904.17   2
  -1  -6  -7 111006. 4291.23   5
  -1  -6  -7 107852. 4157.63   4
  -1  -6  -8 3321.18 721.518   3
  -1  -6  -8 4555.91 787.057   4
  -1  -6  -8 5388.70 880.880   5
   1   6   8 4121.29 858.575   2
  -1  -6  -9 6664.96 961.358   3
  -1  -6  -9 9615.70 1262.00   5
   1   6   9 8167.74 1228.69   2
  -1  -6  -9 8923.12 1107.26   4
   1   6  10 68494.8 3749.75   2
  -1  -6 -10 72883.5 3907.99   5
  -1  -6 -10 70592.7 3596.77   4
  -1  -6 -11 693.901 616.201   4
   1   6  11 1573.49 681.646   2
  -1  -6 -11 1172.41 733.069   5
   1   6  12 4668.37 989.713   2
  -1  -6 -12 6703.58 1158.46   4
  -1  -6 -12 7476.12 1403.28   5
  -1  -6 -13 789.115 684.192   4
   1   6  13 1483.03 653.767   2
  -1  -6 -13 663.784 847.778   5
  -1  -6 -14 1988.75 881.563   4
  -1  -6 -14 983.968 705.803   5
  -1  -6 -15 2727.34 1066.33   5
  -1  -6 -15 1385.79 762.753   4
  -1  -6 -16 38426.5 3749.81   5
   1   7 -14 3370.31 1112.67   1
   1   7 -14 2587.44 1230.93   5
   1   7 -13 2076.08 966.563   1
   1   7 -13 2128.68 1122.28   5
   1   7 -12 868.171 757.398   1
   1   7 -12-750.197 988.587   5
   1   7 -11 56419.3 3880.19   1
  -1  -7  11 59992.2 3681.05   3
  -1  -7  10 261.407 455.138   3
   1   7 -10 745.074 653.703   1
  -1  -7   9 7550.79 1306.10   3
   1   7  -9 10741.1 1461.49   1
  -1  -7   8 33070.4 2659.81   3
  -1  -7   7 135629. 6150.05   3
  -1  -7   6 6467.49 1175.67   3
  -1  -7   6 7364.92 861.282   4
  -1  -7   5 51209.6 3380.66   3
  -1  -7   4 136768. 4529.48   4
  -1  -7   4 137710. 6182.90   3
  -1  -7   3 11543.8 783.987   4
   1   7  -3 10749.5 1416.03   2
   1   7  -3 10876.7 866.358   5
  -1  -7   3 10530.5 1453.10   3
  -1  -7   2 16330.5 792.207   4
   1   7  -2 16666.6 1801.01   2
   1   7  -2 14939.5 875.271   5
   1   7  -2 15377.3 847.696   5
  -1  -7   2 15023.0 1746.83   3
   1   7  -1 2014.94 668.462   2
  -1  -7   1 1240.89 611.761   3
  -1  -7   0 173365. 7200.79   3
   1   7   0 174175. 6967.92   2
   1   7   1 4191.48 851.858   2
  -1  -7  -1 2229.55 713.037   3
  -1  -7  -2 5120.67 1021.79   3
   1   7   2 5756.21 983.360   2
  -1  -7  -3 14747.1 1696.45   3
   1   7   3 18591.5 1755.21   2
  -1  -7  -4 7907.67 1255.09   3
  -1  -7  -4 6855.60 463.025   5
   1   7   4 8120.96 1168.40   2
  -1  -7  -4 7899.63 580.290   4
  -1  -7  -5 23362.5 1179.62   5
   1   7   5 26582.5 2164.83   2
  -1  -7  -5 23431.8 2127.74   3
   1   7   5 20880.7 1234.28   4
  -1  -7  -5 25399.0 1312.57   4
  -1  -7  -6 9675.55 1325.17   3
   1   7   6 6963.00 731.849   4
  -1  -7  -6 10810.2 874.435   5
  -1  -7  -6 10138.0 899.836   4
   1   7   6 10074.5 1336.35   2
   1   7   7 3570.21 553.361   4
  -1  -7  -7 3879.17 832.587   3
  -1  -7  -7 5204.89 731.330   4
   1   7   7 3307.94 797.611   2
  -1  -7  -7 4540.17 659.071   5
  -1  -7  -8 11494.8 1397.46   3
  -1  -7  -8 14041.4 1291.03   5
   1   7   8 15129.5 1672.01   2
  -1  -7  -8 15149.5 1345.16   4
   1   7   9 130746. 5820.61   2
  -1  -7  -9 136458. 5392.95   5
  -1  -7  -9 140171. 5311.46   4
  -1  -7 -10 107.272 289.671   3
  -1  -7 -10 2079.58 596.580   4
   1   7  10 2021.74 729.147   2
  -1  -7 -10 2507.84 746.384   5
  -1  -7 -11 32100.3 2442.15   4
  -1  -7 -11 35920.7 2713.20   5
   1   7  11 32789.0 2617.84   2
   1   7  12 440.456 527.737   2
  -1  -7 -12-235.839 526.915   4
  -1  -7 -12 895.941 643.044   5
  -1  -7 -13 39666.5 3246.44   5
   1   7  13 35487.6 2805.64   2
  -1  -7 -13 36339.1 2845.72   4
  -1  -7 -14 15106.0 2079.17   5
  -1  -7 -14 9923.36 1578.17   4
  -1  -7 -15 35183.9 3355.61   5
   1   8 -13 3603.18 1237.37   5
   1   8 -12 24250.7 2646.41   1
   1   8 -12 21911.4 2603.43   5
   1   8 -11 5263.29 1240.34   1
  -1  -8  11 5721.19 1191.19   3
   1   8 -11 5101.46 1227.01   5
   1   8 -10 14816.6 1949.72   1
  -1  -8  10 17945.9 2069.37   3
  -1  -8   9 12043.3 1706.10   3
  -1  -8   8 4918.58 1087.33   3
  -1  -8   7 376.819 598.789   3
  -1  -8   6 6576.86 1304.59   3
  -1  -8   5 7290.04 1316.34   3
  -1  -8   4-100.517 207.374   4
  -1  -8   4 298.298 421.722   3
   1   8  -4 317.465 244.776   5
  -1  -8   3 53316.8 1886.88   4
   1   8  -3 43415.9 2008.66   5
   1   8  -3 48091.3 2000.98   5
  -1  -8   3 51605.9 3486.68   3
   1   8  -3 54314.7 3534.89   2
  -1  -8   2 987.407 579.445   3
   1   8  -2 989.396 179.488   5
   1   8  -2 738.797 492.134   2
   1   8  -2 1379.30 211.811   5
  -1  -8   1 124891. 6008.66   3
   1   8  -1 126878. 5845.70   2
  -1  -8   0 36306.5 2898.70   3
   1   8   0 37254.4 2779.29   2
  -1  -8  -1 23803.2 2349.82   3
   1   8   1 25945.2 2220.39   2
   1   8   2 26443.8 2189.11   2
  -1  -8  -2 22867.2 2277.51   3
   1   8   3 17989.2 1799.63   2
  -1  -8  -3 20189.0 2111.97   3
  -1  -8  -4 157585. 7031.26   3
   1   8   4 168309. 6709.61   2
   1   8   5 11883.2 1482.96   2
  -1  -8  -5 11663.6 678.240   5
  -1  -8  -5 11041.9 1537.88   3
   1   8   6 22053.4 1300.83   4
  -1  -8  -6 22277.6 1213.16   5
   1   8   6 22823.6 2077.95   2
  -1  -8  -6 19720.8 2051.35   3
  -1  -8  -6 23414.9 1304.99   4
  -1  -8  -7 717.265 532.562   3
   1   8   7 687.021 571.861   2
  -1  -8  -7 377.832 269.746   5
  -1  -8  -7 916.152 361.216   4
  -1  -8  -8 3643.27 861.296   3
  -1  -8  -8 4037.97 659.459   4
   1   8   8 4957.36 1052.42   2
  -1  -8  -8 3911.74 621.147   5
  -1  -8  -9 3057.56 680.849   4
   1   8   9 2081.26 828.497   2
  -1  -8  -9 2183.11 670.099   3
  -1  -8  -9 2225.22 558.770   5
  -1  -8 -10 3718.78 776.233   4
   1   8  10 3758.97 894.461   2
  -1  -8 -10 3421.04 765.688   5
  -1  -8 -11-189.211 437.331   4
   1   8  11 72.6579 528.489   2
  -1  -8 -11 131.412 412.257   5
  -1  -8 -12 2872.98 836.754   4
   1   8  12 1085.87 645.231   2
   1   8  13 29182.1 2596.45   2
   1   9 -12 10844.8 1824.30   5
   1   9 -11 7511.07 1564.00   1
  -1  -9  11 8847.67 1535.07   3
   1   9 -11 5930.43 1296.11   5
   1   9 -10 33452.8 3018.89   1
   1   9 -10 40719.3 3051.63   5
  -1  -9  10 37054.4 3150.19   3
   1   9  -9 3606.40 891.307   5
  -1  -9   9 1645.41 835.300   3
   1   9  -8 66145.5 3617.84   5
  -1  -9   8 65921.1 4281.74   3
   1   9  -7 16763.8 1584.33   5
  -1  -9   7 17677.2 2093.77   3
  -1  -9   6 22612.7 2398.21   3
   1   9  -6 25491.9 1789.33   5
  -1  -9   5 934.150 668.054   3
   1   9  -5 311.819 327.478   5
   1   9  -4 35819.9 1755.32   5
  -1  -9   4 38049.6 3103.69   3
   1   9  -3 13387.3 1739.24   2
  -1  -9   3 13815.1 1822.97   3
   1   9  -3 12007.4 752.263   5
  -1  -9   2 901.410 665.287   3
   1   9  -2 543.539 506.797   2
  -1  -9   1 226.517 630.727   3
   1   9  -1 693.262 634.481   2
  -1  -9   0 37233.9 3109.01   3
   1   9   0 36794.9 2834.09   2
  -1  -9  -1 13922.0 1874.02   3
   1   9   1 16734.0 1829.06   2
   1   9   2 31562.2 2545.79   2
  -1  -9  -2 33778.8 2932.06   3
  -1  -9  -3 4081.06 1049.61   3
   1   9   3 5794.80 1086.24   2
  -1  -9  -4 19485.3 2222.78   3
   1   9   4 19095.5 1909.56   2
   1   9   5 52036.6 3322.34   2
  -1  -9  -5 51096.5 3622.46   3
   1   9   6 80046.1 4330.88   2
  -1  -9  -6 80584.7 4612.57   3
   1   9   7 15055.2 1748.69   2
  -1  -9  -7 13921.3 1783.30   3
  -1  -9  -8 63655.8 3917.46   3
   1   9   8 65729.4 3916.35   2
  -1  -9  -9 3900.38 963.492   3
   1   9   9 5769.81 1144.26   2
   1   9  10 44000.9 3210.94   2
   1   9  11 22081.3 2251.30   2
   1   9  12 21333.9 2263.05   2
   1   9  13 2636.34 914.779   2
  -1 -10  11 12246.8 1848.15   3
  -1 -10  10 14071.9 2022.60   3
   1  10 -10 10361.8 1803.91   1
  -1 -10   9 11382.8 1763.38   3
  -1 -10   8 15200.8 2073.74   3
  -1 -10   7 6322.94 1369.76   3
  -1 -10   6 49426.6 3779.71   3
  -1 -10   5 724.732 666.272   3
  -1 -10   4 29863.6 2874.59   3
   1  10  -3 38853.0 3131.17   2
  -1 -10   3 38157.3 3251.80   3
   1  10  -2 120147. 5889.41   2
  -1 -10   2 107576. 5945.31   3
  -1 -10   1 35522.0 3128.52   3
   1  10  -1 34559.6 2860.89   2
   1  10   0 695.916 624.223   2
  -1 -10   0 234.419 502.918   3
  -1 -10  -1 53124.9 3999.99   3
   1  10   1 58671.5 3692.44   2
  -1 -10  -2 7651.89 1567.22   3
   1  10   2 7345.78 1280.90   2
   1  10   3 37177.4 2821.62   2
  -1 -10  -3 35560.7 3160.96   3
  -1 -10  -4 9398.53 1567.79   3
   1  10   4 7540.23 1280.10   2
   1  10   5 13103.6 1655.98   2
  -1 -10  -5 12199.4 1818.80   3
   1  10   6 2085.55 833.681   2
  -1 -10  -6 813.803 569.087   3
   1  10   7 16211.6 1851.49   2
  -1 -10  -7 16181.4 2011.67   3
  -1 -10  -8 1720.51 728.592   3
   1  10   8 2290.23 805.561   2
   1  10   9 1598.98 757.573   2
   1  10  10 3555.55 1036.75   2
   1  10  11 15346.5 1904.38   2
   1  10  12 31778.2 2841.34   2
  -1 -11   9 18465.1 2408.90   3
  -1 -11   8 1909.63 930.314   3
  -1 -11   7 27602.0 2934.39   3
  -1 -11   6 8812.54 1664.79   3
  -1 -11   5 2826.61 1028.05   3
  -1 -11   4-208.586 529.653   3
   1  11  -3 1389.69 916.382   2
  -1 -11   3 1713.91 861.847   3
  -1 -11   2 663.828 693.207   3
   1  11  -2 2906.83 961.243   2
  -1 -11   1 3666.44 1197.10   3
   1  11  -1 3380.11 1003.23   2
  -1 -11   0 15337.0 2162.29   3
   1  11   0 18717.4 2095.61   2
  -1 -11  -1 1646.35 734.737   3
   1  11   1 3154.58 944.674   2
  -1 -11  -2 102038. 5965.26   3
   1  11   2 107895. 5420.99   2
  -1 -11  -3 12622.4 1924.00   3
   1  11   3 10800.4 1601.49   2
   1  11   4 15256.1 1828.79   2
  -1 -11  -4 16597.6 2291.69   3
  -1 -11  -5 17432.5 2208.76   3
   1  11   5 17037.0 1948.62   2
  -1 -11  -6 19391.6 2316.27   3
   1  11   6 20363.3 2129.87   2
   1  11   7 47631.0 3351.86   2
  -1 -11  -7 39493.0 3323.75   3
  -1 -11  -8 2096.10 835.729   3
   1  11   8 3537.13 994.682   2
   1  11   9 23662.5 2414.88   2
   1  11  10 3844.46 1061.69   2
  -1 -12   7 22678.4 2725.14   3
  -1 -12   6 634.945 665.192   3
  -1 -12   5 47766.9 4008.96   3
  -1 -12   4 6646.28 1487.86   3
  -1 -12   3 11347.5 1975.27   3
   1  12  -3 15476.4 2043.42   2
  -1 -12   2 1367.60 1035.49   3
   1  12  -2 890.546 698.121   2
  -1 -12   1 38960.4 3577.03   3
   1  12  -1 38664.5 3198.51   2
  -1 -12   0 21431.2 2668.53   3
   1  12   0 21375.5 2309.11   2
  -1 -12  -1 1035.30 692.298   3
   1  12   1-345.147 655.286   2
  -1 -12  -2 6166.58 1466.43   3
   1  12   2 5707.27 1194.44   2
  -1 -12  -3 7515.17 1624.43   3
   1  12   3 8265.11 1438.93   2
   1  12   4 177.952 556.918   2
  -1 -12  -4-630.107 699.670   3
  -1 -12  -5 19259.1 2481.66   3
   1  12   5 22917.8 2331.19   2
  -1 -12  -6 15842.4 2244.99   3
   1  12   6 20542.1 2211.56   2
  -1 -12  -7 4350.40 1201.06   3
   1  12   7 5188.90 1184.90   2
   1  12   8 12757.2 1789.56   2
  -1 -13   3 9749.10 1941.48   3
   1  13  -3 14644.3 1989.72   2
  -1 -13   2 5750.33 1548.86   3
   1  13  -2 3467.57 1099.57   2
   1  13  -1 66164.7 4323.48   2
  -1 -13   1 59857.1 4758.52   3
  -1 -13   0 4269.51 1374.46   3
   1  13   0 4528.12 1154.71   2
  -1 -13  -1 35652.1 3572.31   3
   1  13   1 33767.0 2976.29   2
  -1 -13  -2 45413.7 4078.11   3
   1  13   2 51672.8 3711.16   2
   1  13   3 15408.7 1979.10   2
  -1 -13  -3 12730.8 2161.67   3
  -1 -13  -4 6091.42 1529.14   3
   1  13   4 6477.58 1391.60   2
  -1 -13  -5 1282.07 1023.00   3
  -1 -13  -6 46720.2 3932.52   3
  -1 -13  -7 1269.51 829.595   3
  -2  13   2 27108.9 2577.23   2
  -2  13   1 645.216 623.944   2
  -2  13   0 13595.3 1779.77   2
  -2  13  -1 2472.69 842.945   2
  -2  13  -2 5355.79 1131.52   2
  -2  13  -3-136.228 540.555   1
  -2  13  -3 1631.82 721.524   2
  -2  13  -4 1271.30 730.225   1
  -2  13  -4 1326.86 677.092   2
  -2  13  -5 4062.91 1154.00   1
  -2  12   5 3082.99 982.339   2
  -2  12   4 8306.55 1513.13   2
  -2  12   3 37237.7 3052.49   2
  -2  12   2 36044.8 2959.12   2
  -2  12   1 1530.76 762.557   2
  -2  12   0 20976.3 2168.45   2
  -2  12  -1 4484.85 1059.65   2
  -2  12  -2 50136.0 3340.09   2
  -2  12  -3 6818.91 1175.55   2
  -2  12  -4 41630.5 3079.18   1
  -2  12  -4 26775.8 2375.30   2
  -2  12  -5 8292.65 1395.69   1
  -2  12  -5 5857.45 1103.95   2
  -2  12  -6 342.662 665.508   1
  -2  12  -7 2441.78 993.630   1
  -2  11   7 12696.7 1966.03   2
  -2  11   6 3419.31 1071.08   2
  -2  11   5 29104.5 2727.12   2
  -2  11   4 23.5835 506.916   2
  -2  11   3 2087.94 835.900   2
  -2  11   2 7311.46 1319.40   2
  -2  11   1 3024.62 887.054   2
  -2  11   0 4796.38 1044.48   2
  -2  11  -1 6682.04 1234.30   2
  -2  11  -2 574.330 543.535   2
  -2  11  -3 16494.3 1781.10   2
  -2  11  -4 40495.7 3000.17   1
  -2  11  -4 39323.6 2767.82   2
  -2  11  -5 8035.79 1399.39   1
  -2  11  -5 7566.22 1194.50   2
  -2  11  -6 10589.2 1636.17   1
  -2  11  -6 13843.8 1608.29   2
  -2  11  -7 260.333 695.497   1
  -2  11  -8 71179.3 4602.23   1
  -2  10   9 7677.12 1523.19   2
  -2  10   8 1898.34 857.984   2
  -2  10   7 958.733 791.473   2
   2 -10  -7 1951.03 711.113   5
   2 -10  -6 52901.6 3101.26   5
  -2  10   6 53415.4 3706.79   2
   2 -10  -5 8985.13 1179.67   5
  -2  10   5 9847.05 1494.46   2
  -2  10   4 16056.4 1878.36   2
   2 -10  -4 17297.1 1621.40   5
  -2  10   3 14522.0 1778.51   2
   2 -10  -3 15037.1 1507.25   5
   2 -10  -2 79411.1 3836.03   5
  -2  10   2 76915.6 4311.39   2
   2 -10  -1 37271.1 2393.97   5
  -2  10   1 34115.3 2689.07   2
  -2  10   0 2625.39 827.455   2
  -2  10  -1 44889.1 3042.19   2
  -2  10  -2 4522.13 956.404   2
  -2  10  -3 23140.4 2009.33   2
  -2  10  -4 4056.55 962.662   1
  -2  10  -4 6179.63 1023.44   2
  -2  10  -5 12452.0 1609.08   1
  -2  10  -5 11088.4 1363.19   2
  -2  10  -6 1261.95 659.474   1
  -2  10  -6 1238.99 618.722   2
  -2  10  -7-445.356 642.663   1
  -2  10  -7 1147.54 591.050   2
  -2  10  -8 7293.40 1473.35   1
  -2  10  -9 1985.75 916.300   1
  -2  10 -10 12025.7 1917.54   1
  -2   9  11 13230.2 1977.39   2
   2  -9 -11 10319.7 1637.82   5
   2  -9 -10 234.536 608.598   5
   2  -9  -9 43234.9 3157.25   5
   2  -9  -8 18855.6 1910.85   5
   2  -9  -7 6758.44 1118.06   5
   2  -9  -6 4852.40 955.873   5
   2  -9  -5 1527.60 541.526   5
  -2   9   4 1039.17 618.091   2
   2  -9  -4 1082.28 513.278   5
  -2   9   3 8576.45 1287.06   2
   2  -9  -3 8211.55 1138.24   5
  -2   9   2 1351.49 564.966   2
   2  -9  -2 28.0176 275.331   5
  -2   9   1 6139.33 599.528   4
  -2   9   1 8128.11 1225.40   2
   2  -9  -1 8289.23 1103.39   5
  -2   9   0 43754.5 1816.32   4
   2  -9   0 47769.1 2725.73   5
  -2   9   0 42532.9 2893.21   2
  -2   9  -1 101097. 3351.25   4
  -2   9  -1 104890. 4829.63   2
  -2   9  -2 2061.67 640.061   2
  -2   9  -2 1080.57 248.726   4
  -2   9  -3 9527.78 745.493   4
  -2   9  -3 12192.1 1391.03   2
  -2   9  -4 6521.63 665.777   4
  -2   9  -4 6519.62 1100.91   1
  -2   9  -4 6348.98 977.372   2
  -2   9  -5 103344. 5060.34   1
  -2   9  -5 110619. 4774.73   2
  -2   9  -5 109592. 3907.09   4
  -2   9  -6 8818.11 1200.78   2
  -2   9  -6 9789.55 1458.97   1
  -2   9  -6 7338.64 822.213   4
  -2   9  -7 50983.8 3261.36   2
  -2   9  -7 47769.5 3318.80   1
  -2   9  -7 42148.9 2274.18   4
  -2   9  -8 11601.7 1648.17   1
  -2   9  -8 12297.4 1178.37   4
  -2   9  -9 5220.10 801.507   4
  -2   9  -9 6715.01 1342.55   1
  -2   9 -10 503.577 368.177   4
  -2   9 -10 1211.18 783.051   1
  -2   9 -11 3341.44 1110.61   1
  -2   9 -11 1219.47 572.281   4
  -2   9 -12 16052.6 1660.70   4
   2  -8 -13 11538.2 2204.65   5
   2  -8 -12 1198.79 842.777   5
   2  -8 -11 29635.3 2851.02   5
   2  -8 -10 2428.95 939.612   5
   2  -8  -9 27232.3 2492.24   5
   2  -8  -8 7950.98 1280.52   5
   2  -8  -7 68717.1 3868.42   5
   2  -8  -6 32331.8 2408.08   5
   2  -8  -5 11201.8 1339.81   5
   2  -8  -4 54318.4 3054.26   5
  -2   8   4 54720.0 2326.68   4
   2  -8  -3 85255.0 4031.41   5
  -2   8   3 86644.4 3130.04   4
   2  -8  -2 31530.2 2255.53   5
  -2   8   2 30372.1 1466.69   4
   2  -8  -1 10495.8 1268.38   5
  -2   8   1 11874.7 1147.27   5
  -2   8   1 10605.7 1282.64   2
  -2   8   0 43611.5 1938.74   4
  -2   8   0 44765.9 2414.02   5
  -2   8   0 41743.4 2698.23   2
   2  -8   0 42060.8 2570.84   5
  -2   8  -1 535.058 232.046   4
  -2   8  -1 167.900 339.326   2
  -2   8  -1 30.3123 369.170   5
  -2   8  -2-46.8483 332.535   2
  -2   8  -2 84.3907 162.341   4
  -2   8  -3 3330.43 728.760   2
  -2   8  -3 3098.35 454.531   4
  -2   8  -4 3209.29 717.360   2
  -2   8  -4 2726.82 714.707   1
  -2   8  -4 1814.22 383.404   4
  -2   8  -5 7632.92 786.963   4
  -2   8  -5 7490.30 992.951   2
  -2   8  -5 7287.09 1169.35   1
  -2   8  -6 79242.3 3269.62   4
  -2   8  -6 77123.2 4098.02   1
  -2   8  -6 76563.9 3790.47   2
  -2   8  -7 9492.40 1247.61   2
  -2   8  -7 10882.9 1094.00   4
  -2   8  -7 8304.13 1315.96   1
  -2   8  -8 270.875 321.915   4
  -2   8  -8 435.664 501.080   1
  -2   8  -9 42309.3 3197.69   1
  -2   8  -9 44261.1 2588.42   4
  -2   8 -10 13414.0 1836.63   1
  -2   8 -10 12958.9 1397.61   4
  -2   8 -11 43062.3 2776.61   4
  -2   8 -11 44720.5 3498.51   1
  -2   8 -12 3128.95 794.328   4
  -2   8 -12 5186.34 1249.00   1
  -2   8 -13 53008.6 3395.93   4
  -2   8 -14 1807.18 1042.25   4
   2  -7 -13 5135.77 1492.87   5
   2  -7 -12 20887.2 2601.95   5
   2  -7 -11 39054.5 3418.91   5
   2  -7 -10 10531.3 1684.44   5
   2  -7  -9 414.180 520.268   5
   2  -7  -8 124.003 454.008   5
   2  -7  -7 3164.59 849.168   5
   2  -7  -6 764.418 575.326   5
   2  -7  -5 15456.7 1561.63   5
   2  -7  -4 26644.5 2029.56   5
  -2   7   4 27641.2 1556.25   4
   2  -7  -3 16842.4 1543.89   5
  -2   7   3 15025.3 1051.77   4
  -2   7   2 29765.8 1950.90   5
   2  -7  -2 26619.5 2004.01   5
   2  -7  -1 73858.6 3756.78   5
  -2   7   1 79348.3 3472.20   5
   2  -7   0 10264.8 1257.99   5
  -2   7   0 11930.7 1153.38   5
  -2   7  -1 92751.4 3457.56   4
  -2   7  -1 99281.2 4050.58   5
  -2   7  -1 96373.0 4157.88   2
   2  -7   1 94119.8 4246.24   5
  -2   7  -2 67045.6 3204.07   5
  -2   7  -2 61658.1 2553.34   4
  -2   7  -2 60895.1 3178.31   2
  -2   7  -3 16906.5 1156.22   4
  -2   7  -3 18363.1 1569.75   1
  -2   7  -3 19429.8 1590.50   2
  -2   7  -4 47209.6 2196.22   4
  -2   7  -4 47554.9 2760.68   1
  -2   7  -4 48630.1 2619.98   2
  -2   7  -5 52.0166 223.686   4
  -2   7  -5-101.495 320.614   2
  -2   7  -5 333.648 388.729   1
  -2   7  -6 27828.5 1727.96   4
  -2   7  -6 27361.7 2186.95   1
  -2   7  -6 27037.5 1968.25   2
  -2   7  -7 4261.68 977.625   1
  -2   7  -7 4428.62 734.771   4
  -2   7  -7 3584.41 685.365   2
  -2   7  -8 10699.4 1442.84   1
  -2   7  -8 10195.4 1155.95   4
  -2   7  -9 111.530 378.766   4
  -2   7  -9 263.051 477.246   1
  -2   7 -10 1244.70 747.983   1
  -2   7 -10 1464.67 572.292   4
  -2   7 -11 7805.01 1458.59   1
  -2   7 -11 5803.94 1046.67   4
  -2   7 -12 3060.62 1045.21   1
  -2   7 -12 2744.05 875.348   4
  -2   7 -13 13819.2 1721.65   4
  -2   7 -14 481.678 617.357   4
   2  -6 -13 10744.4 2020.91   5
   2  -6 -12 29934.2 3147.38   5
   2  -6 -11 10798.7 1746.67   5
   2  -6 -10 65877.7 4343.51   5
   2  -6  -9 1218.50 732.258   5
   2  -6  -8 7516.58 1306.80   5
   2  -6  -7 133.233 449.962   5
   2  -6  -6 116904. 5236.98   5
   2  -6  -5 30988.1 2278.22   5
  -2   6   4 80.1071 214.961   4
   2  -6  -4 300.271 418.970   5
   2  -6  -3 8532.00 1081.16   5
  -2   6   3 7542.28 999.110   5
  -2   6   3 8436.30 990.162   3
  -2   6   3 6696.42 696.923   4
   2  -6  -2 21304.9 1711.92   5
  -2   6   2 23454.1 1726.38   5
  -2   6   2 24462.4 1783.37   3
   2  -6  -1 3510.29 692.698   5
  -2   6   1 3170.89 616.820   5
  -2   6   0 352.755 268.527   5
   2  -6   0 161.660 317.450   5
  -2   6  -1 813.987 298.474   4
   2  -6   1 883.549 460.421   5
  -2   6  -1 1171.55 424.872   5
  -2   6  -2 20386.8 1465.82   1
  -2   6  -2 18306.6 1238.56   4
  -2   6  -2 19823.0 1487.97   2
  -2   6  -2 19304.2 1567.31   5
   2  -6   2 18768.5 1654.12   5
  -2   6  -3 90018.4 3476.39   4
  -2   6  -3 95027.0 3919.71   1
  -2   6  -3 90412.9 3829.02   2
  -2   6  -3 96591.7 4309.32   5
  -2   6  -4 162247. 5480.99   4
  -2   6  -4 167962. 6087.09   1
  -2   6  -4 163282. 5764.52   2
  -2   6  -5 11615.6 1040.98   4
  -2   6  -5 11377.5 1314.36   1
  -2   6  -5 12228.5 1139.45   2
  -2   6  -6 37914.8 2078.70   4
  -2   6  -6 33626.1 2343.48   1
  -2   6  -6 31268.5 2036.38   2
  -2   6  -7 21117.6 1610.65   4
  -2   6  -7 20284.3 1338.11   2
  -2   6  -7 20307.2 1838.02   1
  -2   6  -8 129673. 5117.59   4
  -2   6  -8 122680. 5562.00   1
  -2   6  -9 9624.29 1384.98   1
  -2   6  -9 12680.0 1380.69   4
  -2   6 -10 69693.6 4039.24   1
  -2   6 -10 70139.6 3759.12   4
  -2   6 -11 9771.85 1517.73   1
  -2   6 -11 10216.2 1390.48   4
  -2   6 -12 16565.8 1839.59   4
  -2   6 -13-7.89008 475.831   4
  -2   6 -14 5469.79 1225.49   4
  -2   6 -15 25936.4 2664.10   4
   2  -5 -14 7733.63 1815.37   5
   2  -5 -13 982.983 808.732   5
   2  -5 -12 299.318 745.836   5
   2  -5 -11 1782.84 846.472   5
   2  -5 -10 18870.8 2252.86   5
   2  -5  -9 325.138 565.472   5
   2  -5  -8 28634.2 2482.40   5
  -2   5   7 288.289 268.882   3
  -2   5   7 526.205 157.847   1
   2  -5  -7-177.529 485.036   5
   2  -5  -6 132564. 5817.20   5
  -2   5   6 143051. 4858.18   3
   2  -5  -5 1336.82 556.941   5
  -2   5   5 1763.96 394.048   3
   2  -5  -4 80731.7 3846.89   5
  -2   5   4 81384.7 3259.90   4
  -2   5   3 137934. 5197.86   5
   2  -5  -3 123480. 5140.15   5
  -2   5   2 94918.0 3867.46   5
   2  -5  -2 80207.6 3791.50   5
   2  -5  -1 46084.8 2647.07   5
  -2   5   1 51872.6 2640.85   5
  -2   5   0 52089.9 2668.81   5
  -2   5   0 56856.8 2749.58   3
  -2   5  -1 161861. 5378.54   1
   2  -5   1 158995. 6289.36   5
  -2   5  -1 167270. 5909.39   5
  -2   5  -2 11240.3 998.573   4
  -2   5  -2 11223.6 1023.15   1
  -2   5  -2 11163.4 1216.55   5
   2  -5   2 10858.3 1278.60   5
  -2   5  -3 3027.33 535.791   2
  -2   5  -3 3157.00 521.948   4
  -2   5  -3 3949.52 666.776   1
  -2   5  -3 3240.89 726.859   5
  -2   5  -4 29916.9 1770.18   4
  -2   5  -4 31210.7 1786.45   2
  -2   5  -4 32175.3 2464.41   5
  -2   5  -4 33053.6 2015.78   1
  -2   5  -5 90305.5 3683.62   4
  -2   5  -5 92671.6 3993.21   1
  -2   5  -5 94917.6 3604.58   2
  -2   5  -6 6024.09 824.483   4
  -2   5  -6 4903.92 847.588   1
   2  -5   6 5136.47 832.959   4
  -2   5  -6 5885.38 712.627   2
  -2   5  -7 12034.4 1230.25   4
  -2   5  -7 11526.2 1320.90   1
  -2   5  -8 2739.45 738.100   1
  -2   5  -8 2774.27 678.089   4
  -2   5  -9 9257.30 1286.79   1
  -2   5  -9 12047.3 1411.42   4
  -2   5 -10 36457.5 2681.89   1
  -2   5 -10 41398.3 2801.87   4
  -2   5 -11 25676.5 2296.83   4
  -2   5 -12 4855.54 1098.45   4
  -2   5 -13 1504.62 799.148   4
  -2   5 -14 80365.2 4803.99   4
  -2   5 -15 2140.70 979.597   4
   2  -4 -14 1547.54 1027.70   5
   2  -4 -13 103403. 6532.94   5
   2  -4 -12 9465.87 1792.68   5
   2  -4 -11 41263.6 3545.29   5
   2  -4 -10 1076.53 691.976   5
   2  -4  -9 70866.0 4321.58   5
   2  -4  -8 8528.86 1386.17   5
  -2   4   8 10901.2 657.637   3
  -2   4   7 1058.88 257.361   3
   2  -4  -7 343.899 454.785   5
   2  -4  -6 22861.9 1963.93   5
  -2   4   6 22063.6 1236.49   3
   2  -4  -5 17097.5 1620.51   5
  -2   4   5 19108.4 1181.49   3
  -2   4   4 363.268 231.421   3
  -2   4   4 356.585 208.258   4
   2  -4  -4 553.030 368.626   5
  -2   4   4 609.640 387.151   5
   2  -4  -3 41437.7 2487.36   5
  -2   4   3 47029.4 2159.81   3
  -2   4   3 44747.9 2497.40   5
   2  -4  -2 6378.39 891.260   5
  -2   4   2 5386.81 804.575   5
  -2   4   2 6348.50 747.297   3
  -2   4   1 1554.05 457.364   5
  -2   4   1 1914.07 302.033   1
   2  -4  -1 1382.80 485.487   5
  -2   4   0 67154.1 2481.84   1
  -2   4   0 71859.1 3200.31   5
  -2   4  -1 5351.57 591.105   1
  -2   4  -1 5073.53 785.482   5
   2  -4   1 4428.87 837.209   5
  -2   4  -2 52233.6 2328.22   1
  -2   4  -2 53651.4 2549.76   4
   2  -4   2 50461.0 2963.41   5
  -2   4  -2 52756.8 2897.81   5
  -2   4  -3 32383.1 1873.95   4
  -2   4  -3 34357.3 1857.30   1
  -2   4  -4 217661. 7104.28   4
  -2   4  -4 218850. 7124.58   1
  -2   4  -4 220127. 8108.51   5
  -2   4  -4 215581. 6629.04   2
  -2   4  -5 59506.3 2795.31   4
  -2   4  -5 58657.3 3368.57   5
  -2   4  -5 58681.3 2379.05   2
  -2   4  -5 60076.6 2947.85   3
  -2   4  -5 54636.9 2804.08   1
  -2   4  -6 22123.5 1642.64   4
   2  -4   6 22047.7 1798.39   4
  -2   4  -6 18358.8 998.383   2
  -2   4  -6 21084.4 1614.95   1
  -2   4  -7 32179.6 2159.28   1
  -2   4  -7 34145.9 2188.07   4
  -2   4  -8 5137.88 898.248   4
  -2   4  -8 5716.81 943.365   1
  -2   4  -9 50788.0 3101.09   4
  -2   4 -10 882.630 566.472   4
  -2   4 -11 15239.1 1791.21   4
  -2   4 -12 557.197 554.670   4
  -2   4 -13 4013.69 1079.05   4
  -2   4 -14 18158.6 2226.74   4
  -2   4 -15 116.072 754.514   4
   2  -3 -14 8527.48 1893.64   5
   2  -3 -13 10481.5 2050.19   5
   2  -3 -12 988.361 763.216   5
   2  -3 -11 1927.54 774.041   5
   2  -3 -10 14011.9 1956.65   5
   2  -3  -9 101038. 5376.72   5
   2  -3  -8 18940.7 1989.37   5
   2  -3  -7 44606.9 3060.03   5
  -2   3   7 51308.8 1854.31   3
  -2   3   6 240.769 171.830   3
   2  -3  -6 65.4892 374.968   5
   2  -3  -5 45544.2 2785.28   5
  -2   3   5 48777.0 2418.90   4
  -2   3   4 11674.6 1216.60   5
  -2   3   4 9864.82 937.606   4
   2  -3  -4 8661.51 1079.06   5
  -2   3   3 144634. 5257.86   5
   2  -3  -3 128578. 5140.67   5
  -2   3   2 142126. 5203.67   5
   2  -3  -2 136189. 5174.40   5
  -2   3   1 14603.7 745.085   1
   2  -3  -1 16183.2 1369.19   5
  -2   3   1 17142.2 1355.39   5
  -2   3   0 11942.3 1123.85   5
   2  -3   0 9550.62 1099.97   5
  -2   3   0 9816.58 663.692   1
   2  -3   1 19598.9 1725.44   5
  -2   3  -1 20014.0 1106.94   1
  -2   3  -1 21779.2 1592.43   5
  -2   3  -2-49.5946 234.893   5
  -2   3  -2 74.9568 263.878   4
   2  -3   2-35.6043 337.575   5
  -2   3  -2 240.832 217.742   1
  -2   3  -3 1485.13 372.806   1
  -2   3  -3 820.649 359.125   4
  -2   3  -3 1033.20 435.209   5
  -2   3  -4 4289.23 622.168   1
  -2   3  -4 5230.91 750.308   4
  -2   3  -5 5547.00 803.652   4
  -2   3  -5 4334.97 666.336   1
  -2   3  -5 4675.74 662.288   3
  -2   3  -5 3728.45 766.515   5
  -2   3  -5 3866.34 406.560   2
  -2   3  -6 66009.0 3191.33   4
   2  -3   6 61156.6 3394.99   4
  -2   3  -6 65740.3 2982.84   3
  -2   3  -7 200774. 7245.62   4
  -2   3  -7 204582. 6951.30   3
  -2   3  -8 22231.2 1867.95   4
  -2   3  -9 24867.5 2105.22   4
  -2   3 -10 54804.6 3460.24   4
  -2   3 -11 121149. 5848.25   4
  -2   3 -12 12730.5 1807.28   4
  -2   3 -13 63264.3 4221.06   4
  -2   3 -14 3531.36 1112.87   4
  -2   3 -15 15222.5 2197.14   4
   2  -2 -14 16971.5 2684.83   5
   2  -2 -13 11954.6 2111.88   5
   2  -2 -12 12684.9 2141.72   5
   2  -2 -11 9891.88 1787.41   5
   2  -2 -10 4314.03 1178.55   5
   2  -2  -9-2.98098 494.557   5
   2  -2  -8 20517.6 2096.68   5
   2  -2  -7 2721.63 748.281   5
   2  -2  -6 16484.5 1691.72   5
   2  -2  -5 52321.4 2983.50   5
  -2   2   5 53825.0 2582.35   4
   2  -2  -4 44253.1 2545.02   5
   2  -2  -3 163138. 5927.10   5
   2  -2  -2 450.756 321.411   5
   2  -2  -1 212648. 7124.60   5
   2  -2   0 3549.21 328.817   1
   2  -2   0 3778.74 673.227   5
   2  -2   1 65744.7 2310.07   1
   2  -2   1 69665.7 3415.40   5
   2  -2   2 150242. 5980.78   5
   2  -2   2 153942. 4754.73   1
  -2   2  -3 280601. 8644.16   4
   2  -2   3 250818. 7746.94   1
  -2   2  -4 106009. 4293.96   4
   2  -2   4 104878. 3792.21   1
   2  -2   5 5506.74 699.335   1
  -2   2  -5 5404.12 804.814   4
  -2   2  -6 48792.6 2659.79   4
   2  -2   6 42564.9 2267.06   1
  -2   2  -7 6991.34 993.042   4
  -2   2  -8 1860.32 490.159   3
  -2   2  -8 1568.23 561.803   4
  -2   2  -9 10661.1 1401.77   4
  -2   2  -9 10587.8 1119.79   3
  -2   2 -10 14183.7 1720.69   4
  -2   2 -10 14234.0 1367.63   3
  -2   2 -11 11607.6 1639.24   4
  -2   2 -12 66627.9 4299.63   4
  -2   2 -13 7559.51 1519.18   4
  -2   2 -14-486.612 819.728   4
  -2   2 -15 19565.1 2538.93   4
   2  -1 -14 21.8376 1085.81   5
   2  -1 -13 24523.4 3117.48   5
   2  -1 -12 57046.5 4631.51   5
   2  -1 -11 29229.8 3092.55   5
   2  -1 -10 67054.4 4551.80   5
   2  -1  -9 1414.63 738.095   5
   2  -1  -8 235877. 9231.83   5
  -2   1   8 239776. 6801.85   3
   2  -1  -7 22351.4 2083.36   5
   2  -1  -6 71099.9 3760.96   5
   2  -1  -5 73997.5 3665.31   5
   2  -1  -4 24003.3 1771.76   5
   2  -1  -3 3554.29 628.754   5
   2  -1  -2 1588.62 423.496   5
   2  -1  -1 26963.5 1702.21   5
   2  -1   0 2999.74 572.796   5
   2  -1   1 12792.8 1280.07   5
   2  -1   2 12983.3 834.468   1
   2  -1   2 9615.52 1195.44   5
   2  -1   3 89335.1 3279.23   1
  -2   1  -3 99299.0 4296.11   4
  -2   1  -4 21639.2 1672.02   4
   2  -1   4 21533.3 1330.79   1
  -2   1  -5 52741.4 2824.88   4
   2  -1   5 56208.9 2513.64   1
  -2   1  -6 27387.9 1929.26   4
   2  -1   6 23187.1 1590.62   1
  -2   1  -7 172801. 6539.84   4
  -2   1  -8 83463.6 4123.72   4
  -2   1  -9 19462.4 1902.10   4
  -2   1  -9 17738.4 1353.43   3
  -2   1 -10 14855.0 1790.87   4
  -2   1 -10 16064.3 1337.86   3
  -2   1 -11 3085.11 648.176   3
  -2   1 -11 1426.54 740.894   4
  -2   1 -12 29708.4 2833.08   4
  -2   1 -13 778.333 737.648   4
  -2   1 -14 18732.9 2406.35   4
  -2   1 -15 590.173 881.066   4
  -2   1 -16 1973.31 1100.66   4
   2   0 -14 1758.76 1163.99   5
   2   0 -13 22093.9 3028.44   5
   2   0 -12 1940.78 1019.45   5
   2   0 -11 14287.5 2193.54   5
   2   0 -10 6417.82 1440.12   5
  -2   0   9 678.834 220.350   3
   2   0  -9 492.136 662.463   5
  -2   0   8 2013.87 366.463   3
   2   0  -8 2773.52 855.881   5
   2   0  -7 58711.2 2264.75   1
   2   0  -7 56989.6 3533.49   5
  -2   0   7 59975.5 2430.15   3
   2   0  -6 68112.7 3716.62   5
   2   0  -6 71071.2 2493.43   1
   2   0  -5 4471.41 800.212   5
   2   0  -5 4166.92 414.016   1
   2   0  -4 212874. 7338.70   5
   2   0  -3 17489.8 1385.03   5
   2   0  -2 16440.7 1272.08   5
   2   0  -1 504.409 300.029   5
   2   0   0 159461. 5490.67   5
   2   0   1 51551.0 2656.50   5
   2   0   2 3156.91 655.014   5
  -2   0  -3 3633.69 699.404   4
  -2   0  -4 64537.5 3115.65   4
  -2   0  -4 55520.9 2050.54   2
  -2   0  -5 4867.70 788.453   4
  -2   0  -5 4262.78 459.146   2
  -2   0  -6 6607.91 964.506   4
   2   0   6 7094.31 808.656   1
  -2   0  -7 3864.91 795.087   4
  -2   0  -8 4481.26 874.611   4
  -2   0  -9 48736.5 3177.71   4
  -2   0 -10 104859. 5347.74   4
  -2   0 -11 16282.1 1322.57   3
  -2   0 -11 19804.2 2171.76   4
  -2   0 -12 24002.1 2570.68   4
  -2   0 -13 48356.8 3829.87   4
  -2   0 -14 70045.4 4844.16   4
  -2   0 -15 184.828 713.680   4
  -2   0 -16 20079.1 2759.36   4
   2   1 -14 49110.3 4861.67   5
   2   1 -13 21852.3 3085.35   5
   2   1 -12 8052.79 1813.66   5
   2   1 -11 12154.4 2125.83   5
  -2  -1  10 10552.2 806.491   3
   2   1 -10 7294.89 1530.33   5
   2   1  -9 55333.5 4060.49   5
  -2  -1   9 61238.1 2608.55   3
   2   1  -8 50484.5 3526.17   5
  -2  -1   8 47620.5 2306.04   3
  -2  -1   7 487.575 277.043   3
   2   1  -7 838.343 566.474   5
   2   1  -7 701.873 284.276   1
  -2  -1   6 3227.56 505.706   3
   2   1  -6 3595.18 488.812   1
   2   1  -6 3178.50 748.103   5
   2   1  -5 4825.54 832.862   5
   2   1  -4 31458.9 2075.34   5
   2   1  -3 717.885 318.240   5
   2   1  -2 19163.0 1352.24   5
   2   1  -1 328.635 260.829   5
  -2  -1   0 377988. 10652.8   5
   2   1   0 350709. 10724.2   5
   2   1   1 31120.1 1866.95   5
  -2  -1  -1 32886.9 1761.02   5
  -2  -1  -2 142572. 4494.86   2
   2   1   2 134538. 5112.99   5
  -2  -1  -2 147896. 5137.44   5
  -2  -1  -3 87140.4 3723.31   4
  -2  -1  -3 88332.6 3795.10   5
  -2  -1  -3 85074.6 3033.25   2
  -2  -1  -4 130280. 5014.17   4
  -2  -1  -4 132595. 5038.20   5
  -2  -1  -4 123282. 4232.68   2
  -2  -1  -5 13320.2 1299.18   4
  -2  -1  -5 12311.3 1000.02   2
   2   1   6 91108.0 3129.38   2
  -2  -1  -6 93977.6 4151.94   4
  -2  -1  -7 267680. 9109.96   4
   2   1   7 262058. 7658.63   2
  -2  -1  -8 48492.4 3010.37   4
   2   1   8 47750.9 1974.27   2
  -2  -1  -9 6585.56 1166.12   4
   2   1   9 6120.97 603.303   2
  -2  -1 -10 5787.44 1148.90   4
   2   1  10 5066.32 559.287   2
   2   1  11 35511.7 1638.69   2
  -2  -1 -11 39298.0 3173.85   4
  -2  -1 -12-525.174 668.366   4
  -2  -1 -13 263.747 686.295   4
  -2  -1 -14 1758.92 933.656   4
  -2  -1 -15 4553.13 1527.91   4
  -2  -1 -16 27137.2 3253.06   4
   2   2 -14 17056.0 2932.01   5
   2   2 -13 1451.52 1110.33   5
   2   2 -12 11699.4 2203.48   5
   2   2 -11 17362.4 2485.63   5
  -2  -2  10 142065. 4890.12   3
   2   2 -10 132780. 5226.44   1
   2   2  -9 29064.7 1892.26   1
   2   2  -9 23288.1 2611.39   5
  -2  -2   9 28572.4 1839.02   3
  -2  -2   8 5340.47 788.101   3
   2   2  -8 4301.19 1041.57   5
   2   2  -8 5649.70 785.688   1
   2   2  -7 163964. 7164.48   5
  -2  -2   7 178392. 6078.27   3
   2   2  -6 38809.5 2668.81   5
  -2  -2   6 38781.6 2120.52   3
   2   2  -5 131795. 5457.71   5
  -2  -2   5 140283. 4967.95   4
  -2  -2   5 139802. 4973.44   3
   2   2  -4 2628.48 590.609   5
   2   2  -3 247872. 7961.62   5
   2   2  -2 6134.47 723.878   5
  -2  -2   2 5653.49 665.930   5
   2   2  -1 2145.55 424.502   5
  -2  -2   1 2560.45 405.927   5
   2   2   0 68303.4 2793.73   5
  -2  -2   0 71321.6 2696.59   5
  -2  -2  -1 35814.4 1758.17   2
   2   2   1 37129.1 1965.05   5
  -2  -2  -1 38327.4 1774.92   5
   2   2   2 38439.2 2040.02   5
  -2  -2  -2 42486.9 1988.86   5
  -2  -2  -2 37336.7 1835.21   2
   2   2   3 31932.9 1664.19   2
  -2  -2  -3 35160.3 1992.20   4
  -2  -2  -3 33791.1 1945.81   5
  -2  -2  -3 33531.8 1723.71   2
   2   2   4 20585.1 1315.28   2
  -2  -2  -4 20977.8 1587.27   4
   2   2   4 20685.2 1611.21   4
  -2  -2  -4 20590.8 1526.99   5
  -2  -2  -4 20260.4 1433.02   2
  -2  -2  -5 6315.20 869.499   4
   2   2   5 6680.21 902.912   4
  -2  -2  -5 6708.43 867.067   2
   2   2   5 6278.24 701.081   2
  -2  -2  -6 52172.5 2876.62   4
   2   2   6 56025.0 2960.39   4
   2   2   6 53729.2 2436.70   2
  -2  -2  -7-6.86488 318.086   4
   2   2   7-63.4111 261.516   2
  -2  -2  -8 49384.9 2996.46   4
   2   2   8 49055.4 2373.35   2
   2   2   9 6386.36 774.102   2
  -2  -2  -9 7447.76 1200.51   4
   2   2  10 109989. 4190.29   2
  -2  -2 -10 114831. 5510.49   4
   2   2  11 51105.8 2495.62   2
  -2  -2 -11 56845.0 3775.35   4
   2   2  12 30708.1 1792.10   2
  -2  -2 -12 30159.4 2813.64   4
  -2  -2 -13 10137.2 1696.37   4
  -2  -2 -14 152.924 726.266   4
  -2  -2 -15 18967.9 2512.11   4
  -2  -2 -16 1843.49 863.999   4
   2   3 -14 1900.66 1083.69   5
   2   3 -13 17900.0 2853.27   5
   2   3 -12 44981.4 2915.58   1
   2   3 -12 36424.3 3905.51   5
   2   3 -11 3560.34 1264.27   5
   2   3 -11 2973.22 745.260   1
   2   3 -10 18801.8 1731.01   1
   2   3 -10 19133.0 2460.58   5
  -2  -3  10 20525.8 1609.55   3
   2   3  -9 1120.00 667.860   5
  -2  -3   9 123.783 327.764   3
   2   3  -9 312.632 398.141   1
  -2  -3   8 2209.05 584.725   3
   2   3  -8 2022.61 545.772   1
   2   3  -8 1793.56 791.795   5
  -2  -3   7 17584.2 1517.41   3
   2   3  -7 16656.6 1881.64   5
   2   3  -6 9309.70 1263.36   5
  -2  -3   6 9942.24 1094.20   3
   2   3  -5 19203.1 1672.43   5
  -2  -3   5 19501.1 1404.50   4
  -2  -3   5 21187.8 1589.30   3
   2   3  -4 48035.6 2643.84   5
  -2  -3   4 50247.7 2580.81   3
   2   3  -3 110685. 4275.50   5
  -2  -3   3 115462. 4439.88   3
  -2  -3   2 6993.32 760.883   2
   2   3  -2 7634.64 788.495   5
  -2  -3   1 116983. 4189.13   2
   2   3  -1 109693. 3969.47   5
  -2  -3   1 119874. 3941.48   5
   2   3   0 54397.6 2239.36   5
  -2  -3   0 52861.5 2090.03   5
  -2  -3   0 53066.9 2437.41   2
   2   3   1 112252. 3977.70   5
  -2  -3  -1 114456. 3673.70   5
  -2  -3  -1 107960. 4068.56   2
  -2  -3  -2 10577.1 797.576   5
  -2  -3  -2 9264.48 903.216   2
   2   3   3 123929. 4639.63   2
  -2  -3  -3 135097. 4669.50   4
  -2  -3  -3 121964. 4634.30   2
  -2  -3  -3 121395. 4378.01   5
  -2  -3  -4 118499. 4522.99   4
  -2  -3  -4 119436. 4396.62   5
  -2  -3  -4 114220. 4655.22   2
   2   3   4 113597. 4432.61   2
  -2  -3  -5 5511.18 892.311   2
  -2  -3  -5 4517.89 710.652   4
   2   3   5 4526.79 718.604   4
   2   3   5 3837.26 654.476   2
  -2  -3  -6 22275.0 1664.34   4
   2   3   6 22660.8 1700.72   4
   2   3   6 21204.0 1607.22   2
  -2  -3  -7 53439.5 2892.27   4
  -2  -3  -8 2078.53 641.582   4
  -2  -3  -9 1158.25 560.654   4
  -2  -3 -10 27664.0 2358.81   4
  -2  -3 -11 4418.05 973.248   4
  -2  -3 -12 17286.1 2023.98   4
  -2  -3 -13 50844.1 3693.41   4
  -2  -3 -14 10172.8 1737.16   4
  -2  -3 -15 24825.9 2775.74   4
  -2  -3 -16 49787.7 4213.53   4
   2   4 -14 1601.46 1263.21   5
   2   4 -13 22573.7 2236.30   1
   2   4 -13 20275.5 3068.61   5
   2   4 -12 145.956 826.280   5
   2   4 -12 611.552 685.775   1
   2   4 -11 72664.4 5338.17   5
   2   4 -11 90613.9 4520.69   1
   2   4 -10 12371.7 1468.38   1
  -2  -4  10 11106.4 1296.97   3
   2   4 -10 7877.42 1693.75   5
   2   4  -9 9451.93 1236.37   1
  -2  -4   9 9959.48 1242.64   3
   2   4  -9 10059.4 1677.18   5
   2   4  -8 32140.7 2818.28   5
  -2  -4   8 37340.2 2508.60   3
   2   4  -7 30651.6 2519.21   5
  -2  -4   7 33717.4 2370.72   3
   2   4  -6 29050.7 2332.16   5
  -2  -4   6 39186.1 2446.13   3
  -2  -4   5 1402.90 407.876   4
  -2  -4   5 1535.51 526.008   3
   2   4  -5 1341.93 486.986   5
   2   4  -4 29345.6 1912.37   5
  -2  -4   4 29907.6 2039.94   3
  -2  -4   3 14242.2 1213.40   2
   2   4  -3 13131.2 1133.50   5
  -2  -4   3 13257.8 985.293   4
  -2  -4   3 12546.9 1280.14   3
   2   4  -2 63143.2 2649.74   5
  -2  -4   2 65004.3 3138.18   3
  -2  -4   2 62741.2 2901.28   2
   2   4  -1 12.3115 143.814   5
  -2  -4   1 268.325 242.981   3
  -2  -4   1 184.544 230.498   2
   2   4   0 7677.11 649.054   5
  -2  -4   0 7578.91 591.052   5
  -2  -4   0 6747.69 824.240   2
   2   4   1 54302.0 2141.39   5
  -2  -4  -1 51950.6 1891.50   5
  -2  -4  -1 48368.7 2501.94   2
  -2  -4  -2 42517.1 2012.60   4
  -2  -4  -2 43185.3 1713.71   5
  -2  -4  -2 42008.5 2332.01   2
  -2  -4  -3 117376. 4055.07   5
  -2  -4  -3 122120. 5005.03   2
  -2  -4  -4 3007.96 537.471   4
  -2  -4  -4 2080.51 524.011   2
  -2  -4  -4 2668.14 486.699   5
  -2  -4  -5 269520. 8626.38   4
   2   4   5 283839. 8869.45   4
  -2  -4  -5 276143. 9576.18   2
  -2  -4  -6 1389.65 439.946   4
   2   4   6 1112.45 391.346   4
  -2  -4  -7 29519.1 1967.70   4
  -2  -4  -8 86231.0 4039.93   4
   2   4   8 86583.0 4056.32   2
   2   4   9 135173. 5505.14   2
  -2  -4  -9 134336. 5676.68   4
   2   4  10 51379.1 3005.31   2
  -2  -4 -10 50035.1 3204.09   4
  -2  -4 -10 56379.8 2770.83   3
  -2  -4 -11 1279.27 645.891   4
   2   4  11 1817.47 552.708   2
  -2  -4 -11 689.926 326.116   3
   2   4  12 24706.5 1979.57   2
  -2  -4 -12 22911.1 2259.12   4
  -2  -4 -13 17459.2 2070.11   4
  -2  -4 -14 4042.04 1206.20   4
  -2  -4 -15 10368.6 1711.05   4
  -2  -4 -16 3477.59 1328.36   4
   2   5 -13 3652.04 955.686   1
   2   5 -13 4501.84 1650.48   5
   2   5 -12 12647.4 1733.03   1
   2   5 -12 8713.29 1932.45   5
  -2  -5  11 2694.24 772.472   3
   2   5 -11 2872.38 868.051   1
   2   5 -11 1788.89 896.949   5
   2   5 -10 17555.3 1865.93   1
   2   5 -10 17585.8 2320.21   5
  -2  -5  10 16675.5 1727.19   3
   2   5  -9 44071.0 2907.01   1
   2   5  -9 43089.1 3446.81   5
  -2  -5   9 49829.1 3109.56   3
  -2  -5   8 1018.91 472.414   3
   2   5  -8 717.346 598.408   5
   2   5  -7 93553.3 4809.36   5
  -2  -5   7 103809. 4863.74   3
   2   5  -6 103331. 4726.83   5
  -2  -5   6 106766. 4941.96   3
   2   5  -5 105218. 4434.42   5
  -2  -5   5 106299. 4786.49   3
  -2  -5   5 102150. 3959.94   4
   2   5  -4 64683.7 3044.07   5
  -2  -5   4 67249.1 3523.89   3
   2   5  -3 8821.13 892.714   5
  -2  -5   3 7235.20 721.501   4
  -2  -5   3 7253.53 1038.50   3
   2   5  -2 317808. 9285.63   5
  -2  -5   2 312113. 9102.23   4
  -2  -5   2 323040. 10383.1   3
   2   5  -1 35215.5 1581.51   5
  -2  -5   1 34480.4 2273.79   3
   2   5   0 114217. 3613.57   5
  -2  -5   0 109595. 4494.51   2
  -2  -5   0 119888. 4809.12   3
  -2  -5  -1 14703.6 1367.52   2
  -2  -5  -1 13826.2 673.904   5
  -2  -5  -1 15748.5 1433.53   3
  -2  -5  -2 18187.7 1125.00   4
  -2  -5  -2 16661.2 778.056   5
  -2  -5  -2 18855.6 1625.72   2
  -2  -5  -2 17241.1 1519.81   3
  -2  -5  -3 7271.17 549.065   5
  -2  -5  -3 7925.73 768.827   4
  -2  -5  -3 7333.47 1093.04   2
   2   5   3 6784.21 1044.79   2
  -2  -5  -3 7904.70 1030.66   3
  -2  -5  -4 19373.5 1282.97   4
  -2  -5  -4 20316.2 1241.76   5
  -2  -5  -4 20212.8 1887.34   2
   2   5   4 19910.3 1799.21   2
  -2  -5  -4 20301.4 1655.54   3
  -2  -5  -5 34805.8 1899.76   4
  -2  -5  -5 36516.3 1905.38   5
   2   5   5 34328.1 2435.68   2
  -2  -5  -5 38109.9 2343.10   3
  -2  -5  -6 1145.13 368.876   4
  -2  -5  -6 917.935 471.207   3
   2   5   6 776.712 291.362   4
   2   5   6 1150.30 487.710   2
  -2  -5  -7 12652.8 1231.74   4
   2   5   7 12309.1 1219.94   4
   2   5   7 13188.1 1471.96   2
  -2  -5  -7 15002.3 1423.60   3
  -2  -5  -8 6510.10 956.201   4
  -2  -5  -8 5767.57 894.041   3
   2   5   8 6183.31 1015.42   2
   2   5   9 24856.5 2086.58   2
  -2  -5  -9 24708.2 1813.75   3
  -2  -5  -9 23939.2 1952.61   4
  -2  -5 -10 159.126 379.735   4
  -2  -5 -10 678.128 372.515   3
   2   5  10 231.250 450.813   2
   2   5  11 21930.8 1967.85   2
  -2  -5 -11 19890.3 1540.72   3
  -2  -5 -11 23803.6 2109.15   4
  -2  -5 -12 3919.28 963.438   4
   2   5  12 2544.75 772.854   2
  -2  -5 -13 47465.0 3392.36   4
  -2  -5 -14 17601.2 2122.65   4
  -2  -5 -15 12781.4 1912.54   4
   2   6 -13 20451.3 2413.51   1
   2   6 -13 20157.0 2836.88   5
   2   6 -12 26861.1 3082.61   5
   2   6 -12 27976.6 2708.38   1
  -2  -6  11 4427.17 973.402   3
   2   6 -11 3728.78 1076.38   1
   2   6 -11 5073.58 1308.14   5
   2   6 -10 54551.6 3542.46   1
   2   6 -10 54332.9 4029.49   5
  -2  -6  10 56740.9 3550.26   3
  -2  -6   9 34747.6 2704.95   3
   2   6  -9 34587.1 2937.15   5
  -2  -6   8 698.196 481.842   3
   2   6  -8 1120.62 648.002   5
   2   6  -7 48370.1 3095.62   5
  -2  -6   7 51248.3 3347.30   3
  -2  -6   6 1656.01 717.799   3
   2   6  -6 2755.07 690.230   5
  -2  -6   5 6878.74 1181.65   3
   2   6  -5 7723.68 984.971   5
  -2  -6   5 7895.00 855.208   4
   2   6  -4 8984.09 948.698   5
  -2  -6   4 8898.78 1296.51   3
  -2  -6   3 5652.20 1007.44   3
   2   6  -3 5200.29 641.058   5
  -2  -6   3 4977.20 584.103   4
   2   6  -2 14536.1 971.976   5
  -2  -6   2 13092.3 892.891   4
  -2  -6   2 11157.1 1386.14   3
   2   6  -1 92126.4 2957.74   5
  -2  -6   1 87058.7 3004.54   4
  -2  -6   1 89595.6 4305.52   3
   2   6   0 64771.8 3613.23   2
   2   6   0 57736.5 1845.83   5
  -2  -6   0 56316.8 3221.35   3
  -2  -6  -1 3638.87 445.434   4
  -2  -6  -1 3221.50 721.089   3
  -2  -6  -2 65403.8 2444.93   4
  -2  -6  -2 62647.1 3420.08   3
   2   6   2 65643.3 3757.74   2
  -2  -6  -3 26960.9 1364.11   4
  -2  -6  -3 23620.8 878.091   5
   2   6   3 26171.6 2206.89   2
  -2  -6  -3 25514.2 2001.78   3
  -2  -6  -4 46876.8 2083.12   4
  -2  -6  -4 48792.7 1864.40   5
  -2  -6  -4 48835.8 2922.64   3
   2   6   4 45442.2 3026.77   2
  -2  -6  -5 15456.1 1132.56   4
  -2  -6  -5 15961.8 1128.00   5
   2   6   5 15343.5 1710.29   2
  -2  -6  -5 17207.8 1657.90   3
  -2  -6  -6 59365.7 2748.62   4
   2   6   6 63812.7 3639.39   2
  -2  -6  -6 61710.6 3366.20   3
   2   6   7 25524.6 1748.77   4
   2   6   7 28929.7 2338.30   2
  -2  -6  -7 28167.5 2154.09   3
  -2  -6  -7 28802.4 1862.47   4
  -2  -6  -8 794.047 455.086   3
  -2  -6  -8 933.726 442.329   4
   2   6   8 1136.72 535.048   2
  -2  -6  -9 566.678 401.832   3
  -2  -6  -9 1034.02 528.207   4
   2   6   9 739.439 566.333   2
   2   6  10 31789.1 2481.15   2
  -2  -6 -10 25945.9 1998.23   3
  -2  -6 -10 32151.1 2277.75   4
  -2  -6 -11 920.583 507.063   3
  -2  -6 -11 572.064 430.575   4
   2   6  11 1365.75 658.566   2
  -2  -6 -12 646.573 605.574   4
   2   6  12 1387.99 627.259   2
   2   6  13 20749.9 1983.48   2
  -2  -6 -13 15363.9 1855.35   4
  -2  -6 -14 1755.51 836.600   4
  -2  -6 -15 13585.0 1935.96   4
  -2  -6 -15 12662.3 1985.99   5
   2   7 -13 1777.37 736.743   1
   2   7 -13 1295.45 959.136   5
   2   7 -12 2419.09 873.499   1
   2   7 -12 4297.33 1387.78   5
  -2  -7  11 2607.53 981.156   3
   2   7 -11 1377.24 784.313   1
   2   7 -11 1681.81 1003.52   5
   2   7 -10 23745.3 2502.13   5
  -2  -7  10 21617.5 2236.72   3
   2   7 -10 22942.9 2334.95   1
  -2  -7   9 883.922 645.106   3
   2   7  -9 235.893 493.887   5
   2   7  -8 62425.5 3692.36   5
  -2  -7   8 62042.0 3915.58   3
   2   7  -7 17545.4 1710.54   5
  -2  -7   7 22364.4 2261.58   3
  -2  -7   6 25961.4 2443.57   3
   2   7  -6 24875.8 1883.01   5
  -2  -7   5 2520.32 814.663   3
  -2  -7   5 1441.45 424.090   4
   2   7  -5 2284.14 558.725   5
  -2  -7   4 8694.90 1394.39   3
   2   7  -4 8387.70 894.627   5
   2   7  -3 56378.2 2367.21   5
  -2  -7   3 59533.3 3663.07   3
  -2  -7   3 54775.9 2287.94   4
   2   7  -2 23761.9 1185.28   5
  -2  -7   2 24223.7 2175.02   3
  -2  -7   2 21861.1 1178.46   4
   2   7  -1 5522.80 1101.67   2
  -2  -7   1 6944.31 1140.79   3
   2   7  -1 5473.48 362.735   5
  -2  -7   1 6265.31 525.484   4
  -2  -7   0 604.281 185.599   4
  -2  -7   0 257.789 460.949   3
   2   7   0 1128.49 687.478   2
  -2  -7  -1 6948.66 535.711   4
  -2  -7  -1 8093.04 1248.31   3
   2   7   1 7236.78 1231.25   2
  -2  -7  -2 32966.9 1414.52   4
  -2  -7  -2 33722.4 2538.35   3
   2   7   2 34771.2 2723.99   2
  -2  -7  -3 25355.6 1230.92   4
   2   7   3 24598.2 2265.73   2
  -2  -7  -3 23004.4 2075.51   3
  -2  -7  -4 1976.49 357.663   4
  -2  -7  -4 1880.95 638.942   3
   2   7   4 774.923 501.448   2
  -2  -7  -5 2255.24 723.332   3
  -2  -7  -5 1948.23 405.949   4
  -2  -7  -5 2583.19 377.069   5
   2   7   5 2545.11 772.015   2
  -2  -7  -5 2023.14 291.428   5
  -2  -7  -6 230348. 7109.12   5
  -2  -7  -6 228977. 8517.74   3
   2   7   6 225299. 8663.85   2
  -2  -7  -6 224497. 7231.88   4
   2   7   7 16074.7 1321.32   4
   2   7   7 15899.6 1774.01   2
  -2  -7  -7 15651.9 1695.15   3
  -2  -7  -7 14722.3 1255.72   4
   2   7   8 56724.7 3586.61   2
  -2  -7  -8 58587.9 3453.92   3
  -2  -7  -8 62680.7 3013.92   4
  -2  -7  -9 3096.14 799.306   3
  -2  -7  -9 3734.37 788.393   4
   2   7   9 3709.31 876.536   2
   2   7  10 115006. 5426.85   2
  -2  -7 -10 101970. 4950.23   3
  -2  -7 -10 115389. 4851.97   4
  -2  -7 -11 3731.79 904.247   4
   2   7  11 4858.05 1037.02   2
  -2  -7 -12 43333.5 3079.23   5
   2   7  12 33618.3 2710.43   2
  -2  -7 -12 38797.0 2772.08   4
  -2  -7 -13 86613.4 4838.22   5
   2   7  13 78394.6 4395.65   2
  -2  -7 -13 81614.7 4528.88   4
  -2  -7 -14 26879.2 2524.13   4
  -2  -7 -15 1086.52 634.318   4
   2   8 -12-804.694 794.752   5
   2   8 -12 694.141 763.542   1
  -2  -8  11 125.351 612.814   3
   2   8 -11-447.977 677.584   5
   2   8 -11-148.223 637.649   1
  -2  -8  10 632.700 602.755   3
   2   8 -10 279.959 675.913   1
   2   8 -10 622.125 728.915   5
  -2  -8   9-187.349 562.387   3
   2   8  -9 354.701 464.180   5
   2   8  -8 12270.8 1492.24   5
  -2  -8   8 14036.7 1865.82   3
  -2  -8   7 1589.36 761.503   3
   2   8  -7 1720.25 560.765   5
  -2  -8   6 10863.2 1655.73   3
   2   8  -6 10277.9 1150.63   5
   2   8  -5 10211.8 1019.39   5
  -2  -8   5 12762.8 1792.83   3
   2   8  -4 150621. 5095.57   5
  -2  -8   4 158833. 7158.20   3
   2   8  -3 22176.0 1233.40   5
  -2  -8   3 22847.5 2364.96   3
  -2  -8   3 24090.8 1320.42   4
   2   8  -2 39556.0 1438.27   5
  -2  -8   2 44560.0 3279.45   3
  -2  -8   2 42083.4 1731.05   4
   2   8  -1 80442.0 4587.83   2
  -2  -8   1 75230.0 4400.63   3
  -2  -8   1 73808.6 2463.34   4
   2   8   0 70570.0 4256.45   2
  -2  -8   0 68641.6 2125.46   4
  -2  -8   0 71167.4 4214.05   3
  -2  -8   0 65582.9 2096.53   4
  -2  -8  -1 135797. 3692.94   4
  -2  -8  -1 150892. 6444.86   3
   2   8   1 149551. 6508.14   2
  -2  -8  -2 2081.93 696.824   3
  -2  -8  -2 1795.89 211.661   4
   2   8   2 1444.53 676.815   2
  -2  -8  -3 135930. 6335.13   3
   2   8   3 150743. 6564.86   2
  -2  -8  -3 139882. 4200.89   4
  -2  -8  -4-230.650 559.189   3
  -2  -8  -4 8.14780 198.086   4
   2   8   4-82.9221 515.390   2
   2   8   5 14809.5 1799.45   2
  -2  -8  -5 14123.7 1768.16   3
  -2  -8  -5 16615.9 1061.22   4
  -2  -8  -6 9996.27 1512.76   3
  -2  -8  -6 9834.88 638.373   5
   2   8   6 12718.1 1657.37   2
  -2  -8  -6 10951.2 929.206   4
  -2  -8  -7 17808.3 1110.81   5
   2   8   7 18686.8 2002.67   2
  -2  -8  -7 16789.0 1909.81   3
  -2  -8  -7 17003.5 1279.56   4
  -2  -8  -8 10338.7 1527.48   3
  -2  -8  -8 10675.2 960.959   5
   2   8   8 11363.3 1590.30   2
  -2  -8  -8 10984.2 1114.74   4
  -2  -8  -9 337.913 520.943   3
  -2  -8  -9-131.564 384.116   4
   2   8   9-425.114 651.620   2
  -2  -8  -9 354.298 290.062   5
  -2  -8 -10 3968.01 928.794   3
  -2  -8 -10 5683.34 924.277   4
   2   8  10 4398.88 1044.49   2
  -2  -8 -11 675.727 641.085   4
   2   8  11 609.880 606.979   2
  -2  -8 -12 10971.9 1426.69   4
   2   8  12 10459.2 1579.42   2
   2   8  13-365.747 527.177   2
   2   9 -11 68774.9 4740.14   1
  -2  -9  11 69582.8 4545.40   3
   2   9 -10 16755.9 2182.29   1
  -2  -9  10 18412.9 2237.76   3
  -2  -9   9 52482.4 3878.89   3
  -2  -9   8 396.381 511.331   3
  -2  -9   7 50726.1 3785.28   3
   2   9  -7 50734.0 2819.02   5
   2   9  -6 53316.0 2718.71   5
  -2  -9   6 55623.8 3984.72   3
  -2  -9   5 4317.42 1123.74   3
   2   9  -5 5229.49 688.312   5
  -2  -9   4 10166.0 1700.81   3
   2   9  -4 9992.87 828.898   5
  -2  -9   3-161.195 491.911   3
  -2  -9   2 1708.97 753.158   3
   2   9  -1 19883.2 2251.92   2
  -2  -9   1 20068.2 2328.42   3
  -2  -9   0 1085.73 786.330   3
   2   9   0 751.964 573.166   2
  -2  -9  -1 9426.00 1561.57   3
   2   9   1 6665.96 1334.75   2
  -2  -9  -2 33159.7 2994.54   3
   2   9   2 36933.2 2967.29   2
  -2  -9  -3 47519.1 3588.78   3
   2   9   3 46576.0 3382.32   2
  -2  -9  -4 1297.71 760.548   3
   2   9   4 1364.40 747.086   2
  -2  -9  -5 21752.8 2380.06   3
   2   9   5 21836.0 2272.20   2
  -2  -9  -6 6096.80 1317.54   3
   2   9   6 5830.53 1184.51   2
  -2  -9  -7 69821.0 4440.82   3
   2   9   7 68272.5 4147.98   2
  -2  -9  -8 7858.52 1413.02   3
   2   9   8 7627.39 1354.02   2
  -2  -9  -9 15535.6 1911.31   3
   2   9   9 15290.8 1865.00   2
   2   9  10 5582.99 1158.92   2
   2   9  11 1163.81 770.417   2
   2   9  12 770.957 655.958   2
   2   9  13 20967.2 2219.10   2
  -2 -10  10 249.319 620.711   3
  -2 -10   9 4302.94 1223.69   3
  -2 -10   8-3.48634 684.286   3
  -2 -10   7 10148.0 1794.66   3
  -2 -10   6 5228.26 1339.66   3
  -2 -10   5 104636. 5972.16   3
  -2 -10   4 11885.5 1886.84   3
  -2 -10   3 8394.38 1562.55   3
  -2 -10   2 11499.6 1868.23   3
   2  10  -1 17862.7 2179.22   2
  -2 -10   1 22208.6 2567.97   3
   2  10   0 25694.5 2577.67   2
  -2 -10   0 25536.9 2770.88   3
  -2 -10  -1 299.901 653.297   3
   2  10   1 146.100 552.123   2
  -2 -10  -2 17932.2 2338.68   3
   2  10   2 18705.3 2131.99   2
   2  10   3 11458.0 1710.61   2
  -2 -10  -3 14989.6 2127.12   3
  -2 -10  -4 15195.5 2208.61   3
   2  10   4 13371.7 1810.96   2
  -2 -10  -5 952.337 733.318   3
   2  10   5 230.191 620.618   2
  -2 -10  -6-209.485 565.088   3
   2  10   6 1136.67 631.283   2
  -2 -10  -7 6353.34 1378.20   3
   2  10   7 4433.49 1106.18   2
  -2 -10  -8 28744.6 2785.05   3
   2  10   8 26078.1 2520.79   2
  -2 -10  -9 30012.7 2798.52   3
   2  10   9 28982.3 2697.29   2
   2  10  10 371.064 610.764   2
   2  10  11 65087.8 4181.94   2
   2  10  12 3562.02 1050.93   2
  -2 -11   8 2548.44 1013.23   3
  -2 -11   7 9001.64 1725.70   3
  -2 -11   6 7042.15 1509.60   3
  -2 -11   5 101.927 757.694   3
  -2 -11   4 867.236 701.975   3
  -2 -11   3 20631.0 2560.14   3
  -2 -11   2 1213.18 771.637   3
   2  11  -1 73878.5 4666.69   2
  -2 -11   1 65951.8 4766.96   3
   2  11   0 33539.9 3023.47   2
  -2 -11   0 31403.4 3249.25   3
   2  11   1 58932.2 4098.42   2
  -2 -11  -1 64026.4 4682.96   3
  -2 -11  -2 15360.8 2305.63   3
   2  11   2 15065.3 1967.21   2
  -2 -11  -3 36562.7 3525.99   3
   2  11   3 35700.1 3040.44   2
  -2 -11  -4 76528.6 5198.02   3
   2  11   4 70131.5 4413.48   2
  -2 -11  -5 16811.3 2359.43   3
   2  11   5 15088.9 1942.60   2
  -2 -11  -6 68906.0 4778.66   3
   2  11   6 64519.3 4198.96   2
  -2 -11  -7 10.8567 660.199   3
   2  11   7 1155.65 582.521   2
  -2 -11  -8 15225.8 2148.03   3
   2  11   8 14825.4 1978.78   2
   2  11   9-367.411 703.269   2
   2  11  10 8305.77 1513.13   2
  -2 -12   5 750.999 754.524   3
  -2 -12   4 95650.8 5960.78   3
  -2 -12   3 16269.8 2409.62   3
  -2 -12   2 832.403 930.372   3
   2  12  -1 10518.5 1762.56   2
  -2 -12   1 12328.0 2055.59   3
  -2 -12   0 6091.99 1562.89   3
   2  12   0 5554.21 1314.74   2
  -2 -12  -1 1317.24 870.738   3
   2  12   1-259.280 621.082   2
  -2 -12  -2 6990.08 1670.33   3
   2  12   2 5594.54 1312.46   2
  -2 -12  -3 1985.64 998.382   3
   2  12   3-233.791 597.430   2
  -2 -12  -4 193.310 850.084   3
   2  12   4-863.726 777.933   2
  -2 -12  -5 35463.2 3477.99   3
   2  12   5 32518.1 2935.16   2
  -2 -12  -6 16107.3 2363.12   3
   2  12   6 16442.7 2117.74   2
  -2 -12  -7 8675.36 1674.11   3
   2  12   7 2206.14 805.333   2
  -2 -12  -8 13105.1 1953.34   3
   2  13  -1 18648.2 2381.91   2
   2  13   0 22979.8 2574.66   2
  -2 -13   0 25974.5 3084.45   3
  -2 -13  -1-1370.90 926.576   3
   2  13   1 469.720 678.799   2
  -2 -13  -2 6220.61 1631.28   3
   2  13   2 3579.01 1173.42   2
  -2 -13  -3 40867.6 3888.43   3
   2  13   3 34156.8 3066.65   2
  -2 -13  -4 311.417 909.291   3
  -2 -13  -5 2073.96 1052.50   3
  -2 -13  -6 206.242 737.697   3
  -2 -13  -7-3311.03 1202.64   3
  -3  13   0 11897.1 1744.57   2
  -3  13  -1 721.247 648.181   2
  -3  13  -2 221.244 608.933   2
  -3  13  -2-2758.97 848.181   1
  -3  13  -3 1736.29 680.983   2
  -3  13  -3 707.314 603.179   1
  -3  13  -4 141.056 588.736   1
  -3  12   3 1074.22 755.273   2
  -3  12   2 5930.79 1240.57   2
  -3  12   1 15218.9 1904.44   2
  -3  12   0 1125.09 712.242   2
  -3  12  -1 35914.9 2758.70   1
  -3  12  -1 49091.0 3308.25   2
  -3  12  -2 396.165 464.780   2
  -3  12  -2-207.879 438.593   1
  -3  12  -3 2072.56 699.351   2
  -3  12  -3 926.588 558.845   1
  -3  12  -4 961.425 591.111   2
  -3  12  -4-342.103 493.128   1
  -3  12  -5 15511.4 2001.24   1
  -3  12  -6 2840.49 1042.79   1
  -3  11   6 7266.88 1493.52   2
  -3  11   5-312.203 544.933   2
  -3  11   4 2409.68 932.494   2
  -3  11   3 4164.94 1071.23   2
  -3  11   2 530.351 652.017   2
  -3  11   1-97.4031 497.041   2
  -3  11   1 1293.88 506.306   1
  -3  11   0 18623.8 1797.23   1
  -3  11   0 19306.0 2058.24   2
  -3  11  -1 12725.1 1523.71   1
  -3  11  -1 13560.4 1706.01   2
  -3  11  -2 3937.47 946.753   2
  -3  11  -2 1638.61 693.275   1
  -3  11  -3 18310.3 1979.17   1
  -3  11  -3 20662.1 2001.05   2
  -3  11  -4-14.9669 415.800   2
  -3  11  -4-250.345 596.127   1
  -3  11  -5 64200.6 4128.63   1
  -3  11  -5 67094.5 3606.03   2
  -3  11  -6 36.3826 550.877   1
  -3  11  -7 38320.1 3236.06   1
  -3  11  -8 16495.4 2183.48   1
   3 -10  -8 1974.12 875.275   5
   3 -10  -7 15450.2 1890.69   5
   3 -10  -6 22997.8 2303.50   5
   3 -10  -5 86052.1 4699.87   5
   3 -10  -4 18175.9 1994.43   5
  -3  10   3 4302.12 1025.84   2
   3 -10  -3 5219.43 1090.61   5
  -3  10   2 69936.0 3431.18   1
  -3  10   2 82428.0 4378.88   2
   3 -10  -2 76014.5 4214.16   5
  -3  10   1 2772.39 828.065   2
   3 -10  -1 3681.30 883.690   5
  -3  10   1 3822.39 784.298   1
  -3  10   0 24345.9 2211.17   2
  -3  10   0 25631.7 2020.19   1
   3 -10   0 23982.1 2141.33   5
  -3  10  -1-475.875 528.505   2
  -3  10  -1-74.9782 405.028   1
  -3  10  -2 58797.8 3431.53   1
  -3  10  -2 60978.5 3595.28   2
  -3  10  -3 1859.24 704.356   2
  -3  10  -3-68.4655 610.991   1
  -3  10  -4 4651.56 1009.74   1
  -3  10  -4 6074.37 1037.06   2
  -3  10  -5 3891.76 980.131   1
  -3  10  -5 4323.57 876.218   2
  -3  10  -6 2155.33 884.235   1
  -3  10  -6 2482.02 702.416   2
  -3  10  -7 4794.58 1183.31   1
  -3  10  -8 511.532 646.054   1
  -3  10  -9 4218.28 1254.96   1
   3  -9 -10 16712.4 2199.53   5
   3  -9  -9 10600.6 1757.52   5
   3  -9  -8 7892.69 1452.73   5
   3  -9  -7 1256.35 737.630   5
   3  -9  -6 3561.47 955.522   5
   3  -9  -5 12364.9 1664.59   5
   3  -9  -4 2056.56 774.070   5
  -3   9   3 17249.4 1322.69   1
   3  -9  -3 17370.0 1938.72   5
   3  -9  -2 29433.4 2524.32   5
  -3   9   2 26265.5 1777.05   1
  -3   9   1 2730.71 635.701   1
   3  -9  -1 3410.93 903.166   5
  -3   9   0 3433.85 808.907   2
  -3   9   0 2344.52 610.809   1
   3  -9   0 2849.25 811.439   5
  -3   9   0 2120.72 461.183   4
  -3   9  -1 11702.6 1033.88   4
  -3   9  -1 13343.9 1427.03   1
  -3   9  -1 13842.0 1547.08   2
   3  -9   1 13017.7 1598.58   5
  -3   9  -2 21159.4 1420.90   4
  -3   9  -2 21732.4 1955.46   2
  -3   9  -2 23029.0 1928.76   1
  -3   9  -3 1115.21 515.159   2
  -3   9  -3 1196.75 365.401   4
  -3   9  -3 1150.20 596.546   1
  -3   9  -4 58425.5 2680.37   4
  -3   9  -4 59881.1 3492.07   1
  -3   9  -4 59867.9 3270.50   2
  -3   9  -5 3390.95 901.528   1
  -3   9  -5 3722.50 635.810   4
  -3   9  -5 2475.72 650.472   2
  -3   9  -6 11956.8 1150.85   4
  -3   9  -6 10707.8 1557.50   1
  -3   9  -6 9359.83 1140.08   2
  -3   9  -7 4527.54 774.381   4
  -3   9  -7 5391.20 1211.63   1
  -3   9  -8 12623.5 1320.22   4
  -3   9  -8 14983.8 1976.82   1
  -3   9  -9 16605.8 2053.04   1
  -3   9  -9 15260.7 1534.17   4
  -3   9 -10-45.1788 460.703   4
  -3   9 -10 1184.12 748.309   1
  -3   9 -11 3268.72 869.914   4
  -3   9 -11 2062.62 948.740   1
  -3   9 -12 1817.25 706.837   4
   3  -8 -11 8998.14 1804.99   5
   3  -8 -10 14228.4 2171.32   5
   3  -8  -9 11669.2 1902.73   5
   3  -8  -8 12793.3 1875.98   5
   3  -8  -7 1656.74 762.220   5
   3  -8  -6 39001.8 3015.15   5
   3  -8  -5 22892.8 2223.03   5
  -3   8   4 5328.40 589.385   1
   3  -8  -4 6164.71 1179.66   5
  -3   8   3 7112.71 767.091   1
   3  -8  -3 8329.66 1320.68   5
  -3   8   2 2.24248 264.334   1
   3  -8  -2-582.926 565.689   5
  -3   8   1 3078.46 599.320   1
   3  -8  -1 1048.18 610.074   5
  -3   8   0 6811.70 913.543   1
   3  -8   0 6644.89 1205.85   5
  -3   8  -1 408.947 290.810   4
   3  -8   1 26.6503 475.791   5
  -3   8  -1 277.338 358.809   1
  -3   8  -2 946.069 515.600   2
  -3   8  -2 1698.08 443.365   4
  -3   8  -2 1274.80 571.821   1
  -3   8  -3 47635.5 2398.68   4
  -3   8  -3 45722.9 2762.68   2
  -3   8  -3 47728.0 2836.04   1
  -3   8  -4 11609.2 1100.91   4
  -3   8  -4 11012.8 1246.55   2
  -3   8  -4 13585.0 1519.74   1
  -3   8  -5 3888.10 732.128   2
  -3   8  -5 4078.05 913.278   1
  -3   8  -5 3903.41 657.172   4
  -3   8  -6 32618.7 2020.64   4
  -3   8  -6 29692.7 1969.99   2
  -3   8  -6 32330.2 2543.26   1
  -3   8  -7 6409.66 914.178   4
  -3   8  -7 6516.25 947.484   2
  -3   8  -7 5738.89 1148.35   1
  -3   8  -8 61924.2 3187.27   4
  -3   8  -8 56525.8 3694.20   1
  -3   8  -9-358.432 543.714   1
  -3   8  -9 16.6900 475.000   4
  -3   8 -10 114278. 5856.40   1
  -3   8 -10 117250. 5217.26   4
  -3   8 -11 4680.01 1013.93   4
  -3   8 -12 13308.4 1678.28   4
  -3   8 -13 14179.9 1775.14   4
   3  -7 -12-980.204 969.021   5
   3  -7 -11 1188.17 737.717   5
   3  -7 -10 1137.58 959.153   5
   3  -7  -9 551.483 558.718   5
   3  -7  -8 17884.1 2165.84   5
   3  -7  -7 10847.6 1644.85   5
   3  -7  -6 15306.3 1916.10   5
   3  -7  -5 27538.4 2447.75   5
   3  -7  -4 77524.5 4130.03   5
  -3   7   4 63894.3 2284.26   1
   3  -7  -3 3178.00 826.896   5
  -3   7   3 3216.19 439.154   1
  -3   7   2 71523.0 2855.35   1
   3  -7  -2 67330.0 3926.41   5
   3  -7  -1 88241.9 4660.93   5
  -3   7   1 90788.0 3546.40   1
   3  -7   0 89417.4 4717.87   5
  -3   7   0 89633.7 3673.90   1
  -3   7  -1 46338.4 2503.74   4
  -3   7  -1 43948.7 2421.79   1
   3  -7   1 44352.9 3064.61   5
  -3   7  -2 3271.09 672.857   1
  -3   7  -2 3955.02 678.897   4
   3  -7   2 2196.01 730.374   5
  -3   7  -3 112270. 4443.03   4
  -3   7  -3 116297. 4809.92   1
  -3   7  -3 117527. 4710.79   2
  -3   7  -4 8404.70 968.337   4
  -3   7  -4 8480.41 1043.02   2
  -3   7  -4 9148.11 1182.90   1
  -3   7  -5 43511.4 2389.58   4
  -3   7  -5 43723.6 2415.99   2
  -3   7  -5 43682.9 2810.74   1
  -3   7  -6 15729.8 1394.12   4
  -3   7  -6 13054.9 1196.80   2
  -3   7  -6 15132.1 1646.68   1
  -3   7  -7 3623.32 713.548   4
  -3   7  -7 3270.02 830.176   1
  -3   7  -7 3941.86 664.960   2
  -3   7  -8 2150.13 785.541   1
  -3   7  -8 2178.24 626.205   4
  -3   7  -9 2612.13 722.953   4
  -3   7  -9 2546.06 800.572   1
  -3   7 -10 4219.37 910.284   4
  -3   7 -11 3336.37 916.806   4
  -3   7 -12 24317.1 2322.15   4
  -3   7 -13 2209.80 848.568   4
  -3   7 -14 23463.0 2431.09   4
   3  -6 -12 1307.58 937.258   5
   3  -6 -11 25190.8 2962.76   5
   3  -6 -10 3839.33 1279.73   5
   3  -6  -9 70134.1 4678.37   5
   3  -6  -8 47775.5 3635.92   5
   3  -6  -7 35538.7 3040.79   5
   3  -6  -6 5952.02 1191.61   5
   3  -6  -5 19236.8 2002.77   5
   3  -6  -4 3310.74 863.544   5
   3  -6  -3 1647.04 630.301   5
  -3   6   3 2438.25 314.992   1
   3  -6  -2 14237.3 1642.97   5
  -3   6   2 12949.5 887.667   1
  -3   6   1 4187.67 549.834   1
   3  -6  -1 3908.38 927.112   5
   3  -6   0 16353.6 1835.81   5
  -3   6   0 17841.2 1254.51   1
   3  -6   1 23532.9 2230.55   5
  -3   6  -1 25859.1 1637.48   1
  -3   6  -2 7517.02 970.159   4
   3  -6   2 7045.38 1177.90   5
  -3   6  -2 7191.72 925.503   1
  -3   6  -3 5198.30 786.371   4
  -3   6  -3 5175.51 819.912   1
  -3   6  -4 60852.5 2995.77   4
  -3   6  -4 61813.7 3140.02   1
  -3   6  -5 35265.0 2150.03   4
  -3   6  -5 31704.0 1928.00   2
  -3   6  -5 37130.5 2411.77   1
  -3   6  -6 826.586 452.371   4
  -3   6  -6-41.8415 247.068   2
  -3   6  -6 1233.65 568.416   1
  -3   6  -7 81467.4 3800.82   4
  -3   6  -7 79058.3 4081.90   1
  -3   6  -7 85665.6 3462.20   2
  -3   6  -8 92.9073 353.927   4
  -3   6  -8 681.909 510.310   1
  -3   6  -9 10721.9 1355.89   4
  -3   6 -10 1820.77 667.777   4
  -3   6 -11 36503.6 2808.50   4
  -3   6 -12 7622.29 1373.24   4
  -3   6 -13 4803.10 1201.94   4
  -3   6 -14 737.142 829.672   4
   3  -5 -12 13391.4 2346.60   5
   3  -5 -11 3487.02 1251.79   5
   3  -5 -10 883.076 746.291   5
   3  -5  -9 9847.21 1698.77   5
   3  -5  -8 9167.19 1616.87   5
   3  -5  -7 51687.5 3617.83   5
   3  -5  -6 2815.57 898.094   5
   3  -5  -5 22460.9 2146.78   5
  -3   5   5 23228.7 1572.35   3
   3  -5  -4 14525.1 1687.45   5
  -3   5   4 17371.8 1374.87   3
   3  -5  -3 93933.1 4669.62   5
   3  -5  -2 29519.3 2372.64   5
  -3   5   1 14044.2 903.666   1
   3  -5  -1 13755.8 1585.01   5
   3  -5   0 28670.9 2420.88   5
  -3   5   0 29347.0 1531.74   1
  -3   5  -1 1463.22 382.478   1
   3  -5   1 1745.50 632.110   5
  -3   5  -2 8248.16 1031.83   4
   3  -5   2 8759.87 1330.55   5
  -3   5  -2 8276.72 872.478   1
  -3   5  -3 2576.39 621.430   4
   3  -5   3 2515.40 768.671   5
  -3   5  -3 2453.61 526.788   1
  -3   5  -4 892.652 451.019   1
  -3   5  -4 747.912 432.620   4
  -3   5  -5 184.551 205.125   2
  -3   5  -5-208.053 395.067   1
  -3   5  -5 75.7241 260.585   4
  -3   5  -6 32812.2 2173.05   4
  -3   5  -6 32856.9 2229.63   1
  -3   5  -6 34672.5 1746.00   2
  -3   5  -7 27688.0 2000.35   4
  -3   5  -7 23441.9 1334.38   2
  -3   5  -8 26765.9 2083.97   4
  -3   5  -9 10767.4 1355.70   4
  -3   5 -10 365.350 499.968   4
  -3   5 -11 94652.4 4901.51   4
  -3   5 -12 649.153 738.879   4
  -3   5 -13 67436.0 4350.15   4
  -3   5 -14 8043.00 1602.42   4
   3  -4 -13 2599.57 1425.35   5
   3  -4 -12 42764.8 4086.66   5
   3  -4 -11 571.821 841.778   5
   3  -4 -10 2244.65 1029.43   5
   3  -4  -9 12603.4 1907.52   5
   3  -4  -8 20429.7 2298.70   5
   3  -4  -7 3747.57 946.424   5
   3  -4  -6 6772.40 1220.01   5
   3  -4  -5 584.318 564.392   5
   3  -4  -4 7706.72 1183.82   5
   3  -4  -3 130618. 5674.90   5
   3  -4  -2 637.654 471.745   5
   3  -4  -1 23449.2 2045.36   5
   3  -4   0 45114.7 3016.86   5
   3  -4   1 264919. 9787.69   5
   3  -4   2 39889.6 2990.90   5
  -3   4  -3 38783.3 2416.87   4
   3  -4   3 36024.9 2750.32   5
  -3   4  -4 100087. 4371.06   4
  -3   4  -5 16619.0 1538.40   4
  -3   4  -6 44276.6 1876.15   2
  -3   4  -6 47364.2 2713.44   4
  -3   4  -7 1839.22 613.625   4
  -3   4  -7 1280.37 204.346   2
  -3   4  -8 134026. 5611.09   4
  -3   4  -9 608.082 558.182   4
  -3   4 -10 3394.35 916.041   4
  -3   4 -11 717.458 565.797   4
  -3   4 -12 1900.66 863.526   4
  -3   4 -13 790.564 874.332   4
  -3   4 -14 4398.10 1309.06   4
  -3   4 -15 6781.86 1516.11   4
   3  -3 -13 29394.8 3533.04   5
   3  -3 -12 16912.7 2580.01   5
   3  -3 -11 7893.82 1704.13   5
   3  -3 -10 110814. 6293.12   5
   3  -3  -9 11054.7 1785.48   5
   3  -3  -8 25968.9 2598.05   5
   3  -3  -7 7571.74 1371.61   5
   3  -3  -6 171072. 7233.91   5
   3  -3  -5 71180.7 3967.05   5
   3  -3  -4 46479.5 2992.67   5
   3  -3  -3 8916.30 1239.12   5
   3  -3  -2 67193.6 3640.58   5
   3  -3  -1 5056.72 919.956   5
   3  -3   0 7142.16 1138.46   5
  -3   3   0 7031.27 1030.31   5
   3  -3   1 13429.9 1678.80   5
   3  -3   2 11851.6 903.903   1
   3  -3   2 11065.4 1533.20   5
   3  -3   3 26661.8 1571.62   1
  -3   3  -3 24814.6 1887.46   4
   3  -3   3 24112.2 2256.97   5
  -3   3  -4 94501.1 4362.08   4
   3  -3   4 93415.1 3696.74   1
  -3   3  -5 1244.63 542.688   4
  -3   3  -6 918.194 434.693   4
  -3   3  -7 68465.0 3600.37   4
  -3   3  -8 69173.7 3723.06   4
  -3   3  -9 9213.52 1329.14   4
  -3   3 -10 39925.0 2957.71   4
  -3   3 -11 7099.44 1315.60   4
  -3   3 -12 37811.5 3159.54   4
  -3   3 -13 10477.6 1742.43   4
  -3   3 -14 23031.2 2684.17   4
  -3   3 -15 13753.2 2206.65   4
   3  -2 -13 24644.3 3219.76   5
   3  -2 -12 1198.94 981.808   5
   3  -2 -11 1631.63 797.355   5
   3  -2 -10 1155.28 942.560   5
   3  -2  -9 5326.49 1294.45   5
   3  -2  -8-175.865 579.546   5
   3  -2  -7 105.554 549.748   5
   3  -2  -6 30203.7 2530.60   5
   3  -2  -5 11492.5 1470.26   5
   3  -2  -4 33331.0 2441.22   5
   3  -2  -3 1726.29 603.963   5
   3  -2  -2 30273.3 2246.69   5
   3  -2  -1 7277.74 500.256   1
   3  -2  -1 8522.83 1192.50   5
   3  -2   0 129548. 5531.08   5
   3  -2   0 130198. 4071.35   1
   3  -2   1 66161.0 3890.60   5
   3  -2   1 74721.2 2729.53   1
   3  -2   2 34950.8 2704.40   5
   3  -2   2 34034.6 1736.05   1
  -3   2  -3 18142.9 1611.67   4
   3  -2   3 15909.3 1815.74   5
   3  -2   3 19502.4 1327.13   1
   3  -2   4 3322.25 573.157   1
  -3   2  -4 3800.48 777.180   4
   3  -2   5 3650.67 652.711   1
  -3   2  -5 3459.32 823.251   4
  -3   2  -6 396.825 379.533   4
  -3   2  -7 6718.92 1081.00   4
  -3   2  -8 604.850 566.558   4
  -3   2  -9 60717.1 3644.21   4
  -3   2 -10 13679.9 1702.24   4
  -3   2 -11 12301.6 1719.70   4
  -3   2 -12 14140.8 1974.27   4
  -3   2 -13 24259.6 2661.77   4
  -3   2 -14 57722.2 4412.61   4
  -3   2 -15 1230.68 852.656   4
   3  -1 -13 13343.3 2499.43   5
   3  -1 -12 599.290 1037.62   5
   3  -1 -11 42143.6 3969.76   5
   3  -1 -10 32370.7 3250.81   5
   3  -1  -9 20371.6 2428.80   5
   3  -1  -8 10656.7 1659.60   5
   3  -1  -7 14699.9 1849.90   5
   3  -1  -6 239.097 465.498   5
   3  -1  -5-111.027 446.857   5
   3  -1  -4 16916.4 1670.73   5
   3  -1  -3 23927.3 1947.63   5
   3  -1  -2 87359.0 4089.60   5
   3  -1  -1 91956.7 4237.96   5
   3  -1   0 32696.2 2319.13   5
   3  -1   1 5150.45 951.583   5
   3  -1   2 152354. 6498.21   5
  -3   1  -3 1115.87 451.071   4
   3  -1   3 1285.56 539.517   5
   3  -1   4 197351. 6159.96   1
  -3   1  -4 165738. 6761.52   4
   3  -1   5 184468. 6340.64   1
  -3   1  -5 201675. 7687.48   4
  -3   1  -6 156172. 6238.71   4
  -3   1  -6 130534. 4140.24   2
  -3   1  -7 34697.9 2545.39   4
  -3   1  -7 31801.6 1195.37   2
  -3   1  -8 5202.72 1023.58   4
  -3   1  -9 130617. 5946.47   4
  -3   1 -10 7343.30 1324.44   4
  -3   1 -11 47024.5 3470.05   4
  -3   1 -12 3086.21 1031.62   4
  -3   1 -13 10131.2 1822.05   4
  -3   1 -14 4382.01 1358.57   4
  -3   1 -15 1160.87 908.831   4
   3   0 -13 16213.6 2805.78   5
   3   0 -12 7155.16 1834.16   5
   3   0 -11 5995.84 1578.22   5
   3   0 -10 17494.5 2404.67   5
   3   0  -9 29426.0 2939.58   5
  -3   0   9 32261.3 1819.74   3
   3   0  -8 51952.5 3776.58   5
  -3   0   8 56257.7 2656.97   3
   3   0  -7 109174. 5650.20   5
   3   0  -7 119301. 3781.51   1
   3   0  -6 5712.10 509.050   1
   3   0  -6 5047.33 1015.43   5
   3   0  -5 88497.0 4459.40   5
   3   0  -4 47773.8 2947.42   5
   3   0  -3 210435. 7602.31   5
   3   0  -2 109672. 4700.56   5
   3   0  -1 76682.9 3677.54   5
   3   0   0 14555.8 1442.55   5
   3   0   1 95975.8 4509.48   5
   3   0   2 16737.5 1728.48   5
  -3   0  -3 7177.33 997.657   4
   3   0   3 6476.49 1080.12   5
  -3   0  -4 14858.3 1472.41   4
  -3   0  -5 9241.89 1243.42   4
  -3   0  -5 10215.9 1408.63   5
  -3   0  -5 8738.57 756.618   2
  -3   0  -6 21293.2 2021.67   4
  -3   0  -6 20758.6 1186.88   2
  -3   0  -7 27402.2 2241.03   4
  -3   0  -7 23928.0 1356.12   2
  -3   0  -8 4.57697 408.660   4
  -3   0  -9 8989.75 1390.38   4
  -3   0 -10 76674.3 4429.06   4
  -3   0 -11 21321.5 2292.05   4
  -3   0 -12 1199.04 772.389   4
  -3   0 -13 32692.4 3184.78   4
  -3   0 -14 36.4599 834.321   4
  -3   0 -15 13865.2 2297.84   4
   3   1 -13 27901.3 3646.11   5
   3   1 -12 28930.2 3531.82   5
   3   1 -11 14576.9 2404.00   5
   3   1 -10 64333.3 4786.37   5
  -3  -1   9 2886.60 609.679   3
   3   1  -9 3520.15 1160.37   5
  -3  -1   8 3203.68 647.302   3
   3   1  -8 2883.85 882.975   5
  -3  -1   7 574.207 375.066   3
   3   1  -7 168.765 219.442   1
   3   1  -7-101.474 452.146   5
   3   1  -6 10098.0 1410.28   5
   3   1  -5-164.115 382.743   5
   3   1  -4 3971.75 817.831   5
   3   1  -3 32694.2 2249.94   5
  -3  -1   3 37682.3 2336.55   5
   3   1  -2 13509.5 1343.86   5
   3   1  -1 104864. 4453.43   5
   3   1   0 1171.65 469.844   5
   3   1   1 17813.3 1636.46   5
   3   1   2 7681.50 1120.86   5
  -3  -1  -3 132974. 4484.33   2
  -3  -1  -3 133185. 5191.41   4
   3   1   3 125417. 5339.15   5
  -3  -1  -4 85276.3 4031.74   4
  -3  -1  -4 97677.3 3566.15   2
  -3  -1  -5 54580.3 3076.90   4
  -3  -1  -5 55548.4 3248.33   5
  -3  -1  -5 50642.1 2304.83   2
  -3  -1  -6 997.622 299.383   2
  -3  -1  -6 1179.98 572.218   4
  -3  -1  -6 1501.30 656.659   5
  -3  -1  -7 2801.04 548.208   2
  -3  -1  -7 3163.49 763.884   4
  -3  -1  -8 15765.8 1700.96   4
  -3  -1  -9-26.6669 460.245   4
  -3  -1 -10 349.176 575.504   4
  -3  -1 -11 1028.78 600.483   4
  -3  -1 -12 10353.9 1723.02   4
  -3  -1 -13 28097.1 2935.78   4
  -3  -1 -14 25149.8 2907.33   4
  -3  -1 -15 1112.56 819.958   4
   3   2 -13 31909.9 3940.11   5
   3   2 -12 1742.95 1127.41   5
   3   2 -11 5609.60 1506.27   5
   3   2 -10 43830.2 3954.96   5
   3   2 -10 51195.6 2761.12   1
   3   2  -9 19861.9 1552.34   1
  -3  -2   9 17888.2 1586.73   3
   3   2  -8 31212.3 2910.67   5
  -3  -2   8 36900.3 2284.43   3
  -3  -2   7 2649.58 616.281   3
   3   2  -7 3045.69 897.704   5
   3   2  -6 122233. 5678.37   5
  -3  -2   6 125568. 4956.88   3
   3   2  -5 133.420 417.514   5
   3   2  -4 3131.89 742.497   5
   3   2  -3 38830.9 2451.97   5
  -3  -2   3 41845.5 2398.78   5
   3   2  -2 69007.1 3361.22   5
   3   2  -1 3329.51 681.448   5
   3   2   0 25112.8 1789.66   5
  -3  -2   0 25081.5 1636.95   5
  -3  -2  -1 11536.8 1059.42   5
   3   2   1 10244.6 1185.67   5
   3   2   2 125.505 290.184   5
  -3  -2  -2 228.831 235.872   5
  -3  -2  -2 771.785 317.678   2
  -3  -2  -3 153153. 5735.25   4
  -3  -2  -3 161718. 5668.05   5
   3   2   3 151269. 5890.19   5
  -3  -2  -3 158862. 5425.79   2
  -3  -2  -4 35951.4 2204.98   4
  -3  -2  -4 32568.5 1845.82   2
  -3  -2  -5 8748.24 1088.31   4
  -3  -2  -5 7411.77 817.825   2
  -3  -2  -6 14191.7 1514.10   4
  -3  -2  -6 16085.3 1642.43   5
  -3  -2  -6 13555.6 1247.96   2
  -3  -2  -7 276980. 9351.31   4
  -3  -2  -7 246181. 8543.31   2
  -3  -2  -8 33166.2 2553.84   4
  -3  -2  -9 52960.9 3394.69   4
  -3  -2 -10 80371.3 4523.26   4
  -3  -2 -11 59564.4 3955.06   4
  -3  -2 -12 26253.5 2733.07   4
  -3  -2 -13 183.376 713.143   4
  -3  -2 -14 76529.6 5164.88   4
  -3  -2 -15-115.277 882.321   4
   3   3 -13 34331.5 4048.10   5
   3   3 -12 1710.16 977.184   5
   3   3 -11 7494.12 1721.75   5
   3   3 -10 5058.83 900.702   1
  -3  -3  10 2337.92 644.990   3
   3   3 -10 2947.55 1051.77   5
  -3  -3   9 1235.30 535.500   3
   3   3  -9 1682.51 563.387   1
   3   3  -9 1397.71 771.123   5
  -3  -3   8 4683.81 858.331   3
   3   3  -8 3095.52 970.784   5
   3   3  -7 65562.2 4122.88   5
  -3  -3   7 76893.3 3693.78   3
   3   3  -6 11957.4 1514.55   5
  -3  -3   6 13766.4 1377.57   3
   3   3  -5 27043.3 2217.13   5
  -3  -3   5 29181.3 2025.82   3
   3   3  -4 89590.9 4207.07   5
   3   3  -3 37701.7 2367.99   5
  -3  -3   3 41215.6 2315.67   5
   3   3  -2 88411.4 3872.07   5
   3   3  -1 97422.0 4004.21   5
  -3  -3   1 92792.7 3714.06   5
  -3  -3   0 259471. 8485.98   2
   3   3   0 283238. 8786.83   5
  -3  -3   0 273418. 8371.42   5
  -3  -3  -1 32758.1 1945.59   2
   3   3   1 31338.2 2066.44   5
  -3  -3  -1 33697.3 1820.49   5
  -3  -3  -2 36814.8 1952.63   5
   3   3   2 36484.3 2190.95   5
  -3  -3  -2 36250.3 2070.42   2
  -3  -3  -3 4820.05 739.948   4
  -3  -3  -3 4723.30 719.066   2
  -3  -3  -3 4802.83 656.216   5
  -3  -3  -4 179475. 6252.77   4
  -3  -3  -4 178006. 6132.69   5
  -3  -3  -4 164842. 5951.64   2
  -3  -3  -5 16836.9 1489.66   4
  -3  -3  -5 16809.8 1399.52   2
  -3  -3  -6 15364.8 1518.35   4
  -3  -3  -6 15982.2 1505.79   2
  -3  -3  -7 399.431 325.604   2
  -3  -3  -7 197.557 374.581   4
  -3  -3  -8 2684.70 776.642   4
  -3  -3  -9 4470.88 986.410   4
  -3  -3 -10 31222.3 2580.52   4
  -3  -3 -11 1662.72 775.621   4
  -3  -3 -12 686.556 537.649   4
  -3  -3 -13 43488.4 3563.09   4
  -3  -3 -14 47260.5 3857.05   4
  -3  -3 -15 2806.43 1047.83   4
   3   4 -13 3763.11 1576.28   5
   3   4 -12 56933.1 4902.79   5
   3   4 -11 2987.10 820.985   1
   3   4 -11 1982.53 1138.30   5
   3   4 -10 34039.4 2585.10   1
  -3  -4  10 32396.1 2466.04   3
   3   4  -9 71296.5 3746.11   1
   3   4  -9 63218.2 4446.13   5
  -3  -4   9 72364.5 3962.80   3
   3   4  -8 46586.9 3490.39   5
  -3  -4   8 54233.9 3275.28   3
   3   4  -7 57600.2 3706.55   5
  -3  -4   7 63166.3 3487.79   3
  -3  -4   6 661.790 385.387   3
   3   4  -6 706.591 493.816   5
  -3  -4   5 7197.44 1052.92   3
   3   4  -5 5980.94 993.202   5
   3   4  -4 20174.0 1721.70   5
  -3  -4   4 21179.9 1765.86   3
  -3  -4   3 11982.7 1313.17   3
   3   4  -3 13660.5 1300.73   5
   3   4  -2 7126.91 877.061   5
   3   4  -1 331.114 286.856   5
  -3  -4   1-54.8920 210.519   5
   3   4   0 36080.9 2033.05   5
  -3  -4   0 35201.4 1806.52   5
  -3  -4  -1 6040.88 665.082   5
   3   4   1 5361.07 774.791   5
   3   4   2 87319.5 3567.35   5
  -3  -4  -2 85419.4 3265.27   5
  -3  -4  -3 59.9161 243.725   4
  -3  -4  -3-167.070 217.993   5
  -3  -4  -4 26003.1 1749.39   4
  -3  -4  -4 23533.8 1532.30   5
  -3  -4  -4 23718.9 1755.05   2
   3   4   5 11853.4 1290.39   2
  -3  -4  -5 10238.0 1131.86   4
  -3  -4  -5 10870.5 1107.79   5
  -3  -4  -5 11726.8 1270.50   2
   3   4   6 140180. 5523.21   2
  -3  -4  -6 148225. 5677.12   4
  -3  -4  -6 138115. 5972.44   2
   3   4   7 80664.2 3805.41   2
  -3  -4  -7 84649.4 4023.15   4
  -3  -4  -7 77249.4 3871.04   5
   3   4   8 13145.0 1409.75   2
  -3  -4  -8 15844.6 1612.05   4
  -3  -4  -9 12135.9 1466.73   4
   3   4   9 11931.9 1325.78   2
  -3  -4 -10 12282.6 1539.94   4
   3   4  10 13447.4 1430.92   2
  -3  -4 -11 2587.97 892.329   4
   3   4  11 1978.86 621.279   2
  -3  -4 -12 4134.35 1085.75   4
  -3  -4 -13 5881.79 1272.49   4
  -3  -4 -14-357.570 776.256   4
  -3  -4 -15 14683.7 2114.14   4
   3   5 -13 16943.3 2707.51   5
   3   5 -12 1105.41 986.574   5
   3   5 -11-1116.22 864.340   5
   3   5 -11-229.196 532.570   1
   3   5 -10 28406.6 2450.60   1
   3   5 -10 27310.6 2881.59   5
  -3  -5  10 28216.4 2403.81   3
   3   5  -9 14710.6 2030.09   5
  -3  -5   9 19549.8 2026.11   3
   3   5  -8 38076.4 3041.65   5
  -3  -5   8 41990.7 3020.20   3
  -3  -5   7 8785.06 1319.87   3
   3   5  -7 9272.93 1367.21   5
  -3  -5   6 2442.74 739.460   3
   3   5  -6 3042.88 764.978   5
   3   5  -5 109877. 4757.40   5
  -3  -5   5 103242. 4861.64   3
   3   5  -4 43292.8 2524.16   5
  -3  -5   4 39042.1 2651.33   3
   3   5  -3 62427.5 3021.24   5
  -3  -5   3 59887.4 3321.58   3
   3   5  -2 24154.4 1624.10   5
  -3  -5   2 22982.1 1877.21   3
  -3  -5   1 31278.3 2206.32   3
   3   5  -1 32605.0 1843.69   5
   3   5   0 154.409 240.839   5
  -3  -5   0 26.3156 163.185   5
   3   5   1 792.628 364.142   5
  -3  -5  -1 415.470 149.929   5
  -3  -5  -2 54060.2 2558.10   4
  -3  -5  -2 49139.8 2086.45   5
  -3  -5  -3 7547.97 866.659   4
  -3  -5  -3 6590.30 637.446   5
   3   5   4 21724.2 1909.02   2
  -3  -5  -4 23101.9 1573.28   4
  -3  -5  -4 20383.4 1293.83   5
   3   5   5 62192.1 3413.37   2
  -3  -5  -5 57506.7 2818.35   4
  -3  -5  -5 54743.0 2643.90   5
   3   5   6 47894.0 3008.82   2
  -3  -5  -6 45761.8 2584.71   4
  -3  -5  -7 828.587 482.986   4
   3   5   7 927.529 588.745   2
  -3  -5  -8 70887.1 3596.29   4
   3   5   8 70602.0 3853.51   2
  -3  -5  -9 7427.58 1121.78   4
   3   5   9 7053.84 1181.60   2
  -3  -5 -10 49184.7 3164.78   4
   3   5  10 52071.1 3180.83   2
   3   5  11 62847.3 3610.22   2
  -3  -5 -11 68229.4 3960.05   4
   3   5  12 102482. 4819.79   2
  -3  -5 -12 106028. 5391.36   4
  -3  -5 -13 7393.70 1434.51   4
  -3  -5 -14 17488.1 2173.92   4
  -3  -5 -15 25931.8 2699.95   4
   3   6 -12 12479.2 2120.97   5
   3   6 -11 11614.5 1768.49   1
   3   6 -11 12714.7 2001.50   5
   3   6 -10 20782.9 2183.94   1
   3   6 -10 19693.5 2373.42   5
  -3  -6  10 20414.0 2186.69   3
  -3  -6   9 5239.90 1130.45   3
   3   6  -9 4783.95 1027.65   5
  -3  -6   8 579.593 662.046   3
   3   6  -8 1495.27 754.507   5
   3   6  -7 17774.9 1796.75   5
  -3  -6   7 18038.3 2037.99   3
  -3  -6   6 1508.51 666.866   3
   3   6  -6 1974.72 640.997   5
   3   6  -5 20987.0 1730.09   5
  -3  -6   5 19773.1 1986.53   3
   3   6  -4 87398.9 3827.70   5
  -3  -6   4 85504.7 4423.54   3
   3   6  -3 18313.2 1409.12   5
  -3  -6   3 14636.5 1181.39   4
  -3  -6   3 14825.3 1637.73   3
   3   6  -2 28620.8 1723.99   5
  -3  -6   2 26589.7 2172.93   3
   3   6  -1 59865.5 2536.94   5
  -3  -6   1 57091.3 3298.09   3
   3   6   0 28174.6 1572.39   5
  -3  -6   0 30583.0 2266.30   3
   3   6   1 85437.9 3102.33   5
  -3  -6  -1 85126.3 2905.38   5
  -3  -6  -1 93514.3 4289.80   3
  -3  -6  -2 55380.0 2519.49   4
  -3  -6  -2 50967.8 1941.32   5
  -3  -6  -2 51981.8 3055.18   3
  -3  -6  -3 170825. 6637.29   3
  -3  -6  -3 168189. 5637.29   4
  -3  -6  -3 163967. 5073.74   5
  -3  -6  -4 6980.93 803.799   4
  -3  -6  -4 6810.60 620.808   5
   3   6   4 7000.30 1190.16   2
   3   6   5 20003.3 2008.50   2
  -3  -6  -5 24133.8 1588.91   4
  -3  -6  -5 21692.2 1343.42   5
  -3  -6  -6 4531.13 738.962   4
  -3  -6  -6 3250.11 604.762   5
   3   6   6 3722.38 959.022   2
  -3  -6  -7 129678. 5651.77   3
  -3  -6  -7 139505. 5274.85   4
   3   6   7 131627. 6024.27   2
  -3  -6  -8 8038.13 1086.73   4
  -3  -6  -8 7871.11 1162.41   3
   3   6   8 7446.96 1246.27   2
  -3  -6  -9 10514.2 1293.88   4
   3   6   9 9659.61 1456.23   2
  -3  -6  -9 8693.57 1213.15   3
  -3  -6 -10 985.586 623.344   4
  -3  -6 -10 930.255 500.256   3
   3   6  10 528.113 472.186   2
  -3  -6 -11 603.786 517.029   4
  -3  -6 -11 820.458 495.243   3
   3   6  11 1254.62 666.631   2
  -3  -6 -12 9837.90 1506.03   4
   3   6  12 8711.10 1332.79   2
  -3  -6 -13 9710.26 1533.92   4
  -3  -6 -14 877.022 633.976   4
  -3  -6 -15 799.760 739.244   4
   3   7 -12 2972.24 1145.53   5
   3   7 -11 85304.1 5217.43   1
   3   7 -11 88505.5 5368.02   5
  -3  -7  10 1999.92 841.668   3
   3   7 -10 1572.02 792.887   1
   3   7 -10 1417.30 784.407   5
   3   7  -9 44778.2 3271.68   5
  -3  -7   9 50244.4 3664.24   3
  -3  -7   8 6804.48 1291.66   3
   3   7  -8 5976.80 1104.35   5
   3   7  -7 36997.0 2587.77   5
  -3  -7   7 38351.5 3158.75   3
   3   7  -6 24533.5 1959.99   5
  -3  -7   6 24038.7 2430.98   3
   3   7  -5 28592.2 1973.67   5
  -3  -7   5 26657.9 2492.38   3
   3   7  -4 89733.8 3731.89   5
  -3  -7   4 81641.5 4589.78   3
  -3  -7   3 8819.58 1348.95   3
   3   7  -3 9150.64 936.466   5
  -3  -7   2 320.555 466.725   3
   3   7  -2 173.618 230.996   5
  -3  -7   1 3855.36 877.112   3
   3   7  -1 4256.60 530.029   5
  -3  -7   0 7008.91 1136.70   3
   3   7   0 5539.55 507.651   5
  -3  -7  -1 185.267 411.912   3
  -3  -7  -1-121.506 248.988   4
   3   7   2 4163.63 1020.91   2
  -3  -7  -2 3518.84 822.411   3
  -3  -7  -2 3466.94 506.674   4
  -3  -7  -3 20687.8 1279.54   4
  -3  -7  -3 22266.8 2014.42   3
  -3  -7  -4-197.580 368.857   3
  -3  -7  -4 1229.31 367.980   4
  -3  -7  -4 519.196 174.839   5
   3   7   4 1038.18 671.603   2
   3   7   5 56837.6 3730.01   2
  -3  -7  -5 58132.4 2627.60   4
  -3  -7  -5 53130.4 3347.26   3
  -3  -7  -6 457.068 501.679   3
  -3  -7  -6 1054.48 392.065   4
   3   7   6 564.794 554.900   2
  -3  -7  -7 44144.1 2417.45   4
  -3  -7  -7 42290.8 2925.75   3
   3   7   7 39404.8 3128.57   2
  -3  -7  -8 677.039 447.539   3
  -3  -7  -8 883.729 510.475   4
   3   7   8-435.473 536.675   2
   3   7   9 49911.9 3547.06   2
  -3  -7  -9 52132.4 3336.97   3
  -3  -7  -9 53215.0 3011.57   4
  -3  -7 -10 40624.7 2888.38   3
   3   7  10 39014.1 3091.42   2
  -3  -7 -10 42169.7 2743.34   4
  -3  -7 -11 36210.2 2690.38   3
   3   7  11 29036.1 2663.96   2
  -3  -7 -11 38097.3 2694.96   4
  -3  -7 -12 4064.44 963.624   4
   3   7  12 5039.08 1063.03   2
  -3  -7 -13 4645.44 968.230   4
  -3  -7 -14 5970.47 1261.85   4
   3   8 -11 1134.45 825.066   1
  -3  -8  10 848.128 681.924   3
   3   8 -10 4185.38 1037.94   5
  -3  -8   9 626.876 740.947   3
   3   8  -9-425.240 493.022   5
  -3  -8   8 11480.1 1765.58   3
   3   8  -8 9599.61 1326.28   5
   3   8  -7 63142.1 3480.04   5
  -3  -8   7 75039.8 4678.01   3
  -3  -8   6 1625.07 808.306   3
   3   8  -6 4149.18 786.248   5
   3   8  -5 16995.6 1405.78   5
  -3  -8   5 13735.7 1930.54   3
   3   8  -4 27931.2 1737.08   5
  -3  -8   4 27669.0 2628.16   3
   3   8  -3 42502.2 2038.23   5
  -3  -8   3 42405.5 3219.31   3
   3   8  -2 26102.8 1332.67   5
  -3  -8   2 29092.2 2559.94   3
  -3  -8   1 2880.54 785.348   3
   3   8  -1 1907.64 258.282   5
  -3  -8   0 149659. 4920.87   4
  -3  -8   0 150691. 6595.37   3
  -3  -8  -1 5822.43 598.269   4
  -3  -8  -1 6161.28 1169.96   3
   3   8   2 7208.26 1375.45   2
  -3  -8  -2 7016.65 663.366   4
  -3  -8  -2 7529.02 1266.07   3
   3   8   3 7256.35 1322.22   2
  -3  -8  -3 7479.45 704.260   4
  -3  -8  -3 7762.17 1300.80   3
   3   8   4 30571.1 2760.93   2
  -3  -8  -4 33936.0 1702.53   4
  -3  -8  -4 31373.9 2622.60   3
  -3  -8  -5 2821.37 806.817   3
  -3  -8  -5 3964.94 597.822   4
   3   8   5 2970.48 955.262   2
  -3  -8  -6 2405.68 818.378   3
  -3  -8  -6 3811.43 628.109   4
   3   8   6 2077.97 889.349   2
  -3  -8  -7 1532.68 677.005   3
  -3  -8  -7 1316.18 468.825   4
  -3  -8  -8 281.589 555.223   3
  -3  -8  -8 848.119 482.774   4
   3   8   8 213.651 637.900   2
  -3  -8  -9 44718.3 3268.59   3
   3   8   9 43005.8 3370.94   2
  -3  -8  -9 50584.8 2823.06   4
  -3  -8 -10 18853.7 2033.24   3
   3   8  10 16190.5 2060.21   2
  -3  -8 -10 20219.7 1762.84   4
  -3  -8 -11 7535.85 1125.33   4
   3   8  11 6147.87 1272.59   2
   3   8  12-1054.32 727.558   2
  -3  -9  10 66801.5 4590.51   3
  -3  -9   9 6708.46 1465.27   3
  -3  -9   8 197.320 576.983   3
  -3  -9   7 27158.8 2838.65   3
  -3  -9   6-53.1424 722.735   3
  -3  -9   5 1043.06 793.907   3
  -3  -9   4 8105.17 1542.94   3
  -3  -9   3 1899.74 806.197   3
  -3  -9   2 8169.32 1514.55   3
  -3  -9   1 76029.2 4612.22   3
  -3  -9   0 3405.40 966.555   3
  -3  -9  -1 14575.8 1918.12   3
   3   9   2 13429.5 1951.40   2
  -3  -9  -2 17423.1 2029.70   3
   3   9   3 28946.9 2798.73   2
  -3  -9  -3 31026.7 2758.00   3
   3   9   4 57331.9 4055.95   2
  -3  -9  -4 64371.1 4122.39   3
   3   9   5 48829.2 3649.56   2
  -3  -9  -5 44781.0 3450.93   3
  -3  -9  -6 108065. 5643.29   3
   3   9   6 97059.1 5525.51   2
  -3  -9  -7 7441.13 1385.93   3
   3   9   7 7455.46 1457.74   2
  -3  -9  -8 18245.0 2180.00   3
   3   9   8 15516.8 2019.26   2
  -3  -9  -9 307.994 703.738   3
   3   9   9 1721.98 795.682   2
  -3  -9 -10 51563.0 3731.85   3
   3   9  10 46187.1 3588.62   2
   3   9  11 13319.7 1878.40   2
   3   9  12 11213.0 1740.27   2
  -3 -10   9 6209.40 1492.41   3
  -3 -10   8 60552.9 4498.48   3
  -3 -10   7 3230.34 1216.97   3
  -3 -10   6 67861.1 4809.84   3
  -3 -10   5-105.990 792.693   3
  -3 -10   4 47632.6 3910.82   3
  -3 -10   3 40490.3 3583.44   3
  -3 -10   2 24199.7 2706.96   3
  -3 -10   1 37179.9 3339.25   3
  -3 -10   0 6788.99 1432.84   3
  -3 -10  -1 5552.45 1286.08   3
   3  10   2 6209.11 1414.58   2
  -3 -10  -2 9121.67 1614.25   3
   3  10   3 1710.47 809.370   2
  -3 -10  -3 2397.71 913.945   3
  -3 -10  -4 128.508 559.626   3
   3  10   4 199.932 735.240   2
  -3 -10  -5 3285.84 1051.51   3
   3  10   5 4185.79 1180.20   2
  -3 -10  -6 18585.1 2348.90   3
   3  10   6 19001.3 2292.05   2
  -3 -10  -7 959.963 893.530   3
   3  10   7-426.666 754.210   2
  -3 -10  -8 39151.3 3453.08   3
   3  10   8 40418.2 3385.70   2
  -3 -10  -9 96.4403 822.015   3
   3  10   9 1300.55 800.480   2
   3  10  10 21556.3 2457.88   2
   3  10  11-52.3077 538.296   2
  -3 -11   6 1470.58 910.776   3
  -3 -11   5 509.924 805.239   3
  -3 -11   4 12946.0 2093.01   3
  -3 -11   3 23499.7 2778.21   3
  -3 -11   2 59756.3 4525.45   3
  -3 -11   1 1102.63 787.281   3
  -3 -11   0 5354.44 1394.97   3
  -3 -11  -1 58624.7 4502.64   3
   3  11   2 18774.6 2362.07   2
  -3 -11  -2 20715.9 2592.29   3
   3  11   3 41549.8 3522.49   2
  -3 -11  -3 47150.9 4000.85   3
  -3 -11  -4 2478.63 1219.89   3
   3  11   4 967.808 886.563   2
   3  11   5 30316.9 2950.86   2
  -3 -11  -5 28765.3 3121.68   3
  -3 -11  -6 7336.92 1701.61   3
   3  11   6 7281.36 1506.85   2
  -3 -11  -7 3118.14 1109.49   3
   3  11   7 2372.58 1042.83   2
  -3 -11  -8 24672.3 2889.73   3
   3  11   8 15418.7 2155.55   2
  -3 -11  -9 4803.66 1332.99   3
   3  11   9-864.836 793.198   2
   3  11  10 2654.39 1020.41   2
  -3 -12   2 2967.49 1115.09   3
  -3 -12   1 7715.36 1684.32   3
  -3 -12   0 412.916 750.577   3
  -3 -12  -1 6808.43 1642.94   3
   3  12   2 45897.4 3804.78   2
  -3 -12  -2 50477.0 4305.86   3
   3  12   3 5340.25 1336.64   2
  -3 -12  -3 5613.91 1501.30   3
  -3 -12  -4 11387.6 2055.83   3
   3  12   4 12859.7 1998.39   2
  -3 -12  -5 6809.01 1669.46   3
   3  12   5 5984.06 1407.40   2
   3  12   6 17862.5 2333.66   2
  -3 -12  -6 19602.0 2690.59   3
  -3 -12  -7 30722.5 3369.66   3
  -3 -12  -8 21526.6 2730.24   3
  -4  12   1 817.013 676.310   2
  -4  12   0 21088.2 2261.89   2
  -4  12  -1 6922.73 1288.72   2
  -4  12  -2 16895.0 1920.20   2
  -4  12  -3 14072.2 1703.86   2
  -4  12  -4 10466.0 1641.30   1
  -4  12  -5 879.779 714.480   1
  -4  12  -6 2267.35 878.150   1
  -4  11   3 1040.91 711.173   2
  -4  11   2 227.234 444.815   2
   4 -11  -2 1094.56 711.307   5
  -4  11   1 1059.19 666.608   2
   4 -11  -1 96.6785 556.411   5
  -4  11   0 4965.86 1128.86   2
   4 -11   0 5845.64 1254.54   5
  -4  11  -1-829.421 530.514   2
  -4  11  -2 7097.49 1218.58   2
  -4  11  -2 15812.2 1760.17   1
  -4  11  -3 1026.06 498.174   2
  -4  11  -3-905.068 626.325   1
  -4  11  -4 49824.5 3070.32   2
  -4  11  -4 35047.5 2909.39   1
  -4  11  -5 1495.35 705.405   1
  -4  11  -6 11622.3 1725.31   1
  -4  11  -7 4197.74 1150.15   1
   4 -10  -7 5902.95 1462.07   5
   4 -10  -6 11839.0 1930.05   5
   4 -10  -5 22967.2 2613.91   5
   4 -10  -4-663.969 689.161   5
   4 -10  -3 7667.00 1577.42   5
   4 -10  -2 397.322 671.668   5
   4 -10  -1 28585.1 2713.28   5
  -4  10   0 785.537 468.659   2
   4 -10   0-588.912 586.666   5
  -4  10  -1-657.875 467.241   1
  -4  10  -1-143.872 425.239   2
   4 -10   1 762.759 638.929   5
  -4  10  -2 2748.25 795.525   1
  -4  10  -2 2990.33 847.262   2
  -4  10  -3-130.856 408.220   2
  -4  10  -3 255.049 457.803   1
  -4  10  -4 1610.73 661.624   2
  -4  10  -4 2239.24 772.431   1
  -4  10  -5 3819.55 996.123   1
  -4  10  -6 4112.48 1059.60   1
  -4  10  -7 2110.81 882.519   1
   4  -9  -9 1077.01 905.046   5
   4  -9  -8 20114.1 2601.82   5
   4  -9  -7 1301.07 949.864   5
   4  -9  -6 18796.4 2382.45   5
   4  -9  -5 1147.71 741.050   5
   4  -9  -4 2743.19 1029.15   5
   4  -9  -3 7247.34 1454.26   5
   4  -9  -2 29241.6 2870.90   5
   4  -9  -1 1278.78 754.764   5
  -4   9   0 21005.4 1658.16   1
   4  -9   0 19027.2 2240.84   5
  -4   9   0 19485.0 1683.71   4
  -4   9  -1 105500. 4600.96   1
  -4   9  -1 107111. 4433.92   4
   4  -9   1 96212.8 5349.13   5
  -4   9  -2 2259.19 747.874   2
  -4   9  -2 744.549 367.367   4
  -4   9  -2 2389.58 672.576   1
  -4   9  -3 19641.3 1886.51   1
  -4   9  -3 18162.8 1510.85   4
  -4   9  -3 18953.8 1775.51   2
  -4   9  -4 4350.75 1018.06   1
  -4   9  -4 3353.03 753.975   2
  -4   9  -4 4159.52 744.089   4
  -4   9  -5 71726.4 3388.76   4
  -4   9  -5 77347.6 4185.59   1
  -4   9  -5 69961.1 3609.51   2
  -4   9  -6 5928.99 913.382   4
  -4   9  -6 6533.42 1268.28   1
  -4   9  -7 3476.43 751.307   4
  -4   9  -8 8405.78 1144.43   4
  -4   9  -9 8512.78 1211.11   4
  -4   9 -10 2527.01 691.644   4
  -4   9 -11 6766.29 1221.33   4
   4  -8  -9 64094.5 4906.69   5
   4  -8  -8 7673.62 1661.24   5
   4  -8  -7 45148.7 3796.90   5
   4  -8  -6 6784.99 1495.99   5
   4  -8  -5 3353.65 1073.22   5
   4  -8  -4 17030.6 2145.63   5
   4  -8  -3 10075.1 1655.79   5
   4  -8  -2 12473.8 1834.25   5
   4  -8  -1-448.241 599.562   5
   4  -8   0-102.850 563.320   5
  -4   8  -1 9454.55 1075.95   1
  -4   8  -1 7372.28 1082.72   4
   4  -8   1 7246.15 1415.30   5
  -4   8  -2 4502.03 830.529   1
  -4   8  -2 4194.46 797.829   4
   4  -8   2 5309.52 1201.96   5
  -4   8  -3 603.661 442.386   1
  -4   8  -3 1848.85 539.263   4
  -4   8  -4 435.485 455.933   1
  -4   8  -4-39.2150 312.327   2
  -4   8  -4 160.214 307.340   4
  -4   8  -5 23824.1 1835.39   4
  -4   8  -5 26748.8 1982.47   2
  -4   8  -6 3670.96 700.643   2
  -4   8  -6 4407.65 793.170   4
  -4   8  -7 66790.7 3425.72   4
  -4   8  -8 5384.30 952.722   4
  -4   8  -9 20386.3 1887.48   4
  -4   8 -10-118.668 582.406   4
  -4   8 -11 11263.8 1589.44   4
  -4   8 -12 24932.7 2415.67   4
  -4   8 -13 7501.60 1411.33   4
   4  -7 -10 974.210 839.038   5
   4  -7  -9 9217.70 1891.32   5
   4  -7  -8 1394.99 874.407   5
   4  -7  -7 7453.42 1618.26   5
   4  -7  -6 6516.98 1453.60   5
   4  -7  -5 37909.9 3294.91   5
   4  -7  -4 19727.1 2309.29   5
   4  -7  -3 36132.7 3144.42   5
   4  -7  -2 20578.0 2365.28   5
   4  -7  -1 561.352 607.562   5
   4  -7   0 35735.8 3123.61   5
   4  -7   1 2556.99 929.785   5
  -4   7  -2 40215.3 2609.25   4
   4  -7   2 39077.7 3114.21   5
  -4   7  -3 7801.49 1118.13   4
   4  -7   3 8764.53 1512.83   5
  -4   7  -4 2799.77 735.618   4
  -4   7  -5 1968.45 543.986   2
  -4   7  -5 2173.56 663.661   4
  -4   7  -6 2413.84 552.424   2
  -4   7  -6 1337.75 558.458   4
  -4   7  -7 3196.25 736.750   4
  -4   7  -8-697.062 484.999   4
  -4   7  -9 17458.6 1754.00   4
  -4   7 -10 9326.91 1369.57   4
  -4   7 -11 33315.5 2661.21   4
  -4   7 -12 2239.70 745.717   4
  -4   7 -13 43142.1 3390.20   4
   4  -6 -10 39411.2 3895.25   5
   4  -6  -9 3472.30 1244.53   5
   4  -6  -8 636.334 805.577   5
   4  -6  -7 4574.77 1288.15   5
   4  -6  -6 10265.7 1742.68   5
   4  -6  -5 3947.50 1083.15   5
   4  -6  -4 27937.4 2694.58   5
   4  -6  -3 30.5137 570.702   5
   4  -6  -2 17883.6 2157.06   5
   4  -6  -1 30592.0 2828.03   5
   4  -6   0 931.241 711.197   5
   4  -6   1 39902.5 3333.85   5
  -4   6  -2 21021.6 1838.19   4
   4  -6   2 20091.4 2266.66   5
  -4   6  -3 72406.8 3717.63   4
   4  -6   3 63682.9 4198.15   5
  -4   6  -4 55627.6 3174.91   4
  -4   6  -5 63.4466 341.480   4
  -4   6  -6 49899.6 2979.78   4
  -4   6  -6 49608.0 2447.13   2
  -4   6  -7 28005.1 2140.17   4
  -4   6  -7 26143.9 1567.36   2
  -4   6  -8 76747.8 3944.68   4
  -4   6  -9 9089.98 1298.02   4
  -4   6 -10 8731.17 1341.03   4
  -4   6 -11 1342.10 816.542   4
  -4   6 -12 10991.2 1610.98   4
  -4   6 -13 1928.80 856.125   4
   4  -5 -11 15570.3 2577.61   5
   4  -5 -10 22496.4 2938.74   5
   4  -5  -9 1854.87 1045.86   5
   4  -5  -8 24184.7 2818.36   5
   4  -5  -7 32.7438 575.204   5
   4  -5  -6 99140.9 5695.22   5
   4  -5  -5 9555.99 1631.47   5
   4  -5  -4 86887.7 5024.09   5
   4  -5  -3 9608.37 1537.40   5
   4  -5  -2 25617.7 2511.01   5
   4  -5  -1 5100.39 1197.48   5
   4  -5   0 7800.45 1462.22   5
   4  -5   1 69209.2 4498.60   5
   4  -5   2-133.806 590.413   5
  -4   5  -3 4232.54 890.106   4
   4  -5   3 3638.01 1065.95   5
  -4   5  -4 5927.53 1035.97   4
  -4   5  -5 1247.51 590.571   4
  -4   5  -6 9609.04 1281.44   4
  -4   5  -7 4598.79 570.519   2
  -4   5  -7 5566.55 1003.14   4
  -4   5  -8 18993.2 1842.06   4
  -4   5  -9 8.88343 450.648   4
  -4   5 -10 100214. 4989.01   4
  -4   5 -11 687.417 630.298   4
  -4   5 -12 16982.7 2036.47   4
  -4   5 -13 1213.31 735.049   4
  -4   5 -14 29648.9 2934.20   4
   4  -4 -11 17829.6 2676.20   5
   4  -4 -10 154.056 801.737   5
   4  -4  -9 22783.6 2800.93   5
   4  -4  -8-126.682 700.838   5
   4  -4  -7 381.615 553.548   5
   4  -4  -6 21752.8 2449.20   5
   4  -4  -5 2962.63 955.138   5
   4  -4  -4 1077.76 623.768   5
   4  -4  -3 11602.3 1683.04   5
   4  -4  -2 77098.5 4564.97   5
   4  -4  -1 22792.9 2336.74   5
   4  -4   0 42505.0 3314.70   5
   4  -4   1 56176.9 3996.23   5
   4  -4   2 9494.45 1650.79   5
  -4   4  -3 21851.7 1913.39   4
   4  -4   3 25057.1 2523.44   5
  -4   4  -4-79.6523 427.571   4
   4  -4   4 559.477 506.417   5
  -4   4  -5 116726. 5270.80   4
  -4   4  -6 2729.47 746.211   4
  -4   4  -7 376.048 486.074   4
  -4   4  -8 7555.02 1220.86   4
  -4   4  -9 371.996 529.935   4
  -4   4 -10 1000.58 650.246   4
  -4   4 -11 7492.28 1370.83   4
  -4   4 -12-544.221 653.149   4
  -4   4 -13 238.341 667.620   4
  -4   4 -14 77179.5 5005.25   4
   4  -3 -11 4441.11 1575.60   5
   4  -3 -10 267.456 659.522   5
   4  -3  -9 108137. 6461.52   5
   4  -3  -8 4346.30 1291.61   5
   4  -3  -7 17413.1 2272.24   5
   4  -3  -6 37581.7 3189.34   5
   4  -3  -5 42609.7 3314.78   5
   4  -3  -4 119.141 449.640   5
   4  -3  -3 350.354 422.918   5
   4  -3  -2 64514.2 3976.58   5
   4  -3  -1 17417.9 1997.01   5
   4  -3   0 47199.5 3445.59   5
   4  -3   1 2601.31 456.302   1
   4  -3   1 1716.50 802.714   5
   4  -3   2 431.282 298.442   1
   4  -3   2 928.447 710.105   5
   4  -3   3 1564.49 459.262   1
  -4   3  -3 1955.34 648.815   4
   4  -3   3 856.406 674.034   5
  -4   3  -4 158704. 6491.77   4
   4  -3   4 175937. 7637.38   5
  -4   3  -5 1183.25 517.682   4
  -4   3  -6 37167.9 2744.74   4
  -4   3  -7 92147.8 4739.21   4
  -4   3  -8 7266.94 1234.59   4
  -4   3  -9 34045.0 2737.38   4
  -4   3 -10 20871.3 2206.19   4
  -4   3 -11 117919. 5911.73   4
  -4   3 -12 2125.48 945.202   4
  -4   3 -13 4651.17 1290.54   4
  -4   3 -14 77.0202 767.611   4
   4  -2 -11 848.656 979.294   5
   4  -2 -10 1932.92 1167.64   5
   4  -2  -9 845.286 775.580   5
   4  -2  -8 26375.8 2865.83   5
   4  -2  -7 38132.0 3347.63   5
   4  -2  -6 4679.05 1149.24   5
   4  -2  -5 24536.2 2466.11   5
   4  -2  -4 3429.02 984.028   5
   4  -2  -3 142760. 6475.62   5
   4  -2  -2 21088.4 930.000   1
   4  -2  -2 23499.9 2227.12   5
   4  -2  -1 170634. 7304.07   5
   4  -2  -1 175826. 5291.79   1
   4  -2   0 8967.01 775.218   1
   4  -2   0 6649.30 1251.55   5
   4  -2   1 11494.9 1712.68   5
   4  -2   1 17108.5 1179.55   1
   4  -2   2 5622.57 1229.23   5
   4  -2   2 6344.58 777.518   1
   4  -2   3 18851.6 2203.61   5
   4  -2   3 22939.0 1579.97   1
  -4   2  -4 45617.1 2886.33   4
   4  -2   4 45952.6 3466.41   5
  -4   2  -5 215.573 366.940   4
  -4   2  -6 449.706 432.850   4
  -4   2  -7 28816.4 2463.74   4
  -4   2  -7 23227.0 1242.18   2
  -4   2  -8 2169.26 248.620   2
  -4   2  -8 3675.35 984.120   4
  -4   2  -9 126.251 527.143   4
  -4   2 -10 2748.67 863.327   4
  -4   2 -11 34827.9 3012.95   4
  -4   2 -12 2408.26 950.605   4
  -4   2 -13 52822.9 4046.02   4
  -4   2 -14 2647.87 1152.65   4
   4  -1 -11 12232.3 2373.70   5
   4  -1 -10 8643.49 1902.38   5
   4  -1  -9-20.8997 761.835   5
   4  -1  -8 22758.4 2684.63   5
   4  -1  -7 1237.91 721.364   5
   4  -1  -6 21569.4 2342.84   5
   4  -1  -5 3702.31 970.480   5
   4  -1  -4-39.5187 431.538   5
   4  -1  -3 26291.2 2358.11   5
   4  -1  -2 4211.35 991.594   5
   4  -1  -1 30043.4 2492.93   5
   4  -1   0 102.125 440.786   5
   4  -1   1 50418.4 3539.34   5
   4  -1   2 77837.8 4646.64   5
   4  -1   3 115555. 5815.26   5
  -4   1  -4 26756.7 2098.68   4
   4  -1   4 23034.8 2323.59   5
  -4   1  -5 7936.55 1194.05   4
  -4   1  -6 62574.4 2568.13   2
  -4   1  -6 57445.9 3518.78   4
  -4   1  -7 9300.01 1414.07   4
  -4   1  -7 7079.63 676.948   2
  -4   1  -8 46378.5 3310.78   4
  -4   1  -8 34109.8 1596.55   2
  -4   1  -9 14652.6 1935.59   4
  -4   1 -10 30227.9 2798.78   4
  -4   1 -11 2413.57 971.163   4
  -4   1 -12 2068.73 972.193   4
  -4   1 -13 8543.90 1657.21   4
  -4   1 -14-137.128 735.574   4
   4   0 -12 10215.7 2346.28   5
   4   0 -11 19600.6 2911.65   5
   4   0 -10 41382.2 4045.72   5
   4   0  -9 1564.00 962.445   5
   4   0  -8 58762.8 4365.33   5
   4   0  -7 42213.8 3508.05   5
   4   0  -6 95826.2 3043.21   1
   4   0  -6 88520.1 5170.95   5
   4   0  -5 50223.5 3541.96   5
   4   0  -4 73891.8 4260.40   5
   4   0  -3 1052.71 467.567   5
   4   0  -2 33743.2 2614.54   5
   4   0  -1 49376.7 3209.79   5
   4   0   0 50986.5 3301.60   5
   4   0   1 9324.92 1424.19   5
   4   0   2 74991.3 4402.04   5
   4   0   3 51.9211 441.013   5
  -4   0  -4 19288.1 1746.30   4
   4   0   4 17932.7 1953.09   5
  -4   0  -5 9892.62 908.071   2
  -4   0  -5 8565.90 1177.36   4
  -4   0  -6 9334.48 1304.94   4
  -4   0  -6 8627.12 866.568   2
  -4   0  -7 70277.2 3987.23   4
  -4   0  -7 68368.0 2788.53   2
  -4   0  -8 11651.3 1576.12   4
  -4   0  -8 10271.8 925.074   2
  -4   0  -9 65625.2 4180.08   4
  -4   0 -10 19531.7 2207.95   4
  -4   0 -11-115.562 608.527   4
  -4   0 -12 42817.1 3558.25   4
  -4   0 -13 30572.8 3110.66   4
  -4   0 -14 82883.1 5557.43   4
  -4   0 -15 1956.64 1056.79   4
   4   1 -12 1899.73 1413.10   5
   4   1 -11 3809.04 1440.03   5
   4   1 -10 2129.80 1090.26   5
   4   1  -9 3423.10 1329.03   5
   4   1  -8 9285.46 1682.00   5
  -4  -1   8 9860.67 1202.85   3
   4   1  -7 108.606 238.909   1
   4   1  -7 477.124 754.744   5
   4   1  -6-9.16430 459.103   5
   4   1  -5 27042.2 2528.91   5
   4   1  -4 43690.5 3114.93   5
   4   1  -3 18897.7 1941.85   5
   4   1  -2 17887.4 1869.46   5
   4   1  -1 7086.91 1149.81   5
   4   1   0 169884. 6927.32   5
   4   1   1 4387.25 983.024   5
   4   1   2 103042. 5226.64   5
   4   1   3 5971.99 1069.10   5
  -4  -1  -4 72609.9 3203.74   2
  -4  -1  -4 77892.0 3829.13   4
   4   1   4 78179.5 4196.06   5
  -4  -1  -5 2399.90 663.768   4
  -4  -1  -5 3731.70 656.050   2
  -4  -1  -6 476.547 387.935   4
  -4  -1  -6 798.974 338.857   2
  -4  -1  -7 29601.9 2336.60   4
  -4  -1  -7 26813.5 1675.93   2
  -4  -1  -8-83.7947 243.940   2
  -4  -1  -8 789.163 489.645   4
  -4  -1  -9 292.177 499.984   4
  -4  -1 -10 22687.6 2382.49   4
  -4  -1 -11 1973.28 979.593   4
  -4  -1 -12 12904.8 1969.05   4
  -4  -1 -13 14452.9 2123.14   4
  -4  -1 -14 18640.6 2565.03   4
  -4  -1 -15 1455.49 943.514   4
   4   2 -12 7629.85 2171.48   5
   4   2 -11 10317.4 2217.20   5
   4   2 -10 45230.7 4207.14   5
   4   2  -9 46789.8 4081.62   5
  -4  -2   9 53913.0 3134.57   3
   4   2  -8 11787.9 1907.82   5
  -4  -2   8 14751.9 1528.73   3
   4   2  -7 19994.6 2363.93   5
  -4  -2   7 22487.4 1895.67   3
   4   2  -6 6776.25 1310.34   5
   4   2  -5 33193.8 2735.44   5
   4   2  -4 1977.97 755.750   5
   4   2  -3 15476.2 1714.64   5
   4   2  -2 1442.36 569.207   5
   4   2  -1 1141.24 587.498   5
   4   2   0 61339.2 3494.81   5
   4   2   1 254.093 468.285   5
   4   2   2 15189.7 1731.70   5
  -4  -2  -2 16918.1 1507.87   5
   4   2   3 1712.70 660.137   5
  -4  -2  -4 95373.9 4314.09   4
  -4  -2  -4 94835.7 3971.71   2
  -4  -2  -5 36025.2 2420.87   4
  -4  -2  -5 37302.7 2194.95   2
  -4  -2  -6 53450.1 3086.06   4
  -4  -2  -6 51830.4 2626.76   2
  -4  -2  -7 71712.5 3764.87   4
  -4  -2  -7 65554.2 3122.95   2
  -4  -2  -8 60251.6 3502.14   4
  -4  -2  -8 53215.3 2891.53   2
  -4  -2  -9 12459.6 1604.14   4
  -4  -2 -10 245.768 597.289   4
  -4  -2 -11 118970. 6081.51   4
  -4  -2 -12 189.575 633.692   4
  -4  -2 -13 2637.43 1101.03   4
  -4  -2 -14 691.597 1067.04   4
  -4  -2 -15 16149.7 2475.64   4
   4   3 -11 3731.41 1425.82   5
   4   3 -10 27605.3 3209.26   5
  -4  -3   9-172.154 466.359   3
   4   3  -9 228.264 656.999   5
  -4  -3   8 3027.14 769.313   3
   4   3  -8 2192.72 842.374   5
   4   3  -7 86687.9 5149.23   5
  -4  -3   7 93250.1 4475.98   3
   4   3  -6 10351.9 1572.67   5
  -4  -3   6 12047.6 1399.35   3
   4   3  -5 17551.3 1918.98   5
   4   3  -4 32390.4 2567.62   5
   4   3  -3 250735. 9116.55   5
   4   3  -2 7589.65 1163.69   5
   4   3  -1 21627.1 1895.19   5
   4   3   0 36344.4 2545.11   5
  -4  -3   0 40893.7 2344.97   5
   4   3   1 110674. 5158.50   5
  -4  -3  -1 121569. 4745.76   5
   4   3   2 3762.61 828.274   5
  -4  -3  -2 3230.11 631.831   5
  -4  -3  -3 8192.73 1064.71   4
   4   3   3 9875.19 1232.68   5
  -4  -3  -3 7802.77 952.473   5
  -4  -3  -4 41600.4 2552.38   4
  -4  -3  -4 44821.3 2509.50   5
  -4  -3  -5 7121.50 1007.40   4
  -4  -3  -6 15425.3 1540.21   4
  -4  -3  -7 255.001 363.832   4
  -4  -3  -8 5388.03 929.282   2
  -4  -3  -8 4413.81 908.412   4
  -4  -3  -9 841.355 474.494   4
  -4  -3 -10 98771.5 5077.08   4
  -4  -3 -11 2022.91 863.948   4
  -4  -3 -12 39632.1 3300.76   4
  -4  -3 -13 22716.1 2636.61   4
  -4  -3 -14 8054.68 1733.36   4
  -4  -3 -15 14839.5 2299.75   4
   4   4 -11 19839.1 2784.64   5
   4   4 -10 69319.1 5044.17   5
  -4  -4   9 2568.45 789.699   3
   4   4  -9 2360.49 1002.28   5
  -4  -4   8 3390.55 887.845   3
   4   4  -8 2230.18 874.295   5
  -4  -4   7 1130.60 636.210   3
   4   4  -7 908.887 695.172   5
  -4  -4   6 5717.31 1035.79   3
   4   4  -6 7154.40 1290.21   5
   4   4  -5 21233.7 2050.27   5
  -4  -4   5 20668.0 1878.48   3
   4   4  -4 546.007 415.273   5
   4   4  -3 2367.79 659.586   5
   4   4  -2 18698.0 1755.49   5
   4   4  -1 34367.7 2357.73   5
  -4  -4   1 33690.6 2100.17   5
  -4  -4   0 7637.98 913.077   5
   4   4   0 7170.92 1052.98   5
   4   4   1 42626.1 2679.91   5
   4   4   2 37741.6 2426.87   5
  -4  -4  -3 101781. 4334.14   4
   4   4   3 98685.3 4363.05   5
  -4  -4  -4 22671.0 1771.01   4
  -4  -4  -4 23534.1 1640.59   5
  -4  -4  -5 99608.8 4366.89   4
  -4  -4  -5 99796.2 4198.14   5
  -4  -4  -6 1082.71 495.107   4
  -4  -4  -7 46101.6 2800.42   4
  -4  -4  -8 6683.29 1086.62   4
  -4  -4  -9 23114.8 2079.78   4
  -4  -4 -10 18209.0 1930.85   4
  -4  -4 -11 2650.77 913.098   4
  -4  -4 -12 1073.03 696.969   4
  -4  -4 -13 25077.1 2710.96   4
  -4  -4 -14 1464.51 775.403   4
  -4  -4 -15 3296.09 1211.42   4
   4   5 -11 20534.8 2778.34   5
   4   5 -10 1939.88 1010.80   5
   4   5  -9 18318.1 2278.42   5
  -4  -5   9 18737.5 2133.19   3
  -4  -5   8 7783.46 1343.35   3
   4   5  -8 6091.84 1301.61   5
   4   5  -7 27112.1 2537.34   5
  -4  -5   7 27867.4 2420.73   3
   4   5  -6 64480.7 3844.15   5
  -4  -5   6 63327.0 3769.93   3
   4   5  -5 18212.0 1825.39   5
  -4  -5   5 15761.1 1748.17   3
   4   5  -4 26159.9 2144.29   5
  -4  -5   4 25004.7 2133.01   3
   4   5  -3 19083.1 1731.12   5
  -4  -5   3 15102.4 1612.79   3
   4   5  -2 16474.7 1571.18   5
   4   5  -1 3176.07 662.615   5
  -4  -5   1 2967.28 574.877   5
   4   5   0 26998.6 1958.05   5
   4   5   1 357.975 400.591   5
   4   5   2 483.680 350.874   5
  -4  -5  -3 18396.6 1519.46   4
  -4  -5  -4 621.807 395.213   4
  -4  -5  -5 24222.2 1833.76   4
  -4  -5  -6 7550.00 1029.34   4
  -4  -5  -7 50271.3 2884.53   4
  -4  -5  -8 45747.3 2809.67   4
  -4  -5  -9 76536.6 3972.89   4
  -4  -5 -10 9233.36 1350.21   4
  -4  -5 -11 24786.8 2281.95   4
  -4  -5 -12 33681.1 2848.89   4
  -4  -5 -13 18009.9 2156.20   4
  -4  -5 -14 22350.2 2513.41   4
   4   6 -11 2433.50 1000.66   5
   4   6 -10 37286.4 3341.22   5
  -4  -6   9-1289.34 767.061   3
   4   6  -9 1128.53 706.538   5
  -4  -6   8 4517.10 1141.82   3
   4   6  -8 5266.49 1187.19   5
  -4  -6   7 5976.71 1216.40   3
   4   6  -7 4986.44 1053.68   5
  -4  -6   6 9796.74 1449.53   3
   4   6  -6 10308.1 1420.77   5
   4   6  -5 41886.5 2764.91   5
  -4  -6   5 38390.7 2910.45   3
   4   6  -4 15675.0 1561.18   5
  -4  -6   4 16094.9 1764.71   3
  -4  -6   3 312.568 447.337   3
   4   6  -3 860.000 487.772   5
   4   6  -2 96266.4 4158.89   5
  -4  -6   2 90595.8 4540.92   3
   4   6  -1 92436.7 3982.77   5
  -4  -6   1 93335.3 4562.67   3
   4   6   0 93027.4 3975.16   5
   4   6   1 13128.9 1218.35   5
  -4  -6  -1 15290.2 1120.28   5
  -4  -6  -2 85473.5 3749.72   4
  -4  -6  -2 83646.6 3213.82   5
  -4  -6  -3-17.0969 334.092   4
  -4  -6  -3 270.751 254.225   5
  -4  -6  -4 58421.4 2921.75   4
  -4  -6  -5 39230.7 2303.49   4
  -4  -6  -6 36321.3 2249.57   4
  -4  -6  -7 4548.60 823.123   4
  -4  -6  -8 12347.1 1344.44   4
  -4  -6  -9 1712.90 678.568   4
  -4  -6 -10 1776.60 743.122   4
  -4  -6 -11 1297.69 679.883   4
  -4  -6 -12 2151.76 871.514   4
  -4  -6 -13 32155.4 2787.36   4
  -4  -6 -14 13586.8 1882.88   4
   4   7 -10 26488.6 2718.50   5
   4   7  -9 21306.0 2276.50   5
  -4  -7   9 22184.8 2549.38   3
   4   7  -8 35627.9 2843.14   5
  -4  -7   8 36430.3 3257.23   3
   4   7  -7 72734.8 4005.49   5
  -4  -7   7 63989.1 4306.82   3
  -4  -7   6 1574.28 812.298   3
   4   7  -6 2392.12 661.347   5
   4   7  -5 15143.7 1534.02   5
  -4  -7   5 12717.7 1723.13   3
  -4  -7   4 491.960 556.901   3
   4   7  -4 783.725 485.496   5
  -4  -7   3 6544.21 1186.96   3
   4   7  -3 7290.37 983.293   5
   4   7  -2 19165.2 1498.09   5
  -4  -7   2 20515.4 2021.51   3
  -4  -7   1 843.262 616.796   3
   4   7  -1 328.651 324.853   5
  -4  -7   0 1772.31 668.253   3
   4   7   0 1199.53 366.894   5
  -4  -7  -1 2566.54 754.184   3
  -4  -7  -2 44534.8 2362.67   4
  -4  -7  -2 41691.5 2853.68   3
  -4  -7  -3 17470.4 1371.75   4
  -4  -7  -3 15962.6 1714.54   3
  -4  -7  -4 13368.6 1196.27   4
  -4  -7  -4 12993.6 1546.42   3
  -4  -7  -5 16010.0 1325.84   4
  -4  -7  -5 16585.9 1763.40   3
  -4  -7  -6 76878.4 3422.13   4
  -4  -7  -6 73567.4 4105.04   3
  -4  -7  -7 1355.65 623.553   3
  -4  -7  -7 900.561 397.543   4
  -4  -7  -8 36749.0 2330.00   4
  -4  -7  -8 33459.6 2646.57   3
  -4  -7  -9 8682.89 1141.88   4
   4   7   9 8196.29 1421.79   2
  -4  -7  -9 7833.00 1278.23   3
  -4  -7 -10 48685.5 2990.94   4
   4   7  10 46633.8 3429.60   2
  -4  -7 -10 45857.2 3133.93   3
  -4  -7 -11 119.428 580.946   4
  -4  -7 -11 540.562 694.315   3
  -4  -7 -12 6044.30 1158.74   4
  -4  -7 -13 8398.32 1402.98   4
  -4  -8   9-276.244 637.096   3
  -4  -8   8 23846.8 2712.67   3
  -4  -8   7 1061.68 697.832   3
  -4  -8   6 20678.6 2393.20   3
  -4  -8   5 1021.33 669.863   3
  -4  -8   4 32881.7 2847.56   3
  -4  -8   3 71613.2 4325.02   3
  -4  -8   2 18731.0 2059.09   3
  -4  -8   1 11333.0 1575.62   3
  -4  -8   0 14458.7 1768.89   3
  -4  -8  -1 24338.4 1582.58   4
  -4  -8  -1 22741.9 2190.80   3
  -4  -8  -2 461.982 558.448   3
  -4  -8  -2-202.090 305.746   4
  -4  -8  -3 3620.16 924.804   3
  -4  -8  -3 3781.52 598.699   4
  -4  -8  -4 92.5823 559.161   3
  -4  -8  -4 1287.02 365.112   4
  -4  -8  -5 6556.23 813.742   4
  -4  -8  -5 7455.08 1248.24   3
  -4  -8  -6 34000.6 1993.23   4
  -4  -8  -6 33474.1 2687.31   3
  -4  -8  -7 68.5582 466.525   3
  -4  -8  -7 201.457 318.214   4
   4   8   8 5850.47 1345.52   2
  -4  -8  -8 4397.73 993.037   3
  -4  -8  -8 4155.10 774.938   4
   4   8   9 213.976 581.367   2
  -4  -8  -9 589.986 585.946   3
  -4  -8  -9 318.013 418.733   4
   4   8  10 55525.5 4046.85   2
  -4  -8 -10 60381.9 3845.58   3
  -4  -8 -10 65221.7 3448.17   4
   4   8  11 1158.48 792.653   2
  -4  -8 -11 3604.70 1001.42   3
  -4  -9   8 1376.58 910.329   3
  -4  -9   7 7413.76 1593.39   3
  -4  -9   6 13045.3 2032.22   3
  -4  -9   5 1553.01 712.597   3
  -4  -9   4 35883.5 3158.31   3
  -4  -9   3 284.997 603.848   3
  -4  -9   2 2313.59 822.269   3
  -4  -9   1 36388.1 3044.71   3
  -4  -9   0 18919.5 2133.65   3
  -4  -9  -1 10808.2 1613.12   3
  -4  -9  -2 21292.4 2265.37   3
  -4  -9  -3 173593. 7497.13   3
  -4  -9  -4 161.492 471.843   3
  -4  -9  -5 6386.11 1280.77   3
  -4  -9  -6 3478.65 998.317   3
   4   9   7 89362.6 5396.24   2
  -4  -9  -7 85461.7 4875.57   3
   4   9   8 13326.3 2009.14   2
  -4  -9  -8 10402.8 1619.30   3
   4   9   9 7206.43 1505.72   2
  -4  -9  -9 8370.89 1447.13   3
   4   9  10 8092.39 1583.60   2
  -4  -9 -10 10228.2 1607.10   3
   4   9  11-664.665 691.269   2
  -4 -10   6 12526.5 2051.99   3
  -4 -10   5 29013.5 3074.90   3
  -4 -10   4 53825.1 4178.97   3
  -4 -10   3 1755.86 829.368   3
  -4 -10   2 17912.0 2259.50   3
  -4 -10   1 4703.08 1211.73   3
  -4 -10   0 6056.90 1360.96   3
  -4 -10  -1 11355.7 1721.53   3
  -4 -10  -2-114.930 585.599   3
  -4 -10  -3 2092.86 877.377   3
  -4 -10  -4 4130.67 1105.26   3
  -4 -10  -5 15545.5 2054.75   3
  -4 -10  -6 5797.27 1311.49   3
   4  10   7 20405.0 2552.37   2
  -4 -10  -7 21181.7 2450.47   3
   4  10   8 26866.5 2883.18   2
  -4 -10  -8 28236.0 2817.16   3
   4  10   9 34133.7 3299.56   2
  -4 -10  -9 33782.9 3070.34   3
   4  10  10 355.166 707.134   2
  -4 -10 -10 3028.41 903.931   3
  -4 -11   2 3040.02 1210.04   3
  -4 -11   1 33258.4 3240.07   3
  -4 -11   0 28730.7 3011.51   3
  -4 -11  -1 7177.09 1546.42   3
  -4 -11  -2 27481.1 2873.73   3
  -4 -11  -3 24885.3 2752.95   3
  -4 -11  -4 8678.87 1663.06   3
  -4 -11  -5 1771.60 801.492   3
  -4 -11  -6 8934.18 1669.85   3
   4  11   7 1352.30 942.203   2
  -4 -11  -7 535.937 760.035   3
   4  11   8-670.557 825.289   2
  -4 -11  -8-995.679 907.939   3
  -4 -11  -9 4400.21 1396.52   3
   5 -11  -1 5372.84 1311.52   5
  -5  11   0 7839.30 1346.55   2
   5 -11   0 7862.49 1631.27   5
  -5  11  -1 27684.0 2472.01   2
  -5  11  -2-1348.77 640.222   2
   5 -10  -5 9036.40 2025.06   5
   5 -10  -4 15223.4 2366.16   5
   5 -10  -3 748.858 749.472   5
   5 -10  -2 7864.60 1789.47   5
   5 -10  -1 688.927 871.524   5
   5 -10   0 2310.26 1004.53   5
   5 -10   1-312.672 625.451   5
  -5  10  -2 2355.73 701.816   2
  -5  10  -3 2805.26 783.016   2
   5  -9  -6 10758.9 2129.07   5
   5  -9  -5 14336.1 2378.73   5
   5  -9  -4-208.004 709.982   5
   5  -9  -3 9982.85 1973.57   5
   5  -9  -2 57422.4 4561.54   5
   5  -9  -1-1754.98 983.484   5
  -5   9   0 13460.9 1580.42   4
   5  -9   0 11828.1 2059.64   5
  -5   9  -1 2408.49 742.769   4
   5  -9   1 2620.65 984.420   5
  -5   9  -2 85185.2 4175.81   4
   5  -9   2 78565.2 5084.03   5
  -5   9  -3 92.2073 557.207   4
  -5   9  -4 6732.91 1040.49   2
  -5   9  -4 8340.26 1158.82   4
  -5   9  -5 19585.7 1743.51   4
  -5   9  -6 5608.32 950.788   4
  -5   9  -7-255.161 505.884   4
  -5   9  -8 1303.33 601.837   4
  -5   9  -9 5179.83 1011.74   4
   5  -8  -7 2823.34 1220.67   5
   5  -8  -6-1227.84 904.118   5
   5  -8  -5 43473.6 3996.30   5
   5  -8  -4 1284.94 908.029   5
   5  -8  -3-351.773 698.940   5
   5  -8  -2 16.7523 773.130   5
   5  -8  -1 357.788 1045.47   5
   5  -8   0 1175.57 697.666   5
  -5   8  -1 2110.69 722.924   4
   5  -8   1 1873.71 990.429   5
  -5   8  -2 308.278 481.323   4
   5  -8   2-14.1814 601.259   5
  -5   8  -3 14040.8 1598.21   4
  -5   8  -4 40427.1 2761.18   4
  -5   8  -5 3033.09 802.057   4
  -5   8  -6 20703.3 1897.94   4
  -5   8  -7 1042.69 578.744   4
  -5   8  -8 26559.3 2224.67   4
  -5   8  -9 5830.49 1097.86   4
  -5   8 -10 19454.6 2001.69   4
  -5   8 -11 1298.94 724.163   4
   5  -7  -7 2632.42 1187.44   5
   5  -7  -6 25181.0 3080.77   5
   5  -7  -5 9410.46 1837.08   5
   5  -7  -4 17005.4 2500.56   5
   5  -7  -3 3098.61 1135.94   5
   5  -7  -2 11180.7 1986.52   5
   5  -7  -1 38669.1 3720.11   5
   5  -7   0 4128.52 1193.31   5
   5  -7   1 2092.31 993.896   5
  -5   7  -2 2327.60 735.981   4
   5  -7   2 1470.23 899.467   5
  -5   7  -3 922.589 507.067   4
   5  -7   3 1380.15 790.827   5
  -5   7  -4 722.550 528.323   4
  -5   7  -5 405.013 418.910   4
  -5   7  -6 1239.03 625.168   4
  -5   7  -7-54.9781 455.770   4
  -5   7  -8 39779.9 2820.18   4
  -5   7  -9 56.2094 498.347   4
  -5   7 -10 25564.1 2321.06   4
  -5   7 -11-790.000 688.422   4
   5  -6  -8 3725.02 1389.29   5
   5  -6  -7 2617.45 1187.02   5
   5  -6  -6 1196.11 903.288   5
   5  -6  -5 11457.0 2062.16   5
   5  -6  -4 9376.59 1889.32   5
   5  -6  -3 770.601 692.712   5
   5  -6  -2 16096.8 2342.59   5
   5  -6  -1 8292.58 1655.42   5
   5  -6   0 63486.3 4738.75   5
   5  -6   1 39504.0 3667.32   5
  -5   6  -2 8907.52 1341.39   4
   5  -6   2 6670.17 1530.79   5
  -5   6  -3 74747.8 4062.04   4
   5  -6   3 69091.1 4829.10   5
  -5   6  -4 27716.4 2329.35   4
  -5   6  -5 77806.7 4225.00   4
  -5   6  -6 12644.6 1610.47   4
  -5   6  -7 42618.5 3010.61   4
  -5   6  -8 3285.40 908.327   4
  -5   6  -9 362.803 534.368   4
  -5   6 -10 10156.7 1522.30   4
  -5   6 -11 12982.5 1761.57   4
  -5   6 -12 544.240 651.258   4
   5  -5  -8 15802.8 2487.13   5
   5  -5  -7 85490.8 5912.04   5
   5  -5  -6 7463.69 1673.59   5
   5  -5  -5 10621.0 1913.32   5
   5  -5  -4 27725.0 2976.01   5
   5  -5  -3 21448.5 2616.26   5
   5  -5  -2 41271.2 3626.90   5
   5  -5  -1 5160.26 1381.08   5
   5  -5   0 7347.05 1605.09   5
   5  -5   1 876.251 804.021   5
   5  -5   2 698.416 754.305   5
  -5   5  -3 2422.90 750.392   4
   5  -5   3 1642.84 992.363   5
  -5   5  -4 2239.77 675.304   4
   5  -5   4 2196.33 1059.88   5
  -5   5  -5 1054.46 548.893   4
  -5   5  -6 16569.7 1852.53   4
  -5   5  -7 38681.2 2947.19   4
  -5   5  -8 1228.74 655.040   4
  -5   5  -9 24603.7 2354.51   4
  -5   5 -10 6457.05 1284.68   4
  -5   5 -11 43982.7 3348.95   4
  -5   5 -12 772.638 689.744   4
   5  -4  -9 1141.72 784.545   5
   5  -4  -8 549.663 829.141   5
   5  -4  -7 799.634 755.463   5
   5  -4  -6 3159.19 1200.88   5
   5  -4  -5 8440.62 1760.09   5
   5  -4  -4 469.963 713.589   5
   5  -4  -3 44401.3 3733.03   5
   5  -4  -2 2095.51 931.021   5
   5  -4  -1 14977.7 2205.76   5
   5  -4   0 5295.92 1321.30   5
   5  -4   1 24361.3 2858.42   5
   5  -4   2 44846.2 3932.55   5
  -5   4  -3 2722.21 804.233   4
   5  -4   3 1591.22 815.249   5
  -5   4  -4 23880.0 2201.39   4
   5  -4   4 21963.0 2669.95   5
  -5   4  -5 6153.54 1119.85   4
  -5   4  -6 133.568 515.488   4
  -5   4  -7 15.3516 354.454   4
  -5   4  -8 1004.71 595.123   4
  -5   4  -9 268.936 572.958   4
  -5   4 -10 834.165 573.994   4
  -5   4 -11 39982.7 3253.34   4
  -5   4 -12-626.993 679.024   4
  -5   4 -13 26458.1 2807.60   4
   5  -3  -9 5688.96 1709.73   5
   5  -3  -8 20236.7 2821.34   5
   5  -3  -7 4933.49 1485.67   5
   5  -3  -6 26702.2 3006.14   5
   5  -3  -5 13501.9 2099.51   5
   5  -3  -4 3811.32 1130.31   5
   5  -3  -3 12760.8 1910.75   5
   5  -3  -2 1599.47 811.254   5
   5  -3  -1-365.834 681.476   5
   5  -3   0 6346.08 1493.35   5
   5  -3   1 77099.1 3167.44   1
   5  -3   1 65498.7 4786.02   5
   5  -3   2 1262.73 437.907   1
   5  -3   2-1298.63 903.857   5
   5  -3   3 47368.9 3902.68   5
  -5   3  -4 82586.3 4381.00   4
   5  -3   4 84567.1 5392.36   5
  -5   3  -5 11803.4 1523.52   4
  -5   3  -6 26174.4 2338.44   4
  -5   3  -7 5789.34 1147.26   4
  -5   3  -8 182629. 7695.02   4
  -5   3  -9 511.009 647.989   4
  -5   3 -10 9322.94 1561.12   4
  -5   3 -11 12181.6 1911.02   4
  -5   3 -12 18362.6 2305.09   4
  -5   3 -13-58.5511 665.675   4
   5  -2  -9 10500.0 2158.89   5
   5  -2  -8 8882.88 1893.92   5
   5  -2  -7 2549.55 1049.67   5
   5  -2  -6 112181. 6541.08   5
   5  -2  -5 1560.29 923.800   5
   5  -2  -4 103049. 5896.90   5
   5  -2  -3 37392.7 3253.86   5
   5  -2  -2 55667.6 4059.83   5
   5  -2  -1 10599.3 845.218   1
   5  -2  -1 7806.86 1534.71   5
   5  -2   0 17525.4 2302.46   5
   5  -2   0 22121.8 1406.81   1
   5  -2   1 90164.9 5637.52   5
   5  -2   1 100898. 3908.91   1
   5  -2   2 61.4363 309.899   1
   5  -2   2 529.552 667.182   5
   5  -2   3 7935.05 1587.55   5
  -5   2  -4 774.209 543.188   4
   5  -2   4 1164.83 758.685   5
  -5   2  -5 349.858 362.329   4
  -5   2  -6 852.620 655.722   4
  -5   2  -7 5877.35 1159.03   4
  -5   2  -8 236.475 513.631   4
  -5   2  -9 9694.81 1565.24   4
  -5   2 -10 38986.1 3236.09   4
  -5   2 -11 153.301 609.450   4
  -5   2 -12 35649.6 3343.61   4
  -5   2 -13 4542.49 1361.55   4
   5  -1 -10-375.712 986.747   5
   5  -1  -9 28642.3 3489.32   5
   5  -1  -8 7327.60 1668.00   5
   5  -1  -7 6597.91 1547.51   5
   5  -1  -6 2821.80 1052.93   5
   5  -1  -5 1418.78 835.474   5
   5  -1  -4 2426.79 945.898   5
   5  -1  -3 1179.48 788.353   5
   5  -1  -2 19769.7 2321.90   5
   5  -1  -1-1108.15 698.900   5
   5  -1   0 42052.3 3480.04   5
   5  -1   1 12562.9 1962.02   5
   5  -1   2 29782.2 3054.11   5
   5  -1   3 247.186 587.905   5
  -5   1  -4 14768.2 1616.53   4
   5  -1   4 11086.7 1819.40   5
  -5   1  -5 52087.1 3273.11   4
  -5   1  -6 2363.52 525.185   2
  -5   1  -6 1843.93 707.712   4
  -5   1  -7 11033.0 1542.97   4
  -5   1  -7 11730.6 1047.98   2
  -5   1  -8 6380.81 1241.60   4
  -5   1  -9 2933.33 898.342   4
  -5   1 -10-194.503 596.893   4
  -5   1 -11-538.620 745.605   4
  -5   1 -12 1172.52 806.202   4
  -5   1 -13 3406.88 1290.06   4
   5   0 -10 39313.3 4240.61   5
   5   0  -9 24400.5 3208.75   5
   5   0  -8 777.203 852.289   5
   5   0  -7 28226.3 3160.00   5
   5   0  -6 1042.83 718.585   5
   5   0  -5 32310.3 3139.91   5
   5   0  -4-188.205 524.997   5
   5   0  -3 65787.7 4392.13   5
   5   0  -2 1604.91 706.495   5
   5   0  -1 12127.9 1817.69   5
   5   0   0 345.431 545.649   5
   5   0   1 9211.93 1659.55   5
   5   0   2 6797.21 1465.64   5
   5   0   3 2339.81 862.147   5
  -5   0  -4 19338.1 1855.78   4
   5   0   4 23554.2 2485.87   5
  -5   0  -5 20075.7 1919.20   4
  -5   0  -6 102565. 5078.01   4
  -5   0  -6 118312. 4518.27   2
  -5   0  -7 18180.1 1887.14   4
  -5   0  -7 18076.5 1400.48   2
  -5   0  -8 821.218 573.438   4
  -5   0  -9 46312.2 3326.57   4
  -5   0 -10 53477.2 3684.95   4
  -5   0 -11 107627. 5785.97   4
  -5   0 -12 5120.23 1341.98   4
  -5   0 -13 39653.3 3517.21   4
   5   1 -10 5713.85 1794.24   5
   5   1  -9 2707.87 1280.40   5
   5   1  -8 17029.8 2607.25   5
   5   1  -7 23018.1 2832.64   5
   5   1  -6 432.471 628.460   5
   5   1  -5 46109.4 3728.32   5
   5   1  -4 29162.9 2826.06   5
   5   1  -3 49814.6 3715.83   5
   5   1  -2 9890.46 1598.57   5
   5   1  -1 133190. 6481.86   5
   5   1   0 8318.11 1474.31   5
   5   1   1 54541.1 3899.54   5
   5   1   2 22340.0 2433.23   5
   5   1   3 34604.4 2992.15   5
  -5  -1  -4 49005.6 3056.59   4
   5   1   4 57421.9 3822.57   5
  -5  -1  -5 368.748 387.507   4
  -5  -1  -6 11174.4 1455.68   4
  -5  -1  -7 2916.44 834.341   4
  -5  -1  -8 158.277 489.850   4
  -5  -1  -9-312.793 550.022   4
  -5  -1 -10 7205.71 1330.11   4
  -5  -1 -11 526.684 572.065   4
  -5  -1 -12 6311.27 1358.57   4
  -5  -1 -13 27291.4 2825.38   4
   5   2 -10 32742.2 3760.60   5
   5   2  -9 8719.09 1970.18   5
   5   2  -8 22738.1 2879.09   5
  -5  -2   8 27782.3 2315.49   3
   5   2  -7-825.286 749.359   5
   5   2  -6 61191.4 4423.84   5
   5   2  -5 1608.42 759.495   5
   5   2  -4 2454.16 877.856   5
   5   2  -3 2547.31 901.270   5
   5   2  -2 1168.53 692.844   5
   5   2  -1 303.386 516.654   5
   5   2   0 9069.59 1504.53   5
   5   2   1 3638.31 957.859   5
   5   2   2 2128.86 804.862   5
   5   2   3 73460.6 4303.96   5
  -5  -2  -4 1082.75 535.158   4
   5   2   4 2976.37 890.765   5
  -5  -2  -5 29006.5 2269.84   4
  -5  -2  -6 5516.81 1009.49   4
  -5  -2  -7 35100.3 2579.00   4
  -5  -2  -8 32963.0 2560.51   4
  -5  -2  -9 627.317 507.269   4
  -5  -2 -10 22031.0 2183.35   4
  -5  -2 -11 9523.59 1510.48   4
  -5  -2 -12 3625.49 1053.41   4
  -5  -2 -13 1980.53 1028.51   4
   5   3 -10 13189.0 2390.29   5
   5   3  -9 1996.49 1143.30   5
  -5  -3   8-223.644 473.989   3
   5   3  -8-145.889 675.226   5
   5   3  -7 36762.2 3451.54   5
  -5  -3   7 36172.4 2731.15   3
   5   3  -6 59450.5 4241.55   5
   5   3  -5 7641.66 1498.03   5
   5   3  -4 14640.9 1941.63   5
   5   3  -3 8057.30 1432.87   5
   5   3  -2 74124.9 4381.72   5
   5   3  -1 2097.98 734.393   5
   5   3   0 49519.8 3441.81   5
   5   3   1 28931.7 2588.35   5
   5   3   2 1104.71 573.191   5
   5   3   3 31843.2 2542.96   5
  -5  -3  -4 251.611 350.474   4
  -5  -3  -5 11819.9 1415.80   4
  -5  -3  -6 454.325 486.954   4
  -5  -3  -7 53631.9 3237.89   4
  -5  -3  -8 142.325 435.346   4
  -5  -3  -9 41403.3 2882.06   4
  -5  -3 -10 52054.5 3397.96   4
  -5  -3 -11 17237.9 1951.75   4
  -5  -3 -12 5820.47 1267.55   4
  -5  -3 -13 8812.08 1623.57   4
   5   4 -10-592.294 987.600   5
   5   4  -9 11992.0 2046.42   5
  -5  -4   8 1909.59 774.078   3
   5   4  -8 1755.93 882.598   5
  -5  -4   7 1565.81 727.562   3
   5   4  -7 2313.37 918.168   5
  -5  -4   6 5039.87 1029.18   3
   5   4  -6 3623.86 1102.16   5
  -5  -4   5 1018.27 561.454   3
   5   4  -5 638.086 573.382   5
   5   4  -4 66782.0 4175.22   5
   5   4  -3 32798.6 2737.40   5
   5   4  -2 22567.3 2212.04   5
   5   4  -1 20811.5 2079.10   5
   5   4   0 116862. 5568.83   5
   5   4   1-1324.00 647.510   5
   5   4   2 84846.7 4364.05   5
  -5  -4  -3 24126.8 1945.99   4
   5   4   3 24654.8 2104.38   5
  -5  -4  -4 81211.9 3965.53   4
  -5  -4  -5 3835.17 809.016   4
  -5  -4  -6 38471.0 2590.18   4
  -5  -4  -7 46065.7 2913.40   4
  -5  -4  -8-283.142 482.146   4
  -5  -4  -9 6349.01 1136.87   4
  -5  -4 -10 3849.97 1000.01   4
  -5  -4 -11 2922.27 936.201   4
  -5  -4 -12 739.223 681.829   4
  -5  -4 -13 7393.80 1437.70   4
   5   5 -10 32111.8 3399.76   5
   5   5  -9 45911.7 3928.34   5
   5   5  -8 30792.5 3078.74   5
  -5  -5   8 33316.0 2874.98   3
   5   5  -7 38348.3 3256.78   5
  -5  -5   7 38308.3 3024.85   3
  -5  -5   6 6470.50 1220.35   3
   5   5  -6 7724.28 1418.97   5
   5   5  -5 50257.0 3502.85   5
  -5  -5   5 49957.6 3324.17   3
  -5  -5   4 95.2760 508.986   3
   5   5  -4 857.890 570.945   5
   5   5  -3 48660.7 3298.81   5
   5   5  -2 8718.96 1353.64   5
   5   5  -1 20946.0 2014.18   5
   5   5   0 2596.26 726.540   5
   5   5   1-55.1997 499.293   5
   5   5   2 763.999 462.746   5
  -5  -5  -3 5930.88 959.323   4
  -5  -5  -4 11990.1 1345.07   4
  -5  -5  -5 456.713 456.519   4
  -5  -5  -6 15807.7 1578.52   4
  -5  -5  -7 3147.39 726.826   4
  -5  -5  -8 43571.9 2819.48   4
  -5  -5  -9 223.110 429.721   4
  -5  -5 -10 22887.1 2134.37   4
  -5  -5 -11 20680.1 2065.88   4
  -5  -5 -12 1624.22 760.231   4
  -5  -5 -13 14908.4 1933.90   4
   5   6  -9 862.498 792.576   5
  -5  -6   8 6331.71 1328.07   3
   5   6  -8 6121.82 1353.81   5
  -5  -6   7 2827.60 1022.19   3
   5   6  -7 3186.95 979.655   5
  -5  -6   6 1320.90 682.918   3
   5   6  -6 167.223 502.584   5
  -5  -6   5 3893.03 973.159   3
   5   6  -5 4796.53 1090.28   5
   5   6  -4 51373.2 3343.78   5
  -5  -6   4 46290.3 3274.70   3
   5   6  -3 38413.3 2761.40   5
  -5  -6   3 36781.7 2800.76   3
  -5  -6   2 1052.28 530.095   3
   5   6  -2 666.106 504.241   5
   5   6  -1 25596.9 2108.45   5
   5   6   0 4405.61 882.344   5
   5   6   1 14826.2 1459.20   5
  -5  -6  -2 6146.88 965.559   4
   5   6   2 5538.81 917.889   5
  -5  -6  -3 96866.3 4337.73   4
  -5  -6  -4 103.029 385.411   4
  -5  -6  -5 11897.0 1341.92   4
  -5  -6  -6 2483.52 736.784   4
  -5  -6  -7 6686.50 1050.09   4
  -5  -6  -8 927.041 514.527   4
  -5  -6  -9 9428.39 1274.56   4
  -5  -6 -10 11282.5 1474.33   4
  -5  -6 -11 17084.4 1851.63   4
  -5  -6 -12 69198.2 4075.06   4
  -5  -6 -13 4823.56 1171.26   4
  -5  -7   8 16386.1 2191.18   3
  -5  -7   7 15596.5 2066.98   3
  -5  -7   6 823.096 604.940   3
  -5  -7   5 4031.55 1109.96   3
  -5  -7   4 1615.16 718.275   3
   5   7  -4 3045.35 804.435   5
  -5  -7   3 1092.78 636.960   3
   5   7  -3 894.863 542.759   5
   5   7  -2 14180.7 1489.62   5
  -5  -7   2 13850.3 1706.78   3
   5   7  -1 13455.0 1442.91   5
  -5  -7   1 13024.0 1629.79   3
  -5  -7   0 2542.93 774.717   3
   5   7   0 2552.21 594.917   5
   5   7   1 30859.1 1975.24   5
  -5  -7  -1 30583.0 2496.31   3
  -5  -7  -2 53605.9 2916.18   4
  -5  -7  -3 57046.6 2991.27   4
  -5  -7  -4 1455.61 471.508   4
  -5  -7  -5 81256.4 3782.53   4
  -5  -7  -6 4189.59 797.199   4
  -5  -7  -7 68930.7 3470.52   4
  -5  -7  -8 13186.6 1419.18   4
  -5  -7  -9 41740.7 2714.37   4
  -5  -7 -10 22671.3 2010.02   4
  -5  -7 -11 386.849 582.976   4
  -5  -7 -11 1283.59 639.235   3
  -5  -7 -12 3543.71 978.374   4
  -5  -8   7 53790.8 4193.21   3
  -5  -8   6 23438.3 2621.83   3
  -5  -8   5 20496.5 2364.34   3
  -5  -8   4 38794.8 3177.58   3
  -5  -8   3 35236.3 2974.55   3
  -5  -8   2 40114.2 3115.60   3
  -5  -8   1-15.9110 469.719   3
  -5  -8   0 42244.2 3087.07   3
  -5  -8  -1 1408.34 732.816   3
  -5  -8  -1 421.721 399.350   4
  -5  -8  -2 8089.11 986.578   4
  -5  -8  -2 9629.86 1458.93   3
  -5  -8  -3 909.107 573.773   3
  -5  -8  -3 269.939 323.689   4
  -5  -8  -4 8007.94 978.044   4
  -5  -8  -4 7844.79 1282.33   3
  -5  -8  -5 326.027 454.588   3
  -5  -8  -5 833.559 456.311   4
  -5  -8  -6 11614.5 1234.16   4
  -5  -8  -6 10958.8 1577.34   3
  -5  -8  -7 3803.09 1031.28   3
  -5  -8  -8-668.288 589.935   3
  -5  -8  -9 16423.0 1941.69   3
  -5  -8 -10 1516.65 749.837   3
  -5  -8 -11 20895.4 2200.03   3
  -5  -9   4 6467.88 1399.04   3
  -5  -9   3 931.341 748.875   3
  -5  -9   2 411.123 697.670   3
  -5  -9   1 21825.4 2302.60   3
  -5  -9   0 80477.2 4655.41   3
  -5  -9  -1 4349.65 1089.57   3
  -5  -9  -2 5901.34 1204.45   3
  -5  -9  -3 447.174 601.882   3
  -5  -9  -4 42494.4 3222.62   3
  -5  -9  -5 2.83997 528.314   3
  -5  -9  -6 17671.5 2075.92   3
  -5  -9  -7 10450.4 1622.49   3
  -5  -9  -8 3221.24 1016.51   3
  -5  -9  -9 13256.0 1849.29   3
  -5  -9 -10 1913.66 713.997   3
  -5 -10   0 3977.43 1071.70   3
  -5 -10  -1 3051.04 990.867   3
  -5 -10  -2 13299.5 1830.20   3
  -5 -10  -3 7761.93 1506.80   3
  -5 -10  -4 7896.29 1437.62   3
  -5 -10  -5 26266.0 2654.74   3
  -5 -10  -6 55435.6 3936.10   3
  -5 -10  -7 1340.60 862.005   3
  -5 -10  -8 29987.5 2899.52   3
  -5 -10  -9 1299.85 744.349   3
  -6   9   0-373.299 746.356   4
   6  -9   0 1559.30 863.127   5
  -6   9  -1 11196.1 1637.85   4
   6  -9   1 10175.9 2055.22   5
  -6   9  -2 3812.62 916.076   4
   6  -9   2 4151.54 1410.98   5
  -6   9  -3-951.468 765.073   4
  -6   9  -4-584.462 756.025   4
  -6   9  -5 4471.17 1015.06   4
  -6   9  -6 3602.67 927.716   4
   6  -8  -2 4222.16 1435.81   5
   6  -8  -1 2104.73 1163.56   5
   6  -8   0 2277.55 1157.49   5
  -6   8  -1 44312.3 3311.14   4
   6  -8   1 41029.4 4017.69   5
  -6   8  -2 11575.4 1638.82   4
   6  -8   2 11563.4 2119.73   5
  -6   8  -3 23821.4 2274.59   4
   6  -8   3 17620.8 2649.31   5
  -6   8  -4-937.055 738.893   4
  -6   8  -5 54387.6 3566.92   4
  -6   8  -6-246.995 591.885   4
  -6   8  -7 20099.1 2088.81   4
  -6   8  -8 20851.1 2136.78   4
   6  -7  -4 19636.6 3035.13   5
   6  -7  -3 4896.45 1606.21   5
   6  -7  -2 30983.7 3703.12   5
   6  -7  -1 927.443 1014.34   5
   6  -7   0 8442.81 2023.18   5
   6  -7   1-92.9122 781.314   5
  -6   7  -2 7669.92 1375.60   4
   6  -7   2 9724.69 2064.00   5
  -6   7  -3 4373.16 1072.34   4
   6  -7   3 4877.53 1545.20   5
  -6   7  -4 254.322 573.592   4
  -6   7  -5 5757.25 1167.59   4
  -6   7  -6 249.474 533.949   4
  -6   7  -7 5743.76 1216.55   4
  -6   7  -8 1234.80 744.042   4
  -6   7  -9 11077.3 1666.67   4
   6  -6  -5 1781.04 1137.34   5
   6  -6  -4 1868.59 1065.06   5
   6  -6  -3 14384.1 2545.64   5
   6  -6  -2 17302.9 2712.49   5
   6  -6  -1-184.777 1039.95   5
   6  -6   0 3944.66 1404.12   5
   6  -6   1 11327.1 2186.96   5
  -6   6  -2 51137.8 3520.53   4
   6  -6   2 41652.8 4098.85   5
  -6   6  -3 553.623 690.505   4
   6  -6   3 272.110 925.208   5
  -6   6  -4 28819.0 2544.56   4
   6  -6   4 24578.9 3119.35   5
  -6   6  -5 703.458 625.067   4
  -6   6  -6 1115.66 705.241   4
  -6   6  -7 326.500 789.527   4
  -6   6  -8 20626.3 2261.26   4
  -6   6  -9 4631.37 1172.53   4
  -6   6 -10 8398.25 1521.76   4
   6  -5  -5 13515.5 2457.98   5
   6  -5  -4 1701.17 1273.44   5
   6  -5  -3 14262.3 2406.88   5
   6  -5  -2 3228.22 1238.89   5
   6  -5  -1 3616.40 1366.13   5
   6  -5   0 1703.38 1237.38   5
   6  -5   1 752.526 861.963   5
   6  -5   2-931.503 922.667   5
  -6   5  -3 28923.7 2551.69   4
   6  -5   3 29879.3 3414.39   5
  -6   5  -4 14764.9 1817.76   4
   6  -5   4 15407.6 2542.57   5
  -6   5  -5-308.002 540.193   4
  -6   5  -6 53950.5 3629.51   4
  -6   5  -7 22892.1 2337.41   4
  -6   5  -8 25675.3 2519.73   4
  -6   5  -9-29.2702 622.552   4
  -6   5 -10 43011.3 3417.55   4
   6  -4  -6 40996.5 4204.40   5
   6  -4  -5 2968.64 1299.53   5
   6  -4  -4 46706.4 4337.98   5
   6  -4  -3 130.806 826.294   5
   6  -4  -2 35676.0 3750.60   5
   6  -4  -1 28444.5 3379.03   5
   6  -4   0 13051.2 2305.83   5
   6  -4   1 44118.4 4221.44   5
   6  -4   2 5363.52 1543.48   5
  -6   4  -3 15103.0 1849.59   4
   6  -4   3 16630.0 2521.57   5
  -6   4  -4 2154.63 825.819   4
   6  -4   4 2660.45 1160.98   5
  -6   4  -5 16744.2 1928.67   4
  -6   4  -6 819.477 644.656   4
  -6   4  -7 216.023 607.104   4
  -6   4  -8 377.792 670.338   4
  -6   4  -9 1730.51 809.471   4
  -6   4 -10 7261.60 1446.82   4
  -6   4 -11 5860.76 1405.98   4
   6  -3  -6 1678.73 1175.87   5
   6  -3  -5 3719.62 1476.86   5
   6  -3  -4 1077.87 851.249   5
   6  -3  -3 4000.92 1319.53   5
   6  -3  -2-49.0728 668.486   5
   6  -3  -1 216.947 795.325   5
   6  -3   0 33216.7 3592.84   5
   6  -3   1 15489.8 2534.90   5
   6  -3   2 980.019 856.424   5
  -6   3  -3 6939.20 1249.02   4
   6  -3   3 9272.86 1943.47   5
  -6   3  -4 16591.3 1871.08   4
   6  -3   4 16515.5 2485.28   5
  -6   3  -5 54244.3 3566.89   4
  -6   3  -6 4014.83 1002.80   4
  -6   3  -7 27491.2 2532.72   4
  -6   3  -8 2847.95 955.699   4
  -6   3  -9 2937.58 1026.36   4
  -6   3 -10-670.975 645.238   4
  -6   3 -11 10667.6 1736.59   4
   6  -2  -7 24409.5 3477.79   5
   6  -2  -6 10118.1 2173.59   5
   6  -2  -5 42272.2 4167.35   5
   6  -2  -4-320.785 754.210   5
   6  -2  -3 3946.78 1345.72   5
   6  -2  -2 38863.6 3824.90   5
   6  -2  -1 3486.33 1155.50   5
   6  -2   0 3933.13 1351.71   5
   6  -2   1-142.491 698.518   5
   6  -2   2 439.514 773.454   5
   6  -2   3 2927.77 1063.74   5
  -6   2  -4 11956.8 1572.43   4
   6  -2   4 14350.3 2275.40   5
  -6   2  -5 7152.41 1284.39   4
  -6   2  -6 11888.8 1606.26   4
  -6   2  -7 41969.1 3130.74   4
  -6   2  -8 11480.2 1688.62   4
  -6   2  -9 24373.9 2448.55   4
  -6   2 -10 6561.36 1315.27   4
  -6   2 -11 70497.9 4562.17   4
   6  -1  -7 762.489 1020.10   5
   6  -1  -6 8050.86 1827.79   5
   6  -1  -5 2138.85 1089.08   5
   6  -1  -4 997.795 769.824   5
   6  -1  -3 58720.2 4662.04   5
   6  -1  -2 324.130 780.522   5
   6  -1  -1 49673.2 4235.35   5
   6  -1   0-42.8095 804.098   5
   6  -1   1 61322.4 4829.26   5
   6  -1   2 38096.5 3713.16   5
   6  -1   3 8298.96 1721.83   5
  -6   1  -4 35085.4 2671.79   4
   6  -1   4 32890.9 3362.96   5
  -6   1  -5 8577.49 1351.15   4
  -6   1  -6 38372.0 2883.33   4
  -6   1  -7 4798.11 1050.94   4
  -6   1  -8 6004.46 1230.32   4
  -6   1  -9 4961.06 1147.64   4
  -6   1 -10 29.3828 589.627   4
  -6   1 -11 5792.72 1320.54   4
   6   0  -7 7500.36 1904.10   5
   6   0  -6 74611.2 5648.68   5
   6   0  -5 5797.29 1643.70   5
   6   0  -4 6195.02 1560.18   5
   6   0  -3-567.604 712.460   5
   6   0  -2 2307.88 1026.60   5
   6   0  -1 6142.26 1545.08   5
   6   0   0 1484.31 821.116   5
   6   0   1 460.420 797.161   5
   6   0   2 474.952 764.980   5
   6   0   3 43220.7 3756.18   5
  -6   0  -4 15783.4 1748.84   4
   6   0   4 17665.0 2355.29   5
  -6   0  -5 1718.46 687.461   4
  -6   0  -6 2395.97 792.055   4
  -6   0  -7 31064.9 2575.40   4
  -6   0  -8 53456.3 3570.21   4
  -6   0  -9 148.661 487.755   4
  -6   0 -10 26159.6 2512.59   4
  -6   0 -11 602.407 565.426   4
  -6   0 -12 3557.42 1065.03   4
   6   1  -7 13252.5 2438.09   5
   6   1  -6 9904.62 2006.64   5
   6   1  -5 4483.88 1547.07   5
   6   1  -4 67929.9 5044.12   5
   6   1  -3 2206.04 1003.29   5
   6   1  -2 16098.3 2308.81   5
   6   1  -1 4382.77 1270.90   5
   6   1   0 49680.5 4119.91   5
   6   1   1 12486.8 2047.26   5
   6   1   2 6426.82 1523.71   5
   6   1   3 26113.7 2801.81   5
  -6  -1  -4 9829.11 1334.52   4
   6   1   4 7767.60 1539.58   5
  -6  -1  -5 2069.17 701.953   4
  -6  -1  -6 624.820 533.907   4
  -6  -1  -7 100.750 408.577   4
  -6  -1  -8-56.8318 602.343   4
  -6  -1  -9 37808.5 2957.66   4
  -6  -1 -10 6556.38 1306.55   4
  -6  -1 -11 897.036 840.028   4
  -6  -1 -12 30794.3 2835.40   4
   6   2  -8 9606.34 2225.14   5
   6   2  -7 5771.68 1593.96   5
   6   2  -6 2085.42 1010.90   5
   6   2  -5-227.797 737.979   5
   6   2  -4 471.637 672.896   5
   6   2  -3 7739.60 1663.69   5
   6   2  -2 1933.86 965.234   5
   6   2  -1 9387.22 1779.75   5
   6   2   0 31132.2 3147.72   5
   6   2   1 3.62911 688.310   5
   6   2   2 66153.3 4558.37   5
   6   2   3 1961.08 883.592   5
  -6  -2  -4 69512.4 3881.51   4
   6   2   4 77777.1 4726.25   5
  -6  -2  -5 15032.6 1675.88   4
  -6  -2  -6 13545.0 1612.30   4
  -6  -2  -7 46068.9 3121.88   4
  -6  -2  -8 18657.5 1966.77   4
  -6  -2  -9 23070.1 2216.38   4
  -6  -2 -10 4962.56 1101.26   4
  -6  -2 -11 15947.9 1919.29   4
  -6  -2 -12 1099.78 597.776   4
   6   3  -8 20888.7 2968.67   5
   6   3  -7 44750.6 4143.35   5
  -6  -3   7 38849.5 3055.37   3
   6   3  -6 6994.70 1617.21   5
   6   3  -5 32523.0 3324.13   5
   6   3  -4 6182.22 1435.12   5
   6   3  -3 120437. 6580.24   5
   6   3  -2 5793.03 1312.44   5
   6   3  -1 4080.82 1166.62   5
   6   3   0 1291.18 702.169   5
   6   3   1 12942.4 1884.68   5
   6   3   2 12339.8 1742.55   5
  -6  -3  -3 2117.24 654.357   4
   6   3   3 1942.76 731.297   5
  -6  -3  -4 401.284 417.716   4
  -6  -3  -5 315.288 436.109   4
  -6  -3  -6 26933.2 2258.82   4
  -6  -3  -7 16600.4 1771.34   4
  -6  -3  -8 5617.50 1083.66   4
  -6  -3  -9 1108.23 688.994   4
  -6  -3 -10 15288.7 1781.47   4
  -6  -3 -11 58224.9 3751.92   4
  -6  -3 -12-414.989 578.266   4
   6   4  -8 5340.42 1535.06   5
   6   4  -7 19425.8 2631.27   5
  -6  -4   7 17035.2 2049.19   3
  -6  -4   6 2257.85 922.658   3
   6   4  -6 1807.66 986.274   5
   6   4  -5 3025.40 1121.07   5
   6   4  -4 28.1336 577.057   5
   6   4  -3 37107.9 3278.76   5
   6   4  -2 7372.90 1469.23   5
   6   4  -1 28001.2 2806.17   5
   6   4   0 25883.9 2646.76   5
   6   4   1 56809.2 3934.30   5
   6   4   2-63.5778 613.443   5
  -6  -4  -3 15968.6 1681.18   4
   6   4   3 14847.5 1812.71   5
  -6  -4  -4 37299.3 2645.31   4
  -6  -4  -5 2457.67 766.636   4
  -6  -4  -6 2707.80 749.245   4
  -6  -4  -7 213.802 422.499   4
  -6  -4  -8 12512.3 1550.58   4
  -6  -4  -9 3905.02 1021.10   4
  -6  -4 -10 15958.1 1819.93   4
  -6  -4 -11 3797.56 961.401   4
  -6  -4 -12 6986.25 1349.07   4
  -6  -5   7 1674.23 850.246   3
   6   5  -7 714.213 882.138   5
   6   5  -6 35695.3 3307.06   5
  -6  -5   6 33057.2 2901.59   3
  -6  -5   5 3261.77 950.469   3
   6   5  -5 4997.24 1285.33   5
  -6  -5   4 7370.93 1308.25   3
   6   5  -4 6184.30 1339.46   5
   6   5  -3-3.14825 446.816   5
   6   5  -2 1845.13 781.792   5
   6   5  -1 190.616 543.388   5
   6   5   0 16149.0 1989.09   5
   6   5   1 1801.21 756.577   5
   6   5   2 6027.97 1133.05   5
  -6  -5  -3 19090.0 1813.94   4
  -6  -5  -4 296.562 461.835   4
  -6  -5  -5 54140.6 3238.33   4
  -6  -5  -6 876.287 567.888   4
  -6  -5  -7 61351.1 3560.00   4
  -6  -5  -8 9828.33 1366.94   4
  -6  -5  -9 21376.2 2041.12   4
  -6  -5 -10 21950.4 2130.70   4
  -6  -5 -11 12552.9 1668.13   4
  -6  -6   6 31157.4 2909.61   3
   6   6  -5 32735.7 2960.49   5
  -6  -6   5 29766.7 2742.29   3
  -6  -6   4 10080.9 1550.41   3
   6   6  -4 14526.2 1966.55   5
  -6  -6   3 8518.31 1404.22   3
   6   6  -3 8002.27 1425.68   5
  -6  -6   2 32821.6 2715.29   3
   6   6  -2 37941.3 3003.60   5
   6   6  -1 8042.52 1364.56   5
   6   6   0 68996.9 3994.89   5
   6   6   1 5818.45 1039.66   5
  -6  -6  -2 5471.59 965.691   4
   6   6   2 5594.63 979.884   5
  -6  -6  -3 3704.71 835.594   4
  -6  -6  -4 12123.2 1423.09   4
  -6  -6  -5 4245.74 915.232   4
  -6  -6  -6 174.886 463.468   4
  -6  -6  -7 1040.28 666.429   4
  -6  -6  -8 4199.45 948.673   4
  -6  -6  -9 26395.1 2239.51   4
  -6  -6 -10 8080.70 1291.39   4
  -6  -6 -11 4397.90 992.544   4
  -6  -7   4 7140.36 1383.72   3
  -6  -7   3 3044.91 886.316   3
  -6  -7   2 13217.0 1742.38   3
  -6  -7   1 19470.9 2101.82   3
  -6  -7   0 16424.4 1912.10   3
  -6  -7  -2 50229.9 2998.93   4
  -6  -7  -3-16.9365 463.527   4
  -6  -7  -4 27133.6 2085.17   4
  -6  -7  -5 9177.72 1157.63   4
  -6  -7  -6 60003.9 3338.45   4
  -6  -7  -7 3561.80 845.641   4
  -6  -7  -8 1808.13 645.897   4
  -6  -7  -9 15391.9 1660.76   4
  -6  -7 -10 7821.74 1259.99   4
  -6  -8   0 785.194 750.779   3
  -6  -8  -1 4964.53 1137.23   3
  -6  -8  -2 741.403 603.039   3
  -6  -8  -3 6959.82 1305.19   3
  -6  -8  -4-389.543 529.696   3
  -6  -8  -5 7098.53 1393.95   3
  -6  -8  -6 10876.1 1714.07   3
  -6  -8  -7 723.903 781.765   3
  -6  -8  -8 19736.7 2280.81   3
  -7   6  -2-1540.97 912.286   4
  -7   6  -3 6555.71 1443.58   4
  -7   6  -4 3690.15 996.148   4
  -7   6  -5 24232.3 2506.63   4
   7  -5   1 3394.51 1604.47   5
  -7   5  -2-913.147 705.715   4
   7  -5   2-414.397 1066.52   5
  -7   5  -3 21948.4 2343.89   4
   7  -5   3 26346.2 3472.99   5
  -7   5  -4 4433.55 1112.50   4
   7  -5   4 5994.12 1679.76   5
  -7   5  -5 14262.2 1925.46   4
  -7   5  -6 301.936 627.858   4
   7  -4  -1 1462.88 1213.98   5
   7  -4   0 23805.6 3443.71   5
   7  -4   1 3398.46 1457.70   5
   7  -4   2 3099.10 1448.75   5
  -7   4  -3 7477.87 1383.53   4
   7  -4   3 6637.57 1815.72   5
  -7   4  -4 2575.45 917.469   4
   7  -4   4-365.203 870.546   5
  -7   4  -5 393.007 599.184   4
  -7   4  -6 2177.79 803.026   4
  -7   4  -7 769.581 783.341   4
   7  -3  -2-1849.99 1180.14   5
   7  -3  -1 4774.70 1706.62   5
   7  -3   0-1576.00 1217.97   5
   7  -3   1 24085.6 3389.10   5
   7  -3   2 18618.1 2914.52   5
  -7   3  -3 14841.4 1875.20   4
   7  -3   3 15492.9 2707.70   5
  -7   3  -4 37576.6 2988.22   4
   7  -3   4 33439.8 3873.38   5
  -7   3  -5 2714.31 942.130   4
  -7   3  -6 2419.31 861.778   4
  -7   3  -7 1238.06 742.609   4
   7  -2  -3 5129.28 1584.13   5
   7  -2  -2 4083.93 1535.12   5
   7  -2  -1 2282.95 1336.87   5
   7  -2   0 17248.7 2844.71   5
   7  -2   1-507.161 1202.56   5
   7  -2   2-2254.14 1189.85   5
  -7   2  -3 1973.07 751.150   4
   7  -2   3 2577.89 1617.79   5
  -7   2  -4 12359.2 1661.90   4
   7  -2   4 12751.8 2387.38   5
  -7   2  -5 1254.20 752.296   4
  -7   2  -6 10027.2 1509.89   4
  -7   2  -7 3533.18 996.345   4
  -7   2  -8 37717.7 3050.07   4
   7  -1  -3 4140.64 1614.99   5
   7  -1  -2 53094.6 4981.91   5
   7  -1  -1 7201.01 1893.16   5
   7  -1   0 2675.80 1276.13   5
   7  -1   1 52581.0 4825.91   5
   7  -1   2 13995.6 2453.54   5
  -7   1  -3 15462.4 1835.53   4
   7  -1   3 14580.2 2432.77   5
  -7   1  -4 394.328 584.294   4
   7  -1   4-147.020 1029.58   5
  -7   1  -5 19598.5 2077.08   4
  -7   1  -6 1456.78 622.623   4
  -7   1  -7 440.295 568.215   4
  -7   1  -8 2548.32 879.738   4
   7   0  -4 10499.1 2266.45   5
   7   0  -3 4181.89 1520.14   5
   7   0  -2 6909.98 1750.63   5
   7   0  -1 6256.05 1786.64   5
   7   0   0 19054.3 2930.19   5
   7   0   1 447.987 908.639   5
   7   0   2 6904.22 1726.54   5
  -7   0  -3 2966.01 803.497   4
   7   0   3 5836.15 1644.96   5
  -7   0  -4 19716.4 2002.50   4
   7   0   4 22901.6 2985.73   5
  -7   0  -5 19026.5 1991.31   4
  -7   0  -6 18670.4 2008.49   4
  -7   0  -7 28226.7 2511.30   4
  -7   0  -8 2832.98 898.641   4
   7   1  -4 1684.95 986.095   5
   7   1  -3 47980.6 4625.01   5
   7   1  -2 2264.14 1195.50   5
   7   1  -1 6314.01 1688.07   5
   7   1   0 6246.09 1855.82   5
   7   1   1 12019.7 2251.81   5
   7   1   2-125.372 938.951   5
  -7  -1  -3 6958.24 1244.29   4
   7   1   3 5402.67 1522.57   5
  -7  -1  -4 636.963 473.913   4
   7   1   4 63.8268 758.394   5
  -7  -1  -5 1473.08 679.291   4
  -7  -1  -6 18345.2 1968.57   4
  -7  -1  -7 3721.71 970.465   4
  -7  -1  -8 508.624 642.957   4
  -7  -1  -9 21475.1 2248.11   4
   7   2  -4 4787.99 1553.30   5
   7   2  -3 6719.02 1836.75   5
   7   2  -2 1704.36 935.503   5
   7   2  -1 42553.6 4157.03   5
   7   2   0 433.640 952.763   5
   7   2   1 30012.9 3343.53   5
   7   2   2 22429.2 2762.97   5
  -7  -2  -3 28003.2 2405.19   4
   7   2   3 27293.6 3012.38   5
  -7  -2  -4 22020.1 2097.30   4
   7   2   4 20127.8 2569.37   5
  -7  -2  -5 3247.62 875.944   4
  -7  -2  -6 36711.8 2800.56   4
  -7  -2  -7 13981.2 1739.41   4
  -7  -2  -8 7769.54 1378.83   4
  -7  -2  -9 4270.85 1055.74   4
   7   3  -4 14162.9 2441.86   5
   7   3  -3 1234.83 944.220   5
   7   3  -2 10437.4 1996.73   5
   7   3  -1 4904.74 1525.03   5
   7   3   0 1028.83 903.675   5
   7   3   1 7561.01 1685.02   5
   7   3   2 1880.05 906.851   5
  -7  -3  -3 16930.0 1846.82   4
   7   3   3 17610.0 2264.70   5
  -7  -3  -4 449.359 490.154   4
  -7  -3  -5 3056.84 799.822   4
  -7  -3  -6 711.807 507.763   4
  -7  -3  -7 20766.2 2063.51   4
  -7  -3  -8 9377.45 1447.76   4
  -7  -3  -9 7899.60 1335.99   4
   7   4  -5 8853.74 1882.42   5
   7   4  -4 8525.71 1763.01   5
   7   4  -3 806.267 775.239   5
   7   4  -2 18207.7 2543.79   5
   7   4  -1 2380.94 1084.93   5
   7   4   0 45354.8 3868.35   5
   7   4   1 690.582 770.182   5
   7   4   2 8871.45 1582.14   5
  -7  -4  -3 1158.41 661.652   4
   7   4   3 1027.77 600.362   5
  -7  -4  -4 3685.45 863.727   4
  -7  -4  -5 7990.37 1263.80   4
  -7  -4  -6 9605.81 1415.97   4
  -7  -4  -7 529.308 530.732   4
  -7  -4  -8 197.504 460.497   4
   7   5  -3 3991.70 1328.86   5
   7   5  -2 1630.19 1052.90   5
   7   5  -1 1778.48 1013.71   5
   7   5   0 17899.9 2256.64   5
   7   5   1 2224.92 842.588   5
  -7  -5  -2 11180.7 1487.20   4
   7   5   2 12285.3 1751.84   5
  -7  -5  -3 63.4125 568.112   4
  -7  -5  -4 71424.5 3961.39   4
  -7  -5  -5 2661.15 842.791   4
  -7  -5  -6 19751.8 1947.74   4
  -7  -5  -7 26138.4 2292.85   4
  -7  -5  -8 19337.5 1969.97   4
  -7  -6  -2 9899.54 1343.35   4
  -7  -6  -3 1236.74 672.224   4
  -7  -6  -4 1770.16 676.527   4
  -7  -6  -5 2665.20 767.593   4
  -7  -6  -6 4848.12 1008.38   4
  -7  -6  -7 4485.94 1002.56   4
  -7  -6  -8 3449.76 948.739   4
  -7  -7  -1 11334.1 1513.80   4
  -7  -7  -2 34.6963 601.032   4
  -7  -7  -3 46928.2 3027.85   4
  -7  -7  -4-1202.91 670.207   4
   8   2   3 13970.9 2467.40   5
   8   3   2 6451.39 1743.25   5
   8   3   3 1391.58 821.382   5
   0   0   0    0.00    0.00   0
;
_shelx_hkl_checksum              40937
_olex2_submission_special_instructions 'No special instructions were received'
_oxdiff_exptl_absorpt_empirical_details
;
Empirical correction (ABSPACK) includes:
- Absorption correction using spherical harmonics
- Frame scaling
;
_oxdiff_exptl_absorpt_empirical_full_max 1.816
_oxdiff_exptl_absorpt_empirical_full_min 0.546
loop_
_space_group_symop_operation_xyz
'x, y, z'
'-x, -y, -z'
loop_
_atom_site_label
_atom_site_type_symbol
_atom_site_fract_x
_atom_site_fract_y
_atom_site_fract_z
_atom_site_U_iso_or_equiv
_atom_site_adp_type
_atom_site_occupancy
_atom_site_site_symmetry_order
_atom_site_calc_flag
_atom_site_refinement_flags_posn
_atom_site_refinement_flags_adp
_atom_site_refinement_flags_occupancy
_atom_site_disorder_assembly
_atom_site_disorder_group
U1 U 1.26111(7) 0.91659(3) 0.25246(3) 0.00704(9) Uani 1 1 d . . . . .
Pb1 Pb 0.17143(7) 0.31142(3) 0.19430(3) 0.01116(10) Uani 1 1 d . . . . .
Se1 Se 1.28787(18) 0.88927(7) -0.04631(7) 0.00750(19) Uani 1 1 d . . . . .
Se2 Se 1.22549(19) 1.16949(8) 0.48721(8) 0.0121(2) Uani 1 1 d . . . . .
Se3 Se 0.90621(18) 0.62547(8) 0.22086(7) 0.0095(2) Uani 1 1 d . . . . .
Cu1 Cu 1.000000 0.500000 0.500000 0.0085(3) Uani 1 2 d S . P . .
Cu2 Cu 0.7077(2) 0.44319(9) 0.04616(9) 0.0085(2) Uani 1 1 d . . . . .
Cu3 Cu 0.5640(2) 0.42406(10) 0.38465(9) 0.0102(2) Uani 1 1 d . . . . .
O1 O 1.5216(13) 0.8660(6) 0.3052(6) 0.0170(15) Uani 1 1 d . . . . .
O2 O 1.0012(13) 0.9664(6) 0.1949(6) 0.0157(15) Uani 1 1 d . . . . .
O3 O 1.4456(12) 0.8661(5) 0.0623(5) 0.0084(9) Uani 1 1 d . . . . .
O4 O 1.1579(12) 0.7384(5) -0.0571(5) 0.0103(14) Uani 1 1 d . . . . .
O5 O 1.5187(13) 0.8863(5) -0.1627(5) 0.0125(15) Uani 1 1 d . . . . .
O6 O 1.1562(14) 1.1006(5) 0.3686(5) 0.0162(11) Uani 1 1 d . . . . .
O7 O 1.2388(14) 1.3318(5) 0.4415(5) 0.0162(11) Uani 1 1 d . . . . .
O8 O 0.9574(14) 1.1706(6) 0.5747(6) 0.0192(16) Uani 1 1 d . . . . .
O9 O 1.1800(12) 0.6911(5) 0.2222(5) 0.0084(9) Uani 1 1 d . . . . .
O10 O 0.8876(12) 0.5137(5) 0.3319(5) 0.0109(10) Uani 1 1 d . . . . .
O11 O 0.9787(12) 0.5145(5) 0.1141(5) 0.0109(10) Uani 1 1 d . . . . .
O12 O 0.6934(13) 0.4091(5) 0.5252(5) 0.0129(15) Uani 1 1 d D . . . .
H12 H 0.751(19) 0.323(5) 0.538(8) 0.019 Uiso 1 1 d D U . . .
O13 O 0.4723(12) 0.4579(5) 0.2371(5) 0.0114(14) Uani 1 1 d D . . . .
H13 H 0.344(10) 0.519(5) 0.251(7) 0.017 Uiso 1 1 d D U . . .
O14 O 0.4037(12) 0.3833(5) 0.0066(5) 0.0078(13) Uani 1 1 d D . . . .
H14 H 0.406(19) 0.296(4) -0.020(7) 0.012 Uiso 1 1 d D U . . .
O15 O 0.6967(15) 0.2038(6) 0.3408(6) 0.0262(18) Uani 1 1 d . . . . .
H15A H 0.685905 0.183450 0.269848 0.039 Uiso 1 1 d DR U . . .
H15B H 0.853684 0.195750 0.340778 0.039 Uiso 1 1 d R U . . .
loop_
_atom_site_aniso_label
_atom_site_aniso_U_11
_atom_site_aniso_U_22
_atom_site_aniso_U_33
_atom_site_aniso_U_23
_atom_site_aniso_U_13
_atom_site_aniso_U_12
U1 0.0116(2) 0.00647(16) 0.00265(17) 0.00001(11) -0.00019(14) -0.00339(12)
Pb1 0.0132(2) 0.01064(17) 0.00943(19) 0.00153(12) -0.00164(15) -0.00344(13)
Se1 0.0117(5) 0.0068(4) 0.0037(4) 0.0002(3) -0.0005(4) -0.0030(3)
Se2 0.0185(6) 0.0120(4) 0.0054(5) 0.0003(3) -0.0008(4) -0.0039(4)
Se3 0.0127(5) 0.0074(4) 0.0076(5) -0.0022(3) 0.0007(4) -0.0029(3)
Cu1 0.0106(9) 0.0101(7) 0.0045(8) -0.0009(5) -0.0002(7) -0.0036(6)
Cu2 0.0102(6) 0.0071(5) 0.0083(6) 0.0009(4) -0.0025(5) -0.0026(4)
Cu3 0.0124(7) 0.0142(5) 0.0040(5) -0.0008(4) -0.0013(5) -0.0066(4)
O1 0.012(4) 0.023(3) 0.016(4) 0.005(3) -0.002(3) -0.001(3)
O2 0.013(4) 0.014(3) 0.020(4) -0.001(3) -0.002(3) 0.001(3)
O3 0.013(3) 0.009(2) 0.003(2) 0.0005(15) -0.0015(19) -0.0050(17)
O4 0.014(4) 0.008(3) 0.008(3) 0.003(2) 0.000(3) -0.006(2)
O5 0.021(4) 0.011(3) 0.005(3) -0.001(2) -0.001(3) -0.007(3)
O6 0.025(3) 0.012(2) 0.010(2) -0.0018(17) 0.001(2) -0.004(2)
O7 0.025(3) 0.012(2) 0.010(2) -0.0018(17) 0.001(2) -0.004(2)
O8 0.021(5) 0.021(3) 0.012(4) 0.001(3) 0.008(3) -0.002(3)
O9 0.013(3) 0.009(2) 0.003(2) 0.0005(15) -0.0015(19) -0.0050(17)
O10 0.015(3) 0.012(2) 0.004(2) -0.0001(16) 0.003(2) -0.0064(18)
O11 0.015(3) 0.012(2) 0.004(2) -0.0001(16) 0.003(2) -0.0064(18)
O12 0.019(4) 0.009(3) 0.011(3) 0.004(2) -0.002(3) -0.005(3)
O13 0.010(4) 0.011(3) 0.013(3) 0.000(2) -0.001(3) -0.004(3)
O14 0.011(4) 0.009(3) 0.004(3) -0.003(2) -0.002(3) 0.000(2)
O15 0.023(5) 0.034(4) 0.023(4) -0.014(3) -0.007(4) -0.001(3)
loop_
_atom_type_symbol
_atom_type_description
_atom_type_scat_dispersion_real
_atom_type_scat_dispersion_imag
_atom_type_scat_source
Cu Cu 0.3201 1.2651 'International Tables Vol C Tables 4.2.6.8 and 6.1.1.4'
H H 0.0000 0.0000 'International Tables Vol C Tables 4.2.6.8 and 6.1.1.4'
O O 0.0106 0.0060 'International Tables Vol C Tables 4.2.6.8 and 6.1.1.4'
Pb Pb -3.3944 10.1111 'International Tables Vol C Tables 4.2.6.8 and 6.1.1.4'
Se Se -0.0929 2.2259 'International Tables Vol C Tables 4.2.6.8 and 6.1.1.4'
U U -9.6767 9.6646 'International Tables Vol C Tables 4.2.6.8 and 6.1.1.4'
loop_
_exptl_crystal_face_index_h
_exptl_crystal_face_index_k
_exptl_crystal_face_index_l
_exptl_crystal_face_perp_dist
3 -13 5 0.0399
3 2 -14 0.0592
-2 13 -7 0.0239
-4 3 13 0.0446
7 -2 9 0.0377
-2 -13 -4 0.0406
-7 -3 -9 0.0219
0 14 1 0.0073
loop_
_geom_angle_atom_site_label_1
_geom_angle_atom_site_label_2
_geom_angle_atom_site_label_3
_geom_angle
_geom_angle_site_symmetry_1
_geom_angle_site_symmetry_3
O1 U1 O2 178.3(3) . .
O1 U1 O3 91.6(3) . .
O1 U1 O5 89.4(3) . 2_875
O1 U1 O6 98.4(3) . .
O1 U1 O8 85.8(3) . 2_776
O1 U1 O9 89.1(3) . .
O2 U1 O3 86.7(3) . .
O2 U1 O5 90.2(3) . 2_875
O2 U1 O6 82.9(3) . .
O2 U1 O8 95.5(3) . 2_776
O2 U1 O9 90.2(2) . .
O3 U1 O5 70.82(19) . 2_875
O6 U1 O3 140.31(19) . .
O6 U1 O5 71.0(2) . 2_875
O6 U1 O8 74.2(2) . 2_776
O6 U1 O9 145.7(2) . .
O8 U1 O3 145.16(19) 2_776 .
O8 U1 O5 143.7(2) 2_776 2_875
O8 U1 O9 73.1(2) 2_776 .
O9 U1 O3 72.10(19) . .
O9 U1 O5 142.8(2) . 2_875
O5 Pb1 O4 105.52(18) 2_765 2_665
O11 Pb1 O4 63.45(17) 1_455 2_665
O11 Pb1 O5 149.16(19) 1_455 2_765
O13 Pb1 O4 146.88(18) . 2_665
O13 Pb1 O5 91.3(2) . 2_765
O13 Pb1 O11 87.4(2) . 1_455
O13 Pb1 O14 75.2(2) . .
O14 Pb1 O4 79.42(19) . 2_665
O14 Pb1 O5 81.16(19) . 2_765
O14 Pb1 O11 68.7(2) . 1_455
O3 Se1 O5 100.9(3) . .
O4 Se1 O3 104.1(3) . .
O4 Se1 O5 100.4(3) . .
O6 Se2 O7 98.1(3) . .
O8 Se2 O6 102.2(4) . .
O8 Se2 O7 99.5(3) . .
O9 Se3 O10 100.0(3) . .
O9 Se3 O11 100.1(3) . .
O11 Se3 O10 97.3(3) . .
O7 Cu1 O7 180.0 2_776 1_545
O7 Cu1 O10 90.1(2) 1_545 .
O7 Cu1 O10 89.9(2) 1_545 2_766
O7 Cu1 O10 89.9(2) 2_776 .
O7 Cu1 O10 90.1(2) 2_776 2_766
O10 Cu1 O10 180.0 . 2_766
O12 Cu1 O7 99.4(3) . 1_545
O12 Cu1 O7 99.4(3) 2_766 2_776
O12 Cu1 O7 80.6(3) 2_766 1_545
O12 Cu1 O7 80.6(3) . 2_776
O12 Cu1 O10 76.5(2) . .
O12 Cu1 O10 103.5(2) 2_766 .
O12 Cu1 O10 103.5(2) . 2_766
O12 Cu1 O10 76.5(2) 2_766 2_766
O12 Cu1 O12 180.0 . 2_766
O4 Cu2 Cu2 134.51(19) 2_765 2_665
O4 Cu2 O11 88.0(2) 2_765 2_765
O4 Cu2 O11 89.1(2) 2_765 .
O4 Cu2 O13 99.3(2) 2_765 .
O11 Cu2 Cu2 136.34(17) . 2_665
O11 Cu2 Cu2 99.20(17) 2_765 2_665
O11 Cu2 O11 76.0(2) . 2_765
O11 Cu2 O13 159.7(2) 2_765 .
O11 Cu2 O13 85.2(2) . .
O13 Cu2 Cu2 89.18(17) . 2_665
O14 Cu2 Cu2 40.63(18) 2_665 2_665
O14 Cu2 Cu2 41.13(16) . 2_665
O14 Cu2 O4 95.0(2) . 2_765
O14 Cu2 O4 165.4(3) 2_665 2_765
O14 Cu2 O11 169.1(3) . .
O14 Cu2 O11 114.2(2) . 2_765
O14 Cu2 O11 96.7(2) 2_665 .
O14 Cu2 O11 80.5(2) 2_665 2_765
O14 Cu2 O13 84.2(2) . .
O14 Cu2 O13 94.5(2) 2_665 .
O14 Cu2 O14 81.8(2) . 2_665
O7 Cu3 O12 74.4(2) 1_445 2_666
O7 Cu3 O15 83.2(3) 1_445 .
O10 Cu3 O7 178.7(3) . 1_445
O10 Cu3 O12 105.7(2) . 2_666
O10 Cu3 O15 96.5(3) . .
O12 Cu3 O7 98.1(3) . 1_445
O12 Cu3 O10 80.6(3) . .
O12 Cu3 O12 86.6(3) . 2_666
O12 Cu3 O15 89.2(3) . .
O12 Cu3 O15 156.4(2) 2_666 .
O13 Cu3 O7 90.0(3) . 1_445
O13 Cu3 O10 91.3(3) . .
O13 Cu3 O12 93.6(2) . 2_666
O13 Cu3 O12 171.6(3) . .
O13 Cu3 O15 93.8(2) . .
Se1 O3 U1 119.9(3) . .
Se1 O4 Pb1 124.7(3) . 2_665
Se1 O4 Cu2 129.7(4) . 2_765
Cu2 O4 Pb1 99.5(2) 2_765 2_665
U1 O5 Pb1 105.6(3) 2_875 2_765
Se1 O5 U1 124.9(3) . 2_875
Se1 O5 Pb1 121.7(3) . 2_765
Se2 O6 U1 139.8(4) . .
Se2 O7 Cu1 129.9(4) . 1_565
Se2 O7 Cu3 121.0(4) . 1_665
Cu3 O7 Cu1 102.6(2) 1_665 1_565
Se2 O8 U1 144.1(4) . 2_776
Se3 O9 U1 125.8(3) . .
Se3 O10 Cu1 138.0(3) . .
Se3 O10 Cu3 116.7(4) . .
Cu3 O10 Cu1 95.1(2) . .
Se3 O11 Pb1 107.9(3) . 1_655
Se3 O11 Cu2 117.1(4) . .
Se3 O11 Cu2 122.3(3) . 2_765
Cu2 O11 Pb1 105.6(2) . 1_655
Cu2 O11 Pb1 97.2(2) 2_765 1_655
Cu2 O11 Cu2 104.0(2) . 2_765
Cu1 O12 Cu3 101.0(2) . 2_666
Cu1 O12 Cu3 107.6(3) . .
Cu1 O12 H12 98(7) . .
Cu3 O12 Cu3 93.4(3) . 2_666
Cu3 O12 H12 112(6) . .
Cu3 O12 H12 142(6) 2_666 .
Pb1 O13 Cu2 92.1(2) . .
Pb1 O13 H13 84(6) . .
Cu2 O13 H13 119(4) . .
Cu3 O13 Pb1 114.5(3) . .
Cu3 O13 Cu2 130.4(3) . .
Cu3 O13 H13 105(5) . .
Pb1 O14 H14 91(6) . .
Cu2 O14 Pb1 102.1(2) . .
Cu2 O14 Pb1 112.3(3) 2_665 .
Cu2 O14 Cu2 98.2(2) . 2_665
Cu2 O14 H14 135(6) 2_665 .
Cu2 O14 H14 115(6) . .
Cu3 O15 H15A 111.9 . .
Cu3 O15 H15B 110.8 . .
H15A O15 H15B 102.5 . .
loop_
_geom_bond_atom_site_label_1
_geom_bond_atom_site_label_2
_geom_bond_distance
_geom_bond_site_symmetry_2
U1 O1 1.771(7) .
U1 O2 1.795(7) .
U1 O3 2.393(6) .
U1 O5 2.463(6) 2_875
U1 O6 2.351(6) .
U1 O8 2.362(7) 2_776
U1 O9 2.364(5) .
Pb1 O4 2.749(6) 2_665
Pb1 O5 2.632(7) 2_765
Pb1 O11 2.559(6) 1_455
Pb1 O13 2.384(6) .
Pb1 O14 2.483(6) .
Se1 O3 1.715(6) .
Se1 O4 1.705(5) .
Se1 O5 1.729(7) .
Se2 O6 1.703(6) .
Se2 O7 1.707(6) .
Se2 O8 1.678(7) .
Se3 O9 1.685(6) .
Se3 O10 1.710(6) .
Se3 O11 1.709(6) .
Cu1 O7 2.206(7) 2_776
Cu1 O7 2.206(7) 1_545
Cu1 O10 2.219(6) 2_766
Cu1 O10 2.219(6) .
Cu1 O12 1.932(7) .
Cu1 O12 1.932(7) 2_766
Cu2 Cu2 2.981(2) 2_665
Cu2 O4 1.986(6) 2_765
Cu2 O11 2.001(6) .
Cu2 O11 2.396(6) 2_765
Cu2 O13 2.437(7) .
Cu2 O14 1.981(6) 2_665
Cu2 O14 1.961(6) .
Cu3 O7 2.056(7) 1_445
Cu3 O10 2.029(7) .
Cu3 O12 2.365(7) 2_666
Cu3 O12 1.955(6) .
Cu3 O13 1.952(6) .
Cu3 O15 2.376(7) .
O12 H12 0.94(2) .
O13 H13 0.944(19) .
O14 H14 0.94(2) .
O15 H15A 0.8919 .
O15 H15B 0.8897 .
loop_
_geom_hbond_atom_site_label_D
_geom_hbond_atom_site_label_H
_geom_hbond_atom_site_label_A
_geom_hbond_distance_DH
_geom_hbond_distance_HA
_geom_hbond_distance_DA
_geom_hbond_angle_DHA
_geom_hbond_site_symmetry_A
_geom_hbond_publ_flag
O12 H12 O8 0.94(2) 2.01(4) 2.925(9) 163(9) 1_545 yes
O13 H13 O9 0.944(19) 2.008(19) 2.884(8) 153(5) 1_455 yes
O14 H14 O3 0.94(2) 1.87(5) 2.743(8) 154(9) 2_765 yes
O15 H15A O5 0.89 2.01 2.808(9) 147.6 2_765 yes
O15 H15B O6 0.89 2.03 2.863(11) 155.2 1_545 yes
loop_
_geom_torsion_atom_site_label_1
_geom_torsion_atom_site_label_2
_geom_torsion_atom_site_label_3
_geom_torsion_atom_site_label_4
_geom_torsion
_geom_torsion_site_symmetry_1
_geom_torsion_site_symmetry_2
_geom_torsion_site_symmetry_3
_geom_torsion_site_symmetry_4
O3 Se1 O4 Pb1 172.9(4) . . . 2_665
O3 Se1 O4 Cu2 -40.3(5) . . . 2_765
O3 Se1 O5 U1 -91.8(4) . . . 2_875
O3 Se1 O5 Pb1 53.2(3) . . . 2_765
O4 Se1 O3 U1 -92.7(3) . . . .
O4 Se1 O5 U1 161.5(4) . . . 2_875
O4 Se1 O5 Pb1 -53.5(4) . . . 2_765
O5 Se1 O3 U1 163.5(3) . . . .
O5 Se1 O4 Pb1 -83.0(4) . . . 2_665
O5 Se1 O4 Cu2 63.8(5) . . . 2_765
O6 Se2 O7 Cu1 112.0(5) . . . 1_565
O6 Se2 O7 Cu3 -101.4(4) . . . 1_665
O6 Se2 O8 U1 115.5(6) . . . 2_776
O7 Se2 O6 U1 137.3(5) . . . .
O7 Se2 O8 U1 -143.9(6) . . . 2_776
O8 Se2 O6 U1 -121.0(5) . . . .
O8 Se2 O7 Cu1 8.1(5) . . . 1_565
O8 Se2 O7 Cu3 154.7(4) . . . 1_665
O9 Se3 O10 Cu1 35.8(6) . . . .
O9 Se3 O10 Cu3 170.8(3) . . . .
O9 Se3 O11 Pb1 77.8(3) . . . 1_655
O9 Se3 O11 Cu2 -33.3(4) . . . 2_765
O9 Se3 O11 Cu2 -163.4(3) . . . .
O10 Se3 O9 U1 -118.5(4) . . . .
O10 Se3 O11 Pb1 -23.8(3) . . . 1_655
O10 Se3 O11 Cu2 95.0(4) . . . .
O10 Se3 O11 Cu2 -134.8(4) . . . 2_765
O11 Se3 O9 U1 142.1(3) . . . .
O11 Se3 O10 Cu1 137.4(5) . . . .
O11 Se3 O10 Cu3 -87.6(4) . . . .
loop_
_exptl_oxdiff_crystal_face_indexfrac_h
_exptl_oxdiff_crystal_face_indexfrac_k
_exptl_oxdiff_crystal_face_indexfrac_l
_exptl_oxdiff_crystal_face_x
_exptl_oxdiff_crystal_face_y
_exptl_oxdiff_crystal_face_z
2.7488 -12.7968 5.0768 -0.0421 -0.1495 0.9879
2.6772 1.8415 -14.4772 0.2308 0.9686 -0.0923
-2.3407 12.5631 -6.5853 0.0675 0.2571 -0.9640
-3.7935 3.0340 12.8520 -0.2198 -0.9329 -0.2852
7.3134 -2.4873 8.6646 -0.7969 0.1932 0.5724
-2.2948 -13.4171 -4.0183 0.6757 -0.1557 0.7205
-7.2355 -2.7805 -9.0520 0.9455 -0.2263 -0.2340
0.1619 14.1853 1.4952 -0.4446 0.0996 -0.8902
