#------------------------------------------------------------------------------
#$Date: 2022-02-01 10:52:34 +0200 (Tue, 01 Feb 2022) $
#$Revision: 272369 $
#$URL: file:///home/coder/svn-repositories/cod/cif/1/56/62/1566216.cif $
#------------------------------------------------------------------------------
#
# This file is available in the Crystallography Open Database (COD),
# http://www.crystallography.net/
#
# All data on this site have been placed in the public domain by the
# contributors.
#
data_1566216
loop_
_publ_author_name
'Vladislav V. Gurzhiy'
'Alina R. Izatulina'
'Maria G. Krzhizhanovskaya'
'Mikhail N. Murashko'
'Dar-ya V. Spiridonova'
'Vladimir V. Shilovskikh'
'Sergey V. Krivovichev'
_publ_section_title
;
 Thermal behavior of uranyl selenite minerals derriksite and
 demesmaekerite
;
_journal_name_full               'Journal of GeoSciences'
_journal_page_first              249
_journal_page_last               259
_journal_paper_doi               10.3190/jgeosci.315
_journal_volume                  65
_journal_year                    2020
_chemical_formula_moiety         'Cu5 H10 O30 Pb2 Se6 U2'
_chemical_formula_sum            'Cu5 H10 O30 Pb2 Se6 U2'
_chemical_formula_weight         2171.98
_space_group_crystal_system      triclinic
_space_group_IT_number           2
_space_group_name_Hall           '-P 1'
_space_group_name_H-M_alt        'P -1'
_atom_sites_solution_hydrogens   difmap
_cell_angle_alpha                88.638(4)
_cell_angle_beta                 79.578(5)
_cell_angle_gamma                89.763(4)
_cell_formula_units_Z            1
_cell_length_a                   5.6406(3)
_cell_length_b                   10.0492(4)
_cell_length_c                   11.9810(8)
_cell_measurement_reflns_used    2899
_cell_measurement_temperature    143(2)
_cell_measurement_theta_max      30.7560
_cell_measurement_theta_min      3.6690
_cell_volume                     667.73(6)
_computing_cell_refinement       'CrysAlisPro 1.171.39.44a (Rigaku OD, 2018)'
_computing_data_collection       'CrysAlisPro 1.171.39.44a (Rigaku OD, 2018)'
_computing_data_reduction        'CrysAlisPro 1.171.39.44a (Rigaku OD, 2018)'
_computing_molecular_graphics    'Olex2 1.3 (Dolomanov et al., 2009)'
_computing_publication_material  'Olex2 1.3 (Dolomanov et al., 2009)'
_computing_structure_refinement  'SHELXL 2018/3 (Sheldrick, 2015)'
_computing_structure_solution    'SHELXT 2018/3 (Sheldrick, 2015)'
_diffrn_ambient_environment      N~2~
_diffrn_ambient_temperature      143(2)
_diffrn_detector                 'CCD plate'
_diffrn_detector_area_resol_mean 10.3829
_diffrn_detector_type            Atlas
_diffrn_measured_fraction_theta_full 0.998
_diffrn_measured_fraction_theta_max 0.998
_diffrn_measurement_details
;
List of Runs (angles in degrees, time in seconds):

  # Type    Start    End  Width  t~exp~   \w     \q     \k     \f   Frames
--------------------------------------------------------------------------
  1  \w    -26.00   1.00   1.00   22.50    --  -15.14 -77.00-150.00   27
  2  \w    -40.00  17.00   1.00   22.50    --  -15.14 -77.00 -30.00   57
  3  \w     39.00 102.00   1.00   22.50    --   16.86 178.00  60.00   63
  4  \w     -2.00  93.00   1.00   22.50    --   16.86  38.00-120.00   95
  5  \w    -57.00  41.00   1.00   22.50    --   16.86 -57.00  90.00   98
;
_diffrn_measurement_device       'four-circle diffractometer'
_diffrn_measurement_device_type  'SuperNova, Dual, Cu at home/near, Atlas'
_diffrn_measurement_method       '\w scans'
_diffrn_orient_matrix_type
'CrysAlisPro convention (1999,Acta A55,543-557)'
_diffrn_orient_matrix_UB_11      -0.0843630000
_diffrn_orient_matrix_UB_12      -0.0270160000
_diffrn_orient_matrix_UB_13      -0.0305792000
_diffrn_orient_matrix_UB_21      0.0837103000
_diffrn_orient_matrix_UB_22      0.0091725000
_diffrn_orient_matrix_UB_23      -0.0514240000
_diffrn_orient_matrix_UB_31      0.0471523000
_diffrn_orient_matrix_UB_32      -0.0645818000
_diffrn_orient_matrix_UB_33      0.0070415000
_diffrn_radiation_monochromator  mirror
_diffrn_radiation_probe          x-ray
_diffrn_radiation_type           'Mo K\a'
_diffrn_radiation_wavelength     0.71073
_diffrn_reflns_av_R_equivalents  0.0364
_diffrn_reflns_av_unetI/netI     0.0589
_diffrn_reflns_Laue_measured_fraction_full 0.998
_diffrn_reflns_Laue_measured_fraction_max 0.998
_diffrn_reflns_limit_h_max       7
_diffrn_reflns_limit_h_min       -7
_diffrn_reflns_limit_k_max       13
_diffrn_reflns_limit_k_min       -13
_diffrn_reflns_limit_l_max       14
_diffrn_reflns_limit_l_min       -15
_diffrn_reflns_number            5479
_diffrn_reflns_point_group_measured_fraction_full 0.998
_diffrn_reflns_point_group_measured_fraction_max 0.998
_diffrn_reflns_theta_full        25.242
_diffrn_reflns_theta_max         27.500
_diffrn_reflns_theta_min         3.459
_diffrn_source                   'micro-focus sealed X-ray tube'
_diffrn_source_type              'SuperNova (Mo) X-ray Source'
_exptl_absorpt_coefficient_mu    36.832
_exptl_absorpt_correction_T_max  0.267
_exptl_absorpt_correction_T_min  0.056
_exptl_absorpt_correction_type   analytical
_exptl_absorpt_process_details
;
CrysAlisPro 1.171.39.44a (Rigaku Oxford Diffraction, 2018)
Analytical numeric absorption correction using a multifaceted crystal
			model based on expressions derived by R.C. Clark & J.S. Reid.
(Clark, R. C. & Reid, J. S. (1995). Acta Cryst. A51, 887-897)
Empirical absorption correction using spherical harmonics,
 implemented in SCALE3 ABSPACK scaling algorithm.
;
_exptl_crystal_colour            brown
_exptl_crystal_density_diffrn    5.401
_exptl_crystal_description       prism
_exptl_crystal_F_000             947
_exptl_crystal_size_max          0.12
_exptl_crystal_size_mid          0.063
_exptl_crystal_size_min          0.055
_refine_diff_density_max         2.590
_refine_diff_density_min         -2.646
_refine_diff_density_rms         0.401
_refine_ls_extinction_coef       .
_refine_ls_extinction_method     none
_refine_ls_goodness_of_fit_ref   1.007
_refine_ls_hydrogen_treatment    mixed
_refine_ls_matrix_type           full
_refine_ls_number_parameters     185
_refine_ls_number_reflns         3061
_refine_ls_number_restraints     5
_refine_ls_restrained_S_all      1.006
_refine_ls_R_factor_all          0.0430
_refine_ls_R_factor_gt           0.0343
_refine_ls_shift/su_max          0.000
_refine_ls_shift/su_mean         0.000
_refine_ls_structure_factor_coef Fsqd
_refine_ls_weighting_details
'w=1/[\s^2^(Fo^2^)+(0.0349P)^2^] where P=(Fo^2^+2Fc^2^)/3'
_refine_ls_weighting_scheme      calc
_refine_ls_wR_factor_gt          0.0752
_refine_ls_wR_factor_ref         0.0801
_reflns_Friedel_coverage         0.000
_reflns_Friedel_fraction_full    .
_reflns_Friedel_fraction_max     .
_reflns_number_gt                2641
_reflns_number_total             3061
_reflns_threshold_expression     'I > 2\s(I)'
_cod_data_source_file            Demesmaekerite_SN_-130C_last.cif
_cod_data_source_block           demesmaekerite_sn_-130C
_cod_original_cell_volume        667.73(7)
_cod_database_code               1566216
_chemical_oxdiff_formula         'Pb2 Cu5 U2 Se6 O30'
_shelx_space_group_comment
;
The symmetry employed for this shelxl refinement is uniquely defined
by the following loop, which should always be used as a source of
symmetry information in preference to the above space-group names.
They are only intended as comments.
;
_reflns_odcompleteness_completeness 99.88
_reflns_odcompleteness_iscentric 1
_reflns_odcompleteness_theta     28.51
_olex2_refinement_description
;
1. Fixed Uiso
 At 1.5 times of:
  All O(H) groups, All O(H,H) groups
2. Restrained distances
 O14-H14
 0.95 with sigma of 0.02
 O13-H13
 0.95 with sigma of 0.02
 O12-H12
 0.95 with sigma of 0.02
 H15A-O5_$3
 2 with sigma of 0.02
 O9_$2-H13
 2 with sigma of 0.02
3. Uiso/Uaniso restraints and constraints
Uanis(O3) = Uanis(O6)
Uanis(O10) = Uanis(O9)
Uanis(O5) = Uanis(O4)
Uanis(O8) = Uanis(O7)
Uanis(O12) = Uanis(O13)
4.a Rotating group:
 O15(H15A,H15B)
;
_shelx_res_file
;
TITL Demesmaekerite_SN_143K in P-1
    demesmaekerite_sn_143k.res
    created by SHELXL-2018/3 at 02:07:51 on 09-Sep-2020
REM P-1 (#2 in standard setting)
CELL 0.71073 5.640576 10.04917 11.981012 88.6381 79.5784 89.7631
ZERR 1 0.000343 0.000442 0.000767 0.0044 0.0053 0.0042
LATT 1
SFAC Cu H O Pb Se U
UNIT 5 10 30 2 6 2
EQIV $1 +X,-1+Y,+Z
EQIV $2 -1+X,+Y,+Z
EQIV $3 2-X,1-Y,-Z
EADP O3 O6
EADP O10 O9
DFIX 0.95 O14 H14
DFIX 0.95 O13 H13
DFIX 0.95 O12 H12
DFIX 2 H15a O5_$3
EADP O5 O4
EADP O8 O7
EADP O12 O13
DFIX 2 O9_$2 H13

L.S. 20
PLAN  20
CONF
HTAB O12 O8_$1
HTAB O13 O9_$2
HTAB O14 O3_$3
HTAB O15 O5_$3
HTAB O15 O6_$1
Htab
BOND $H
MORE -1
fmap 2
acta
OMIT -4 55
OMIT 1 2 11
OMIT -1 1 0
REM <olex2.extras>
REM <HklSrc "%.\\Demesmaekerite_SN_143K.hkl">
REM </olex2.extras>

WGHT    0.034900
FVAR       1.77505
U1    6    1.261180    0.916668    0.252424    11.00000    0.01036    0.00671 =
         0.00193    0.00031   -0.00064   -0.00247
PB1   4    0.171459    0.311679    0.194204    11.00000    0.01135    0.01025 =
         0.00762    0.00139   -0.00153   -0.00226
SE1   5    1.287651    0.889453   -0.046175    11.00000    0.01063    0.00705 =
         0.00249    0.00013   -0.00122   -0.00163
SE2   5    1.225605    1.169630    0.487138    11.00000    0.01592    0.01177 =
         0.00467    0.00037   -0.00109   -0.00249
SE3   5    0.906291    0.625728    0.220699    11.00000    0.01144    0.00777 =
         0.00639   -0.00174    0.00026   -0.00213
CU1   1    1.000000    0.500000    0.500000    10.50000    0.01008    0.00873 =
         0.00445   -0.00119   -0.00110   -0.00267
CU2   1    0.707857    0.443036    0.046285    11.00000    0.00923    0.00758 =
         0.00613    0.00092   -0.00236   -0.00206
CU3   1    0.563768    0.424383    0.384459    11.00000    0.01046    0.01402 =
         0.00255   -0.00065   -0.00045   -0.00537
O1    3    1.522247    0.864946    0.305018    11.00000    0.01195    0.02142 =
         0.01423    0.00556   -0.00227   -0.00215
O2    3    1.002889    0.966727    0.194996    11.00000    0.01251    0.01591 =
         0.01386    0.00179   -0.00077   -0.00254
O3    3    1.445659    0.865985    0.062485    11.00000    0.01743    0.01205 =
         0.00289   -0.00120   -0.00181   -0.00368
O4    3    1.159617    0.738762   -0.057810    11.00000    0.01197    0.01054 =
         0.00400   -0.00084   -0.00046   -0.00400
O5    3    1.517695    0.886840   -0.162781    11.00000    0.01197    0.01054 =
         0.00400   -0.00084   -0.00046   -0.00400
O6    3    1.153138    1.101162    0.369044    11.00000    0.01743    0.01205 =
         0.00289   -0.00120   -0.00181   -0.00368
O7    3    1.240112    1.332205    0.441736    11.00000    0.02224    0.01340 =
         0.00844    0.00248    0.00688   -0.00448
O8    3    0.956684    1.170462    0.575031    11.00000    0.02224    0.01340 =
         0.00844    0.00248    0.00688   -0.00448
O9    3    1.180811    0.691590    0.221395    11.00000    0.01396    0.01216 =
         0.00594    0.00010   -0.00521   -0.00616
O10   3    0.888390    0.513566    0.331809    11.00000    0.01396    0.01216 =
         0.00594    0.00010   -0.00521   -0.00616
O11   3    0.980343    0.514190    0.114059    11.00000    0.00766    0.00673 =
         0.00199   -0.00189    0.00154   -0.00140
O12   3    0.693764    0.409140    0.525066    11.00000    0.00964    0.01011 =
         0.00567    0.00169    0.00002   -0.00183
H12   2    0.712998    0.324659    0.558602    11.00000   -1.50000
O13   3    0.471615    0.458062    0.236705    11.00000    0.00964    0.01011 =
         0.00567    0.00169    0.00002   -0.00183
H13   2    0.346809    0.521293    0.253456    11.00000   -1.50000
O14   3    0.406020    0.382798    0.006283    11.00000    0.01228    0.00441 =
         0.00810    0.00115   -0.00422   -0.00268
H14   2    0.413055    0.296829   -0.025406    11.00000   -1.50000
O15   3    0.698496    0.203047    0.340569    11.00000    0.01932    0.02570 =
         0.02157   -0.00855   -0.00159   -0.00174
AFIX   7
H15A  2    0.684599    0.182127    0.270118    11.00000   -1.50000
H15B  2    0.856065    0.195496    0.339020    11.00000   -1.50000
AFIX   0
HKLF 4




REM  Demesmaekerite_SN_143K in P-1
REM wR2 = 0.0801, GooF = S = 1.007, Restrained GooF = 1.006 for all data
REM R1 = 0.0343 for 2641 Fo > 4sig(Fo) and 0.0430 for all 3061 data
REM 185 parameters refined using 5 restraints

END

WGHT      0.0349      0.0000

REM Instructions for potential hydrogen bonds
HTAB O12 O8_$1
HTAB O13 Se3_$2
HTAB O13 O9_$2
HTAB O13 O10_$2
HTAB O14 Se1_$3
HTAB O14 O3_$3
HTAB O15 Se1_$3
HTAB O15 O4_$3
HTAB O15 O5_$3
HTAB O15 Se2_$1
HTAB O15 O6_$1

REM Highest difference peak  2.590,  deepest hole -2.646,  1-sigma level  0.401
Q1    1   1.0717  1.1784  0.4650  11.00000  0.05    2.59
Q2    1   1.3356  0.8816  0.2936  11.00000  0.05    2.18
Q3    1   0.1293  0.2424  0.1658  11.00000  0.05    1.97
Q4    1   1.3942  0.9269  0.2018  11.00000  0.05    1.84
Q5    1   0.0397  0.2862  0.2420  11.00000  0.05    1.82
Q6    1   1.2771  0.8207  0.3215  11.00000  0.05    1.80
Q7    1  -0.0024  0.3338  0.2556  11.00000  0.05    1.71
Q8    1   0.3161  0.3625  0.1566  11.00000  0.05    1.70
Q9    1   1.1217  0.8771  0.3016  11.00000  0.05    1.62
Q10   1   1.3004  0.9872  0.2822  11.00000  0.05    1.61
Q11   1   1.1972  0.9013  0.2784  11.00000  0.05    1.55
Q12   1   1.1200  1.0165  0.1556  11.00000  0.05    1.46
Q13   1   1.3431  1.3564  0.3984  11.00000  0.05    1.44
Q14   1   0.2330  0.2621  0.2450  11.00000  0.05    1.42
Q15   1   0.2250  0.3846  0.2400  11.00000  0.05    1.39
Q16   1   0.0817  0.3514  0.1588  11.00000  0.05    1.39
Q17   1   1.1877  0.9478  0.2042  11.00000  0.05    1.38
Q18   1   1.0865  0.9470  0.3203  11.00000  0.05    1.37
Q19   1   0.3055  0.2676  0.1589  11.00000  0.05    1.36
Q20   1   1.3347  0.6263  0.2223  11.00000  0.05    1.33
;
_shelx_res_checksum              60593
_shelx_hkl_file
;
   0   0   2 58289.8 2091.36   1
   0   0   3 43548.1 1774.76   1
   0   0  -3 47565.2 2023.73   4
   0   0  -4 260063. 8576.38   4
   0   0   4 255169. 8187.23   1
   0   0   5 69436.1 2766.32   1
   0   0  -5 71613.2 3177.74   4
   0   0  -5 65906.1 2560.65   3
   0   0  -6 7071.94 846.218   4
   0   0  -6 5412.29 458.200   3
   0   0   6 7136.46 666.549   1
   0   0  -7 175684. 6691.74   4
   0   0   7 153484. 5947.78   1
   0   0  -8 2530.75 622.196   4
   0   0  -9 32795.0 2460.00   4
   0   0 -10 2193.77 716.275   4
   0   0 -11 11983.5 1603.89   4
   0   0 -12-484.384 683.913   4
   0   0 -13 36245.6 3120.56   4
   0   0 -14 28172.5 2826.07   4
   0   0 -15 3977.49 1280.98   4
   0   1 -15 2428.61 1030.68   4
   0   1 -14 67631.5 4592.09   4
   0   1 -13 7306.98 1410.89   4
   0   1 -12 70094.6 4370.89   4
   0   1 -11 58012.4 3745.98   4
   0   1 -10 157349. 7077.94   4
   0   1  -9 44359.4 2898.68   4
   0   1  -8 19641.5 1304.90   3
   0   1  -8 23249.0 1838.20   4
   0   1  -7 232445. 8471.60   4
   0   1  -7 208341. 7815.77   3
   0   1  -6 2278.55 418.791   1
   0   1  -6 2179.95 485.898   4
   0   1  -6 1882.26 370.218   3
   0  -1   5 95937.8 3369.99   3
   0   1  -5 92354.5 3613.99   1
   0   1  -5 97269.6 3954.79   4
   0   1  -5 84209.1 3686.60   3
   0   1  -4 3573.48 509.240   4
   0  -1   4 3083.89 330.361   3
   0   1  -4 2838.87 417.258   3
   0  -1   3 111314. 3874.77   3
   0   1  -3 109574. 4060.68   4
   0   1  -3 103684. 4035.99   3
   0   1  -2 397.348 150.741   4
   0  -1   2 358.407 141.662   3
   0  -1  -2 68299.2 2554.52   4
   0  -1  -3 28832.0 1441.51   4
   0  -1  -4 83397.5 3438.03   4
   0  -1  -5 3216.79 555.994   4
   0   1   5 2854.05 404.985   1
   0  -1  -6 162596. 6416.88   4
   0   1   6 161107. 5934.79   1
   0   1   7 44650.2 2241.98   1
   0  -1  -7 46239.0 2678.25   4
   0  -1  -8 15015.1 1480.32   4
   0   1   8 12988.0 1088.09   1
   0   1   9 5603.62 767.846   1
   0  -1  -9 6626.58 1041.29   4
   0  -1 -10 12369.3 1506.85   4
   0  -1 -11 35661.9 2830.77   4
   0  -1 -12 15883.8 1928.17   4
   0  -1 -13 175.971 552.175   4
   0  -1 -14 2920.85 972.831   4
   0  -1 -15 1230.10 979.277   4
   0  -1 -15 724.510 909.911   5
   0   2 -15 29032.4 2892.87   4
   0   2 -14 4134.30 1130.17   4
   0   2 -13 3721.84 962.330   4
   0   2 -12 12482.8 1685.22   4
   0   2 -11 735.473 580.584   4
   0   2 -10 12264.9 1478.27   4
   0   2  -9 272.509 238.459   3
   0   2  -9 1372.66 455.763   1
   0   2  -9 1627.05 630.717   4
   0   2  -8 17974.8 1568.74   4
   0   2  -8 17314.0 1350.89   1
   0   2  -8 15885.2 1414.97   3
   0  -2   7 49229.7 2580.10   4
   0   2  -7 49175.6 2634.89   4
   0  -2   6 71216.8 2876.79   3
   0   2  -6 77116.4 3354.07   4
   0   2  -5 46549.7 2512.82   3
   0   2  -5 49404.1 2414.48   4
   0  -2   5 50743.6 2251.59   3
   0  -2   4 22145.5 1298.44   3
   0  -2   4 22102.6 1097.63   2
   0   2  -4 23129.8 1507.21   3
   0   2  -4 21365.5 1300.49   4
   0  -2   3 179480. 6234.53   3
   0   2  -3 168775. 6384.78   3
   0  -2   3 164218. 5870.48   2
   0   2  -3 177622. 6055.29   4
   0   2  -2 1920.87 265.243   4
   0   2  -2 2076.38 287.842   2
   0  -2   2 2332.66 394.793   3
   0  -2   2 1769.61 293.180   2
   0  -2   1 103044. 3742.41   2
   0   2  -1 98775.7 3376.04   4
   0  -2   1 100784. 3909.25   3
   0  -2   0 11838.4 845.447   2
   0  -2   0 11595.7 844.070   3
   0  -2  -1 105825. 3433.52   5
   0  -2  -1 97616.9 3813.46   3
   0   2   1 97579.3 3357.74   4
   0  -2  -1 100663. 3346.56   4
   0   2   1 101395. 3441.64   5
   0  -2  -2 415.877 149.547   5
   0   2   2 352.917 157.625   3
   0  -2  -2 402.419 132.324   4
   0   2   2 373.476 134.183   4
   0  -2  -2 347.292 189.899   3
   0  -2  -3 460.474 178.593   3
   0  -2  -3 695.588 209.125   4
   0   2   3 509.066 175.694   4
   0   2   4 882.323 253.791   4
   0  -2  -4 659.490 235.734   4
   0  -2  -4 614.494 150.150   3
   0   2   5 908.804 297.185   4
   0  -2  -5 1224.99 376.846   4
   0  -2  -6 13026.8 1169.80   4
   0   2   6 13809.2 1091.25   4
   0   2   7 14608.4 1126.02   1
   0   2   7 14553.3 1200.97   4
   0  -2  -7 13746.2 1294.25   4
   0   2   8 133471. 5414.48   1
   0  -2  -8 140866. 5973.70   4
   0  -2  -9 16342.6 1605.92   4
   0   2   9 13403.0 1193.84   1
   0  -2 -10 104812. 5265.06   4
   0  -2 -11 40344.7 2988.17   4
   0  -2 -12 63549.0 4051.75   4
   0  -2 -13 29838.4 2762.11   4
   0  -2 -14 21948.3 2420.02   4
   0  -2 -14 23810.6 2801.68   5
   0  -2 -15 87105.2 6001.76   5
   0  -2 -15 88740.3 5517.53   4
   0   3 -15 24681.2 2604.84   4
   0   3 -14 5075.43 1217.22   4
   0   3 -13 26268.7 2493.47   4
   0   3 -12 39870.1 3018.06   4
   0   3 -11 102094. 5079.02   4
   0   3 -11 88559.6 4554.73   1
   0   3 -10 14818.3 1573.92   3
   0   3 -10 19756.6 1704.78   1
   0  -3  10 16974.6 1193.35   2
   0   3  -9 23884.5 1778.99   1
   0   3  -9 19693.8 1776.99   3
   0  -3   9 21878.1 1348.88   2
   0   3  -8 545.987 370.688   1
   0   3  -8 381.781 365.093   4
   0   3  -8 561.124 362.223   3
   0  -3   8 486.174 233.858   2
   0  -3   7 15470.7 1059.15   2
   0  -3   7 19635.0 1459.06   4
   0   3  -7 17286.7 1408.27   4
   0  -3   7 17167.3 1216.55   3
   0   3  -7 13246.8 1392.35   3
   0   3  -7 18355.0 1373.89   1
   0   3  -6 9180.32 1086.68   3
   0  -3   6 7871.79 824.990   3
   0   3  -6 10105.7 961.144   4
   0  -3   6 8297.73 716.942   2
   0  -3   5 49634.7 2287.52   2
   0  -3   5 52757.5 2517.81   4
   0  -3   5 54585.5 2631.80   3
   0   3  -5 53500.3 2505.33   4
   0   3  -5 54883.0 2911.56   3
   0  -3   4 36150.3 1828.87   4
   0   3  -4 36602.0 1800.58   4
   0  -3   4 36100.8 2041.75   3
   0   3  -4 36421.4 2219.28   3
   0  -3   4 38177.7 1807.94   2
   0   3  -3 83932.7 3207.55   4
   0   3  -3 87526.6 3835.57   3
   0  -3   3 77467.3 3610.30   3
   0   3  -3 88137.3 3363.42   2
   0  -3   3 85507.8 3253.97   4
   0  -3   3 81786.4 3340.52   2
   0  -3   2 245986. 8185.78   4
   0   3  -2 245998. 8633.50   2
   0  -3   2 242400. 8541.32   2
   0  -3   2 247033. 8880.12   3
   0   3  -2 244042. 8123.68   4
   0   3  -1 20260.4 829.677   4
   0  -3   1 21052.9 1449.67   3
   0  -3   1 20683.5 861.815   4
   0   3  -1 21436.0 1364.11   2
   0  -3   1 21228.3 1336.60   2
   0   3   0 1360.68 177.617   5
   0  -3   0 1316.20 371.433   3
   0  -3   0 1145.53 371.089   2
   0  -3   0 1340.22 196.433   5
   0  -3  -1 229116. 7547.07   5
   0   3   1 228158. 7547.95   5
   0   3   1 230419. 7418.92   4
   0  -3  -1 229123. 8292.07   3
   0  -3  -2 114907. 4632.02   3
   0   3   2 116339. 4040.24   4
   0  -3  -2 117210. 4118.80   5
   0  -3  -2 116675. 4015.91   4
   0   3   2 119489. 4438.80   3
   0   3   3 502768. 16098.3   3
   0  -3  -3 461577. 16278.8   3
   0   3   3 485370. 15904.0   4
   0  -3  -3 489105. 15938.7   4
   0  -3  -3 488438. 16038.6   5
   0  -3  -4 31613.7 1701.63   5
   0   3   4 30466.2 1549.28   4
   0  -3  -4 30151.0 1622.06   3
   0  -3  -4 33425.2 1648.41   4
   0  -3  -5 337719. 11085.4   4
   0  -3  -5 306877. 10651.2   3
   0   3   5 316822. 10892.9   4
   0  -3  -6 21378.7 981.000   3
   0  -3  -6 22280.4 1522.07   4
   0   3   6 21988.2 1421.74   4
   0  -3  -7 39442.0 2388.35   4
   0   3   7 42767.5 2269.51   4
   0  -3  -8 149705. 6296.82   4
   0  -3  -9 43852.4 2767.33   4
   0   3   9 44002.6 2468.43   1
   0  -3 -10 21738.9 1954.21   4
   0  -3 -11 1219.99 674.810   4
   0  -3 -11 2894.61 950.132   5
   0  -3 -12 1581.93 770.274   5
   0  -3 -12-389.238 558.790   4
   0  -3 -13 24084.5 2360.26   4
   0  -3 -13 21395.0 2470.86   5
   0  -3 -14 2391.55 964.357   5
   0  -3 -14 2618.42 925.278   4
   0  -3 -15 8309.71 1686.24   5
   0   4 -15 3416.16 1062.41   4
   0   4 -14 433.063 791.380   4
   0   4 -13 43507.8 3208.16   4
   0   4 -12 34501.0 2681.27   4
   0   4 -12 33547.5 2623.40   1
   0   4 -11 51097.3 3220.83   4
   0   4 -11 47059.5 3097.69   1
   0   4 -10 20367.2 1799.13   1
   0  -4  10 16802.8 1320.38   2
   0   4 -10 19931.2 1785.66   4
   0  -4   9 113005. 4669.15   2
   0   4  -9 124963. 5323.51   4
   0   4  -9 122015. 5290.04   1
   0   4  -8 19243.5 1573.28   1
   0   4  -8 20954.0 1595.29   4
   0  -4   8 17471.1 1273.98   2
   0  -4   8 17041.2 1366.60   3
   0   4  -8 15598.9 1659.04   3
   0   4  -7 126054. 5410.05   1
   0  -4   7 127625. 5336.59   4
   0  -4   7 122308. 5016.63   2
   0   4  -7 140069. 5407.64   4
   0   4  -7 131624. 5910.64   3
   0  -4   7 133770. 5399.52   3
   0   4  -6 49239.0 2442.50   4
   0  -4   6 48533.3 2643.45   3
   0  -4   6 44428.1 2316.66   2
   0   4  -5 131825. 5532.16   3
   0  -4   5 112198. 4674.10   2
   0  -4   5 120792. 5137.33   3
   0  -4   5 119652. 4711.19   4
   0   4  -5 122042. 4664.49   4
   0   4  -4 167350. 6000.64   4
   0  -4   4 159223. 6220.98   2
   0  -4   4 166767. 6085.06   4
   0  -4   4 167619. 6695.63   3
   0  -4   3 273.909 229.596   3
   0   4  -3 847.356 216.857   4
   0  -4   3 782.169 219.345   4
   0   4  -3 732.897 333.451   2
   0  -4   3 689.571 278.286   2
   0  -4   2 67692.0 3376.03   3
   0  -4   2 67974.3 3136.00   2
   0   4  -2 67830.1 3236.44   2
   0   4  -2 68074.6 2471.20   4
   0  -4   2 67210.4 2537.33   4
   0   4  -1 13339.1 1151.69   2
   0   4  -1 13599.0 592.641   4
   0  -4   1 15146.0 691.763   4
   0   4  -1 15648.5 912.833   5
   0  -4   1 14479.6 1306.70   3
   0  -4   1 14487.8 1210.07   2
   0  -4   0 124525. 5186.71   3
   0   4   0 120394. 4144.26   5
   0  -4  -1 1828.89 231.892   5
   0  -4  -1 1496.34 464.678   3
   0   4   1 1816.01 224.849   5
   0  -4  -2 8742.62 582.491   5
   0  -4  -2 7602.30 917.267   3
   0   4   2 7841.04 488.807   4
   0   4   2 9627.84 874.891   3
   0   4   3 9812.91 646.345   4
   0   4   3 9948.15 857.128   3
   0  -4  -3 9183.11 968.245   3
   0  -4  -3 10122.6 649.732   4
   0  -4  -3 8793.41 687.900   5
   0  -4  -4 1012.95 289.320   5
   0   4   4 1313.45 373.775   3
   0   4   4 694.335 232.630   4
   0  -4  -4 859.706 239.018   4
   0  -4  -4 439.379 279.299   3
   0  -4  -5 20345.5 1392.37   3
   0  -4  -5 22574.0 1465.57   5
   0  -4  -5 21296.1 1320.63   4
   0   4   5 20777.1 1258.69   4
   0  -4  -6 4819.35 708.777   5
   0   4   6 4860.47 613.380   4
   0  -4  -6 5618.17 606.501   3
   0  -4  -6 5118.03 687.408   4
   0  -4  -7 59807.0 3233.07   5
   0  -4  -7 65019.2 3125.92   4
   0   4   7 63359.8 2967.81   4
   0  -4  -8 385.943 430.301   5
   0  -4  -8 144.522 307.660   4
   0  -4  -9 148476. 6902.47   5
   0  -4  -9 169259. 6791.73   4
   0  -4 -10 8628.64 1286.59   5
   0  -4 -10 7974.28 1114.21   4
   0  -4 -11 8240.49 1210.81   4
   0  -4 -11 8138.24 1367.19   5
   0  -4 -12 19499.2 2251.69   5
   0  -4 -12 23700.5 2161.41   4
   0  -4 -13 15207.0 2090.49   5
   0  -4 -13 18027.2 1970.17   4
   0  -4 -14 10285.4 1773.82   5
   0  -4 -15 713.537 803.294   5
   0   5 -14 68020.1 4217.81   4
   0   5 -13 5441.67 1163.96   1
   0   5 -13 5601.05 1114.77   4
   0   5 -12 24498.4 2143.70   4
   0   5 -12 25581.1 2337.43   1
   0   5 -11 2155.41 732.153   4
   0   5 -11 2645.77 804.692   1
   0   5 -10 33905.8 2314.71   4
   0   5 -10 30170.7 2382.24   1
   0   5  -9 519.638 420.979   4
   0  -5   9 146.084 256.486   2
   0  -5   9 746.739 376.411   3
   0   5  -9 200.979 383.684   1
   0   5  -8 11738.3 1319.60   1
   0   5  -8 14334.0 1268.36   4
   0  -5   8 13052.8 1139.17   2
   0  -5   8 13113.3 1294.10   3
   0   5  -7 2509.17 521.092   4
   0  -5   7 2072.62 577.048   3
   0   5  -7 3123.53 652.884   1
   0  -5   7 1388.70 400.369   2
   0  -5   7 1372.95 436.407   4
   0  -5   6 35603.7 2087.09   2
   0  -5   6 36052.8 2405.34   3
   0   5  -6 38828.9 2015.69   4
   0  -5   5 11506.0 1280.31   3
   0   5  -5 11967.2 906.319   4
   0  -5   5 10755.2 936.511   4
   0  -5   5 11906.1 1087.25   2
   0   5  -5 14283.6 1473.85   3
   0  -5   4 6096.20 790.548   2
   0   5  -4 6208.06 570.804   4
   0  -5   4 6738.84 640.067   4
   0   5  -4 6269.43 818.221   2
   0  -5   4 7701.02 1041.60   3
   0   5  -4 9312.51 1138.44   3
   0  -5   3 68250.4 3553.03   3
   0   5  -3 66157.1 3319.85   2
   0  -5   3 64024.5 3202.64   2
   0  -5   3 62834.9 2580.45   4
   0   5  -3 65973.7 2509.65   4
   0   5  -2 63518.9 3326.97   2
   0   5  -2 62241.3 2252.87   4
   0  -5   2 60854.7 2349.56   4
   0   5  -2 60850.6 2643.90   5
   0  -5   2 65972.4 3475.94   3
   0  -5   2 64223.8 3198.52   2
   0  -5   1 66400.9 3482.08   3
   0  -5   1 68022.1 3346.23   2
   0   5  -1 61558.6 2514.47   5
   0   5  -1 60852.5 3127.85   2
   0  -5   0 153025. 6365.75   3
   0   5   0 148183. 5064.08   5
   0  -5  -1 15715.8 1453.72   3
   0  -5  -1 14387.2 801.216   5
   0   5   1 13941.9 742.702   5
   0  -5  -2 105511. 3836.53   5
   0   5   2 117291. 4612.96   3
   0  -5  -2 102423. 4794.46   3
   0   5   2 105182. 3626.92   4
   0  -5  -3 1328.05 267.163   5
   0   5   3 1730.80 250.504   4
   0  -5  -3 828.249 387.705   3
   0   5   3 1735.17 417.729   3
   0   5   4 97345.0 3973.08   3
   0  -5  -4 93998.2 3707.86   5
   0  -5  -4 90847.4 4316.14   3
   0   5   4 91875.0 3517.54   4
   0   5   5 3793.34 479.258   4
   0  -5  -5 3163.11 515.466   5
   0   5   5 4604.06 708.397   2
   0  -5  -5 3638.26 488.451   4
   0  -5  -5 2886.79 591.686   3
   0  -5  -6 2523.00 482.293   4
   0   5   6 2701.06 465.625   4
   0  -5  -6 2958.83 587.832   5
   0  -5  -6 1986.52 452.904   3
   0  -5  -7 6104.24 756.002   4
   0  -5  -7 5417.02 635.984   3
   0  -5  -7 5974.18 859.972   5
   0   5   7 5395.06 675.699   4
   0  -5  -8 2201.13 603.005   5
   0  -5  -8 1505.05 464.536   4
   0  -5  -9 17182.0 1717.71   5
   0  -5  -9 16310.5 1495.15   4
   0  -5 -10 502.233 462.948   4
   0  -5 -10 803.908 530.629   5
   0  -5 -11 12647.9 1669.74   5
   0  -5 -11 10738.2 1363.99   4
   0  -5 -12 1820.70 730.772   4
   0  -5 -12 1841.09 765.977   5
   0   5  13 116278. 5540.20   2
   0  -5 -13 111190. 6332.64   5
   0   5  14 1740.43 738.591   2
   0  -5 -14 3493.52 1135.72   5
   0  -5 -15 12044.5 2020.96   5
   0   6 -14 71535.4 4707.42   1
   0   6 -13-191.882 600.512   1
   0   6 -13-850.277 586.923   4
   0   6 -12 6163.54 1035.70   4
   0   6 -12 6608.50 1254.89   1
   0   6 -11 4587.53 1054.49   1
   0   6 -11 5707.56 940.967   4
   0   6 -10 102411. 4673.47   4
   0   6 -10 96850.7 5101.42   1
   0   6  -9 20881.6 1598.03   4
   0  -6   9 20201.1 1756.94   3
   0   6  -9 17206.5 1769.41   1
   0   6  -8 44125.9 2793.81   1
   0  -6   8 38106.9 2370.09   2
   0  -6   8 42273.3 2735.87   3
   0   6  -8 43251.7 2364.46   4
   0  -6   7 59810.8 3103.00   2
   0   6  -7 63574.6 2895.34   4
   0  -6   7 53916.3 3329.56   3
   0  -6   6 1375.06 487.357   2
   0  -6   6 595.183 421.632   3
   0   6  -6 1361.50 347.130   4
   0  -6   5 16877.2 1671.26   3
   0  -6   5 15809.1 1423.72   2
   0   6  -5 17803.4 1092.94   4
   0  -6   5 15492.8 1120.73   4
   0  -6   4 4546.86 911.476   3
   0  -6   4 4567.22 775.686   2
   0   6  -4 4492.46 834.871   2
   0  -6   4 4895.41 534.731   4
   0   6  -4 4403.12 460.454   4
   0  -6   3 75720.3 3754.56   2
   0  -6   3 70730.0 2825.20   4
   0   6  -3 70240.2 3137.45   5
   0   6  -3 73070.5 3846.99   2
   0  -6   3 74221.5 4046.67   3
   0   6  -3 74273.4 2706.41   4
   0  -6   2 4570.27 869.834   3
   0   6  -2 5373.75 584.440   5
   0  -6   2 4096.86 757.012   2
   0   6  -2 5553.41 878.756   2
   0  -6   2 5124.32 400.935   4
   0   6  -1 123380. 4478.88   5
   0   6  -1 127571. 5444.69   2
   0  -6   1 137276. 5950.52   3
   0   6   0 4708.67 758.487   2
   0  -6   0 4506.21 882.414   3
   0   6   0 4459.23 372.232   5
   0  -6  -1 23071.1 1080.52   5
   0  -6  -1 20108.9 1832.17   3
   0   6   1 20654.2 986.359   5
   0  -6  -2 84427.0 3075.79   5
   0   6   2 81340.0 2782.75   4
   0  -6  -2 87152.0 4353.03   3
   0  -6  -3 121086. 4367.79   5
   0  -6  -3 118101. 5485.91   3
   0   6   3 117134. 4122.12   4
   0   6   4 30962.2 1471.22   4
   0   6   4 32152.4 2173.12   2
   0  -6  -4 32928.2 1660.78   5
   0  -6  -4 33605.8 2354.90   3
   0  -6  -5 9667.47 1184.15   3
   0  -6  -5 10450.2 910.628   5
   0   6   5 10287.5 786.085   4
   0   6   5 10746.8 1194.63   2
   0   6   6 374243. 13687.2   2
   0  -6  -6 350810. 13630.4   3
   0   6   6 380020. 12911.8   4
   0  -6  -7 388.440 333.201   3
   0   6   7 1395.58 508.088   2
   0  -6  -7 971.783 456.117   5
   0   6   7 1364.37 368.140   4
   0  -6  -8 50230.2 2869.97   5
   0   6   8 43362.0 2757.83   2
   0   6   9 1127.80 481.833   2
   0  -6  -9 719.650 476.841   5
   0   6  10 103304. 5103.73   2
   0  -6 -10 117617. 5646.92   5
   0  -6 -11 12789.3 1645.81   5
   0   6  11 9982.27 1319.18   2
   0   6  12 2663.58 769.733   2
   0  -6 -12 2356.88 885.650   5
   0  -6 -13 33553.6 3035.80   5
   0   6  13 37659.2 2784.95   2
   0   6  14 9970.83 1428.23   2
   0  -6 -14 11728.2 1867.53   5
   0  -6 -15 6124.18 1517.38   5
   0   7 -14 5107.49 1309.20   1
   0   7 -13 3885.74 1155.23   1
   0   7 -12 20720.2 2264.54   1
   0   7 -12 16859.7 1615.45   4
   0   7 -11 5521.94 1164.35   1
   0   7 -11 4802.95 843.228   4
   0   7 -10 5915.80 847.528   4
   0   7 -10 6956.97 1216.49   1
   0   7  -9 20286.9 1963.42   1
   0   7  -9 20427.8 1528.17   4
   0  -7   9 18887.7 1858.36   3
   0   7  -8 118311. 5683.95   1
   0   7  -8 123819. 4909.33   4
   0  -7   8 113438. 5647.16   3
   0  -7   7 1368.79 599.544   3
   0   7  -7 900.973 303.907   4
   0   7  -6 45809.9 2141.74   4
   0  -7   6 41945.1 3005.14   3
   0  -7   5 38145.6 1943.19   4
   0   7  -5 38102.7 1774.42   4
   0   7  -5 39234.1 2648.80   2
   0  -7   5 34825.9 2708.97   3
   0   7  -4 155836. 5475.51   4
   0  -7   4 160018. 5688.07   4
   0   7  -4 156642. 6894.07   2
   0  -7   4 172129. 7305.41   3
   0   7  -4 151417. 6047.67   5
   0   7  -3 51948.0 2485.19   5
   0  -7   3 54565.2 3456.94   3
   0   7  -3 50395.7 3202.81   2
   0  -7   3 52311.4 2107.19   4
   0   7  -2 73236.2 3046.34   5
   0  -7   2 83275.6 4425.31   3
   0   7  -2 78356.4 4011.12   2
   0   7  -1 87177.0 4199.83   2
   0  -7   1 90074.4 4703.33   3
   0   7  -1 85193.1 3189.05   5
   0   7   0 402.374 126.535   5
   0   7   0 513.847 359.900   2
   0  -7   0 244.547 479.279   3
   0   7   1 40696.5 1617.20   5
   0   7   1 44580.5 2618.08   2
   0  -7  -1 36979.3 2791.87   3
   0  -7  -2 17053.9 956.839   5
   0  -7  -2 16283.9 1702.70   3
   0   7   2 15297.1 1470.24   2
   0  -7  -3 63290.7 3768.55   3
   0   7   3 69252.2 3590.98   2
   0   7   3 60443.9 2284.70   4
   0  -7  -3 64872.4 2554.79   5
   0  -7  -4 704.228 456.542   3
   0   7   4 889.091 196.137   4
   0   7   4 1234.60 486.441   2
   0  -7  -4 1241.05 277.276   5
   0   7   4 1278.30 452.891   3
   0  -7  -5 12.2392 201.397   5
   0   7   5 210.129 384.107   2
   0   7   5 83.9260 128.650   4
   0  -7  -5-78.3944 375.009   3
   0   7   6 7997.28 722.107   4
   0  -7  -6 9699.82 935.951   5
   0   7   6 6984.29 1069.52   2
   0  -7  -6 8838.03 1222.87   3
   0   7   7 4597.28 849.283   2
   0  -7  -7 2928.88 676.699   3
   0  -7  -7 6100.86 816.207   5
   0   7   7 4450.15 591.696   4
   0  -7  -8 4912.27 790.278   5
   0   7   8 2568.38 719.564   2
   0  -7  -9 9445.78 1204.37   5
   0   7   9 9003.49 1263.68   2
   0  -7 -10 38965.2 2709.70   5
   0   7  10 31104.3 2486.98   2
   0  -7 -11 2093.28 789.570   5
   0   7  11 2595.86 739.352   2
   0  -7 -12 57007.4 3745.05   5
   0   7  12 46886.4 3325.61   2
   0  -7 -13 6959.95 1388.23   5
   0   7  13 5617.18 1154.02   2
   0  -7 -14 20333.5 2333.86   5
   0   7  14 16193.3 1953.90   2
   0  -7 -15 3413.39 1123.96   5
   0   8 -13 70443.9 4821.26   1
   0   8 -12 826.260 692.037   1
   0   8 -11 29983.0 2768.66   1
   0   8 -10 15956.4 1919.45   1
   0   8  -9 37492.3 2885.09   1
   0  -8   9 34653.6 2734.43   3
   0   8  -8 143.595 279.602   4
   0  -8   8 80.8971 515.406   3
   0  -8   7 19059.7 1989.55   3
   0  -8   6 2454.60 779.997   3
   0  -8   5 2967.22 443.314   4
   0  -8   5 3155.85 895.888   3
   0   8  -5 2021.05 682.116   2
   0   8  -5 3887.77 633.441   5
   0  -8   4 8151.03 1316.33   3
   0  -8   4 8115.18 646.345   4
   0   8  -4 7868.72 852.038   5
   0   8  -4 7823.60 1260.10   2
   0   8  -3 1263.66 303.564   5
   0  -8   3 1653.65 686.790   3
   0   8  -3 2576.44 687.667   2
   0   8  -2 8379.54 1150.41   2
   0   8  -2 6438.23 568.635   5
   0  -8   2 9891.39 1437.59   3
   0   8  -1 25122.2 2008.22   2
   0   8  -1 26559.5 1216.85   5
   0  -8   1 27952.1 2458.40   3
   0  -8   0 46209.9 3270.99   3
   0   8   0 46418.5 2806.40   2
   0   8   0 43353.8 1690.25   5
   0  -8  -1 9239.25 1333.09   3
   0   8   1 8904.94 1154.58   2
   0   8   2 36452.2 2482.44   2
   0  -8  -2 37730.0 2888.73   3
   0   8   3 75027.1 3942.99   2
   0  -8  -3 73656.7 2901.13   5
   0  -8  -3 71350.9 4282.69   3
   0  -8  -4 8.72308 166.406   5
   0   8   4 107.501 100.169   4
   0  -8  -4 694.344 547.300   3
   0   8   4-107.214 420.285   2
   0   8   5 44643.6 2771.61   2
   0  -8  -5 42671.3 1845.96   5
   0  -8  -5 42060.3 2923.17   3
   0   8   6 3028.99 728.048   2
   0  -8  -6 4631.92 585.456   5
   0  -8  -6 3309.68 846.546   3
   0   8   6 2490.83 380.652   4
   0  -8  -7 44862.0 3040.28   3
   0  -8  -7 54267.8 2619.40   5
   0   8   7 46633.4 3118.18   2
   0   8   8 2026.47 679.431   2
   0  -8  -8 804.783 405.259   3
   0  -8  -8 2487.73 558.987   5
   0  -8  -9 1922.91 582.747   5
   0   8   9 1962.31 792.035   2
   0   8  10 668.062 627.233   2
   0  -8 -10 62.2915 455.556   5
   0  -8 -11 5179.82 1021.40   5
   0   8  11 2687.78 819.455   2
   0   8  12-588.421 576.038   2
   0  -8 -12-171.819 569.405   5
   0   8  13 3.06339 629.322   2
   0  -8 -13 799.229 624.021   5
   0   8  14 16646.9 1997.00   2
   0   9 -11 47840.0 3733.45   1
   0   9 -10 6061.59 1311.67   1
   0  -9   9 27458.4 2532.57   3
   0   9  -9 28279.5 2590.54   1
   0  -9   8 3629.13 970.083   3
   0  -9   7 36332.4 2956.83   3
   0  -9   6 57797.2 3886.17   3
   0  -9   5 90689.8 5058.78   3
   0   9  -5 78759.0 4721.81   2
   0   9  -4 7445.36 1226.41   2
   0  -9   4 8999.08 1462.96   3
   0   9  -3 742.312 251.518   5
   0   9  -3 1048.49 540.699   2
   0  -9   3 1158.97 712.920   3
   0   9  -2 4964.04 934.458   2
   0   9  -2 3295.09 373.683   5
   0  -9   2 5840.90 1213.09   3
   0   9  -1 11103.4 623.660   5
   0  -9   1 10698.4 1581.29   3
   0   9  -1 12622.4 1405.97   2
   0   9   0 3407.29 745.970   2
   0  -9   0 3810.14 1063.30   3
   0  -9  -1 48339.7 3523.22   3
   0   9   1 51878.5 3123.09   2
   0   9   2 3213.53 745.505   2
   0  -9  -2 4068.76 1012.57   3
   0  -9  -3 53981.9 2147.68   5
   0   9   3 49928.7 3164.60   2
   0  -9  -3 46756.3 3504.31   3
   0  -9  -4 50579.3 2213.28   5
   0  -9  -4 55246.7 3711.47   3
   0   9   4 49956.4 3193.12   2
   0   9   5 4033.93 882.104   2
   0  -9  -5 4775.19 1076.03   3
   0  -9  -5 4134.52 502.682   5
   0  -9  -6 18020.1 1935.35   3
   0   9   6 16615.3 1737.27   2
   0  -9  -6 16672.5 1128.67   5
   0   9   7 44127.6 3109.81   2
   0  -9  -7 49891.2 2367.87   5
   0  -9  -7 39431.9 3016.41   3
   0   9   8 46443.1 3246.35   2
   0  -9  -8 50041.8 2568.87   5
   0  -9  -9 101649. 4488.84   5
   0   9   9 94107.8 5168.10   2
   0   9  10 14650.6 1777.45   2
   0   9  11 68984.8 4268.02   2
   0   9  12 7177.61 1307.37   2
   0   9  13 32009.1 2793.00   2
   0  10 -10 2400.62 1125.83   1
   0  10  -9 421.696 667.241   1
   0 -10   9 481.558 690.778   3
   0 -10   8-254.340 691.520   3
   0 -10   7 19857.7 2210.13   3
   0 -10   6 36156.4 3081.57   3
   0  10  -5 41832.7 3210.92   2
   0 -10   5 48106.0 3573.52   3
   0  10  -4 387.803 456.209   2
   0 -10   4 125.835 497.850   3
   0 -10   3 48129.4 3671.98   3
   0  10  -3 48404.7 3230.58   2
   0  10  -2 6267.38 1059.76   2
   0 -10   2 5676.43 1250.87   3
   0 -10   1 101458. 5805.61   3
   0  10  -1 104319. 5190.04   2
   0  10   0 38049.6 2671.77   2
   0 -10   0 35182.7 3060.38   3
   0 -10  -1 77587.0 4845.31   3
   0  10   1 78167.2 4226.89   2
   0 -10  -2 41023.6 3305.77   3
   0  10   2 38828.0 2752.99   2
   0 -10  -3 3150.29 933.836   3
   0  10   3 3682.38 831.417   2
   0 -10  -4 21172.2 2299.40   3
   0  10   4 22829.3 2049.27   2
   0  10   5 2768.74 795.929   2
   0 -10  -5 3179.98 927.070   3
   0 -10  -6 25720.5 2515.88   3
   0  10   6 32993.4 2568.52   2
   0 -10  -7 1331.29 671.439   3
   0  10   7 486.080 496.155   2
   0  10   8-177.368 484.073   2
   0  10   9 2412.19 845.314   2
   0  10  10 204.480 523.060   2
   0  10  11 5354.36 1177.77   2
   0  10  12 1660.11 888.648   2
   0  11  -9-130.007 707.149   1
   0 -11   8 54956.7 4035.87   3
   0 -11   7 1009.42 812.263   3
   0 -11   6 21688.7 2462.03   3
   0 -11   5 1744.51 938.485   3
   0  11  -5 1738.35 727.821   2
   0 -11   4 24929.4 2635.06   3
   0  11  -4 23849.2 2258.78   2
   0  11  -3-484.205 496.980   2
   0 -11   3-89.4122 543.135   3
   0  11  -2 900.675 580.160   2
   0 -11   2 1536.80 848.072   3
   0 -11   1 4355.50 1207.16   3
   0  11  -1 6648.94 1160.94   2
   0  11   0 2497.69 771.380   2
   0 -11   0 3164.18 1041.51   3
   0 -11  -1 4205.82 1164.97   3
   0  11   1 5961.02 1041.17   2
   0  11   2 5753.58 1051.75   2
   0 -11  -2 6609.19 1395.81   3
   0  11   3 26829.1 2311.68   2
   0 -11  -3 25601.6 2690.19   3
   0  11   4 23086.3 2152.57   2
   0 -11  -4 20194.0 2318.60   3
   0 -11  -5 15030.8 2004.02   3
   0  11   5 16782.5 1820.88   2
   0 -11  -6 30108.6 2831.20   3
   0  11   6 35204.9 2743.92   2
   0  11   7 336.007 506.029   2
   0 -11  -7 211.852 687.776   3
   0  11   8 14646.3 1765.13   2
   0  11   9-57.4950 509.744   2
   0  11  10 35577.3 2945.44   2
   0 -12   7 307.113 639.880   3
   0 -12   6 5526.93 1360.57   3
   0  12  -5-944.593 740.664   2
   0 -12   5-2595.55 994.977   3
   0 -12   4 64517.5 4584.80   3
   0  12  -4 63313.7 4055.96   2
   0 -12   3 7953.09 1606.46   3
   0  12  -3 9353.59 1417.02   2
   0  12  -2 7018.86 1240.25   2
   0 -12   2 6000.90 1376.55   3
   0 -12   1 36018.2 3321.65   3
   0  12  -1 33571.6 2756.69   2
   0 -12   0 10485.8 1847.05   3
   0  12   0 12820.2 1638.80   2
   0  12   1 7121.27 1183.38   2
   0 -12  -1 6758.32 1379.04   3
   0  12   2 834.804 573.873   2
   0 -12  -2-266.455 604.014   3
   0  12   3 28382.0 2449.40   2
   0 -12  -3 29448.3 2910.91   3
   0  12   4 5338.32 1087.66   2
   0 -12  -4 2524.08 1040.43   3
   0  12   5 25886.0 2379.71   2
   0 -12  -5 25452.9 2685.24   3
   0  12   6 1026.88 655.385   2
   0 -12  -6 2643.35 871.806   3
   0  12   7 2419.58 927.246   2
   0  13  -5 3172.09 826.327   2
   0  13  -4 6063.23 1305.82   2
   0 -13   4 6344.04 1469.24   3
   0  13  -3 9295.16 1481.37   2
   0 -13   3 10667.2 1853.66   3
   0 -13   2 47489.8 3999.34   3
   0  13  -2 44300.0 3295.32   2
   0  13  -1 895.646 731.153   2
   0 -13   1 955.993 778.432   3
   0  13   0 20068.6 2102.02   2
   0 -13   0 20776.0 2554.95   3
   0 -13  -1 3560.11 1150.98   3
   0  13   1 1083.47 627.999   2
   0 -13  -2 58799.8 4535.47   3
   0  13   2 65380.7 4092.72   2
   0  13   3 16151.9 1880.92   2
   0 -13  -3 15442.7 2213.07   3
   0 -13  -4 46153.1 3856.12   3
   0  13   4 46098.9 3334.97   2
   0 -13  -5 11989.5 1946.70   3
   0  14  -4 326.823 579.305   2
   0  14  -3 23636.8 2425.64   2
   0  14  -2 990.963 712.863   2
   0 -14  -3-2282.48 988.213   3
   0 -14  -4 1169.34 803.174   3
  -1  14  -1 1128.15 611.154   2
  -1  14  -2 5262.72 1125.93   2
  -1  14  -3 1689.81 759.908   2
  -1  14  -4 13044.5 1756.47   2
  -1  13   4 3085.19 878.381   2
  -1  13   3 12849.3 1670.85   2
  -1  13   2 5890.15 1178.31   2
  -1  13   1 23137.1 2253.48   2
  -1  13   0 6433.04 1188.89   2
  -1  13  -1 19321.6 2060.83   2
  -1  13  -2-8.86091 482.209   2
  -1  13  -3-859.148 602.357   2
  -1  13  -4 1115.08 606.250   2
  -1  13  -5-936.203 660.762   2
  -1  12   7 5399.56 1213.18   2
  -1  12   6 8666.63 1461.34   2
  -1  12   5-983.274 663.023   2
  -1  12   4 2671.44 954.862   2
  -1  12   3 9561.85 1441.74   2
  -1  12   2 19351.2 2001.10   2
  -1  12   1 8978.80 1409.03   2
  -1  12   0 28482.3 2419.28   2
  -1  12  -1 98954.4 5179.16   2
  -1  12  -2 2819.51 901.867   2
  -1  12  -3 16075.9 1810.92   2
  -1  12  -4 811.147 668.547   2
  -1  12  -5 92650.5 5018.31   2
  -1  12  -6 859.666 625.604   2
  -1  12  -7 13306.4 2005.15   1
  -1  11   9 53884.0 3890.65   2
  -1  11   8 3020.68 886.065   2
  -1  11   7 30962.2 2773.08   2
  -1  11   6 69438.0 4351.65   2
  -1  11   5 35318.2 2879.12   2
  -1  11   4 8544.89 1366.39   2
  -1  11   3 2316.30 729.420   2
  -1  11   2 46802.9 3205.94   2
  -1  11   1 665.289 573.956   2
  -1  11   0 2707.42 779.925   2
  -1  11  -1 64.1031 371.162   2
   1 -11   1 498.770 599.504   3
  -1  11  -2 5571.78 1074.73   2
   1 -11   2 3029.06 1066.40   3
  -1  11  -3 21053.7 2029.16   2
  -1  11  -4 7040.72 1158.72   2
  -1  11  -5 824.226 553.611   2
  -1  11  -6 2095.08 707.558   2
  -1  11  -7 45957.4 3511.57   1
  -1  11  -8 1928.53 912.365   1
  -1  11  -9 27494.7 2843.31   1
  -1  10  11 10504.8 1662.19   2
  -1  10  10 7201.08 1383.86   2
  -1  10   9 4176.41 1019.44   2
  -1  10   8 2122.21 868.327   2
  -1  10   7 1992.05 745.773   2
  -1  10   6 675.183 664.656   2
  -1  10   5 13128.3 1647.54   2
  -1  10   4 2281.18 770.299   2
   1 -10  -4 1964.85 480.283   5
   1 -10  -3 19246.8 1426.48   5
  -1  10   3 18675.0 1912.20   2
   1 -10  -2 71197.2 3212.92   5
  -1  10   2 70188.8 4047.81   2
  -1  10   1 13530.9 1526.76   2
   1 -10  -1 12180.8 1800.24   3
   1 -10   0 12782.5 1863.61   3
  -1  10   0 14035.9 1565.67   2
  -1  10  -1 6648.40 1055.96   2
   1 -10   1 5745.15 1235.88   3
   1 -10   2 63636.8 4338.94   3
  -1  10  -2 64381.9 3658.81   2
  -1  10  -3 2069.35 581.639   2
   1 -10   3 2711.69 896.672   3
  -1  10  -4 9902.48 1340.68   2
   1 -10   4 9882.60 1619.59   3
  -1  10  -5 1428.12 573.135   2
  -1  10  -6 12488.8 1570.27   2
  -1  10  -7 3623.38 986.334   1
  -1  10  -8 1882.76 806.428   1
  -1  10  -9 989.797 759.343   1
  -1  10 -10 8886.12 1535.78   1
  -1   9  12 56283.6 3947.10   2
   1  -9 -11 2983.84 858.429   5
  -1   9  11 2118.66 781.949   2
   1  -9 -10 19625.8 1852.54   5
  -1   9  10 17874.0 2022.96   2
  -1   9   9 12551.0 1629.25   2
   1  -9  -9 12716.1 1379.54   5
  -1   9   8 4711.38 1005.96   2
   1  -9  -8 4132.62 774.237   5
  -1   9   7 6130.87 1161.11   2
   1  -9  -7 6384.10 862.493   5
  -1   9   6 25154.7 2235.39   2
   1  -9  -6 23150.2 1609.69   5
  -1   9   5 20511.5 1969.17   2
   1  -9  -5 19313.3 1380.93   5
   1  -9  -4 13533.6 1106.22   5
  -1   9   4 12681.1 1554.77   2
  -1   9   3 8974.59 1249.49   2
   1  -9  -3 11605.7 1026.81   5
  -1   9   3 9409.99 535.850   4
  -1   9   2 2251.05 426.212   5
  -1   9   2 1460.20 551.233   2
   1  -9  -2 1581.69 776.413   3
   1  -9  -2 1403.45 435.436   5
   1  -9  -1 6978.54 1303.10   3
  -1   9   1 9062.14 1225.31   2
  -1   9   1 8327.27 752.594   5
  -1   9   0 537.663 394.985   2
  -1   9   0 777.542 251.834   5
   1  -9   0 1444.80 608.045   3
  -1   9  -1 25356.9 1993.24   2
   1  -9   1 24345.5 2395.03   3
  -1   9  -1 21863.3 1344.20   5
  -1   9  -2 42138.8 2092.73   5
  -1   9  -2 42326.8 2720.50   2
   1  -9   2 40249.6 3186.71   3
  -1   9  -3 118225. 4576.50   5
   1  -9   3 120132. 6125.69   3
  -1   9  -3 107605. 3799.10   4
   1  -9   4 102572. 5485.60   3
  -1   9  -4 106364. 4926.39   2
  -1   9  -4 92908.0 3447.50   4
  -1   9  -5 289.763 411.574   2
  -1   9  -5 196.760 176.217   4
  -1   9  -6 46519.7 2124.28   4
  -1   9  -6 45422.0 3177.16   2
  -1   9  -7 20666.1 2040.49   1
  -1   9  -7 19778.7 1287.00   4
  -1   9  -8 120382. 6058.66   1
  -1   9  -8 117680. 4758.64   4
  -1   9  -9 35976.8 2933.84   1
  -1   9  -9 32563.5 1978.76   4
  -1   9 -10 59306.1 4035.59   1
  -1   9 -10 54863.9 2915.36   4
  -1   9 -11 759.580 435.966   4
  -1   9 -11 1316.58 917.459   1
  -1   8  13 2812.27 1010.81   2
   1  -8 -13 1533.73 895.006   5
   1  -8 -12 1708.09 883.304   5
  -1   8  12 4254.88 1090.39   2
   1  -8 -11 17928.2 1973.76   5
  -1   8  11 17088.7 1893.48   2
  -1   8  10 18013.2 1915.33   2
   1  -8 -10 20967.2 2018.83   5
  -1   8   9 1335.97 628.657   2
   1  -8  -9 2467.09 755.712   5
   1  -8  -8 111510. 5074.80   5
  -1   8   8 101468. 5238.74   2
   1  -8  -7 27230.3 1937.43   5
  -1   8   7 25804.3 2191.93   2
  -1   8   6 47921.2 3079.79   2
   1  -8  -6 49923.9 2671.59   5
  -1   8   5 41520.5 2734.79   2
  -1   8   5 38675.2 1849.01   4
   1  -8  -5 40442.8 2229.87   5
   1  -8  -4 115338. 4190.06   5
  -1   8   4 119954. 5066.70   2
   1  -8  -3 44404.4 2129.79   5
  -1   8   3 45909.3 2791.90   2
   1  -8  -2 42481.9 2125.82   5
  -1   8   2 37184.4 1420.96   4
  -1   8   2 36734.9 2528.47   2
   1  -8  -2 40573.4 2914.23   3
  -1   8   1 53064.5 2640.00   5
   1  -8  -1 75160.2 4191.86   3
  -1   8   1 73104.9 3691.85   2
  -1   8   1 58183.7 2125.48   4
   1  -8  -1 83892.7 3244.84   5
  -1   8   1 64002.6 2172.90   4
  -1   8   0 60257.4 3111.84   2
   1  -8   0 49118.4 3292.72   3
   1  -8   1 39457.8 2892.10   3
  -1   8  -1 44056.8 2561.44   2
  -1   8  -1 28841.0 1664.59   5
  -1   8  -1 31761.4 1176.87   4
   1  -8   2 11243.1 1503.02   3
  -1   8  -2 10461.5 550.045   4
  -1   8  -2 11016.3 1225.38   2
  -1   8  -2 7695.50 787.331   5
  -1   8  -3 21054.1 1741.23   2
   1  -8   3 20346.2 2063.95   3
  -1   8  -3 21563.8 1469.23   5
  -1   8  -3 20742.5 1015.31   4
  -1   8  -4 5784.10 508.951   4
  -1   8  -4 5471.82 777.611   5
  -1   8  -4 7177.97 1010.49   2
   1  -8   4 5444.91 1123.35   3
   1  -8   5 1653.75 674.528   3
  -1   8  -5 1800.61 341.551   4
  -1   8  -5 1531.88 517.207   2
  -1   8  -6 3864.45 515.646   4
  -1   8  -6 4269.03 865.520   2
  -1   8  -7 682.871 546.468   1
  -1   8  -7 321.972 236.178   4
  -1   8  -8 15437.2 1752.34   1
  -1   8  -8 16139.2 1255.53   4
  -1   8  -9 10462.4 1546.90   1
  -1   8  -9 10596.8 1084.03   4
  -1   8 -10 23985.3 1776.88   4
  -1   8 -10 22517.3 2314.96   1
  -1   8 -11 10698.1 1667.32   1
  -1   8 -11 7503.94 1020.35   4
  -1   8 -12 18294.2 1698.77   4
  -1   8 -12 22924.5 2506.90   1
  -1   8 -13 679.241 533.642   4
  -1   8 -13 1579.50 891.554   1
  -1   8 -14 43108.8 2995.86   4
  -1   7  14 7959.54 1349.60   2
   1  -7 -14 10944.8 1888.53   5
   1  -7 -13 68896.8 4717.10   5
   1  -7 -12 3079.72 1011.43   5
   1  -7 -11 34726.8 2943.15   5
   1  -7 -10 1551.89 675.642   5
   1  -7  -9 42304.7 2932.44   5
   1  -7  -8 33237.8 2426.40   5
   1  -7  -7 5247.32 855.877   5
  -1   7   6 1625.77 377.288   4
   1  -7  -6 1668.78 475.199   5
  -1   7   5 15140.3 1061.76   4
  -1   7   5 18458.4 1433.28   3
   1  -7  -5 19045.5 1447.26   5
  -1   7   4 21429.7 1577.19   3
   1  -7  -4 17492.6 1269.69   5
  -1   7   3 5918.87 684.891   5
  -1   7   3 4945.92 834.124   2
  -1   7   3 5325.51 477.930   4
   1  -7  -3 4490.08 614.928   5
   1  -7  -2 12798.8 1484.09   3
  -1   7   2 14722.8 1384.55   2
  -1   7   2 13150.2 724.623   4
  -1   7   2 14713.9 1070.48   5
   1  -7  -2 12207.9 1028.27   5
   1  -7  -1 9127.92 922.235   5
  -1   7   1 11362.3 898.012   5
  -1   7   1 11895.3 1254.09   2
  -1   7   1 10089.4 557.718   4
   1  -7  -1 9333.21 1282.72   3
  -1   7   0 34121.9 2265.82   2
  -1   7   0 32450.1 1349.24   4
   1  -7   0 35693.4 1921.81   5
  -1   7   0 38855.4 1845.69   5
   1  -7   0 28752.8 2386.29   3
  -1   7  -1 41295.2 1621.96   4
  -1   7  -1 43969.7 2115.23   5
  -1   7  -1 46062.1 2647.45   2
  -1   7  -2 5085.59 414.713   4
  -1   7  -2 5092.28 794.008   2
  -1   7  -2 4987.51 640.187   5
   1  -7   2 5244.50 999.221   3
  -1   7  -3 66143.3 2578.85   4
   1  -7   3 65619.8 3842.33   3
  -1   7  -3 64049.3 3146.60   5
  -1   7  -3 67531.8 3405.38   2
  -1   7  -4 44301.0 2713.79   2
  -1   7  -4 44087.3 1998.52   4
  -1   7  -4 46843.9 2633.59   5
   1  -7   4 46154.0 3039.31   3
   1  -7   5 46621.3 3063.85   3
  -1   7  -5 48599.1 2784.98   5
  -1   7  -5 44874.0 2921.82   2
   1  -7   5 46223.5 2392.52   4
  -1   7  -5 47070.6 2178.00   4
  -1   7  -6 13948.2 1409.30   2
  -1   7  -6 15499.6 1116.50   4
  -1   7  -6 14531.2 1498.38   1
  -1   7  -7 23424.7 1536.82   4
  -1   7  -7 24052.6 2027.29   1
  -1   7  -8-23.9392 261.037   4
  -1   7  -8 38.3066 455.863   1
  -1   7  -9 5122.68 790.230   4
  -1   7  -9 6872.15 1170.79   1
  -1   7 -10 1275.13 709.936   1
  -1   7 -10 328.622 382.237   4
  -1   7 -11 984.540 691.624   1
  -1   7 -11 621.641 450.311   4
  -1   7 -12 4544.34 1224.49   1
  -1   7 -12 4057.61 863.790   4
  -1   7 -13 16229.0 1730.77   4
  -1   7 -13 13378.3 1959.48   1
  -1   7 -14 11905.1 1562.67   4
   1  -6 -14 14349.4 2130.71   5
   1  -6 -13 29184.9 2951.95   5
   1  -6 -12 3225.38 982.016   5
   1  -6 -11 12374.1 1691.33   5
   1  -6 -10 4338.87 913.113   5
   1  -6  -9 138685. 6445.43   5
   1  -6  -8 1860.60 612.926   5
   1  -6  -7 58484.7 3329.04   5
  -1   6   7 65498.0 2869.07   3
  -1   6   6 28046.2 1668.67   3
  -1   6   6 25051.4 1534.97   4
   1  -6  -6 25368.5 1839.87   5
  -1   6   5 5456.20 722.543   3
   1  -6  -5 4484.86 699.564   5
  -1   6   5 5135.55 581.450   4
  -1   6   4 7640.93 649.421   4
   1  -6  -4 8210.23 876.539   5
  -1   6   3 37240.7 1959.40   5
   1  -6  -3 35027.2 1960.15   5
  -1   6   3 34602.2 1594.23   4
  -1   6   2 107445. 4081.93   5
  -1   6   2 96084.6 3569.33   4
   1  -6  -2 101001. 4651.41   3
   1  -6  -2 100552. 4092.14   5
   1  -6  -1 7511.01 1033.20   3
   1  -6  -1 7391.24 763.835   5
  -1   6   1 9767.73 1058.08   3
  -1   6   1 10138.8 824.924   5
  -1   6   1 9345.22 1007.25   2
  -1   6   0 74918.2 3125.85   5
  -1   6   0 82917.5 3785.66   3
   1  -6   0 79822.8 3415.30   5
  -1   6   0 69829.2 3544.81   2
  -1   6   0 72382.3 2787.27   4
   1  -6   0 72906.0 3822.84   3
   1  -6   1 139.636 281.899   3
  -1   6  -1 55.3415 236.572   2
  -1   6  -1 300.497 119.304   4
  -1   6  -1 262.667 168.353   5
   1  -6   2 1548.73 553.686   3
  -1   6  -2 532.817 330.342   2
  -1   6  -2 932.995 318.060   5
  -1   6  -2 587.794 171.371   4
  -1   6  -3 4016.69 670.369   2
   1  -6   3 3690.39 755.642   3
  -1   6  -3 4169.16 647.903   5
  -1   6  -3 3638.08 416.074   4
  -1   6  -4 80202.8 3175.37   4
   1  -6   4 75498.7 3979.08   3
  -1   6  -4 82091.0 3839.17   5
   1  -6   4 79886.4 3434.22   4
  -1   6  -4 74772.5 3800.50   2
   1  -6   5 8681.44 897.001   4
  -1   6  -5 7022.17 952.814   2
  -1   6  -5 8712.54 1054.12   5
  -1   6  -5 6993.12 723.104   4
  -1   6  -6 81867.1 3803.23   2
  -1   6  -6 87578.7 3631.66   4
  -1   6  -6 80423.1 4066.11   1
  -1   6  -7 188872. 7765.33   1
  -1   6  -7 191581. 7210.38   4
  -1   6  -8 30190.8 1942.53   4
  -1   6  -8 28434.5 2241.53   1
  -1   6  -9 26877.0 2251.87   1
  -1   6  -9 28462.8 1960.94   4
  -1   6 -10 3241.34 698.752   4
  -1   6 -10 3512.81 910.661   1
  -1   6 -11 204893. 8834.31   1
  -1   6 -11 195443. 8114.11   4
  -1   6 -12 3904.18 898.040   4
  -1   6 -12 4509.40 1113.99   1
  -1   6 -13 30622.4 2468.16   4
  -1   6 -13 25521.9 2597.59   1
  -1   6 -14 5895.84 1184.40   4
  -1   6 -15 26667.6 2560.56   4
   1  -5 -14 7214.90 1559.56   5
   1  -5 -13 2773.08 953.274   5
   1  -5 -12 16134.5 2103.86   5
   1  -5 -11 2577.57 902.547   5
   1  -5 -10 12591.2 1617.65   5
   1  -5  -9 12380.8 1502.11   5
  -1   5   9 10335.4 958.692   1
   1  -5  -8 333.083 521.176   5
   1  -5  -7 101979. 4964.83   5
  -1   5   7 111519. 4145.27   3
  -1   5   6 24651.4 1504.06   4
  -1   5   6 23784.1 1396.13   3
   1  -5  -6 23328.5 1749.45   5
   1  -5  -5 34447.0 2107.72   5
  -1   5   5 39360.5 1977.41   3
  -1   5   5 33178.4 1772.07   4
   1  -5  -4 7301.78 813.123   5
  -1   5   4 8879.89 873.234   3
  -1   5   4 8020.22 677.151   4
  -1   5   3 259458. 9109.97   5
   1  -5  -3 251568. 9084.34   5
  -1   5   3 244684. 8636.17   4
  -1   5   2 2156.74 398.044   5
  -1   5   2 1904.63 442.673   3
   1  -5  -2 2492.90 456.021   5
  -1   5   2 2305.33 291.574   4
  -1   5   1 79714.2 3252.38   5
   1  -5  -1 76158.3 3619.16   3
   1  -5  -1 77711.3 3347.05   5
   1  -5   0 200658. 7764.39   3
   1  -5   0 198811. 7438.82   5
  -1   5   0 205422. 7540.76   2
  -1   5   0 205142. 7223.20   5
  -1   5  -1 158710. 5553.89   4
  -1   5  -1 158393. 6223.99   2
   1  -5   1 159202. 6033.87   5
  -1   5  -1 163153. 5976.20   5
   1  -5   1 161563. 6442.64   3
  -1   5  -2 12331.3 1095.04   5
  -1   5  -2 12391.3 1116.78   2
  -1   5  -2 12122.6 773.055   4
   1  -5   2 11885.4 1181.40   3
   1  -5   3 64784.6 3338.72   3
  -1   5  -3 65543.6 2713.27   4
  -1   5  -3 71582.8 3199.53   2
  -1   5  -3 69454.8 3329.83   5
  -1   5  -4 136440. 5747.41   5
   1  -5   4 138377. 5419.43   4
  -1   5  -4 140964. 5173.53   4
  -1   5  -4 154516. 6035.04   3
  -1   5  -4 133403. 5704.39   2
   1  -5   4 135738. 5757.80   3
  -1   5  -5 818.168 314.941   4
   1  -5   5 785.725 371.533   4
  -1   5  -5 777.005 433.044   1
  -1   5  -5 667.837 358.948   2
  -1   5  -6 1684.74 490.899   1
  -1   5  -6 2188.11 458.768   4
  -1   5  -7 63.5007 300.972   4
  -1   5  -7 80.4462 318.058   1
  -1   5  -8 25564.2 1809.10   4
  -1   5  -8 23809.8 1955.83   1
  -1   5  -9 10732.4 1318.19   1
  -1   5  -9 10688.5 1185.04   4
  -1   5 -10 4456.74 853.832   4
  -1   5 -10 4338.72 950.555   1
  -1   5 -11 19859.4 1992.59   1
  -1   5 -11 21611.1 1913.45   4
  -1   5 -12 13279.2 1658.05   1
  -1   5 -12 11765.2 1459.33   4
  -1   5 -13 31122.0 2601.17   4
  -1   5 -14 4744.19 1158.28   4
  -1   5 -15 22707.9 2383.65   4
   1  -4 -15 28149.5 3196.06   5
   1  -4 -14 4822.92 1393.22   5
   1  -4 -13 41509.8 3601.64   5
   1  -4 -12 64290.4 4452.61   5
   1  -4 -11 11677.7 1681.41   5
  -1   4  10 80350.7 3521.68   1
   1  -4 -10 88969.1 4881.70   5
   1  -4  -9 15275.3 1702.78   5
  -1   4   9 15080.7 1124.54   1
   1  -4  -8 94510.1 4785.77   5
  -1   4   8 95623.3 3861.68   1
   1  -4  -7 2293.20 628.368   5
  -1   4   6 65470.3 2545.42   3
   1  -4  -6 57726.0 3178.16   5
  -1   4   6 57779.4 2776.05   4
   1  -4  -5 23143.4 1643.20   5
  -1   4   5 26238.8 1410.42   3
  -1   4   5 22610.2 1390.96   4
   1  -4  -4 33494.5 1933.65   5
  -1   4   4 33043.7 1664.67   4
  -1   4   4 35407.6 1777.15   3
   1  -4  -3 1182.84 347.842   5
  -1   4   3 681.500 251.459   5
  -1   4   3 1155.53 329.841   3
  -1   4   3 979.377 224.507   4
  -1   4   2 68809.6 2887.69   3
   1  -4  -2 62920.6 2856.67   5
  -1   4   2 66887.7 2896.90   5
  -1   4   1 11360.8 862.191   5
  -1   4   1 10484.4 871.131   3
   1  -4  -1 9432.80 830.733   5
  -1   4   0 16381.2 1069.08   5
   1  -4   0 17163.0 1234.54   5
   1  -4   1 146839. 5478.52   5
  -1   4  -1 139398. 5302.45   5
  -1   4  -1 134570. 4964.48   4
  -1   4  -2 4106.54 444.206   4
  -1   4  -2 4459.79 612.478   2
  -1   4  -2 4643.50 656.276   5
  -1   4  -3 5833.85 678.289   2
   1  -4   3 7666.80 781.399   4
  -1   4  -3 8387.81 916.099   5
  -1   4  -3 7195.85 639.845   4
   1  -4   4 132125. 5381.86   4
  -1   4  -4 138062. 5460.44   2
  -1   4  -4 146973. 5686.60   3
  -1   4  -4 145768. 5273.03   4
  -1   4  -5 39544.6 1955.37   2
  -1   4  -5 44394.7 2192.22   4
   1  -4   5 41893.6 2231.29   4
  -1   4  -5 45265.2 2481.12   3
  -1   4  -6 83392.9 4010.58   3
  -1   4  -6 83527.0 3708.13   4
  -1   4  -7 28410.8 1883.49   4
   1  -4   7 27851.7 1915.67   4
  -1   4  -7 25912.8 2003.92   3
  -1   4  -7 28602.6 1939.82   1
   1  -4   8 129640. 4840.80   2
  -1   4  -8 125816. 5618.72   1
  -1   4  -8 137423. 6003.68   3
  -1   4  -8 136066. 5683.67   4
   1  -4   9 1600.03 310.953   2
  -1   4  -9 2509.16 654.048   4
  -1   4  -9 1664.53 569.673   1
  -1   4 -10 10731.2 1338.47   1
  -1   4 -10 12401.1 1396.09   4
  -1   4 -11 4068.79 901.067   1
  -1   4 -11 4256.36 914.909   4
  -1   4 -12 16872.2 1844.03   4
  -1   4 -13-69.2453 680.321   4
  -1   4 -14 1724.69 876.969   4
  -1   4 -15 1369.91 794.830   4
   1  -3 -15 18640.1 2655.16   5
   1  -3 -14 10930.4 1931.53   5
   1  -3 -13 2600.68 1030.26   5
   1  -3 -12 93.5537 612.554   5
   1  -3 -11 18189.8 2127.08   5
   1  -3 -10 43525.7 3245.46   5
  -1   3   9 759.865 294.863   1
   1  -3  -9 1299.23 562.312   5
  -1   3   8 21248.3 1268.19   1
   1  -3  -8 22296.0 1960.21   5
  -1   3   7 12080.8 860.612   1
   1  -3  -7 11778.3 1319.60   5
  -1   3   6 284639. 9018.44   3
  -1   3   6 269408. 9266.58   1
   1  -3  -6 270268. 10202.4   5
  -1   3   6 253510. 9601.14   4
  -1   3   5 18651.4 1242.95   4
   1  -3  -5 18809.3 1482.74   5
  -1   3   5 21386.6 1069.28   3
  -1   3   4 142940. 4860.04   3
  -1   3   4 126861. 4977.36   4
   1  -3  -4 135800. 5355.53   5
  -1   3   3 4817.00 471.636   3
  -1   3   3 5503.93 643.009   5
   1  -3  -3 4816.39 606.350   5
  -1   3   3 5001.94 487.091   4
  -1   3   2 5265.52 498.352   3
   1  -3  -2 4575.44 584.020   5
  -1   3   2 6040.43 631.910   5
   1  -3  -1 144514. 5433.41   5
  -1   3   1 148387. 5303.95   3
  -1   3   1 151758. 5430.88   5
   1  -3   0 70410.8 3020.67   5
  -1   3   0 71433.1 2917.36   5
  -1   3  -1 110928. 4326.67   4
   1  -3   1 124790. 4850.66   5
  -1   3  -1 116334. 4574.42   5
  -1   3  -2 84675.2 3404.58   4
  -1   3  -2 91384.7 3461.66   2
  -1   3  -2 92849.2 3980.28   5
  -1   3  -3 6571.41 622.214   4
  -1   3  -3 6461.81 774.134   5
   1  -3   3 6081.63 665.714   4
  -1   3  -3 6253.33 602.302   2
  -1   3  -4 6205.41 659.014   4
  -1   3  -4 6048.19 699.111   3
   1  -3   4 6047.08 685.342   4
  -1   3  -4 6536.60 586.385   2
  -1   3  -5 24678.1 1556.11   4
   1  -3   5 25275.7 1616.09   4
  -1   3  -5 24788.9 1590.39   3
  -1   3  -6 52972.1 2682.28   4
  -1   3  -6 49603.7 2652.95   3
   1  -3   6 52309.4 2128.45   2
   1  -3   7 49584.4 2693.88   4
   1  -3   7 43384.1 1872.07   2
  -1   3  -7 47083.9 2602.61   3
  -1   3  -7 41916.6 2430.05   1
  -1   3  -7 51456.1 2704.40   4
  -1   3  -8 60348.2 3154.32   1
   1  -3   8 61418.3 2387.33   2
  -1   3  -8 58822.8 3257.86   3
  -1   3  -8 66217.4 3383.49   4
   1  -3   9 118955. 4297.99   2
  -1   3  -9 136675. 5790.86   3
  -1   3  -9 118930. 5330.62   1
  -1   3  -9 133630. 5728.52   4
  -1   3 -10 44381.0 2970.49   3
  -1   3 -10 44925.7 2911.94   4
   1  -3  10 42286.4 1724.56   2
  -1   3 -11 5297.57 1009.22   4
  -1   3 -12 64213.8 3989.64   4
  -1   3 -13 53099.2 3716.65   4
  -1   3 -14 83195.5 5092.51   4
  -1   3 -15 26889.8 2785.61   4
   1  -2 -15 22947.5 2988.12   5
   1  -2 -14 27208.8 3141.32   5
   1  -2 -13 33408.9 3291.21   5
   1  -2 -12 8482.94 1519.28   5
   1  -2 -11 78844.6 4927.67   5
   1  -2 -10 12373.2 1643.28   5
   1  -2  -9 1247.86 557.977   5
   1  -2  -8 23290.2 2026.92   5
   1  -2  -7 3416.48 718.913   5
  -1   2   7 3194.05 410.529   1
  -1   2   6 1097.44 229.347   1
  -1   2   6 1671.73 394.540   4
   1  -2  -6 1183.01 489.583   5
   1  -2  -5 136322. 5616.79   5
  -1   2   5 144137. 4601.59   3
  -1   2   5 131238. 4728.65   1
  -1   2   5 127346. 5146.07   4
  -1   2   4 30253.8 1240.91   1
   1  -2  -4 29467.8 1789.03   5
  -1   2   4 30459.7 1217.72   3
  -1   2   4 28753.9 1554.37   4
   1  -2  -3 5326.45 625.662   5
  -1   2   3 6003.07 539.533   4
   1  -2  -2 226348. 7936.36   5
   1  -2  -1 174980. 6241.19   5
   1  -2   0 218851. 7636.76   5
  -1   2  -1 13737.2 767.324   1
   1  -2   1 15269.1 1199.01   5
  -1   2  -2 247294. 8538.34   4
  -1   2  -3 20082.7 1198.67   4
  -1   2  -3 18148.2 927.847   2
  -1   2  -4 81450.3 3446.36   4
  -1   2  -4 82279.0 3275.16   3
  -1   2  -5 140334. 5270.99   3
  -1   2  -5 141987. 5527.81   4
  -1   2  -6 243944. 8732.84   4
  -1   2  -6 226713. 8331.84   3
  -1   2  -7 25585.2 1875.52   4
   1  -2   7 25447.8 1065.45   2
   1  -2   7 29569.9 1980.38   4
  -1   2  -7 29805.1 1746.56   3
  -1   2  -8 1052.79 401.864   3
  -1   2  -8 965.446 458.028   4
   1  -2   8 748.764 155.885   2
  -1   2  -9 11043.2 1209.94   3
   1  -2   9 10192.2 599.257   2
  -1   2  -9 11155.8 1310.43   4
   1  -2  10 13000.3 719.289   2
  -1   2 -10 12456.1 1348.59   3
  -1   2 -10 15589.7 1640.94   4
  -1   2 -11 10585.8 1293.51   3
  -1   2 -11 15044.5 1695.66   4
  -1   2 -12 7658.78 1330.86   4
  -1   2 -13-43.6600 548.926   4
  -1   2 -14 22814.7 2492.73   4
  -1   2 -15 9273.70 1714.62   4
   1  -1 -15 813.133 968.647   5
   1  -1 -14 21535.4 2884.22   5
   1  -1 -13 10762.2 1909.79   5
   1  -1 -12 40995.7 3604.19   5
   1  -1 -11 527.808 585.292   5
   1  -1 -10 104133. 5734.97   5
   1  -1  -9 84937.2 4814.35   5
   1  -1  -8 2120.64 689.036   5
   1  -1  -7 147145. 6462.67   5
   1  -1  -6 40701.4 2541.14   5
   1  -1  -5 178834. 7039.48   5
   1  -1  -4 1241.23 382.069   5
   1  -1  -3 114621. 4488.29   5
   1  -1  -2 13330.9 931.427   5
   1  -1  -1 2002.36 312.185   5
   1  -1   0 1847.27 175.272   1
   1  -1   0 1532.27 297.680   5
   1  -1   1 151685. 5942.38   5
   1  -1   1 160257. 5333.51   1
  -1   1  -2 38805.5 1916.21   4
   1  -1   2 39755.9 1659.94   1
  -1   1  -3 8455.56 766.066   4
   1  -1   3 10258.8 715.827   1
  -1   1  -4 37616.0 2102.26   4
   1  -1   4 48740.8 2071.89   1
  -1   1  -5 548.282 315.361   4
   1  -1   5 1530.28 344.541   1
  -1   1  -6 47203.1 2598.04   4
   1  -1   6 48158.4 2369.11   1
  -1   1  -6 48829.4 2152.62   3
  -1   1  -7 81098.5 3352.32   3
   1  -1   7 86552.9 3667.79   1
  -1   1  -7 75851.5 3879.24   4
  -1   1  -8 12489.9 1026.04   3
  -1   1  -8 12870.9 1374.80   4
  -1   1  -9 84309.3 3811.16   3
  -1   1  -9 86361.2 4453.15   4
  -1   1 -10 53464.9 3223.14   4
  -1   1 -10 34808.2 2274.72   3
  -1   1 -11 56433.6 3160.01   3
  -1   1 -11 78711.0 4252.49   4
  -1   1 -12 1732.09 743.969   4
  -1   1 -13 13916.6 1906.18   4
  -1   1 -14-277.042 677.512   4
  -1   1 -15 8847.82 1706.06   4
  -1   1 -16 1401.17 1192.72   4
   1   0 -15 4050.13 1453.35   5
   1   0 -14-229.393 901.138   5
   1   0 -13 11955.5 2044.06   5
   1   0 -12 18985.6 2463.05   5
   1   0 -11 990.149 624.173   5
   1   0 -10 1084.02 692.757   5
   1   0  -9 21682.0 2196.88   5
   1   0  -9 20956.8 1880.52   4
   1   0  -8 47030.9 3235.32   5
   1   0  -8 51433.8 2959.21   4
   1   0  -7 67426.9 3906.35   5
  -1   0   7 75008.3 2693.19   3
   1   0  -7 73953.6 3620.98   4
   1   0  -6 1664.34 307.033   1
   1   0  -6 1981.17 571.747   5
  -1   0   6 1738.27 264.896   3
  -1   0   5 24725.4 1181.26   3
   1   0  -5 24645.5 1775.77   5
   1   0  -5 24672.5 1216.49   1
   1   0  -4 88793.7 3206.68   1
   1   0  -4 93087.5 3933.07   5
   1   0  -3 558910. 18648.9   5
   1   0  -2 15605.9 1006.41   5
   1   0  -1 122532. 4445.11   5
   1   0   0 13170.2 801.077   5
   1   0   1 163588. 5962.96   5
  -1   0  -2 23638.7 972.779   2
  -1   0  -2 26035.1 1428.32   4
  -1   0  -3 17464.1 1140.77   4
  -1   0  -3 16251.2 785.117   2
   1   0   3 17200.3 709.570   2
  -1   0  -4 289046. 10468.4   4
   1   0   4 302012. 9793.94   2
   1   0   4 307151. 10264.6   1
   1   0   5 2387.31 285.840   2
  -1   0  -5 2169.17 466.473   4
   1   0   5 2558.82 430.864   1
  -1   0  -6 45873.2 2592.59   4
   1   0   6 50575.3 2450.03   1
  -1   0  -7 416.911 165.134   3
  -1   0  -7 984.417 450.599   4
   1   0   7 736.868 376.625   1
  -1   0  -8 5107.63 537.151   3
  -1   0  -8 4959.70 872.010   4
   1   0   8 5070.74 753.396   1
  -1   0  -9 8833.41 1233.21   4
  -1   0  -9 8852.50 797.286   3
  -1   0 -10 99472.2 4847.74   4
  -1   0 -10 79435.0 3616.70   3
  -1   0 -11 522.490 246.832   3
  -1   0 -11 873.310 610.954   4
  -1   0 -12 23667.5 2361.62   4
  -1   0 -13 121879. 6533.28   4
  -1   0 -14 35134.5 3234.18   4
  -1   0 -15 6838.44 1497.78   4
  -1   0 -16 7527.56 1630.35   4
   1   1 -15 12782.2 2380.65   5
   1   1 -14 39574.3 4033.13   5
   1   1 -13 66158.3 5164.62   5
   1   1 -12 3139.69 1164.31   5
   1   1 -11 22592.1 2596.41   5
   1   1 -10 172367. 8408.77   5
   1   1  -9 1859.17 631.306   4
  -1  -1   9 2266.70 306.615   3
   1   1  -8 29380.4 2161.89   4
  -1  -1   8 32432.3 1532.85   3
   1   1  -7 1072.29 420.876   4
  -1  -1   7 2547.83 380.433   3
   1   1  -6 119299. 4476.66   1
  -1  -1   6 115375. 4496.48   3
   1   1  -6 121028. 4911.21   4
   1   1  -5 14562.6 932.668   1
  -1  -1   5 15506.0 1013.46   3
  -1  -1   4 657.367 213.900   3
   1   1  -4 575.382 309.474   5
   1   1  -3 81220.4 3433.30   5
   1   1  -2 14539.6 952.548   5
   1   1  -1 72316.0 2778.66   5
   1   1   0 20957.8 1018.90   5
   1   1   1 43736.2 1906.48   5
  -1  -1  -1 39220.6 1685.17   2
  -1  -1  -2 23311.8 1302.97   4
  -1  -1  -2 22427.7 1169.92   2
  -1  -1  -3 447798. 15395.3   2
  -1  -1  -3 452989. 15487.2   4
   1   1   3 491218. 15311.0   2
  -1  -1  -4 25629.0 1536.10   4
   1   1   4 27462.2 1396.66   2
  -1  -1  -5 51476.9 2603.43   4
   1   1   5 54596.6 2353.95   2
  -1  -1  -6 81089.0 3786.07   4
   1   1   6 84094.0 3339.12   2
   1   1   7 116726. 4937.89   1
   1   1   7 124213. 4608.22   2
  -1  -1  -7 121149. 5294.55   4
   1   1   8 40841.2 2370.93   1
  -1  -1  -8 40391.8 2602.59   4
  -1  -1  -9 72482.0 3912.20   4
  -1  -1  -9 68116.3 2735.65   3
  -1  -1 -10 58735.2 3332.62   4
  -1  -1 -10 36193.8 1791.01   3
   1   1  11 6267.23 739.681   2
  -1  -1 -11 6338.89 1156.94   4
  -1  -1 -12 762.836 687.603   4
  -1  -1 -13 377.386 713.696   4
  -1  -1 -14 6198.28 1401.20   4
  -1  -1 -15 5889.14 1377.61   4
  -1  -1 -16-1007.45 869.422   4
   1   2 -15 2193.93 1201.10   5
   1   2 -14 3972.04 1540.27   5
   1   2 -13 2937.26 1018.29   5
   1   2 -12 390.981 862.097   5
   1   2 -11 12669.2 2002.40   5
   1   2 -10 5339.61 813.521   1
   1   2  -9 97186.9 4384.40   1
  -1  -2   9 103085. 4016.80   3
   1   2  -9 100322. 4823.05   4
   1   2  -8 467.845 340.809   4
   1   2  -8 349.873 249.049   1
  -1  -2   8 129.566 248.425   3
  -1  -2   7 133801. 5191.55   3
   1   2  -7 131384. 5494.77   4
  -1  -2   6 68637.3 3081.79   3
  -1  -2   6 64762.8 3059.48   4
  -1  -2   5 25559.7 1592.12   3
  -1  -2   4 184768. 6578.84   3
  -1  -2   4 172268. 6358.99   4
   1   2  -3 22444.9 1429.47   5
  -1  -2   3 23098.3 1385.26   3
  -1  -2   3 23332.2 1233.36   4
  -1  -2   2 310566. 10595.4   3
   1   2  -2 309908. 10470.3   5
  -1  -2   2 307842. 10248.5   4
  -1  -2   1 48696.3 2036.44   2
   1   2  -1 42888.0 1826.53   5
   1   2   0 63517.2 2403.10   5
  -1  -2   0 67850.2 2377.95   5
  -1  -2   0 68273.7 2728.84   2
   1   2   1 25094.4 1173.55   5
  -1  -2  -1 26077.3 1139.25   5
  -1  -2  -1 26387.2 1400.33   2
  -1  -2  -2 16138.6 973.930   4
   1   2   2 16317.4 999.367   4
  -1  -2  -2 15203.9 1088.13   2
   1   2   3 12472.6 858.374   4
   1   2   3 12709.8 989.463   2
  -1  -2  -3 11013.6 820.310   4
  -1  -2  -3 10603.1 945.497   2
   1   2   4 915.637 257.682   4
  -1  -2  -4 736.716 265.606   4
   1   2   4 877.772 302.641   2
  -1  -2  -5 6048.76 702.999   4
   1   2   5 5762.12 688.289   2
   1   2   5 5273.69 664.623   4
  -1  -2  -6 1854.97 488.976   4
   1   2   6 1641.83 419.896   4
   1   2   6 1801.22 400.584   2
  -1  -2  -7 165038. 6667.06   4
   1   2   7 170446. 6306.61   2
   1   2   7 161629. 6523.90   4
   1   2   8 413.290 266.353   2
  -1  -2  -8 637.192 417.242   4
  -1  -2  -9 20927.9 1826.62   4
  -1  -2 -10 39087.0 2738.18   4
  -1  -2 -11 31623.6 2539.21   4
  -1  -2 -12 57481.5 3773.89   4
  -1  -2 -13 29987.5 2741.73   4
   1   2  13 33544.1 2159.09   2
  -1  -2 -14 70495.4 4662.79   4
  -1  -2 -15 770.769 1069.44   4
  -1  -2 -16 6288.52 1479.15   4
   1   3 -15 668.914 1031.60   5
   1   3 -14 82336.6 6232.16   5
   1   3 -13 20960.9 2882.89   5
   1   3 -12 13769.5 1566.64   1
   1   3 -12 17103.1 2430.61   5
   1   3 -11 2811.35 728.882   1
   1   3 -10 26206.5 1963.17   1
  -1  -3  10 24264.3 1574.42   3
   1   3  -9 63775.6 3376.63   1
  -1  -3   9 70004.5 3220.91   3
  -1  -3   8 291.315 288.196   3
   1   3  -8 301.272 280.197   1
   1   3  -7 320.960 318.285   1
  -1  -3   7 287.147 272.647   3
  -1  -3   6 30073.8 1954.13   3
  -1  -3   6 31053.9 1820.46   4
  -1  -3   5 45622.6 2199.62   2
  -1  -3   5 43856.3 2476.67   3
  -1  -3   4 100286. 3943.44   2
  -1  -3   4 99799.2 4264.84   3
  -1  -3   4 94654.1 3794.40   4
  -1  -3   3 8217.58 752.030   2
  -1  -3   3 7309.89 610.701   4
  -1  -3   3 7259.79 824.312   3
  -1  -3   2 66879.9 2790.72   2
   1   3  -2 59680.6 2549.11   5
  -1  -3   2 61889.1 2407.22   4
  -1  -3   2 62253.7 2913.91   3
   1   3  -1 80999.9 3033.19   5
  -1  -3   1 90721.0 3561.60   2
  -1  -3   1 85670.4 3622.90   3
  -1  -3   0 355783. 12223.9   3
   1   3   0 356765. 11472.5   5
  -1  -3   0 351080. 12166.5   2
  -1  -3  -1 52356.3 2095.75   4
  -1  -3  -1 52651.3 2568.30   2
  -1  -3  -1 49827.2 2419.90   3
  -1  -3  -2 182714. 6292.17   4
  -1  -3  -2 183019. 6971.36   2
   1   3   3 86.0365 144.983   4
  -1  -3  -3 425.342 186.799   4
  -1  -3  -3 186.226 302.142   2
  -1  -3  -4 78804.4 3249.08   4
   1   3   4 76766.2 3232.01   4
   1   3   4 85435.3 3633.77   2
  -1  -3  -5 72753.6 3222.92   4
   1   3   5 71788.7 3176.85   4
   1   3   5 77059.8 3473.90   2
   1   3   6 63689.2 3042.30   4
   1   3   6 66095.0 3199.24   2
  -1  -3  -6 68688.5 3170.92   4
   1   3   7 87507.9 3802.12   4
  -1  -3  -7 83258.7 3863.51   4
  -1  -3  -7 78854.7 3311.79   3
  -1  -3  -8 10301.6 790.201   3
  -1  -3  -8 12384.0 1249.49   4
  -1  -3  -9 521.824 197.797   3
  -1  -3  -9 349.728 385.832   4
   1   3  10 32843.6 2152.73   2
  -1  -3 -10 36826.1 2544.63   4
   1   3  11 4369.31 747.508   2
  -1  -3 -11 4242.96 888.066   4
   1   3  12 55738.2 3023.33   2
  -1  -3 -12 45427.4 3302.36   4
   1   3  13 10244.4 1204.69   2
  -1  -3 -13 11209.1 1625.06   4
  -1  -3 -14 17597.1 2109.54   4
  -1  -3 -15 40336.3 3395.08   4
  -1  -3 -16 8756.19 1609.75   4
   1   4 -14 6372.87 1585.62   5
   1   4 -13 8299.46 1304.74   1
   1   4 -13 9086.14 1865.82   5
   1   4 -12 65073.6 4954.37   5
   1   4 -12 72320.6 4121.12   1
  -1  -4  11 4814.27 701.698   3
   1   4 -11 2887.04 765.654   1
  -1  -4  10 27256.5 1848.28   3
   1   4 -10 23304.8 1983.08   1
   1   4  -9 66339.1 3498.91   1
  -1  -4   9 64624.7 3338.79   3
  -1  -4   8 128488. 5445.49   2
  -1  -4   8 138362. 5826.00   3
   1   4  -8 147791. 5893.98   1
  -1  -4   7 32943.4 1960.26   2
  -1  -4   7 33333.6 2192.57   3
  -1  -4   6 20013.1 1654.16   3
  -1  -4   6 18758.0 1336.51   4
  -1  -4   6 18453.9 1364.94   2
  -1  -4   5 156066. 6120.29   2
  -1  -4   5 163397. 6602.12   3
  -1  -4   4 20141.8 1221.25   4
  -1  -4   4 20625.7 1431.26   2
  -1  -4   4 21093.3 1687.61   3
  -1  -4   3 31156.4 1529.76   4
  -1  -4   3 33771.9 2120.85   3
  -1  -4   3 34986.8 1959.14   2
   1   4  -2 14690.0 1213.48   2
   1   4  -2 13566.2 898.766   5
  -1  -4   2 15049.2 1171.05   2
  -1  -4   2 15398.5 1335.27   3
  -1  -4   2 14947.2 823.653   4
  -1  -4   1 440.228 127.792   4
  -1  -4   1 557.562 283.355   2
  -1  -4   1 321.290 282.241   3
   1   4  -1 182.585 113.102   5
  -1  -4   0 7433.42 843.461   2
  -1  -4   0 6844.76 822.210   3
  -1  -4  -1 39506.6 1580.70   4
  -1  -4  -1 37334.3 2165.81   3
  -1  -4  -1 38994.2 2292.26   2
  -1  -4  -2 716.706 327.715   2
  -1  -4  -2 533.298 325.146   3
  -1  -4  -2 385.103 142.674   4
  -1  -4  -2 553.723 131.175   5
  -1  -4  -3 101.599 146.855   4
  -1  -4  -3 330.938 305.372   2
  -1  -4  -3 342.665 267.628   3
   1   4   3 170.495 153.083   4
   1   4   4 87204.5 3437.57   4
  -1  -4  -4 81338.4 3719.41   3
  -1  -4  -4 90321.7 3471.58   4
   1   4   5 86183.1 3534.57   4
  -1  -4  -5 92246.1 3639.47   4
  -1  -4  -6 155620. 5748.34   4
   1   4   6 152154. 5648.29   4
  -1  -4  -7 943.872 310.972   3
  -1  -4  -7 999.698 418.608   4
   1   4   7 659.176 284.353   4
   1   4   8 105260. 4621.28   2
  -1  -4  -8 107464. 4559.50   4
   1   4   9-60.4584 401.805   2
  -1  -4  -9 671.238 454.003   4
  -1  -4  -9 252.677 179.412   3
   1   4  10 50058.0 2745.69   2
  -1  -4 -10 50663.2 2892.30   4
   1   4  11 44968.1 2795.01   2
  -1  -4 -11 45819.3 3037.18   4
   1   4  12 68318.9 3726.52   2
  -1  -4 -12 71384.3 4144.20   4
   1   4  13 30469.5 2234.63   2
  -1  -4 -13 23115.1 2314.11   4
  -1  -4 -14 6719.72 1282.78   4
  -1  -4 -15 737.538 845.597   4
  -1  -4 -15 1018.28 1064.67   5
  -1  -4 -16 7842.80 1410.88   4
  -1  -4 -16 8407.57 1595.00   5
   1   5 -14 2257.92 900.593   1
   1   5 -14 10.8069 767.212   5
   1   5 -13 6271.84 1273.84   1
   1   5 -13 3302.39 1200.80   5
   1   5 -12 8913.97 1795.08   5
   1   5 -12 8149.87 1355.13   1
   1   5 -11 6658.44 1153.33   1
  -1  -5  11 6010.48 898.830   3
  -1  -5  10 641.082 428.743   3
   1   5 -10 1584.60 601.878   1
   1   5  -9 1407.97 569.978   1
  -1  -5   9 915.207 436.710   3
  -1  -5   8 8515.45 1146.50   3
  -1  -5   7 5753.68 943.241   3
  -1  -5   6 84268.9 3705.73   4
  -1  -5   6 86774.1 4033.20   2
  -1  -5   6 90220.8 4405.09   3
  -1  -5   5 1208.03 553.412   3
  -1  -5   5 1464.90 402.142   2
   1   5  -4 213547. 8616.82   3
  -1  -5   4 205050. 7738.44   2
  -1  -5   4 196671. 8149.50   3
  -1  -5   4 200174. 7174.44   4
  -1  -5   3 53191.6 2683.43   2
  -1  -5   3 47485.2 2901.52   3
  -1  -5   3 47168.9 2097.27   4
   1   5  -3 54027.1 3188.24   3
  -1  -5   2 10984.6 1090.35   2
   1   5  -2 14188.7 1311.89   2
  -1  -5   2 12426.7 731.323   4
   1   5  -2 12377.9 799.306   5
  -1  -5   2 12303.3 1316.05   3
   1   5  -1 149965. 5080.50   5
  -1  -5   1 156770. 6161.59   2
  -1  -5   1 161408. 6432.18   3
  -1  -5   1 150551. 5090.97   4
  -1  -5   0 61437.7 3176.71   2
  -1  -5   0 57329.8 2002.35   4
  -1  -5   0 57126.5 3110.29   3
  -1  -5  -1 234142. 7664.46   4
  -1  -5  -1 244776. 9165.70   2
  -1  -5  -1 234239. 8935.58   3
  -1  -5  -2 3334.20 307.401   4
  -1  -5  -2 3291.63 697.013   2
  -1  -5  -2 2879.61 600.382   3
   1   5   3 111251. 4110.84   4
  -1  -5  -3 111454. 3924.68   5
  -1  -5  -3 115749. 4075.19   4
  -1  -5  -3 112711. 4886.75   3
  -1  -5  -4 3784.83 643.236   3
   1   5   4 3134.63 405.583   4
  -1  -5  -4 3419.46 442.109   4
   1   5   5 419.034 260.210   4
  -1  -5  -5 1105.26 366.926   3
  -1  -5  -5 161.902 180.466   4
   1   5   5 596.664 355.537   2
  -1  -5  -6 1326.44 426.913   3
  -1  -5  -6 2044.60 419.075   4
   1   5   6 2087.06 552.966   2
   1   5   6 2339.87 423.345   4
   1   5   7 34913.7 1982.36   4
  -1  -5  -7 31973.6 2072.26   3
   1   5   7 38287.7 2440.50   2
  -1  -5  -7 35750.0 2071.46   4
  -1  -5  -8 78.4967 224.717   3
   1   5   8 568.966 382.308   2
  -1  -5  -8 1043.58 429.654   4
  -1  -5  -9 3061.05 676.333   4
   1   5   9 3464.26 750.967   2
  -1  -5  -9 2646.59 525.399   3
   1   5  10 54414.7 3146.11   2
  -1  -5 -10 59167.7 3191.61   4
  -1  -5 -11 8460.56 1222.90   4
   1   5  11 9111.49 1216.58   2
   1   5  12 34817.6 2547.39   2
  -1  -5 -12 37519.6 2747.08   4
  -1  -5 -13 7938.16 1348.47   4
   1   5  13 6513.11 1068.04   2
  -1  -5 -13 7724.58 1428.44   5
  -1  -5 -14 6703.87 1407.91   5
  -1  -5 -14 7242.33 1334.01   4
  -1  -5 -15 44597.0 3749.11   5
  -1  -5 -15 47964.3 3587.35   4
  -1  -5 -16 26100.9 2916.17   5
   1   6 -14 10762.1 1774.54   1
   1   6 -14 7683.24 1730.57   5
   1   6 -13 32497.5 3309.75   5
   1   6 -13 36467.4 3085.13   1
   1   6 -12 805.590 663.439   1
   1   6 -12-366.672 677.127   5
   1   6 -11 110029. 5682.08   1
  -1  -6  11 109801. 5279.45   3
  -1  -6  10 23793.8 2073.17   3
   1   6 -10 24301.4 2165.14   1
   1   6  -9 10362.9 1350.11   1
  -1  -6   9 10951.4 1395.18   3
  -1  -6   8 1038.91 550.359   3
  -1  -6   7 43639.8 2900.73   3
  -1  -6   6 44795.2 2326.09   4
  -1  -6   6 46926.3 3030.35   3
  -1  -6   5 634.718 504.075   3
  -1  -6   4 2018.33 635.568   3
  -1  -6   4 2765.59 404.268   4
  -1  -6   3 13193.0 851.455   4
   1   6  -3 14667.3 1459.19   2
  -1  -6   3 13406.9 1475.30   3
  -1  -6   2 14509.6 789.029   4
   1   6  -2 13908.6 825.568   5
  -1  -6   2 13214.7 1316.24   2
  -1  -6   2 13546.2 1507.64   3
   1   6  -2 14037.4 1456.36   2
  -1  -6   1 91969.6 3097.03   4
  -1  -6   1 91714.0 4585.65   3
   1   6  -1 90987.1 3084.10   5
   1   6  -1 85652.8 3038.27   5
   1   6  -1 98688.8 4662.55   2
  -1  -6   1 101149. 4511.84   2
  -1  -6   0 35750.6 2429.54   2
  -1  -6   0 32630.5 2429.36   3
  -1  -6  -1 737.826 400.913   3
  -1  -6  -2 44177.9 2770.08   3
  -1  -6  -2 43190.1 1567.76   4
  -1  -6  -3 299231. 11540.2   3
  -1  -6  -3 309346. 9962.78   5
  -1  -6  -3 307994. 10145.5   4
   1   6   4 4943.26 490.439   4
  -1  -6  -4 4020.75 756.416   3
   1   6   4 5096.15 848.722   2
  -1  -6  -4 5060.42 452.349   5
  -1  -6  -4 5044.15 494.586   4
   1   6   5 47128.6 2229.20   4
  -1  -6  -5 48116.2 2964.01   3
   1   6   5 54008.1 3040.16   2
  -1  -6  -5 52895.5 2310.17   4
  -1  -6  -5 54497.1 2351.14   5
   1   6   6 3873.83 784.919   2
  -1  -6  -6 3911.32 561.533   4
   1   6   6 3120.74 465.241   4
  -1  -6  -6 3909.23 749.936   3
  -1  -6  -6 3153.95 510.410   5
  -1  -6  -7 122111. 4837.81   5
   1   6   7 107057. 4466.91   4
   1   6   7 117080. 5258.49   2
  -1  -6  -7 99181.4 4947.59   3
  -1  -6  -7 112535. 4606.03   4
  -1  -6  -8 4390.11 740.843   3
  -1  -6  -8 4596.05 714.823   4
   1   6   8 4421.16 846.999   2
  -1  -6  -8 5628.89 829.485   5
   1   6   9 8340.75 1168.18   2
  -1  -6  -9 7507.82 958.177   3
  -1  -6  -9 9850.53 1175.32   5
  -1  -6  -9 10041.4 1104.15   4
   1   6  10 76022.9 3988.39   2
  -1  -6 -10 83527.2 4146.54   5
  -1  -6 -10 77876.4 3785.02   4
  -1  -6 -11 884.834 529.517   4
   1   6  11 902.355 439.096   2
  -1  -6 -11 1216.11 622.189   5
  -1  -6 -12 8091.93 1246.79   4
   1   6  12 7401.45 1183.51   2
  -1  -6 -12 6973.87 1207.79   5
   1   6  13 242.780 555.479   2
  -1  -6 -13 293.602 536.776   4
  -1  -6 -13 1915.50 838.352   5
  -1  -6 -14 2084.60 770.457   4
  -1  -6 -14 1367.02 794.044   5
  -1  -6 -15 3564.70 1058.78   4
  -1  -6 -15 4316.64 1255.55   5
   1   7 -14 2284.31 1015.39   1
   1   7 -14 531.785 659.317   5
   1   7 -13-1040.75 761.215   5
   1   7 -13-386.612 616.585   1
   1   7 -12-145.402 561.036   1
   1   7 -12-170.412 640.525   5
   1   7 -11 59231.5 4153.59   5
   1   7 -11 64056.6 4074.13   1
  -1  -7  11 58531.7 3661.69   3
  -1  -7  10 810.192 573.999   3
   1   7 -10 982.823 658.101   1
  -1  -7   9 10724.0 1464.83   3
  -1  -7   8 36808.5 2777.48   3
  -1  -7   7 140793. 6588.62   3
  -1  -7   6 8348.31 1254.10   3
  -1  -7   6 7941.75 822.499   4
  -1  -7   5 45838.3 3137.95   3
  -1  -7   4 143181. 5213.92   4
  -1  -7   4 140334. 6579.21   3
  -1  -7   3 13222.4 816.191   4
  -1  -7   3 14188.1 1604.53   3
   1   7  -3 13534.8 1535.25   2
   1   7  -3 12209.4 895.440   5
   1   7  -2 18281.0 1808.87   2
  -1  -7   2 16942.7 825.975   4
   1   7  -2 17734.8 892.879   5
   1   7  -2 16784.6 919.240   5
  -1  -7   2 15343.0 1695.27   3
  -1  -7   1 1660.45 633.580   3
   1   7  -1 898.530 576.033   2
  -1  -7   0 179021. 7845.77   3
   1   7   0 179200. 7670.31   2
  -1  -7  -1 2497.76 742.681   3
   1   7   1 3536.37 736.892   2
  -1  -7  -2 5221.61 981.373   3
   1   7   2 5586.50 940.109   2
   1   7   3 20560.5 1762.06   2
  -1  -7  -3 17780.3 1790.14   3
  -1  -7  -4 7258.53 1105.43   3
  -1  -7  -4 7740.48 543.939   4
  -1  -7  -4 6608.60 450.413   5
   1   7   4 6813.58 1011.28   2
  -1  -7  -5 25745.6 2133.84   3
  -1  -7  -5 26131.9 1275.87   5
   1   7   5 28553.1 2098.00   2
  -1  -7  -5 25915.0 1336.59   4
  -1  -7  -6 11849.9 900.675   5
   1   7   6 7892.53 743.471   4
  -1  -7  -6 8277.10 1170.89   3
   1   7   6 11264.1 1310.93   2
  -1  -7  -6 10530.1 866.231   4
   1   7   7 3524.63 808.734   2
  -1  -7  -7 2992.19 765.375   3
  -1  -7  -7 3546.24 574.177   4
   1   7   7 3818.77 539.358   4
  -1  -7  -7 4148.40 628.121   5
  -1  -7  -8 15203.5 1334.10   5
   1   7   8 12489.3 1452.52   2
  -1  -7  -8 12301.4 1409.48   3
  -1  -7  -8 14606.8 1230.89   4
   1   7   9 132390. 6205.94   2
  -1  -7  -9 152287. 6039.54   5
  -1  -7  -9 144773. 5761.53   4
  -1  -7 -10 1907.70 510.627   3
  -1  -7 -10 1877.24 554.375   4
   1   7  10 2005.89 696.231   2
  -1  -7 -10 2812.35 701.066   5
  -1  -7 -11 40254.6 2748.74   5
   1   7  11 32999.9 2577.12   2
  -1  -7 -11 32861.1 2375.80   4
  -1  -7 -12 208.178 421.310   4
   1   7  12 731.591 605.345   2
  -1  -7 -12 1276.63 611.679   5
  -1  -7 -13 43863.5 3249.46   5
   1   7  13 41170.9 2947.59   2
  -1  -7 -13 39890.5 2878.51   4
  -1  -7 -14 14410.1 1741.09   4
  -1  -7 -14 13953.9 1871.26   5
  -1  -7 -15 33476.7 3080.06   5
   1   8 -13 6818.23 1373.00   5
   1   8 -13 9912.66 1741.80   1
   1   8 -12 19394.6 2267.44   5
   1   8 -12 23582.4 2516.76   1
  -1  -8  11 6324.98 1131.86   3
   1   8 -11 5824.94 1325.05   1
   1   8 -11 6596.71 1323.99   5
   1   8 -10 19760.8 2111.94   1
  -1  -8  10 17899.0 2001.77   3
   1   8 -10 18366.8 1967.81   5
  -1  -8   9 11406.8 1607.83   3
  -1  -8   8 7590.06 1334.26   3
  -1  -8   7-244.604 510.783   3
  -1  -8   6 9191.66 1408.13   3
  -1  -8   5 5796.80 1128.48   3
  -1  -8   4-50.6888 447.738   3
  -1  -8   4 731.270 219.612   4
   1   8  -4-136.573 227.478   5
   1   8  -3 52867.3 3517.06   2
  -1  -8   3 52463.8 2029.38   4
   1   8  -3 49299.0 2207.33   5
   1   8  -3 51669.6 2183.68   5
  -1  -8   3 52926.6 3528.13   3
   1   8  -2 786.163 134.051   5
   1   8  -2 759.676 142.402   5
   1   8  -2 577.479 401.958   2
  -1  -8   1 130833. 6417.28   3
   1   8  -1 131310. 6228.08   2
  -1  -8   0 33272.8 2738.06   3
   1   8   0 38253.7 2714.72   2
   1   8   1 29873.5 2324.51   2
  -1  -8  -1 26303.9 2356.52   3
   1   8   2 26469.2 2117.43   2
  -1  -8  -2 22676.7 2217.09   3
  -1  -8  -3 18247.5 1921.24   3
   1   8   3 19394.9 1805.95   2
   1   8   4 171730. 7230.91   2
  -1  -8  -4 163891. 7539.32   3
  -1  -8  -5 12393.1 710.754   5
  -1  -8  -5 11971.5 1547.95   3
   1   8   5 11933.1 1398.39   2
  -1  -8  -6 22405.8 2096.48   3
   1   8   6 21768.1 1278.49   4
  -1  -8  -6 21404.4 1212.67   5
   1   8   6 23188.9 1974.77   2
  -1  -8  -6 25307.6 1327.55   4
  -1  -8  -7 1540.09 646.675   3
   1   8   7 1199.59 557.219   2
  -1  -8  -7 482.029 275.243   4
  -1  -8  -7 903.115 335.881   5
  -1  -8  -8 5016.65 695.447   5
  -1  -8  -8 3498.98 866.702   3
  -1  -8  -8 4836.51 665.067   4
   1   8   8 4510.67 900.461   2
  -1  -8  -9 1808.64 629.199   3
  -1  -8  -9 2246.46 554.411   4
   1   8   9 1351.88 626.417   2
  -1  -8  -9 2308.78 577.062   5
  -1  -8 -10 4103.60 756.901   4
   1   8  10 4248.84 920.109   2
  -1  -8 -10 4126.78 770.018   5
  -1  -8 -11 399.866 384.088   4
  -1  -8 -11 76.1918 430.606   5
   1   8  11 173.512 564.431   2
   1   8  12 1715.14 638.526   2
  -1  -8 -12 1860.38 759.545   5
   1   8  13 34738.3 2761.57   2
  -1  -9  11 8778.18 1392.39   3
   1   9 -11 7871.47 1479.55   1
   1   9 -11 5369.37 1118.56   5
   1   9 -10 45297.4 3490.17   1
  -1  -9  10 43422.9 3325.92   3
   1   9 -10 37611.7 2864.66   5
  -1  -9   9 1535.73 808.027   3
   1   9  -9 2164.12 635.739   5
   1   9  -8 63621.4 3553.21   5
  -1  -9   8 74027.9 4462.53   3
  -1  -9   7 18575.9 2072.44   3
   1   9  -7 16133.4 1435.93   5
   1   9  -6 24960.4 1693.32   5
  -1  -9   6 25306.0 2436.13   3
  -1  -9   5 1028.57 659.783   3
   1   9  -5 1252.48 366.964   5
   1   9  -4 35319.4 1766.40   5
  -1  -9   4 39658.3 3078.42   3
   1   9  -3 12100.8 1622.95   2
  -1  -9   3 12780.9 1688.28   3
   1   9  -3 12153.0 713.830   5
  -1  -9   2 808.428 552.417   3
   1   9  -2 1168.41 625.326   2
  -1  -9   1 425.296 421.544   3
   1   9  -1 407.725 429.338   2
  -1  -9   0 39092.2 3084.21   3
   1   9   0 39027.6 2836.76   2
  -1  -9  -1 14431.9 1845.76   3
   1   9   1 18026.2 1810.04   2
  -1  -9  -2 27524.4 2561.12   3
   1   9   2 31456.3 2403.03   2
  -1  -9  -3 5697.25 1148.15   3
   1   9   3 6155.98 1055.68   2
  -1  -9  -4 20513.3 2151.16   3
   1   9   4 17885.0 1770.47   2
   1   9   5 49480.0 3151.94   2
  -1  -9  -5 47841.1 3429.82   3
  -1  -9  -6 76020.2 4553.47   3
   1   9   6 85366.9 4440.23   2
   1   9   7 14464.5 1589.51   2
  -1  -9  -7 13466.8 1702.40   3
  -1  -9  -8 66749.4 4111.17   3
   1   9   8 72615.2 4071.43   2
  -1  -9  -9 5202.67 1092.82   3
   1   9   9 7107.74 1161.50   2
   1   9  10 47673.7 3249.76   2
   1   9  11 23527.5 2210.30   2
   1   9  12 21737.4 2133.09   2
   1   9  13 3406.72 1001.65   2
  -1 -10  11 12678.5 1813.61   3
   1  10 -10 15071.3 2081.53   1
  -1 -10  10 11557.1 1728.15   3
  -1 -10   9 13865.8 1866.51   3
  -1 -10   8 12748.4 1812.00   3
  -1 -10   7 7711.80 1510.27   3
  -1 -10   6 52307.1 3838.83   3
  -1 -10   5-164.742 526.402   3
  -1 -10   4 34561.4 2999.19   3
   1  10  -3 41808.4 3202.73   2
  -1 -10   3 40001.3 3249.45   3
   1  10  -2 119582. 6004.94   2
  -1 -10   2 113146. 6214.37   3
  -1 -10   1 35465.5 3015.72   3
   1  10  -1 32996.1 2674.74   2
  -1 -10   0 818.214 622.962   3
   1  10   0 1003.84 503.183   2
  -1 -10  -1 55422.4 3951.06   3
   1  10   1 60390.6 3701.43   2
   1  10   2 9686.23 1358.41   2
  -1 -10  -2 6987.74 1314.86   3
   1  10   3 40088.3 2848.07   2
  -1 -10  -3 37052.5 3090.89   3
  -1 -10  -4 9119.44 1472.90   3
   1  10   4 9729.29 1355.23   2
  -1 -10  -5 12620.2 1739.47   3
   1  10   5 14510.3 1622.76   2
  -1 -10  -6 1403.72 668.639   3
   1  10   6 2316.86 735.071   2
   1  10   7 16286.3 1792.47   2
  -1 -10  -7 13134.1 1758.24   3
  -1 -10  -8 2821.12 959.535   3
   1  10   8 2707.86 812.010   2
   1  10   9 2062.51 837.195   2
   1  10  10 6085.23 1170.40   2
   1  10  11 17498.3 1925.83   2
   1  10  12 35921.0 2893.03   2
  -1 -11   9 22154.9 2468.64   3
  -1 -11   8 4338.79 1146.72   3
  -1 -11   7 28432.3 2835.09   3
  -1 -11   6 7410.17 1437.08   3
  -1 -11   5 2717.27 952.357   3
  -1 -11   4-319.158 700.438   3
   1  11  -3 363.729 535.801   2
  -1 -11   3 741.079 804.744   3
  -1 -11   2 1404.77 827.639   3
   1  11  -2 1061.50 576.192   2
  -1 -11   1 4766.82 1120.44   3
   1  11  -1 3788.40 1000.20   2
  -1 -11   0 18349.6 2263.43   3
   1  11   0 17734.6 1917.15   2
  -1 -11  -1 2245.09 818.018   3
   1  11   1 3118.95 852.345   2
  -1 -11  -2 111248. 6165.59   3
   1  11   2 105389. 5505.25   2
  -1 -11  -3 7183.79 1472.90   3
   1  11   3 10077.2 1402.92   2
  -1 -11  -4 14542.5 2027.42   3
   1  11   4 16084.0 1786.61   2
  -1 -11  -5 20400.7 2352.13   3
   1  11   5 17011.6 1912.46   2
  -1 -11  -6 21110.6 2333.76   3
   1  11   6 21339.7 2061.69   2
   1  11   7 46570.9 3251.80   2
  -1 -11  -7 50115.1 3696.05   3
  -1 -11  -8 4163.59 998.311   3
   1  11   8 4066.95 980.825   2
   1  11   9 26845.1 2409.09   2
   1  11  10 2536.75 846.087   2
  -1 -12   6-218.752 688.065   3
  -1 -12   5 53296.9 4152.59   3
  -1 -12   4 7816.65 1621.32   3
   1  12  -3 14092.1 1840.53   2
  -1 -12   3 14382.0 2086.10   3
  -1 -12   2 1879.87 989.739   3
   1  12  -2 907.401 762.474   2
  -1 -12   1 37684.1 3431.41   3
   1  12  -1 36077.3 2939.72   2
  -1 -12   0 23170.1 2655.87   3
   1  12   0 20482.5 2145.13   2
  -1 -12  -1 689.000 773.372   3
   1  12   1 1160.95 607.444   2
  -1 -12  -2 6773.23 1576.19   3
   1  12   2 6145.63 1212.41   2
  -1 -12  -3 5148.04 1310.84   3
   1  12   3 7596.37 1308.03   2
  -1 -12  -4 1527.25 791.282   3
   1  12   4-290.370 480.022   2
  -1 -12  -5 19601.9 2390.56   3
   1  12   5 22121.4 2178.64   2
  -1 -12  -6 20383.9 2396.45   3
   1  12   6 20963.2 2135.06   2
  -1 -12  -7 5052.13 1233.79   3
   1  12   7 3463.85 1023.32   2
   1  12   8 13211.7 1718.91   2
  -1 -13   3 12455.0 2010.14   3
   1  13  -3 11424.8 1655.33   2
  -1 -13   2 7401.53 1631.25   3
   1  13  -2 5688.06 1216.18   2
   1  13  -1 70869.3 4452.38   2
  -1 -13   1 69324.2 5068.81   3
  -1 -13   0 1057.28 813.539   3
   1  13   0 3230.44 966.779   2
  -1 -13  -1 35177.9 3445.95   3
   1  13   1 37486.8 3000.07   2
   1  13   2 45016.5 3362.48   2
  -1 -13  -2 48908.0 4058.01   3
  -1 -13  -3 19010.5 2495.52   3
   1  13   3 17740.3 1993.15   2
  -1 -13  -4 5555.31 1411.15   3
   1  13   4 5005.20 1166.32   2
  -1 -13  -5 640.683 816.124   3
  -1 -13  -6 55666.5 4261.20   3
  -1 -13  -7 346.489 703.218   3
  -1 -14  -5 20315.0 2560.02   3
  -2  13   2 28722.3 2662.63   2
  -2  13   1 1551.54 739.019   2
  -2  13   0 13269.2 1705.43   2
  -2  13  -1 1155.68 623.920   2
  -2  13  -2 8337.44 1404.59   2
  -2  13  -3-13.5126 546.590   1
  -2  13  -3 611.504 561.043   2
  -2  13  -4 3262.15 1011.96   1
  -2  13  -4 1001.97 675.468   2
  -2  13  -5 4272.36 1213.61   1
  -2  12   5 1688.49 745.586   2
  -2  12   4 9843.65 1601.52   2
  -2  12   3 42712.3 3293.93   2
  -2  12   2 41813.3 3187.41   2
  -2  12   1 436.638 527.969   2
  -2  12   0 29421.5 2505.18   2
  -2  12  -1 3676.48 896.516   2
  -2  12  -2 50941.7 3371.26   2
  -2  12  -3 6530.68 1104.16   2
  -2  12  -4 50537.6 3428.50   1
  -2  12  -4 25848.6 2372.93   2
  -2  12  -5 10229.2 1668.54   1
  -2  12  -5 7181.92 1201.22   2
  -2  12  -6 246.576 704.183   1
  -2  12  -7 2313.90 905.654   1
  -2  11   7 10367.0 1701.03   2
  -2  11   6 3536.06 943.526   2
  -2  11   5 38380.8 3104.64   2
  -2  11   4 675.078 693.384   2
  -2  11   3 1304.22 649.013   2
  -2  11   2 11331.0 1550.18   2
  -2  11   1 3218.67 883.792   2
  -2  11   0 6337.93 1121.05   2
  -2  11  -1 6323.68 1130.42   2
  -2  11  -2 2415.75 814.587   2
  -2  11  -3 15390.9 1649.17   2
  -2  11  -4 49443.5 3152.18   2
  -2  11  -4 43179.3 3268.39   1
  -2  11  -5 9900.67 1493.12   1
  -2  11  -5 8229.11 1200.55   2
  -2  11  -6 17019.9 2004.86   1
  -2  11  -6 11524.9 1435.98   2
  -2  11  -7 376.950 614.061   1
  -2  11  -8 80415.1 5042.81   1
  -2  10   9 9169.21 1556.96   2
  -2  10   8 998.279 743.426   2
  -2  10   7 1640.53 680.050   2
   2 -10  -7-507.532 434.338   5
  -2  10   6 57164.9 3786.97   2
   2 -10  -6 54790.8 3078.62   5
  -2  10   5 12145.2 1603.03   2
   2 -10  -5 10297.5 1182.40   5
   2 -10  -4 19609.6 1660.96   5
  -2  10   4 19932.7 2053.29   2
  -2  10   3 19823.0 2022.83   2
   2 -10  -3 18905.4 1669.33   5
  -2  10   2 82409.0 4699.90   2
   2 -10  -2 91197.8 4345.59   5
   2 -10  -1 42473.2 2609.46   5
  -2  10   1 40931.4 2971.47   2
  -2  10   0 2945.97 802.875   2
  -2  10  -1 44228.8 2985.91   2
  -2  10  -2 2810.12 735.983   2
  -2  10  -3 26602.6 2154.10   2
  -2  10  -4 6114.79 1110.82   1
  -2  10  -4 5312.66 917.655   2
  -2  10  -5 12338.8 1438.56   2
  -2  10  -5 11995.6 1610.89   1
  -2  10  -6 1103.30 656.686   1
  -2  10  -6 786.585 496.697   2
  -2  10  -7-191.238 420.125   2
  -2  10  -7-335.176 563.104   1
  -2  10  -8 6511.39 1316.44   1
  -2  10  -9 2443.09 1043.24   1
  -2  10 -10 8609.01 1616.54   1
   2  -9 -11 14590.2 1907.30   5
   2  -9 -10 326.063 499.043   5
   2  -9  -9 49839.5 3342.15   5
   2  -9  -8 25088.6 2163.31   5
   2  -9  -7 8664.03 1179.08   5
   2  -9  -6 3085.48 678.940   5
   2  -9  -5 1500.80 499.705   5
  -2   9   4 2048.06 699.965   2
   2  -9  -4 1053.98 441.645   5
  -2   9   3 8942.16 1276.91   2
   2  -9  -3 8726.72 1075.73   5
  -2   9   2 750.009 513.773   2
   2  -9  -2 464.165 381.546   5
  -2   9   1 6737.66 614.350   4
  -2   9   1 8771.44 1220.34   2
   2  -9  -1 8267.03 1069.05   5
  -2   9   0 51072.8 3170.54   2
  -2   9   0 47506.6 2069.00   4
   2  -9   0 51514.3 2888.78   5
  -2   9  -1 111616. 4153.33   4
  -2   9  -1 124949. 5587.06   2
  -2   9  -2 984.211 229.453   4
  -2   9  -2 724.199 450.810   2
  -2   9  -3 11506.9 805.199   4
  -2   9  -3 11053.7 1291.95   2
  -2   9  -4 6740.16 637.442   4
  -2   9  -4 6720.21 1132.43   1
  -2   9  -4 5996.15 945.943   2
  -2   9  -5 117189. 4515.47   4
  -2   9  -5 119452. 5698.34   1
  -2   9  -5 112712. 5304.93   2
  -2   9  -6 9272.07 1341.85   1
  -2   9  -6 10541.7 1265.07   2
  -2   9  -6 8521.30 830.238   4
  -2   9  -7 48879.5 3383.85   1
  -2   9  -7 48907.1 2477.75   4
  -2   9  -7 47557.9 3108.33   2
  -2   9  -8 11891.4 1634.83   1
  -2   9  -8 13805.4 1191.25   4
  -2   9  -9 6429.47 863.575   4
  -2   9  -9 8660.01 1433.84   1
  -2   9 -10 996.242 493.184   4
  -2   9 -10 1284.54 809.101   1
  -2   9 -11 2163.69 638.461   4
  -2   9 -11 2287.78 975.248   1
  -2   9 -12 20058.4 1803.61   4
   2  -8 -13 10090.0 1880.37   5
   2  -8 -12 3564.94 1211.67   5
   2  -8 -11 32904.1 3026.57   5
   2  -8 -10 1151.24 680.492   5
   2  -8  -9 31020.7 2640.26   5
   2  -8  -8 9427.41 1339.26   5
   2  -8  -7 81483.3 4334.04   5
   2  -8  -6 33521.8 2394.35   5
   2  -8  -5 12198.3 1318.88   5
   2  -8  -4 57623.5 3179.45   5
  -2   8   4 61446.9 2643.86   4
   2  -8  -3 92771.2 4274.28   5
  -2   8   3 89782.7 3541.22   4
  -2   8   2 30018.6 1471.65   4
   2  -8  -2 30014.6 2084.74   5
  -2   8   1 13767.9 1210.76   5
   2  -8  -1 14023.4 1389.61   5
  -2   8   1 14378.3 1471.64   2
  -2   8   0 47364.2 2155.76   4
  -2   8   0 44437.6 2827.02   2
  -2   8   0 46832.3 2520.92   5
   2  -8   0 47921.9 2814.07   5
  -2   8  -1 611.872 366.662   2
  -2   8  -1-89.1320 340.945   5
  -2   8  -1 436.016 208.378   4
  -2   8  -2 457.960 320.421   2
  -2   8  -2 305.892 196.852   4
  -2   8  -3 3534.18 482.387   4
  -2   8  -3 3714.88 749.374   2
  -2   8  -4 2649.82 707.966   1
  -2   8  -4 2638.27 444.665   4
  -2   8  -4 2534.59 615.318   2
  -2   8  -5 9928.38 871.454   4
  -2   8  -5 9158.88 1099.71   2
  -2   8  -5 8930.58 1216.90   1
  -2   8  -6 80795.7 3525.86   4
  -2   8  -6 81423.3 4364.23   1
  -2   8  -6 80336.0 4076.59   2
  -2   8  -7 7639.96 1056.25   2
  -2   8  -7 9748.52 1001.51   4
  -2   8  -8 1065.98 594.412   1
  -2   8  -8 407.231 352.572   4
  -2   8  -9 48573.4 3521.01   1
  -2   8  -9 52854.0 2873.28   4
  -2   8 -10 13504.5 1799.54   1
  -2   8 -10 14322.2 1391.11   4
  -2   8 -11 43998.4 2817.79   4
  -2   8 -11 54091.0 3825.38   1
  -2   8 -12 6491.81 1440.87   1
  -2   8 -12 5911.51 1040.44   4
  -2   8 -13 55093.9 3435.93   4
  -2   8 -14 1630.34 790.234   4
   2  -7 -13 4671.96 1350.81   5
   2  -7 -12 22488.8 2629.78   5
   2  -7 -11 45276.3 3594.82   5
   2  -7 -10 11725.3 1695.09   5
   2  -7  -9 433.346 633.358   5
   2  -7  -8 34.2752 493.346   5
   2  -7  -7 2074.21 676.452   5
   2  -7  -6 937.621 563.673   5
   2  -7  -5 15892.1 1508.64   5
   2  -7  -4 31032.8 2134.07   5
  -2   7   4 29493.6 1641.17   4
   2  -7  -3 17573.7 1545.26   5
  -2   7   3 16757.8 1092.41   4
  -2   7   2 33532.0 2044.39   5
   2  -7  -2 28844.2 2045.87   5
   2  -7  -1 77497.2 3973.29   5
  -2   7   1 87839.3 3840.51   5
  -2   7   0 11316.1 1066.91   5
   2  -7   0 9972.70 1157.50   5
  -2   7  -1 100403. 4031.16   4
  -2   7  -1 107895. 4691.51   2
  -2   7  -1 104314. 4458.47   5
   2  -7   1 97998.8 4604.46   5
  -2   7  -2 69141.3 2913.73   4
  -2   7  -2 65793.1 3327.39   5
  -2   7  -2 68107.7 3508.20   2
  -2   7  -3 19056.5 1235.54   4
  -2   7  -3 17671.2 1559.69   1
  -2   7  -3 21236.7 1665.56   2
  -2   7  -4 54875.8 2538.98   4
  -2   7  -4 55600.9 3083.37   1
  -2   7  -4 51388.1 2854.02   2
  -2   7  -5 31.1723 231.129   4
  -2   7  -5 359.485 365.381   1
  -2   7  -5-174.601 282.644   2
  -2   7  -6 30179.8 1824.34   4
  -2   7  -6 30474.6 2309.60   1
  -2   7  -6 30046.1 2136.40   2
  -2   7  -7 4395.94 941.220   1
  -2   7  -7 3759.13 651.121   4
  -2   7  -7 3191.25 645.174   2
  -2   7  -8 10371.6 1415.31   1
  -2   7  -8 10467.3 1106.24   4
  -2   7  -9 613.694 448.963   4
  -2   7  -9-131.445 526.264   1
  -2   7 -10 2599.60 702.210   4
  -2   7 -10 3888.66 1003.94   1
  -2   7 -11 8181.06 1532.13   1
  -2   7 -11 6969.30 1092.45   4
  -2   7 -12 1987.79 875.236   1
  -2   7 -12 2036.68 672.720   4
  -2   7 -13 13982.8 1641.89   4
  -2   7 -14 196.447 572.250   4
   2  -6 -13 14315.6 2181.58   5
   2  -6 -12 30370.1 3045.88   5
   2  -6 -11 12170.4 1840.16   5
   2  -6 -10 72579.8 4562.71   5
   2  -6  -9 1165.24 684.050   5
   2  -6  -8 10287.7 1419.66   5
   2  -6  -7 173.685 388.514   5
   2  -6  -6 125500. 5693.67   5
   2  -6  -5 34738.2 2339.49   5
  -2   6   4 281.616 209.111   4
   2  -6  -4 521.581 358.287   5
  -2   6   3 7717.07 896.565   3
  -2   6   3 8448.24 979.755   5
   2  -6  -3 7207.62 946.591   5
   2  -6  -2 22821.9 1746.76   5
  -2   6   2 23527.9 1660.84   3
  -2   6   2 24218.6 1678.99   5
   2  -6  -1 3600.15 666.131   5
  -2   6   1 4612.92 686.378   5
   2  -6   0 321.835 340.557   5
  -2   6   0 610.567 269.652   5
  -2   6  -1 537.911 262.022   4
   2  -6   1 832.489 397.344   5
  -2   6  -1 1390.61 451.113   5
  -2   6  -2 19563.4 1473.82   1
  -2   6  -2 20690.7 1331.42   4
  -2   6  -2 22221.9 1648.81   5
  -2   6  -2 20287.6 1503.56   2
  -2   6  -3 101359. 4051.86   4
  -2   6  -3 103831. 4459.02   1
  -2   6  -3 91962.5 4314.19   2
  -2   6  -3 102598. 4642.98   5
  -2   6  -4 182627. 6735.19   4
  -2   6  -4 181227. 7232.17   1
  -2   6  -4 179984. 6990.41   2
  -2   6  -5 13693.4 1134.73   4
  -2   6  -5 15890.2 1463.10   1
  -2   6  -5 13314.4 1177.90   2
  -2   6  -6 40345.0 2225.95   4
  -2   6  -6 40232.8 2587.27   1
  -2   6  -6 37754.1 2349.31   2
  -2   6  -7 21136.7 1567.78   4
  -2   6  -7 18953.2 1297.56   2
  -2   6  -7 22836.3 1958.12   1
  -2   6  -8 135863. 6276.31   1
  -2   6  -8 137028. 5745.97   4
  -2   6  -9 12340.5 1540.04   1
  -2   6  -9 14646.1 1432.66   4
  -2   6 -10 82533.2 4563.83   1
  -2   6 -10 73215.1 3958.07   4
  -2   6 -11 10960.0 1625.23   1
  -2   6 -11 14211.9 1567.23   4
  -2   6 -12 18920.2 1872.53   4
  -2   6 -13-948.301 669.049   4
  -2   6 -14 5764.69 1175.41   4
  -2   6 -15 28819.6 2692.68   4
   2  -5 -14 8794.28 1831.94   5
   2  -5 -13 711.584 887.107   5
   2  -5 -12 838.147 764.123   5
   2  -5 -11 1184.52 715.166   5
   2  -5 -10 19364.4 2183.57   5
   2  -5  -9 323.338 532.327   5
   2  -5  -8 29686.6 2455.42   5
  -2   5   7-501.215 259.383   3
   2  -5  -7 385.375 449.238   5
   2  -5  -6 141446. 6422.56   5
  -2   5   6 154411. 5708.18   3
  -2   5   5 3094.12 485.487   3
   2  -5  -5 1944.23 554.354   5
   2  -5  -4 85785.6 4102.05   5
  -2   5   4 86609.1 3620.80   4
   2  -5  -3 132131. 5827.42   5
  -2   5   3 154800. 5970.66   5
  -2   5   2 95483.8 4129.00   5
   2  -5  -2 86466.0 4094.92   5
   2  -5  -1 46343.8 2691.59   5
  -2   5   1 53029.1 2652.06   5
   2  -5   0 47122.1 2832.91   5
  -2   5   0 51010.6 2644.97   5
  -2   5   0 54360.1 2652.82   3
  -2   5  -1 175509. 6523.59   1
   2  -5   1 169587. 7187.73   5
  -2   5  -1 184677. 6950.14   5
  -2   5  -2 11093.6 970.866   4
  -2   5  -2 12027.3 1040.09   1
  -2   5  -2 11270.8 1158.95   5
   2  -5   2 10090.2 1139.49   5
  -2   5  -3 3365.05 554.204   2
  -2   5  -3 3579.73 546.531   4
  -2   5  -3 4070.19 676.630   1
  -2   5  -3 4209.25 793.923   5
  -2   5  -4 34991.1 2142.25   1
  -2   5  -4 38338.8 2042.66   4
  -2   5  -4 34937.6 1985.18   2
  -2   5  -4 36624.4 2539.91   5
  -2   5  -5 99341.8 4456.68   1
  -2   5  -5 93732.7 4006.76   2
  -2   5  -5 101878. 4207.83   4
  -2   5  -6 6087.64 782.100   4
  -2   5  -6 5037.67 657.112   2
  -2   5  -6 4731.18 812.279   1
   2  -5   6 5010.38 873.693   4
  -2   5  -7 13436.1 1243.53   4
  -2   5  -7 11263.1 1295.67   1
  -2   5  -8 4043.63 863.428   1
  -2   5  -8 3683.55 704.755   4
  -2   5  -9 14201.2 1440.58   4
  -2   5  -9 11979.3 1469.35   1
  -2   5 -10 43407.8 3004.00   1
  -2   5 -10 44834.8 2879.22   4
  -2   5 -11 28467.3 2327.49   4
  -2   5 -12 2518.49 786.986   4
  -2   5 -13 1014.13 617.829   4
  -2   5 -14 87189.9 5019.88   4
  -2   5 -15 2341.79 999.070   4
   2  -4 -14-143.889 642.626   5
   2  -4 -13 112140. 6804.10   5
   2  -4 -12 9587.03 1755.59   5
   2  -4 -11 48734.9 3804.04   5
   2  -4 -10-250.854 520.603   5
   2  -4  -9 72227.4 4362.79   5
  -2   4   8 13963.0 804.320   3
   2  -4  -8 12578.0 1561.79   5
  -2   4   7 934.925 256.050   3
   2  -4  -7 318.720 363.992   5
   2  -4  -6 24177.3 1951.87   5
  -2   4   6 23158.6 1288.80   3
   2  -4  -5 18606.1 1622.01   5
  -2   4   5 18333.8 1129.47   3
  -2   4   4 54.1799 195.972   3
  -2   4   4 444.435 248.976   4
   2  -4  -4 340.328 335.827   5
  -2   4   4 228.018 285.824   5
  -2   4   3 46438.3 2550.63   5
   2  -4  -3 43116.0 2491.72   5
  -2   4   3 42915.7 2068.15   3
  -2   4   2 6137.69 779.013   5
  -2   4   2 5866.53 446.141   1
  -2   4   2 6011.18 637.486   3
   2  -4  -2 5290.02 764.529   5
  -2   4   1 1689.76 273.604   1
  -2   4   1 1477.35 403.539   5
   2  -4  -1 2174.76 519.596   5
   2  -4   0 65051.4 3336.14   5
  -2   4   0 67282.7 2715.46   1
  -2   4   0 69065.0 3197.07   5
  -2   4  -1 5435.47 580.272   1
   2  -4   1 5268.16 860.606   5
  -2   4  -1 5559.19 760.870   5
  -2   4  -2 54518.7 2771.48   4
  -2   4  -2 62014.9 3152.43   5
  -2   4  -2 54554.2 2549.48   1
   2  -4   2 53538.2 3072.64   5
  -2   4  -3 36727.6 2074.39   4
  -2   4  -3 37656.2 2013.91   1
  -2   4  -3 36797.9 2473.84   5
  -2   4  -4 235333. 8664.67   4
  -2   4  -4 240855. 9507.04   5
  -2   4  -4 234996. 8356.65   2
  -2   4  -4 247841. 8805.54   3
  -2   4  -4 236586. 8684.83   1
  -2   4  -5 66163.2 3132.37   4
  -2   4  -5 64314.8 3645.74   5
  -2   4  -5 63025.2 3152.95   1
  -2   4  -5 64068.8 2748.14   2
  -2   4  -5 66695.8 3207.37   3
  -2   4  -6 24750.8 1699.65   4
   2  -4   6 24597.3 1891.98   4
  -2   4  -6 20845.8 1134.64   2
  -2   4  -6 22192.5 1710.33   1
  -2   4  -7 35795.4 2318.01   1
  -2   4  -7 37299.5 2278.67   4
  -2   4  -8 5793.95 898.742   4
  -2   4  -8 5155.12 879.099   1
  -2   4  -9 57727.6 3312.98   4
  -2   4 -10 2172.10 709.850   4
  -2   4 -11 15845.2 1733.76   4
  -2   4 -12-346.978 570.328   4
  -2   4 -13 6223.17 1271.51   4
  -2   4 -14 21485.4 2332.26   4
  -2   4 -15 83.6989 730.866   4
   2  -3 -14 8315.69 1807.26   5
   2  -3 -13 8619.93 1721.64   5
   2  -3 -12 941.485 842.090   5
   2  -3 -11 1446.14 615.003   5
   2  -3 -10 14886.7 1920.05   5
   2  -3  -9 111092. 5872.49   5
   2  -3  -8 18176.0 1893.34   5
  -2   3   8 18161.2 847.964   3
   2  -3  -7 48950.9 3212.03   5
  -2   3   7 53475.5 2103.41   3
  -2   3   6 213.180 154.112   3
   2  -3  -6 501.381 447.734   5
   2  -3  -5 48090.9 2826.41   5
  -2   3   5 49255.6 2479.69   4
   2  -3  -4 8780.90 1049.25   5
  -2   3   4 12458.4 1218.54   5
   2  -3  -3 134887. 5814.86   5
  -2   3   3 155433. 5977.30   5
   2  -3  -2 142774. 5933.48   5
  -2   3   2 155329. 5962.98   5
   2  -3  -1 17521.6 1356.38   5
  -2   3   1 16417.6 1261.71   5
  -2   3   1 14244.2 777.310   1
  -2   3   0 10276.4 681.569   1
  -2   3   0 10311.0 987.306   5
   2  -3   0 10975.2 1089.78   5
  -2   3  -1 22008.5 1588.46   5
   2  -3   1 20099.1 1667.32   5
  -2   3  -1 21095.3 1160.72   1
  -2   3  -2 36.7555 247.515   4
   2  -3   2 234.117 371.173   5
  -2   3  -2 315.761 335.878   5
  -2   3  -2 27.5094 174.643   1
  -2   3  -3 1789.24 377.753   1
  -2   3  -3 1192.30 421.787   4
  -2   3  -3 640.582 387.564   5
  -2   3  -4 5656.62 684.304   1
  -2   3  -4 5762.88 755.713   4
  -2   3  -4 4540.34 826.151   5
  -2   3  -5 4333.44 676.214   4
  -2   3  -5 3765.15 398.907   2
  -2   3  -5 5105.79 674.163   3
  -2   3  -5 4685.24 864.798   5
  -2   3  -6 67579.4 3397.96   4
   2  -3   6 71442.3 3639.07   4
  -2   3  -6 66219.2 3174.04   3
  -2   3  -7 219815. 8465.83   4
  -2   3  -7 217311. 8213.73   3
  -2   3  -8 22012.0 1810.80   4
  -2   3  -9 25794.4 2080.67   4
  -2   3 -10 61372.4 3671.38   4
  -2   3 -11 131039. 6332.97   4
  -2   3 -12 15054.4 1827.47   4
  -2   3 -13 73988.6 4596.87   4
  -2   3 -14 6197.77 1377.27   4
  -2   3 -15 15216.8 2087.47   4
   2  -2 -14 21112.4 2880.32   5
   2  -2 -13 14841.3 2324.87   5
   2  -2 -12 19309.6 2529.54   5
   2  -2 -11 7755.27 1502.32   5
   2  -2 -10 4851.49 1149.62   5
   2  -2  -9-247.137 476.005   5
  -2   2   8 23534.3 958.130   3
   2  -2  -8 25089.7 2271.22   5
  -2   2   8 22657.0 1042.77   3
   2  -2  -7 2383.35 693.927   5
   2  -2  -6 18255.0 1694.31   5
   2  -2  -5 55533.4 3123.49   5
  -2   2   5 58244.5 2788.41   4
   2  -2  -4 41845.2 2484.47   5
   2  -2  -3 186334. 7195.11   5
   2  -2  -2 497.136 315.893   5
   2  -2  -1 241637. 8868.83   5
   2  -2   0 3981.04 349.754   1
   2  -2   0 3913.23 632.357   5
   2  -2   1 70158.8 3505.54   5
   2  -2   1 70196.3 2699.83   1
  -2   2  -2 172863. 6660.37   4
   2  -2   2 164643. 5920.93   1
   2  -2   2 172274. 7031.44   5
  -2   2  -3 295866. 10335.8   4
   2  -2   3 269482. 9544.26   1
  -2   2  -4 115432. 4878.87   4
   2  -2   4 111142. 4402.59   1
  -2   2  -5 6703.56 866.848   4
   2  -2   5 5643.29 681.358   1
  -2   2  -6 56348.5 2919.60   4
   2  -2   6 46554.1 2503.57   1
  -2   2  -7 7731.74 1037.16   4
  -2   2  -8 2405.49 471.583   3
  -2   2  -8 3010.95 757.661   4
  -2   2  -9 11804.0 1383.31   4
  -2   2  -9 11585.8 1137.46   3
  -2   2 -10 12414.5 1529.83   4
  -2   2 -10 13688.2 1307.32   3
  -2   2 -11 13237.4 1667.67   4
  -2   2 -12 75940.4 4610.96   4
  -2   2 -13 7626.74 1400.74   4
  -2   2 -14 144.976 746.784   4
  -2   2 -15 23478.5 2641.30   4
   2  -1 -14-787.970 929.289   5
   2  -1 -13 33554.9 3542.68   5
   2  -1 -12 65224.0 4872.34   5
   2  -1 -11 33292.3 3184.32   5
   2  -1 -10 74061.7 4777.90   5
   2  -1  -9 2179.80 812.907   5
   2  -1  -8 254787. 10236.0   5
  -2   1   8 241020. 8226.75   3
   2  -1  -7 24157.4 2103.04   5
   2  -1  -6 76697.6 4038.20   5
   2  -1  -5 82955.5 4089.36   5
   2  -1  -4 24686.6 1770.31   5
   2  -1  -3 3683.53 620.537   5
   2  -1  -2 2192.13 480.332   5
   2  -1  -1 26640.6 1711.54   5
   2  -1   0 3639.62 585.723   5
   2  -1   1 13174.0 1207.91   5
   2  -1   2 12022.8 817.914   1
   2  -1   2 11699.5 1226.75   5
   2  -1   3 93013.7 3772.27   1
  -2   1  -3 105719. 4656.77   4
  -2   1  -4 22782.1 1746.71   4
   2  -1   4 23474.5 1415.41   1
  -2   1  -5 60259.5 3150.43   4
   2  -1   5 55821.6 2719.17   1
  -2   1  -6 27417.6 1987.34   4
   2  -1   6 28513.0 1767.95   1
  -2   1  -7 198638. 7992.69   4
  -2   1  -8 92472.5 4590.77   4
  -2   1  -9 17937.1 1783.76   4
  -2   1  -9 17896.0 1324.11   3
  -2   1 -10 14976.1 1742.21   4
  -2   1 -10 16525.4 1336.96   3
  -2   1 -11 2616.79 562.791   3
  -2   1 -11 2323.68 799.728   4
  -2   1 -12 29964.5 2749.08   4
  -2   1 -13 528.343 561.513   4
  -2   1 -14 24539.9 2653.95   4
  -2   1 -15 2374.14 1024.81   4
  -2   1 -16 4373.83 1309.16   4
   2   0 -14 2738.81 1306.12   5
   2   0 -13 26633.8 3215.63   5
   2   0 -12 958.232 885.327   5
   2   0 -11 14329.7 2120.14   5
   2   0 -10 5934.08 1378.60   5
  -2   0   9 88.8994 200.356   3
   2   0  -9 3.37747 520.261   5
  -2   0   8 2267.96 394.171   3
   2   0  -8 4120.21 1014.69   5
   2   0  -7 69949.2 2856.54   1
   2   0  -7 66103.4 3954.20   5
  -2   0   7 70433.9 2954.61   3
   2   0  -6 73804.0 4075.62   5
   2   0  -6 80228.2 3043.23   1
   2   0  -5 4468.64 412.213   1
   2   0  -5 5299.75 844.352   5
   2   0  -4 227149. 8616.02   5
   2   0  -3 20164.4 1479.07   5
   2   0  -2 16531.2 1272.70   5
   2   0  -1 994.266 319.284   5
   2   0   0 167730. 6339.22   5
   2   0   1 49840.3 2589.08   5
   2   0   2 2948.26 617.727   5
  -2   0  -3 5117.36 825.528   4
  -2   0  -4 73546.9 3600.02   4
  -2   0  -4 66398.2 2643.46   2
  -2   0  -5 4895.98 492.981   2
  -2   0  -5 5314.70 850.001   4
  -2   0  -6 7377.90 1001.86   4
   2   0   6 8044.88 860.994   1
  -2   0  -7 4435.73 831.099   4
  -2   0  -8 4759.18 871.940   4
  -2   0  -9 53528.5 3349.67   4
  -2   0 -10 115157. 5686.77   4
  -2   0 -10 108408. 4494.80   3
  -2   0 -11 18383.0 1384.89   3
  -2   0 -11 18884.1 2050.55   4
  -2   0 -12 20908.8 2285.86   4
  -2   0 -13 57016.5 4099.05   4
  -2   0 -14 86908.8 5458.62   4
  -2   0 -15 1961.38 992.445   4
  -2   0 -16 27304.2 3080.83   4
   2   1 -14 54768.5 5069.52   5
   2   1 -13 28262.4 3414.12   5
   2   1 -12 8663.45 1798.98   5
   2   1 -11 15015.1 2261.25   5
  -2  -1  10 9300.96 778.173   3
   2   1 -10 9712.38 1633.60   5
   2   1  -9 56697.3 4061.52   5
  -2  -1   9 56849.8 2673.19   3
   2   1  -8 53865.4 3711.60   5
  -2  -1   8 56536.7 2729.49   3
  -2  -1   7 281.902 229.091   3
   2   1  -7 734.573 283.473   1
   2   1  -7 869.452 547.251   5
   2   1  -6 3923.06 490.870   1
   2   1  -6 4292.04 865.311   5
  -2  -1   6 4460.74 590.644   3
   2   1  -5 5892.82 896.470   5
   2   1  -4 35936.1 2252.23   5
   2   1  -3 687.534 320.582   5
   2   1  -2 18868.8 1334.83   5
   2   1  -1 314.926 198.370   5
  -2  -1   0 378674. 12495.0   5
   2   1   0 356524. 12569.0   5
   2   1   1 28443.6 1749.11   5
  -2  -1  -1 33666.5 1767.58   5
  -2  -1  -2 148221. 5390.55   2
  -2  -1  -2 154446. 5823.64   5
   2   1   2 147670. 5937.76   5
  -2  -1  -3 95878.7 4279.74   4
  -2  -1  -3 99142.0 4366.93   5
  -2  -1  -3 93989.3 3709.63   2
  -2  -1  -4 153507. 5927.80   4
  -2  -1  -4 148421. 5844.27   5
   2   1   5 13003.7 851.514   2
  -2  -1  -5 15079.8 1355.30   4
  -2  -1  -5 13833.0 1075.64   2
   2   1   6 95050.5 3605.44   2
  -2  -1  -6 99776.7 4502.58   4
  -2  -1  -7 287049. 10421.8   4
   2   1   7 269380. 9264.35   2
  -2  -1  -8 53428.2 3117.70   4
   2   1   8 50512.3 2206.96   2
  -2  -1  -9 7274.60 1098.48   4
   2   1   9 7109.43 636.128   2
  -2  -1 -10 4639.24 963.823   4
   2   1  10 5953.22 595.055   2
  -2  -1 -11 38470.8 2054.33   3
   2   1  11 39024.7 1845.87   2
  -2  -1 -11 39444.4 2999.49   4
  -2  -1 -12 264.605 582.109   4
  -2  -1 -13 1034.81 757.094   4
  -2  -1 -14-79.1296 648.079   4
  -2  -1 -15 4762.38 1309.23   4
  -2  -1 -16 24635.8 2864.08   4
   2   2 -14 27494.6 3576.09   5
   2   2 -13 1175.03 854.788   5
   2   2 -12 9522.35 1928.80   5
   2   2 -11 22343.9 1791.32   1
   2   2 -11 16880.4 2366.90   5
   2   2 -10 137123. 7720.13   5
  -2  -2  10 159228. 5975.28   3
   2   2 -10 149752. 6257.56   1
   2   2  -9 26334.3 2627.84   5
   2   2  -9 30334.6 1920.80   1
  -2  -2   9 26393.1 1792.97   3
   2   2  -8 6084.24 1220.43   5
  -2  -2   8 6468.18 839.742   3
   2   2  -7 174659. 8085.40   5
  -2  -2   7 197728. 7302.04   3
   2   2  -6 43260.1 2813.71   5
  -2  -2   6 40705.4 2264.23   3
   2   2  -5 143610. 6103.54   5
  -2  -2   5 147339. 5652.72   4
  -2  -2   5 140668. 5618.10   3
   2   2  -4 2805.16 574.156   5
   2   2  -3 262907. 9463.35   5
   2   2  -2 5527.69 664.139   5
  -2  -2   2 6281.94 665.836   5
   2   2  -1 2410.84 417.537   5
  -2  -2   1 2405.08 395.168   5
  -2  -2   0 71000.6 3001.26   2
   2   2   0 70111.7 3010.79   5
  -2  -2   0 72617.5 2931.88   5
  -2  -2  -1 37522.2 1907.36   2
  -2  -2  -1 39696.4 1863.09   5
   2   2   1 35402.6 1933.92   5
   2   2   2 42775.6 2236.85   5
  -2  -2  -2 45061.4 2317.38   4
  -2  -2  -2 43722.9 2112.33   5
  -2  -2  -2 44211.1 2157.30   2
   2   2   3 34599.8 1823.05   2
  -2  -2  -3 38544.0 2106.97   4
  -2  -2  -3 37057.5 2070.79   5
  -2  -2  -3 35636.5 1892.81   2
   2   2   4 21628.5 1338.22   2
  -2  -2  -4 21152.9 1588.10   4
  -2  -2  -4 18360.2 1348.24   2
   2   2   4 21918.9 1596.46   4
  -2  -2  -4 22080.9 1552.89   5
  -2  -2  -5 7994.65 943.088   4
   2   2   5 7985.60 922.166   4
  -2  -2  -5 6988.65 871.218   2
   2   2   5 6762.13 718.630   2
  -2  -2  -6 55127.8 2977.01   4
   2   2   6 54227.6 2937.64   4
   2   2   6 56288.8 2623.91   2
  -2  -2  -7 119.838 371.995   4
   2   2   7-175.993 264.220   2
  -2  -2  -8 52233.4 3077.03   4
   2   2   8 54275.5 2641.10   2
  -2  -2  -9 6899.80 1071.12   4
   2   2   9 6397.01 786.115   2
   2   2  10 127642. 5064.63   2
  -2  -2 -10 117617. 5842.37   4
  -2  -2 -11 55471.8 3617.19   4
   2   2  11 56585.1 2788.70   2
   2   2  12 38032.1 2107.11   2
  -2  -2 -12 32032.6 2795.23   4
  -2  -2 -13 9819.15 1529.13   4
  -2  -2 -14 2332.48 780.589   4
  -2  -2 -15 24526.5 2670.15   4
  -2  -2 -16 934.646 850.044   4
   2   3 -14 3410.50 1422.18   5
   2   3 -13 19179.2 2855.39   5
   2   3 -12 52933.0 3261.60   1
   2   3 -12 44028.7 4185.83   5
   2   3 -11 4617.80 1372.98   5
   2   3 -11 3985.25 859.515   1
  -2  -3  10 24941.8 1761.70   3
   2   3 -10 20856.7 1741.46   1
   2   3  -9 84.3956 335.806   1
   2   3  -9-288.179 530.988   5
  -2  -3   8 2515.11 604.090   3
   2   3  -8 2777.34 606.317   1
   2   3  -8 916.445 571.021   5
   2   3  -7 14998.8 1702.99   5
  -2  -3   7 16777.8 1454.63   3
   2   3  -6 9445.48 1204.62   5
  -2  -3   6 11079.1 1120.46   3
   2   3  -5 19094.5 1609.85   5
  -2  -3   5 22504.9 1473.67   4
  -2  -3   5 20680.1 1554.23   3
   2   3  -4 52336.3 2723.66   5
  -2  -3   4 48457.8 2632.56   3
  -2  -3   3 119129. 4874.72   3
   2   3  -3 114361. 4692.82   5
  -2  -3   2 8163.97 820.327   2
   2   3  -2 8265.85 774.449   5
  -2  -3   1 124876. 4927.77   2
   2   3  -1 121398. 4686.60   5
  -2  -3   1 125120. 4608.54   5
   2   3   0 56999.4 2464.16   5
  -2  -3   0 57335.2 2372.07   5
  -2  -3   0 57398.1 2735.86   2
  -2  -3  -1 122900. 4410.61   5
   2   3   1 116877. 4615.29   5
  -2  -3  -1 121897. 4893.44   2
  -2  -3  -2 12845.3 1003.24   4
  -2  -3  -2 10538.9 777.467   5
  -2  -3  -2 12093.9 1044.76   2
   2   3   3 130174. 5206.20   2
  -2  -3  -3 129430. 4978.14   5
  -2  -3  -3 135836. 5108.65   4
  -2  -3  -3 122997. 5159.79   2
  -2  -3  -4 121935. 4975.75   4
  -2  -3  -4 128867. 4990.75   5
  -2  -3  -4 116763. 5153.19   2
   2   3   4 117330. 4956.51   2
  -2  -3  -5 5711.28 756.649   4
  -2  -3  -5 4720.61 735.700   2
   2   3   5 4118.17 646.526   4
   2   3   5 4165.35 660.102   2
  -2  -3  -6 23315.6 1669.06   4
   2   3   6 21931.3 1645.97   4
   2   3   6 25166.0 1754.62   2
  -2  -3  -7 59170.8 3111.60   4
  -2  -3  -8 3476.82 703.427   4
  -2  -3  -9 793.681 464.147   4
  -2  -3 -10 31787.8 2428.82   4
  -2  -3 -11 4929.53 1039.37   4
  -2  -3 -12 18772.2 1997.10   4
  -2  -3 -13 55893.2 3809.33   4
  -2  -3 -14 6360.29 1316.95   4
  -2  -3 -15 27649.9 2774.62   4
  -2  -3 -16 52433.5 4122.49   4
   2   4 -14 1995.50 1037.92   5
   2   4 -13 23206.2 2227.46   1
   2   4 -13 17544.0 2559.81   5
   2   4 -12 152.350 907.643   5
   2   4 -12 664.844 620.004   1
   2   4 -11 95948.9 4854.70   1
  -2  -4  11 97826.4 4532.53   3
   2   4 -10 10040.2 1294.74   1
  -2  -4  10 12044.8 1303.46   3
   2   4 -10 7772.14 1494.33   5
   2   4  -9 12490.1 1329.17   1
  -2  -4   9 10676.0 1304.48   3
  -2  -4   8 40086.8 2586.54   3
   2   4  -8 31466.5 2704.13   5
   2   4  -7 31229.8 2436.74   5
  -2  -4   7 33374.9 2338.46   3
   2   4  -6 33972.1 2438.19   5
  -2  -4   6 39682.0 2477.12   3
  -2  -4   5 1291.15 358.728   4
  -2  -4   5 1849.56 508.853   3
   2   4  -5 859.239 385.502   5
   2   4  -4 32491.5 1998.16   5
  -2  -4   4 34209.5 2198.57   3
  -2  -4   3 15731.7 1275.59   2
   2   4  -3 13345.8 1070.96   5
  -2  -4   3 14017.3 984.560   4
  -2  -4   3 14449.8 1321.16   3
   2   4  -2 64427.6 2861.38   5
  -2  -4   2 70626.5 3265.32   2
  -2  -4   2 67324.4 3359.16   3
  -2  -4   1 348.118 307.603   3
   2   4  -1 114.454 139.472   5
  -2  -4   1 729.947 389.629   2
  -2  -4   0 7741.55 579.552   5
   2   4   0 8210.20 640.071   5
  -2  -4   0 7696.35 901.846   2
  -2  -4  -1 52825.2 2150.94   5
   2   4   1 57053.1 2325.27   5
  -2  -4  -1 55849.4 2824.94   2
  -2  -4  -2 45220.0 2090.75   4
  -2  -4  -2 40781.3 1755.66   5
  -2  -4  -2 42338.3 2371.24   2
  -2  -4  -3 121074. 4596.01   4
  -2  -4  -3 115951. 4390.34   5
  -2  -4  -3 118238. 5085.99   2
  -2  -4  -4 2281.21 561.672   2
  -2  -4  -4 2567.84 484.651   4
  -2  -4  -4 2690.85 456.062   5
  -2  -4  -5 287395. 10278.6   4
   2   4   5 280557. 10305.5   4
  -2  -4  -5 303624. 11138.8   2
  -2  -4  -6 1580.73 417.725   4
   2   4   6 970.558 355.269   4
  -2  -4  -7 30046.6 1975.84   4
  -2  -4  -8 93275.9 4375.92   4
   2   4   8 91894.0 4420.43   2
   2   4   9 144840. 6208.15   2
  -2  -4  -9 146991. 6337.27   4
   2   4  10 57137.1 3158.57   2
  -2  -4 -10 58494.6 3389.98   4
  -2  -4 -10 52773.5 2719.72   3
  -2  -4 -11 1122.12 571.525   4
  -2  -4 -11 1442.80 417.354   3
   2   4  11 1256.91 437.406   2
   2   4  12 24773.6 1915.81   2
  -2  -4 -12 22458.9 2156.02   4
  -2  -4 -13 18074.6 1987.89   4
  -2  -4 -14 5563.53 1238.99   4
  -2  -4 -15 15488.7 2056.34   4
   2   5 -14 412.463 822.419   5
   2   5 -13 5264.18 1149.50   1
   2   5 -13 3966.63 1271.16   5
   2   5 -12 13856.3 1775.94   1
   2   5 -12 10158.8 1903.21   5
  -2  -5  11 3445.30 842.783   3
   2   5 -11 4718.88 1220.97   5
   2   5 -11 1752.66 609.811   1
   2   5 -10 16624.8 1732.53   1
  -2  -5  10 15251.7 1630.90   3
   2   5 -10 12426.1 1800.63   5
   2   5  -9 45430.4 3461.74   5
  -2  -5   9 56898.9 3371.88   3
   2   5  -8 985.480 563.990   5
  -2  -5   8 1847.87 621.729   3
  -2  -5   7 101333. 5006.45   3
   2   5  -7 99041.3 4960.28   5
   2   5  -6 111656. 5147.13   5
  -2  -5   6 114390. 5405.14   3
   2   5  -5 110361. 4789.58   5
  -2  -5   5 111185. 5164.14   3
  -2  -5   5 106288. 4382.20   4
   2   5  -4 70132.2 3254.26   5
  -2  -5   4 69095.0 3679.69   3
   2   5  -3 8300.01 786.472   5
  -2  -5   3 7382.34 678.884   4
  -2  -5   3 9218.10 1126.08   3
   2   5  -2 317969. 10813.4   5
  -2  -5   2 312666. 10676.6   4
  -2  -5   2 329441. 11803.5   3
   2   5  -1 38943.1 1755.88   5
  -2  -5   1 38288.1 2457.50   3
   2   5   0 119069. 4275.44   5
  -2  -5   0 121033. 5165.35   2
  -2  -5   0 122381. 5320.26   3
  -2  -5  -1 14473.7 713.267   5
  -2  -5  -1 14666.1 1327.63   2
  -2  -5  -1 17205.5 1488.02   3
  -2  -5  -2 17836.2 842.698   5
  -2  -5  -2 18207.0 1092.84   4
  -2  -5  -2 18470.4 1548.44   2
  -2  -5  -2 20176.4 1610.82   3
  -2  -5  -3 7409.22 673.295   4
  -2  -5  -3 7172.18 1005.94   2
  -2  -5  -3 7024.56 521.944   5
   2   5   3 8310.17 1130.93   2
  -2  -5  -3 7021.39 932.976   3
  -2  -5  -4 21756.5 1359.42   4
  -2  -5  -4 20576.0 1890.17   2
  -2  -5  -4 21866.7 1289.07   5
   2   5   4 22170.8 1921.72   2
  -2  -5  -4 22133.8 1684.48   3
  -2  -5  -5 40336.0 2098.61   4
  -2  -5  -5 38292.8 2018.78   5
   2   5   5 37866.9 2619.90   2
  -2  -5  -5 40952.9 2423.73   3
  -2  -5  -6 963.169 456.422   3
   2   5   6 914.306 355.131   4
   2   5   6 812.393 506.921   2
  -2  -5  -6 1003.84 366.547   4
  -2  -5  -7 13435.3 1217.77   4
   2   5   7 14654.6 1261.65   4
   2   5   7 14999.3 1520.12   2
  -2  -5  -7 12608.3 1243.10   3
   2   5   8 7851.05 1076.78   2
  -2  -5  -8 7528.12 955.301   3
  -2  -5  -8 7730.70 969.294   4
   2   5   9 25974.1 2054.37   2
  -2  -5  -9 25575.0 1823.89   3
  -2  -5  -9 28122.9 2041.58   4
  -2  -5 -10 541.294 346.397   3
  -2  -5 -10 83.5030 405.863   4
   2   5  10-6.20503 323.006   2
   2   5  11 23553.8 1957.29   2
  -2  -5 -11 21162.9 1600.36   3
  -2  -5 -11 25512.6 2127.10   4
  -2  -5 -12 3797.86 882.517   4
   2   5  12 2990.32 723.070   2
  -2  -5 -13 60283.9 3828.33   4
  -2  -5 -14 20531.9 2197.10   4
  -2  -5 -15 15269.3 1941.26   4
   2   6 -13 22005.3 2462.09   1
   2   6 -13 21972.3 2701.54   5
   2   6 -12 32172.5 2805.69   1
   2   6 -12 29256.6 3061.00   5
  -2  -6  11 3393.07 930.768   3
   2   6 -11 4015.37 979.082   1
   2   6 -11 3970.54 1131.46   5
   2   6 -10 57433.2 3700.34   1
   2   6 -10 59544.8 4057.76   5
  -2  -6  10 63577.6 3830.64   3
  -2  -6   9 39060.6 2853.73   3
   2   6  -9 38138.6 2960.43   5
  -2  -6   8 1182.57 480.277   3
   2   6  -8 954.181 508.464   5
   2   6  -7 51030.5 3102.88   5
  -2  -6   7 51422.0 3346.67   3
  -2  -6   6 3539.61 826.034   3
   2   6  -6 4161.90 735.447   5
  -2  -6   5 9022.16 1237.32   3
   2   6  -5 8166.00 942.359   5
  -2  -6   5 7392.99 779.477   4
  -2  -6   4 9801.43 1269.89   3
   2   6  -4 9929.14 940.356   5
  -2  -6   3 4196.47 819.011   3
   2   6  -3 5992.02 631.761   5
  -2  -6   3 4715.90 521.535   4
   2   6  -2 15226.2 973.218   5
  -2  -6   2 14695.6 923.733   4
  -2  -6   2 16641.1 1609.16   3
   2   6  -1 97806.2 3529.30   5
  -2  -6   1 96555.7 4752.09   3
   2   6   0 68559.4 3704.62   2
  -2  -6   0 59121.1 3463.65   3
  -2  -6  -1 4269.11 452.195   4
  -2  -6  -1 4157.19 782.694   3
   2   6   1 3717.35 787.448   2
  -2  -6  -2 64025.8 2631.01   4
  -2  -6  -2 68409.8 3693.35   3
  -2  -6  -3 30083.9 1441.97   4
  -2  -6  -3 25222.9 1032.54   5
   2   6   3 28070.2 2308.40   2
  -2  -6  -3 29387.7 2152.16   3
  -2  -6  -4 53193.1 2325.95   4
  -2  -6  -4 48855.7 2061.77   5
   2   6   4 50751.2 3242.07   2
  -2  -6  -4 46249.5 2924.92   3
  -2  -6  -5 16928.2 1180.12   4
  -2  -6  -5 17440.5 1152.24   5
   2   6   5 16150.9 1685.91   2
  -2  -6  -5 15321.0 1494.87   3
  -2  -6  -6 67706.8 3069.33   4
   2   6   6 63827.7 3068.24   4
   2   6   6 68612.4 3823.21   2
  -2  -6  -6 66904.3 3580.85   3
   2   6   7 28688.7 2234.39   2
   2   6   7 25972.1 1740.35   4
  -2  -6  -7 28015.2 2071.85   3
  -2  -6  -7 30496.1 1878.91   4
  -2  -6  -8 881.093 430.579   3
  -2  -6  -8 958.816 432.092   4
   2   6   8 1151.10 558.749   2
   2   6   9 1007.32 499.107   2
  -2  -6  -9 1076.41 487.497   3
  -2  -6  -9 1629.83 521.827   4
   2   6  10 33364.2 2454.77   2
  -2  -6 -10 30182.9 2175.35   3
  -2  -6 -10 35126.2 2360.51   4
  -2  -6 -11 469.199 460.269   4
   2   6  11 911.143 561.598   2
  -2  -6 -12 650.895 576.511   4
   2   6  12 298.982 428.888   2
   2   6  13 22661.7 1986.09   2
  -2  -6 -13 17842.0 1933.30   4
  -2  -6 -14 939.882 767.933   4
  -2  -6 -15 16711.8 2048.21   4
  -2  -6 -15 16438.4 2164.88   5
   2   7 -13 4714.04 1251.20   1
   2   7 -13 520.876 731.878   5
   2   7 -12 3141.48 1055.61   5
   2   7 -12 2781.17 931.887   1
  -2  -7  11 1838.98 721.284   3
   2   7 -11 811.092 639.101   1
   2   7 -11 279.141 574.513   5
   2   7 -10 24097.3 2305.90   1
   2   7 -10 22980.3 2305.37   5
  -2  -7  10 23374.7 2276.72   3
  -2  -7   9-240.419 512.193   3
   2   7  -9-279.855 505.108   5
   2   7  -8 68779.3 3857.35   5
  -2  -7   8 65541.2 4087.63   3
   2   7  -7 16387.3 1554.83   5
  -2  -7   7 14903.7 1759.66   3
   2   7  -6 26639.8 1897.98   5
  -2  -7   6 27840.8 2407.26   3
  -2  -7   5 1771.28 727.883   3
  -2  -7   5 2637.23 482.284   4
   2   7  -5 2741.15 530.520   5
   2   7  -4 8201.38 814.947   5
  -2  -7   4 8365.63 1268.76   3
   2   7  -3 59194.1 2530.53   5
  -2  -7   3 59966.3 3673.57   3
  -2  -7   3 56008.8 2454.26   4
   2   7  -2 24769.0 1202.22   5
  -2  -7   2 22913.9 2082.18   3
  -2  -7   2 22730.6 1206.20   4
   2   7  -1 6622.01 1087.43   2
  -2  -7   1 5851.23 1019.74   3
  -2  -7   1 6461.08 506.694   4
  -2  -7   0 353.592 418.887   3
  -2  -7   0 968.296 217.771   4
   2   7   0 352.981 518.738   2
  -2  -7  -1 7680.98 532.749   4
  -2  -7  -1 6600.44 1091.88   3
   2   7   1 8329.82 1289.86   2
  -2  -7  -2 32075.5 1437.78   4
  -2  -7  -2 34880.0 2566.79   3
   2   7   2 35849.7 2685.03   2
  -2  -7  -3 27761.8 1350.33   4
   2   7   3 27522.5 2323.81   2
  -2  -7  -3 27948.1 2259.49   3
  -2  -7  -4 1741.76 616.876   3
  -2  -7  -4 1571.63 310.542   4
   2   7   4 1833.06 698.306   2
  -2  -7  -5 1990.71 720.776   3
  -2  -7  -5 2878.22 462.962   4
  -2  -7  -5 2788.33 366.487   5
   2   7   5 3077.30 813.371   2
  -2  -7  -5 2122.45 299.964   5
   2   7   6 236857. 9668.43   2
  -2  -7  -6 241478. 8436.64   5
  -2  -7  -6 231599. 9504.00   3
  -2  -7  -6 235706. 8504.86   4
   2   7   7 15501.4 1231.02   4
   2   7   7 14135.3 1597.16   2
  -2  -7  -7 16668.6 1674.31   3
  -2  -7  -7 15627.1 1254.25   4
   2   7   8 62976.9 3711.02   2
  -2  -7  -8 61000.5 3611.16   3
  -2  -7  -8 64722.8 3162.92   4
  -2  -7  -9 4189.21 885.965   3
  -2  -7  -9 3401.09 682.397   4
   2   7   9 3546.46 897.636   2
   2   7  10 116755. 5718.02   2
  -2  -7 -10 115512. 5594.06   3
  -2  -7 -10 128960. 5453.07   4
  -2  -7 -11 4904.83 923.674   4
   2   7  11 3923.68 873.665   2
  -2  -7 -12 39353.4 2826.69   5
   2   7  12 37608.1 2760.55   2
  -2  -7 -12 41204.9 2797.46   4
  -2  -7 -13 95472.5 5014.48   5
   2   7  13 81560.4 4600.01   2
  -2  -7 -13 92326.0 4838.75   4
  -2  -7 -14 33489.6 2810.70   5
  -2  -7 -14 30032.5 2554.94   4
  -2  -7 -15 3580.04 1011.99   4
   2   8 -12 1533.19 865.730   1
   2   8 -12-7.07235 818.606   5
  -2  -8  11 932.332 758.973   3
   2   8 -11 576.601 652.292   1
   2   8 -11-954.064 687.946   5
  -2  -8  10-475.083 583.407   3
   2   8 -10 1236.67 669.574   5
  -2  -8   9 741.541 572.643   3
   2   8  -9 676.430 448.704   5
  -2  -8   8 8904.91 1390.14   3
   2   8  -8 9731.73 1240.16   5
  -2  -8   7 1180.44 664.294   3
   2   8  -7 530.144 366.440   5
  -2  -8   6 10413.0 1521.70   3
   2   8  -6 10545.8 1117.02   5
  -2  -8   5 11709.8 1623.84   3
   2   8  -5 11205.1 1031.65   5
  -2  -8   4 162861. 7696.80   3
   2   8  -4 168461. 6148.43   5
   2   8  -3 22834.1 1215.60   5
  -2  -8   3 24318.5 2316.83   3
   2   8  -2 38994.6 1516.29   5
  -2  -8   2 44470.0 3216.67   3
  -2  -8   2 45116.5 1814.34   4
   2   8  -1 76539.0 4520.16   2
  -2  -8   1 75041.7 4460.70   3
  -2  -8   1 74585.8 2738.37   4
   2   8   0 79719.1 4565.50   2
  -2  -8   0 71693.6 2515.84   4
  -2  -8   0 80013.0 4475.02   3
  -2  -8   0 70232.3 2506.30   4
  -2  -8  -1 134015. 4391.47   4
  -2  -8  -1 150296. 6725.52   3
  -2  -8  -1 128560. 4367.84   4
   2   8   1 149135. 6717.85   2
  -2  -8  -2 1613.70 676.174   3
  -2  -8  -2 2188.56 214.913   4
   2   8   2 1725.30 662.734   2
  -2  -8  -3 143949. 6841.10   3
   2   8   3 147119. 6787.20   2
  -2  -8  -3 142590. 4930.15   4
  -2  -8  -4 44.3493 505.977   3
  -2  -8  -4 136.598 175.626   4
   2   8   5 17252.8 1839.30   2
  -2  -8  -5 17102.1 1848.19   3
  -2  -8  -5 17641.7 1090.18   4
  -2  -8  -6 11802.4 714.924   5
   2   8   6 12320.6 1533.07   2
  -2  -8  -6 11865.6 1550.34   3
  -2  -8  -6 11394.9 918.279   4
  -2  -8  -7 18967.4 1170.33   5
   2   8   7 19820.0 1947.71   2
  -2  -8  -7 15415.6 1793.63   3
  -2  -8  -7 19475.0 1332.38   4
  -2  -8  -8 10757.9 1478.34   3
  -2  -8  -8 14040.2 1088.88   5
   2   8   8 14362.2 1612.89   2
  -2  -8  -8 12707.3 1134.49   4
  -2  -8  -9-1056.41 606.119   3
  -2  -8  -9-210.760 347.523   4
   2   8   9 548.653 557.302   2
  -2  -8  -9-33.3496 339.065   5
  -2  -8 -10 4562.61 976.159   3
  -2  -8 -10 6452.26 902.663   4
   2   8  10 3886.88 904.446   2
  -2  -8 -11-53.5885 420.160   4
   2   8  11 205.133 453.534   2
  -2  -8 -12 11874.5 1356.28   4
   2   8  12 9037.57 1399.96   2
  -2  -8 -13-342.007 657.298   4
   2   8  13 1582.72 654.670   2
   2   9 -11 81700.5 5328.09   1
  -2  -9  11 82990.8 5121.77   3
  -2  -9  10 20335.2 2347.42   3
  -2  -9   9 57277.6 4014.16   3
  -2  -9   8 534.545 531.611   3
  -2  -9   7 52730.4 3773.58   3
   2   9  -6 60912.4 2996.03   5
  -2  -9   6 59686.3 4071.11   3
  -2  -9   5 5973.23 1216.86   3
   2   9  -5 6090.08 700.777   5
  -2  -9   4 12008.6 1741.95   3
  -2  -9   3-564.193 622.265   3
  -2  -9   2 1086.49 563.413   3
   2   9  -1 21053.6 2262.18   2
  -2  -9   1 20329.5 2223.87   3
  -2  -9   0 1174.52 724.829   3
   2   9   0 674.366 502.795   2
  -2  -9  -1 9368.94 1493.54   3
   2   9   1 8922.96 1423.58   2
  -2  -9  -2 33912.4 2975.36   3
   2   9   2 35873.5 2832.99   2
  -2  -9  -3 46804.9 3538.14   3
   2   9   3 50216.6 3399.76   2
  -2  -9  -4 910.114 791.292   3
   2   9   4 1955.06 743.548   2
  -2  -9  -5 23082.5 2342.45   3
   2   9   5 25505.1 2296.76   2
  -2  -9  -6 9509.59 1481.92   3
   2   9   6 9300.65 1374.62   2
  -2  -9  -7 71712.6 4447.88   3
   2   9   7 71818.5 4220.15   2
  -2  -9  -8 6149.13 1142.76   3
   2   9   8 9748.26 1382.11   2
  -2  -9  -9 17192.9 1903.27   3
   2   9   9 19696.0 1978.91   2
   2   9  10 8490.79 1345.33   2
   2   9  11 724.737 575.935   2
   2   9  12 1976.01 905.454   2
   2   9  13 21981.8 2206.06   2
  -2 -10  10 854.607 715.069   3
  -2 -10   9 4211.81 1183.43   3
  -2 -10   8 373.119 595.365   3
  -2 -10   7 11128.7 1743.08   3
  -2 -10   6 2594.39 923.279   3
  -2 -10   5 95460.5 5597.28   3
  -2 -10   4 12136.3 1787.32   3
  -2 -10   3 10196.2 1673.83   3
  -2 -10   2 13761.5 1912.02   3
   2  10  -1 24846.6 2484.96   2
  -2 -10   1 23392.6 2516.01   3
   2  10   0 26088.8 2504.56   2
  -2 -10   0 27740.9 2730.61   3
  -2 -10  -1 1199.07 811.418   3
   2  10   1 711.048 593.734   2
  -2 -10  -2 22129.7 2424.35   3
   2  10   2 20900.1 2164.75   2
  -2 -10  -3 11084.8 1735.55   3
   2  10   3 12835.1 1658.40   2
  -2 -10  -4 16375.9 2067.93   3
   2  10   4 13988.5 1733.32   2
  -2 -10  -5 152.691 551.414   3
   2  10   5 1081.95 644.254   2
  -2 -10  -6 52.6645 654.721   3
   2  10   6 275.260 643.112   2
  -2 -10  -7 4387.77 1135.88   3
   2  10   7 4969.16 1085.33   2
  -2 -10  -8 28804.8 2664.09   3
   2  10   8 26833.3 2443.55   2
  -2 -10  -9 35734.2 2951.58   3
   2  10   9 29675.6 2609.83   2
   2  10  10 1767.43 732.475   2
   2  10  11 74157.4 4441.56   2
   2  10  12 7855.01 1408.27   2
  -2 -11   8 2316.92 950.832   3
  -2 -11   7 8914.97 1611.79   3
  -2 -11   6 9322.78 1663.47   3
  -2 -11   5 959.358 798.703   3
  -2 -11   4-157.922 807.924   3
  -2 -11   3 21918.8 2517.47   3
  -2 -11   2 504.022 743.595   3
   2  11  -1 76754.4 4746.53   2
  -2 -11   1 73907.9 4974.17   3
   2  11   0 35869.1 3018.40   2
  -2 -11   0 32680.4 3165.68   3
   2  11   1 59284.3 3998.63   2
  -2 -11  -1 63508.9 4536.39   3
  -2 -11  -2 14984.1 2129.73   3
   2  11   2 16293.1 1921.88   2
  -2 -11  -3 37019.9 3359.12   3
   2  11   3 37600.7 2975.08   2
  -2 -11  -4 72470.8 4888.26   3
   2  11   4 70348.5 4320.49   2
  -2 -11  -5 12184.6 1886.75   3
   2  11   5 13525.8 1723.68   2
  -2 -11  -6 70100.0 4744.52   3
   2  11   6 70546.2 4313.48   2
  -2 -11  -7-659.686 555.831   3
   2  11   7 2214.25 910.208   2
  -2 -11  -8 17315.6 2149.25   3
   2  11   8 16467.7 1932.71   2
   2  11   9 463.777 498.298   2
   2  11  10 11032.5 1620.64   2
  -2 -12   5 834.137 761.648   3
  -2 -12   4 86620.6 5557.05   3
  -2 -12   3 14201.2 2085.86   3
  -2 -12   2-83.4043 797.612   3
   2  12  -1 11421.8 1683.83   2
  -2 -12   1 14764.6 2142.82   3
   2  12   0 7929.19 1412.84   2
  -2 -12   0 6495.81 1435.16   3
  -2 -12  -1 1752.00 1042.37   3
   2  12   1 1616.43 819.932   2
  -2 -12  -2 4247.88 1351.76   3
   2  12   2 4029.93 1119.62   2
  -2 -12  -3 249.019 724.303   3
   2  12   3 1024.67 623.159   2
  -2 -12  -4-166.318 692.054   3
   2  12   4-180.895 601.265   2
  -2 -12  -5 31043.8 3124.03   3
   2  12   5 34350.1 2849.91   2
  -2 -12  -6 14902.8 2083.12   3
   2  12   6 13958.6 1793.58   2
  -2 -12  -7 1243.84 830.911   3
   2  12   7 1211.45 662.769   2
  -2 -12  -8 14986.6 2092.26   3
   2  13  -1 18355.7 2172.80   2
   2  13   0 24283.7 2492.70   2
  -2 -13   0 26380.7 2960.88   3
  -2 -13  -1 476.462 778.221   3
   2  13   1 365.687 626.184   2
  -2 -13  -2 7843.12 1647.33   3
   2  13   2 5027.32 1206.36   2
  -2 -13  -3 42374.5 3837.44   3
   2  13   3 40898.9 3271.69   2
  -2 -13  -4 2987.28 1053.04   3
  -2 -13  -5 1439.04 982.805   3
  -2 -13  -6 3123.39 1262.34   3
  -2 -13  -7 2465.42 985.638   3
  -3  13   0 10925.7 1578.13   2
  -3  13  -1 1390.35 728.737   2
  -3  13  -2 661.065 650.280   1
  -3  13  -2 1134.28 624.565   2
  -3  13  -3 823.412 613.707   2
  -3  13  -3-114.491 440.005   1
  -3  13  -4-2249.44 893.000   1
  -3  12   3 2452.33 927.577   2
  -3  12   2 5574.50 1185.59   2
  -3  12   1 17132.0 1984.03   2
  -3  12   0 2291.82 792.137   2
  -3  12  -1 46847.0 3258.78   1
  -3  12  -1 48725.9 3352.30   2
  -3  12  -2 1139.93 513.851   2
  -3  12  -2 2078.07 724.734   1
  -3  12  -3 3236.97 810.013   2
  -3  12  -3 2661.03 815.692   1
  -3  12  -4 1679.75 649.822   2
  -3  12  -4 474.431 526.082   1
  -3  12  -5 17390.0 2099.40   1
  -3  12  -6 1746.88 857.374   1
  -3  11   5-1156.83 673.775   2
  -3  11   4 2080.20 799.648   2
  -3  11   3 6237.36 1201.79   2
  -3  11   2 23.8902 478.615   2
  -3  11   1 1342.35 527.336   1
  -3  11   1 1050.81 560.562   2
  -3  11   0 20124.6 1888.05   1
  -3  11   0 22221.9 2151.40   2
  -3  11  -1 15902.3 1730.61   1
  -3  11  -1 16450.5 1837.88   2
  -3  11  -2 2944.94 833.668   2
  -3  11  -2 2906.52 836.731   1
  -3  11  -3 23638.9 2099.93   2
  -3  11  -3 19939.4 2083.31   1
  -3  11  -4 792.771 566.875   2
  -3  11  -4 52.0915 588.972   1
  -3  11  -5 82692.7 4923.19   1
  -3  11  -5 81451.1 4329.43   2
  -3  11  -6-738.640 655.214   1
  -3  11  -7 47402.3 3687.64   1
  -3  11  -8 19792.7 2365.66   1
   3 -10  -8 3035.71 907.786   5
   3 -10  -7 14885.4 1697.68   5
   3 -10  -6 23041.8 2109.46   5
   3 -10  -5 97741.9 4981.61   5
   3 -10  -4 20438.2 1957.36   5
  -3  10   3 4921.50 1073.44   2
   3 -10  -3 4821.52 951.247   5
  -3  10   2 85134.2 4104.49   1
   3 -10  -2 84843.5 4607.94   5
  -3  10   2 91143.2 4787.39   2
  -3  10   1 3135.93 879.543   2
  -3  10   1 2531.07 618.497   1
   3 -10  -1 2712.67 799.352   5
  -3  10   0 27348.5 2106.97   1
  -3  10   0 25265.4 2236.21   2
   3 -10   0 27385.1 2255.45   5
  -3  10  -1-256.521 457.825   2
  -3  10  -1 1202.76 538.824   1
  -3  10  -2 70428.1 3972.19   1
  -3  10  -2 69024.3 3995.38   2
  -3  10  -3 673.381 480.737   2
  -3  10  -3 357.020 510.847   1
  -3  10  -4 3675.05 905.401   1
  -3  10  -4 4843.95 912.920   2
  -3  10  -5 2436.07 853.346   1
  -3  10  -5 6701.14 1006.83   2
  -3  10  -6 1429.93 580.308   1
  -3  10  -6 4090.78 844.238   2
  -3  10  -7 7201.84 1394.48   1
  -3  10  -8 369.463 547.958   1
  -3  10  -9 4087.90 1225.72   1
   3  -9 -10 15643.5 2061.03   5
   3  -9  -9 10606.9 1635.53   5
   3  -9  -8 7989.35 1367.83   5
   3  -9  -7 324.889 649.124   5
   3  -9  -6 1209.17 568.766   5
   3  -9  -5 11261.8 1424.25   5
   3  -9  -4 3605.70 892.498   5
  -3   9   3 19333.9 1404.37   1
   3  -9  -3 18660.1 1855.02   5
  -3   9   2 28648.3 1890.16   1
   3  -9  -2 31884.8 2459.34   5
  -3   9   1 3936.38 706.630   1
   3  -9  -1 2886.02 825.733   5
  -3   9   0 3917.81 849.819   2
  -3   9   0 4104.95 776.784   1
  -3   9   0 2083.41 476.357   4
   3  -9   0 3542.67 916.577   5
  -3   9  -1 14584.5 1153.52   4
  -3   9  -1 16460.4 1558.35   1
  -3   9  -1 16651.1 1667.14   2
   3  -9   1 12757.6 1531.07   5
  -3   9  -2 24544.4 1546.72   4
  -3   9  -2 26194.5 2126.04   2
  -3   9  -2 25901.4 2059.11   1
  -3   9  -3 1278.98 506.123   2
  -3   9  -3 1667.78 420.139   4
  -3   9  -3 1901.25 630.142   1
  -3   9  -4 70146.6 3141.28   4
  -3   9  -4 63782.4 3851.31   1
  -3   9  -4 66184.4 3657.29   2
  -3   9  -5 5066.35 691.690   4
  -3   9  -5 4168.27 1045.62   1
  -3   9  -5 4014.85 768.305   2
  -3   9  -6 12123.2 1138.52   4
  -3   9  -6 16000.8 1836.87   1
  -3   9  -6 13270.6 1354.90   2
  -3   9  -7 5197.51 802.476   4
  -3   9  -7 6216.59 1290.09   1
  -3   9  -8 12614.7 1244.33   4
  -3   9  -8 12283.5 1756.21   1
  -3   9  -9 22736.9 2419.54   1
  -3   9  -9 19607.7 1686.78   4
  -3   9 -10-35.6338 417.859   4
  -3   9 -10 695.550 973.685   1
  -3   9 -11 4101.77 1187.10   1
  -3   9 -11 3098.05 713.671   4
   3  -8 -11 7083.58 1561.32   5
   3  -8 -10 20484.3 2407.11   5
   3  -8  -9 13426.9 1903.28   5
   3  -8  -8 16646.5 1983.13   5
   3  -8  -7 323.520 497.705   5
   3  -8  -6 41056.7 3027.06   5
   3  -8  -5 26934.9 2303.69   5
  -3   8   4 6015.47 603.055   1
   3  -8  -4 5846.66 1086.96   5
  -3   8   3 9347.79 857.936   1
   3  -8  -3 8732.74 1291.57   5
  -3   8   2 787.026 323.663   1
   3  -8  -2-124.780 451.765   5
  -3   8   1 3238.69 608.343   1
   3  -8  -1 1869.16 678.394   5
   3  -8   0 6834.09 1116.32   5
  -3   8   0 6426.13 863.989   1
  -3   8  -1 455.162 320.810   4
   3  -8   1-59.7059 431.583   5
  -3   8  -1 415.199 395.145   1
  -3   8  -2 1799.73 548.258   2
  -3   8  -2 1523.09 439.686   4
  -3   8  -2 870.651 453.513   1
  -3   8  -3 55116.5 2752.13   4
  -3   8  -3 56730.4 3220.53   2
  -3   8  -3 55456.5 3230.66   1
  -3   8  -4 14883.0 1228.41   4
  -3   8  -4 14471.2 1455.39   2
  -3   8  -4 13902.6 1559.12   1
  -3   8  -5 4333.96 739.194   2
  -3   8  -5 4533.02 709.552   4
  -3   8  -6 36027.8 2141.79   4
  -3   8  -6 33087.1 2143.63   2
  -3   8  -6 30288.6 2536.47   1
  -3   8  -7 7475.75 951.229   4
  -3   8  -7 6889.74 943.279   2
  -3   8  -7 5994.94 1201.10   1
  -3   8  -8 66032.2 3453.52   4
  -3   8  -8 68445.1 4261.47   1
  -3   8  -9 866.499 664.881   1
  -3   8  -9 365.212 421.403   4
  -3   8 -10 130508. 6873.08   1
  -3   8 -10 137919. 6078.14   4
  -3   8 -11 6843.35 1091.62   4
  -3   8 -12 15191.0 1713.04   4
  -3   8 -13 17457.9 1883.42   4
   3  -7 -12-3788.70 1284.51   5
   3  -7 -11-1144.34 821.812   5
   3  -7 -10-242.683 623.020   5
   3  -7  -9 1486.43 792.314   5
   3  -7  -8 17153.0 2032.32   5
   3  -7  -7 15055.4 1776.71   5
   3  -7  -6 18749.4 1942.79   5
   3  -7  -5 26045.4 2264.18   5
   3  -7  -4 76947.4 4092.54   5
  -3   7   4 68182.4 2653.84   1
  -3   7   3 3475.35 469.021   1
   3  -7  -3 3789.02 844.574   5
   3  -7  -2 73762.0 4137.17   5
  -3   7   2 74434.9 3180.83   1
   3  -7  -1 99862.5 5128.38   5
  -3   7   1 96923.3 4075.78   1
  -3   7   0 99638.7 4231.87   1
   3  -7   0 95182.5 5036.21   5
  -3   7  -1 48099.0 2627.17   4
   3  -7   1 45007.6 3135.45   5
  -3   7  -1 49266.7 2644.73   1
  -3   7  -2 3584.98 660.472   1
   3  -7   2 3186.48 778.032   5
  -3   7  -3 123575. 5195.57   4
  -3   7  -3 124580. 5370.51   2
  -3   7  -3 131459. 5617.10   1
  -3   7  -4 8436.63 951.600   4
  -3   7  -4 8699.25 1036.08   2
  -3   7  -4 10091.2 1244.72   1
  -3   7  -5 50959.8 2762.12   4
  -3   7  -5 52564.2 2870.27   2
  -3   7  -5 54355.8 3268.46   1
  -3   7  -6 15404.3 1388.89   4
  -3   7  -6 15848.2 1333.32   2
  -3   7  -6 16388.9 1721.68   1
  -3   7  -7 2596.76 749.891   1
  -3   7  -7 3785.34 726.988   4
  -3   7  -7 2490.50 556.674   2
  -3   7  -8 1532.91 647.841   1
  -3   7  -8 2607.23 659.560   4
  -3   7  -9 3384.54 966.595   1
  -3   7  -9 2888.76 735.438   4
  -3   7 -10 5780.91 1032.02   4
  -3   7 -11 1269.68 659.586   4
  -3   7 -12 27940.9 2401.98   4
  -3   7 -13 1951.47 782.396   4
  -3   7 -14 26868.5 2486.92   4
   3  -6 -12 56.9259 739.818   5
   3  -6 -11 29103.8 3015.71   5
   3  -6 -10 3058.93 1076.14   5
   3  -6  -9 79956.1 4996.40   5
   3  -6  -8 51515.9 3680.75   5
   3  -6  -7 41570.0 3097.60   5
   3  -6  -6 5112.99 1009.96   5
   3  -6  -5 17876.9 1847.66   5
   3  -6  -4 3148.68 815.662   5
   3  -6  -3 2423.58 700.696   5
   3  -6  -2 13598.8 1525.66   5
  -3   6   2 14151.9 936.487   1
   3  -6  -1 5766.17 1025.07   5
  -3   6   1 4993.16 591.744   1
   3  -6   0 21349.5 2036.02   5
  -3   6   0 19675.7 1344.86   1
   3  -6   1 29220.7 2470.43   5
  -3   6  -1 30240.5 1838.93   1
  -3   6  -2 8084.03 970.932   4
   3  -6   2 8574.72 1224.96   5
  -3   6  -2 8929.38 993.804   1
  -3   6  -3 6798.15 897.777   4
  -3   6  -3 4755.03 790.306   1
  -3   6  -4 67019.9 3399.02   4
  -3   6  -4 71551.9 3332.77   2
  -3   6  -4 70355.7 3587.36   1
  -3   6  -5 38959.4 2333.47   4
  -3   6  -5 36466.5 2188.56   2
  -3   6  -5 40674.0 2593.55   1
  -3   6  -6-6.62452 279.782   4
  -3   6  -6 289.050 260.039   2
  -3   6  -6 632.525 503.555   1
  -3   6  -7 92445.9 4266.11   4
  -3   6  -7 86902.3 4584.64   1
  -3   6  -7 82277.6 3779.02   2
  -3   6  -8 852.091 529.831   4
  -3   6  -8-80.8104 448.777   1
  -3   6  -9 13503.0 1460.76   4
  -3   6 -10 3237.90 810.889   4
  -3   6 -11 41996.0 2978.67   4
  -3   6 -12 10376.0 1480.46   4
  -3   6 -13 3752.16 1052.52   4
  -3   6 -14 783.617 727.183   4
   3  -5 -12 8755.39 1797.98   5
   3  -5 -11 5078.94 1315.22   5
   3  -5 -10 1218.12 630.007   5
   3  -5  -9 10488.0 1681.60   5
   3  -5  -8 8006.68 1383.69   5
   3  -5  -7 56582.4 3723.83   5
   3  -5  -6 3887.85 915.086   5
   3  -5  -5 23202.4 2082.71   5
  -3   5   5 23137.8 1493.26   3
   3  -5  -4 14203.5 1570.82   5
  -3   5   4 16634.2 1242.25   3
   3  -5  -3 103870. 5052.85   5
   3  -5  -2 33237.4 2420.15   5
   3  -5  -1 14358.8 1537.87   5
  -3   5   0 31829.2 1687.38   1
   3  -5   0 30732.7 2429.55   5
  -3   5  -1 1948.47 416.582   1
   3  -5   1 1992.66 700.943   5
  -3   5  -2 9704.62 941.960   1
  -3   5  -2 8218.82 1050.55   4
   3  -5   2 8922.53 1282.65   5
  -3   5  -3 1225.12 462.954   4
   3  -5   3 1573.09 574.576   5
  -3   5  -3 2833.53 569.434   1
  -3   5  -4 667.750 354.925   1
  -3   5  -4 547.465 344.419   4
  -3   5  -5 117.734 344.258   1
  -3   5  -5 17.1664 186.332   2
  -3   5  -5-175.669 369.627   4
  -3   5  -6 39728.7 2465.78   4
  -3   5  -6 35574.7 2443.58   1
  -3   5  -6 39207.5 2011.17   2
  -3   5  -7 37389.1 2316.47   4
  -3   5  -7 24979.8 1447.74   2
  -3   5  -8 30387.5 2226.31   4
  -3   5  -9 12026.0 1379.88   4
  -3   5 -10 1601.17 676.101   4
  -3   5 -11 117129. 5805.25   4
  -3   5 -12 2030.86 847.206   4
  -3   5 -13 75654.8 4596.14   4
  -3   5 -14 10503.1 1694.40   4
   3  -4 -12 46227.7 4114.58   5
   3  -4 -11 438.160 665.473   5
   3  -4 -10 1387.91 894.245   5
   3  -4  -9 14827.3 1949.90   5
   3  -4  -8 21440.6 2252.25   5
   3  -4  -7 4000.30 947.522   5
   3  -4  -6 7599.41 1220.72   5
   3  -4  -5 1190.68 516.101   5
   3  -4  -4 9260.99 1236.40   5
   3  -4  -3 134772. 6064.30   5
   3  -4  -2-695.907 434.645   5
   3  -4  -1 25245.3 2038.87   5
   3  -4   0 47416.9 3032.13   5
   3  -4   1 277859. 11019.1   5
   3  -4   2 45932.2 3104.48   5
  -3   4  -3 41927.3 2568.71   4
   3  -4   3 35519.9 2630.58   5
  -3   4  -4 123473. 5475.09   4
  -3   4  -5 21394.3 1751.56   4
  -3   4  -6 53155.6 2980.63   4
  -3   4  -6 48079.7 2187.14   2
  -3   4  -7 2361.02 640.331   4
  -3   4  -7 1496.00 190.634   2
  -3   4  -8 160910. 6921.30   4
  -3   4  -9 259.370 396.100   4
  -3   4 -10 2506.99 768.239   4
  -3   4 -11 1053.24 642.781   4
  -3   4 -12 2593.20 892.343   4
  -3   4 -13 259.983 594.036   4
  -3   4 -14 3490.80 1158.68   4
  -3   4 -15 3011.97 1097.81   4
   3  -3 -13 38277.9 3929.64   5
   3  -3 -12 12988.5 2201.83   5
   3  -3 -11 9728.40 1814.14   5
   3  -3 -10 134281. 7243.33   5
   3  -3  -9 13693.7 1867.66   5
   3  -3  -8 32326.8 2808.28   5
   3  -3  -7 9082.14 1398.46   5
   3  -3  -6 178069. 7832.18   5
   3  -3  -5 79337.9 4263.81   5
   3  -3  -4 54793.3 3278.11   5
   3  -3  -3 8093.79 1109.80   5
   3  -3  -2 71303.2 3807.87   5
   3  -3  -1 4274.80 838.961   5
   3  -3   0 7250.64 1082.49   5
   3  -3   1 17240.0 1735.61   5
   3  -3   2 11542.0 903.002   1
   3  -3   2 13586.4 1590.49   5
   3  -3   3 30951.4 1719.55   1
  -3   3  -3 29226.5 2136.35   4
   3  -3   3 25703.6 2198.02   5
  -3   3  -4 98320.2 4715.97   4
   3  -3   4 95235.0 4034.98   1
  -3   3  -5 1281.26 535.222   4
  -3   3  -6 233.956 380.789   4
  -3   3  -7 80588.7 4177.94   4
  -3   3  -8 83996.1 4380.68   4
  -3   3  -9 12033.8 1452.66   4
  -3   3 -10 49220.9 3300.36   4
  -3   3 -11 7388.55 1297.23   4
  -3   3 -12 43017.6 3299.01   4
  -3   3 -13 12312.8 1828.72   4
  -3   3 -14 30792.4 2949.60   4
  -3   3 -15 15986.0 2202.30   4
   3  -2 -13 29195.0 3419.71   5
   3  -2 -12 1405.40 921.800   5
   3  -2 -11 4217.13 1332.27   5
   3  -2 -10 1764.13 845.268   5
   3  -2  -9 6473.71 1334.04   5
   3  -2  -8 129.361 480.728   5
   3  -2  -7 221.627 411.884   5
   3  -2  -6 33359.6 2603.42   5
   3  -2  -5 15124.4 1608.96   5
   3  -2  -4 35442.6 2494.02   5
   3  -2  -3 1652.21 585.765   5
   3  -2  -2 31300.0 2260.55   5
   3  -2  -1 9850.67 1180.69   5
   3  -2  -1 8566.91 569.890   1
   3  -2   0 143933. 6140.49   5
   3  -2   0 135989. 4908.51   1
   3  -2   1 77910.2 3098.75   1
   3  -2   1 73441.1 4092.99   5
   3  -2   2 36844.1 2751.77   5
   3  -2   2 37419.6 1886.77   1
  -3   2  -3 15431.6 1520.54   4
   3  -2   3 16604.6 1716.00   5
   3  -2   3 20861.1 1320.31   1
   3  -2   4 4204.33 602.520   1
  -3   2  -4 3372.78 770.567   4
  -3   2  -5 4087.87 851.562   4
  -3   2  -6 507.814 483.354   4
  -3   2  -6 297.919 135.783   2
  -3   2  -7 7887.01 1122.17   4
  -3   2  -8 708.249 501.963   4
  -3   2  -9 66380.2 3925.10   4
  -3   2 -10 20232.4 2051.29   4
  -3   2 -11 14487.5 1791.17   4
  -3   2 -12 13939.9 1858.28   4
  -3   2 -13 30454.7 2921.88   4
  -3   2 -14 71177.8 4888.04   4
  -3   2 -15 3658.74 1223.67   4
   3  -1 -13 15655.9 2519.62   5
   3  -1 -12 1660.63 1062.11   5
   3  -1 -11 46064.9 4021.77   5
   3  -1 -10 35413.9 3324.21   5
   3  -1  -9 21890.5 2460.35   5
  -3   1   9 27226.8 1580.69   3
   3  -1  -8 12424.3 1717.25   5
   3  -1  -7 20938.8 2105.27   5
   3  -1  -6 166.631 401.021   5
   3  -1  -5 238.584 384.908   5
   3  -1  -4 18472.5 1700.72   5
   3  -1  -3 30041.4 2194.26   5
   3  -1  -2 96541.4 4609.92   5
   3  -1  -1 101437. 4753.55   5
   3  -1   0 36114.7 2412.91   5
   3  -1   1 5697.94 943.158   5
   3  -1   2 165070. 7187.85   5
  -3   1  -3 1036.73 451.398   4
   3  -1   3 428.095 358.503   5
   3  -1   4 200213. 7267.92   1
  -3   1  -4 188753. 7995.31   4
   3  -1   5 197458. 7649.52   1
  -3   1  -5 222044. 8862.54   4
  -3   1  -6 184363. 7304.22   4
  -3   1  -6 147766. 5394.89   2
  -3   1  -7 46088.5 3131.22   4
  -3   1  -8 6110.87 1117.49   4
  -3   1  -9 157260. 7305.18   4
  -3   1 -10 5658.68 1103.01   4
  -3   1 -11 63228.2 4172.68   4
  -3   1 -12 4825.55 1212.94   4
  -3   1 -13 14050.1 2047.94   4
  -3   1 -14 4592.33 1228.10   4
  -3   1 -15 1650.98 1137.46   4
   3   0 -13 21533.4 3088.57   5
   3   0 -12 7310.98 1715.84   5
   3   0 -11 9643.38 1875.05   5
   3   0 -10 20537.1 2509.67   5
   3   0  -9 31289.0 2983.46   5
  -3   0   9 34407.7 2005.67   3
   3   0  -8 61135.7 4104.99   5
  -3   0   8 60564.1 2942.89   3
   3   0  -7 123906. 6428.36   5
   3   0  -7 134394. 4814.65   1
   3   0  -6 6242.67 529.868   1
   3   0  -6 6070.12 1105.16   5
   3   0  -5 98488.4 4952.59   5
   3   0  -4 55643.8 3255.49   5
   3   0  -3 230210. 9013.75   5
   3   0  -2 122926. 5446.66   5
   3   0  -1 84014.4 4082.56   5
   3   0   0 15193.5 1409.57   5
   3   0   1 101091. 4787.54   5
   3   0   2 15573.2 1554.55   5
  -3   0  -3 7349.85 979.427   4
   3   0   3 8346.81 1097.55   5
  -3   0  -4 16358.9 1032.36   2
  -3   0  -4 17140.9 1531.02   4
  -3   0  -5 9437.99 1238.07   4
  -3   0  -5 10193.9 1336.75   5
  -3   0  -5 9600.70 784.307   2
  -3   0  -6 27809.2 2327.94   4
  -3   0  -6 24482.3 1384.41   2
  -3   0  -7 33671.8 2565.92   4
  -3   0  -7 26874.9 1478.31   2
  -3   0  -8 827.178 545.806   4
  -3   0  -9 11056.2 1527.21   4
  -3   0 -10 89573.4 5038.18   4
  -3   0 -11 25929.0 2515.66   4
  -3   0 -12-163.843 699.765   4
  -3   0 -13 36525.7 3300.19   4
  -3   0 -14 178.969 870.850   4
  -3   0 -15 17876.8 2441.16   4
   3   1 -13 35976.3 4041.45   5
   3   1 -12 31815.8 3652.52   5
   3   1 -11 22110.3 2832.00   5
   3   1 -10 73812.8 5178.32   5
  -3  -1   9 3111.75 629.188   3
   3   1  -9 3621.33 1053.74   5
  -3  -1   8 3269.71 638.538   3
   3   1  -8 3254.72 1011.91   5
   3   1  -7 159.866 209.506   1
  -3  -1   7 116.446 327.543   3
   3   1  -7 265.764 520.290   5
   3   1  -6 10608.1 1400.26   5
   3   1  -5 269.576 366.822   5
   3   1  -4 2964.69 644.432   5
   3   1  -3 34813.7 2313.72   5
  -3  -1   3 38261.4 2332.13   5
   3   1  -2 15722.4 1417.17   5
   3   1  -1 117924. 5135.69   5
   3   1   0 2447.64 576.210   5
   3   1   1 18704.5 1594.05   5
  -3  -1  -1 19250.5 1468.53   5
   3   1   2 8351.34 1085.39   5
  -3  -1  -3 130716. 5049.72   2
  -3  -1  -3 135297. 5635.75   4
   3   1   3 136008. 5789.11   5
  -3  -1  -4 98095.3 4584.68   4
  -3  -1  -4 101788. 4080.21   2
  -3  -1  -5 61419.8 3418.40   4
  -3  -1  -5 66316.1 3611.94   5
  -3  -1  -5 58870.4 2785.35   2
  -3  -1  -6 1688.70 431.530   2
  -3  -1  -6 2172.79 632.317   4
  -3  -1  -7 3026.44 537.921   2
  -3  -1  -7 4706.03 923.019   4
  -3  -1  -8 20239.5 1957.79   4
  -3  -1  -9 1093.12 702.046   4
  -3  -1 -10 877.919 715.664   4
  -3  -1 -11 1366.91 752.988   4
  -3  -1 -12 13844.5 1880.48   4
  -3  -1 -13 31326.5 2969.30   4
  -3  -1 -14 24944.3 2783.47   4
  -3  -1 -15 2368.68 1101.32   4
   3   2 -13 39900.9 4241.36   5
   3   2 -12 2518.78 997.553   5
   3   2 -11 8771.56 1752.77   5
   3   2 -10 47398.1 4037.58   5
   3   2 -10 57150.9 3026.99   1
   3   2  -9 21363.3 1607.67   1
   3   2  -9 18295.6 2318.38   5
  -3  -2   9 21315.7 1724.17   3
   3   2  -8 33788.8 2969.92   5
  -3  -2   8 43493.5 2530.81   3
  -3  -2   7 3296.64 648.856   3
   3   2  -7 3418.90 883.822   5
  -3  -2   6 136036. 5678.92   3
   3   2  -6 136322. 6329.94   5
   3   2  -5-226.375 344.293   5
   3   2  -4 3908.01 749.987   5
   3   2  -3 41217.7 2505.76   5
  -3  -2   3 44413.3 2486.29   5
   3   2  -2 71891.6 3552.56   5
   3   2  -1 3945.18 689.347   5
  -3  -2   0 27011.5 1705.06   5
   3   2   0 27711.7 1847.70   5
  -3  -2  -1 11668.0 981.583   2
   3   2   1 9549.55 1071.32   5
  -3  -2  -1 10942.3 993.046   5
   3   2   2 79.7206 237.177   5
  -3  -2  -2 211.670 189.269   5
  -3  -2  -2 605.389 301.911   2
  -3  -2  -3 162499. 6550.16   4
  -3  -2  -3 163000. 6361.82   5
   3   2   3 163591. 6665.16   5
  -3  -2  -3 166938. 6302.01   2
  -3  -2  -4 36496.8 2292.08   4
  -3  -2  -4 40261.3 2213.55   2
  -3  -2  -5 8283.07 1018.63   4
  -3  -2  -5 7168.18 821.847   2
  -3  -2  -6 16835.5 1548.55   4
  -3  -2  -6 16689.1 1649.28   5
  -3  -2  -6 12378.6 1187.47   2
  -3  -2  -7 313725. 11745.9   4
  -3  -2  -7 296394. 11249.6   2
  -3  -2  -8 41099.7 2895.44   4
  -3  -2  -9 59978.5 3705.53   4
  -3  -2 -10 88860.7 4905.41   4
  -3  -2 -11 66934.4 4209.75   4
  -3  -2 -12 26840.3 2629.24   4
  -3  -2 -13 353.304 650.372   4
  -3  -2 -14 92452.0 5709.64   4
  -3  -2 -15 966.418 842.248   4
   3   3 -13 44580.6 4423.64   5
   3   3 -12 1096.66 857.989   5
   3   3 -11 8657.63 1801.09   5
   3   3 -10 4481.07 844.728   1
  -3  -3  10 3976.33 815.651   3
   3   3 -10 3415.27 1114.27   5
  -3  -3   9 1555.13 511.715   3
   3   3  -9 2372.83 641.189   1
   3   3  -9 889.711 653.266   5
  -3  -3   8 5217.54 869.665   3
   3   3  -8 5645.95 1151.68   5
   3   3  -7 73443.5 4384.39   5
  -3  -3   7 84189.6 4068.03   3
   3   3  -6 13883.8 1548.67   5
  -3  -3   6 13523.5 1335.57   3
   3   3  -5 27824.7 2139.60   5
  -3  -3   5 32204.2 2131.35   3
   3   3  -4 92014.7 4346.07   5
   3   3  -3 37234.6 2325.18   5
  -3  -3   3 43123.2 2349.25   5
   3   3  -2 92908.9 4165.54   5
   3   3  -1 100145. 4331.62   5
  -3  -3   1 97871.0 4125.37   5
  -3  -3   0 270673. 10335.4   2
   3   3   0 291714. 10429.9   5
  -3  -3   0 306268. 10259.8   5
   3   3   1 34559.9 2116.42   5
  -3  -3  -1 35373.1 1895.35   5
  -3  -3  -1 35613.1 2105.56   2
   3   3   2 37927.9 2248.67   5
  -3  -3  -2 37558.2 1979.52   5
  -3  -3  -2 40580.9 2286.82   2
  -3  -3  -3 5815.35 790.831   4
  -3  -3  -3 4922.65 627.814   5
  -3  -3  -3 6488.96 844.589   2
  -3  -3  -4 192524. 7301.13   4
  -3  -3  -4 187315. 7160.59   5
  -3  -3  -4 186238. 7259.36   2
  -3  -3  -5 18945.1 1505.52   4
  -3  -3  -5 17319.7 1426.70   2
  -3  -3  -6 16890.6 1485.86   4
  -3  -3  -6 16699.6 1584.95   5
  -3  -3  -6 14011.7 1376.26   2
  -3  -3  -7-491.888 421.385   2
  -3  -3  -7 218.343 354.009   4
  -3  -3  -8 2233.74 680.394   4
  -3  -3  -9 3893.61 920.989   4
  -3  -3 -10 32906.6 2607.03   4
  -3  -3 -11 2772.86 871.917   4
  -3  -3 -12 83.1382 536.803   4
  -3  -3 -13 46551.9 3561.92   4
  -3  -3 -14 54828.8 4079.40   4
  -3  -3 -15 2985.15 1084.68   4
   3   4 -13 6467.88 1679.01   5
   3   4 -12 53651.1 4578.32   5
   3   4 -11 2026.01 630.292   1
   3   4 -11 2769.98 931.761   5
   3   4 -10 33405.2 2462.61   1
   3   4 -10 30928.2 3062.33   5
  -3  -4  10 32851.6 2516.16   3
   3   4  -9 74439.9 3933.58   1
   3   4  -9 66072.6 4475.71   5
  -3  -4   9 79767.4 4252.43   3
   3   4  -8 54064.6 3672.36   5
  -3  -4   8 57141.2 3418.04   3
   3   4  -7 62328.7 3856.18   5
  -3  -4   7 69262.0 3732.11   3
  -3  -4   6 897.534 424.320   3
   3   4  -6 458.592 392.687   5
  -3  -4   5 6820.36 978.308   3
   3   4  -5 6834.23 987.050   5
   3   4  -4 19883.1 1614.76   5
  -3  -4   4 22547.3 1792.10   3
   3   4  -3 12918.6 1196.84   5
   3   4  -2 5661.73 748.721   5
   3   4  -1 627.982 337.619   5
  -3  -4   1 129.633 196.826   5
   3   4   0 39012.3 2095.61   5
  -3  -4   0 35733.6 1901.23   5
  -3  -4  -1 8253.00 733.415   5
   3   4   1 6382.92 780.214   5
  -3  -4  -2 82176.4 3400.73   5
   3   4   2 86871.5 3687.74   5
  -3  -4  -3 395.196 241.218   4
  -3  -4  -3 97.8150 204.134   5
  -3  -4  -4 27960.8 1760.45   4
  -3  -4  -4 25840.5 1583.06   5
  -3  -4  -4 25750.2 1893.95   2
   3   4   5 11770.9 1236.20   2
  -3  -4  -5 11677.1 1121.30   4
  -3  -4  -5 12006.7 1254.11   2
   3   4   6 148466. 6044.02   2
  -3  -4  -6 150175. 5945.69   4
   3   4   7 89483.2 4274.96   2
  -3  -4  -7 86284.5 4246.38   4
  -3  -4  -7 94184.0 4490.29   5
  -3  -4  -7 91729.4 4791.68   2
   3   4   8 15671.5 1475.10   2
  -3  -4  -8 16887.6 1575.63   4
  -3  -4  -9 12104.8 1427.63   4
   3   4   9 14043.7 1396.11   2
  -3  -4 -10 14721.6 1639.84   4
   3   4  10 13032.2 1349.23   2
  -3  -4 -11 2490.60 804.039   4
   3   4  11 1613.36 514.940   2
  -3  -4 -12 6070.72 1226.05   4
  -3  -4 -13 6826.94 1232.55   4
  -3  -4 -14-1100.84 901.501   4
  -3  -4 -15 15583.0 2146.47   4
   3   5 -13 14045.1 2316.16   5
   3   5 -12 2581.42 1061.76   5
   3   5 -11 759.590 715.206   5
   3   5 -11 374.628 543.634   1
   3   5 -10 36453.2 2704.66   1
   3   5 -10 28221.4 2809.48   5
  -3  -5  10 34019.2 2683.33   3
   3   5  -9 14723.0 1857.80   5
  -3  -5   9 15287.9 1747.53   3
   3   5  -8 44602.0 3199.15   5
  -3  -5   8 44826.4 3117.04   3
  -3  -5   7 7463.20 1156.44   3
   3   5  -7 7045.14 1125.93   5
  -3  -5   6 3819.42 844.040   3
   3   5  -6 3925.16 787.812   5
   3   5  -5 111706. 5031.36   5
  -3  -5   5 110971. 5299.21   3
   3   5  -4 45920.9 2586.02   5
  -3  -5   4 44577.9 2863.06   3
   3   5  -3 60936.3 2986.29   5
  -3  -5   3 57188.5 3346.07   3
   3   5  -2 26300.6 1649.24   5
  -3  -5   2 22367.4 1847.28   3
  -3  -5   1 30397.4 2158.90   3
   3   5  -1 33728.0 1854.24   5
   3   5   0 235.164 225.649   5
  -3  -5   0 9.51697 160.357   5
   3   5   1 327.057 198.024   5
  -3  -5  -1 685.853 231.737   5
  -3  -5  -2 54338.7 2608.39   4
  -3  -5  -2 50744.4 2229.35   5
  -3  -5  -3 7824.96 806.038   4
  -3  -5  -3 7351.90 646.042   5
   3   5   4 22264.5 1856.05   2
  -3  -5  -4 21878.6 1467.34   4
  -3  -5  -4 20706.6 1281.77   5
  -3  -5  -5 61212.2 2957.17   4
  -3  -5  -5 56892.3 2807.75   5
   3   5   6 51088.8 3053.04   2
  -3  -5  -6 43378.4 2482.81   4
  -3  -5  -7 1399.17 462.662   4
  -3  -5  -7 1732.75 528.659   5
   3   5   7 315.702 449.608   2
  -3  -5  -8 73236.8 3733.44   4
   3   5   8 75797.8 4110.85   2
  -3  -5  -9 8135.51 1111.08   4
   3   5   9 8802.95 1234.19   2
  -3  -5 -10 60346.8 3513.04   4
   3   5  10 58331.4 3494.47   2
   3   5  11 75014.7 4014.66   2
  -3  -5 -11 70884.9 3701.87   3
  -3  -5 -11 67594.8 4014.10   4
   3   5  12 111937. 5353.22   2
  -3  -5 -12 112640. 5720.37   4
  -3  -5 -13 8622.27 1445.15   4
  -3  -5 -14 21368.3 2261.73   4
  -3  -5 -15 35851.3 3081.39   4
   3   6 -12 16735.2 2301.93   5
   3   6 -11 14930.9 1839.63   1
   3   6 -11 10380.9 1788.52   5
   3   6 -10 23943.6 2296.72   1
   3   6 -10 23026.5 2411.18   5
  -3  -6  10 25990.1 2399.74   3
  -3  -6   9 4467.29 1041.64   3
   3   6  -9 4781.35 1052.49   5
  -3  -6   8 1682.12 756.547   3
   3   6  -8 1410.18 663.091   5
   3   6  -7 20992.8 1917.53   5
  -3  -6   7 22537.0 2150.30   3
  -3  -6   6 1327.41 608.887   3
   3   6  -6 1087.57 531.276   5
   3   6  -5 23375.6 1754.73   5
  -3  -6   5 24365.7 2110.58   3
   3   6  -4 97345.8 4277.34   5
  -3  -6   4 94640.5 4911.79   3
   3   6  -3 17403.2 1307.21   5
  -3  -6   3 15716.5 1159.01   4
  -3  -6   3 16340.8 1681.46   3
   3   6  -2 32390.3 1792.81   5
  -3  -6   2 26098.6 2203.04   3
   3   6  -1 58617.6 2641.12   5
  -3  -6   1 59609.4 3411.71   3
   3   6   0 29340.1 1570.28   5
  -3  -6   0 27702.1 2136.95   3
  -3  -6  -1 90981.9 3394.10   5
  -3  -6  -1 95047.7 4574.92   3
  -3  -6  -2 57688.4 2593.27   4
  -3  -6  -2 52968.7 2159.90   5
  -3  -6  -2 55257.3 3183.80   3
  -3  -6  -3 177919. 7316.17   3
   3   6   3 189921. 7774.87   2
  -3  -6  -3 177192. 6473.85   4
  -3  -6  -3 170025. 6040.66   5
   3   6   4 7746.55 1193.02   2
  -3  -6  -4 6994.90 734.491   4
  -3  -6  -4 6074.19 569.475   5
   3   6   5 22069.2 2078.37   2
  -3  -6  -5 23965.4 1534.08   4
  -3  -6  -5 22284.7 1343.18   5
  -3  -6  -6 3807.05 626.451   4
  -3  -6  -6 3845.46 602.768   5
   3   6   6 2732.74 774.854   2
  -3  -6  -7 138938. 6188.31   3
  -3  -6  -7 135884. 5653.52   4
   3   6   7 146341. 6710.36   2
  -3  -6  -8 8955.52 1035.09   4
   3   6   8 7934.61 1277.96   2
  -3  -6  -8 9943.41 1248.30   3
  -3  -6  -9 9454.78 1170.91   4
  -3  -6  -9 8451.02 1178.47   3
   3   6   9 11491.8 1528.39   2
  -3  -6 -10-6.15137 395.810   4
  -3  -6 -10 565.813 422.675   3
   3   6  10 589.756 495.089   2
  -3  -6 -11-76.7624 422.545   4
  -3  -6 -11 547.264 383.372   3
   3   6  11-13.0819 460.842   2
  -3  -6 -12 9298.03 1325.67   4
   3   6  12 9170.79 1365.96   2
  -3  -6 -13 8523.32 1346.33   4
  -3  -6 -14 270.468 831.199   4
  -3  -6 -15 2547.53 930.800   4
   3   7 -12 443.488 697.642   5
   3   7 -11 102122. 5725.21   1
   3   7 -11 92851.7 5543.05   5
  -3  -7  10 1384.10 734.163   3
   3   7 -10 2639.84 913.220   5
   3   7  -9 52806.8 3515.10   5
  -3  -7   9 55160.4 3804.41   3
  -3  -7   8 7550.11 1353.40   3
   3   7  -8 5838.30 1027.32   5
   3   7  -7 44377.0 2840.85   5
  -3  -7   7 42380.6 3242.74   3
   3   7  -6 25743.3 1917.74   5
  -3  -7   6 22935.5 2274.03   3
   3   7  -5 31564.9 2024.30   5
  -3  -7   5 28138.8 2468.98   3
   3   7  -4 101925. 4267.75   5
  -3  -7   4 92407.1 5097.10   3
   3   7  -3 10545.8 932.401   5
  -3  -7   3 8609.17 1301.82   3
  -3  -7   2 59.5642 488.560   3
   3   7  -2 121.827 188.453   5
  -3  -7   1 3807.45 875.932   3
   3   7  -1 4291.76 479.786   5
  -3  -7   0 6947.62 1104.99   3
   3   7   0 6403.42 497.783   5
  -3  -7  -1 253.200 398.615   3
  -3  -7  -1-78.2471 222.175   4
   3   7   2 4605.63 1074.70   2
  -3  -7  -2 4174.80 531.932   4
  -3  -7  -2 2613.76 642.637   3
   3   7   3 26425.9 2343.52   2
  -3  -7  -3 22150.9 1271.21   4
  -3  -7  -3 21651.4 1913.72   3
  -3  -7  -4 897.735 346.067   4
  -3  -7  -4 749.911 538.394   3
  -3  -7  -4 1097.62 216.005   5
   3   7   4 1306.06 842.742   2
  -3  -7  -5 54745.4 2622.27   4
  -3  -7  -5 52985.6 3328.17   3
  -3  -7  -6 725.090 522.569   3
  -3  -7  -6 595.778 321.312   4
   3   7   6-143.131 615.559   2
  -3  -7  -7 45698.0 2421.02   4
   3   7   7 50265.7 3437.47   2
  -3  -7  -8 880.173 417.588   4
   3   7   8 522.284 464.938   2
   3   7   9 50377.1 3500.37   2
  -3  -7  -9 51952.9 3253.38   3
  -3  -7  -9 54262.3 2961.44   4
  -3  -7 -10 40580.5 2794.68   3
   3   7  10 40524.0 3091.32   2
  -3  -7 -10 46138.0 2744.06   4
  -3  -7 -11 34986.7 2531.41   3
   3   7  11 35926.1 2829.52   2
  -3  -7 -11 36859.5 2524.72   4
  -3  -7 -12 4451.09 956.167   4
   3   7  12 4530.73 1045.64   2
  -3  -7 -13 5107.58 974.680   4
  -3  -7 -14 8146.36 1338.02   4
   3   8 -11 2933.41 1035.15   1
  -3  -8  10 10.2649 470.453   3
  -3  -8   9 333.185 614.162   3
   3   8  -9 307.346 560.907   5
  -3  -8   8 9813.12 1550.99   3
   3   8  -8 10296.9 1311.60   5
   3   8  -7 73685.0 3835.41   5
  -3  -8   7 72741.5 4635.19   3
  -3  -8   6 2005.56 726.962   3
   3   8  -6 2885.66 629.385   5
   3   8  -5 19309.8 1446.32   5
  -3  -8   5 14823.7 1891.88   3
   3   8  -4 28876.3 1720.12   5
  -3  -8   4 27429.4 2571.13   3
   3   8  -3 44600.3 2105.10   5
  -3  -8   3 40485.8 3153.15   3
   3   8  -2 26443.1 1327.28   5
  -3  -8   2 27391.2 2462.42   3
  -3  -8   1 2743.89 826.379   3
  -3  -8   0 159995. 5773.20   4
  -3  -8   0 150415. 7143.97   3
  -3  -8  -1 5555.67 557.418   4
  -3  -8  -1 6926.27 1189.71   3
   3   8   2 7428.86 1369.64   2
  -3  -8  -2 7180.59 631.565   4
  -3  -8  -2 7559.47 1212.46   3
   3   8   3 8292.63 1435.46   2
  -3  -8  -3 8892.83 715.367   4
  -3  -8  -3 7065.03 1207.70   3
   3   8   4 34653.0 2931.12   2
  -3  -8  -4 33901.3 1715.93   4
  -3  -8  -4 31876.2 2583.15   3
  -3  -8  -5 3300.84 830.752   3
  -3  -8  -5 4582.15 571.580   4
   3   8   5 4606.06 1133.25   2
  -3  -8  -6 2677.08 741.991   3
  -3  -8  -6 2626.93 508.737   4
   3   8   6 2916.29 862.362   2
  -3  -8  -7 112.030 488.602   3
  -3  -8  -7 458.692 292.955   4
   3   8   7 277.317 550.208   2
  -3  -8  -8 613.837 504.944   3
  -3  -8  -8 576.256 436.552   4
   3   8   8-66.9926 529.147   2
  -3  -8  -9 43381.5 3029.11   3
   3   8   9 42492.9 3239.22   2
  -3  -8  -9 46804.1 2600.40   4
  -3  -8 -10 22460.6 2073.90   3
   3   8  10 20770.8 2162.63   2
  -3  -8 -10 22541.0 1744.28   4
  -3  -8 -11 6995.48 964.227   4
   3   8  11 6258.97 1197.01   2
  -3  -8 -12 368.149 425.765   4
   3   8  12-811.588 598.777   2
  -3  -9  10 77790.1 5006.99   3
  -3  -9   9 5918.09 1264.26   3
  -3  -9   8 1436.15 842.228   3
  -3  -9   7 27478.3 2713.62   3
  -3  -9   6-2402.19 899.651   3
  -3  -9   5 1381.20 740.353   3
  -3  -9   4 8203.39 1468.36   3
  -3  -9   3 1933.05 875.030   3
  -3  -9   2 9717.17 1547.02   3
  -3  -9   1 80655.0 4841.56   3
  -3  -9   0 3128.11 896.573   3
  -3  -9  -1 14059.0 1789.59   3
   3   9   2 16054.9 1991.36   2
  -3  -9  -2 14034.5 1739.04   3
   3   9   3 33039.1 2945.98   2
  -3  -9  -3 34077.3 2837.18   3
   3   9   4 63379.1 4201.79   2
  -3  -9  -4 58054.9 3894.45   3
   3   9   5 47730.5 3558.86   2
  -3  -9  -5 49994.6 3499.96   3
  -3  -9  -6 112243. 5770.96   3
   3   9   6 103604. 5778.90   2
  -3  -9  -7 6430.37 1203.64   3
   3   9   7 6642.68 1293.72   2
  -3  -9  -8 18361.9 2027.22   3
   3   9   8 15535.2 1916.23   2
  -3  -9  -9 1052.20 642.398   3
   3   9   9 2425.64 869.332   2
  -3  -9 -10 49831.8 3504.98   3
   3   9  10 47830.9 3508.11   2
   3   9  11 14691.9 1832.70   2
   3   9  12 11064.9 1603.64   2
  -3 -10   9 8500.99 1657.82   3
  -3 -10   8 60616.0 4376.22   3
  -3 -10   7 2487.54 962.814   3
  -3 -10   6 67977.0 4656.06   3
  -3 -10   5 733.174 786.026   3
  -3 -10   4 58803.4 4248.12   3
  -3 -10   3 38065.7 3328.49   3
  -3 -10   2 23388.6 2595.37   3
  -3 -10   1 36278.5 3261.26   3
  -3 -10   0 8374.79 1528.47   3
  -3 -10  -1 6257.08 1313.44   3
   3  10   2 8780.70 1504.84   2
  -3 -10  -2 7599.44 1456.22   3
   3  10   3 2036.02 851.296   2
  -3 -10  -3 2869.38 1065.46   3
  -3 -10  -4 151.586 582.402   3
   3  10   4 949.665 730.654   2
  -3 -10  -5 6198.92 1292.77   3
   3  10   5 5262.91 1173.26   2
  -3 -10  -6 16571.6 2091.77   3
   3  10   6 17579.5 2053.33   2
  -3 -10  -7 688.981 671.976   3
   3  10   7 125.384 582.051   2
  -3 -10  -8 40643.2 3329.11   3
   3  10   8 44775.1 3393.46   2
  -3 -10  -9 1578.37 829.470   3
   3  10   9-614.326 631.668   2
   3  10  10 23296.4 2349.06   2
   3  10  11-44.7316 633.790   2
  -3 -11   6 1199.59 818.573   3
  -3 -11   5 687.600 764.714   3
  -3 -11   4 15865.2 2160.44   3
  -3 -11   3 27948.7 2963.64   3
  -3 -11   2 67962.0 4823.91   3
  -3 -11   1 346.459 657.724   3
  -3 -11   0 5139.18 1319.76   3
  -3 -11  -1 55123.0 4215.47   3
   3  11   2 17156.1 2128.29   2
  -3 -11  -2 21909.2 2525.36   3
   3  11   3 42786.3 3449.84   2
  -3 -11  -3 42114.3 3610.10   3
  -3 -11  -4 2780.96 1042.43   3
   3  11   4 640.095 681.594   2
   3  11   5 25137.3 2605.36   2
  -3 -11  -5 29477.5 2922.74   3
  -3 -11  -6 6067.45 1329.68   3
   3  11   6 5188.96 1152.47   2
  -3 -11  -7 3538.85 1089.83   3
   3  11   7 2110.24 861.152   2
  -3 -11  -8 18875.0 2239.50   3
   3  11   8 18057.6 2079.48   2
  -3 -11  -9 1699.68 782.520   3
   3  11   9-1997.33 910.436   2
   3  11  10 2045.52 709.426   2
  -3 -12   2 2762.75 1170.26   3
  -3 -12   1 8304.10 1672.40   3
  -3 -12   0 1129.90 733.051   3
  -3 -12  -1 6331.06 1497.60   3
   3  12   2 54624.4 4036.33   2
  -3 -12  -2 54543.0 4320.00   3
   3  12   3 2614.16 966.515   2
  -3 -12  -3 5398.63 1407.42   3
  -3 -12  -4 14608.7 2194.29   3
   3  12   4 12484.6 1871.33   2
  -3 -12  -5 6783.96 1482.53   3
   3  12   5 7874.63 1435.47   2
   3  12   6 17968.9 2167.28   2
  -3 -12  -6 21617.0 2560.91   3
  -3 -12  -7 28584.0 2962.80   3
  -3 -12  -8 25663.2 2742.02   3
  -4  12   1-1289.82 725.431   2
  -4  12   0 25336.9 2386.99   2
  -4  12  -1 10913.9 1521.14   2
  -4  12  -2 18746.4 1979.98   2
  -4  12  -3 14906.3 1705.33   2
  -4  12  -4 10506.2 1734.05   1
  -4  12  -5 1327.07 813.473   1
  -4  11   3 1750.75 744.677   2
  -4  11   2 527.731 561.110   2
   4 -11  -2 477.178 760.767   5
  -4  11   1 701.861 580.954   2
   4 -11  -1-864.972 769.111   5
  -4  11   0 5745.09 1123.37   2
   4 -11   0 5679.35 1227.45   5
  -4  11  -1-858.413 545.898   2
  -4  11  -2 9779.35 1420.30   2
  -4  11  -2 15362.7 1746.67   1
  -4  11  -3-2310.01 807.114   1
  -4  11  -3-616.853 408.815   2
  -4  11  -4 42875.8 3286.20   1
  -4  11  -5 3052.89 877.110   1
  -4  11  -6 8750.63 1606.39   1
  -4  11  -7 6464.49 1456.40   1
   4 -10  -7 8040.36 1467.71   5
   4 -10  -6 12603.8 1838.80   5
   4 -10  -5 20380.8 2283.15   5
   4 -10  -4 862.762 692.436   5
   4 -10  -3 13718.7 1837.33   5
   4 -10  -2-689.351 690.113   5
   4 -10  -1 36015.9 3016.44   5
  -4  10   0 303.100 352.484   2
   4 -10   0-234.300 514.279   5
  -4  10  -1-189.695 424.064   2
  -4  10  -1-150.482 368.719   1
   4 -10   1-244.034 641.250   5
  -4  10  -2 3914.22 908.195   2
  -4  10  -2 1395.02 613.377   1
  -4  10  -3-833.254 522.489   2
  -4  10  -3 1216.78 656.977   1
  -4  10  -4 1004.41 545.086   2
  -4  10  -4 3000.62 884.734   1
  -4  10  -5 4126.16 1103.05   1
  -4  10  -6 2843.92 935.620   1
  -4  10  -7 1612.60 843.468   1
   4  -9  -9-1903.71 954.914   5
   4  -9  -8 21046.5 2477.21   5
   4  -9  -7 1777.67 847.405   5
   4  -9  -6 21009.4 2349.25   5
   4  -9  -5 1478.45 713.301   5
   4  -9  -4 6641.28 1316.86   5
   4  -9  -3 9879.56 1585.95   5
   4  -9  -2 34949.9 3002.81   5
   4  -9  -1 1153.67 722.503   5
  -4   9   0 22727.4 1769.40   1
  -4   9   0 21236.9 1697.88   4
   4  -9   0 21192.0 2313.85   5
  -4   9  -1 117682. 5356.02   1
  -4   9  -1 118942. 5085.19   4
   4  -9   1 110351. 5909.11   5
  -4   9  -2 1252.43 549.194   2
  -4   9  -2 733.810 371.715   4
  -4   9  -3 18380.6 1859.90   1
  -4   9  -3 21899.6 1632.77   4
  -4   9  -3 21016.3 1857.31   2
  -4   9  -4 3943.38 828.877   2
  -4   9  -4 4737.99 1045.15   1
  -4   9  -4 4042.40 698.949   4
  -4   9  -5 84770.3 4070.32   4
  -4   9  -5 91232.0 4919.50   1
  -4   9  -5 84429.0 4355.79   2
  -4   9  -6 6931.14 948.541   4
  -4   9  -6 5576.50 1165.05   1
  -4   9  -7 4916.09 857.956   4
  -4   9  -8 12761.2 1383.49   4
  -4   9  -9 11932.8 1385.52   4
  -4   9 -10 1724.85 718.112   4
  -4   9 -11 7005.77 1194.56   4
   4  -8  -9 64173.9 4809.99   5
   4  -8  -8 8965.34 1661.79   5
   4  -8  -7 44946.1 3655.83   5
   4  -8  -6 10360.4 1647.71   5
   4  -8  -5 4525.00 1153.00   5
   4  -8  -4 19995.9 2229.51   5
   4  -8  -3 9102.27 1483.28   5
   4  -8  -2 15993.6 2008.45   5
   4  -8  -1 1658.78 691.701   5
   4  -8   0-88.8341 692.055   5
  -4   8  -1 9158.35 1132.19   4
   4  -8   1 9580.36 1566.60   5
  -4   8  -2 4885.91 862.225   1
  -4   8  -2 5896.42 910.611   4
   4  -8   2 6703.17 1327.81   5
  -4   8  -3 834.451 446.052   1
  -4   8  -3 1069.16 494.824   4
  -4   8  -4 812.075 461.904   2
  -4   8  -4 1336.77 690.954   1
  -4   8  -4 492.735 376.327   4
  -4   8  -5 35342.7 2270.48   4
  -4   8  -5 29793.1 2454.70   1
  -4   8  -5 29746.7 2184.30   2
  -4   8  -6 4466.47 763.822   2
  -4   8  -6 3855.72 790.063   4
  -4   8  -7 85000.5 4251.97   4
  -4   8  -8 6820.35 1030.76   4
  -4   8  -9 22911.1 1995.99   4
  -4   8 -10-456.155 548.715   4
  -4   8 -11 14021.6 1680.13   4
  -4   8 -12 27192.4 2469.88   4
  -4   8 -13 4403.49 950.051   4
   4  -7 -10-42.0767 872.867   5
   4  -7  -9 9812.24 1810.33   5
   4  -7  -8 1542.85 942.570   5
   4  -7  -7 7869.50 1498.25   5
   4  -7  -6 5966.69 1276.25   5
   4  -7  -5 34401.3 2945.93   5
   4  -7  -4 22864.4 2313.92   5
   4  -7  -3 44786.8 3346.28   5
   4  -7  -2 30314.4 2728.05   5
   4  -7  -1-316.879 707.505   5
   4  -7   0 44817.2 3516.78   5
   4  -7   1 2994.10 976.295   5
  -4   7  -2 42227.7 2677.23   4
   4  -7   2 36565.8 3027.12   5
  -4   7  -3 8478.12 1104.20   4
   4  -7   3 7526.24 1267.23   5
  -4   7  -4 4131.18 824.908   4
  -4   7  -5 1863.04 523.119   2
  -4   7  -5 2690.46 662.622   4
  -4   7  -6 881.322 413.596   2
  -4   7  -6 1440.73 590.659   4
  -4   7  -7 3066.36 745.200   4
  -4   7  -8 748.616 580.454   4
  -4   7  -9 20698.8 1927.31   4
  -4   7 -10 13369.9 1623.62   4
  -4   7 -11 37787.3 2900.02   4
  -4   7 -12 2883.10 992.580   4
  -4   7 -13 49774.6 3600.48   4
   4  -6 -10 47240.7 4113.28   5
   4  -6  -9 4348.05 1354.76   5
   4  -6  -8 2100.96 1008.41   5
   4  -6  -7 5715.85 1334.54   5
   4  -6  -6 9715.79 1551.62   5
   4  -6  -5 3959.15 1002.19   5
   4  -6  -4 27270.9 2513.53   5
   4  -6  -3 751.851 545.118   5
   4  -6  -2 19399.0 2102.12   5
   4  -6  -1 31216.4 2782.71   5
   4  -6   0 1344.40 759.859   5
   4  -6   1 42015.8 3336.63   5
  -4   6  -2 22822.6 1962.04   4
   4  -6   2 23774.7 2390.57   5
  -4   6  -3 72494.8 3793.80   4
   4  -6   3 59030.4 3973.75   5
  -4   6  -4 64889.7 3619.50   4
  -4   6  -5 242.738 375.087   4
  -4   6  -6 57748.9 3392.79   4
  -4   6  -6 57868.3 2903.75   2
  -4   6  -7 29144.1 2267.66   4
  -4   6  -7 27619.0 1685.31   2
  -4   6  -8 102265. 5080.59   4
  -4   6  -9 11893.0 1502.72   4
  -4   6 -10 8641.78 1320.39   4
  -4   6 -11 1671.86 696.821   4
  -4   6 -12 12143.5 1683.12   4
  -4   6 -13 1097.21 862.800   4
   4  -5 -11 20176.8 2739.55   5
   4  -5 -10 24549.9 2878.33   5
   4  -5  -9 3720.30 1241.20   5
   4  -5  -8 28489.2 2915.01   5
   4  -5  -7 272.938 592.845   5
   4  -5  -6 111955. 6026.41   5
   4  -5  -5 9541.36 1504.96   5
   4  -5  -4 90243.1 5092.68   5
   4  -5  -3 10636.4 1564.36   5
   4  -5  -2 28273.3 2513.99   5
   4  -5  -1 8849.34 1399.26   5
   4  -5   0 10015.8 1555.52   5
   4  -5   1 73813.5 4671.34   5
   4  -5   2 1219.53 576.122   5
  -4   5  -3 4073.00 855.586   4
   4  -5   3 4107.62 953.298   5
  -4   5  -4 7224.04 1124.20   4
  -4   5  -5-64.6573 407.758   4
  -4   5  -6 13637.4 1530.17   4
  -4   5  -7 5959.77 673.109   2
  -4   5  -7 7967.91 1200.91   4
  -4   5  -8 21035.8 1982.84   4
  -4   5  -9 51.6456 531.319   4
  -4   5 -10 130369. 6300.53   4
  -4   5 -11 1339.54 592.984   4
  -4   5 -12 22129.3 2263.26   4
  -4   5 -13 3087.31 1026.27   4
  -4   5 -14 31066.4 2956.43   4
   4  -4 -11 18064.0 2602.83   5
   4  -4 -10-350.417 633.387   5
   4  -4  -9 26169.6 2913.17   5
   4  -4  -8-149.171 635.474   5
   4  -4  -7 7.14403 563.604   5
   4  -4  -6 25863.4 2551.28   5
   4  -4  -5 3009.95 891.380   5
   4  -4  -4 2062.82 718.563   5
   4  -4  -3 11463.7 1561.40   5
   4  -4  -2 89154.0 4936.71   5
   4  -4  -1 25625.6 2371.70   5
   4  -4   0 45913.1 3365.29   5
   4  -4   1 64795.3 4277.69   5
   4  -4   2 9157.99 1506.36   5
  -4   4  -3 25407.5 2068.29   4
   4  -4   3 25913.6 2412.42   5
  -4   4  -4 788.807 467.924   4
   4  -4   4 120.669 456.830   5
  -4   4  -5 131465. 6157.10   4
  -4   4  -6 3108.90 814.175   4
  -4   4  -7 319.303 442.536   4
  -4   4  -8 6967.10 1202.95   4
  -4   4  -9-178.153 455.390   4
  -4   4 -10 3146.18 930.476   4
  -4   4 -11 11094.9 1580.12   4
  -4   4 -12 208.365 636.195   4
  -4   4 -13 883.885 774.625   4
  -4   4 -14 86747.7 5437.50   4
   4  -3 -11 5373.24 1542.30   5
   4  -3 -10 361.851 806.312   5
   4  -3  -9 117993. 6795.96   5
   4  -3  -8 4228.52 1185.68   5
   4  -3  -7 19130.8 2287.85   5
   4  -3  -6 45411.1 3415.24   5
   4  -3  -5 45830.9 3356.90   5
   4  -3  -4-206.295 473.692   5
   4  -3  -3 249.196 447.817   5
   4  -3  -2 66969.7 4058.80   5
   4  -3  -1 19681.4 2031.20   5
   4  -3   0 52392.6 3600.97   5
   4  -3   1 2075.89 399.833   1
   4  -3   1 1760.92 719.398   5
   4  -3   2 440.205 262.371   1
   4  -3   2 1040.94 647.668   5
  -4   3  -3 1879.46 588.186   4
   4  -3   3 1435.34 401.066   1
   4  -3   3 181.584 568.118   5
  -4   3  -4 182571. 7490.63   4
   4  -3   4 162490. 7710.04   5
  -4   3  -5 1629.15 590.337   4
  -4   3  -6 43363.9 3066.73   4
  -4   3  -7 107263. 5488.30   4
  -4   3  -8 8485.84 1314.99   4
  -4   3  -9 42236.1 3133.68   4
  -4   3 -10 23680.9 2336.23   4
  -4   3 -11 136428. 6833.79   4
  -4   3 -12 2187.12 881.119   4
  -4   3 -13 5903.54 1322.27   4
  -4   3 -14 1475.11 761.487   4
   4  -2 -11 2672.06 1162.53   5
   4  -2 -10 1182.50 972.393   5
   4  -2  -9 1510.40 843.207   5
   4  -2  -8 33179.9 3141.93   5
   4  -2  -7 37300.1 3201.16   5
   4  -2  -6 5153.00 1159.65   5
   4  -2  -5 28759.2 2551.49   5
   4  -2  -4 4130.39 970.970   5
   4  -2  -3 149361. 6955.95   5
   4  -2  -2 23477.4 1103.35   1
   4  -2  -2 26706.1 2325.02   5
   4  -2  -1 197258. 8588.84   5
   4  -2  -1 198875. 6913.15   1
   4  -2   0 8809.87 770.603   1
   4  -2   0 9339.51 1400.04   5
   4  -2   1 17296.3 2026.51   5
   4  -2   1 20539.6 1324.24   1
   4  -2   2 6206.24 1300.33   5
   4  -2   2 6032.60 728.750   1
   4  -2   3 17780.1 2054.71   5
   4  -2   3 23007.8 1562.76   1
  -4   2  -4 51711.3 3107.05   4
   4  -2   4 43027.3 3139.67   5
  -4   2  -5 282.399 365.550   4
  -4   2  -6-55.1786 376.254   4
  -4   2  -7 31046.0 2582.13   4
  -4   2  -7 24540.0 1293.86   2
  -4   2  -8 4744.98 1086.13   4
  -4   2  -9 1767.19 729.680   4
  -4   2 -10 4732.30 1061.21   4
  -4   2 -11 38888.7 3203.08   4
  -4   2 -12 2641.77 987.292   4
  -4   2 -13 65340.0 4586.63   4
  -4   2 -14 5295.67 1438.48   4
   4  -1 -11 10101.4 2043.63   5
   4  -1 -10 8975.20 1774.45   5
   4  -1  -9-948.076 740.170   5
   4  -1  -8 21804.4 2492.45   5
   4  -1  -7-96.8759 503.861   5
   4  -1  -6 25476.4 2458.77   5
   4  -1  -5 3549.73 926.067   5
   4  -1  -4-115.980 424.432   5
   4  -1  -3 29516.6 2486.28   5
   4  -1  -2 3695.00 865.621   5
   4  -1  -1 32909.0 2610.91   5
   4  -1   0-15.9944 451.864   5
   4  -1   1 50343.4 3478.62   5
   4  -1   2 82988.5 4813.42   5
   4  -1   3 118927. 6000.88   5
  -4   1  -4 26447.4 2108.65   4
   4  -1   4 27204.9 2308.77   5
  -4   1  -5 8454.76 1189.20   4
  -4   1  -6 59482.4 2657.90   2
  -4   1  -6 68136.8 3843.07   4
  -4   1  -7 8312.53 1328.42   4
  -4   1  -7 10692.6 847.197   2
  -4   1  -8 56762.7 3771.73   4
  -4   1  -8 42828.7 2037.95   2
  -4   1  -9 17080.0 2113.50   4
  -4   1 -10 34337.1 3038.80   4
  -4   1 -11 5092.64 1287.21   4
  -4   1 -12 3267.64 1113.02   4
  -4   1 -13 9473.67 1770.86   4
  -4   1 -14 383.510 866.989   4
   4   0 -12 11530.9 2232.96   5
   4   0 -11 21772.4 2956.84   5
   4   0 -10 43914.0 4046.75   5
   4   0  -9 228.218 625.384   5
   4   0  -8 64739.5 4609.52   5
   4   0  -7 49962.8 3797.66   5
   4   0  -6 110086. 3943.12   1
   4   0  -6 106637. 5858.60   5
   4   0  -5 52942.4 3573.44   5
   4   0  -4 83040.3 4607.03   5
   4   0  -3 3073.85 780.280   5
   4   0  -2 38127.1 2752.91   5
   4   0  -1 48154.0 3163.31   5
   4   0   0 53227.9 3388.82   5
   4   0   1 12925.8 1611.04   5
   4   0   2 79353.8 4546.81   5
   4   0   3 414.434 463.458   5
  -4   0  -4 17980.1 1653.45   4
   4   0   4 17847.3 1795.57   5
  -4   0  -5 9212.36 855.072   2
  -4   0  -5 10978.1 1276.54   4
  -4   0  -6 10845.7 1349.43   4
  -4   0  -6 10501.8 952.618   2
  -4   0  -7 86191.3 4562.66   4
  -4   0  -7 78645.8 3418.52   2
  -4   0  -8 16530.4 1849.83   4
  -4   0  -8 11626.4 1053.12   2
  -4   0  -9 81934.2 4947.92   4
  -4   0 -10 26633.5 2683.78   4
  -4   0 -11 642.726 649.976   4
  -4   0 -12 50647.6 3977.30   4
  -4   0 -13 31294.5 3143.89   4
  -4   0 -14 95932.6 6185.00   4
  -4   0 -15 3378.61 1223.62   4
   4   1 -12 3136.66 1401.74   5
   4   1 -11 5468.77 1487.62   5
   4   1 -10 3027.39 1026.84   5
   4   1  -9 4568.57 1197.09   5
   4   1  -8 10603.6 1729.40   5
  -4  -1   8 11497.7 1280.45   3
   4   1  -7 287.303 261.851   1
   4   1  -7-13.9050 590.478   5
   4   1  -6 262.005 554.773   5
   4   1  -5 30843.5 2560.25   5
   4   1  -4 47446.8 3170.45   5
   4   1  -3 23411.3 2072.21   5
   4   1  -2 22301.8 2019.28   5
   4   1  -1 7295.74 1101.58   5
   4   1   0 188939. 7998.34   5
   4   1   1 5779.81 1016.10   5
   4   1   2 116388. 5765.48   5
   4   1   3 5616.38 1004.47   5
  -4  -1  -4 77023.3 3501.84   2
  -4  -1  -4 79418.3 3982.30   4
   4   1   4 82568.4 4302.68   5
  -4  -1  -5 1796.66 598.874   4
  -4  -1  -5 2472.55 539.202   2
  -4  -1  -6 317.178 392.612   4
  -4  -1  -6 456.481 286.782   2
  -4  -1  -7 32923.1 2489.64   4
  -4  -1  -7 32915.8 1951.02   2
  -4  -1  -8 726.706 431.366   2
  -4  -1  -8 877.780 617.187   4
  -4  -1  -9 1134.69 705.417   4
  -4  -1 -10 24190.0 2465.10   4
  -4  -1 -11 1340.49 802.887   4
  -4  -1 -12 12187.6 1928.41   4
  -4  -1 -13 22533.5 2681.28   4
  -4  -1 -14 21234.4 2710.42   4
  -4  -1 -15 1435.24 1029.51   4
   4   2 -12 7189.07 1920.23   5
   4   2 -11 13925.7 2322.71   5
   4   2 -10 52554.1 4326.50   5
   4   2  -9 46305.1 3915.37   5
  -4  -2   9 54647.2 3194.60   3
   4   2  -8 15460.6 2051.78   5
  -4  -2   8 17662.1 1643.24   3
   4   2  -7 24330.3 2448.59   5
  -4  -2   7 25757.8 2022.90   3
   4   2  -6 5714.97 1123.44   5
   4   2  -5 35362.5 2689.92   5
   4   2  -4 2563.20 688.973   5
   4   2  -3 16928.1 1669.93   5
   4   2  -2 1423.14 588.644   5
   4   2  -1 876.027 490.238   5
   4   2   0 63472.9 3593.81   5
   4   2   1 87.6763 379.588   5
   4   2   2 19742.4 1836.82   5
  -4  -2  -2 18054.2 1492.41   5
  -4  -2  -3 2761.74 623.993   4
   4   2   3 2596.26 741.605   5
  -4  -2  -4 98640.6 4703.66   4
  -4  -2  -4 108576. 4578.76   2
  -4  -2  -5 38812.3 2508.41   4
  -4  -2  -5 41585.2 2431.92   2
  -4  -2  -6 62101.6 3413.62   4
  -4  -2  -6 59872.3 3076.93   2
  -4  -2  -7 79853.2 4088.00   4
  -4  -2  -7 70643.9 3538.46   2
  -4  -2  -8 66076.8 3761.05   4
  -4  -2  -8 58631.6 3271.68   2
  -4  -2  -9 13378.9 1607.69   4
  -4  -2 -10 435.219 518.342   4
  -4  -2 -11 130599. 6643.33   4
  -4  -2 -12 744.444 709.374   4
  -4  -2 -13 856.979 874.002   4
  -4  -2 -14 2401.92 978.053   4
  -4  -2 -15 15426.2 2358.79   4
   4   3 -12 6821.69 1729.36   5
   4   3 -11 2815.33 1389.67   5
   4   3 -10 28507.6 3073.18   5
  -4  -3   9 923.301 562.680   3
   4   3  -9 509.220 793.084   5
  -4  -3   8 2519.42 678.204   3
   4   3  -8 2393.88 813.352   5
   4   3  -7 97097.2 5437.09   5
  -4  -3   7 99261.6 4890.68   3
   4   3  -6 11629.1 1520.68   5
  -4  -3   6 12219.6 1380.25   3
   4   3  -5 19027.5 1866.18   5
   4   3  -4 34197.1 2490.49   5
   4   3  -3 255117. 10002.0   5
   4   3  -2 9213.40 1197.50   5
   4   3  -1 24202.5 1960.95   5
   4   3   0 43379.3 2759.41   5
  -4  -3   0 43705.7 2462.46   5
   4   3   1 120477. 5585.82   5
  -4  -3  -1 122038. 5062.52   5
   4   3   2 3339.86 736.434   5
  -4  -3  -2 2312.61 436.808   5
  -4  -3  -3 9253.69 1093.66   4
   4   3   3 8193.56 1107.02   5
  -4  -3  -3 9582.23 996.353   5
  -4  -3  -4 45595.4 2661.35   4
  -4  -3  -4 46025.4 2549.55   5
  -4  -3  -5 7937.37 999.444   4
  -4  -3  -6 15973.4 1485.25   4
  -4  -3  -7 683.177 362.116   2
  -4  -3  -7 184.125 328.488   4
  -4  -3  -8 5239.99 916.002   2
  -4  -3  -8 6337.34 1021.27   4
  -4  -3  -9 608.291 608.667   4
  -4  -3 -10 114753. 5705.20   4
  -4  -3 -11 2084.08 689.275   4
  -4  -3 -12 41773.3 3231.82   4
  -4  -3 -13 21883.9 2377.61   4
  -4  -3 -14 11019.3 1835.20   4
  -4  -3 -15 17722.4 2375.80   4
   4   4 -11 23260.1 2849.37   5
   4   4 -10 73796.5 5070.82   5
  -4  -4   9 1793.13 632.859   3
   4   4  -9 898.690 651.235   5
  -4  -4   8 3727.77 907.107   3
   4   4  -8 1671.66 764.777   5
  -4  -4   7 513.666 516.096   3
   4   4  -7 23.9176 528.234   5
  -4  -4   6 7106.94 1091.17   3
   4   4  -6 6141.32 1093.12   5
   4   4  -5 22350.9 1993.86   5
  -4  -4   5 19160.6 1751.35   3
   4   4  -4 846.633 458.632   5
   4   4  -3 2552.41 634.260   5
   4   4  -2 20414.3 1715.26   5
   4   4  -1 36663.6 2390.17   5
  -4  -4   1 36150.1 2181.63   5
  -4  -4   0 7403.11 854.936   5
   4   4   0 8464.93 1068.38   5
   4   4   1 46232.3 2823.89   5
   4   4   2 40819.8 2530.72   5
  -4  -4  -3 106767. 4724.92   4
  -4  -4  -4 23473.7 1724.94   4
  -4  -4  -4 24177.8 1620.23   5
  -4  -4  -5 99577.8 4499.24   4
  -4  -4  -5 99856.9 4379.25   5
  -4  -4  -6 1484.02 496.469   4
  -4  -4  -7 49209.7 2906.53   4
  -4  -4  -8 8573.16 1143.86   4
  -4  -4  -9 22689.0 1986.47   4
  -4  -4 -10 19219.2 1855.66   4
  -4  -4 -11 1557.29 681.406   4
  -4  -4 -12 2265.36 844.226   4
  -4  -4 -13 26604.1 2542.97   4
  -4  -4 -14 4743.84 1165.18   4
   4   5 -11 17190.2 2357.32   5
   4   5 -10 470.122 761.731   5
   4   5  -9 23384.1 2459.30   5
  -4  -5   9 22577.4 2264.82   3
  -4  -5   8 7020.09 1232.56   3
   4   5  -8 7021.91 1296.03   5
   4   5  -7 27100.0 2397.42   5
  -4  -5   7 27479.2 2373.40   3
   4   5  -6 66556.0 3860.41   5
  -4  -5   6 65662.4 3916.37   3
   4   5  -5 19413.6 1771.17   5
  -4  -5   5 17681.0 1783.40   3
   4   5  -4 24106.0 1940.70   5
  -4  -5   4 22764.3 1941.94   3
  -4  -5   3 14022.5 1468.82   3
   4   5  -3 17707.6 1571.83   5
   4   5  -2 19102.2 1590.23   5
   4   5  -1 3185.65 652.239   5
  -4  -5   1 2683.46 519.524   5
   4   5   0 30510.7 2073.86   5
   4   5   1 295.245 273.696   5
   4   5   2 528.477 371.036   5
  -4  -5  -3 16802.0 1383.01   4
  -4  -5  -4 948.148 428.834   4
  -4  -5  -5 25576.8 1790.33   4
  -4  -5  -6 8882.41 1033.73   4
  -4  -5  -7 52992.3 2979.28   4
  -4  -5  -8 49621.8 2935.39   4
  -4  -5  -9 84791.4 4296.03   4
  -4  -5 -10 12142.3 1449.64   4
  -4  -5 -11 27400.5 2292.66   4
  -4  -5 -12 41107.0 2999.84   4
  -4  -5 -13 18876.2 2075.95   4
  -4  -5 -14 25984.0 2508.32   4
   4   6 -11 2912.42 1006.56   5
   4   6 -10 38414.1 3264.37   5
  -4  -6   9 962.004 698.774   3
   4   6  -9-2380.12 883.283   5
  -4  -6   8 4768.78 1056.97   3
   4   6  -8 4239.53 959.991   5
  -4  -6   7 4175.85 987.275   3
   4   6  -7 3933.17 895.191   5
  -4  -6   6 7934.96 1316.14   3
   4   6  -6 11847.9 1406.31   5
   4   6  -5 43930.5 2788.04   5
  -4  -6   5 41484.9 3027.39   3
   4   6  -4 17752.0 1560.97   5
  -4  -6   4 14405.2 1628.82   3
  -4  -6   3 435.284 382.081   3
   4   6  -3 969.432 459.468   5
   4   6  -2 100025. 4346.96   5
  -4  -6   2 85436.3 4589.85   3
   4   6  -1 107930. 4604.55   5
  -4  -6   1 99275.1 4953.62   3
   4   6   0 101960. 4436.17   5
   4   6   1 14190.0 1158.88   5
  -4  -6  -1 14441.4 1030.27   5
  -4  -6  -2 86547.8 3863.75   4
  -4  -6  -2 84530.5 3456.73   5
  -4  -6  -3 142.120 293.695   4
  -4  -6  -3 110.413 175.488   5
  -4  -6  -4 53517.8 2738.08   4
  -4  -6  -5 40407.3 2315.64   4
  -4  -6  -6 39996.2 2352.55   4
  -4  -6  -7 3574.62 692.668   4
  -4  -6  -8 14066.5 1381.74   4
  -4  -6  -9 3486.36 719.045   4
  -4  -6 -10 3158.36 797.483   4
  -4  -6 -11 882.432 587.055   4
  -4  -6 -12 2561.98 825.920   4
  -4  -6 -13 38228.7 2914.14   4
  -4  -6 -14 13259.3 1723.01   4
   4   7 -10 27019.5 2628.49   5
   4   7  -9 28151.7 2545.69   5
  -4  -7   9 27769.6 2714.70   3
   4   7  -8 38716.8 2913.35   5
  -4  -7   8 41121.6 3343.42   3
   4   7  -7 71792.8 4023.27   5
  -4  -7   7 69510.7 4493.99   3
  -4  -7   6 2322.10 811.738   3
   4   7  -6 2600.42 765.110   5
   4   7  -5 15062.1 1449.46   5
  -4  -7   5 14923.1 1801.49   3
  -4  -7   4 527.449 550.731   3
   4   7  -4 890.476 445.730   5
  -4  -7   3 6261.07 1108.79   3
   4   7  -3 7601.67 944.003   5
   4   7  -2 21000.4 1499.24   5
  -4  -7   2 20213.5 1979.06   3
  -4  -7   1 608.786 524.816   3
   4   7  -1 272.622 254.895   5
  -4  -7   0 1655.59 625.355   3
   4   7   0 716.947 308.593   5
  -4  -7  -1 2616.10 750.872   3
  -4  -7  -1 2993.57 540.792   4
  -4  -7  -2 45566.7 2413.28   4
  -4  -7  -2 48786.4 3105.05   3
  -4  -7  -3 18562.4 1350.51   4
  -4  -7  -3 17303.7 1779.29   3
  -4  -7  -4 15503.2 1679.31   3
  -4  -7  -4 15851.8 1242.08   4
  -4  -7  -5 19415.6 1936.98   3
  -4  -7  -5 20770.4 1493.24   4
  -4  -7  -6 91509.9 4813.59   3
  -4  -7  -6 87207.5 3963.39   4
  -4  -7  -7 2135.70 746.897   3
  -4  -7  -7 1735.69 484.005   4
  -4  -7  -8 39092.4 2388.82   4
   4   7   8 41292.9 3155.31   2
  -4  -7  -8 37027.9 2833.18   3
  -4  -7  -9 11464.1 1239.40   4
   4   7   9 9589.54 1483.99   2
  -4  -7  -9 11015.9 1511.75   3
  -4  -7 -10 57935.1 3232.32   4
   4   7  10 55106.7 3755.10   2
  -4  -7 -10 50710.5 3458.67   3
   4   7  11 633.034 585.524   2
  -4  -7 -11 683.590 449.449   4
  -4  -7 -11-194.958 479.781   3
  -4  -7 -12 4549.56 934.194   4
  -4  -7 -13 8314.67 1331.66   4
  -4  -7 -14-323.911 712.354   4
  -4  -8   9 278.881 661.149   3
  -4  -8   8 25075.7 2618.80   3
  -4  -8   7 894.195 593.506   3
  -4  -8   6 23988.4 2485.20   3
  -4  -8   5 998.294 798.192   3
  -4  -8   4 36261.0 2932.64   3
  -4  -8   3 69964.3 4259.94   3
  -4  -8   2 18340.2 1933.28   3
  -4  -8   1 14198.0 1656.50   3
  -4  -8   0 14495.3 1672.59   3
  -4  -8  -1 26864.3 1608.35   4
  -4  -8  -1 20996.0 2089.08   3
  -4  -8  -2 456.949 533.969   3
  -4  -8  -2-352.607 291.240   4
  -4  -8  -3 4012.17 959.779   3
  -4  -8  -3 4289.12 578.198   4
  -4  -8  -4 935.056 727.457   3
  -4  -8  -4 212.339 241.450   4
  -4  -8  -5 6793.24 798.581   4
  -4  -8  -5 7802.92 1280.39   3
  -4  -8  -6 36263.1 2072.39   4
  -4  -8  -6 32686.9 2717.85   3
   4   8   7-14.4850 588.783   2
  -4  -8  -7 939.432 452.801   4
  -4  -8  -7 584.244 633.477   3
  -4  -8  -8 4384.92 1036.27   3
  -4  -8  -8 5585.73 814.527   4
  -4  -8  -9 259.731 444.732   3
  -4  -8  -9 747.796 455.880   4
  -4  -8 -10 66613.1 3532.64   4
   4   8  10 66488.6 4415.94   2
  -4  -8 -10 66575.1 4101.39   3
   4   8  11 2844.70 944.987   2
  -4  -9   8 2980.69 1106.91   3
  -4  -9   7 5414.30 1205.98   3
  -4  -9   6 12890.2 1957.25   3
  -4  -9   5 3597.40 1089.87   3
  -4  -9   4 34415.9 3011.10   3
  -4  -9   3-87.1354 651.005   3
  -4  -9   2 2553.72 792.798   3
  -4  -9   1 38753.6 3020.10   3
  -4  -9   0 17821.4 1974.19   3
  -4  -9  -1 14306.5 1773.55   3
  -4  -9  -2 19825.5 2086.73   3
  -4  -9  -3 190703. 8527.75   3
  -4  -9  -4 120.994 481.616   3
  -4  -9  -5 7233.50 1301.72   3
  -4  -9  -6 3145.36 898.922   3
   4   9   7 105641. 5993.74   2
  -4  -9  -7 94064.4 5386.43   3
   4   9   8 8734.52 1609.86   2
  -4  -9  -8 11220.3 1638.45   3
   4   9   9 8106.22 1513.21   2
  -4  -9  -9 9102.26 1464.92   3
   4   9  10 8316.43 1534.01   2
  -4  -9 -10 13745.7 1791.22   3
   4   9  11-3689.59 1090.84   2
  -4 -10   6 14468.1 2092.45   3
  -4 -10   5 34111.3 3183.62   3
  -4 -10   4 49771.1 3896.35   3
  -4 -10   3 2640.42 903.847   3
  -4 -10   2 14733.1 1913.19   3
  -4 -10   1 7187.44 1355.65   3
  -4 -10   0 8139.22 1423.43   3
  -4 -10  -1 13662.6 1825.27   3
  -4 -10  -2 26.2895 542.829   3
  -4 -10  -3 376.883 577.150   3
  -4 -10  -4 4396.54 1080.18   3
  -4 -10  -5 15311.1 1942.35   3
  -4 -10  -6 9295.76 1570.17   3
   4  10   7 23676.0 2613.60   2
  -4 -10  -7 19209.6 2274.30   3
   4  10   8 28957.0 2902.98   2
  -4 -10  -8 30167.4 2771.73   3
   4  10   9 30349.8 2982.23   2
  -4 -10  -9 39865.8 3221.64   3
   4  10  10 1140.58 829.737   2
  -4 -11   2 996.620 622.431   3
  -4 -11   1 32267.7 3046.96   3
  -4 -11   0 25185.8 2696.63   3
  -4 -11  -1 9603.04 1608.12   3
  -4 -11  -2 27101.6 2731.81   3
  -4 -11  -3 25471.8 2681.74   3
  -4 -11  -4 10107.9 1659.98   3
  -4 -11  -5 896.368 688.117   3
  -4 -11  -6 7686.56 1484.80   3
   4  11   7 611.437 762.756   2
  -4 -11  -7 1150.23 910.149   3
   4  11   8-2923.88 1075.85   2
  -4 -11  -8-579.164 716.209   3
  -4 -11  -9 3348.81 1087.12   3
   5 -11  -1 1373.24 871.293   5
  -5  11   0 11546.5 1520.15   2
   5 -11   0 8362.99 1638.07   5
  -5  11  -1 32713.2 2620.02   2
  -5  11  -2 1344.32 677.687   2
   5 -10  -5 13712.5 2110.17   5
   5 -10  -4 17542.4 2432.68   5
   5 -10  -3 1907.60 1241.79   5
   5 -10  -2 8572.51 1704.59   5
   5 -10  -1 67.5607 765.195   5
   5 -10   0-370.542 947.495   5
   5 -10   1-321.480 762.169   5
  -5  10  -2 1962.24 624.768   2
  -5  10  -3 3538.27 890.783   2
   5  -9  -6 11233.8 2015.08   5
   5  -9  -5 14243.4 2218.14   5
   5  -9  -4 864.116 808.611   5
   5  -9  -3 15221.6 2255.23   5
   5  -9  -2 59140.3 4598.06   5
   5  -9  -1-749.400 866.976   5
  -5   9   0 17714.8 1727.74   4
   5  -9   0 17261.6 2333.79   5
  -5   9  -1 1478.50 606.657   4
   5  -9   1 819.538 784.188   5
  -5   9  -2 93846.0 4533.09   4
   5  -9   2 83524.8 5288.72   5
  -5   9  -3 230.475 420.042   4
  -5   9  -4 8418.11 1168.65   2
  -5   9  -4 6719.25 1019.10   4
  -5   9  -5 28349.9 2171.50   4
  -5   9  -6 5608.44 979.481   4
  -5   9  -7 1439.93 618.036   4
  -5   9  -8-788.264 644.763   4
  -5   9  -9 5051.73 986.347   4
   5  -8  -7 6468.30 1642.88   5
   5  -8  -6 802.504 788.799   5
   5  -8  -5 48265.3 4000.22   5
   5  -8  -4 519.405 728.713   5
   5  -8  -3 854.753 875.907   5
   5  -8  -2 2679.42 1111.99   5
   5  -8  -1 52.4528 793.635   5
   5  -8   0 135.390 693.373   5
  -5   8  -1 2309.83 669.282   4
   5  -8   1 2299.41 998.761   5
  -5   8  -2 427.330 475.782   4
   5  -8   2 533.228 625.469   5
  -5   8  -3 14265.0 1563.51   4
  -5   8  -4 49329.8 3104.27   4
  -5   8  -5 3086.23 798.280   4
  -5   8  -6 30314.6 2361.72   4
  -5   8  -7 1535.42 676.154   4
  -5   8  -8 36481.1 2723.14   4
  -5   8  -9 5936.29 1061.57   4
  -5   8 -10 20389.9 2060.16   4
  -5   8 -11 6589.84 1261.43   4
   5  -7  -7 750.694 636.745   5
   5  -7  -6 28721.2 3079.20   5
   5  -7  -5 5643.42 1372.03   5
   5  -7  -4 15903.6 2222.51   5
   5  -7  -3 3854.20 1224.43   5
   5  -7  -2 10925.8 1912.98   5
   5  -7  -1 49508.1 4112.78   5
   5  -7   0 5068.47 1469.85   5
   5  -7   1 2192.39 773.293   5
  -5   7  -2 1991.71 689.534   4
   5  -7   2 2660.35 1047.92   5
  -5   7  -3 945.359 509.600   4
   5  -7   3 1312.62 851.902   5
  -5   7  -4 1943.05 774.484   4
  -5   7  -5 1492.23 616.143   4
  -5   7  -6 851.823 593.271   4
  -5   7  -7-40.7754 511.459   4
  -5   7  -8 51031.6 3380.89   4
  -5   7  -9 609.057 593.854   4
  -5   7 -10 35072.9 2832.21   4
  -5   7 -11-3090.86 938.977   4
   5  -6  -8 5095.45 1368.02   5
   5  -6  -7 1774.52 937.848   5
   5  -6  -6 256.173 668.194   5
   5  -6  -5 10427.6 1807.42   5
   5  -6  -4 10918.4 1806.92   5
   5  -6  -3 626.387 708.757   5
   5  -6  -2 16941.8 2305.91   5
   5  -6  -1 10110.1 1783.50   5
   5  -6   0 75792.9 5229.29   5
   5  -6   1 50584.3 4119.82   5
  -5   6  -2 9866.92 1376.76   4
   5  -6   2 6777.46 1431.15   5
  -5   6  -3 82942.0 4476.73   4
   5  -6   3 70055.3 4746.77   5
  -5   6  -4 32346.0 2600.46   4
  -5   6  -5 84952.7 4658.87   4
  -5   6  -6 12240.5 1565.76   4
  -5   6  -7 52955.5 3483.69   4
  -5   6  -8 3057.78 887.726   4
  -5   6  -9 1084.17 667.313   4
  -5   6 -10 12176.2 1692.70   4
  -5   6 -11 15344.4 1956.12   4
  -5   6 -12 2270.53 908.469   4
   5  -5  -8 16343.6 2332.89   5
   5  -5  -7 87258.6 5734.39   5
   5  -5  -6 7495.38 1583.20   5
   5  -5  -5 8337.04 1622.35   5
   5  -5  -4 26322.2 2730.66   5
   5  -5  -3 22198.9 2478.30   5
   5  -5  -2 42693.3 3581.88   5
   5  -5  -1 6338.68 1461.58   5
   5  -5   0 11056.0 1790.74   5
   5  -5   1 3922.91 1083.79   5
   5  -5   2 2267.03 873.121   5
  -5   5  -3 3110.20 860.472   4
   5  -5   3 2885.07 995.191   5
  -5   5  -4 3916.15 904.665   4
   5  -5   4 3794.69 1034.36   5
  -5   5  -5 1705.45 664.556   4
  -5   5  -6 19939.4 2058.63   4
  -5   5  -7 46148.0 3311.32   4
  -5   5  -8 1913.95 675.391   4
  -5   5  -9 30165.6 2650.37   4
  -5   5 -10 10579.4 1611.58   4
  -5   5 -11 59563.2 4091.49   4
  -5   5 -12 2299.80 878.004   4
   5  -4  -9 56.2669 737.514   5
   5  -4  -8 1055.80 901.320   5
   5  -4  -7 340.285 707.340   5
   5  -4  -6 2585.75 1029.00   5
   5  -4  -5 9382.96 1688.25   5
   5  -4  -4 2146.81 917.994   5
   5  -4  -3 50280.9 3874.22   5
   5  -4  -2 2707.21 957.863   5
   5  -4  -1 14863.1 2111.61   5
   5  -4   0 5428.90 1370.19   5
   5  -4   1 27987.7 2969.56   5
   5  -4   2 54189.7 4226.43   5
  -5   4  -3 1474.50 617.638   4
   5  -4   3 1226.74 753.879   5
  -5   4  -4 25174.4 2154.36   4
   5  -4   4 20210.6 2314.06   5
  -5   4  -5 6682.39 1147.03   4
  -5   4  -6 423.395 452.762   4
  -5   4  -7 334.326 499.611   4
  -5   4  -8 2010.00 815.571   4
  -5   4  -9 489.047 551.343   4
  -5   4 -10 1776.87 887.615   4
  -5   4 -11 51649.3 3837.27   4
  -5   4 -12 36.6226 700.585   4
  -5   4 -13 31881.7 3070.71   4
   5  -3  -9 5184.98 1576.08   5
   5  -3  -8 25010.6 2978.94   5
   5  -3  -7 7349.34 1585.78   5
   5  -3  -6 25316.3 2732.17   5
   5  -3  -5 16871.7 2157.70   5
   5  -3  -4 1227.13 704.244   5
   5  -3  -3 12178.3 1805.48   5
   5  -3  -2 572.828 691.023   5
   5  -3  -1 258.322 604.525   5
   5  -3   0 9987.16 1744.20   5
   5  -3   1 86623.5 3695.75   1
   5  -3   1 72219.3 5178.96   5
   5  -3   2 1019.95 806.098   5
  -5   3  -3 52713.1 3327.97   4
   5  -3   3 50031.3 3957.36   5
  -5   3  -4 92194.4 4745.15   4
   5  -3   4 85721.2 5279.69   5
  -5   3  -5 14360.9 1641.13   4
  -5   3  -6 31485.2 2585.95   4
  -5   3  -7 3890.32 968.456   4
  -5   3  -8 229415. 9975.10   4
  -5   3  -9 1719.23 787.189   4
  -5   3 -10 12926.0 1869.42   4
  -5   3 -11 14868.0 2051.30   4
  -5   3 -12 21331.0 2498.30   4
  -5   3 -13-150.831 729.586   4
   5  -2  -9 12248.6 2201.04   5
   5  -2  -8 7104.47 1676.52   5
   5  -2  -7 415.802 686.398   5
   5  -2  -6 114532. 6597.02   5
   5  -2  -5 1304.60 770.483   5
   5  -2  -4 111748. 6207.60   5
   5  -2  -3 46630.8 3626.00   5
   5  -2  -2 58983.9 4157.36   5
   5  -2  -1 12926.1 986.765   1
   5  -2  -1 10187.1 1717.02   5
   5  -2   0 19894.7 2399.12   5
   5  -2   0 22765.4 1488.67   1
   5  -2   1 99820.9 6241.20   5
   5  -2   1 115405. 4723.32   1
   5  -2   2-93.6498 667.264   5
   5  -2   3 8257.33 1524.46   5
  -5   2  -4 536.401 405.874   4
   5  -2   4 992.369 706.498   5
  -5   2  -5 1046.34 553.537   4
  -5   2  -6 306.859 468.590   4
  -5   2  -7 6317.17 1165.75   4
  -5   2  -8 640.209 578.247   4
  -5   2  -9 11199.7 1652.22   4
  -5   2 -10 55941.2 4078.15   4
  -5   2 -11 119.618 678.677   4
  -5   2 -12 39977.7 3567.43   4
  -5   2 -13 7391.72 1648.80   4
   5  -1 -10 879.178 953.381   5
   5  -1  -9 34407.2 3652.17   5
   5  -1  -8 9351.34 1924.23   5
   5  -1  -7 7935.35 1640.33   5
   5  -1  -6 5074.44 1261.87   5
   5  -1  -5 1897.69 830.346   5
   5  -1  -4 3920.12 1116.03   5
   5  -1  -3 443.596 538.378   5
   5  -1  -2 23968.1 2487.96   5
   5  -1  -1 89.8899 568.202   5
   5  -1   0 47361.4 3718.89   5
   5  -1   1 14331.0 2031.35   5
   5  -1   2 35766.9 3267.54   5
   5  -1   3 1041.04 791.248   5
  -5   1  -4 14395.4 1600.97   4
   5  -1   4 11903.9 1698.28   5
  -5   1  -5 56236.4 3453.33   4
  -5   1  -6 2241.67 727.249   4
  -5   1  -6 2241.33 469.473   2
  -5   1  -7 12198.3 1542.47   4
  -5   1  -8 8999.49 1372.96   4
  -5   1  -9 2622.77 947.010   4
  -5   1 -10 430.350 549.998   4
  -5   1 -11-524.176 740.664   4
  -5   1 -12-145.242 688.974   4
  -5   1 -13 3592.91 1242.02   4
   5   0 -10 43580.8 4324.61   5
   5   0  -9 28443.5 3274.60   5
   5   0  -8-558.057 799.821   5
   5   0  -7 30441.6 3094.54   5
   5   0  -6 1405.87 860.703   5
   5   0  -5 33887.6 3030.56   5
   5   0  -4 813.120 709.568   5
   5   0  -3 66834.1 4322.57   5
   5   0  -2 1049.74 723.969   5
   5   0  -1 16050.5 1948.42   5
   5   0   0 2278.88 872.620   5
   5   0   1 11162.0 1705.26   5
   5   0   2 5671.32 1273.05   5
   5   0   3 4626.84 1133.58   5
  -5   0  -4 21158.7 1933.39   4
   5   0   4 26223.6 2409.52   5
  -5   0  -5 19874.0 1820.28   4
  -5   0  -6 107110. 5332.19   4
  -5   0  -6 115248. 4737.58   2
  -5   0  -7 18366.8 1827.62   4
  -5   0  -7 21121.0 1552.39   2
  -5   0  -8 616.516 478.544   4
  -5   0  -9 53949.3 3619.04   4
  -5   0 -10 59491.9 3979.79   4
  -5   0 -11 130171. 6838.87   4
  -5   0 -12 5598.51 1375.59   4
  -5   0 -13 50818.1 4051.74   4
   5   1 -10 7139.04 1824.52   5
   5   1  -9 4879.01 1439.68   5
   5   1  -8 25786.6 2869.88   5
   5   1  -7 25646.7 2772.99   5
   5   1  -6 695.478 755.541   5
   5   1  -5 49181.5 3649.59   5
   5   1  -4 29982.4 2702.27   5
   5   1  -3 57769.9 3872.03   5
   5   1  -2 10237.8 1520.58   5
   5   1  -1 140857. 6910.38   5
   5   1   0 9865.13 1532.78   5
   5   1   1 63343.3 4239.74   5
   5   1   2 23159.3 2426.07   5
   5   1   3 40474.4 3142.52   5
  -5  -1  -4 56090.3 3264.35   4
   5   1   4 51730.5 3541.53   5
  -5  -1  -5 370.069 375.494   4
  -5  -1  -6 15969.9 1624.78   4
  -5  -1  -7 2146.29 644.430   4
  -5  -1  -8 101.353 451.456   4
  -5  -1  -9 349.246 462.231   4
  -5  -1 -10 11675.5 1622.90   4
  -5  -1 -11 1285.31 769.450   4
  -5  -1 -12 7106.89 1426.65   4
  -5  -1 -13 29979.2 2959.41   4
   5   2 -10 36181.6 3706.72   5
   5   2  -9 11227.1 1988.22   5
   5   2  -8 31009.6 3142.75   5
  -5  -2   8 31062.3 2451.73   3
   5   2  -7 1790.82 939.708   5
   5   2  -6 73345.6 4694.05   5
   5   2  -5 2622.03 926.485   5
   5   2  -4 4089.35 1077.70   5
   5   2  -3 1707.51 722.073   5
   5   2  -2 966.263 676.364   5
   5   2  -1 524.318 572.076   5
   5   2   0 10599.2 1551.65   5
   5   2   1 4443.24 981.319   5
   5   2   2 2237.59 837.064   5
   5   2   3 86883.8 4813.46   5
  -5  -2  -4 1784.95 571.414   4
   5   2   4 1399.54 599.020   5
  -5  -2  -5 30837.9 2246.48   4
  -5  -2  -6 6781.25 1011.55   4
  -5  -2  -7 41979.2 2800.39   4
  -5  -2  -8 35020.2 2595.46   4
  -5  -2  -9-66.6780 495.442   4
  -5  -2 -10 27048.3 2421.69   4
  -5  -2 -11 8400.69 1441.27   4
  -5  -2 -12 5437.60 1188.92   4
  -5  -2 -13 5324.69 1219.70   4
   5   3 -10 14334.5 2344.78   5
   5   3  -9 1662.43 957.585   5
  -5  -3   8 1210.05 717.734   3
   5   3  -8-505.200 697.336   5
   5   3  -7 37896.6 3286.14   5
  -5  -3   7 39602.0 2844.64   3
   5   3  -6 67082.1 4369.97   5
   5   3  -5 7930.58 1368.86   5
   5   3  -4 14701.6 1768.72   5
   5   3  -3 9108.83 1378.45   5
   5   3  -2 74928.6 4332.30   5
   5   3  -1 2407.00 799.973   5
   5   3   0 50542.5 3434.60   5
   5   3   1 30483.5 2566.85   5
   5   3   2 2188.97 772.425   5
  -5  -3  -3 33428.6 2339.00   4
   5   3   3 35391.1 2663.63   5
  -5  -3  -4-28.5967 360.391   4
  -5  -3  -5 10625.6 1240.10   4
  -5  -3  -6 654.572 438.792   4
  -5  -3  -7 61411.7 3480.37   4
  -5  -3  -8-93.9053 474.142   4
  -5  -3  -9 50241.8 3236.82   4
  -5  -3 -10 58942.7 3692.81   4
  -5  -3 -11 22313.4 2189.55   4
  -5  -3 -12 5957.67 1189.46   4
  -5  -3 -13 10045.6 1608.17   4
   5   4 -10 1368.77 881.767   5
   5   4  -9 12725.1 1989.87   5
  -5  -4   8 651.264 569.627   3
   5   4  -8 934.600 759.142   5
  -5  -4   7 2567.34 810.805   3
   5   4  -7 2432.76 877.355   5
  -5  -4   6 5251.33 1008.83   3
   5   4  -6 6253.86 1237.03   5
   5   4  -5 2135.62 724.665   5
   5   4  -4 67161.4 4067.04   5
   5   4  -3 31992.3 2556.89   5
   5   4  -2 21125.7 2001.78   5
   5   4  -1 22794.8 2077.46   5
   5   4   0 125729. 6065.25   5
   5   4   1 28.0700 596.206   5
   5   4   2 95960.8 4886.28   5
  -5  -4  -3 27153.5 2018.12   4
   5   4   3 28388.3 2207.22   5
  -5  -4  -4 84486.7 4124.68   4
  -5  -4  -5 4285.87 798.582   4
  -5  -4  -6 37479.4 2451.63   4
  -5  -4  -7 48030.3 2940.34   4
  -5  -4  -8 487.385 496.344   4
  -5  -4  -9 7547.26 1145.63   4
  -5  -4 -10 6212.57 1143.83   4
  -5  -4 -11 3930.34 991.788   4
  -5  -4 -12-134.820 641.240   4
  -5  -4 -13 4748.95 1167.55   4
   5   5 -10 38255.9 3538.14   5
   5   5  -9 45130.2 3738.54   5
   5   5  -8 38332.9 3288.51   5
  -5  -5   8 40362.7 3152.21   3
   5   5  -7 42580.3 3321.82   5
  -5  -5   7 42465.8 3200.35   3
  -5  -5   6 9576.26 1367.66   3
   5   5  -6 9415.38 1398.22   5
   5   5  -5 56368.2 3596.01   5
  -5  -5   5 51807.7 3383.06   3
  -5  -5   4 1273.15 622.208   3
   5   5  -4-218.594 491.363   5
   5   5  -3 52633.6 3342.26   5
   5   5  -2 7988.71 1198.44   5
   5   5  -1 23405.6 2056.63   5
   5   5   0 3953.11 874.198   5
   5   5   1 81.2573 366.906   5
   5   5   2 335.561 326.072   5
  -5  -5  -3 4851.62 812.730   4
  -5  -5  -4 11535.4 1222.45   4
  -5  -5  -5 532.125 336.422   4
  -5  -5  -6 15679.0 1465.47   4
  -5  -5  -7 2778.65 638.555   4
  -5  -5  -8 48058.1 2957.27   4
  -5  -5  -9 1015.96 488.904   4
  -5  -5 -10 25545.7 2183.98   4
  -5  -5 -11 21124.6 2024.27   4
  -5  -5 -12 1876.84 746.352   4
  -5  -5 -13 14797.2 1830.27   4
   5   6  -9 1473.19 888.230   5
  -5  -6   8 7691.28 1394.89   3
   5   6  -8 7080.04 1463.04   5
  -5  -6   7 2011.25 844.705   3
   5   6  -7 3446.41 957.125   5
  -5  -6   6 376.940 530.109   3
   5   6  -6 177.765 508.634   5
  -5  -6   5 4373.96 967.425   3
   5   6  -5 5163.03 986.834   5
   5   6  -4 56501.7 3344.83   5
  -5  -6   4 45813.8 3191.78   3
   5   6  -3 40678.6 2732.13   5
  -5  -6   3 36845.9 2713.65   3
  -5  -6   2 600.609 401.734   3
   5   6  -2 1301.85 534.832   5
   5   6  -1 28781.8 2208.33   5
   5   6   0 5664.81 938.586   5
   5   6   1 17150.0 1509.13   5
  -5  -6  -2 6690.94 913.937   4
  -5  -6  -3 97587.4 4447.64   4
  -5  -6  -4 547.406 375.444   4
  -5  -6  -5 12140.6 1228.53   4
  -5  -6  -6 2054.75 564.074   4
  -5  -6  -7 8223.79 1067.82   4
  -5  -6  -8 745.971 389.592   4
  -5  -6  -9 12342.5 1395.93   4
  -5  -6 -10 14359.9 1578.72   4
  -5  -6 -11 21140.4 2003.19   4
  -5  -6 -12 68068.2 4033.72   4
  -5  -6 -13 4502.71 1051.14   4
  -5  -7   8 17108.6 2161.81   3
  -5  -7   7 15084.0 1982.97   3
  -5  -7   6 1870.32 834.423   3
  -5  -7   5 5053.46 1072.03   3
  -5  -7   4 2213.96 595.475   3
  -5  -7   3 1312.67 671.082   3
   5   7  -2 17601.1 1572.22   5
  -5  -7   2 14195.6 1652.06   3
   5   7  -1 13673.5 1355.38   5
  -5  -7   1 11989.0 1510.12   3
  -5  -7   0 2555.14 728.865   3
   5   7   0 2880.61 575.275   5
  -5  -7  -1 32552.2 2568.76   3
  -5  -7  -1 32287.2 2117.27   4
  -5  -7  -2 55120.0 2932.49   4
  -5  -7  -3 57150.3 2969.43   4
  -5  -7  -4 1273.38 410.303   4
  -5  -7  -5 88756.7 4093.39   4
  -5  -7  -6 2899.68 607.079   4
  -5  -7  -7 77764.6 3846.89   4
  -5  -7  -8 15435.2 1500.38   4
  -5  -7  -9 44900.4 2802.99   4
  -5  -7 -10 24387.1 2395.24   3
  -5  -7 -10 24390.7 2007.28   4
  -5  -7 -11 642.612 533.551   4
  -5  -7 -11 867.125 626.851   3
  -5  -7 -12 5912.12 1127.91   4
  -5  -8   7 60626.9 4354.13   3
  -5  -8   6 21034.7 2306.91   3
  -5  -8   5 22367.8 2306.66   3
  -5  -8   4 37147.5 2966.92   3
  -5  -8   3 36623.5 2891.37   3
  -5  -8   2 40968.2 3059.64   3
  -5  -8   1 565.722 591.637   3
  -5  -8   0 43314.7 3085.48   3
  -5  -8  -1 1549.10 737.378   3
  -5  -8  -1 1206.07 417.132   4
  -5  -8  -2 10436.0 1034.23   4
  -5  -8  -2 8109.03 1354.43   3
  -5  -8  -3 332.665 499.078   3
  -5  -8  -3 150.177 301.287   4
  -5  -8  -4 8243.56 925.254   4
  -5  -8  -4 7210.63 1232.62   3
  -5  -8  -5 1252.00 676.460   3
  -5  -8  -5 26.0581 312.734   4
  -5  -8  -6 13077.3 1229.78   4
  -5  -8  -6 9288.53 1519.04   3
  -5  -8  -7 4190.25 1018.65   3
  -5  -8  -8 963.381 651.704   3
  -5  -8  -9 17966.7 2064.74   3
  -5  -8 -10 5018.91 1157.04   3
  -5  -8 -11 24803.7 2482.66   3
  -5  -9   4 4578.56 1137.10   3
  -5  -9   3 824.370 741.800   3
  -5  -9   2 3436.10 868.000   3
  -5  -9   1 25560.6 2382.33   3
  -5  -9   0 79401.6 4675.83   3
  -5  -9  -1 5510.64 1146.85   3
  -5  -9  -2 5364.37 1160.30   3
  -5  -9  -3 328.743 547.908   3
  -5  -9  -4 47985.0 3478.21   3
  -5  -9  -5 527.646 647.406   3
  -5  -9  -6 17947.2 2070.34   3
  -5  -9  -7 12357.6 1788.79   3
  -5  -9  -8 2921.43 980.613   3
  -5  -9  -9 17220.2 2073.63   3
  -5  -9 -10 635.345 743.912   3
  -5 -10   0 4628.48 1130.91   3
  -5 -10  -1 5342.91 1235.02   3
  -5 -10  -2 15231.5 1914.12   3
  -5 -10  -3 7965.09 1417.05   3
  -5 -10  -4 6051.00 1242.86   3
  -5 -10  -5 32696.0 2934.40   3
  -5 -10  -6 63522.1 4317.89   3
  -5 -10  -7 2014.43 876.033   3
  -5 -10  -8 34696.4 3102.29   3
  -5 -10  -9 2264.28 945.565   3
  -6   9   0 991.119 621.267   4
   6  -9   0 909.802 900.183   5
  -6   9  -1 14231.3 1701.67   4
   6  -9   1 10641.1 1994.11   5
  -6   9  -2 5231.66 1051.49   4
   6  -9   2 3941.31 1299.88   5
  -6   9  -3 987.185 602.088   4
  -6   9  -4 561.843 541.178   4
  -6   9  -5 3303.01 834.211   4
  -6   9  -6 2085.88 793.967   4
   6  -8  -2 5631.72 1627.20   5
   6  -8  -1 600.563 946.927   5
   6  -8   0 3185.83 1186.12   5
  -6   8  -1 50464.6 3476.52   4
   6  -8   1 44946.1 4163.20   5
  -6   8  -2 17283.9 1923.15   4
   6  -8   2 14670.3 2302.64   5
  -6   8  -3 26165.4 2403.98   4
  -6   8  -4-174.230 615.688   4
  -6   8  -5 61077.8 3874.43   4
  -6   8  -6 937.515 638.837   4
  -6   8  -7 25171.2 2359.99   4
  -6   8  -8 29513.4 2637.18   4
   6  -7  -3 8778.96 1911.64   5
   6  -7  -2 37102.0 3867.65   5
   6  -7  -1 3272.71 1292.12   5
   6  -7   0 11095.6 2120.95   5
  -6   7  -1-124.139 784.543   4
   6  -7   1-1458.51 953.047   5
  -6   7  -2 12139.1 1630.66   4
   6  -7   2 9524.45 1935.32   5
  -6   7  -3 4186.30 1060.89   4
   6  -7   3 4180.22 1296.28   5
  -6   7  -4-2471.76 889.441   4
  -6   7  -5 7149.28 1296.51   4
  -6   7  -6 675.208 667.163   4
  -6   7  -7 5354.44 1051.88   4
  -6   7  -8 688.149 613.435   4
  -6   7  -9 13876.6 1859.07   4
   6  -6  -4 715.958 822.207   5
   6  -6  -3 17624.3 2589.35   5
   6  -6  -2 27450.6 3280.88   5
   6  -6  -1-256.462 949.940   5
   6  -6   0 11201.7 2219.53   5
   6  -6   1 17893.8 2638.73   5
  -6   6  -2 50032.8 3507.42   4
   6  -6   2 54958.2 4594.67   5
  -6   6  -3 1445.25 722.250   4
   6  -6   3 824.296 808.086   5
  -6   6  -4 32525.5 2742.81   4
  -6   6  -5 2542.06 904.513   4
  -6   6  -6 1364.45 728.767   4
  -6   6  -7-175.315 616.984   4
  -6   6  -8 27426.8 2624.69   4
  -6   6  -9 6025.03 1327.94   4
  -6   6 -10 13019.5 1879.67   4
   6  -5  -5 13508.4 2386.45   5
   6  -5  -4 2963.49 1248.84   5
   6  -5  -3 15653.6 2404.46   5
   6  -5  -2 4212.74 1498.24   5
   6  -5  -1 5390.76 1501.43   5
   6  -5   0 1932.94 1123.81   5
   6  -5   1 114.743 962.336   5
   6  -5   2 649.204 1014.22   5
  -6   5  -3 34978.0 2815.84   4
   6  -5   3 39099.7 3662.60   5
  -6   5  -4 16052.0 1858.36   4
   6  -5   4 13909.2 2208.44   5
  -6   5  -5-2207.25 802.472   4
  -6   5  -6 67877.7 4264.84   4
  -6   5  -7 30835.8 2761.88   4
  -6   5  -8 32117.9 2902.28   4
  -6   5  -9 1197.03 840.318   4
  -6   5 -10 67405.3 4538.47   4
   6  -4  -6 43338.4 4112.83   5
   6  -4  -5 2719.52 989.292   5
   6  -4  -4 50980.4 4308.86   5
   6  -4  -3 2027.80 1024.94   5
   6  -4  -2 41789.8 3962.37   5
   6  -4  -1 32664.2 3570.64   5
   6  -4   0 14930.1 2442.77   5
   6  -4   1 60252.7 5010.01   5
   6  -4   2 7677.67 1661.74   5
  -6   4  -3 14750.3 1772.72   4
   6  -4   3 15047.3 2282.33   5
  -6   4  -4 2242.34 795.981   4
   6  -4   4 2305.97 1023.18   5
  -6   4  -5 14558.5 1740.45   4
  -6   4  -6 112.685 495.209   4
  -6   4  -7-138.805 587.300   4
  -6   4  -8 2836.12 935.521   4
  -6   4  -9 4129.68 1129.80   4
  -6   4 -10 11356.6 1805.39   4
  -6   4 -11 8163.04 1629.38   4
   6  -3  -6 1035.68 740.770   5
   6  -3  -5 6765.12 1626.55   5
   6  -3  -4 1404.18 1021.29   5
   6  -3  -3 2834.06 1175.89   5
   6  -3  -2 554.522 979.740   5
   6  -3  -1 281.790 774.379   5
   6  -3   0 40680.2 3975.98   5
   6  -3   1 19219.6 2732.20   5
   6  -3   2-792.413 1163.70   5
  -6   3  -3 8597.00 1348.85   4
   6  -3   3 5991.61 1559.20   5
  -6   3  -4 19257.1 1955.75   4
   6  -3   4 17132.5 2417.41   5
  -6   3  -5 62578.7 3868.61   4
  -6   3  -6 3671.66 952.506   4
  -6   3  -7 27468.6 2471.03   4
  -6   3  -8 2827.15 822.209   4
  -6   3  -9 3193.88 953.323   4
  -6   3 -10 173.095 635.600   4
  -6   3 -11 13514.0 1971.50   4
   6  -2  -7 23596.2 3048.28   5
   6  -2  -6 13571.9 2276.10   5
   6  -2  -5 39431.1 3775.82   5
   6  -2  -4 2996.79 1132.22   5
   6  -2  -3 3551.30 1214.73   5
   6  -2  -2 44470.2 3975.99   5
   6  -2  -1 5732.96 1424.95   5
   6  -2   0 3037.47 1205.86   5
   6  -2   1-1195.52 1039.07   5
   6  -2   2 896.933 855.112   5
  -6   2  -3 4041.17 968.679   4
   6  -2   3 4422.29 1319.85   5
  -6   2  -4 14277.9 1704.12   4
   6  -2   4 15767.6 2201.63   5
  -6   2  -5 8431.76 1329.72   4
  -6   2  -6 11481.0 1516.35   4
  -6   2  -7 48904.7 3391.54   4
  -6   2  -8 15435.0 1835.34   4
  -6   2  -9 26546.7 2544.08   4
  -6   2 -10 9303.35 1526.34   4
  -6   2 -11 87708.0 5322.22   4
   6  -1  -7 1242.23 733.000   5
   6  -1  -6 6990.67 1603.15   5
   6  -1  -5-170.739 759.026   5
   6  -1  -4-768.319 740.910   5
   6  -1  -3 64141.9 4759.45   5
   6  -1  -2 888.474 709.229   5
   6  -1  -1 59141.0 4625.12   5
   6  -1   0-544.852 1040.58   5
   6  -1   1 66979.7 5105.80   5
   6  -1   2 38710.4 3729.77   5
   6  -1   3 12335.5 2065.90   5
  -6   1  -4 36425.9 2770.49   4
   6  -1   4 36827.7 3333.68   5
  -6   1  -5 8645.65 1323.39   4
  -6   1  -6 41525.5 2984.94   4
  -6   1  -7 4878.70 1035.76   4
  -6   1  -8 5874.54 1165.46   4
  -6   1  -9 3612.10 904.963   4
  -6   1 -10-243.978 565.993   4
  -6   1 -11 3817.24 1082.52   4
   6   0  -7 4926.15 1314.38   5
   6   0  -6 77357.8 5491.18   5
   6   0  -5 9296.03 1807.51   5
   6   0  -4 6298.19 1492.11   5
   6   0  -3 821.081 729.309   5
   6   0  -2 753.715 743.847   5
   6   0  -1 6776.40 1545.82   5
   6   0   0 2395.62 1049.06   5
   6   0   1 815.970 825.825   5
   6   0   2-1010.70 1004.68   5
   6   0   3 52147.3 4136.81   5
  -6   0  -4 16597.3 1773.09   4
   6   0   4 19666.4 2355.11   5
  -6   0  -5 1472.60 610.040   4
  -6   0  -6 2357.30 722.524   4
  -6   0  -7 31295.9 2478.07   4
  -6   0  -8 59585.5 3717.55   4
  -6   0  -9 687.112 527.112   4
  -6   0 -10 30048.9 2622.05   4
  -6   0 -11-659.691 684.082   4
  -6   0 -12 4495.13 1098.95   4
   6   1  -7 15284.7 2345.47   5
   6   1  -6 8995.50 1766.80   5
   6   1  -5 4886.27 1271.86   5
   6   1  -4 71606.2 4950.86   5
   6   1  -3 1352.58 913.877   5
   6   1  -2 17594.0 2230.26   5
   6   1  -1 6915.98 1455.33   5
   6   1   0 61600.6 4555.88   5
   6   1   1 13794.5 2111.86   5
   6   1   2 8109.16 1666.34   5
   6   1   3 29515.2 2912.20   5
  -6  -1  -4 8400.71 1220.60   4
   6   1   4 8547.14 1504.22   5
  -6  -1  -5 1117.15 571.556   4
  -6  -1  -6 395.426 397.480   4
  -6  -1  -7 116.584 490.141   4
  -6  -1  -8-329.271 474.191   4
  -6  -1  -9 43107.1 3063.90   4
  -6  -1 -10 6701.58 1201.79   4
  -6  -1 -11-42.8336 541.062   4
  -6  -1 -12 38395.2 3169.40   4
   6   2  -8 6920.47 1675.48   5
   6   2  -7 7033.45 1532.22   5
   6   2  -6 848.876 774.125   5
   6   2  -5 772.093 765.877   5
   6   2  -4 1042.63 921.598   5
   6   2  -3 6626.28 1385.96   5
   6   2  -2 5276.31 1202.41   5
   6   2  -1 14131.5 2006.84   5
   6   2   0 41254.2 3515.01   5
   6   2   1-1460.51 1054.05   5
   6   2   2 76804.4 4995.50   5
  -6  -2  -3 1211.44 503.493   4
   6   2   3 1248.34 775.203   5
  -6  -2  -4 78152.0 4235.25   4
   6   2   4 83723.7 4957.49   5
  -6  -2  -5 15276.5 1605.18   4
  -6  -2  -6 14798.1 1562.36   4
  -6  -2  -7 44460.6 2937.69   4
  -6  -2  -8 16994.6 1754.54   4
  -6  -2  -9 22462.7 2114.89   4
  -6  -2 -10 6705.22 1237.26   4
  -6  -2 -11 17558.6 1990.06   4
  -6  -2 -12 763.351 642.727   4
   6   3  -8 26823.4 3138.02   5
   6   3  -7 46918.7 3951.94   5
  -6  -3   7 42828.6 3164.94   3
   6   3  -6 7156.72 1539.70   5
   6   3  -5 25215.8 2632.39   5
   6   3  -4 5115.12 1232.53   5
   6   3  -3 123034. 6552.71   5
   6   3  -2 5092.26 1226.46   5
   6   3  -1 5151.60 1190.06   5
   6   3   0 2007.96 654.246   5
   6   3   1 18290.5 2198.39   5
   6   3   2 15350.3 1980.00   5
  -6  -3  -3 2593.54 695.986   4
   6   3   3 2610.85 851.605   5
  -6  -3  -4 477.195 453.302   4
  -6  -3  -5 488.544 405.962   4
  -6  -3  -6 28225.3 2210.95   4
  -6  -3  -7 17275.0 1726.26   4
  -6  -3  -8 8726.05 1229.51   4
  -6  -3  -9 677.286 504.959   4
  -6  -3 -10 17128.4 1869.52   4
  -6  -3 -11 74278.6 4396.12   4
  -6  -3 -12 2055.60 829.874   4
   6   4  -8 2888.20 1111.63   5
   6   4  -7 19503.2 2428.49   5
  -6  -4   7 21858.7 2222.40   3
  -6  -4   6 1640.35 795.396   3
   6   4  -6 1702.22 906.561   5
   6   4  -5 480.559 742.952   5
   6   4  -4 2666.83 971.852   5
   6   4  -3 33119.7 2916.95   5
   6   4  -2 5498.55 1179.60   5
   6   4  -1 32988.9 2954.63   5
   6   4   0 29005.2 2703.43   5
   6   4   1 70227.0 4430.70   5
   6   4   2 46.4506 585.813   5
  -6  -4  -3 17557.8 1710.00   4
   6   4   3 17799.7 1950.97   5
  -6  -4  -4 37757.0 2569.18   4
  -6  -4  -5 1818.70 638.141   4
  -6  -4  -6 2217.95 619.635   4
  -6  -4  -7 1248.86 568.016   4
  -6  -4  -8 13015.0 1494.30   4
  -6  -4  -9 3038.22 822.140   4
  -6  -4 -10 17148.5 1823.14   4
  -6  -4 -11 6878.67 1216.17   4
  -6  -4 -12 10275.9 1528.01   4
  -6  -5   7 88.6166 451.606   3
   6   5  -7 57.8990 645.770   5
   6   5  -6 41692.3 3376.50   5
  -6  -5   6 34367.0 2827.87   3
  -6  -5   5 4422.99 1019.33   3
   6   5  -5 2878.80 1079.70   5
  -6  -5   4 9444.35 1389.13   3
   6   5  -4 7818.26 1362.82   5
   6   5  -3-3.10299 584.251   5
   6   5  -2 2274.80 832.821   5
   6   5  -1-685.474 686.826   5
   6   5   0 19994.9 2136.76   5
   6   5   1 2260.99 779.873   5
  -6  -5  -2 8647.85 1152.19   4
   6   5   2 7920.34 1231.36   5
  -6  -5  -3 19320.1 1745.28   4
  -6  -5  -4-583.922 485.472   4
  -6  -5  -5 55152.4 3184.03   4
  -6  -5  -6 613.026 380.539   4
  -6  -5  -7 65841.6 3641.62   4
  -6  -5  -8 8551.30 1198.24   4
  -6  -5  -9 25762.1 2161.70   4
  -6  -5 -10 23300.9 2107.98   4
  -6  -5 -11 15044.8 1745.39   4
  -6  -6   6 33157.3 2855.05   3
  -6  -6   5 30100.9 2654.21   3
  -6  -6   4 13496.3 1659.66   3
   6   6  -4 13731.6 1763.23   5
  -6  -6   3 7574.79 1328.14   3
   6   6  -3 8626.48 1436.83   5
  -6  -6   2 37517.9 2872.93   3
   6   6  -2 39880.9 3016.70   5
   6   6  -1 11902.4 1542.03   5
   6   6   0 75823.1 4230.30   5
   6   6   1 7326.28 1062.39   5
  -6  -6  -2 6542.18 986.613   4
  -6  -6  -3 3301.66 726.020   4
  -6  -6  -4 12196.3 1308.50   4
  -6  -6  -5 4878.38 874.769   4
  -6  -6  -6 84.1430 389.070   4
  -6  -6  -7-1.99174 423.732   4
  -6  -6  -8 4956.31 933.672   4
  -6  -6  -9 32276.2 2416.16   4
  -6  -6 -10 6877.30 1159.52   4
  -6  -6 -11 3981.58 1001.73   4
  -6  -7   4 4002.83 944.494   3
  -6  -7   3 2327.22 795.578   3
  -6  -7   2 13990.1 1746.92   3
  -6  -7   1 22884.7 2220.80   3
  -6  -7   0 14095.8 1725.53   3
  -6  -7  -1 40.0432 497.234   4
  -6  -7  -2 48182.4 2853.67   4
  -6  -7  -3-236.065 436.217   4
  -6  -7  -4 25404.1 1906.46   4
  -6  -7  -5 9013.76 1109.98   4
  -6  -7  -6 64703.6 3448.93   4
  -6  -7  -7 4506.59 844.378   4
  -6  -7  -8 1690.08 602.062   4
  -6  -7  -9 18388.7 1771.37   4
  -6  -7 -10 7740.38 1174.67   4
  -6  -8   0 681.188 423.588   3
  -6  -8  -1 5664.78 1173.29   3
  -6  -8  -2 810.375 495.222   3
  -6  -8  -3 6918.09 1264.61   3
  -6  -8  -4 239.820 544.573   3
  -6  -8  -5 11675.4 1696.55   3
  -6  -8  -6 11468.7 1664.50   3
  -6  -8  -7 1442.91 781.522   3
  -6  -8  -8 25135.3 2537.41   3
  -7   6  -1 26219.0 2587.89   4
  -7   6  -2-4362.55 1148.40   4
  -7   6  -3 9298.51 1543.53   4
  -7   6  -4 6185.29 1246.46   4
  -7   6  -5 33527.1 2950.41   4
   7  -5   1 7466.99 1758.77   5
  -7   5  -2-584.463 757.018   4
   7  -5   2 806.795 1043.45   5
  -7   5  -3 25796.7 2548.90   4
   7  -5   3 25965.1 3285.39   5
  -7   5  -4 6120.36 1283.20   4
  -7   5  -5 16669.7 2027.79   4
  -7   5  -6 1084.01 582.179   4
   7  -4  -1-144.822 976.830   5
   7  -4   0 33111.8 4012.33   5
   7  -4   1 2669.76 1125.16   5
  -7   4  -2 2099.40 862.397   4
   7  -4   2 7118.46 1937.72   5
  -7   4  -3 11617.8 1682.22   4
   7  -4   3 10658.8 2187.14   5
  -7   4  -4 879.278 653.639   4
   7  -4   4 1214.59 1073.59   5
  -7   4  -5-379.607 584.239   4
  -7   4  -6 3598.38 979.433   4
  -7   4  -7-498.963 596.915   4
   7  -3  -2-1116.63 1130.15   5
   7  -3  -1 5336.24 1686.32   5
   7  -3   0 440.330 1317.86   5
   7  -3   1 25087.2 3430.12   5
   7  -3   2 23712.2 3354.15   5
  -7   3  -3 16855.2 2016.38   4
   7  -3   3 15812.3 2710.38   5
  -7   3  -4 48480.0 3474.88   4
   7  -3   4 43097.6 4244.04   5
  -7   3  -5 2775.09 856.371   4
  -7   3  -6 3936.83 1049.25   4
  -7   3  -7 395.397 652.410   4
   7  -2  -3 1684.45 1013.95   5
   7  -2  -2 4667.24 1572.91   5
   7  -2  -1 2659.15 1435.27   5
   7  -2   0 13476.9 2494.73   5
   7  -2   1 241.819 1295.60   5
   7  -2   2 973.777 880.933   5
  -7   2  -3 3045.45 941.210   4
   7  -2   3 3941.31 1244.94   5
  -7   2  -4 14621.8 1843.79   4
   7  -2   4 14907.0 2350.21   5
  -7   2  -5 2544.48 878.098   4
  -7   2  -6 11524.8 1623.67   4
  -7   2  -7 3239.65 919.228   4
  -7   2  -8 48723.9 3485.92   4
   7  -1  -3 4791.38 1551.92   5
   7  -1  -2 58932.0 5059.43   5
   7  -1  -1 7825.10 1987.65   5
   7  -1   0 4039.00 1430.69   5
   7  -1   1 66413.5 5518.00   5
   7  -1   2 26622.4 3283.98   5
  -7   1  -3 20775.8 2176.86   4
   7  -1   3 23053.6 2953.97   5
  -7   1  -4 565.393 487.565   4
   7  -1   4-229.393 990.952   5
  -7   1  -5 28449.9 2487.33   4
  -7   1  -6 2815.16 790.845   4
  -7   1  -7 588.866 539.853   4
  -7   1  -8 2930.62 865.850   4
   7   0  -4 7654.08 1793.29   5
   7   0  -3 2239.38 1242.14   5
   7   0  -2 5174.40 1525.03   5
   7   0  -1 9486.37 2032.46   5
   7   0   0 25788.2 3209.70   5
   7   0   1 3316.03 1473.01   5
   7   0   2 5589.05 1470.34   5
  -7   0  -3 6292.50 1128.90   4
   7   0   3 4249.92 1410.79   5
  -7   0  -4 25421.5 2292.18   4
   7   0   4 22428.0 2831.67   5
  -7   0  -5 21208.2 2058.71   4
  -7   0  -6 24559.5 2251.67   4
  -7   0  -7 29828.1 2485.49   4
  -7   0  -8 3406.15 902.624   4
   7   1  -4 7883.60 1749.72   5
   7   1  -3 55171.5 4646.15   5
   7   1  -2 2362.42 1061.23   5
   7   1  -1 6398.90 1643.53   5
   7   1   0 3596.82 1232.49   5
   7   1   1 9331.48 1939.53   5
   7   1   2-407.580 889.239   5
  -7  -1  -3 8463.38 1288.65   4
   7   1   3 8381.61 1702.63   5
  -7  -1  -4 506.378 624.820   4
   7   1   4-772.069 885.072   5
  -7  -1  -5 989.733 517.098   4
  -7  -1  -6 19353.2 1946.10   4
  -7  -1  -7 3353.83 827.896   4
  -7  -1  -8-174.564 599.432   4
  -7  -1  -9 20653.1 2075.15   4
   7   2  -4 5812.81 1640.16   5
   7   2  -3 5855.91 1566.81   5
   7   2  -2 2468.47 1152.55   5
   7   2  -1 49216.9 4309.45   5
   7   2   0 1768.41 1099.29   5
   7   2   1 39235.8 3754.23   5
   7   2   2 30165.2 3204.84   5
  -7  -2  -3 35171.6 2733.47   4
   7   2   3 38406.7 3467.39   5
  -7  -2  -4 23175.3 2094.28   4
  -7  -2  -5 2856.73 739.433   4
  -7  -2  -6 38458.1 2781.41   4
  -7  -2  -7 15145.7 1672.40   4
  -7  -2  -8 9071.95 1335.22   4
  -7  -2  -9 5245.06 1039.05   4
   7   3  -4 13051.7 2096.01   5
   7   3  -3 1434.44 970.224   5
   7   3  -2 10617.6 1866.18   5
   7   3  -1 9510.79 1878.89   5
   7   3   0 3005.97 1116.51   5
   7   3   1 14219.5 2130.14   5
   7   3   2 722.430 691.749   5
  -7  -3  -3 18651.7 1866.53   4
   7   3   3 19951.2 2367.79   5
  -7  -3  -4-884.939 739.012   4
  -7  -3  -5 4658.40 948.440   4
  -7  -3  -6 721.749 511.544   4
  -7  -3  -7 25341.5 2177.81   4
  -7  -3  -8 9788.71 1373.54   4
  -7  -3  -9 7638.51 1212.19   4
   7   4  -5 12135.6 1914.93   5
   7   4  -4 11042.1 1842.89   5
   7   4  -3-277.522 692.988   5
   7   4  -2 15731.6 2297.12   5
   7   4  -1 3509.50 1077.61   5
   7   4   0 46532.6 3900.20   5
   7   4   1-150.548 639.757   5
  -7  -4  -2 11672.0 1468.20   4
   7   4   2 11840.3 1769.35   5
  -7  -4  -3 1968.57 685.627   4
  -7  -4  -4 4162.75 867.848   4
  -7  -4  -5 7599.58 1158.31   4
  -7  -4  -6 10302.6 1340.06   4
  -7  -4  -7 265.637 466.788   4
  -7  -4  -8 592.665 602.752   4
   7   5  -2 1514.41 952.462   5
   7   5  -1 2054.75 994.552   5
   7   5   0 23530.4 2532.73   5
   7   5   1-1307.60 741.590   5
  -7  -5  -2 12126.3 1474.47   4
   7   5   2 12429.7 1698.67   5
  -7  -5  -3-103.257 554.767   4
  -7  -5  -4 75380.6 4077.05   4
  -7  -5  -5 2066.28 592.552   4
  -7  -5  -6 21616.7 1928.62   4
  -7  -5  -7 31458.5 2381.52   4
  -7  -5  -8 17972.4 1784.30   4
  -7  -6  -1 8129.39 1203.91   4
  -7  -6  -2 10698.3 1348.64   4
  -7  -6  -3 809.976 457.416   4
  -7  -6  -4 2860.03 771.614   4
  -7  -6  -5 1694.29 633.518   4
  -7  -6  -6 4265.59 863.513   4
  -7  -6  -7 5174.08 998.912   4
  -7  -6  -8 3831.89 852.763   4
  -7  -7  -1 13847.5 1500.41   4
  -7  -7  -2 215.499 590.735   4
  -7  -7  -3 51754.7 3081.32   4
  -7  -7  -4-999.487 552.196   4
   8   2   3 19499.5 2673.67   5
   8   3   2 17288.4 2480.45   5
   0   0   0    0.00    0.00   0
;
_shelx_hkl_checksum              15462
_olex2_submission_special_instructions 'No special instructions were received'
_oxdiff_exptl_absorpt_empirical_details
;
Empirical correction (ABSPACK) includes:
- Absorption correction using spherical harmonics
- Frame scaling
;
_oxdiff_exptl_absorpt_empirical_full_max 1.641
_oxdiff_exptl_absorpt_empirical_full_min 0.540
loop_
_space_group_symop_operation_xyz
'x, y, z'
'-x, -y, -z'
loop_
_atom_site_label
_atom_site_type_symbol
_atom_site_fract_x
_atom_site_fract_y
_atom_site_fract_z
_atom_site_U_iso_or_equiv
_atom_site_adp_type
_atom_site_occupancy
_atom_site_site_symmetry_order
_atom_site_calc_flag
_atom_site_refinement_flags_posn
_atom_site_refinement_flags_adp
_atom_site_refinement_flags_occupancy
_atom_site_disorder_assembly
_atom_site_disorder_group
U1 U 1.26118(7) 0.91667(3) 0.25242(3) 0.00639(10) Uani 1 1 d . . . . .
Pb1 Pb 0.17146(7) 0.31168(3) 0.19420(3) 0.00978(10) Uani 1 1 d . . . . .
Se1 Se 1.28765(18) 0.88945(8) -0.04617(7) 0.00672(19) Uani 1 1 d . . . . .
Se2 Se 1.22560(19) 1.16963(8) 0.48714(8) 0.0109(2) Uani 1 1 d . . . . .
Se3 Se 0.90629(18) 0.62573(8) 0.22070(8) 0.0087(2) Uani 1 1 d . . . . .
Cu1 Cu 1.000000 0.500000 0.500000 0.0078(3) Uani 1 2 d S . P . .
Cu2 Cu 0.7079(2) 0.44304(10) 0.04629(9) 0.0075(2) Uani 1 1 d . . . . .
Cu3 Cu 0.5638(2) 0.42438(10) 0.38446(9) 0.0091(2) Uani 1 1 d . . . . .
O1 O 1.5222(14) 0.8649(6) 0.3050(6) 0.0160(15) Uani 1 1 d . . . . .
O2 O 1.0029(13) 0.9667(6) 0.1950(6) 0.0143(15) Uani 1 1 d . . . . .
O3 O 1.4457(13) 0.8660(6) 0.0625(5) 0.0108(10) Uani 1 1 d . . . . .
O4 O 1.1596(13) 0.7388(6) -0.0578(5) 0.0089(9) Uani 1 1 d . . . . .
O5 O 1.5177(13) 0.8868(5) -0.1628(5) 0.0089(9) Uani 1 1 d . . . . .
O6 O 1.1531(13) 1.1012(6) 0.3690(5) 0.0108(10) Uani 1 1 d . . . . .
O7 O 1.2401(14) 1.3322(6) 0.4417(6) 0.0159(11) Uani 1 1 d . . . . .
O8 O 0.9567(14) 1.1705(6) 0.5750(6) 0.0159(11) Uani 1 1 d . . . . .
O9 O 1.1808(13) 0.6916(6) 0.2214(5) 0.0102(10) Uani 1 1 d . . . . .
O10 O 0.8884(13) 0.5136(6) 0.3318(5) 0.0102(10) Uani 1 1 d . . . . .
O11 O 0.9803(12) 0.5142(5) 0.1141(5) 0.0057(13) Uani 1 1 d . . . . .
O12 O 0.6938(12) 0.4091(5) 0.5251(5) 0.0087(10) Uani 1 1 d D . . . .
H12 H 0.71(2) 0.325(5) 0.559(8) 0.013 Uiso 1 1 d D U . . .
O13 O 0.4716(13) 0.4581(5) 0.2367(5) 0.0087(10) Uani 1 1 d D . . . .
H13 H 0.347(11) 0.521(5) 0.253(6) 0.013 Uiso 1 1 d D U . . .
O14 O 0.4060(12) 0.3828(5) 0.0063(5) 0.0080(14) Uani 1 1 d D . . . .
H14 H 0.41(2) 0.297(5) -0.025(8) 0.012 Uiso 1 1 d D U . . .
O15 O 0.6985(15) 0.2030(7) 0.3406(6) 0.0223(17) Uani 1 1 d . . . . .
H15A H 0.684599 0.182127 0.270118 0.033 Uiso 1 1 d DR U . . .
H15B H 0.856065 0.195496 0.339020 0.033 Uiso 1 1 d R U . . .
loop_
_atom_site_aniso_label
_atom_site_aniso_U_11
_atom_site_aniso_U_22
_atom_site_aniso_U_33
_atom_site_aniso_U_23
_atom_site_aniso_U_13
_atom_site_aniso_U_12
U1 0.0104(2) 0.00671(16) 0.00193(17) 0.00031(11) -0.00064(14) -0.00247(12)
Pb1 0.0113(2) 0.01025(17) 0.00762(19) 0.00139(12) -0.00153(15) -0.00226(13)
Se1 0.0106(5) 0.0071(4) 0.0025(4) 0.0001(3) -0.0012(4) -0.0016(3)
Se2 0.0159(6) 0.0118(4) 0.0047(5) 0.0004(3) -0.0011(4) -0.0025(4)
Se3 0.0114(5) 0.0078(4) 0.0064(5) -0.0017(3) 0.0003(4) -0.0021(3)
Cu1 0.0101(9) 0.0087(7) 0.0045(8) -0.0012(5) -0.0011(7) -0.0027(6)
Cu2 0.0092(6) 0.0076(5) 0.0061(6) 0.0009(4) -0.0024(5) -0.0021(4)
Cu3 0.0105(6) 0.0140(5) 0.0025(5) -0.0007(4) -0.0004(5) -0.0054(4)
O1 0.012(4) 0.021(3) 0.014(4) 0.006(3) -0.002(3) -0.002(3)
O2 0.013(4) 0.016(3) 0.014(4) 0.002(3) -0.001(3) -0.003(3)
O3 0.017(3) 0.012(2) 0.003(2) -0.0012(16) -0.002(2) -0.0037(19)
O4 0.012(3) 0.011(2) 0.004(2) -0.0008(16) 0.000(2) -0.0040(18)
O5 0.012(3) 0.011(2) 0.004(2) -0.0008(16) 0.000(2) -0.0040(18)
O6 0.017(3) 0.012(2) 0.003(2) -0.0012(16) -0.002(2) -0.0037(19)
O7 0.022(3) 0.013(2) 0.008(3) 0.0025(17) 0.007(2) -0.004(2)
O8 0.022(3) 0.013(2) 0.008(3) 0.0025(17) 0.007(2) -0.004(2)
O9 0.014(3) 0.012(2) 0.006(2) 0.0001(16) -0.005(2) -0.0062(18)
O10 0.014(3) 0.012(2) 0.006(2) 0.0001(16) -0.005(2) -0.0062(18)
O11 0.008(4) 0.007(3) 0.002(3) -0.002(2) 0.002(3) -0.001(2)
O12 0.010(3) 0.010(2) 0.006(2) 0.0017(16) 0.000(2) -0.0018(18)
O13 0.010(3) 0.010(2) 0.006(2) 0.0017(16) 0.000(2) -0.0018(18)
O14 0.012(4) 0.004(3) 0.008(3) 0.001(2) -0.004(3) -0.003(2)
O15 0.019(5) 0.026(4) 0.022(4) -0.009(3) -0.002(4) -0.002(3)
loop_
_atom_type_symbol
_atom_type_description
_atom_type_scat_dispersion_real
_atom_type_scat_dispersion_imag
_atom_type_scat_source
Cu Cu 0.3201 1.2651 'International Tables Vol C Tables 4.2.6.8 and 6.1.1.4'
H H 0.0000 0.0000 'International Tables Vol C Tables 4.2.6.8 and 6.1.1.4'
O O 0.0106 0.0060 'International Tables Vol C Tables 4.2.6.8 and 6.1.1.4'
Pb Pb -3.3944 10.1111 'International Tables Vol C Tables 4.2.6.8 and 6.1.1.4'
Se Se -0.0929 2.2259 'International Tables Vol C Tables 4.2.6.8 and 6.1.1.4'
U U -9.6767 9.6646 'International Tables Vol C Tables 4.2.6.8 and 6.1.1.4'
loop_
_exptl_crystal_face_index_h
_exptl_crystal_face_index_k
_exptl_crystal_face_index_l
_exptl_crystal_face_perp_dist
3 -13 5 0.0399
3 2 -14 0.0592
-2 13 -7 0.0239
-4 3 13 0.0446
7 -2 9 0.0377
-2 -13 -4 0.0406
-7 -3 -9 0.0219
0 14 1 0.0073
loop_
_geom_angle_atom_site_label_1
_geom_angle_atom_site_label_2
_geom_angle_atom_site_label_3
_geom_angle
_geom_angle_site_symmetry_1
_geom_angle_site_symmetry_3
O1 U1 O2 178.1(3) . .
O1 U1 O3 91.5(3) . .
O1 U1 O5 89.4(3) . 2_875
O1 U1 O6 99.0(3) . .
O1 U1 O8 85.6(3) . 2_776
O1 U1 O9 88.9(3) . .
O2 U1 O3 86.6(3) . .
O2 U1 O5 90.2(3) . 2_875
O2 U1 O6 82.6(3) . .
O2 U1 O8 95.8(3) . 2_776
O2 U1 O9 90.3(3) . .
O3 U1 O5 70.8(2) . 2_875
O6 U1 O3 140.5(2) . .
O6 U1 O5 71.3(2) . 2_875
O6 U1 O9 145.7(2) . .
O8 U1 O3 145.1(2) 2_776 .
O8 U1 O5 143.7(2) 2_776 2_875
O8 U1 O6 74.0(2) 2_776 .
O8 U1 O9 73.4(2) 2_776 .
O9 U1 O3 71.8(2) . .
O9 U1 O5 142.5(2) . 2_875
O5 Pb1 O4 105.54(18) 2_765 2_665
O11 Pb1 O4 63.62(17) 1_455 2_665
O11 Pb1 O5 149.11(19) 1_455 2_765
O13 Pb1 O4 147.05(19) . 2_665
O13 Pb1 O5 91.4(2) . 2_765
O13 Pb1 O11 87.3(2) . 1_455
O13 Pb1 O14 75.1(2) . .
O14 Pb1 O4 79.84(19) . 2_665
O14 Pb1 O5 81.0(2) . 2_765
O14 Pb1 O11 68.9(2) . 1_455
O3 Se1 O5 101.1(3) . .
O4 Se1 O3 104.1(3) . .
O4 Se1 O5 100.0(3) . .
O6 Se2 O7 98.3(3) . .
O8 Se2 O6 101.6(4) . .
O8 Se2 O7 99.8(3) . .
O9 Se3 O10 100.1(3) . .
O9 Se3 O11 99.7(3) . .
O10 Se3 O11 97.0(3) . .
O7 Cu1 O7 180.0 2_776 1_545
O7 Cu1 O10 90.1(3) 1_545 .
O7 Cu1 O10 89.9(3) 1_545 2_766
O7 Cu1 O10 90.1(3) 2_776 2_766
O7 Cu1 O10 89.9(3) 2_776 .
O10 Cu1 O10 180.0 . 2_766
O12 Cu1 O7 99.6(3) 2_766 2_776
O12 Cu1 O7 80.4(3) . 2_776
O12 Cu1 O7 80.4(3) 2_766 1_545
O12 Cu1 O7 99.6(3) . 1_545
O12 Cu1 O10 103.5(2) . 2_766
O12 Cu1 O10 76.5(2) . .
O12 Cu1 O10 76.5(2) 2_766 2_766
O12 Cu1 O10 103.5(2) 2_766 .
O12 Cu1 O12 180.0 . 2_766
O4 Cu2 Cu2 134.34(19) 2_765 2_665
O4 Cu2 O11 88.5(2) 2_765 2_765
O4 Cu2 O11 89.1(2) 2_765 .
O4 Cu2 O13 99.2(2) 2_765 .
O4 Cu2 O14 165.8(3) 2_765 2_665
O11 Cu2 Cu2 136.45(17) . 2_665
O11 Cu2 Cu2 98.86(16) 2_765 2_665
O11 Cu2 O11 76.0(2) . 2_765
O11 Cu2 O13 85.4(2) . .
O11 Cu2 O13 159.8(2) 2_765 .
O13 Cu2 Cu2 89.07(17) . 2_665
O14 Cu2 Cu2 41.29(16) . 2_665
O14 Cu2 Cu2 40.36(18) 2_665 2_665
O14 Cu2 O4 94.6(3) . 2_765
O14 Cu2 O11 113.7(2) . 2_765
O14 Cu2 O11 97.0(2) 2_665 .
O14 Cu2 O11 80.6(2) 2_665 2_765
O14 Cu2 O11 169.6(3) . .
O14 Cu2 O13 94.1(2) 2_665 .
O14 Cu2 O13 84.4(2) . .
O14 Cu2 O14 81.7(2) . 2_665
O7 Cu3 O12 74.4(2) 1_445 2_666
O7 Cu3 O15 83.3(3) 1_445 .
O10 Cu3 O7 178.3(3) . 1_445
O10 Cu3 O12 105.9(2) . 2_666
O10 Cu3 O15 96.2(3) . .
O12 Cu3 O7 97.8(3) . 1_445
O12 Cu3 O10 80.5(3) . .
O12 Cu3 O12 86.6(3) . 2_666
O12 Cu3 O15 89.0(3) . .
O12 Cu3 O15 156.4(2) 2_666 .
O13 Cu3 O7 90.2(3) . 1_445
O13 Cu3 O10 91.5(3) . .
O13 Cu3 O12 93.7(2) . 2_666
O13 Cu3 O12 171.7(3) . .
O13 Cu3 O15 93.9(3) . .
Se1 O3 U1 119.8(4) . .
Se1 O4 Pb1 124.9(3) . 2_665
Se1 O4 Cu2 130.1(4) . 2_765
Cu2 O4 Pb1 99.3(2) 2_765 2_665
U1 O5 Pb1 105.5(2) 2_875 2_765
Se1 O5 U1 125.2(3) . 2_875
Se1 O5 Pb1 121.5(3) . 2_765
Se2 O6 U1 139.1(4) . .
Se2 O7 Cu1 129.7(4) . 1_565
Se2 O7 Cu3 121.4(4) . 1_665
Cu3 O7 Cu1 102.7(3) 1_665 1_565
Se2 O8 U1 144.2(4) . 2_776
Se3 O9 U1 125.8(4) . .
Se3 O10 Cu1 138.1(3) . .
Se3 O10 Cu3 116.4(4) . .
Cu3 O10 Cu1 95.1(3) . .
Se3 O11 Pb1 108.1(3) . 1_655
Se3 O11 Cu2 116.6(4) . .
Se3 O11 Cu2 122.3(3) . 2_765
Cu2 O11 Pb1 97.6(2) 2_765 1_655
Cu2 O11 Pb1 105.6(2) . 1_655
Cu2 O11 Cu2 104.0(2) . 2_765
Cu1 O12 Cu3 101.0(2) . 2_666
Cu1 O12 Cu3 107.7(3) . .
Cu1 O12 H12 109(7) . .
Cu3 O12 Cu3 93.4(3) . 2_666
Cu3 O12 H12 120(6) . .
Cu3 O12 H12 123(6) 2_666 .
Pb1 O13 Cu2 92.2(2) . .
Pb1 O13 H13 86(6) . .
Cu2 O13 H13 121(4) . .
Cu3 O13 Pb1 114.6(3) . .
Cu3 O13 Cu2 130.3(3) . .
Cu3 O13 H13 103(5) . .
Pb1 O14 H14 95(6) . .
Cu2 O14 Pb1 102.0(2) . .
Cu2 O14 Pb1 111.8(3) 2_665 .
Cu2 O14 Cu2 98.3(2) . 2_665
Cu2 O14 H14 132(6) 2_665 .
Cu2 O14 H14 115(7) . .
Cu3 O15 H15A 111.8 . .
Cu3 O15 H15B 111.0 . .
H15A O15 H15B 102.6 . .
loop_
_geom_bond_atom_site_label_1
_geom_bond_atom_site_label_2
_geom_bond_distance
_geom_bond_site_symmetry_2
U1 O1 1.775(7) .
U1 O2 1.786(7) .
U1 O3 2.391(6) .
U1 O5 2.458(6) 2_875
U1 O6 2.359(6) .
U1 O8 2.357(7) 2_776
U1 O9 2.360(5) .
Pb1 O4 2.751(6) 2_665
Pb1 O5 2.639(6) 2_765
Pb1 O11 2.547(6) 1_455
Pb1 O13 2.379(6) .
Pb1 O14 2.487(6) .
Se1 O3 1.717(7) .
Se1 O4 1.700(6) .
Se1 O5 1.727(7) .
Se2 O6 1.703(6) .
Se2 O7 1.707(6) .
Se2 O8 1.683(7) .
Se3 O9 1.688(7) .
Se3 O10 1.713(6) .
Se3 O11 1.713(6) .
Cu1 O7 2.205(7) 1_545
Cu1 O7 2.205(7) 2_776
Cu1 O10 2.218(6) 2_766
Cu1 O10 2.218(6) .
Cu1 O12 1.929(7) .
Cu1 O12 1.929(7) 2_766
Cu2 Cu2 2.983(2) 2_665
Cu2 O4 1.982(6) 2_765
Cu2 O11 2.005(6) .
Cu2 O11 2.390(6) 2_765
Cu2 O13 2.433(7) .
Cu2 O14 1.953(7) .
Cu2 O14 1.989(6) 2_665
Cu3 O7 2.048(7) 1_445
Cu3 O10 2.030(7) .
Cu3 O12 2.362(6) 2_666
Cu3 O12 1.958(6) .
Cu3 O13 1.955(6) .
Cu3 O15 2.387(7) .
O12 H12 0.94(2) .
O13 H13 0.944(19) .
O14 H14 0.95(2) .
O15 H15A 0.8918 .
O15 H15B 0.8886 .
loop_
_geom_hbond_atom_site_label_D
_geom_hbond_atom_site_label_H
_geom_hbond_atom_site_label_A
_geom_hbond_distance_DH
_geom_hbond_distance_HA
_geom_hbond_distance_DA
_geom_hbond_angle_DHA
_geom_hbond_site_symmetry_A
_geom_hbond_publ_flag
O12 H12 O8 0.94(2) 2.10(7) 2.921(9) 145(9) 1_545 yes
O13 H13 O9 0.944(19) 2.010(19) 2.879(9) 152(5) 1_455 yes
O14 H14 O3 0.95(2) 1.85(5) 2.731(8) 154(10) 2_765 yes
O15 H15A O5 0.89 2.00 2.807(10) 149.2 2_765 yes
O15 H15B O6 0.89 2.01 2.832(11) 154.0 1_545 yes
loop_
_geom_torsion_atom_site_label_1
_geom_torsion_atom_site_label_2
_geom_torsion_atom_site_label_3
_geom_torsion_atom_site_label_4
_geom_torsion
_geom_torsion_site_symmetry_1
_geom_torsion_site_symmetry_2
_geom_torsion_site_symmetry_3
_geom_torsion_site_symmetry_4
O3 Se1 O4 Pb1 172.5(4) . . . 2_665
O3 Se1 O4 Cu2 -39.6(5) . . . 2_765
O3 Se1 O5 U1 -91.5(4) . . . 2_875
O3 Se1 O5 Pb1 53.0(4) . . . 2_765
O4 Se1 O3 U1 -93.2(4) . . . .
O4 Se1 O5 U1 161.8(4) . . . 2_875
O4 Se1 O5 Pb1 -53.6(4) . . . 2_765
O5 Se1 O3 U1 163.3(3) . . . .
O5 Se1 O4 Pb1 -83.3(4) . . . 2_665
O5 Se1 O4 Cu2 64.7(5) . . . 2_765
O6 Se2 O7 Cu1 110.9(5) . . . 1_565
O6 Se2 O7 Cu3 -101.7(4) . . . 1_665
O6 Se2 O8 U1 115.8(6) . . . 2_776
O7 Se2 O6 U1 136.4(5) . . . .
O7 Se2 O8 U1 -143.6(6) . . . 2_776
O8 Se2 O6 U1 -121.8(5) . . . .
O8 Se2 O7 Cu1 7.5(5) . . . 1_565
O8 Se2 O7 Cu3 154.9(4) . . . 1_665
O9 Se3 O10 Cu1 36.3(6) . . . .
O9 Se3 O10 Cu3 170.8(3) . . . .
O9 Se3 O11 Pb1 78.1(3) . . . 1_655
O9 Se3 O11 Cu2 -33.7(4) . . . 2_765
O9 Se3 O11 Cu2 -163.2(3) . . . .
O10 Se3 O9 U1 -118.2(4) . . . .
O10 Se3 O11 Pb1 -23.4(3) . . . 1_655
O10 Se3 O11 Cu2 95.3(4) . . . .
O10 Se3 O11 Cu2 -135.2(4) . . . 2_765
O11 Se3 O9 U1 142.8(4) . . . .
O11 Se3 O10 Cu1 137.5(6) . . . .
O11 Se3 O10 Cu3 -87.9(4) . . . .
loop_
_exptl_oxdiff_crystal_face_indexfrac_h
_exptl_oxdiff_crystal_face_indexfrac_k
_exptl_oxdiff_crystal_face_indexfrac_l
_exptl_oxdiff_crystal_face_x
_exptl_oxdiff_crystal_face_y
_exptl_oxdiff_crystal_face_z
2.7488 -12.7968 5.0768 -0.0421 -0.1495 0.9879
2.6772 1.8415 -14.4772 0.2308 0.9686 -0.0923
-2.3407 12.5631 -6.5853 0.0675 0.2571 -0.9640
-3.7935 3.0340 12.8520 -0.2198 -0.9329 -0.2852
7.3134 -2.4873 8.6646 -0.7969 0.1932 0.5724
-2.2948 -13.4171 -4.0183 0.6757 -0.1557 0.7205
-7.2355 -2.7805 -9.0520 0.9455 -0.2263 -0.2340
0.1619 14.1853 1.4952 -0.4446 0.0996 -0.8902
