#------------------------------------------------------------------------------
#$Date: 2022-02-01 10:53:19 +0200 (Tue, 01 Feb 2022) $
#$Revision: 272375 $
#$URL: file:///home/coder/svn-repositories/cod/cif/1/56/62/1566222.cif $
#------------------------------------------------------------------------------
#
# This file is available in the Crystallography Open Database (COD),
# http://www.crystallography.net/
#
# All data on this site have been placed in the public domain by the
# contributors.
#
data_1566222
loop_
_publ_author_name
'Vladislav V. Gurzhiy'
'Alina R. Izatulina'
'Maria G. Krzhizhanovskaya'
'Mikhail N. Murashko'
'Dar-ya V. Spiridonova'
'Vladimir V. Shilovskikh'
'Sergey V. Krivovichev'
_publ_section_title
;
 Thermal behavior of uranyl selenite minerals derriksite and
 demesmaekerite
;
_journal_name_full               'Journal of GeoSciences'
_journal_page_first              249
_journal_page_last               259
_journal_paper_doi               10.3190/jgeosci.315
_journal_volume                  65
_journal_year                    2020
_chemical_formula_moiety         'Cu5 H10 O30 Pb2 Se6 U2'
_chemical_formula_sum            'Cu5 H10 O30 Pb2 Se6 U2'
_chemical_formula_weight         2171.98
_space_group_crystal_system      triclinic
_space_group_IT_number           2
_space_group_name_Hall           '-P 1'
_space_group_name_H-M_alt        'P -1'
_atom_sites_solution_hydrogens   difmap
_cell_angle_alpha                88.670(4)
_cell_angle_beta                 79.684(4)
_cell_angle_gamma                89.912(4)
_cell_formula_units_Z            1
_cell_length_a                   5.6628(3)
_cell_length_b                   10.0773(4)
_cell_length_c                   11.9753(6)
_cell_measurement_reflns_used    2797
_cell_measurement_temperature    303(2)
_cell_measurement_theta_max      30.2220
_cell_measurement_theta_min      3.6610
_cell_volume                     672.15(6)
_computing_cell_refinement       'CrysAlisPro 1.171.39.44a (Rigaku OD, 2018)'
_computing_data_collection       'CrysAlisPro 1.171.39.44a (Rigaku OD, 2018)'
_computing_data_reduction        'CrysAlisPro 1.171.39.44a (Rigaku OD, 2018)'
_computing_molecular_graphics    'Olex2 1.3 (Dolomanov et al., 2009)'
_computing_publication_material  'Olex2 1.3 (Dolomanov et al., 2009)'
_computing_structure_refinement  'SHELXL 2018/3 (Sheldrick, 2015)'
_computing_structure_solution    'SHELXT 2018/3 (Sheldrick, 2015)'
_diffrn_ambient_environment      air
_diffrn_ambient_temperature      303(2)
_diffrn_detector                 'CCD plate'
_diffrn_detector_area_resol_mean 10.3829
_diffrn_detector_type            Atlas
_diffrn_measured_fraction_theta_full 0.995
_diffrn_measured_fraction_theta_max 0.995
_diffrn_measurement_details
;
List of Runs (angles in degrees, time in seconds):

  # Type    Start    End  Width  t~exp~   \w     \q     \k     \f   Frames
--------------------------------------------------------------------------
  1  \w    -26.00   1.00   1.00   22.50    --  -15.14 -77.00-150.00   27
  2  \w    -40.00  17.00   1.00   22.50    --  -15.14 -77.00 -30.00   57
  3  \w     39.00 102.00   1.00   22.50    --   16.86 178.00  60.00   63
  4  \w     -2.00  93.00   1.00   22.50    --   16.86  38.00-120.00   95
  5  \w    -57.00  41.00   1.00   22.50    --   16.86 -57.00  90.00   98
;
_diffrn_measurement_device       'four-circle diffractometer'
_diffrn_measurement_device_type  'SuperNova, Dual, Cu at home/near, Atlas'
_diffrn_measurement_method       '\w scans'
_diffrn_orient_matrix_type
'CrysAlisPro convention (1999,Acta A55,543-557)'
_diffrn_orient_matrix_UB_11      -0.0803260000
_diffrn_orient_matrix_UB_12      -0.0261251000
_diffrn_orient_matrix_UB_13      -0.0331090000
_diffrn_orient_matrix_UB_21      0.0872900000
_diffrn_orient_matrix_UB_22      0.0105075000
_diffrn_orient_matrix_UB_23      -0.0498347000
_diffrn_orient_matrix_UB_31      0.0463582000
_diffrn_orient_matrix_UB_32      -0.0645289000
_diffrn_orient_matrix_UB_33      0.0068372000
_diffrn_radiation_monochromator  mirror
_diffrn_radiation_probe          x-ray
_diffrn_radiation_type           'Mo K\a'
_diffrn_radiation_wavelength     0.71073
_diffrn_reflns_av_R_equivalents  0.0344
_diffrn_reflns_av_unetI/netI     0.0604
_diffrn_reflns_Laue_measured_fraction_full 0.995
_diffrn_reflns_Laue_measured_fraction_max 0.995
_diffrn_reflns_limit_h_max       7
_diffrn_reflns_limit_h_min       -7
_diffrn_reflns_limit_k_max       13
_diffrn_reflns_limit_k_min       -13
_diffrn_reflns_limit_l_max       14
_diffrn_reflns_limit_l_min       -15
_diffrn_reflns_number            5531
_diffrn_reflns_point_group_measured_fraction_full 0.995
_diffrn_reflns_point_group_measured_fraction_max 0.995
_diffrn_reflns_theta_full        25.242
_diffrn_reflns_theta_max         27.500
_diffrn_reflns_theta_min         3.459
_diffrn_source                   'micro-focus sealed X-ray tube'
_diffrn_source_type              'SuperNova (Mo) X-ray Source'
_exptl_absorpt_coefficient_mu    36.590
_exptl_absorpt_correction_T_max  0.254
_exptl_absorpt_correction_T_min  0.071
_exptl_absorpt_correction_type   analytical
_exptl_absorpt_process_details
;
CrysAlisPro 1.171.39.44a (Rigaku Oxford Diffraction, 2018)
Analytical numeric absorption correction using a multifaceted crystal
			model based on expressions derived by R.C. Clark & J.S. Reid.
(Clark, R. C. & Reid, J. S. (1995). Acta Cryst. A51, 887-897)
Empirical absorption correction using spherical harmonics,
 implemented in SCALE3 ABSPACK scaling algorithm.
;
_exptl_crystal_colour            brown
_exptl_crystal_density_diffrn    5.366
_exptl_crystal_description       prism
_exptl_crystal_F_000             947
_exptl_crystal_size_max          0.12
_exptl_crystal_size_mid          0.063
_exptl_crystal_size_min          0.055
_refine_diff_density_max         2.227
_refine_diff_density_min         -1.936
_refine_diff_density_rms         0.365
_refine_ls_extinction_coef       .
_refine_ls_extinction_method     none
_refine_ls_goodness_of_fit_ref   1.020
_refine_ls_hydrogen_treatment    mixed
_refine_ls_matrix_type           full
_refine_ls_number_parameters     209
_refine_ls_number_reflns         3073
_refine_ls_number_restraints     5
_refine_ls_restrained_S_all      1.020
_refine_ls_R_factor_all          0.0454
_refine_ls_R_factor_gt           0.0342
_refine_ls_shift/su_max          0.000
_refine_ls_shift/su_mean         0.000
_refine_ls_structure_factor_coef Fsqd
_refine_ls_weighting_details
'w=1/[\s^2^(Fo^2^)+(0.0235P)^2^] where P=(Fo^2^+2Fc^2^)/3'
_refine_ls_weighting_scheme      calc
_refine_ls_wR_factor_gt          0.0657
_refine_ls_wR_factor_ref         0.0716
_reflns_Friedel_coverage         0.000
_reflns_Friedel_fraction_full    .
_reflns_Friedel_fraction_max     .
_reflns_number_gt                2584
_reflns_number_total             3073
_reflns_threshold_expression     'I > 2\s(I)'
_cod_data_source_file            Demesmaekerite_SN_30C_last.cif
_cod_data_source_block           demesmaekerite_sn_30C
_cod_original_cell_volume        672.16(5)
_cod_database_code               1566222
_chemical_oxdiff_formula         'Pb2 Cu5 U2 Se6 O30'
_shelx_space_group_comment
;
The symmetry employed for this shelxl refinement is uniquely defined
by the following loop, which should always be used as a source of
symmetry information in preference to the above space-group names.
They are only intended as comments.
;
_reflns_odcompleteness_completeness 99.77
_reflns_odcompleteness_iscentric 1
_reflns_odcompleteness_theta     28.51
_olex2_refinement_description
;
1. Fixed Uiso
 At 1.5 times of:
  All O(H) groups, All O(H,H) groups
2. Restrained distances
 O14-H14
 0.95 with sigma of 0.02
 O13-H13
 0.95 with sigma of 0.02
 O12-H12
 0.95 with sigma of 0.02
 H15A-O5_$3
 2 with sigma of 0.02
 O9_$2-H13
 2 with sigma of 0.02
3. Uiso/Uaniso restraints and constraints
Uanis(O8) = Uanis(O7)
4.a Rotating group:
 O15(H15A,H15B)
;
_shelx_res_file
;
TITL Demesmaekerite_SN_303K in P-1
    demesmaekerite_sn_303k.res
    created by SHELXL-2018/3 at 02:28:59 on 09-Sep-2020
REM P-1 (#2 in standard setting)
CELL 0.71073 5.66283 10.077331 11.975336 88.6695 79.6838 89.912
ZERR 1 0.000274 0.000422 0.000581 0.0037 0.0041 0.0036
LATT 1
SFAC Cu H O Pb Se U
UNIT 5 10 30 2 6 2
EQIV $1 +X,-1+Y,+Z
EQIV $2 -1+X,+Y,+Z
EQIV $3 2-X,1-Y,-Z
DFIX 0.95 O14 H14
DFIX 0.95 O13 H13
DFIX 0.95 O12 H12
DFIX 2 H15a O5_$3
DFIX 2 O9_$2 H13
EADP O8 O7

L.S. 20
PLAN  4
CONF
HTAB O12 O8_$1
HTAB O13 O9_$2
HTAB O14 O3_$3
HTAB O15 O5_$3
HTAB O15 O6_$1
Htab
BOND $H
MORE -1
fmap 2
acta
OMIT -4 55
OMIT 1 2 11
OMIT -1 1 0
OMIT 1 2 10
OMIT 4 0 7
OMIT 1 -12 5
OMIT 1 -8 1
OMIT 1 0 2
REM <olex2.extras>
REM <HklSrc "%.\\Demesmaekerite_SN_303K.hkl">
REM </olex2.extras>

WGHT    0.023500
FVAR       1.68717
U1    6    1.260878    0.916399    0.252547    11.00000    0.01510    0.00851 =
         0.00618    0.00020   -0.00128   -0.00355
PB1   4    0.171664    0.310558    0.194495    11.00000    0.01731    0.01500 =
         0.01647    0.00238   -0.00306   -0.00354
SE1   5    1.288628    0.888528   -0.046544    11.00000    0.01468    0.00911 =
         0.00762    0.00006   -0.00169   -0.00228
SE2   5    1.224969    1.168550    0.487843    11.00000    0.02464    0.01547 =
         0.00894    0.00014   -0.00122   -0.00389
SE3   5    0.906709    0.624735    0.221733    11.00000    0.01645    0.01043 =
         0.01239   -0.00259    0.00026   -0.00218
CU1   1    1.000000    0.500000    0.500000    10.50000    0.01325    0.01476 =
         0.00933   -0.00173   -0.00178   -0.00434
CU2   1    0.706934    0.443202    0.046273    11.00000    0.01373    0.01097 =
         0.01436    0.00045   -0.00469   -0.00315
CU3   1    0.564549    0.423378    0.385175    11.00000    0.01560    0.01923 =
         0.00884   -0.00012   -0.00186   -0.00788
O1    3    1.521237    0.865817    0.304854    11.00000    0.01402    0.03234 =
         0.02188    0.00839   -0.00537   -0.00391
O2    3    1.002676    0.965584    0.196008    11.00000    0.01917    0.02384 =
         0.02487    0.00427   -0.00764   -0.00019
O3    3    1.445664    0.864830    0.062958    11.00000    0.01777    0.01425 =
         0.00608   -0.00067   -0.00218   -0.00398
O4    3    1.160022    0.737916   -0.058240    11.00000    0.01900    0.00875 =
         0.01768    0.00185   -0.00490   -0.00546
O5    3    1.519945    0.886839   -0.162319    11.00000    0.01087    0.01613 =
         0.01351   -0.00254    0.00180   -0.00554
O6    3    1.158097    1.100608    0.369594    11.00000    0.03388    0.01746 =
         0.01429   -0.00820    0.00035   -0.00728
O7    3    1.243389    1.329935    0.443751    11.00000    0.03058    0.01719 =
         0.02171    0.00198    0.00984   -0.00336
O8    3    0.955688    1.168838    0.573912    11.00000    0.03058    0.01719 =
         0.02171    0.00198    0.00984   -0.00336
O9    3    1.176615    0.690710    0.222729    11.00000    0.02187    0.01134 =
         0.01597   -0.00421   -0.00129   -0.00217
O10   3    0.888613    0.513235    0.333135    11.00000    0.02176    0.02767 =
         0.00962    0.00169    0.00104   -0.01450
O11   3    0.980888    0.515049    0.114992    11.00000    0.01245    0.01128 =
         0.00955   -0.00659    0.00332    0.00081
O12   3    0.695309    0.409477    0.525643    11.00000    0.02408    0.01223 =
         0.01169    0.00218   -0.00507   -0.00598
H12   2    0.740614    0.320881    0.537567    11.00000   -1.50000
O13   3    0.471086    0.456546    0.238409    11.00000    0.02158    0.01812 =
         0.01004   -0.00382    0.00052   -0.00077
H13   2    0.344683    0.518995    0.244147    11.00000   -1.50000
O14   3    0.405936    0.383763    0.006677    11.00000    0.01615    0.00681 =
         0.01280   -0.00041    0.00024   -0.00171
H14   2    0.426935    0.295391   -0.019753    11.00000   -1.50000
O15   3    0.701545    0.202784    0.342200    11.00000    0.03561    0.04813 =
         0.02773   -0.01623   -0.00175   -0.00447
AFIX   7
H15A  2    0.673590    0.178747    0.274486    11.00000   -1.50000
H15B  2    0.861204    0.197162    0.333457    11.00000   -1.50000
AFIX   0
HKLF 4




REM  Demesmaekerite_SN_303K in P-1
REM wR2 = 0.0716, GooF = S = 1.020, Restrained GooF = 1.020 for all data
REM R1 = 0.0342 for 2584 Fo > 4sig(Fo) and 0.0454 for all 3073 data
REM 209 parameters refined using 5 restraints

END

WGHT      0.0235      0.0000

REM Instructions for potential hydrogen bonds
HTAB O12 Se2_$1
HTAB O12 O8_$1
HTAB O13 Se3_$2
HTAB O13 O9_$2
HTAB O13 O10_$2
HTAB O14 Se1_$3
HTAB O14 O3_$3
HTAB O15 Se1_$3
HTAB O15 O5_$3
HTAB O15 Se2_$1
HTAB O15 O6_$1

REM Highest difference peak  2.227,  deepest hole -1.936,  1-sigma level  0.365
Q1    1   1.3321  0.8819  0.3000  11.00000  0.05    2.23
Q2    1   1.0665  1.1716  0.4679  11.00000  0.05    1.70
Q3    1   1.1825  0.9572  0.2009  11.00000  0.05    1.54
Q4    1   0.1413  0.2486  0.1463  11.00000  0.05    1.50
;
_shelx_res_checksum              11718
_shelx_hkl_file
;
   0   0   2 53927.8 1612.92   1
   0   0  -3 39567.7 1640.20   4
   0   0   3 40743.2 1412.08   1
   0   0  -4 226754. 6598.34   4
   0   0  -4 229357. 5846.19   3
   0   0   4 236049. 6205.98   1
   0   0   5 57994.3 2052.20   1
   0   0  -5 56464.9 2404.36   4
   0   0  -6 5575.94 404.314   3
   0   0  -6 7057.69 848.657   4
   0   0   6 6432.80 625.665   1
   0   0  -7 134597. 4926.62   4
   0   0  -7 129375. 3590.17   3
   0   0   7 133248. 4279.44   1
   0   0   8 4571.45 633.342   1
   0   0  -8 3854.74 735.604   4
   0   0  -9 26657.0 2080.88   4
   0   0 -10 2224.29 674.482   4
   0   0 -11 7947.47 1293.99   4
   0   0 -12 139.907 425.468   4
   0   0 -13 23179.4 2413.81   4
   0   0 -14 16894.9 2149.68   4
   0   0 -15 928.068 847.857   4
   0   1 -15-15.4726 577.204   4
   0   1 -14 48445.4 3717.70   4
   0   1 -13 9368.98 1576.17   4
   0   1 -12 45084.9 3265.32   4
   0   1 -11 42203.0 3000.15   4
   0   1 -10 114992. 5149.69   4
   0   1  -9 33282.3 1548.78   3
   0   1  -9 37831.8 2508.95   4
   0   1  -8 15990.3 996.742   3
   0   1  -8 16614.8 1498.62   4
   0   1  -7 166448. 5023.39   3
   0   1  -7 183534. 6017.43   4
   0   1  -6 2040.75 401.410   1
   0   1  -6 1927.98 326.687   3
   0   1  -6 1938.43 453.568   4
   0   1  -5 79397.6 2714.23   3
   0   1  -5 84457.7 2884.99   1
   0   1  -5 84718.0 3183.48   4
   0   1  -4 2620.61 326.889   3
   0   1  -4 2456.97 410.685   4
   0  -1   4 2642.46 262.703   3
   0   1  -3 90467.5 3045.65   4
   0  -1   3 99328.6 2724.53   3
   0   1  -3 95131.2 2867.96   3
   0  -1   2 296.261 118.048   3
   0   1  -2 462.577 143.597   4
   0  -1  -2 58638.5 1874.84   4
   0  -1  -3 25352.1 1198.97   4
   0  -1  -4 69767.6 2599.50   4
   0  -1  -5 2390.29 469.697   4
   0   1   6 131154. 4164.90   1
   0  -1  -6 136694. 4718.75   4
   0  -1  -7 39100.1 2271.71   4
   0   1   7 37443.9 1814.58   1
   0  -1  -8 10619.8 1202.14   4
   0   1   8 9262.35 884.732   1
   0   1   9 2795.01 532.111   1
   0  -1  -9 4776.16 895.132   4
   0  -1 -10 8909.07 1285.33   4
   0  -1 -11 24254.4 2211.74   4
   0  -1 -12 12345.1 1665.79   4
   0  -1 -13 1146.60 694.280   4
   0  -1 -14 1834.29 869.956   4
   0  -1 -15 513.813 651.407   4
   0   2 -15 17007.2 2248.91   4
   0   2 -14 3852.38 1125.94   4
   0   2 -13 2692.03 913.325   4
   0   2 -12 7066.90 1288.67   4
   0   2 -11 74.8553 402.952   4
   0   2 -10 4378.25 601.777   3
   0   2 -10 8094.33 1159.50   4
   0   2  -9 1684.51 561.313   4
   0   2  -9 553.863 246.610   3
   0   2  -8 14921.5 1401.57   4
   0   2  -8 11644.0 1014.92   3
   0   2  -8 13441.3 1158.14   1
   0   2  -7 35757.6 1887.50   3
   0  -2   7 42544.4 2240.05   4
   0   2  -7 43061.6 2329.48   4
   0   2  -6 59426.1 2663.28   4
   0   2  -6 53177.8 2327.89   3
   0  -2   6 57569.8 2063.81   3
   0  -2   5 41997.7 1659.00   3
   0   2  -5 42743.6 2038.49   4
   0   2  -5 41084.0 1892.89   3
   0   2  -4 19733.8 1159.04   3
   0  -2   4 19720.7 865.556   2
   0   2  -4 17783.3 1126.74   4
   0  -2   4 19724.6 1020.60   3
   0   2  -3 143494. 4550.15   3
   0   2  -3 153688. 4474.88   4
   0  -2   3 153885. 4167.04   2
   0  -2   3 160715. 4488.90   3
   0   2  -2 2156.82 259.109   2
   0  -2   2 1998.78 250.639   2
   0  -2   2 2046.04 316.426   3
   0   2  -2 1902.36 258.789   4
   0  -2   1 92352.2 2895.25   3
   0   2  -1 89411.5 2458.21   4
   0  -2   1 91360.7 2779.83   2
   0  -2   0 9989.20 671.269   3
   0  -2   0 9298.60 650.358   2
   0  -2  -1 89236.3 2322.11   4
   0   2   1 91327.6 2456.47   5
   0   2   1 86069.3 2339.80   4
   0  -2  -1 92842.4 2454.15   5
   0  -2  -1 85461.9 2740.44   3
   0   2   2 290.139 103.892   3
   0  -2  -2 231.450 109.018   4
   0   2   2 252.045 96.6953   4
   0  -2  -2 499.325 157.426   3
   0  -2  -2 331.572 141.865   5
   0  -2  -3 455.291 145.680   3
   0  -2  -3 667.149 185.408   4
   0   2   3 513.963 165.082   4
   0  -2  -4 415.732 204.819   4
   0   2   4 865.659 242.567   4
   0  -2  -4 416.169 126.135   3
   0   2   5 675.555 214.135   4
   0  -2  -5 567.367 242.195   4
   0  -2  -5 576.985 121.129   3
   0  -2  -6 11812.7 1071.74   4
   0   2   6 11864.3 983.742   4
   0  -2  -7 10712.1 1119.15   4
   0   2   7 10750.3 1009.81   4
   0  -2  -8 110169. 4455.31   4
   0   2   8 103262. 3816.75   1
   0  -2  -9 10668.1 1277.48   4
   0   2   9 10143.8 1002.88   1
   0  -2 -10 75968.3 3937.10   4
   0  -2 -11 26335.1 2299.71   4
   0  -2 -12 47903.9 3338.79   4
   0  -2 -13 20946.0 2249.29   4
   0  -2 -14 18162.1 2195.26   4
   0  -2 -15 54678.5 4561.71   5
   0  -2 -15 57644.8 4187.83   4
   0   3 -15 17987.3 2274.88   4
   0   3 -14 2285.01 865.849   4
   0   3 -13 17246.9 2021.26   4
   0   3 -12 26052.7 2376.37   4
   0   3 -11 78058.5 4146.96   4
   0  -3  10 12078.1 866.251   2
   0   3 -10 13326.4 1352.76   1
   0   3 -10 12552.8 1245.18   3
   0   3 -10 13984.3 1534.67   4
   0   3  -9 18663.8 1671.38   4
   0  -3   9 17766.4 1016.55   2
   0   3  -9 15658.4 1389.75   1
   0   3  -8 154.404 291.382   1
   0   3  -8 106.403 322.401   4
   0   3  -8 153.967 235.715   3
   0  -3   8 492.646 200.983   2
   0  -3   7 14692.7 1018.40   3
   0   3  -7 16808.9 1364.63   4
   0   3  -7 14874.2 1214.24   1
   0  -3   7 16692.6 1346.17   4
   0   3  -7 15207.4 1259.13   3
   0  -3   7 15043.9 906.471   2
   0   3  -6 7175.83 824.199   4
   0   3  -6 6641.94 792.109   3
   0  -3   6 6301.18 651.844   3
   0  -3   6 6605.40 568.250   2
   0  -3   5 42279.9 1892.45   3
   0   3  -5 41935.2 2095.17   3
   0   3  -5 46941.8 2074.58   4
   0  -3   5 40725.0 1660.44   2
   0  -3   5 43221.6 2036.52   4
   0  -3   4 30598.9 1354.12   2
   0  -3   4 32207.3 1578.17   4
   0  -3   4 32213.4 1612.28   3
   0   3  -4 34107.4 1581.13   4
   0   3  -4 32829.4 1731.28   3
   0   3  -3 80758.4 2626.16   2
   0  -3   3 74602.3 2587.42   2
   0   3  -3 77560.8 2969.37   3
   0  -3   3 80244.9 2680.51   4
   0   3  -3 81649.6 2639.70   4
   0  -3   3 81570.3 2937.75   3
   0   3  -2 215182. 5758.41   4
   0  -3   2 217397. 6360.67   3
   0  -3   2 217032. 6091.04   2
   0   3  -2 218200. 6159.03   2
   0  -3   2 226353. 5867.76   4
   0  -3   1 22945.8 1242.44   2
   0   3  -1 22073.4 776.743   4
   0  -3   1 23950.6 1315.59   3
   0   3  -1 21500.2 1185.92   2
   0  -3   1 21520.5 816.529   4
   0  -3   0 1692.39 341.917   3
   0   3   0 1144.82 173.182   5
   0  -3   0 1152.38 317.566   2
   0   3   1 207225. 5302.92   5
   0  -3  -1 206853. 5950.72   3
   0  -3  -1 203522. 5314.40   5
   0   3   2 101320. 3176.51   3
   0  -3  -2 98974.1 3344.22   3
   0  -3  -2 102141. 2829.71   4
   0   3   2 100982. 2858.18   4
   0  -3  -2 102940. 2977.86   5
   0  -3  -3 429739. 10957.5   5
   0   3   3 422294. 10750.2   4
   0  -3  -3 405135. 11017.9   3
   0  -3  -3 425306. 10770.1   4
   0   3   3 425005. 10809.8   3
   0  -3  -4 27837.5 1387.37   4
   0  -3  -4 28862.0 1359.71   3
   0   3   4 29475.0 1369.84   4
   0  -3  -4 30588.1 1542.87   5
   0   3   5 264758. 7382.48   4
   0  -3  -5 248621. 6995.16   3
   0  -3  -6 18223.1 878.359   3
   0   3   6 18837.0 1243.57   4
   0  -3  -6 21594.4 1431.47   4
   0  -3  -7 31621.6 1947.14   4
   0   3   7 33526.0 1840.35   4
   0  -3  -8 116406. 4615.37   4
   0   3   9 36351.0 2075.16   1
   0  -3  -9 41769.9 2568.94   4
   0  -3 -10 15223.4 1595.63   4
   0  -3 -11 977.353 519.310   4
   0  -3 -12 361.677 586.904   4
   0  -3 -13 16720.4 2159.18   5
   0  -3 -13 18857.5 2067.33   4
   0  -3 -14 3609.55 1219.03   5
   0  -3 -14 2116.22 860.616   4
   0  -3 -15 4942.45 1377.64   5
   0  -3 -15 5231.25 1303.38   4
   0   4 -15 3769.79 1091.26   4
   0   4 -14-79.6741 618.362   4
   0   4 -13 33353.1 2769.82   4
   0   4 -12 21254.0 2076.98   4
   0   4 -11 36101.5 2513.08   1
   0   4 -11 36659.7 2656.33   4
   0   4 -10 18571.4 1727.96   4
   0   4 -10 17434.3 1627.85   1
   0  -4  10 15907.6 1049.23   2
   0   4  -9 89058.7 3939.74   4
   0   4  -9 78549.6 3706.67   3
   0   4  -9 87770.1 3811.79   1
   0  -4   9 78702.7 2898.12   2
   0   4  -8 21619.3 1643.78   1
   0  -4   8 18207.4 1131.83   2
   0   4  -8 20656.1 1621.51   4
   0   4  -8 20917.3 1666.71   3
   0  -4   7 105859. 3799.93   3
   0   4  -7 110433. 4099.93   4
   0   4  -7 105157. 4053.32   1
   0   4  -7 108593. 4264.38   3
   0  -4   7 95967.5 3374.12   2
   0  -4   6 36979.4 1728.32   2
   0   4  -6 45463.3 2379.39   3
   0  -4   6 42589.5 2090.37   3
   0   4  -6 43869.4 2127.63   4
   0   4  -6 41879.3 2166.67   1
   0   4  -5 100220. 3436.93   4
   0  -4   5 89676.5 3176.98   2
   0  -4   5 98384.6 3523.86   4
   0   4  -5 101683. 3878.40   3
   0  -4   5 95395.3 3591.48   3
   0  -4   4 149799. 4636.75   4
   0  -4   4 147659. 4962.20   3
   0  -4   4 143163. 4543.49   2
   0   4  -4 159685. 5179.41   3
   0   4  -4 149169. 4507.93   4
   0   4  -3 677.503 259.720   2
   0  -4   3 481.729 217.530   2
   0  -4   3 646.238 219.188   4
   0   4  -3 948.363 346.133   3
   0  -4   3 434.622 307.636   3
   0   4  -3 285.973 152.321   4
   0   4  -2 55968.5 2438.36   2
   0   4  -2 57195.7 1811.48   4
   0  -4   2 58319.5 2564.43   3
   0  -4   2 56842.9 1908.79   4
   0  -4   2 54722.8 2344.57   2
   0  -4   1 11144.4 1005.01   3
   0   4  -1 10942.4 457.129   4
   0   4  -1 11463.1 834.822   5
   0   4  -1 9781.42 868.984   2
   0  -4   1 11518.3 977.351   2
   0  -4   1 11043.6 533.298   4
   0  -4   0 108414. 3899.25   2
   0   4   0 106929. 3078.46   5
   0  -4   0 110174. 3893.21   3
   0  -4  -1 1258.59 361.482   3
   0  -4  -1 1834.23 248.369   5
   0   4   1 1592.04 206.905   5
   0  -4  -2 7516.86 533.844   5
   0   4   2 8185.34 722.890   3
   0   4   2 7798.62 445.117   4
   0  -4  -2 7963.51 804.730   3
   0  -4  -3 9352.88 869.728   3
   0  -4  -3 8932.95 667.356   5
   0   4   3 10572.9 795.564   3
   0  -4  -3 9454.10 598.234   4
   0   4   3 9800.23 616.978   4
   0  -4  -4 604.732 212.144   4
   0  -4  -4 779.068 290.785   3
   0  -4  -4 511.492 236.494   5
   0   4   4 743.728 239.417   3
   0   4   4 588.847 194.741   4
   0  -4  -5 18254.7 1178.83   3
   0  -4  -5 19803.6 1211.53   4
   0   4   5 18939.1 1128.44   4
   0  -4  -5 19057.6 1294.57   5
   0  -4  -6 5479.57 757.808   5
   0   4   6 4611.27 587.316   4
   0  -4  -6 4791.84 547.195   3
   0  -4  -6 6235.29 740.009   4
   0  -4  -7 52617.7 2545.23   4
   0  -4  -7 47575.5 2630.71   5
   0  -4  -7 48695.4 1857.54   3
   0   4   7 53506.3 2382.26   4
   0  -4  -8 288.855 328.770   5
   0  -4  -8 178.011 325.231   4
   0  -4  -9 118379. 5212.15   5
   0  -4  -9 127269. 4972.26   4
   0  -4 -10 7604.50 1243.24   5
   0  -4 -10 8023.87 1154.83   4
   0  -4 -11 5690.61 1113.39   5
   0  -4 -11 5621.88 1022.26   4
   0  -4 -12 13728.6 1843.61   5
   0   4  12 15816.5 1440.51   2
   0  -4 -12 14368.8 1689.21   4
   0   4  13 13544.5 1374.77   2
   0  -4 -13 14120.9 1782.16   4
   0  -4 -13 12693.3 1853.93   5
   0  -4 -14 5400.68 1402.22   5
   0   4  14 7760.98 1105.13   2
   0  -4 -14 7813.10 1420.44   4
   0  -4 -15 1713.98 807.275   4
   0  -4 -15 869.975 759.515   5
   0   5 -15 3200.70 1015.96   4
   0   5 -14 44077.2 3277.66   4
   0   5 -13 3308.17 908.907   4
   0   5 -12 17638.1 1847.33   4
   0   5 -12 15127.1 1763.55   1
   0   5 -11 1410.30 587.793   4
   0   5 -11 1747.77 624.760   1
   0   5 -10 29069.9 2136.69   4
   0   5 -10 27013.4 2152.11   1
   0  -5   9-195.661 186.301   2
   0   5  -9-16.7531 324.004   1
   0   5  -9 246.097 337.768   4
   0  -5   8 7971.71 782.700   2
   0  -5   8 9498.46 1025.37   3
   0   5  -8 10032.8 1080.17   4
   0   5  -8 9771.78 1156.53   1
   0  -5   7 1706.44 443.137   3
   0   5  -7 2277.29 571.520   1
   0   5  -7 1952.72 478.785   4
   0  -5   7 2175.04 410.145   2
   0  -5   6 28480.5 1823.45   3
   0  -5   6 28246.5 1564.16   2
   0   5  -6 29918.6 1670.57   4
   0  -5   5 8456.02 824.528   2
   0  -5   5 10370.8 911.295   4
   0  -5   5 8199.89 959.705   3
   0   5  -5 8835.91 781.791   4
   0   5  -5 10028.5 1094.83   3
   0  -5   4 7422.53 699.332   4
   0   5  -4 7232.72 630.763   4
   0  -5   4 7599.49 789.641   2
   0  -5   4 7061.31 896.680   3
   0   5  -4 7525.42 813.985   2
   0   5  -4 7452.75 918.134   3
   0   5  -3 55889.6 1948.22   4
   0  -5   3 55627.6 2520.72   2
   0  -5   3 54299.7 2718.04   3
   0   5  -3 58917.0 2660.22   2
   0  -5   3 55531.4 2063.91   4
   0  -5   2 56283.2 2581.14   2
   0  -5   2 54284.1 1866.14   4
   0  -5   2 59959.0 2787.25   3
   0   5  -2 50315.1 2476.19   2
   0   5  -2 58276.6 1767.80   4
   0   5  -2 54348.9 2305.36   5
   0   5  -1 56963.2 2246.95   5
   0   5  -1 53256.4 2468.11   2
   0  -5   1 55368.8 2585.97   2
   0  -5   1 52318.6 2642.28   3
   0  -5   0 139149. 4889.05   3
   0   5   0 133600. 3784.36   5
   0  -5  -1 13951.4 1212.52   3
   0  -5  -1 14128.9 775.106   5
   0   5   1 12760.0 661.267   5
   0   5   2 96181.3 3370.03   3
   0   5   2 87817.4 2449.59   4
   0  -5  -2 90491.5 3614.13   3
   0  -5  -2 89312.0 2770.56   5
   0  -5  -3 668.431 322.551   3
   0   5   3 983.469 305.490   3
   0   5   3 795.415 171.382   4
   0  -5  -3 754.083 204.318   5
   0  -5  -4 70894.9 2420.10   4
   0  -5  -4 72298.8 2651.22   5
   0  -5  -4 76943.8 3160.66   3
   0   5   4 78810.7 2839.97   3
   0   5   4 72053.4 2456.75   4
   0  -5  -5 1851.21 342.480   4
   0   5   5 2418.08 512.341   2
   0  -5  -5 1839.84 438.953   3
   0   5   5 2406.64 373.515   4
   0  -5  -5 2195.84 431.500   5
   0   5   6 2012.36 481.884   2
   0  -5  -6 1882.72 420.985   4
   0  -5  -6 1894.59 464.257   5
   0   5   6 1473.44 327.235   4
   0  -5  -6 1478.43 397.735   3
   0   5   7 3583.72 558.900   4
   0  -5  -7 4421.85 741.128   5
   0   5   7 4390.68 693.539   2
   0  -5  -7 4254.15 648.683   4
   0  -5  -7 3494.21 529.557   3
   0  -5  -8 602.267 381.739   5
   0  -5  -8 646.589 192.421   3
   0  -5  -8 899.592 384.043   4
   0   5   8 885.675 440.129   2
   0  -5  -9 16506.4 1478.52   4
   0  -5  -9 13417.0 1473.27   5
   0   5   9 13768.6 1282.91   2
   0  -5 -10 530.104 415.813   4
   0   5  10 1341.68 493.177   2
   0  -5 -10 547.360 409.467   5
   0   5  11 7773.71 1038.18   2
   0  -5 -11 8002.02 1319.61   5
   0  -5 -11 8880.09 1239.70   4
   0  -5 -12 376.521 490.885   4
   0  -5 -12 435.495 544.499   5
   0   5  12 631.571 389.849   2
   0  -5 -13 75292.1 4156.15   4
   0   5  13 76911.6 3766.77   2
   0  -5 -13 68842.4 4531.24   5
   0  -5 -14 2816.61 900.744   4
   0  -5 -14 844.545 726.882   5
   0   5  14 1075.18 495.797   2
   0  -5 -15 5978.51 1440.61   5
   0   6 -14 53731.9 3552.04   4
   0   6 -13 388.284 515.073   4
   0   6 -13 29.7423 593.843   1
   0   6 -12 4136.42 979.288   1
   0   6 -12 3847.98 881.373   4
   0   6 -11 4562.23 1001.14   1
   0   6 -11 3710.12 786.030   4
   0   6 -10 67800.5 3785.82   1
   0   6 -10 75537.4 3573.65   4
   0   6  -9 11735.9 1424.91   1
   0   6  -9 15486.8 1381.00   4
   0  -6   8 29842.9 1753.82   2
   0  -6   8 27956.0 1976.01   3
   0   6  -8 29159.9 2150.96   1
   0   6  -8 32337.9 1925.61   4
   0  -6   7 48707.2 2673.04   3
   0   6  -7 48459.5 2740.54   1
   0  -6   7 47946.3 2358.15   2
   0   6  -7 50242.0 2366.91   4
   0  -6   6 1342.58 479.856   3
   0   6  -6 1025.36 339.073   4
   0  -6   6 1285.30 403.855   2
   0   6  -5 17315.0 1086.73   4
   0  -6   5 16291.9 1314.11   2
   0  -6   5 17159.1 1503.92   3
   0  -6   5 16967.4 1181.14   4
   0  -6   4 3413.75 470.632   4
   0   6  -4 2946.99 386.274   4
   0   6  -4 2682.63 553.594   2
   0  -6   4 3602.44 694.766   3
   0  -6   4 3800.27 647.836   2
   0   6  -3 58301.2 2889.55   2
   0  -6   3 58946.5 3035.63   3
   0   6  -3 55992.4 2563.70   5
   0  -6   3 58458.6 2126.38   4
   0  -6   3 59342.2 2801.36   2
   0   6  -3 59382.8 1970.99   4
   0  -6   2 3478.12 694.528   3
   0  -6   2 3223.08 635.002   2
   0   6  -2 3490.04 617.391   2
   0   6  -2 3403.77 279.250   4
   0   6  -2 3445.80 540.208   5
   0  -6   2 3408.26 336.402   4
   0  -6   1 116474. 4641.22   3
   0   6  -1 118548. 4383.76   2
   0   6  -1 116250. 3671.47   5
   0  -6   1 118031. 4512.65   2
   0   6   0 5911.61 461.202   5
   0  -6   0 5846.07 873.388   3
   0   6   0 5124.00 747.210   2
   0   6   1 17996.6 836.402   5
   0   6   1 21638.7 1471.88   3
   0  -6  -1 21941.6 1695.58   3
   0  -6  -2 80121.5 2578.31   5
   0  -6  -2 84248.5 3676.48   3
   0  -6  -3 102117. 3167.15   5
   0   6   3 94904.0 2781.14   4
   0  -6  -3 100090. 4099.02   3
   0   6   4 28529.0 1226.95   4
   0  -6  -4 28063.9 1421.11   5
   0   6   4 26833.7 1789.37   2
   0  -6  -4 27509.9 1879.22   3
   0   6   5 7108.89 899.125   2
   0  -6  -5 8546.70 992.880   3
   0  -6  -5 8297.93 784.405   5
   0   6   5 7315.24 633.445   4
   0   6   6 299660. 9299.56   2
   0  -6  -6 301631. 9220.13   3
   0   6   6 304490. 8523.81   4
   0  -6  -7 988.335 346.094   4
   0  -6  -7 743.365 316.626   3
   0   6   7 715.404 365.884   2
   0  -6  -7 809.216 370.743   5
   0   6   7 684.838 229.553   4
   0  -6  -8 35261.9 1991.62   4
   0  -6  -8 29424.3 1713.25   3
   0   6   8 32208.5 2103.90   2
   0  -6  -9 893.840 354.728   4
   0   6   9 1004.09 455.335   2
   0  -6  -9 1468.84 558.060   5
   0  -6 -10 80769.2 3696.35   4
   0  -6 -10 86971.0 4327.69   5
   0   6  10 74097.3 3640.27   2
   0  -6 -11 4915.95 925.094   4
   0   6  11 5301.10 934.370   2
   0  -6 -11 5290.85 1069.11   5
   0  -6 -12 2868.89 909.856   5
   0   6  12 1833.16 621.995   2
   0  -6 -13 25154.8 2562.40   5
   0   6  13 19849.4 1867.59   2
   0   6  14 7683.88 1188.08   2
   0  -6 -14 10053.5 1699.53   5
   0  -6 -15 1283.15 899.655   5
   0   7 -14 2199.61 923.045   1
   0   7 -14 2157.52 782.682   4
   0   7 -13 1545.23 681.917   1
   0   7 -13 2670.90 806.946   4
   0   7 -12 12235.5 1453.07   4
   0   7 -12 12725.6 1751.02   1
   0   7 -11 912.939 639.038   1
   0   7 -11 1305.22 496.514   4
   0   7 -10 8261.27 1060.27   4
   0   7 -10 6560.98 1205.03   1
   0   7  -9 13443.4 1606.43   1
   0   7  -9 13909.4 1281.12   4
   0   7  -8 98249.0 3742.41   4
   0   7  -8 93732.3 4430.85   1
   0  -7   8 88332.2 4166.18   3
   0  -7   7 1779.12 478.161   2
   0  -7   7 2455.11 627.043   3
   0   7  -7 2801.90 500.750   4
   0   7  -6 35516.8 1741.67   4
   0  -7   6 34643.9 2378.55   3
   0  -7   6 34902.2 2109.53   2
   0   7  -5 34692.1 1598.52   4
   0   7  -5 36789.5 2285.72   2
   0  -7   5 35752.6 2383.31   3
   0  -7   5 33786.6 1765.02   4
   0  -7   5 36261.2 2164.80   2
   0  -7   4 124412. 3961.55   4
   0   7  -4 122059. 4617.62   5
   0   7  -4 119115. 4872.61   2
   0   7  -4 127652. 3743.74   4
   0  -7   4 126271. 4803.80   2
   0  -7   4 124978. 5094.30   3
   0   7  -3 47089.7 2656.14   2
   0  -7   3 50124.2 2887.27   3
   0   7  -3 48451.4 1648.30   4
   0  -7   3 49217.4 1819.22   4
   0   7  -3 48898.9 2384.20   5
   0   7  -2 71575.2 2873.98   5
   0  -7   2 69271.1 3523.66   3
   0   7  -2 68895.4 3258.52   2
   0  -7   1 75054.8 3648.13   3
   0   7  -1 70586.3 2492.40   5
   0  -7   0 119.307 259.258   3
   0   7   0 224.178 119.279   5
   0   7   0 254.399 258.750   2
   0  -7  -1 34898.2 2337.97   3
   0   7   1 33984.4 1248.81   5
   0   7   1 37687.7 2195.44   2
   0  -7  -2 16339.0 898.409   5
   0  -7  -2 16689.0 1569.58   3
   0   7   2 15316.4 1375.05   2
   0   7   3 50408.4 1542.08   4
   0  -7  -3 53438.8 2928.06   3
   0  -7  -3 52463.3 1930.70   5
   0   7   3 56916.3 2822.05   2
   0  -7  -4 688.248 395.427   3
   0  -7  -4 321.320 191.027   5
   0   7   4 572.234 326.228   3
   0   7   4 558.725 146.549   4
   0   7   4 612.002 373.553   2
   0  -7  -5-134.291 272.545   3
   0   7   5 216.551 140.038   4
   0  -7  -5 350.772 215.292   5
   0   7   5 158.773 290.210   2
   0   7   6 8505.05 1067.39   2
   0  -7  -6 8505.07 868.479   5
   0  -7  -6 8172.21 1045.52   3
   0   7   6 5873.64 611.913   4
   0  -7  -7 2565.61 585.161   3
   0   7   7 2136.67 562.309   2
   0   7   7 2658.36 453.576   4
   0  -7  -7 3186.14 609.710   5
   0  -7  -8 3317.34 626.936   3
   0   7   8 4860.93 846.549   2
   0  -7  -8 5383.26 835.629   5
   0   7   9 7673.85 1083.07   2
   0  -7  -9 8590.48 1133.79   5
   0  -7 -10 27820.0 2231.67   5
   0   7  10 21325.0 1885.64   2
   0   7  11 1194.79 505.403   2
   0  -7 -11 336.246 453.347   5
   0  -7 -12 38827.4 3026.93   5
   0   7  12 30157.6 2361.14   2
   0   7  13 4853.72 991.262   2
   0  -7 -13 7489.14 1503.53   5
   0   7  14 10239.6 1409.90   2
   0  -7 -14 10867.2 1801.32   5
   0  -7 -15 1201.87 801.761   5
   0   8 -13 46128.8 3680.38   1
   0   8 -12-1044.21 661.044   1
   0   8 -12 578.401 513.430   4
   0   8 -11 20920.8 1737.39   4
   0   8 -11 20921.1 2257.34   1
   0   8 -10 12417.0 1668.64   1
   0   8 -10 10623.3 1168.82   4
   0   8  -9 21530.0 1579.07   4
   0   8  -9 23999.1 2231.76   1
   0  -8   8 392.584 396.045   3
   0   8  -8-411.903 306.044   4
   0   8  -8 63.9984 459.275   1
   0  -8   7 12320.0 1475.13   3
   0   8  -7 12904.3 1028.74   4
   0  -8   6 862.057 496.236   3
   0   8  -6 1712.49 378.965   4
   0   8  -5 2538.23 622.875   5
   0  -8   5 1968.54 673.412   3
   0   8  -5 1382.87 455.582   2
   0   8  -5 1968.97 337.807   4
   0  -8   5 1836.04 369.753   4
   0  -8   4 8169.12 664.956   4
   0   8  -4 8847.62 1182.33   2
   0   8  -4 7510.44 945.980   5
   0  -8   4 9605.59 1272.34   3
   0   8  -3 1931.35 599.090   2
   0  -8   3 1709.60 665.778   3
   0   8  -3 1073.78 306.770   5
   0  -8   2 8848.39 1248.79   3
   0   8  -2 7997.33 1056.99   2
   0   8  -2 7967.31 724.509   5
   0  -8   1 27576.9 2178.69   3
   0   8  -1 24619.5 1161.95   5
   0   8  -1 26143.4 1905.35   2
   0  -8   0 34481.7 2462.76   3
   0   8   0 37244.5 2262.82   2
   0   8   0 32336.1 1220.55   5
   0   8   1 9665.30 1141.15   2
   0  -8  -1 11693.5 1413.33   3
   0   8   2 31121.3 2084.73   2
   0  -8  -2 29010.9 2245.63   3
   0  -8  -3 61270.9 2167.72   5
   0  -8  -3 60111.0 3387.68   3
   0   8   3 59317.2 3067.06   2
   0  -8  -4 152.277 163.121   5
   0   8   4 477.641 439.741   2
   0  -8  -4-108.180 378.313   3
   0   8   4 108.566 101.539   4
   0  -8  -5 32826.8 1533.83   5
   0  -8  -5 31311.6 2237.37   3
   0   8   5 30790.4 2122.97   2
   0   8   6 2759.88 698.282   2
   0   8   6 2480.93 379.489   4
   0  -8  -6 2580.57 631.419   3
   0  -8  -6 3308.72 546.179   5
   0   8   7 36977.3 2483.75   2
   0  -8  -7 30784.8 2225.91   3
   0  -8  -8 1368.35 444.109   5
   0  -8  -8 1046.54 481.451   3
   0   8   8 733.515 477.212   2
   0  -8  -9 2217.70 606.962   5
   0   8   9 1517.94 592.218   2
   0  -8 -10 586.947 428.242   5
   0   8  10 295.544 426.364   2
   0  -8 -11 3221.30 815.718   5
   0   8  11 3062.31 822.669   2
   0   8  12 1465.28 675.466   2
   0  -8 -12 659.549 548.007   5
   0   8  13 2682.83 755.625   2
   0   8  14 11750.6 1573.37   2
   0   9 -11 33471.6 3035.12   1
   0   9 -10 4427.88 1098.35   1
   0   9  -9 22142.3 2284.37   1
   0  -9   8 2684.30 773.535   3
   0   9  -8 2821.97 807.828   1
   0  -9   7 26366.5 2297.41   3
   0  -9   6 42407.2 2931.15   3
   0   9  -5 62825.3 3554.04   2
   0  -9   5 60068.6 3611.30   3
   0  -9   4 6182.04 1091.57   3
   0   9  -4 4890.39 759.734   5
   0   9  -4 6838.07 1083.79   2
   0   9  -3 260.964 210.036   5
   0  -9   3 636.487 495.339   3
   0   9  -3 1512.41 559.526   2
   0   9  -2 3905.44 820.571   2
   0  -9   2 3605.89 872.417   3
   0   9  -2 2428.67 367.262   5
   0   9  -1 11630.0 1299.22   2
   0   9  -1 9997.34 633.027   5
   0  -9   1 10879.2 1443.89   3
   0   9   0 1462.73 174.441   5
   0   9   0 2357.23 602.085   2
   0  -9   0 1402.92 628.257   3
   0   9   1 37508.7 2388.97   2
   0  -9  -1 37268.1 2696.41   3
   0  -9  -2 3475.22 840.069   3
   0   9   2 3156.83 728.608   2
   0   9   3 42619.6 2617.32   2
   0  -9  -3 43104.8 2925.09   3
   0  -9  -4 38354.1 2765.69   3
   0  -9  -4 39285.7 1631.73   5
   0   9   4 40407.7 2555.18   2
   0  -9  -5 4615.17 915.825   3
   0   9   5 5366.24 946.523   2
   0  -9  -5 4920.95 546.457   5
   0  -9  -6 11525.1 1403.46   3
   0  -9  -6 11491.4 899.526   5
   0   9   6 10378.8 1305.40   2
   0   9   7 33711.3 2435.77   2
   0  -9  -7 30973.5 2341.09   3
   0  -9  -7 37455.2 1901.53   5
   0  -9  -8 30360.1 2262.26   3
   0   9   8 34052.3 2466.13   2
   0  -9  -8 34080.4 1970.83   5
   0   9   9 65784.4 3657.18   2
   0   9  10 10642.6 1428.59   2
   0   9  11 45230.3 3061.99   2
   0   9  12 4138.93 967.581   2
   0   9  13 19873.9 2044.49   2
   0  10 -10 518.948 737.742   1
   0  10  -9 362.560 525.496   1
   0 -10   8 332.326 495.500   3
   0  10  -8 775.585 533.802   1
   0 -10   7 14033.0 1772.90   3
   0 -10   6 19032.0 2045.85   3
   0  10  -5 42068.8 2903.83   2
   0 -10   5 39870.2 2971.09   3
   0  10  -4-1079.19 550.465   2
   0 -10   4 469.658 433.525   3
   0  10  -3 42654.5 2769.26   2
   0 -10   3 35883.5 2803.05   3
   0 -10   2 7562.49 1269.44   3
   0  10  -2 10072.6 1275.13   2
   0  10  -1 78802.1 3850.13   2
   0 -10   1 78779.5 4316.60   3
   0 -10   0 27872.6 2441.37   3
   0  10   0 31702.8 2251.25   2
   0 -10  -1 50329.1 3413.41   3
   0  10   1 58539.7 3163.34   2
   0 -10  -2 33727.1 2694.70   3
   0  10   2 37632.9 2481.80   2
   0 -10  -3 1729.23 703.866   3
   0  10   3 2167.23 657.308   2
   0  10   4 16528.1 1642.82   2
   0 -10  -4 13568.0 1651.13   3
   0  10   5 2495.21 662.968   2
   0 -10  -5 2888.62 847.828   3
   0  10   6 21962.4 1962.55   2
   0 -10  -6 20032.6 1987.02   3
   0  10   7 725.128 545.735   2
   0 -10  -7 1045.71 537.950   3
   0 -10  -8-82.9643 330.950   3
   0  10   8-146.546 490.707   2
   0  10   9 2015.45 686.258   2
   0  10  10 496.626 415.240   2
   0  10  11 6233.23 1152.14   2
   0  10  12 269.649 440.316   2
   0  11  -9 307.243 602.445   1
   0  11  -8 36311.3 3097.18   1
   0 -11   7 2167.48 816.855   3
   0 -11   6 12534.1 1751.10   3
   0  11  -5 260.156 440.543   2
   0 -11   5 1230.56 648.080   3
   0 -11   4 15513.7 1916.68   3
   0  11  -4 18125.7 1823.52   2
   0  11  -3 449.854 371.578   2
   0 -11   3 380.145 491.532   3
   0 -11   2 361.875 415.400   3
   0  11  -2-375.658 457.213   2
   0 -11   1 3120.50 971.146   3
   0  11  -1 3735.56 845.500   2
   0  11   0 2943.82 766.957   2
   0 -11   0 4024.77 1019.55   3
   0  11   1 3360.91 776.115   2
   0 -11  -1 2934.68 831.648   3
   0 -11  -2 6726.60 1253.10   3
   0  11   2 7861.37 1149.23   2
   0  11   3 21138.1 1921.58   2
   0 -11  -3 17693.8 2009.13   3
   0  11   4 17747.6 1783.11   2
   0 -11  -4 15862.6 1867.20   3
   0 -11  -5 10236.8 1539.16   3
   0  11   5 11385.3 1456.80   2
   0  11   6 27352.8 2271.00   2
   0 -11  -6 22645.6 2245.11   3
   0  11   7-195.477 503.332   2
   0 -11  -7-397.429 439.700   3
   0 -11  -8 7372.89 1218.07   3
   0  11   8 9940.63 1405.98   2
   0  11   9 49.1141 496.456   2
   0  11  10 23577.0 2266.74   2
   0 -12   7-19.7981 579.935   3
   0 -12   6 3968.72 1097.91   3
   0  12  -5-1397.10 646.526   2
   0 -12   5 531.695 661.321   3
   0  12  -4 49103.1 3216.86   2
   0 -12   4 49825.2 3628.51   3
   0 -12   3 4986.21 1195.71   3
   0  12  -3 7646.60 1224.52   2
   0 -12   2 3227.75 1008.58   3
   0  12  -2 4325.95 959.134   2
   0  12  -1 27886.0 2273.57   2
   0 -12   1 24736.2 2494.94   3
   0  12   0 8570.99 1260.75   2
   0 -12   0 6784.45 1341.89   3
   0  12   1 5881.25 1088.88   2
   0 -12  -1 5426.66 1190.61   3
   0 -12  -2 471.752 670.801   3
   0  12   2 40.9839 406.833   2
   0  12   3 18875.9 1855.66   2
   0 -12  -3 14153.7 1879.26   3
   0  12   4 3210.78 877.026   2
   0 -12  -4 1999.61 783.090   3
   0  12   5 21987.0 2063.69   2
   0 -12  -5 18700.4 2113.92   3
   0  12   6 3848.24 975.387   2
   0 -12  -6 2221.71 816.841   3
   0 -12  -7 1302.36 674.518   3
   0  12   7 996.786 618.003   2
   0  12   8 12975.3 1676.81   2
   0  13  -4 3648.58 896.070   2
   0 -13   4 4861.87 1244.26   3
   0  13  -3 5913.64 1090.66   2
   0 -13   3 4196.43 1179.32   3
   0 -13   2 36127.7 3155.24   3
   0  13  -2 35540.2 2694.71   2
   0  13  -1 650.965 646.280   2
   0 -13   1 830.458 616.228   3
   0 -13   0 14423.5 2025.21   3
   0  13   0 18651.3 1910.25   2
   0  13   1 1714.23 667.676   2
   0 -13  -1-242.274 492.929   3
   0 -13  -2 39400.2 3327.54   3
   0  13   2 45853.5 3073.64   2
   0  13   3 13063.3 1604.42   2
   0 -13  -3 13652.6 1920.91   3
   0  13   4 35027.5 2687.01   2
   0 -13  -4 28478.6 2785.90   3
   0 -13  -5 8572.99 1558.56   3
   0  13   5 11973.1 1577.90   2
   0 -13  -6 4517.43 1172.22   3
   0  14  -4-1247.89 767.221   2
   0  14  -3 15168.3 1816.76   2
   0  14  -2 1212.44 656.725   2
   0  14  -1 7418.71 1291.13   2
   0 -14  -3 2477.79 974.955   3
   0 -14  -4 479.191 711.244   3
   0 -14  -5 2787.53 951.397   3
  -1  14  -1-635.760 578.129   2
  -1  14  -2 5470.20 1108.11   2
  -1  14  -3 2008.94 780.697   2
  -1  14  -4 11968.4 1560.11   2
  -1  13   4 2754.73 876.997   2
  -1  13   3 7646.64 1277.18   2
  -1  13   2 6500.00 1190.64   2
  -1  13   1 16553.0 1775.36   2
  -1  13   0 3219.66 845.011   2
  -1  13  -1 13908.6 1593.76   2
  -1  13  -2 576.468 519.875   2
  -1  13  -3-999.521 502.361   2
  -1  13  -4 1616.80 650.006   2
  -1  13  -5-69.1142 716.690   2
  -1  12   7 3016.57 842.379   2
  -1  12   6 3429.25 913.694   2
  -1  12   5-153.401 476.803   2
  -1  12   4 2222.24 799.217   2
  -1  12   3 4669.82 1019.89   2
  -1  12   2 13147.2 1566.91   2
  -1  12   1 8223.95 1226.28   2
  -1  12   0 21436.6 1952.12   2
  -1  12  -1 64268.2 3525.99   2
  -1  12  -2 2314.47 685.104   2
  -1  12  -3 12311.7 1432.47   2
  -1  12  -4 563.020 465.165   2
  -1  12  -5 67985.0 3708.99   2
  -1  12  -6 1634.82 783.562   1
  -1  12  -6 587.789 464.827   2
  -1  12  -7 6377.44 1359.28   1
  -1  11   9 39000.6 3060.42   2
  -1  11   8 1551.08 796.494   2
  -1  11   7 21858.7 2178.08   2
  -1  11   6 46619.4 3172.56   2
  -1  11   5 29644.1 2417.78   2
  -1  11   4 5207.99 999.334   2
  -1  11   3 3034.37 839.446   2
  -1  11   2 36158.9 2583.98   2
   1 -11  -1-555.043 576.008   3
  -1  11   1 314.456 462.432   2
  -1  11   0 2534.26 754.770   2
   1 -11   0 1380.14 721.126   3
  -1  11  -1-98.0723 333.743   2
   1 -11   1-644.110 529.021   3
  -1  11  -2 5179.37 929.277   2
  -1  11  -3 13657.8 1474.19   2
  -1  11  -4 6288.25 1064.66   2
  -1  11  -5 507.409 452.197   2
  -1  11  -6 892.062 422.911   2
  -1  11  -7 27275.3 2570.51   1
  -1  11  -8 353.980 483.764   1
  -1  11  -9 16633.0 2147.14   1
  -1  10  11 4455.55 1017.73   2
  -1  10  10 4405.37 1034.90   2
  -1  10   9 3582.06 926.018   2
  -1  10   8 3044.06 850.027   2
  -1  10   7 310.534 445.778   2
  -1  10   6 1001.57 560.083   2
  -1  10   5 6586.46 1103.79   2
  -1  10   4 2132.31 686.190   2
  -1  10   3 13323.4 1503.43   2
   1 -10  -3 15027.0 1218.12   5
  -1  10   2 50104.4 2927.40   2
   1 -10  -2 41893.8 3136.85   3
  -1  10   1 11240.7 1328.32   2
   1 -10  -1 8239.29 1359.77   3
  -1  10   0 10298.5 1238.83   2
   1 -10   0 8444.93 1414.10   3
   1 -10   1 5573.41 1171.83   3
  -1  10  -1 7031.49 1027.26   2
   1 -10   2 51161.7 3473.05   3
  -1  10  -2 53947.1 2934.71   2
   1 -10   3 1108.54 559.717   3
  -1  10  -3 1886.04 575.351   2
  -1  10  -4 9662.66 1208.74   2
  -1  10  -5 1779.97 600.352   2
  -1  10  -6 11701.6 1437.00   2
  -1  10  -7 1856.24 704.513   1
  -1  10  -8 1368.83 647.229   1
  -1  10  -9 12.6111 427.669   1
  -1  10 -10 4314.69 1167.33   1
  -1   9  12 35397.1 2877.16   2
  -1   9  11 737.301 582.790   2
  -1   9  10 11130.1 1517.15   2
   1  -9 -10 11904.6 1501.28   5
   1  -9  -9 6949.24 1079.39   5
  -1   9   9 5589.69 1069.02   2
   1  -9  -8 5127.58 893.795   5
  -1   9   8 3990.22 932.681   2
  -1   9   7 3060.80 755.043   2
   1  -9  -7 3991.81 721.740   5
  -1   9   6 20077.6 1861.54   2
   1  -9  -6 22922.7 1628.87   5
   1  -9  -5 16062.1 1278.81   5
  -1   9   5 14889.4 1590.12   2
   1  -9  -4 7759.33 862.352   5
  -1   9   4 7152.43 1085.41   2
  -1   9   3 7219.33 398.642   4
   1  -9  -3 7710.09 857.074   5
   1  -9  -3 6156.18 1116.20   3
  -1   9   3 7133.09 1060.40   2
  -1   9   2 1774.96 534.570   2
   1  -9  -2 2102.90 448.471   5
  -1   9   2 1346.56 351.662   5
   1  -9  -2 1769.31 606.346   3
   1  -9  -1 3080.30 842.149   3
  -1   9   1 5076.38 877.725   2
  -1   9   1 4559.09 572.994   5
  -1   9   0 460.833 232.830   5
   1  -9   0 1444.77 589.570   3
  -1   9   0 1134.56 531.503   2
  -1   9  -1 21270.3 1689.23   2
   1  -9   1 18942.5 1933.74   3
  -1   9  -1 19417.5 1297.67   5
  -1   9  -2 30692.0 1993.37   2
  -1   9  -2 28317.6 1626.07   5
   1  -9   2 29224.8 2374.47   3
  -1   9  -3 93880.6 3719.52   5
   1  -9   3 92973.5 4644.92   3
  -1   9  -3 87336.4 2625.72   4
   1  -9   4 66511.6 3876.56   3
  -1   9  -4 70244.3 2361.84   4
  -1   9  -5-101.273 176.187   4
  -1   9  -5 401.742 384.056   2
  -1   9  -6 33259.7 1647.88   4
  -1   9  -6 36489.6 2541.18   2
  -1   9  -7 19568.8 1948.75   1
  -1   9  -7 17565.5 1234.68   4
  -1   9  -8 91928.6 3597.11   4
  -1   9  -8 98961.9 4911.95   1
  -1   9  -9 18639.5 2074.97   1
  -1   9  -9 18199.7 1436.90   4
  -1   9 -10 38075.5 2294.04   4
  -1   9 -10 40881.5 3223.05   1
  -1   9 -11 228.301 396.866   4
  -1   9 -11 489.982 624.713   1
  -1   9 -12 499.639 402.472   4
  -1   8  13 1200.36 668.175   2
   1  -8 -13 2342.98 938.542   5
   1  -8 -12 3792.25 1000.80   5
  -1   8  12 3526.04 895.861   2
  -1   8  11 10083.2 1398.72   2
   1  -8 -11 10854.5 1599.37   5
   1  -8 -10 13717.0 1696.66   5
  -1   8  10 13343.5 1608.12   2
   1  -8  -9 1242.59 639.816   5
  -1   8   9 1387.49 590.311   2
   1  -8  -8 85030.6 4005.18   5
  -1   8   8 73405.2 3877.10   2
   1  -8  -7 19886.0 1686.94   5
  -1   8   7 20173.2 1817.12   2
   1  -8  -6 44484.7 2440.39   5
  -1   8   6 40963.4 1850.62   4
  -1   8   6 37008.8 2494.39   2
   1  -8  -5 32444.7 1958.90   5
  -1   8   5 30137.3 2171.08   2
  -1   8   5 30878.2 1443.17   4
   1  -8  -4 100968. 3457.55   5
  -1   8   4 95509.9 3934.02   2
  -1   8   3 30089.9 2095.71   2
   1  -8  -3 28809.7 2232.59   3
  -1   8   3 30455.3 1193.87   4
   1  -8  -3 30614.4 1775.81   5
   1  -8  -2 34150.8 2465.18   3
  -1   8   2 35314.8 1164.89   4
  -1   8   2 36502.5 2281.66   2
   1  -8  -2 40369.2 2050.03   5
  -1   8   1 45290.4 1327.95   4
  -1   8   1 40298.4 1996.46   5
   1  -8  -1 57546.0 3192.40   3
   1  -8  -1 63838.1 2593.42   5
  -1   8   1 57568.8 2843.52   2
  -1   8   1 47916.2 1354.44   4
   1  -8   0 42153.1 2735.92   3
  -1   8   0 50386.1 2561.75   2
  -1   8  -1 28913.2 940.081   4
   1  -8   1 30926.4 2313.06   3
   1  -8   2 6895.46 1136.95   3
  -1   8  -2 8651.91 1004.40   2
  -1   8  -2 7141.22 456.043   4
  -1   8  -2 5358.53 721.739   5
   1  -8   3 19077.0 1828.87   3
  -1   8  -3 20095.6 1563.89   5
  -1   8  -3 21471.8 1600.72   2
  -1   8  -3 19106.4 943.896   4
  -1   8  -4 7931.28 636.305   4
  -1   8  -4 8820.67 1121.81   5
  -1   8  -4 8487.05 1042.63   2
   1  -8   4 7107.29 1158.61   3
  -1   8  -5 3085.31 709.052   2
  -1   8  -5 1666.62 350.006   4
  -1   8  -6 2362.91 634.660   2
  -1   8  -6 3950.41 831.355   1
  -1   8  -6 3463.49 518.278   4
  -1   8  -7 191.095 275.221   4
  -1   8  -7 90.1872 383.979   1
  -1   8  -8 11485.0 1091.59   4
  -1   8  -8 14191.2 1641.52   1
  -1   8  -9 6374.79 876.257   4
  -1   8  -9 6701.33 1210.08   1
  -1   8 -10 19037.0 2054.02   1
  -1   8 -10 17867.4 1552.63   4
  -1   8 -11 5493.56 903.828   4
  -1   8 -11 5595.99 1177.56   1
  -1   8 -12 16783.0 1678.80   4
  -1   8 -12 16343.8 2065.67   1
  -1   8 -13 435.647 554.944   1
  -1   8 -13 11.4756 448.408   4
  -1   8 -14 28669.0 2430.04   4
   1  -7 -14 3497.69 1034.86   5
  -1   7  14 3479.66 862.021   2
   1  -7 -13 38880.5 3344.15   5
  -1   7  13 37720.0 2781.30   2
  -1   7  12 2717.96 797.527   2
   1  -7 -12 1021.16 550.406   5
  -1   7  11 25517.5 2161.32   2
   1  -7 -11 23078.0 2304.13   5
   1  -7 -10 341.408 489.370   5
   1  -7  -9 32872.0 2484.74   5
   1  -7  -8 20322.5 1844.85   5
   1  -7  -7 5969.49 926.919   5
  -1   7   6 1666.72 373.999   4
   1  -7  -6 1846.01 503.916   5
   1  -7  -5 15867.2 1332.18   5
  -1   7   5 16681.6 1229.47   3
  -1   7   4 11686.3 1199.96   2
   1  -7  -4 13098.0 1136.42   5
  -1   7   4 13971.1 1162.93   3
  -1   7   3 3966.84 401.562   4
  -1   7   3 4388.61 605.910   5
  -1   7   3 4949.41 775.733   2
   1  -7  -3 5110.71 701.442   5
   1  -7  -3 2800.79 644.734   3
  -1   7   2 11451.0 949.385   5
   1  -7  -2 8642.89 892.379   5
  -1   7   2 9065.67 1027.63   2
  -1   7   2 10474.8 583.548   4
   1  -7  -2 9138.72 1127.47   3
   1  -7  -1 10055.8 971.688   5
  -1   7   1 10115.0 1061.66   2
  -1   7   1 9844.57 860.482   5
  -1   7   1 9253.22 485.828   4
   1  -7  -1 8589.69 1139.32   3
  -1   7   0 33325.2 1701.91   5
  -1   7   0 29463.9 1071.71   4
   1  -7   0 32067.9 1800.50   5
  -1   7   0 31574.7 1936.83   2
  -1   7  -1 32998.7 1187.10   4
  -1   7  -1 34378.6 1825.24   5
  -1   7  -1 35942.4 2049.49   2
   1  -7   1 30305.1 2188.53   3
   1  -7   2 4138.73 833.503   3
  -1   7  -2 5266.69 734.622   5
  -1   7  -2 5129.38 751.178   2
  -1   7  -2 4920.08 411.632   4
  -1   7  -3 60072.2 2734.29   2
  -1   7  -3 54269.7 2876.61   5
  -1   7  -3 54490.4 1970.71   4
  -1   7  -4 42882.9 2635.46   5
  -1   7  -4 43567.3 2345.42   2
   1  -7   4 40251.5 2558.93   3
  -1   7  -4 41237.4 1763.84   4
  -1   7  -5 42522.0 2455.20   2
  -1   7  -5 41918.2 1911.67   4
  -1   7  -5 42041.6 2725.42   5
  -1   7  -6 11367.4 1143.79   2
  -1   7  -6 9661.28 1215.61   1
  -1   7  -6 11623.3 979.927   4
  -1   7  -7 22308.6 1888.34   1
  -1   7  -7 21974.8 1478.37   4
  -1   7  -8 186.249 371.144   1
  -1   7  -8 159.601 275.278   4
  -1   7  -9 4322.65 750.882   4
  -1   7  -9 4800.46 975.979   1
  -1   7 -10 412.741 393.016   4
  -1   7 -10 251.638 440.861   1
  -1   7 -11 19.4583 351.904   4
  -1   7 -11 280.549 512.333   1
  -1   7 -12 2067.01 680.297   4
  -1   7 -12 2043.71 751.435   1
  -1   7 -13 8144.44 1269.70   4
  -1   7 -13 11549.9 1739.39   1
  -1   7 -14 8765.10 1365.19   4
  -1   6  14 6665.47 1133.93   2
   1  -6 -14 8124.68 1619.41   5
   1  -6 -13 20738.2 2469.66   5
   1  -6 -12 3884.71 1066.47   5
   1  -6 -11 7795.03 1348.05   5
   1  -6 -10 3470.07 925.597   5
   1  -6  -9 95767.1 4580.07   5
   1  -6  -8 1424.80 574.721   5
   1  -6  -7 48814.1 2780.97   5
  -1   6   6 19029.5 1200.34   3
  -1   6   6 19564.8 1277.77   4
   1  -6  -6 19199.5 1551.35   5
  -1   6   5 4995.92 582.743   4
   1  -6  -5 4155.66 686.625   5
  -1   6   5 4166.64 568.806   3
  -1   6   4 6664.03 598.937   4
   1  -6  -4 6261.70 799.518   5
   1  -6  -3 33517.1 2002.79   3
  -1   6   3 31199.7 1335.91   4
  -1   6   3 34410.0 1798.68   5
   1  -6  -3 33653.6 1839.82   5
   1  -6  -2 87733.3 3327.23   5
   1  -6  -2 85057.7 3577.87   3
  -1   6   2 90584.1 3236.78   5
  -1   6   2 81229.3 2539.40   4
   1  -6  -1 6987.00 903.896   3
  -1   6   1 8121.32 871.163   3
  -1   6   1 8627.92 806.916   5
  -1   6   1 7567.25 860.531   2
   1  -6  -1 6736.20 778.784   5
   1  -6   0 53479.0 2788.76   3
  -1   6   0 56425.7 1888.42   4
  -1   6   0 55139.6 2574.14   2
   1  -6   0 56806.4 2600.86   5
  -1   6   0 62546.7 2507.33   5
  -1   6   0 63777.4 2787.53   3
  -1   6  -1 83.3370 109.489   4
  -1   6  -1 331.538 263.556   2
   1  -6   1 65.7937 244.164   3
  -1   6  -1 546.451 265.471   5
  -1   6  -2 1010.40 219.518   4
   1  -6   2 951.849 468.393   3
  -1   6  -2 607.503 283.539   2
  -1   6  -2 930.981 357.497   5
  -1   6  -3 1744.77 307.553   4
  -1   6  -3 1555.15 504.080   5
   1  -6   3 1503.67 470.929   3
  -1   6  -3 2480.96 496.365   2
  -1   6  -4 64600.8 3305.02   5
   1  -6   4 62649.9 3053.68   3
   1  -6   4 65088.1 2707.21   4
  -1   6  -4 63485.5 2810.10   2
  -1   6  -4 64665.0 2421.61   4
  -1   6  -5 4799.93 841.512   5
  -1   6  -5 5869.57 782.656   2
  -1   6  -5 5619.09 643.727   4
  -1   6  -6 70931.5 2889.22   2
  -1   6  -6 69402.6 3353.95   1
  -1   6  -6 74509.1 2974.52   4
  -1   6  -7 143918. 4975.23   4
  -1   6  -7 141104. 5460.04   1
  -1   6  -8 25135.6 2016.94   1
  -1   6  -8 26034.6 1763.27   4
  -1   6  -9 19763.5 1837.87   1
  -1   6  -9 19660.2 1600.27   4
  -1   6 -10 3809.04 876.429   1
  -1   6 -10 3385.92 717.367   4
  -1   6 -11 144106. 5696.38   4
  -1   6 -11 133078. 5970.37   1
  -1   6 -12 2240.73 717.280   4
  -1   6 -12 903.419 627.030   1
  -1   6 -13 20064.8 2028.10   4
  -1   6 -14 1780.99 748.830   4
  -1   6 -15 17672.6 2076.19   4
   1  -5 -15 1070.47 792.708   5
   1  -5 -14 3408.08 1078.70   5
   1  -5 -13 740.421 668.057   5
   1  -5 -12 11304.5 1741.80   5
   1  -5 -11 2389.11 852.038   5
   1  -5 -10 9675.60 1448.92   5
   1  -5  -9 7307.81 1175.63   5
   1  -5  -8-58.8067 302.003   5
   1  -5  -7 76633.0 3633.14   5
  -1   5   6 19447.9 1297.40   4
   1  -5  -6 18064.6 1504.16   5
  -1   5   6 18822.9 1071.45   3
   1  -5  -5 28721.3 1816.26   5
  -1   5   5 26521.3 1441.34   4
  -1   5   5 28680.0 1430.08   3
  -1   5   4 6630.47 610.749   4
   1  -5  -4 6134.06 763.107   5
  -1   5   4 8387.98 761.293   3
   1  -5  -3 204982. 6481.53   5
  -1   5   3 217317. 6541.37   5
  -1   5   3 210597. 5885.02   4
   1  -5  -2 2029.43 402.556   5
   1  -5  -2 1883.76 440.669   3
  -1   5   2 2061.41 418.593   5
  -1   5   2 2079.40 392.795   3
  -1   5   2 1956.15 271.923   4
  -1   5   1 70633.4 2730.10   5
   1  -5  -1 67375.9 2893.63   3
   1  -5  -1 70958.2 2856.41   5
   1  -5   0 161277. 5399.41   3
  -1   5   0 170355. 5174.60   5
   1  -5   0 162062. 5402.52   5
  -1   5   0 164845. 5200.28   2
  -1   5  -1 147097. 4191.00   4
  -1   5  -1 151632. 4929.59   5
   1  -5   1 155640. 5110.32   5
  -1   5  -1 144428. 4761.32   2
   1  -5   1 151228. 5061.06   3
   1  -5   2 7828.01 887.762   3
  -1   5  -2 9130.91 848.097   2
  -1   5  -2 8693.44 624.083   4
  -1   5  -2 10454.1 1131.05   5
  -1   5  -3 58937.3 2221.76   4
   1  -5   3 60258.2 2759.16   3
  -1   5  -3 66836.3 2637.08   2
  -1   5  -3 63012.5 3167.58   5
  -1   5  -4 121406. 3820.14   4
  -1   5  -4 122238. 4362.99   3
   1  -5   4 112725. 4007.43   4
  -1   5  -4 116662. 4688.47   5
  -1   5  -4 109327. 3955.05   2
   1  -5   5 543.422 250.250   4
  -1   5  -5 911.946 367.731   1
  -1   5  -5 1732.98 393.711   4
  -1   5  -5 1328.82 397.948   2
  -1   5  -6 2226.37 487.891   4
  -1   5  -6 2511.25 560.220   1
  -1   5  -7 441.521 310.790   4
  -1   5  -7 289.389 311.009   1
  -1   5  -8 22201.1 1821.12   1
  -1   5  -8 23615.9 1736.17   4
  -1   5  -9 8979.16 1118.90   4
  -1   5  -9 8090.17 1125.60   1
  -1   5 -10 3310.69 769.487   1
  -1   5 -10 3433.61 766.512   4
  -1   5 -11 13281.4 1591.17   1
  -1   5 -11 14020.4 1577.88   4
  -1   5 -12 6037.09 1097.36   4
  -1   5 -13 22553.0 2246.97   4
  -1   5 -14 654.477 537.427   4
  -1   5 -15 13197.5 1872.54   4
   1  -4 -15 13103.9 2215.78   5
   1  -4 -14 2604.87 1129.33   5
   1  -4 -13 27970.4 2945.05   5
   1  -4 -12 49384.5 3761.19   5
   1  -4 -11 8144.17 1425.79   5
   1  -4 -10 66581.7 3997.31   5
  -1   4  10 67255.4 2842.41   1
   1  -4  -9 14135.3 1641.30   5
  -1   4   9 13246.6 1067.46   1
   1  -4  -8 76914.5 3895.57   5
   1  -4  -7 2744.12 665.112   5
   1  -4  -6 52963.7 2742.70   5
  -1   4   6 53155.0 2339.19   4
  -1   4   6 50001.4 1799.70   3
  -1   4   5 21231.9 1066.70   3
   1  -4  -5 20642.4 1511.07   5
  -1   4   5 19831.7 1209.68   4
   1  -4  -4 29382.8 1732.45   5
  -1   4   4 32047.2 1452.53   3
  -1   4   4 30209.0 1445.48   4
  -1   4   3 960.585 204.054   4
  -1   4   3 1261.44 358.569   5
   1  -4  -3 1142.00 315.491   5
  -1   4   3 1394.64 292.914   3
  -1   4   2 58804.8 2416.48   5
   1  -4  -2 54820.2 2399.53   5
  -1   4   1 8431.62 755.569   5
   1  -4  -1 8296.66 788.319   5
  -1   4   1 8861.71 738.689   3
  -1   4   0 14208.6 1021.61   5
   1  -4   0 15946.3 1207.59   5
  -1   4  -1 117127. 3600.94   4
  -1   4  -1 121120. 4211.83   5
  -1   4  -2 3962.93 436.734   4
  -1   4  -2 4839.18 766.759   5
  -1   4  -2 4128.05 511.570   2
   1  -4   3 7044.32 723.249   4
  -1   4  -3 7586.73 692.654   2
  -1   4  -3 8110.73 984.894   5
  -1   4  -3 6724.48 623.682   4
  -1   4  -4 124545. 3945.40   4
  -1   4  -4 115438. 3814.05   2
  -1   4  -4 125115. 4202.41   3
   1  -4   4 112287. 4045.20   4
  -1   4  -5 41792.5 2097.03   3
   1  -4   5 37814.6 2042.16   4
  -1   4  -5 41269.5 1989.58   4
  -1   4  -5 39748.9 1624.11   2
  -1   4  -6 64563.4 2866.44   3
  -1   4  -6 64868.8 2875.78   4
  -1   4  -7 22563.7 1645.36   1
  -1   4  -7 25124.9 1690.83   3
  -1   4  -7 24608.4 1715.17   4
  -1   4  -8 116037. 4527.70   4
  -1   4  -8 107736. 4289.51   3
  -1   4  -9 1162.99 510.856   4
  -1   4  -9 841.326 422.568   1
  -1   4 -10 9689.16 1224.20   1
  -1   4 -10 9792.53 1264.68   4
  -1   4 -11 3286.79 827.992   4
  -1   4 -12 14590.2 1791.47   4
  -1   4 -13-221.858 565.009   4
  -1   4 -14 665.295 739.262   4
  -1   4 -15 1865.16 919.952   4
   1  -3 -15 11477.1 2099.23   5
   1  -3 -14 8269.57 1713.67   5
   1  -3 -13 1282.01 694.629   5
   1  -3 -12 852.708 561.349   5
   1  -3 -11 8288.60 1448.44   5
   1  -3 -10 35198.4 2845.52   5
  -1   3  10 33873.9 1814.97   1
  -1   3   9 2239.68 428.381   1
   1  -3  -9 967.324 497.163   5
   1  -3  -8 17228.0 1726.03   5
  -1   3   8 16044.3 1060.41   1
  -1   3   7 9180.46 745.347   1
   1  -3  -7 7624.06 1061.52   5
  -1   3   6 217369. 6357.72   4
   1  -3  -6 215898. 7019.54   5
  -1   3   6 202876. 5272.83   3
  -1   3   5 18134.9 844.902   3
  -1   3   5 17911.9 1139.52   4
   1  -3  -5 16512.1 1359.85   5
   1  -3  -4 107902. 4070.88   5
  -1   3   4 121001. 3398.58   3
  -1   3   4 110251. 3634.81   4
   1  -3  -3 2807.99 474.009   5
  -1   3   3 4364.50 573.604   5
  -1   3   3 3624.22 382.646   3
  -1   3   3 3653.28 412.394   4
  -1   3   2 5594.30 616.012   5
   1  -3  -2 5291.84 610.198   5
  -1   3   2 6283.82 515.252   3
  -1   3   1 138693. 4361.04   5
   1  -3  -1 134262. 4350.72   5
  -1   3   1 142736. 4062.25   3
  -1   3   0 67388.2 2568.63   5
   1  -3   0 67020.3 2675.14   5
   1  -3   1 108485. 4036.25   5
  -1   3  -1 106070. 3357.96   4
  -1   3  -1 102333. 3769.96   5
  -1   3  -2 72351.6 2548.92   4
  -1   3  -2 75178.9 2457.41   2
  -1   3  -3 4936.98 552.708   4
   1  -3   3 4944.32 601.560   4
  -1   3  -3 6232.29 796.283   5
  -1   3  -3 5879.44 505.126   2
  -1   3  -4 5114.96 592.494   4
  -1   3  -4 5249.62 587.960   3
   1  -3   4 4184.98 591.490   4
  -1   3  -4 4755.16 441.456   2
  -1   3  -5 16670.6 1205.76   4
   1  -3   5 16739.9 1295.86   4
  -1   3  -5 16642.2 1123.26   3
  -1   3  -6 44887.2 2102.22   3
  -1   3  -6 42240.9 2233.59   4
  -1   3  -7 35540.3 2027.59   1
   1  -3   7 35628.8 2245.56   4
  -1   3  -7 36954.9 2182.35   4
  -1   3  -7 36614.7 1936.72   3
  -1   3  -8 47186.1 2520.18   1
  -1   3  -8 49603.9 2757.94   4
  -1   3  -8 47197.6 2377.52   3
  -1   3  -9 97880.9 3979.64   3
  -1   3  -9 105499. 4548.90   4
  -1   3 -10 37342.8 2576.78   4
  -1   3 -10 33155.9 2146.58   3
  -1   3 -11 4471.58 930.074   4
  -1   3 -12 42964.4 3062.19   4
  -1   3 -13 43888.0 3250.29   4
  -1   3 -14 50898.6 3738.61   4
  -1   3 -15 12558.3 1920.41   4
   1  -2 -15 14106.0 2367.30   5
   1  -2 -14 19117.7 2654.56   5
   1  -2 -13 21125.7 2601.72   5
   1  -2 -12 8214.93 1536.20   5
   1  -2 -11 55644.6 3917.66   5
   1  -2 -10 13235.2 1534.40   4
   1  -2 -10 10831.6 1574.91   5
  -1   2   9 1116.93 294.476   1
   1  -2  -9 2046.19 646.612   4
   1  -2  -9 986.315 576.143   5
   1  -2  -8 17975.9 1789.37   5
   1  -2  -8 19899.2 1625.67   4
  -1   2   8 18244.1 1122.96   1
   1  -2  -7 2582.63 675.393   5
   1  -2  -7 2344.31 545.214   4
  -1   2   7 1858.50 323.809   1
  -1   2   6 1749.65 402.270   4
  -1   2   6 1631.86 281.019   1
   1  -2  -6 1298.99 434.770   5
  -1   2   5 114722. 3328.75   1
   1  -2  -5 112750. 4361.81   5
  -1   2   5 117487. 3031.14   3
  -1   2   5 106549. 3772.14   4
   1  -2  -4 26381.6 1631.69   5
  -1   2   4 26863.4 942.632   3
  -1   2   4 24649.7 1305.50   4
  -1   2   3 4760.29 476.258   4
  -1   2   3 4993.61 355.348   3
  -1   2   3 5798.06 653.055   5
   1  -2  -3 5331.28 636.917   5
   1  -2  -2 195580. 5737.78   5
   1  -2  -1 157326. 4750.26   5
   1  -2   0 190930. 5605.57   5
   1  -2   1 13064.7 1123.95   5
  -1   2  -1 12652.8 673.449   1
  -1   2  -2 216361. 6119.83   4
  -1   2  -3 16898.0 1039.78   4
  -1   2  -3 15868.7 700.479   2
   1  -2   4 76760.3 2686.37   1
  -1   2  -4 75877.8 2602.65   3
  -1   2  -4 75479.2 2858.88   4
  -1   2  -5 115521. 4031.50   4
   1  -2   5 113705. 3774.90   1
  -1   2  -5 114300. 3626.46   3
   1  -2   6 198239. 6059.53   1
  -1   2  -6 208269. 6531.72   4
  -1   2  -6 201107. 5849.13   3
  -1   2  -7 20921.2 1609.78   4
  -1   2  -7 20998.5 1266.55   3
   1  -2   7 19633.3 1588.14   4
  -1   2  -8 656.531 445.143   4
  -1   2  -8 652.840 292.990   3
  -1   2  -9 9446.25 1246.52   4
  -1   2  -9 10291.9 965.807   3
  -1   2 -10 13591.1 1214.49   3
  -1   2 -10 16021.7 1673.43   4
  -1   2 -11 8051.71 960.732   3
  -1   2 -11 8568.52 1271.15   4
  -1   2 -12 4724.70 1041.29   4
  -1   2 -13 181.066 512.361   4
  -1   2 -14 18367.6 2211.16   4
  -1   2 -15 2530.21 1018.63   4
   1  -1 -15 874.430 782.879   5
   1  -1 -14 15655.1 2421.80   5
   1  -1 -13 12215.2 2050.61   5
   1  -1 -12 27740.1 2941.51   5
   1  -1 -11 1041.54 625.102   5
   1  -1 -11 1588.64 686.108   4
   1  -1 -10 80891.8 4741.47   5
   1  -1 -10 87162.4 4286.80   4
   1  -1  -9 64937.3 4001.18   5
   1  -1  -9 70406.7 3605.78   4
   1  -1  -8 2808.31 751.376   5
   1  -1  -8 2491.54 623.167   4
   1  -1  -7 125658. 5265.47   5
   1  -1  -7 126176. 4753.24   4
   1  -1  -6 34316.8 2276.87   5
   1  -1  -6 39242.2 2064.05   4
   1  -1  -5 158184. 5558.96   5
  -1   1   5 157673. 4353.80   1
  -1   1   4 748.334 145.161   1
   1  -1  -4 430.761 255.732   5
   1  -1  -3 103234. 3653.24   5
   1  -1  -2 10959.0 823.545   5
   1  -1  -1 2511.08 375.279   5
   1  -1   0 1956.77 171.907   1
   1  -1   0 2083.59 337.835   5
   1  -1   1 140551. 4708.35   5
   1  -1   1 144143. 3830.58   1
   1  -1   2 33425.3 1293.29   1
  -1   1  -2 33986.3 1552.00   4
   1  -1   3 8044.06 598.405   1
  -1   1  -3 8732.65 743.925   4
  -1   1  -4 36162.8 1813.14   4
   1  -1   4 40858.4 1674.63   1
  -1   1  -5 371.967 185.734   4
   1  -1   5 356.932 202.794   1
   1  -1   6 40893.0 1938.37   1
  -1   1  -6 42155.9 1684.28   3
  -1   1  -6 41256.4 2221.35   4
   1  -1   7 66172.3 1906.82   2
  -1   1  -7 70542.8 2437.07   3
   1  -1   7 68542.5 2805.80   1
  -1   1  -7 69781.6 3265.01   4
  -1   1  -8 10779.7 1272.82   4
  -1   1  -8 11062.9 836.721   3
  -1   1  -9 66505.4 3554.62   4
   1  -1   9 66981.0 2075.22   2
  -1   1  -9 67322.8 2643.52   3
   1  -1  10 45495.9 1526.09   2
  -1   1 -10 44902.2 2933.89   4
   1  -1  11 58757.8 1948.24   2
  -1   1 -11 54560.8 2552.88   3
  -1   1 -11 58588.8 3578.52   4
  -1   1 -12 1618.55 646.287   4
  -1   1 -13 11649.3 1713.53   4
  -1   1 -14-172.326 607.300   4
  -1   1 -15 5518.50 1327.63   4
  -1   1 -16-115.837 652.969   4
   1   0 -15 4535.88 1454.32   5
   1   0 -14 225.121 758.178   5
   1   0 -13 9345.36 1877.31   5
   1   0 -12 13693.2 2147.02   5
   1   0 -12 20306.2 2126.94   4
   1   0 -11 1894.87 708.369   4
   1   0 -11 71.6933 537.162   5
   1   0 -10 1232.51 624.375   4
   1   0  -9 18782.2 1790.45   4
   1   0  -8 39519.3 2431.78   4
   1   0  -7 59847.3 2913.11   4
   1   0  -6 1994.04 483.488   4
  -1   0   6 1960.60 216.701   3
  -1   0   5 20683.4 836.569   3
   1   0  -5 21243.6 1606.25   5
   1   0  -5 20854.2 1330.62   4
   1   0  -5 19458.2 1001.22   1
   1   0  -4 76808.4 2362.40   1
   1   0  -4 77847.8 3191.79   5
   1   0  -3 510307. 13458.2   5
   1   0  -3 506732. 12464.5   1
   1   0  -2 14659.1 959.879   5
   1   0  -1 107188. 3313.30   5
   1   0   0 12040.6 746.688   5
   1   0   1 132983. 4269.34   5
  -1   0  -2 22483.7 1224.35   4
  -1   0  -2 22518.0 769.063   2
  -1   0  -3 15354.4 1031.81   4
   1   0   3 17605.1 618.970   2
  -1   0  -3 17197.7 705.474   2
  -1   0  -4 233853. 7122.45   4
   1   0   4 251016. 6216.57   2
  -1   0  -5 2301.13 473.673   4
   1   0   5 2426.09 406.560   1
   1   0   5 2231.31 242.787   2
   1   0   6 42460.9 1933.50   1
   1   0   6 38605.7 1423.98   2
  -1   0  -6 37179.2 2102.38   4
  -1   0  -7 304.504 273.986   4
   1   0   7 248.636 109.965   2
   1   0   7 344.793 264.912   1
  -1   0  -8 3929.97 757.291   4
   1   0   8 4494.24 437.834   2
  -1   0  -8 4498.06 453.106   3
   1   0   9 6617.40 569.112   2
  -1   0  -9 6822.30 603.989   3
  -1   0  -9 5126.38 933.914   4
   1   0  10 71949.9 2384.54   2
  -1   0 -10 72773.0 3795.75   4
   1   0  11 255.920 188.454   2
  -1   0 -11-83.8659 165.147   3
  -1   0 -12 17945.0 1975.51   4
   1   0  12 18069.3 1091.14   2
  -1   0 -13 77463.9 4580.57   4
  -1   0 -14 26171.7 2667.08   4
  -1   0 -15 4958.81 1298.18   4
  -1   0 -16 7142.02 1620.12   4
   1   1 -15 9568.14 2089.36   5
   1   1 -14 28033.2 3412.93   5
   1   1 -13 44705.8 4163.07   5
   1   1 -12 1854.13 759.772   4
   1   1 -12 1512.20 908.541   5
   1   1 -11 12992.1 1642.11   4
   1   1 -10 119684. 5264.40   4
   1   1  -9 1447.83 573.480   4
  -1  -1   8 21692.2 938.465   3
   1   1  -8 20553.6 1690.58   4
   1   1  -7 1100.88 377.194   4
  -1  -1   7 1611.14 261.137   3
   1   1  -6 102674. 3427.16   1
   1   1  -6 100771. 3881.11   4
  -1  -1   6 105314. 3191.69   3
   1   1  -5 12273.1 811.722   1
  -1  -1   5 11773.5 737.683   3
   1   1  -5 12080.9 1000.68   4
  -1  -1   4 812.056 200.270   3
   1   1  -3 65094.8 2645.66   5
  -1  -1   3 65927.2 2137.86   3
   1   1  -2 12239.6 863.875   5
   1   1  -1 63373.4 2145.19   5
   1   1   0 17656.2 862.983   5
   1   1   1 33177.7 1501.66   5
  -1  -1  -1 34131.0 1223.72   2
  -1  -1  -2 20101.5 1117.60   4
  -1  -1  -2 20791.0 948.814   2
  -1  -1  -3 400731. 10690.5   4
  -1  -1  -3 392380. 10396.0   2
   1   1   3 417243. 10294.1   2
  -1  -1  -4 22188.5 1320.15   4
   1   1   4 22200.1 1064.34   2
  -1  -1  -5 43505.0 2086.27   4
   1   1   5 40854.3 1667.81   2
   1   1   6 68461.8 2451.09   2
  -1  -1  -6 69320.5 3049.67   4
  -1  -1  -7 99295.5 4038.22   4
   1   1   7 95010.8 3174.95   2
  -1  -1  -8 27870.6 2031.05   4
   1   1   8 26027.4 1365.49   2
   1   1   8 28402.4 1740.41   1
   1   1   9 59507.8 2331.51   2
  -1  -1  -9 55789.1 1965.76   3
  -1  -1  -9 61112.1 3307.50   4
  -1  -1 -10 43090.0 2828.70   4
   1   1  10 42691.8 1934.52   2
  -1  -1 -10 39711.5 1584.67   3
  -1  -1 -11 6658.26 1147.97   4
  -1  -1 -11 4544.37 435.722   3
   1   1  11 6581.48 692.740   2
  -1  -1 -12 698.879 526.926   4
   1   1  12-130.969 255.768   2
  -1  -1 -13 1180.02 538.616   4
  -1  -1 -14 7758.95 1419.35   4
  -1  -1 -15 2187.21 1038.33   4
  -1  -1 -16 91.0742 677.543   4
   1   2 -15-289.683 785.194   5
   1   2 -14 2212.73 1053.11   5
   1   2 -13 3463.31 1239.73   5
   1   2 -12 172.536 555.100   4
   1   2 -11 16098.8 1770.22   4
   1   2 -10 7559.15 1151.63   4
  -1  -2   9 77314.3 2621.26   3
   1   2  -9 79381.9 3830.79   4
   1   2  -9 79315.1 3332.08   1
  -1  -2   8 437.826 206.186   3
   1   2  -8 58.0163 288.960   4
   1   2  -8 599.785 301.872   1
  -1  -2   7 114066. 3690.70   3
   1   2  -7 112788. 4349.16   4
   1   2  -6 56571.8 2652.82   4
  -1  -2   6 59118.8 2338.45   3
  -1  -2   6 63231.1 2725.07   4
  -1  -2   5 21415.4 1220.45   3
   1   2  -5 21409.2 1328.15   4
  -1  -2   4 155732. 4711.16   4
  -1  -2   4 153318. 4652.57   3
  -1  -2   3 18950.5 1035.17   4
  -1  -2   3 19717.5 1082.50   3
   1   2  -2 276159. 7670.42   5
  -1  -2   2 280837. 7349.98   4
  -1  -2   2 284259. 7554.92   3
  -1  -2   1 40383.0 1525.50   2
   1   2  -1 38709.0 1493.28   5
   1   2   0 57284.3 1859.95   5
  -1  -2   0 60968.1 1819.44   5
  -1  -2   0 58791.3 2059.72   2
  -1  -2  -1 23191.7 935.722   5
   1   2   1 22535.2 1050.37   5
  -1  -2  -1 22360.1 1104.89   2
  -1  -2  -2 15281.2 907.900   4
   1   2   2 16136.0 946.874   4
  -1  -2  -2 14548.5 847.002   5
  -1  -2  -2 13726.9 911.180   2
   1   2   3 10965.5 783.372   4
  -1  -2  -3 10470.1 848.855   2
  -1  -2  -3 9608.04 741.599   4
   1   2   3 10740.3 803.068   2
   1   2   4 720.040 237.420   2
  -1  -2  -4 939.856 302.501   4
   1   2   4 824.519 268.262   4
   1   2   5 6326.97 729.321   4
   1   2   5 6101.55 639.448   2
  -1  -2  -5 6571.99 739.703   4
   1   2   6 1579.56 343.341   2
  -1  -2  -6 2171.08 527.647   4
   1   2   6 1939.79 450.123   4
  -1  -2  -7 141432. 5047.15   4
   1   2   7 129667. 4335.33   2
   1   2   7 130360. 4773.90   4
   1   2   8 380.622 191.505   2
  -1  -2  -8 777.164 432.227   4
  -1  -2  -9 15662.1 1568.89   4
   1   2   9 14423.7 1119.99   2
  -1  -2 -10 29832.4 1140.07   3
  -1  -2 -10 32789.8 2408.80   4
  -1  -2 -11 23752.9 2125.14   4
  -1  -2 -12 36457.9 2821.86   4
  -1  -2 -13 22702.4 2332.97   4
  -1  -2 -14 44614.3 3487.84   4
  -1  -2 -15-323.597 840.676   4
  -1  -2 -16 4378.46 1170.63   4
   1   3 -15 665.150 822.721   5
   1   3 -14 52793.9 4819.02   5
   1   3 -11 667.006 459.303   1
   1   3 -11 836.014 544.787   4
   1   3 -10 20901.9 1675.83   1
   1   3 -10 19230.8 1809.51   4
   1   3  -9 48741.8 2595.20   1
  -1  -3   9 51174.1 2179.77   3
   1   3  -9 52503.2 2914.96   4
  -1  -3   8 182.490 197.439   3
   1   3  -8 331.048 325.996   4
   1   3  -8 128.307 246.002   1
  -1  -3   7 603.979 251.815   3
   1   3  -7-37.6400 248.523   4
   1   3  -7 450.096 256.784   1
  -1  -3   6 30194.0 1689.03   3
  -1  -3   6 29766.8 1777.54   4
   1   3  -6 30991.7 1763.42   4
   1   3  -5 38825.1 1858.64   4
  -1  -3   5 37886.9 1929.19   3
  -1  -3   4 93594.4 3078.83   2
  -1  -3   4 90008.5 3326.89   3
  -1  -3   4 88358.9 3131.06   4
  -1  -3   3 5453.19 550.095   2
  -1  -3   3 5560.49 530.069   4
  -1  -3   3 5767.65 645.788   3
   1   3  -2 55881.2 2201.11   5
  -1  -3   2 59483.6 2010.44   4
  -1  -3   2 60293.5 2379.39   3
  -1  -3   2 60949.7 2234.43   2
   1   3  -1 69277.0 2274.49   5
  -1  -3   1 73721.6 2561.03   2
  -1  -3   1 73889.3 2661.99   3
   1   3   0 313516. 7869.66   5
  -1  -3   0 311831. 8486.77   2
  -1  -3   0 316663. 8533.33   3
  -1  -3  -1 51363.4 1768.95   4
  -1  -3  -1 47302.9 2072.03   2
  -1  -3  -1 47066.4 1939.16   3
  -1  -3  -2 161426. 5322.18   2
  -1  -3  -2 168870. 4804.56   4
  -1  -3  -3 86.3355 181.008   2
   1   3   3 86.5102 113.145   4
  -1  -3  -3 276.907 159.924   4
  -1  -3  -4 67883.0 2528.82   4
   1   3   4 69415.1 2573.83   4
   1   3   4 67010.3 2783.92   2
  -1  -3  -5 63843.4 2634.61   4
   1   3   5 66204.1 2735.71   2
   1   3   5 64134.9 2624.25   4
   1   3   6 59445.1 2612.67   2
   1   3   6 63068.4 2687.96   4
  -1  -3  -6 57575.1 2663.07   4
   1   3   7 76362.7 3215.41   4
  -1  -3  -7 72326.1 3256.08   4
  -1  -3  -8 7945.33 639.025   3
  -1  -3  -8 8020.57 1037.01   4
  -1  -3  -9 724.158 408.107   4
  -1  -3  -9 674.850 205.117   3
   1   3  10 27619.1 1740.83   2
  -1  -3 -10 27740.8 2124.61   4
  -1  -3 -10 24614.8 1101.04   3
   1   3  11 2880.80 573.747   2
  -1  -3 -11 2613.44 726.638   4
   1   3  12 32425.0 2010.38   2
  -1  -3 -12 32430.8 2593.57   4
  -1  -3 -13 5222.06 1095.51   4
   1   3  13 5197.48 792.808   2
  -1  -3 -14 15043.9 1947.33   4
  -1  -3 -15 21949.8 2422.06   4
  -1  -3 -16 6539.11 1484.24   4
   1   4 -14 4643.39 1397.59   5
   1   4 -12 52267.5 3242.87   1
   1   4 -11 3850.25 816.442   1
  -1  -4  10 17467.7 1279.20   3
   1   4 -10 15638.6 1525.74   1
   1   4 -10 17053.8 1668.81   4
  -1  -4   9 50480.6 2339.32   2
  -1  -4   9 52933.9 2470.05   3
   1   4  -9 52825.8 2844.57   1
   1   4  -9 55678.5 2950.63   4
  -1  -4   8 107635. 3849.52   2
  -1  -4   8 110295. 4111.47   3
   1   4  -8 110607. 4369.64   1
   1   4  -8 112468. 4372.57   4
   1   4  -7 28402.0 1753.56   4
  -1  -4   7 26822.4 1715.20   3
  -1  -4   7 24797.2 1478.22   2
  -1  -4   6 18747.0 1407.91   3
   1   4  -6 17129.0 1238.14   4
  -1  -4   6 17640.2 1324.12   4
  -1  -4   6 18900.0 1229.95   2
  -1  -4   5 134754. 4780.62   3
  -1  -4   5 133147. 4360.90   2
  -1  -4   4 16198.0 1073.69   4
  -1  -4   4 15610.2 1265.84   3
  -1  -4   4 16303.1 1115.19   2
  -1  -4   3 29283.6 1729.60   3
  -1  -4   3 28270.0 1333.00   4
  -1  -4   3 27728.0 1487.03   2
   1   4  -3 28345.0 1781.41   3
  -1  -4   2 13035.5 1069.50   3
  -1  -4   2 12919.8 738.388   4
  -1  -4   2 11436.4 901.622   2
   1   4  -1 195.269 107.521   5
  -1  -4   1 133.075 205.389   2
  -1  -4   1-4.96146 214.299   3
  -1  -4   1 559.132 136.517   4
  -1  -4   0 6525.05 726.288   3
  -1  -4   0 7159.02 754.392   2
  -1  -4  -1 37289.4 1324.03   4
  -1  -4  -1 34589.0 1882.22   2
  -1  -4  -1 34054.6 1739.50   3
  -1  -4  -2-7.29372 244.747   2
  -1  -4  -2 637.347 275.132   3
  -1  -4  -2 237.087 117.447   4
  -1  -4  -3 451.840 234.135   3
  -1  -4  -3 203.159 270.074   2
  -1  -4  -3 321.933 151.603   4
   1   4   3 79.0478 98.5421   4
   1   4   4 77756.2 2719.42   4
  -1  -4  -4 73139.9 2822.95   3
  -1  -4  -4 78422.8 2716.36   4
   1   4   5 74982.6 2800.92   4
  -1  -4  -5 74072.9 2821.44   4
  -1  -4  -5 68847.5 2697.19   3
   1   4   6 129633. 4351.76   4
  -1  -4  -6 129328. 4428.88   4
  -1  -4  -6 119411. 4038.90   3
  -1  -4  -7 603.654 250.005   3
   1   4   7 689.819 304.243   4
  -1  -4  -7 889.923 360.449   4
  -1  -4  -8 85653.9 3592.31   4
   1   4   8 82826.2 3453.99   2
  -1  -4  -8 73366.9 2794.20   3
  -1  -4  -9-67.7769 182.778   3
  -1  -4  -9 451.520 338.963   4
   1   4   9-91.8473 228.765   2
   1   4  10 36945.4 2178.91   2
  -1  -4 -10 33025.2 1538.90   3
  -1  -4 -10 36546.0 2432.25   4
   1   4  11 33544.7 2116.03   2
  -1  -4 -11 31062.5 2356.28   4
   1   4  12 56898.3 2921.57   2
  -1  -4 -12 54711.3 3418.79   4
   1   4  13 15262.2 1432.05   2
  -1  -4 -13 13109.7 1666.54   4
  -1  -4 -14 4556.47 1085.30   4
  -1  -4 -15 2074.69 1013.80   4
  -1  -4 -16 5530.74 1443.62   5
  -1  -4 -16 4636.37 1242.12   4
   1   5 -14-1875.89 1042.23   5
   1   5 -13 5590.48 1123.64   1
   1   5 -12 2078.20 732.680   1
   1   5 -11 4564.74 987.618   1
  -1  -5  10 795.128 372.726   3
   1   5 -10 851.296 494.013   1
   1   5  -9 582.356 390.662   1
  -1  -5   9 515.075 295.932   3
   1   5  -8 8982.92 1098.04   1
  -1  -5   8 7585.22 972.867   3
  -1  -5   8 8698.64 920.376   2
  -1  -5   7 6413.30 905.062   3
  -1  -5   7 5982.72 736.304   2
  -1  -5   6 68635.7 3202.97   3
  -1  -5   6 66200.7 2835.42   2
  -1  -5   6 68719.6 2913.24   4
  -1  -5   5 3396.13 663.590   3
   1   5  -5 3814.17 785.519   3
  -1  -5   5 2984.55 507.206   2
  -1  -5   4 179237. 6065.06   3
  -1  -5   4 168420. 5498.41   2
  -1  -5   4 173306. 5245.83   4
   1   5  -4 180636. 6230.06   3
   1   5  -3 49816.6 2601.28   3
  -1  -5   3 45718.6 2158.78   2
  -1  -5   3 42618.4 2378.73   3
  -1  -5   3 43202.1 1796.75   4
   1   5  -2 10128.0 1025.66   2
  -1  -5   2 9134.54 1011.68   3
  -1  -5   2 11011.4 994.144   2
  -1  -5   2 10673.3 665.552   4
  -1  -5   1 148441. 4827.47   2
   1   5  -1 129214. 3746.46   5
  -1  -5   1 138739. 4816.40   3
  -1  -5   1 135671. 3678.91   4
   1   5  -1 140551. 4912.91   2
  -1  -5   0 48983.6 2412.32   2
  -1  -5   0 47760.5 1417.02   4
  -1  -5   0 47784.0 2394.30   3
  -1  -5  -1 202369. 5161.84   4
  -1  -5  -1 204557. 6640.30   2
  -1  -5  -1 203714. 6375.52   3
  -1  -5  -2 2350.16 244.273   4
  -1  -5  -2 2799.41 592.277   2
  -1  -5  -2 3085.49 534.694   3
  -1  -5  -3 100015. 4099.03   2
  -1  -5  -3 97754.1 2762.22   5
  -1  -5  -3 95096.2 3642.36   3
  -1  -5  -3 99989.0 2988.37   4
  -1  -5  -4 2457.54 471.597   3
  -1  -5  -4 2919.33 396.022   4
   1   5   4 2644.78 367.526   4
   1   5   5 132.151 263.476   2
  -1  -5  -5-18.4908 214.824   3
   1   5   5 514.885 244.620   4
  -1  -5  -5 236.643 207.543   4
   1   5   6 1259.92 403.197   2
   1   5   6 1455.03 354.728   4
  -1  -5  -6 1191.02 325.054   4
  -1  -5  -6 1256.94 343.123   3
   1   5   7 34860.5 1865.79   4
   1   5   7 31376.4 2017.77   2
  -1  -5  -7 28295.0 1674.18   3
  -1  -5  -7 30979.4 1809.03   4
  -1  -5  -8 1103.62 358.457   3
  -1  -5  -8 1056.13 413.691   4
   1   5   8 565.993 349.477   2
  -1  -5  -9 1192.16 328.217   3
   1   5   9 1200.93 452.106   2
  -1  -5  -9 1679.47 498.555   4
  -1  -5 -10 39859.4 1914.31   3
   1   5  10 39061.9 2401.71   2
  -1  -5 -10 40951.6 2541.62   4
  -1  -5 -11 6767.30 1081.78   4
   1   5  11 8745.92 1104.82   2
   1   5  12 26197.2 1980.30   2
  -1  -5 -12 27472.3 2264.14   4
  -1  -5 -13 3907.22 980.536   4
   1   5  13 6140.06 951.163   2
  -1  -5 -14 4058.40 1001.74   4
  -1  -5 -14 4758.74 1153.28   5
  -1  -5 -15 27306.9 2605.52   4
  -1  -5 -15 30018.3 3064.03   5
  -1  -5 -16 11061.0 1719.61   4
  -1  -5 -16 14796.0 2199.93   5
   1   6 -14 6667.45 1674.34   5
   1   6 -13 22516.7 2336.35   1
   1   6 -12 676.494 586.390   1
   1   6 -11 79106.1 4290.64   1
   1   6 -10 16711.6 1800.00   1
  -1  -6  10 17620.5 1554.37   3
   1   6  -9 9006.34 1230.13   1
  -1  -6   9 8474.52 1062.76   3
  -1  -6   8 1080.74 466.109   3
  -1  -6   7 31452.6 2171.31   3
  -1  -6   6 37282.6 1974.88   4
  -1  -6   6 38109.1 2409.74   3
  -1  -6   5 526.324 418.624   3
  -1  -6   4 2149.44 573.758   3
  -1  -6   4 2072.61 372.724   4
  -1  -6   4 2168.94 502.918   2
   1   6  -3 12172.0 1230.09   2
  -1  -6   3 12006.0 806.623   4
  -1  -6   3 13528.6 1198.53   2
  -1  -6   3 11524.8 1258.55   3
   1   6  -2 11058.8 1182.07   2
  -1  -6   2 12793.7 1287.80   3
  -1  -6   2 13223.2 1206.05   2
  -1  -6   2 10540.9 665.154   4
  -1  -6   1 89660.1 3808.28   3
   1   6  -1 89894.1 3897.31   2
   1   6  -1 87879.7 2597.79   5
  -1  -6   1 89727.5 3704.64   2
   1   6  -1 82889.0 2482.17   5
  -1  -6   1 87372.5 2467.84   4
  -1  -6   0 27057.1 1878.67   3
   1   6   0 25728.8 1864.23   2
  -1  -6   0 29186.9 1927.41   2
  -1  -6  -1 241.426 239.856   3
  -1  -6  -2 35264.2 2081.23   3
  -1  -6  -2 32780.1 1000.19   4
  -1  -6  -3 259814. 8174.93   3
  -1  -6  -3 267105. 6833.63   4
  -1  -6  -4 5187.64 433.416   5
   1   6   4 6144.85 537.684   4
  -1  -6  -4 5785.99 798.559   3
   1   6   4 5506.73 833.398   2
  -1  -6  -4 5102.94 484.841   4
  -1  -6  -5 44438.1 1833.70   5
   1   6   5 37646.5 1728.02   4
  -1  -6  -5 40912.4 1770.41   4
   1   6   5 48041.4 2575.74   2
  -1  -6  -5 40217.7 2264.68   3
  -1  -6  -6 4126.80 556.451   4
  -1  -6  -6 2967.95 584.537   3
   1   6   6 4080.34 541.048   4
   1   6   6 3443.12 683.193   2
  -1  -6  -6 3865.38 563.432   5
   1   6   7 81887.8 3270.10   4
  -1  -6  -7 81823.8 3558.32   3
  -1  -6  -7 96040.8 3599.07   5
   1   6   7 89218.1 3908.39   2
  -1  -6  -7 88755.1 3389.09   4
  -1  -6  -8 2270.15 515.455   3
   1   6   8 2783.25 636.072   2
  -1  -6  -8 2885.95 554.112   4
  -1  -6  -8 3335.66 663.008   5
  -1  -6  -9 6666.23 836.632   3
  -1  -6  -9 10289.1 1216.67   5
   1   6   9 7736.14 1071.06   2
  -1  -6  -9 7497.46 961.927   4
  -1  -6 -10 47311.8 2384.26   3
  -1  -6 -10 58165.3 3263.70   5
   1   6  10 52421.2 2931.42   2
  -1  -6 -10 52160.4 2863.94   4
  -1  -6 -11 1306.17 562.151   4
   1   6  11 1170.05 513.243   2
  -1  -6 -11 1415.96 655.983   5
  -1  -6 -12 6625.78 1105.02   4
  -1  -6 -12 7101.32 1273.65   5
   1   6  12 5318.97 955.467   2
  -1  -6 -13-484.280 566.799   4
   1   6  13 1209.46 586.425   2
  -1  -6 -13-214.521 638.574   5
  -1  -6 -14 843.667 556.781   4
  -1  -6 -14 1967.95 820.199   5
  -1  -6 -15 903.971 765.033   4
  -1  -6 -15 602.925 690.656   5
   1   7 -14 2641.23 932.652   1
   1   7 -13-483.148 707.858   5
   1   7 -13 1103.53 713.258   1
   1   7 -12 507.678 667.786   1
   1   7 -11 46906.2 3316.93   1
  -1  -7  11 45487.2 2822.26   3
   1   7 -10 403.135 485.718   1
  -1  -7  10 245.126 351.871   3
   1   7  -9 6987.12 1211.45   1
  -1  -7   9 6601.82 1038.79   3
  -1  -7   8 29139.5 2179.75   3
  -1  -7   7 110908. 4827.23   3
  -1  -7   6 7322.08 1096.03   3
  -1  -7   6 7637.71 833.473   4
  -1  -7   5 35903.1 2470.98   3
  -1  -7   4 118735. 3855.74   4
  -1  -7   4 125755. 5126.59   3
  -1  -7   3 8941.72 659.948   4
  -1  -7   3 8648.99 1144.73   3
   1   7  -3 8672.39 1140.18   2
   1   7  -2 11436.4 1337.56   2
  -1  -7   2 13328.8 695.400   4
   1   7  -2 12656.9 795.328   5
  -1  -7   2 15238.4 1512.13   3
  -1  -7   1 1413.23 565.398   3
   1   7  -1 1043.07 475.614   2
  -1  -7   0 141101. 5516.86   3
   1   7   0 147531. 5556.98   2
  -1  -7  -1 2792.50 649.161   3
   1   7   1 3206.92 705.725   2
  -1  -7  -2 4474.69 804.333   3
   1   7   2 4814.62 837.438   2
   1   7   3 13776.7 1386.42   2
  -1  -7  -3 11349.2 1260.37   3
  -1  -7  -4 6449.50 383.519   5
  -1  -7  -4 7160.85 991.300   3
  -1  -7  -4 7498.84 506.234   4
   1   7   4 7875.54 1036.36   2
   1   7   5 22800.4 1189.11   4
  -1  -7  -5 23269.1 1118.92   5
  -1  -7  -5 22564.1 1803.49   3
   1   7   5 23307.9 1830.64   2
  -1  -7  -5 23421.0 1159.23   4
  -1  -7  -6 5879.92 914.672   3
   1   7   6 7656.94 1032.99   2
  -1  -7  -6 6656.20 660.579   5
   1   7   6 4528.50 541.125   4
  -1  -7  -6 7492.97 697.461   4
   1   7   7 3945.26 781.555   2
  -1  -7  -7 3240.43 564.339   5
  -1  -7  -7 2530.32 585.843   3
  -1  -7  -7 3629.10 556.517   4
   1   7   7 2612.45 429.373   4
  -1  -7  -8 10533.2 1020.28   4
  -1  -7  -8 10074.4 1071.25   5
   1   7   8 8713.64 1142.08   2
  -1  -7  -8 8378.36 1047.23   3
  -1  -7  -9 102957. 4345.22   3
   1   7   9 105367. 4661.88   2
  -1  -7  -9 108374. 4255.39   4
  -1  -7 -10 944.112 410.888   3
  -1  -7 -10 811.393 387.685   4
   1   7  10 1599.19 582.722   2
  -1  -7 -10 291.102 397.845   5
  -1  -7 -11 27341.9 2241.01   5
   1   7  11 24206.4 2016.80   2
  -1  -7 -11 22403.2 1860.46   4
  -1  -7 -12-176.517 521.098   4
   1   7  12-728.246 492.119   2
  -1  -7 -12 763.003 499.606   5
  -1  -7 -13 27255.3 2515.57   5
   1   7  13 27384.0 2209.26   2
  -1  -7 -13 27001.3 2228.69   4
  -1  -7 -14 7602.12 1304.65   4
  -1  -7 -14 8635.21 1469.30   5
  -1  -7 -15 23376.6 2277.18   4
   1   8 -13 6425.85 1630.55   5
   1   8 -12 15156.0 2021.41   1
   1   8 -12 16302.5 2296.39   5
   1   8 -11 3810.67 996.594   1
  -1  -8  11 3690.86 910.247   3
  -1  -8  10 9647.45 1343.08   3
   1   8 -10 12295.6 1738.54   1
  -1  -8   9 6796.76 1088.37   3
   1   8  -9 8136.29 1340.26   1
  -1  -8   8 4009.11 878.515   3
  -1  -8   7 189.412 458.034   3
  -1  -8   6 5944.88 1063.78   3
  -1  -8   5 6722.15 1123.70   3
  -1  -8   4 354.543 184.512   4
  -1  -8   4 686.447 456.160   3
   1   8  -3 43702.0 2813.72   2
   1   8  -3 42424.7 1832.32   5
  -1  -8   3 43515.8 2802.31   3
  -1  -8   3 45466.9 1631.76   4
  -1  -8   2 2322.21 721.454   3
   1   8  -2 2164.09 672.115   2
   1   8  -2 1781.28 274.695   5
   1   8  -2 1959.77 274.002   5
  -1  -8   2 1608.35 171.580   4
  -1  -8   1 112207. 4920.15   3
   1   8  -1 108939. 4799.47   2
  -1  -8   0 36131.4 2508.62   3
   1   8   0 35077.3 2423.73   2
  -1  -8  -1 21976.2 1932.47   3
   1   8   1 22898.6 1881.30   2
  -1  -8  -2 21604.1 1892.76   3
   1   8   2 24363.2 1924.54   2
   1   8   3 15687.1 1531.06   2
  -1  -8  -3 14205.4 1509.63   3
  -1  -8  -4 130173. 5496.24   3
   1   8   4 146366. 5560.45   2
  -1  -8  -5 10630.8 566.679   5
   1   8   5 10255.6 1254.48   2
  -1  -8  -5 11213.6 1351.46   3
  -1  -8  -6 17730.8 998.957   5
   1   8   6 19678.1 1723.33   2
   1   8   6 18088.4 1086.30   4
  -1  -8  -6 18718.7 1718.57   3
  -1  -8  -6 19084.2 1044.86   4
  -1  -8  -7 1202.08 323.643   4
   1   8   7 747.874 458.612   2
  -1  -8  -7 824.161 441.463   3
  -1  -8  -7 648.640 245.700   5
   1   8   8 3684.35 821.236   2
  -1  -8  -8 3246.84 564.416   4
  -1  -8  -8 3189.76 745.535   3
  -1  -8  -8 3772.88 620.045   5
  -1  -8  -9 1704.24 551.419   3
  -1  -8  -9 4255.02 652.260   4
   1   8   9 2524.68 709.447   2
  -1  -8  -9 3551.02 667.015   5
   1   8  10 3102.37 786.735   2
  -1  -8 -10 4181.80 731.667   4
  -1  -8 -10 4062.39 785.108   5
  -1  -8 -11 774.093 458.426   4
   1   8  11 119.769 394.116   2
  -1  -8 -11 481.731 557.180   5
  -1  -8 -12 4651.56 896.526   4
   1   8  12 3041.82 785.574   2
   1   8  13 20308.6 1941.50   2
   1   9 -12 9459.90 1734.28   5
   1   9 -11 2345.44 967.712   1
   1   9 -11 5598.43 1202.75   5
   1   9 -10 33690.9 2954.62   1
  -1  -9  10 27928.7 2448.70   3
  -1  -9   9 686.372 562.839   3
   1   9  -9 722.447 680.514   1
  -1  -9   8 52799.8 3367.73   3
  -1  -9   7 15521.2 1759.80   3
  -1  -9   6 18054.2 1904.13   3
  -1  -9   5 356.460 350.803   3
  -1  -9   4 33437.1 2592.59   3
   1   9  -4 32033.8 1681.93   5
   1   9  -3 10056.0 736.099   5
  -1  -9   3 10804.6 1441.74   3
   1   9  -2 603.798 115.377   5
  -1  -9   2 1238.12 585.151   3
   1   9  -2 712.317 116.414   5
   1   9  -2 1504.77 567.776   2
  -1  -9   1 380.321 391.901   3
   1   9  -1 311.849 421.848   2
  -1  -9   0 37312.0 2683.62   3
   1   9   0 38018.9 2623.40   2
  -1  -9  -1 13684.7 1605.81   3
   1   9   1 15703.2 1617.37   2
   1   9   2 30260.2 2268.76   2
  -1  -9  -2 28183.0 2311.41   3
  -1  -9  -3 3063.99 797.602   3
   1   9   3 2925.37 743.193   2
   1   9   4 18943.2 1749.37   2
  -1  -9  -4 19311.1 1870.03   3
   1   9   5 42283.8 2698.19   2
  -1  -9  -5 39880.7 2760.52   3
  -1  -9  -6 70161.6 3777.65   3
   1   9   6 68930.1 3623.23   2
   1   9   7 13455.7 1510.69   2
  -1  -9  -7 13708.9 1567.57   3
   1   9   8 57162.6 3262.36   2
  -1  -9  -8 51866.3 3140.63   3
  -1  -9  -9 4229.33 873.375   3
   1   9   9 3995.49 878.912   2
   1   9  10 33026.9 2465.89   2
   1   9  11 17262.1 1798.29   2
   1   9  12 15495.5 1738.00   2
   1   9  13 2453.47 784.226   2
   1  10 -10 12605.8 1941.89   1
  -1 -10  10 7698.58 1367.56   3
  -1 -10   9 8959.00 1425.85   3
   1  10  -9 7384.27 1490.81   1
  -1 -10   8 10632.7 1565.64   3
  -1 -10   7 8454.25 1333.69   3
  -1 -10   6 38609.0 2941.97   3
  -1 -10   5 2030.16 767.207   3
  -1 -10   4 25000.8 2310.94   3
   1  10  -3 34359.7 2660.45   2
  -1 -10   3 35943.5 2800.83   3
   1  10  -2 92954.8 4605.26   2
  -1 -10   2 91547.1 4725.82   3
  -1 -10   1 30408.3 2549.96   3
   1  10  -1 34887.4 2573.94   2
  -1 -10   0 51.3887 450.580   3
   1  10   0 504.599 476.379   2
   1  10   1 43234.5 2861.12   2
  -1 -10  -1 39418.9 2925.67   3
  -1 -10  -2 6288.95 1153.18   3
   1  10   2 6641.80 1109.25   2
  -1 -10  -3 29926.6 2497.58   3
   1  10   3 31079.8 2347.62   2
  -1 -10  -4 6961.96 1198.72   3
   1  10   4 8013.15 1210.36   2
  -1 -10  -5 9427.46 1359.98   3
   1  10   5 10231.1 1331.22   2
  -1 -10  -6 1507.03 695.904   3
   1  10   6 1833.70 637.320   2
  -1 -10  -7 8547.69 1290.32   3
   1  10   7 12669.6 1517.71   2
  -1 -10  -8 447.598 523.689   3
   1  10   8 892.362 513.206   2
  -1 -10  -9-26.9100 352.314   3
   1  10   9 782.493 497.554   2
   1  10  10 5308.38 1072.18   2
   1  10  11 8747.29 1339.12   2
   1  10  12 26155.5 2321.18   2
  -1 -11  10 3698.24 1054.75   3
  -1 -11   9 12011.0 1776.17   3
  -1 -11   8 8.79788 442.593   3
  -1 -11   7 19810.8 2164.16   3
  -1 -11   6 4657.87 1128.75   3
  -1 -11   5 2359.32 790.369   3
  -1 -11   4 764.967 586.760   3
   1  11  -3-319.547 638.044   2
  -1 -11   3 924.433 612.545   3
  -1 -11   2 1167.42 668.981   3
   1  11  -2 2053.49 718.125   2
  -1 -11   1 1789.90 734.684   3
   1  11  -1 2557.49 801.052   2
  -1 -11   0 10742.5 1574.80   3
   1  11   0 14801.8 1687.36   2
  -1 -11  -1 3692.30 962.334   3
   1  11   1 2935.15 803.797   2
  -1 -11  -2 77470.0 4483.62   3
   1  11   2 81582.1 4183.93   2
  -1 -11  -3 10073.0 1546.18   3
   1  11   3 12756.4 1544.64   2
  -1 -11  -4 8552.44 1410.40   3
   1  11   4 13211.9 1546.09   2
  -1 -11  -5 13021.7 1705.29   3
   1  11   5 13991.7 1601.69   2
  -1 -11  -6 12621.9 1661.24   3
   1  11   6 15623.3 1708.67   2
  -1 -11  -7 31648.1 2647.23   3
   1  11   7 33861.6 2561.32   2
  -1 -11  -8 1244.67 670.245   3
   1  11   8 3809.66 919.362   2
   1  11   9 19761.6 1969.51   2
   1  11  10 2989.16 830.210   2
  -1 -12   7 19865.3 2233.04   3
  -1 -12   6-471.744 554.626   3
  -1 -12   5 33114.6 2912.82   3
  -1 -12   4 5859.07 1270.66   3
   1  12  -3 10578.3 1489.70   2
  -1 -12   3 10556.2 1692.25   3
  -1 -12   2 705.089 608.828   3
   1  12  -2 1619.06 666.586   2
  -1 -12   1 30218.8 2754.75   3
   1  12  -1 27982.1 2435.44   2
  -1 -12   0 17655.8 2105.93   3
   1  12   0 15134.1 1754.03   2
  -1 -12  -1 135.331 623.963   3
   1  12   1 1011.16 625.997   2
  -1 -12  -2 5315.52 1188.74   3
   1  12   2 5823.49 1128.27   2
  -1 -12  -3 6288.50 1309.14   3
   1  12   3 6010.66 1142.87   2
  -1 -12  -4 130.310 480.845   3
   1  12   4 1554.14 760.489   2
  -1 -12  -5 16191.9 1994.74   3
   1  12   5 20479.8 1992.13   2
  -1 -12  -6 12217.9 1725.46   3
   1  12   6 13437.8 1622.07   2
  -1 -12  -7 3002.99 943.956   3
   1  12   7 2992.88 877.066   2
  -1 -12  -8 6685.66 1205.72   3
   1  12   8 7868.99 1312.27   2
  -1 -13   3 10435.4 1678.86   3
   1  13  -3 10061.7 1533.41   2
  -1 -13   2 4986.58 1193.75   3
   1  13  -2 4929.09 1119.46   2
  -1 -13   1 45751.3 3543.65   3
   1  13  -1 43667.4 3150.80   2
  -1 -13   0 4137.28 1142.27   3
   1  13   0 4860.22 1013.66   2
  -1 -13  -1 21005.5 2366.64   3
   1  13   1 23717.3 2245.76   2
  -1 -13  -2 34432.3 3083.35   3
   1  13   2 39608.4 2924.87   2
  -1 -13  -3 8486.57 1561.70   3
   1  13   3 9954.13 1465.49   2
  -1 -13  -4 3239.09 1073.21   3
   1  13   4 5664.78 1122.81   2
  -1 -13  -5 442.096 572.136   3
  -1 -13  -6 30742.5 2780.47   3
  -1 -13  -7-1634.31 765.301   3
  -2  14  -2-181.109 441.198   2
  -2  13   2 19083.6 2010.46   2
  -2  13   1-370.870 541.718   2
  -2  13   0 12805.6 1602.12   2
  -2  13  -1 1793.22 671.085   2
  -2  13  -2 2770.04 797.120   2
  -2  13  -3-1387.45 706.087   1
  -2  13  -3 397.052 389.826   2
  -2  13  -4 541.669 570.933   1
  -2  13  -4 83.6226 450.469   2
  -2  13  -5 2273.53 785.043   1
  -2  12   5 1029.60 522.706   2
  -2  12   4 7129.36 1299.39   2
  -2  12   3 26819.6 2388.94   2
  -2  12   2 28528.8 2390.35   2
  -2  12   1 1092.00 586.065   2
  -2  12   0 16403.4 1738.06   2
  -2  12  -1 2692.88 725.368   2
  -2  12  -2 40474.6 2685.59   2
  -2  12  -3 7718.50 1145.45   2
  -2  12  -4 33527.2 2738.91   1
  -2  12  -4 27142.0 2137.95   2
  -2  12  -5 3572.42 1003.12   1
  -2  12  -5 4290.77 869.217   2
  -2  12  -6 1849.30 808.744   1
  -2  12  -7 1686.27 807.896   1
  -2  11   7 7702.68 1389.14   2
  -2  11   6 4350.76 1054.92   2
  -2  11   5 27237.7 2462.29   2
  -2  11   4 107.765 451.161   2
  -2  11   3 2377.98 703.901   2
  -2  11   2 5047.29 980.146   2
  -2  11   1 2750.50 735.832   2
  -2  11   0 2759.53 718.958   2
  -2  11  -1 4178.19 845.789   2
  -2  11  -2 864.920 468.739   2
  -2  11  -3 11074.7 1299.22   2
  -2  11  -4 30539.1 2499.60   1
  -2  11  -4 28530.0 2100.69   2
  -2  11  -5 5124.61 1095.35   1
  -2  11  -5 6270.39 1018.54   2
  -2  11  -6 9508.23 1242.74   2
  -2  11  -6 8403.58 1395.58   1
  -2  11  -7-342.336 648.006   1
  -2  11  -8 50583.4 3707.38   1
  -2  11  -9 1065.26 732.681   1
  -2  10   9 4995.19 1145.55   2
  -2  10   8 847.772 523.310   2
  -2  10   7 1016.32 705.908   2
   2 -10  -6 38512.0 2512.30   5
  -2  10   6 41984.3 2993.87   2
  -2  10   5 5932.01 1092.77   2
   2 -10  -5 7609.52 1035.41   5
   2 -10  -4 10841.6 1265.54   5
  -2  10   4 13758.0 1593.85   2
  -2  10   3 12242.5 1470.70   2
   2 -10  -3 9270.32 1206.65   5
  -2  10   2 66502.4 3609.67   2
   2 -10  -2 67248.2 3434.72   5
   2 -10  -1 26840.8 2001.17   5
  -2  10   1 27710.0 2163.08   2
  -2  10   0 2323.58 617.281   2
  -2  10  -1 32985.3 2284.22   2
  -2  10  -2 5421.16 918.147   2
  -2  10  -3 19205.7 1651.41   2
  -2  10  -4 4614.03 923.284   1
  -2  10  -4 4484.85 766.833   2
  -2  10  -5 11038.8 1482.96   1
  -2  10  -5 10951.8 1226.45   2
  -2  10  -6 908.777 491.069   2
  -2  10  -6 802.982 555.475   1
  -2  10  -7-207.970 465.699   1
  -2  10  -8 6179.54 1284.87   1
  -2  10  -9 1684.81 716.766   1
  -2  10 -10 7612.00 1515.20   1
  -2   9  11 8560.53 1465.09   2
   2  -9 -11 10326.3 1702.36   5
  -2   9  10 504.077 534.431   2
   2  -9 -10 409.538 763.837   5
  -2   9   9 36579.1 2861.20   2
   2  -9  -9 37535.1 2942.58   5
   2  -9  -8 14521.3 1687.99   5
   2  -9  -7 7386.75 1177.27   5
  -2   9   6 3892.70 932.117   2
   2  -9  -6 3856.42 810.410   5
  -2   9   5 3362.24 846.940   2
   2  -9  -5 2711.20 690.586   5
  -2   9   4 400.060 407.802   2
   2  -9  -4 2165.86 607.098   5
  -2   9   3 8095.74 1159.99   2
   2  -9  -3 5925.23 954.422   5
  -2   9   2 66.5414 326.590   2
   2  -9  -2 474.175 332.533   5
  -2   9   1 5613.67 535.234   4
  -2   9   1 6200.31 951.172   2
   2  -9  -1 5784.28 949.909   5
  -2   9   0 36935.7 1514.70   4
  -2   9   0 34883.9 2323.26   2
   2  -9   0 37607.7 2391.34   5
  -2   9  -1 83137.3 3791.14   2
  -2   9  -1 82029.7 2671.47   4
  -2   9  -2 352.550 332.496   2
  -2   9  -2 1279.89 268.321   4
  -2   9  -3 7714.00 657.942   4
  -2   9  -3 7932.12 1013.93   2
  -2   9  -4 8319.41 1166.14   1
  -2   9  -4 7107.44 938.906   2
  -2   9  -4 6063.25 619.663   4
  -2   9  -5 95948.4 4568.98   1
  -2   9  -5 99137.9 4050.13   2
  -2   9  -5 98772.6 3483.81   4
  -2   9  -6 5364.23 692.315   4
  -2   9  -6 4734.34 970.837   1
  -2   9  -6 6626.42 957.406   2
  -2   9  -7 33259.6 2707.45   1
  -2   9  -7 38465.1 2071.58   4
  -2   9  -7 41368.0 2580.24   2
  -2   9  -8 8239.58 1316.62   1
  -2   9  -8 7655.75 938.560   4
  -2   9  -9 6265.32 888.456   4
  -2   9  -9 7451.07 1349.23   1
  -2   9 -10 1727.51 585.905   4
  -2   9 -10 1131.80 739.493   1
  -2   9 -11 3109.99 758.661   4
  -2   9 -11 3500.49 1095.55   1
  -2   9 -12 12626.4 1468.08   4
  -2   9 -13 2934.31 829.457   4
   2  -8 -13 7864.48 1695.51   5
   2  -8 -12 4206.92 1173.27   5
   2  -8 -11 22100.2 2498.17   5
   2  -8 -10-113.094 551.127   5
   2  -8  -9 23424.3 2311.41   5
   2  -8  -8 8175.72 1294.29   5
   2  -8  -7 53060.6 3256.31   5
   2  -8  -6 24670.9 2036.96   5
   2  -8  -5 12748.2 1406.05   5
  -2   8   4 43379.3 1892.31   4
   2  -8  -4 45981.8 2717.85   5
   2  -8  -3 73116.2 3568.42   5
  -2   8   3 72039.3 2563.50   4
   2  -8  -2 27941.6 2039.87   5
  -2   8   2 24499.0 1206.20   4
  -2   8   1 10361.9 1155.49   2
  -2   8   1 9287.91 1031.78   5
   2  -8  -1 8531.64 1168.18   5
  -2   8   0 40705.4 1751.26   4
   2  -8   0 40067.3 2502.98   5
  -2   8   0 35559.3 2236.59   2
  -2   8   0 38124.3 2240.72   5
  -2   8  -1 295.508 324.143   2
  -2   8  -1-344.893 301.603   5
  -2   8  -1 117.055 166.171   4
  -2   8  -2 897.685 255.821   4
  -2   8  -2 615.514 339.728   2
  -2   8  -3 2871.98 601.741   2
  -2   8  -3 1840.38 357.202   4
  -2   8  -4 2073.46 597.482   1
  -2   8  -4 2385.88 424.335   4
  -2   8  -4 1454.86 468.675   2
  -2   8  -5 5716.87 672.454   4
  -2   8  -5 6471.33 846.122   2
  -2   8  -5 6506.30 1013.92   1
  -2   8  -6 59343.9 3415.53   1
  -2   8  -6 65431.1 3084.04   2
  -2   8  -6 62929.0 2719.46   4
  -2   8  -7 5610.91 1051.44   1
  -2   8  -7 5263.57 816.967   2
  -2   8  -7 7231.30 867.451   4
  -2   8  -8 804.058 520.515   1
  -2   8  -8 546.692 375.342   4
  -2   8  -9 29370.4 2592.49   1
  -2   8  -9 33990.5 2169.34   4
  -2   8 -10 9104.46 1495.30   1
  -2   8 -10 11433.9 1284.16   4
  -2   8 -11 29409.1 2755.09   1
  -2   8 -11 32804.6 2302.38   4
  -2   8 -12 2717.98 731.786   4
  -2   8 -12 3034.46 965.090   1
  -2   8 -13 32665.6 2548.30   4
  -2   8 -14 865.893 659.848   4
   2  -7 -13 4411.55 1267.33   5
   2  -7 -12 13562.8 1986.73   5
   2  -7 -11 26516.8 2684.22   5
   2  -7 -10 8177.32 1448.23   5
   2  -7  -9 28.2475 406.556   5
   2  -7  -8 178.622 399.361   5
   2  -7  -7 2911.39 774.695   5
   2  -7  -6-55.1561 325.712   5
  -2   7   5 13513.5 1176.34   3
   2  -7  -5 12514.9 1364.68   5
   2  -7  -4 22856.3 1815.44   5
  -2   7   4 21278.4 1261.88   4
   2  -7  -3 12967.4 1322.11   5
  -2   7   3 10003.4 793.876   4
  -2   7   2 24828.4 1770.43   5
   2  -7  -2 23066.4 1864.34   5
   2  -7  -1 66167.9 3446.25   5
  -2   7   1 69653.1 3171.01   5
   2  -7   0 6550.48 998.336   5
  -2   7   0 6099.32 843.120   5
  -2   7  -1 84013.8 3023.13   4
  -2   7  -1 86559.7 3720.71   5
  -2   7  -1 87518.5 3535.77   2
   2  -7   1 84413.2 3915.01   5
  -2   7  -2 52212.4 2152.61   4
  -2   7  -2 56972.9 2977.23   5
  -2   7  -2 50616.4 2511.23   2
  -2   7  -3 16509.6 1087.94   4
  -2   7  -3 17893.2 1471.33   1
  -2   7  -3 16826.2 1323.28   2
  -2   7  -4 42031.7 1964.87   4
  -2   7  -4 41757.5 2455.00   1
  -2   7  -4 43155.8 2189.99   2
  -2   7  -5 292.503 351.161   1
  -2   7  -5 49.5967 198.898   4
  -2   7  -5 201.660 242.513   2
  -2   7  -6 23345.8 1554.30   4
  -2   7  -6 26426.2 2060.48   1
  -2   7  -6 27919.9 1786.79   2
  -2   7  -7 4356.41 884.352   1
  -2   7  -7 4804.58 743.565   4
  -2   7  -7 3413.51 567.037   2
  -2   7  -8 8972.85 1312.33   1
  -2   7  -8 9851.48 1097.02   4
  -2   7  -9 257.851 358.705   4
  -2   7  -9 745.491 580.779   1
  -2   7 -10 2270.04 661.130   4
  -2   7 -10-18.6848 463.761   1
  -2   7 -11 4680.91 922.487   4
  -2   7 -11 4734.14 1147.66   1
  -2   7 -12 1702.73 649.055   4
  -2   7 -13 7405.99 1252.10   4
  -2   7 -14 321.515 558.234   4
   2  -6 -13 8016.97 1655.83   5
   2  -6 -12 18718.3 2398.14   5
   2  -6 -11 4638.69 1146.96   5
   2  -6 -10 47943.7 3491.27   5
   2  -6  -9 1619.50 670.252   5
   2  -6  -8 6836.92 1206.22   5
   2  -6  -7 112.132 361.615   5
   2  -6  -6 104726. 4671.60   5
   2  -6  -5 23083.7 1861.64   5
  -2   6   4 148.925 175.792   4
   2  -6  -4 112.387 263.487   5
   2  -6  -3 6910.11 949.782   5
  -2   6   3 8568.71 1031.64   5
  -2   6   3 8460.14 884.740   3
  -2   6   3 7106.93 673.863   4
  -2   6   2 23114.9 1695.76   5
   2  -6  -2 21735.0 1715.85   5
  -2   6   2 25805.6 1627.77   3
   2  -6  -1 2682.37 644.235   5
  -2   6   1 3089.46 598.586   5
   2  -6   0 645.915 334.069   5
  -2   6   0-197.271 309.697   5
  -2   6  -1 595.552 281.835   4
   2  -6   1 1053.68 443.004   5
  -2   6  -1 1100.96 372.635   5
  -2   6  -2 18605.8 1345.09   1
  -2   6  -2 18893.8 1606.68   5
  -2   6  -2 15193.1 1081.58   4
   2  -6   2 16251.2 1556.54   5
  -2   6  -2 17476.8 1259.78   2
  -2   6  -3 81224.1 3056.18   4
  -2   6  -3 82770.3 3458.35   1
  -2   6  -3 81411.0 3198.16   2
  -2   6  -4 131126. 4389.82   4
  -2   6  -4 135601. 4971.23   1
  -2   6  -4 134357. 4478.47   2
  -2   6  -5 10604.6 975.027   4
  -2   6  -5 10431.7 927.702   2
  -2   6  -5 11134.5 1217.68   1
  -2   6  -6 30412.4 1798.31   4
  -2   6  -6 30183.0 2110.10   1
  -2   6  -6 29771.3 1740.37   2
  -2   6  -7 20467.9 1187.83   2
  -2   6  -7 20085.2 1508.04   4
  -2   6  -7 21864.2 1828.83   1
  -2   6  -8 108648. 4796.69   1
  -2   6  -8 106365. 4328.35   4
  -2   6  -9 7023.11 1148.51   1
  -2   6  -9 7878.40 1077.10   4
  -2   6 -10 56432.4 3511.46   1
  -2   6 -10 64090.0 3378.40   4
  -2   6 -11 5795.53 1058.19   4
  -2   6 -12 14756.2 1680.88   4
  -2   6 -13-219.233 455.315   4
  -2   6 -14 7367.91 1344.14   4
   2  -5 -14 8680.96 1771.58   5
   2  -5 -13-631.227 702.664   5
   2  -5 -12-717.196 599.912   5
   2  -5 -11-610.775 610.966   5
   2  -5 -10 15217.1 1904.12   5
   2  -5  -9 302.055 359.738   5
  -2   5   8 18586.3 921.951   1
   2  -5  -8 21574.7 2091.58   5
  -2   5   7 233.546 180.977   3
  -2   5   7 89.0792 126.087   1
   2  -5  -7 694.989 554.139   5
   2  -5  -6 115396. 5017.98   5
  -2   5   6 120441. 3872.94   3
  -2   5   5 1300.09 320.327   3
   2  -5  -5 1587.32 538.909   5
   2  -5  -4 71473.4 3360.96   5
  -2   5   4 71600.6 2729.93   4
   2  -5  -3 103236. 4345.61   5
  -2   5   3 120561. 4552.85   5
  -2   5   2 81752.6 3488.75   5
   2  -5  -2 74884.0 3501.83   5
  -2   5   1 44895.3 2402.25   5
   2  -5  -1 40745.2 2405.35   5
   2  -5   0 44472.1 2713.98   5
  -2   5   0 48985.4 2541.46   5
  -2   5   0 52037.8 2353.58   3
  -2   5  -1 148806. 4707.53   1
   2  -5   1 145554. 5785.29   5
  -2   5  -1 152923. 5423.50   5
  -2   5  -2 10438.5 919.189   4
  -2   5  -2 11057.3 945.749   1
  -2   5  -2 10861.3 1211.91   5
   2  -5   2 10716.3 1270.29   5
  -2   5  -3 4297.94 868.155   5
  -2   5  -3 4763.37 672.538   1
  -2   5  -3 3551.87 538.506   4
  -2   5  -4 22199.7 1431.57   4
  -2   5  -4 26380.1 2272.79   5
  -2   5  -4 23184.6 1316.21   2
  -2   5  -4 22949.2 1574.86   1
  -2   5  -5 84483.0 3367.91   4
  -2   5  -5 85440.7 3627.96   1
  -2   5  -5 92308.3 3147.59   2
  -2   5  -6 5248.29 733.927   4
  -2   5  -6 4852.82 573.631   2
  -2   5  -6 5276.08 835.088   1
  -2   5  -7 9355.67 1036.61   4
  -2   5  -7 8685.38 1112.76   1
  -2   5  -8 2354.81 658.406   1
  -2   5  -8 2917.10 627.482   4
  -2   5  -9 6233.66 1019.18   1
  -2   5  -9 8048.40 1105.43   4
  -2   5 -10 32587.9 2370.69   4
  -2   5 -11 19644.8 1914.40   4
  -2   5 -12 1171.68 604.000   4
  -2   5 -13 210.205 498.696   4
  -2   5 -14 58050.8 3823.22   4
  -2   5 -15-1121.31 765.318   4
   2  -4 -14 4.75172 648.798   5
   2  -4 -13 69451.4 4985.09   5
   2  -4 -12 3691.16 1160.19   5
   2  -4 -11 34094.7 3062.05   5
   2  -4 -10 1211.24 613.643   5
   2  -4  -9 56515.6 3627.90   5
   2  -4  -8 7988.80 1248.65   5
  -2   4   8 6080.44 384.144   3
  -2   4   7 769.345 204.846   3
   2  -4  -7 1069.91 521.770   5
  -2   4   6 15648.7 653.245   1
   2  -4  -6 15257.3 1567.99   5
  -2   4   6 17729.4 970.324   3
  -2   4   5 18275.1 1272.72   4
  -2   4   5 18571.6 1035.72   3
  -2   4   4 169.894 170.789   3
  -2   4   4 450.222 175.657   4
   2  -4  -4-27.4610 256.198   5
  -2   4   3 38345.6 1694.36   3
   2  -4  -3 33378.9 2133.95   5
  -2   4   3 36933.1 2199.53   5
  -2   4   2 5128.64 582.441   3
   2  -4  -2 3944.44 698.748   5
  -2   4   2 4599.55 704.070   5
  -2   4   1 1668.29 347.851   3
   2  -4  -1 769.489 357.310   5
  -2   4   1 1629.75 465.909   5
  -2   4   0 57618.3 2092.53   1
  -2   4   0 60011.8 2836.25   5
   2  -4   0 53501.2 2859.01   5
  -2   4  -1 3554.43 456.357   1
  -2   4  -1 4838.12 764.209   5
   2  -4   1 3414.63 700.627   5
   2  -4   2 45216.1 2817.46   5
  -2   4  -2 46301.2 2255.31   4
  -2   4  -2 49326.6 2769.30   5
  -2   4  -2 47074.9 2045.62   1
  -2   4  -3 27466.0 1610.97   4
  -2   4  -3 26206.5 1548.68   1
  -2   4  -4 200723. 6320.34   4
  -2   4  -4 203707. 7645.00   5
  -2   4  -4 202494. 5717.24   2
  -2   4  -4 212450. 6391.26   1
  -2   4  -5 48336.3 2372.44   4
  -2   4  -5 50527.4 3131.83   5
  -2   4  -5 50117.8 1898.29   2
  -2   4  -5 48481.7 2441.96   1
  -2   4  -5 50877.3 2410.18   3
  -2   4  -6 19753.0 1475.57   4
   2  -4   6 17835.5 1570.81   4
  -2   4  -6 17535.9 872.318   2
  -2   4  -6 18971.0 1480.67   1
  -2   4  -7 29901.9 2013.59   1
  -2   4  -7 30089.3 1952.34   4
  -2   4  -8 5598.78 876.083   4
  -2   4  -8 6080.52 925.419   1
  -2   4  -9 44116.8 2714.62   4
  -2   4 -10 2479.82 708.351   4
  -2   4 -11 12005.1 1562.68   4
  -2   4 -12 669.690 536.730   4
  -2   4 -13 1980.25 767.377   4
  -2   4 -14 11855.9 1731.28   4
  -2   4 -15 754.045 810.239   4
   2  -3 -14 3141.81 1198.91   5
   2  -3 -13 7219.19 1631.17   5
   2  -3 -12 165.103 506.636   5
   2  -3 -11 288.295 574.797   5
   2  -3 -10 10843.6 1645.63   5
   2  -3  -9 82734.0 4595.94   5
   2  -3  -8 16198.2 1798.01   5
   2  -3  -7 36602.5 2670.07   5
  -2   3   7 42074.7 1438.13   3
  -2   3   6 155.059 117.691   3
   2  -3  -6 73.1902 338.651   5
   2  -3  -5 41611.6 2569.42   5
  -2   3   5 43019.7 1612.42   3
  -2   3   5 42778.2 2121.47   4
   2  -3  -4 8655.04 1055.63   5
  -2   3   4 9980.78 1109.74   5
  -2   3   4 10087.7 891.698   4
   2  -3  -3 117364. 4651.97   5
  -2   3   3 135779. 4850.45   5
  -2   3   2 127460. 4436.64   5
  -2   3   2 111457. 2989.06   1
   2  -3  -2 119525. 4440.09   5
   2  -3  -1 13481.1 1252.13   5
  -2   3   1 14919.4 1251.48   5
  -2   3   1 14013.6 673.791   1
   2  -3   0 9573.06 1066.72   5
  -2   3   0 9872.41 628.707   1
  -2   3   0 9552.92 1013.28   5
   2  -3   1 17001.2 1560.24   5
  -2   3  -1 17251.0 1430.84   5
  -2   3  -1 19954.1 1038.41   1
  -2   3  -2 96.4019 229.272   4
   2  -3   2-3.78283 275.759   5
  -2   3  -2 314.865 302.349   5
  -2   3  -2 642.240 250.483   1
  -2   3  -3 1231.36 330.709   1
  -2   3  -3 1145.91 360.407   4
  -2   3  -4 4070.56 660.333   4
  -2   3  -4 4710.20 615.043   1
  -2   3  -5 4649.20 651.917   1
  -2   3  -5 4000.48 362.345   2
  -2   3  -5 3850.08 652.098   4
  -2   3  -5 4239.23 848.764   5
  -2   3  -6 60889.9 2930.99   4
   2  -3   6 59793.8 3124.92   4
  -2   3  -6 63796.7 2684.19   3
  -2   3  -7 173194. 6080.88   4
  -2   3  -7 174939. 5625.26   3
  -2   3  -8 20132.3 1689.85   4
  -2   3  -9 18680.8 1730.70   4
  -2   3 -10 44232.1 2918.07   4
  -2   3 -11 99168.6 4896.15   4
  -2   3 -12 9320.39 1458.46   4
  -2   3 -13 50446.6 3568.17   4
  -2   3 -14 1496.53 712.898   4
  -2   3 -15 13301.6 1965.13   4
   2  -2 -14 11839.3 2226.53   5
   2  -2 -13 12299.7 2182.00   5
   2  -2 -12 11470.8 1960.93   5
   2  -2 -11 6832.98 1430.35   5
   2  -2 -10 3630.72 1061.79   5
   2  -2  -9 737.341 539.976   5
   2  -2  -8 17497.3 1886.50   5
  -2   2   7 2672.10 237.017   3
   2  -2  -7 1806.52 586.919   5
   2  -2  -6 17188.5 1653.66   5
   2  -2  -5 49177.6 2812.65   5
  -2   2   5 50157.3 2342.13   4
   2  -2  -4 36856.3 2270.02   5
  -2   2   4 38809.7 1896.29   4
   2  -2  -3 151815. 5378.38   5
   2  -2  -2 522.846 339.977   5
   2  -2  -1 199555. 6453.44   5
   2  -2   0 2888.14 276.084   1
   2  -2   0 3143.29 587.974   5
   2  -2   1 64790.5 2103.84   1
   2  -2   1 59258.4 3056.59   5
   2  -2   2 139293. 5566.09   5
   2  -2   2 143662. 4208.48   1
  -2   2  -3 263264. 7870.59   4
   2  -2   3 252370. 8753.64   5
   2  -2   3 243297. 6925.48   1
  -2   2  -4 97605.4 3863.41   4
   2  -2   4 93921.4 3283.36   1
   2  -2   5 3538.39 534.347   1
  -2   2  -5 5137.06 768.942   4
  -2   2  -6 43222.4 2355.65   4
   2  -2   6 38033.8 1977.02   1
  -2   2  -7 6874.78 947.085   4
  -2   2  -8 3378.95 714.462   4
  -2   2  -8 3318.88 539.963   3
  -2   2  -9 7266.12 806.601   3
  -2   2  -9 6225.82 1009.01   4
  -2   2 -10 11810.3 1095.30   3
  -2   2 -10 11700.9 1467.49   4
  -2   2 -11 13550.0 1688.90   4
  -2   2 -12 48635.1 3408.82   4
  -2   2 -13 4783.50 1108.75   4
  -2   2 -14-225.316 665.354   4
  -2   2 -15 16195.6 2163.03   4
   2  -1 -14 1404.40 1087.27   5
   2  -1 -13 16590.5 2548.61   5
   2  -1 -12 49139.8 4186.64   5
   2  -1 -11 20761.9 2560.04   5
   2  -1 -10 50914.4 3824.27   5
   2  -1  -9 1455.47 751.513   5
   2  -1  -8 184818. 7607.36   5
  -2   1   8 195083. 4941.59   3
   2  -1  -7 20503.0 1951.72   5
  -2   1   7 19217.3 882.135   3
   2  -1  -6 64037.2 3444.82   5
   2  -1  -5 65619.0 3327.48   5
   2  -1  -4 18637.3 1531.52   5
   2  -1  -3 2647.72 562.271   5
   2  -1  -2 1927.60 461.258   5
   2  -1  -1 25403.4 1629.50   5
   2  -1   0 2433.57 496.489   5
   2  -1   1 11626.5 1151.25   5
   2  -1   2 11261.4 1248.89   5
   2  -1   3 71973.5 2636.29   1
   2  -1   3 72622.3 3712.00   5
  -2   1  -4 18300.6 1481.94   4
   2  -1   4 17395.2 1112.50   1
  -2   1  -5 50925.5 2556.47   4
  -2   1  -5 44780.5 1413.91   2
   2  -1   5 49440.6 2132.54   1
  -2   1  -6 21706.3 1646.71   4
   2  -1   6 22647.7 1429.24   1
  -2   1  -7 151827. 5620.47   4
  -2   1  -8 67825.2 3422.92   4
  -2   1  -9 14622.9 1544.87   4
  -2   1 -10 11755.2 1004.73   3
  -2   1 -10 10656.2 1399.74   4
  -2   1 -11 2298.04 465.484   3
  -2   1 -11 1888.32 779.152   4
  -2   1 -12 24722.9 2426.27   4
  -2   1 -13 340.733 615.315   4
  -2   1 -14 12561.9 1877.61   4
  -2   1 -15 852.089 652.416   4
  -2   1 -16 1818.03 859.727   4
   2   0 -14 1638.55 966.346   5
   2   0 -13 13480.7 2334.51   5
   2   0 -12 266.302 617.254   5
   2   0 -11 11779.4 1987.71   5
   2   0 -10 6513.41 1332.57   5
  -2   0   9 408.541 108.128   3
   2   0  -9 484.297 496.767   5
  -2   0   8 1418.37 240.602   3
   2   0  -8 1186.14 670.989   5
   2   0  -7 51790.0 3312.22   5
  -2   0   7 54893.1 1977.18   3
   2   0  -6 60603.6 3387.42   5
   2   0  -6 65336.1 2254.05   1
   2   0  -5 3367.39 358.624   1
   2   0  -5 3617.09 724.896   5
   2   0  -4 177763. 6200.40   5
   2   0  -3 17296.9 1352.82   5
   2   0  -2 14348.0 1185.95   5
   2   0  -1 1319.93 378.476   5
   2   0   0 143243. 4859.36   5
   2   0   1 45512.4 2348.72   5
   2   0   2 2448.04 582.764   5
  -2   0  -3 4912.80 767.831   4
  -2   0  -4 60583.0 2896.36   4
  -2   0  -4 56455.6 1895.95   2
  -2   0  -5 3593.95 658.038   4
  -2   0  -5 3976.79 409.861   2
  -2   0  -6 7138.65 970.884   4
  -2   0  -7 3127.94 681.754   4
  -2   0  -8 5377.69 908.070   4
  -2   0  -9 41973.9 2758.66   4
  -2   0 -10 84811.1 4354.92   4
  -2   0 -11 14372.5 1103.54   3
  -2   0 -11 13143.1 1688.36   4
  -2   0 -12 15195.9 1913.45   4
  -2   0 -13 36816.5 3124.43   4
  -2   0 -14 56442.0 4038.87   4
  -2   0 -15 421.214 661.460   4
  -2   0 -16 16987.1 2367.55   4
   2   1 -14 37814.9 4265.75   5
   2   1 -13 17508.8 2691.04   5
   2   1 -12 5640.16 1466.31   5
   2   1 -11 8621.37 1713.52   5
  -2  -1  10 7695.36 498.277   3
   2   1 -10 5815.74 1336.49   5
  -2  -1   9 52709.3 1957.13   3
   2   1  -9 42235.6 3426.67   5
   2   1  -8 38653.2 3063.87   5
  -2  -1   8 43179.8 1842.45   3
   2   1  -7 313.298 203.169   1
  -2  -1   7 504.727 199.443   3
   2   1  -7 524.765 349.139   5
  -2  -1   6 2617.31 397.420   3
   2   1  -6 2579.94 416.241   1
   2   1  -6 2060.84 596.891   5
   2   1  -5 3660.52 706.943   5
   2   1  -4 33991.6 2124.38   5
   2   1  -3 781.672 338.331   5
   2   1  -2 17098.3 1260.48   5
   2   1  -1 471.894 281.550   5
   2   1   0 316841. 8951.36   5
   2   1   1 26187.4 1651.25   5
  -2  -1  -1 29617.8 1569.40   5
  -2  -1  -2 129683. 3832.50   2
   2   1   2 123384. 4719.93   5
  -2  -1  -3 75670.0 3229.95   4
  -2  -1  -3 82245.9 3456.47   5
  -2  -1  -3 81571.3 2639.52   2
  -2  -1  -4 124070. 4527.50   4
  -2  -1  -4 112561. 3546.28   2
  -2  -1  -4 117684. 4493.43   5
  -2  -1  -5 14522.0 1288.00   4
  -2  -1  -5 12076.6 903.029   2
   2   1   6 83124.4 2686.23   2
  -2  -1  -6 89005.5 3734.75   4
  -2  -1  -7 215491. 7324.48   4
   2   1   7 218329. 5931.49   2
  -2  -1  -8 45704.2 2710.78   4
   2   1   8 42372.7 1660.27   2
  -2  -1  -9 5664.98 979.018   4
   2   1   9 4077.56 447.079   2
  -2  -1 -10 3989.67 934.991   4
   2   1  10 3443.67 414.619   2
   2   1  11 31188.2 1355.49   2
  -2  -1 -11 35039.7 2743.99   4
  -2  -1 -12 908.721 619.478   4
  -2  -1 -13-609.153 637.363   4
  -2  -1 -14 896.571 705.740   4
  -2  -1 -15 2542.57 1034.46   4
  -2  -1 -16 20562.5 2595.83   4
   2   2 -14 15645.1 2576.05   5
   2   2 -13 1986.77 1015.45   5
   2   2 -12 6413.93 1623.46   5
   2   2 -11 11761.0 1998.19   5
   2   2 -10 107748. 4228.20   1
  -2  -2  10 107641. 3490.16   3
   2   2  -9 22376.2 2425.96   5
  -2  -2   9 24658.1 1408.80   3
   2   2  -9 23918.6 1628.63   1
  -2  -2   8 3448.14 513.801   3
   2   2  -8 4227.01 1017.08   5
   2   2  -8 2962.27 533.432   1
  -2  -2   7 146018. 4686.29   3
   2   2  -7 140739. 6096.23   5
   2   2  -6 25968.4 2118.73   5
  -2  -2   6 29326.6 1567.80   3
   2   2  -5 113063. 4819.13   5
  -2  -2   5 125736. 4311.66   4
  -2  -2   5 124215. 4024.67   3
  -2  -2   4 2068.75 378.913   3
   2   2  -4 1745.75 505.503   5
   2   2  -3 222961. 6955.69   5
   2   2  -2 5213.90 664.256   5
  -2  -2   2 5781.28 659.713   5
   2   2  -1 2434.52 432.467   5
  -2  -2   1 2493.65 411.543   5
  -2  -2   0 64364.7 2403.24   5
   2   2   0 59237.0 2481.33   5
  -2  -2  -1 32541.7 1478.72   2
   2   2   1 32202.1 1752.30   5
  -2  -2  -1 35197.4 1616.22   5
   2   2   2 34798.3 1939.95   5
  -2  -2  -2 37373.3 1792.33   5
  -2  -2  -2 37043.2 1636.62   2
  -2  -2  -3 28933.8 1425.46   2
  -2  -2  -3 31148.8 1771.45   5
  -2  -2  -3 29470.8 1697.72   4
   2   2   4 20290.4 1153.98   2
  -2  -2  -4 21094.9 1538.31   4
  -2  -2  -4 20752.5 1490.82   5
  -2  -2  -4 18153.4 1176.87   2
  -2  -2  -5 6317.03 832.997   4
   2   2   5 5662.82 776.363   4
  -2  -2  -5 6458.47 742.886   2
   2   2   5 4967.47 564.607   2
  -2  -2  -6 45512.8 2466.73   4
   2   2   6 45884.0 2485.17   4
  -2  -2  -6 41989.8 2071.78   2
   2   2   6 46491.6 1984.98   2
   2   2   7 138.474 176.276   2
  -2  -2  -7 340.868 349.067   4
  -2  -2  -8 42297.5 2535.57   4
   2   2   8 38939.2 1883.87   2
  -2  -2  -9 5629.08 979.441   4
   2   2   9 5172.30 638.123   2
   2   2  10 85801.6 3203.03   2
  -2  -2 -10 88508.7 4374.78   4
  -2  -2 -11 36777.9 2804.34   4
   2   2  11 38788.4 1888.24   2
   2   2  12 23704.9 1400.73   2
  -2  -2 -12 23128.3 2297.90   4
  -2  -2 -13 6887.17 1321.19   4
  -2  -2 -14 1456.44 713.584   4
  -2  -2 -15 15692.0 2133.99   4
  -2  -2 -16 3005.89 1131.42   4
   2   3 -14 350.457 774.326   5
   2   3 -13 14765.1 2488.02   5
   2   3 -12 25573.3 3102.88   5
   2   3 -11 3020.08 700.640   1
   2   3 -11 2958.75 1108.65   5
  -2  -3  10 14479.2 1139.00   3
   2   3 -10 14997.2 1419.83   1
  -2  -3   9 315.699 295.126   3
   2   3  -9-172.172 447.203   5
   2   3  -9 83.4601 267.607   1
  -2  -3   8 1213.93 385.415   3
   2   3  -8 1838.67 502.405   1
   2   3  -8 1623.64 733.860   5
   2   3  -7 12775.8 1593.31   5
  -2  -3   7 15329.6 1230.13   3
   2   3  -6 7974.16 1152.25   5
  -2  -3   6 9597.50 926.671   3
   2   3  -5 16552.8 1510.36   5
  -2  -3   5 15194.8 1149.91   3
  -2  -3   5 15466.8 1185.81   4
   2   3  -4 42943.9 2407.38   5
  -2  -3   4 43931.4 2071.59   3
   2   3  -3 99617.9 3848.81   5
  -2  -3   3 106865. 3528.43   4
  -2  -3   3 102225. 3630.34   3
  -2  -3   2 6644.65 674.100   2
   2   3  -2 5709.35 670.525   5
  -2  -3   1 113346. 3710.46   2
   2   3  -1 109517. 3762.71   5
  -2  -3   1 111464. 3616.10   5
   2   3   0 47778.6 2031.62   5
  -2  -3   0 47018.5 1854.84   5
  -2  -3   0 46309.6 2006.24   2
  -2  -3  -1 108013. 3357.05   5
   2   3   1 102899. 3631.33   5
  -2  -3  -1 104899. 3584.63   2
  -2  -3  -2 8533.96 769.371   2
  -2  -3  -2 10046.0 750.514   5
   2   3   2 10187.4 907.961   5
   2   3   3 112760. 3883.70   2
  -2  -3  -3 115768. 3946.72   4
  -2  -3  -3 106848. 3761.71   5
  -2  -3  -3 110794. 3809.23   2
  -2  -3  -4 111246. 4073.18   4
  -2  -3  -4 103915. 3903.25   2
  -2  -3  -4 107610. 3941.23   5
   2   3   4 98992.1 3719.78   2
  -2  -3  -5 3837.32 640.261   2
  -2  -3  -5 3789.49 615.715   5
   2   3   5 3042.40 566.846   4
  -2  -3  -5 4300.11 662.467   4
   2   3   5 3719.48 595.147   2
  -2  -3  -6 17870.3 1409.57   4
   2   3   6 18367.0 1454.69   4
  -2  -3  -6 19192.1 1458.30   2
  -2  -3  -7 49760.2 2607.61   4
   2   3   7 49765.2 2673.26   4
  -2  -3  -8 2310.67 590.978   4
  -2  -3  -9 589.232 429.934   4
  -2  -3 -10 23743.9 2041.07   4
  -2  -3 -11 3073.89 833.413   4
  -2  -3 -12 13243.2 1641.65   4
  -2  -3 -13 42051.5 3159.20   4
  -2  -3 -14 6457.07 1329.95   4
  -2  -3 -15 14366.3 2003.45   4
  -2  -3 -16 31988.5 3137.62   4
   2   4 -14 2062.44 1068.89   5
   2   4 -13 11731.1 2195.32   5
   2   4 -12-484.583 476.404   1
   2   4 -12-153.254 619.045   5
   2   4 -11 69491.7 3644.76   1
   2   4 -11 51976.9 4319.53   5
   2   4 -10 7773.00 1121.42   1
  -2  -4  10 8175.59 951.528   3
   2   4 -10 4805.29 1173.64   5
   2   4  -9 7802.91 1051.99   1
  -2  -4   9 8091.28 976.872   3
   2   4  -8 30124.5 1987.51   1
  -2  -4   8 31375.4 1967.48   3
   2   4  -7 24408.3 2206.11   5
  -2  -4   7 32470.0 1989.57   3
   2   4  -6 26667.6 2133.75   5
  -2  -4   6 29139.1 1834.23   3
  -2  -4   5 764.717 279.141   4
  -2  -4   5 834.252 318.291   3
   2   4  -5 762.841 402.891   5
  -2  -4   4 27136.9 1580.06   2
   2   4  -4 27077.0 1826.72   5
  -2  -4   4 29241.6 1743.61   3
  -2  -4   3 13330.9 1049.49   2
   2   4  -3 11920.4 1067.47   5
  -2  -4   3 14119.2 973.403   4
  -2  -4   3 12853.1 1099.22   3
   2   4  -2 55731.0 2416.21   5
  -2  -4   2 60186.3 2656.31   3
  -2  -4   2 63018.6 2578.00   2
  -2  -4   1 235.936 250.694   3
   2   4  -1-17.2654 157.049   5
  -2  -4   1 112.622 171.065   2
   2   4   0 8141.90 673.634   5
  -2  -4   0 6875.95 559.939   5
  -2  -4   0 7301.47 758.240   2
  -2  -4  -1 48531.3 1735.54   5
   2   4   1 51189.9 2082.51   5
  -2  -4  -1 47224.3 2186.02   2
  -2  -4  -2 40028.8 1827.47   4
  -2  -4  -2 35381.4 1879.36   2
  -2  -4  -2 36823.6 1488.51   5
  -2  -4  -3 116317. 3823.33   4
  -2  -4  -3 110825. 4080.33   2
  -2  -4  -3 106290. 3466.91   5
  -2  -4  -4 2214.24 519.790   2
  -2  -4  -4 2464.46 432.137   5
  -2  -4  -4 3067.07 526.710   4
  -2  -4  -5 241758. 7343.25   4
  -2  -4  -5 253153. 7996.26   2
  -2  -4  -5 242945. 7391.67   5
  -2  -4  -6 758.235 304.816   4
   2   4   6 608.883 337.233   4
  -2  -4  -7 24417.8 1677.72   4
   2   4   7 23815.7 1681.92   4
   2   4   8 69118.7 3185.73   2
  -2  -4  -8 70802.6 3322.46   4
   2   4   9 110325. 4405.52   2
  -2  -4  -9 119537. 4822.37   4
   2   4  10 38669.3 2265.14   2
  -2  -4 -10 39030.7 2604.62   4
  -2  -4 -11 2237.41 716.303   4
   2   4  11 1590.78 496.264   2
  -2  -4 -11 1299.45 399.723   3
   2   4  12 17767.2 1480.15   2
  -2  -4 -12 14741.4 1719.81   4
  -2  -4 -13 16085.1 1850.14   4
  -2  -4 -14 2592.25 880.122   4
  -2  -4 -15 5578.90 1260.49   4
  -2  -4 -16 4090.56 1193.84   4
   2   5 -13 4191.11 1052.47   1
   2   5 -13 2124.25 1054.86   5
   2   5 -12 5161.97 1435.02   5
   2   5 -12 5367.53 1099.90   1
   2   5 -11 3163.79 929.284   1
   2   5 -11 2246.88 934.258   5
   2   5 -10 14490.3 1573.26   1
  -2  -5  10 16778.6 1484.24   3
   2   5 -10 12732.1 1901.04   5
   2   5  -9 36669.6 2478.06   1
   2   5  -9 32003.5 2859.36   5
  -2  -5   9 37787.1 2345.55   3
  -2  -5   8 399.633 377.241   3
   2   5  -8 132.833 395.187   5
  -2  -5   7 84397.5 3730.82   3
   2   5  -7 74210.8 4059.52   5
   2   5  -6 83648.6 4113.11   5
  -2  -5   6 96297.4 4018.52   3
   2   5  -5 84072.0 3787.23   5
  -2  -5   5 83408.7 3645.88   3
  -2  -5   5 82969.8 3236.90   4
   2   5  -4 59874.1 2838.45   5
  -2  -5   4 59248.9 2893.87   3
  -2  -5   3 4997.87 748.204   3
   2   5  -3 4747.36 642.576   5
  -2  -5   3 5468.03 596.133   4
   2   5  -2 263356. 7605.28   5
  -2  -5   2 268028. 7348.46   4
  -2  -5   2 280252. 8242.77   3
   2   5  -1 28051.7 1383.96   5
  -2  -5   1 27788.0 1754.45   3
   2   5   0 104973. 3253.77   5
  -2  -5   0 102161. 3849.06   2
  -2  -5   0 111689. 4105.10   3
   2   5   1 13663.3 778.964   5
  -2  -5  -1 13277.0 1142.88   2
  -2  -5  -1 13775.4 1202.70   3
  -2  -5  -2 14926.1 968.399   4
  -2  -5  -2 15312.6 697.972   5
  -2  -5  -2 15169.5 1273.80   2
  -2  -5  -2 15244.1 1237.18   3
  -2  -5  -3 5666.70 594.528   4
  -2  -5  -3 5751.82 798.625   2
  -2  -5  -3 5662.77 450.344   5
   2   5   3 5200.09 828.725   2
  -2  -5  -3 6021.34 788.639   3
  -2  -5  -4 16689.7 1130.35   4
  -2  -5  -4 16365.9 1021.24   5
   2   5   4 17365.1 1496.74   2
  -2  -5  -4 18301.3 1371.78   3
  -2  -5  -5 28162.3 1593.68   4
  -2  -5  -5 30719.7 1840.80   3
  -2  -5  -5 29143.0 1613.54   5
   2   5   5 25246.9 1871.98   2
  -2  -5  -6 1186.82 370.200   4
  -2  -5  -6 1387.98 399.363   3
   2   5   6 1247.66 352.697   4
   2   5   6 1157.63 451.836   2
   2   5   7 12648.2 1156.52   4
   2   5   7 11878.3 1267.21   2
  -2  -5  -7 11862.4 1101.48   3
  -2  -5  -7 10919.0 1067.20   4
  -2  -5  -8 4454.37 761.094   4
   2   5   8 3872.19 737.269   2
  -2  -5  -8 3732.65 631.873   3
   2   5   9 20113.9 1683.90   2
  -2  -5  -9 23320.0 1556.11   3
  -2  -5  -9 21655.2 1743.56   4
  -2  -5 -10 178.541 410.467   4
  -2  -5 -10 93.3470 239.603   3
   2   5  10-219.785 379.911   2
   2   5  11 15951.1 1490.09   2
  -2  -5 -11 16241.6 1246.65   3
  -2  -5 -11 16911.2 1693.49   4
  -2  -5 -12 3396.78 867.974   4
   2   5  12 3183.23 715.158   2
   2   5  13 35386.6 2298.36   2
  -2  -5 -13 34202.0 2694.41   4
  -2  -5 -14 12824.6 1724.90   4
  -2  -5 -15 10080.6 1613.09   4
   2   6 -13 15559.4 2012.21   1
   2   6 -13 14592.9 2439.30   5
   2   6 -12 21514.3 2763.01   5
   2   6 -12 17928.6 2075.05   1
  -2  -6  11 4180.88 816.826   3
   2   6 -11 2107.52 924.215   5
   2   6 -11 3425.45 844.349   1
   2   6 -10 40745.7 2882.53   1
   2   6 -10 42099.4 3407.87   5
  -2  -6  10 39540.5 2560.86   3
   2   6  -9 27641.3 2249.94   1
   2   6  -9 25331.2 2463.91   5
  -2  -6   9 28107.6 2112.77   3
  -2  -6   8 780.342 485.184   3
   2   6  -8 195.044 399.450   5
   2   6  -7 40303.2 2737.64   5
  -2  -6   7 39376.6 2533.86   3
  -2  -6   6 2561.29 627.221   3
   2   6  -6 2305.46 637.565   5
   2   6  -5 6941.80 958.478   5
  -2  -6   5 8155.25 1075.27   3
  -2  -6   5 6099.90 741.184   4
   2   6  -4 9039.64 982.718   5
  -2  -6   4 8280.98 1068.31   3
  -2  -6   3 3770.13 709.245   3
   2   6  -3 4378.28 599.648   5
  -2  -6   3 4124.76 498.729   4
   2   6  -2 10662.9 830.278   5
  -2  -6   2 11334.0 1182.29   3
  -2  -6   2 10179.0 749.277   4
   2   6  -1 83567.5 2661.81   5
  -2  -6   1 74908.4 2541.88   4
  -2  -6   1 80518.7 3546.62   3
   2   6   0 56273.3 3020.67   2
   2   6   0 55080.2 1817.72   5
  -2  -6   0 52638.0 2726.91   3
  -2  -6  -1 3716.33 428.850   4
  -2  -6  -1 3215.31 637.986   3
   2   6   1 3299.45 719.071   2
  -2  -6  -2 58653.8 2121.28   4
  -2  -6  -2 61794.6 2935.14   3
   2   6   2 58125.6 3131.47   2
  -2  -6  -3 21382.6 1140.29   4
   2   6   3 19778.8 1728.97   2
  -2  -6  -3 20811.4 1572.86   3
  -2  -6  -4 42583.8 1816.52   4
  -2  -6  -4 38393.1 1439.99   5
   2   6   4 38218.9 2477.83   2
  -2  -6  -4 41907.0 2326.43   3
  -2  -6  -5 14436.5 1032.37   4
  -2  -6  -5 12761.9 931.476   5
   2   6   5 11444.5 1298.89   2
  -2  -6  -5 13297.6 1250.49   3
  -2  -6  -6 50778.6 2344.07   5
   2   6   6 50753.9 2903.61   2
  -2  -6  -6 55166.0 2752.42   3
  -2  -6  -6 52771.0 2366.13   4
   2   6   7 22828.4 1561.95   4
   2   6   7 24102.1 1926.13   2
  -2  -6  -7 25206.6 1763.56   3
  -2  -6  -7 25301.8 1635.31   4
  -2  -6  -8 642.441 350.395   4
  -2  -6  -8 512.600 312.259   3
   2   6   8 221.632 359.179   2
  -2  -6  -9 967.177 405.415   3
  -2  -6  -9 1181.17 460.408   4
   2   6   9 891.875 417.108   2
   2   6  10 25191.6 1979.01   2
  -2  -6 -10 24659.1 1705.86   3
  -2  -6 -10 25900.9 1944.32   4
  -2  -6 -11 442.420 274.277   3
  -2  -6 -11-66.1489 361.964   4
   2   6  11 162.599 430.160   2
  -2  -6 -12 398.427 441.402   4
   2   6  12-58.0523 349.438   2
   2   6  13 12471.9 1402.88   2
  -2  -6 -13 13858.0 1647.80   4
  -2  -6 -14-118.879 436.895   4
  -2  -6 -15 10415.9 1579.33   4
   2   7 -13 1672.80 859.107   1
   2   7 -13-121.607 608.399   5
   2   7 -12 3133.82 983.284   1
   2   7 -12 3237.88 1153.59   5
  -2  -7  11 900.439 406.317   3
   2   7 -11 691.205 584.367   1
   2   7 -11 346.365 636.689   5
   2   7 -10 18815.2 2044.12   1
   2   7 -10 17434.6 2121.65   5
  -2  -7  10 15967.5 1678.37   3
  -2  -7   9 127.503 386.205   3
   2   7  -9 354.547 562.552   5
  -2  -7   8 53641.0 3189.83   3
   2   7  -8 50488.0 3296.68   5
   2   7  -7 15121.1 1608.08   5
  -2  -7   7 17459.2 1722.41   3
   2   7  -6 21035.0 1767.68   5
  -2  -7   6 22338.0 1955.67   3
  -2  -7   5 2422.51 717.193   3
   2   7  -5 1347.43 443.202   5
  -2  -7   4 6194.75 996.205   3
   2   7  -4 5687.98 729.544   5
   2   7  -3 47621.9 2117.36   5
  -2  -7   3 48559.3 2855.25   3
  -2  -7   3 46861.6 1972.17   4
   2   7  -2 21265.8 1146.85   5
  -2  -7   2 21120.7 1770.34   3
  -2  -7   2 19830.1 1068.27   4
   2   7  -1 3837.98 793.372   2
  -2  -7   1 5121.28 829.326   3
   2   7  -1 5494.74 417.303   5
  -2  -7   1 5133.55 469.229   4
  -2  -7   0 311.454 137.465   4
  -2  -7   0 157.518 318.443   3
   2   7   0 10.3155 315.916   2
  -2  -7  -1 6440.82 486.665   4
  -2  -7  -1 6242.93 962.140   3
   2   7   1 6856.26 1056.84   2
  -2  -7  -2 32325.1 1294.29   4
  -2  -7  -2 30326.1 2113.92   3
   2   7   2 33402.1 2360.81   2
  -2  -7  -3 21075.4 1049.42   4
  -2  -7  -3 20538.3 1694.59   3
   2   7   3 22313.8 1919.53   2
  -2  -7  -4 1684.07 315.234   4
  -2  -7  -4 876.246 414.481   3
   2   7   4 1264.09 534.272   2
  -2  -7  -5 1692.51 516.203   3
  -2  -7  -5 1295.89 295.848   4
  -2  -7  -5 1365.03 231.167   5
   2   7   5 1774.02 604.663   2
  -2  -7  -5 1518.86 236.827   5
  -2  -7  -6 197456. 5850.14   5
   2   7   6 197854. 7122.77   2
  -2  -7  -6 191927. 6740.91   3
  -2  -7  -6 193480. 5931.06   4
  -2  -7  -7 10794.8 999.050   5
   2   7   7 11599.7 1365.33   2
  -2  -7  -7 11028.8 1245.32   3
  -2  -7  -7 11015.4 1018.82   4
   2   7   8 49231.8 2962.62   2
  -2  -7  -8 48828.2 2756.65   3
  -2  -7  -8 51830.4 2527.66   4
  -2  -7  -9 2054.78 557.548   3
  -2  -7  -9 4390.96 738.099   4
   2   7   9 3678.07 809.781   2
   2   7  10 88861.3 4221.01   2
  -2  -7 -10 83356.1 3811.03   3
  -2  -7 -10 90489.6 3903.74   4
  -2  -7 -11 2521.26 668.172   4
   2   7  11 3330.42 773.352   2
   2   7  12 24629.3 2069.40   2
  -2  -7 -12 25217.2 2091.09   4
  -2  -7 -13 61152.9 3651.93   5
   2   7  13 52379.1 3170.85   2
  -2  -7 -13 55337.5 3365.93   4
  -2  -7 -14 19441.4 2011.31   4
  -2  -7 -15 2529.16 936.407   4
   2   8 -12 1013.19 726.348   5
   2   8 -12 1138.66 769.899   1
  -2  -8  11 115.865 382.659   3
   2   8 -11 1337.60 766.078   5
  -2  -8  10 386.058 418.185   3
   2   8 -10 823.499 750.623   1
   2   8 -10-40.2428 448.763   5
  -2  -8   9 548.641 581.033   3
   2   8  -9 495.016 474.166   5
   2   8  -8 11645.6 1495.43   5
  -2  -8   8 11083.2 1471.92   3
  -2  -8   7 140.893 379.716   3
   2   8  -7 317.723 415.996   5
  -2  -8   6 8572.74 1272.27   3
   2   8  -6 8137.16 1064.74   5
   2   8  -5 10300.9 1093.00   5
  -2  -8   5 12561.4 1504.71   3
   2   8  -4 128554. 4426.29   5
  -2  -8   4 129718. 5570.17   3
   2   8  -3 22286.4 1265.21   5
  -2  -8   3 22670.7 2008.04   3
  -2  -8   3 22105.6 1219.11   4
   2   8  -2 36044.4 1404.19   5
  -2  -8   2 33955.3 2465.83   3
  -2  -8   2 34142.0 1467.38   4
   2   8  -1 63752.1 3664.63   2
  -2  -8   1 69550.1 3619.08   3
  -2  -8   1 64931.6 2117.56   4
   2   8   0 54442.4 3265.25   2
  -2  -8   0 52192.7 1638.90   4
  -2  -8   0 57164.9 3185.42   3
  -2  -8   0 51304.3 1620.07   4
  -2  -8  -1 118279. 3013.23   4
  -2  -8  -1 123478. 5029.83   3
   2   8   1 118083. 5147.95   2
  -2  -8  -2 1450.14 531.846   3
  -2  -8  -2 1145.33 151.024   4
   2   8   2 1210.73 561.661   2
  -2  -8  -3 117550. 4913.74   3
   2   8   3 121485. 5189.23   2
  -2  -8  -3 110352. 3165.37   4
  -2  -8  -4 293.393 348.887   3
  -2  -8  -4-35.1446 135.689   4
   2   8   4 169.470 369.129   2
  -2  -8  -5 11361.4 1362.77   3
  -2  -8  -5 13495.7 879.822   4
  -2  -8  -6 6946.93 1068.79   3
  -2  -8  -6 7062.57 449.656   5
   2   8   6 8296.26 1230.18   2
  -2  -8  -6 7093.36 684.668   4
  -2  -8  -7 14699.9 937.695   5
  -2  -8  -7 14127.3 1501.37   3
   2   8   7 13459.5 1550.03   2
  -2  -8  -7 14494.3 1083.77   4
  -2  -8  -8 5337.52 945.756   3
   2   8   8 6974.86 1101.37   2
  -2  -8  -8 7919.80 848.007   4
  -2  -8  -9 239.301 336.730   3
  -2  -8  -9 486.453 329.034   4
   2   8   9 418.113 502.742   2
  -2  -8 -10 4275.56 822.813   3
  -2  -8 -10 5754.39 853.600   4
   2   8  10 3634.24 866.240   2
  -2  -8 -11 161.934 378.132   4
   2   8  11 765.367 541.626   2
  -2  -8 -12 7719.38 1119.64   4
   2   8  12 8252.86 1237.96   2
   2   8  13 1993.59 687.609   2
   2   9 -11 56505.5 4213.81   1
   2   9 -10 18683.6 2281.71   1
  -2  -9  10 16650.9 1884.88   3
   2   9  -9 38340.3 2817.82   5
  -2  -9   9 35475.7 2822.44   3
  -2  -9   8 155.488 495.008   3
   2   9  -8 584.782 451.291   5
   2   9  -7 40050.8 2512.66   5
  -2  -9   7 37323.4 2834.67   3
   2   9  -6 41520.4 2392.29   5
  -2  -9   6 41601.0 2989.45   3
  -2  -9   5 5021.64 1060.79   3
   2   9  -5 3534.34 587.021   5
  -2  -9   4 7962.06 1291.65   3
   2   9  -4 8742.95 815.669   5
  -2  -9   3 663.209 501.847   3
   2   9  -3 269.692 187.222   5
  -2  -9   2 765.386 403.494   3
   2   9  -1 15270.3 1756.93   2
  -2  -9   1 18176.6 1852.93   3
  -2  -9   0 1299.68 597.979   3
   2   9   0 770.436 513.043   2
  -2  -9  -1 5975.40 1061.47   3
   2   9   1 4903.45 983.527   2
  -2  -9  -2 29098.5 2377.18   3
   2   9   2 34101.4 2578.24   2
  -2  -9  -3 39336.0 2785.62   3
   2   9   3 43751.6 2943.72   2
  -2  -9  -4 1021.46 548.795   3
   2   9   4 409.838 541.125   2
  -2  -9  -5 19329.3 1899.32   3
   2   9   5 20490.7 1990.38   2
  -2  -9  -6 5906.70 1076.09   3
   2   9   6 7431.75 1185.24   2
  -2  -9  -7 47823.8 3112.82   3
   2   9   7 53536.0 3269.81   2
  -2  -9  -8 4771.89 951.902   3
   2   9   8 5594.71 1056.16   2
  -2  -9  -9 13963.2 1586.44   3
   2   9   9 13681.8 1626.00   2
  -2  -9 -10 5094.56 1001.95   3
   2   9  10 6332.98 1167.70   2
   2   9  11-563.948 497.909   2
   2   9  12 1080.29 672.218   2
   2   9  13 17885.4 1863.84   2
  -2 -10  10-229.803 335.781   3
  -2 -10   9 3593.50 950.199   3
  -2 -10   8 61.8566 442.123   3
  -2 -10   7 7437.32 1318.87   3
  -2 -10   6 5252.31 1120.24   3
  -2 -10   5 70504.4 4161.69   3
  -2 -10   4 10704.0 1582.24   3
  -2 -10   3 8265.84 1377.90   3
  -2 -10   2 9066.45 1435.93   3
   2  10  -1 18410.5 1968.40   2
  -2 -10   1 19640.0 2042.41   3
   2  10   0 20810.7 2051.72   2
  -2 -10   0 18119.3 1961.76   3
  -2 -10  -1 1438.41 693.410   3
   2  10   1 785.194 561.074   2
  -2 -10  -2 13227.8 1685.55   3
   2  10   2 13222.1 1658.76   2
  -2 -10  -3 11233.2 1573.01   3
   2  10   3 10450.0 1461.32   2
  -2 -10  -4 10564.8 1502.42   3
   2  10   4 12486.0 1615.56   2
  -2 -10  -5 780.389 554.480   3
   2  10   5 1121.50 581.553   2
  -2 -10  -6 496.881 534.467   3
   2  10   6 101.354 523.304   2
  -2 -10  -7 4291.82 1045.41   3
   2  10   7 4688.94 1019.07   2
  -2 -10  -8 19795.3 2038.89   3
   2  10   8 21142.5 2050.66   2
  -2 -10  -9 26052.2 2315.94   3
   2  10   9 24540.2 2250.74   2
   2  10  10 1996.19 746.859   2
   2  10  11 50909.9 3355.17   2
   2  10  12 3754.75 961.605   2
  -2 -11   8 2238.84 827.970   3
  -2 -11   7 6800.22 1363.36   3
  -2 -11   6 4412.94 1156.76   3
  -2 -11   5 546.370 618.788   3
  -2 -11   4-288.096 490.469   3
  -2 -11   3 17248.1 2051.76   3
  -2 -11   2 1263.85 762.607   3
   2  11  -1 60951.9 3850.74   2
  -2 -11   1 57976.3 3834.56   3
   2  11   0 28353.4 2522.76   2
  -2 -11   0 25828.0 2501.05   3
   2  11   1 44804.4 3192.13   2
  -2 -11  -1 46784.6 3369.66   3
  -2 -11  -2 12296.9 1739.78   3
   2  11   2 15314.1 1821.85   2
  -2 -11  -3 24905.2 2446.58   3
   2  11   3 27555.1 2436.32   2
  -2 -11  -4 55763.7 3755.80   3
   2  11   4 58052.5 3640.74   2
  -2 -11  -5 8903.61 1456.16   3
   2  11   5 10167.6 1472.15   2
  -2 -11  -6 52461.8 3629.48   3
   2  11   6 57354.7 3571.36   2
  -2 -11  -7-494.868 441.015   3
   2  11   7 534.840 523.803   2
  -2 -11  -8 11515.1 1632.01   3
   2  11   8 10138.7 1462.52   2
  -2 -11  -9 285.026 489.314   3
   2  11   9-172.898 500.402   2
   2  11  10 8583.55 1338.32   2
  -2 -12   5 1681.74 936.444   3
  -2 -12   4 63612.3 4200.50   3
  -2 -12   3 12956.3 1835.67   3
  -2 -12   2 576.921 575.998   3
   2  12  -1 11382.0 1654.41   2
  -2 -12   1 11475.0 1729.77   3
   2  12   0 3467.95 970.808   2
  -2 -12   0 4574.87 1118.80   3
  -2 -12  -1-103.256 576.142   3
   2  12   1 89.3616 528.879   2
  -2 -12  -2 4607.42 1189.68   3
   2  12   2 2867.54 953.668   2
  -2 -12  -3-536.235 656.615   3
   2  12   3 80.3905 599.072   2
  -2 -12  -4-1123.87 659.883   3
   2  12   4-10.9675 589.989   2
  -2 -12  -5 24980.2 2563.17   3
   2  12   5 24066.0 2311.21   2
  -2 -12  -6 13764.0 1916.84   3
   2  12   6 13378.0 1764.88   2
  -2 -12  -7-1268.26 709.108   3
   2  12   7 321.221 555.225   2
  -2 -12  -8 12048.3 1730.43   3
   2  13   0 18780.0 2153.42   2
  -2 -13   0 22544.7 2509.56   3
  -2 -13  -1 638.991 725.862   3
   2  13   1 611.493 622.112   2
  -2 -13  -2 4039.59 1045.34   3
   2  13   2 4684.20 1091.02   2
  -2 -13  -3 25971.0 2726.63   3
   2  13   3 27834.9 2569.48   2
  -2 -13  -4 350.828 511.702   3
  -2 -13  -5 65.7003 677.462   3
  -2 -13  -6 196.952 712.505   3
  -2 -13  -7 1306.64 757.345   3
  -3  13   0 7387.48 1228.89   2
  -3  13  -1 1511.96 579.317   2
  -3  13  -2-579.463 460.600   2
  -3  13  -2-135.126 415.559   1
  -3  13  -3-1257.61 606.707   2
  -3  13  -3 490.247 491.364   1
  -3  13  -4 1111.38 659.844   1
  -3  12   3 207.217 493.862   2
  -3  12   2 4036.93 971.803   2
  -3  12   1 10246.1 1407.79   2
  -3  12   0 860.356 511.452   1
  -3  12   0 3383.88 868.664   2
  -3  12  -1 20197.7 1960.87   1
  -3  12  -1 32286.3 2405.14   2
  -3  12  -2 1253.65 525.251   2
  -3  12  -2-369.672 405.250   1
  -3  12  -3 1399.51 546.104   2
  -3  12  -3 1497.27 607.389   1
  -3  12  -4 410.331 406.548   2
  -3  12  -4 1100.42 552.843   1
  -3  12  -5 11199.3 1690.03   1
  -3  12  -6 3448.86 1031.51   1
  -3  11   6 4991.56 1217.46   2
  -3  11   5 1104.58 617.572   2
  -3  11   4 2316.63 823.089   2
  -3  11   3 3328.43 910.366   2
  -3  11   2-496.347 418.658   2
  -3  11   1 103.432 304.042   1
  -3  11   1 495.967 471.053   2
  -3  11   0 12388.4 1392.53   1
  -3  11   0 12997.1 1536.21   2
  -3  11  -1 9548.19 1300.60   2
  -3  11  -1 9450.57 1253.49   1
  -3  11  -2 1012.07 525.090   1
  -3  11  -2 1002.46 507.482   2
  -3  11  -3 16542.1 1626.47   2
  -3  11  -3 15051.0 1737.44   1
  -3  11  -4 1856.24 581.339   2
  -3  11  -4 364.619 557.892   1
  -3  11  -5 51932.7 3533.73   1
  -3  11  -5 53868.8 2934.78   2
  -3  11  -6-118.858 546.103   1
  -3  11  -7 32136.1 2901.70   1
  -3  11  -8 12481.7 1851.93   1
   3 -10  -7 10548.6 1542.06   5
   3 -10  -6 14050.4 1707.09   5
   3 -10  -5 72629.2 4084.61   5
   3 -10  -4 13130.9 1668.95   5
  -3  10   3 4831.19 1032.33   2
   3 -10  -3 2934.23 921.447   5
  -3  10   2 56812.2 2846.46   1
   3 -10  -2 60420.9 3705.66   5
  -3  10   2 67792.4 3632.61   2
  -3  10   1 3903.91 844.788   2
  -3  10   1 3550.88 702.948   1
   3 -10  -1 1856.17 699.962   5
  -3  10   0 17513.8 1738.88   2
  -3  10   0 19897.3 1682.63   1
   3 -10   0 21895.7 2077.48   5
  -3  10  -1-63.1227 314.014   2
  -3  10  -1-81.3371 405.689   1
  -3  10  -2 48723.2 2962.35   1
  -3  10  -2 52044.6 2955.95   2
  -3  10  -3 513.593 390.651   2
  -3  10  -3 182.971 457.368   1
  -3  10  -4 2752.36 657.873   2
  -3  10  -4 2773.49 747.506   1
  -3  10  -5 3389.88 885.649   1
  -3  10  -5 3666.95 715.606   2
  -3  10  -6 3124.83 665.533   2
  -3  10  -6 1744.49 760.503   1
  -3  10  -7 2516.78 968.485   1
  -3  10  -8 493.935 577.177   1
  -3  10  -9 4232.64 1265.45   1
   3  -9 -10 12739.8 2036.88   5
   3  -9  -9 7494.81 1465.12   5
   3  -9  -8 7232.32 1399.52   5
   3  -9  -7 3132.53 978.753   5
   3  -9  -6 3511.78 969.418   5
   3  -9  -5 9750.23 1490.90   5
   3  -9  -4 1371.75 633.810   5
  -3   9   3 13153.0 1090.41   1
   3  -9  -3 13675.4 1714.82   5
  -3   9   2 22181.2 1515.04   1
   3  -9  -2 20070.0 2066.38   5
  -3   9   1 1435.06 410.499   1
   3  -9  -1 2282.15 774.405   5
  -3   9   0 1802.08 599.592   2
  -3   9   0 1726.06 431.382   4
   3  -9   0 1695.97 722.260   5
  -3   9   0 1860.19 519.957   1
  -3   9  -1 11284.6 987.733   4
  -3   9  -1 11454.6 1282.07   2
  -3   9  -1 10729.8 1195.46   1
   3  -9   1 12589.8 1590.55   5
  -3   9  -2 17520.8 1233.34   4
  -3   9  -2 17768.1 1583.71   2
  -3   9  -2 19117.2 1679.70   1
  -3   9  -3 864.869 367.958   2
  -3   9  -3 1347.04 372.684   4
  -3   9  -3 1413.62 594.955   1
  -3   9  -4 47508.1 2256.66   4
  -3   9  -4 49197.2 3054.89   1
  -3   9  -4 47766.7 2617.08   2
  -3   9  -5 2159.37 722.447   1
  -3   9  -5 1565.36 478.344   2
  -3   9  -5 1200.60 387.097   4
  -3   9  -6 9183.38 996.705   4
  -3   9  -6 8899.62 1393.06   1
  -3   9  -6 10346.2 1078.27   2
  -3   9  -7 3884.21 695.226   4
  -3   9  -7 4539.28 1094.33   1
  -3   9  -8 14301.3 1893.08   1
  -3   9  -8 10958.8 1189.68   4
  -3   9  -9 13033.9 1373.40   4
  -3   9  -9 12631.4 1849.51   1
  -3   9 -10 977.927 510.410   4
  -3   9 -10 638.119 593.364   1
  -3   9 -11 2357.25 694.844   4
  -3   9 -12 794.874 554.730   4
   3  -8 -11 2295.53 963.468   5
   3  -8 -10 9503.51 1691.01   5
   3  -8  -9 7736.38 1529.99   5
   3  -8  -8 10971.4 1663.74   5
   3  -8  -7 503.067 522.002   5
   3  -8  -6 30142.2 2580.08   5
   3  -8  -5 16252.6 1825.74   5
  -3   8   4 4948.99 554.604   1
   3  -8  -4 5201.31 1116.82   5
  -3   8   3 4934.45 616.606   1
   3  -8  -3 5095.87 1063.51   5
  -3   8   2 83.2123 188.704   1
   3  -8  -2 997.784 486.097   5
   3  -8  -1 2277.90 754.601   5
  -3   8   1 2711.75 534.802   1
   3  -8   0 5420.00 1107.05   5
  -3   8   0 5052.93 748.013   1
  -3   8  -1-154.482 228.440   4
   3  -8   1 303.423 431.756   5
  -3   8  -2 833.180 406.814   2
  -3   8  -2 386.319 297.399   4
  -3   8  -2 1322.16 493.622   1
  -3   8  -3 37737.6 2008.45   4
  -3   8  -3 36848.1 2190.90   2
  -3   8  -3 37093.9 2380.76   1
  -3   8  -4 9440.47 964.798   4
  -3   8  -4 9840.84 1059.87   2
  -3   8  -4 10682.1 1297.48   1
  -3   8  -5 4400.80 905.396   1
  -3   8  -5 3229.24 608.625   2
  -3   8  -5 3153.48 578.500   4
  -3   8  -6 22276.9 1593.17   4
  -3   8  -6 23344.6 1560.69   2
  -3   8  -6 21764.3 2033.07   1
  -3   8  -7 7150.88 1225.64   1
  -3   8  -7 5991.29 863.378   4
  -3   8  -7 4691.23 703.772   2
  -3   8  -8 47002.0 2619.14   4
  -3   8  -8 46217.7 3245.45   1
  -3   8  -9-34.3329 391.388   4
  -3   8  -9 887.766 583.264   1
  -3   8 -10 81054.8 3950.86   4
  -3   8 -11 3982.79 959.613   4
  -3   8 -12 9022.76 1341.36   4
  -3   8 -13 8805.50 1382.95   4
   3  -7 -12-3087.30 1161.29   5
   3  -7 -11 315.085 683.039   5
   3  -7 -10 1754.19 873.941   5
   3  -7  -9 1490.78 776.170   5
   3  -7  -8 13055.7 1844.37   5
   3  -7  -7 7235.57 1300.72   5
   3  -7  -6 11553.6 1571.34   5
   3  -7  -5 19002.8 1939.10   5
  -3   7   4 52394.9 1899.63   1
   3  -7  -4 56651.9 3405.77   5
  -3   7   3 1557.30 309.976   1
   3  -7  -3 1716.09 701.679   5
  -3   7   2 59735.3 2413.95   1
   3  -7  -2 61782.9 3633.68   5
   3  -7  -1 71499.9 4103.67   5
  -3   7   1 74762.9 2932.77   1
   3  -7   0 83938.4 4607.70   5
  -3   7   0 81646.9 3266.39   1
  -3   7  -1 42719.7 2306.31   4
  -3   7  -1 38710.7 2149.27   1
   3  -7   1 40201.4 2990.85   5
  -3   7  -2 1762.09 450.899   4
   3  -7   2 2250.20 707.608   5
  -3   7  -2 1967.45 513.151   1
  -3   7  -3 98411.2 3862.32   4
  -3   7  -3 102730. 4201.90   1
  -3   7  -4 9804.75 1029.63   4
  -3   7  -4 11837.8 1079.37   2
  -3   7  -4 11149.4 1246.68   1
  -3   7  -5 39186.1 2175.40   4
  -3   7  -5 40849.9 2598.14   1
  -3   7  -5 40435.1 2104.27   2
  -3   7  -6 10780.1 1126.57   4
  -3   7  -6 13208.0 1068.30   2
  -3   7  -6 12461.6 1457.16   1
  -3   7  -7 4462.34 637.558   2
  -3   7  -7 2395.02 758.689   1
  -3   7  -7 3513.78 683.850   4
  -3   7  -8 2443.78 736.414   1
  -3   7  -8 2200.93 600.890   4
  -3   7  -9 907.569 437.014   4
  -3   7  -9 1400.91 672.558   1
  -3   7 -10 3807.59 815.441   4
  -3   7 -11 1320.16 600.028   4
  -3   7 -12 17193.3 1861.19   4
  -3   7 -13 2184.08 912.025   4
  -3   7 -14 13597.7 1765.19   4
   3  -6 -12 513.541 693.030   5
   3  -6 -11 19921.8 2518.01   5
   3  -6 -10 3742.38 1198.37   5
   3  -6  -9 53681.2 3950.15   5
   3  -6  -8 32590.9 2906.99   5
   3  -6  -7 27559.9 2526.98   5
   3  -6  -6 2271.00 719.707   5
   3  -6  -5 18446.9 1902.25   5
   3  -6  -4 2250.74 794.935   5
  -3   6   3 2449.68 310.800   1
   3  -6  -3 1648.46 632.969   5
  -3   6   2 12275.2 815.404   1
   3  -6  -2 10871.2 1412.45   5
  -3   6   1 3243.19 458.993   1
   3  -6  -1 3304.53 797.041   5
   3  -6   0 14125.2 1750.13   5
  -3   6   0 13844.4 1043.62   1
   3  -6   1 23396.8 2272.52   5
  -3   6  -1 24120.4 1503.59   1
  -3   6  -2 5902.98 848.157   4
   3  -6   2 6195.84 1158.89   5
  -3   6  -2 6580.57 809.334   1
  -3   6  -3 3864.25 675.306   4
  -3   6  -3 3121.11 612.621   1
   3  -6   3 2754.81 845.097   5
  -3   6  -4 52529.1 2634.20   4
  -3   6  -4 50559.2 2719.14   1
  -3   6  -5 31750.3 1975.64   4
  -3   6  -5 29440.1 1643.96   2
  -3   6  -5 33042.9 2190.57   1
  -3   6  -6 607.221 268.906   2
  -3   6  -6 445.284 312.695   4
  -3   6  -6 434.119 381.255   1
  -3   6  -7 69926.6 3358.69   4
  -3   6  -7 68535.9 3676.12   1
  -3   6  -7 77847.9 2865.52   2
  -3   6  -8 123.379 307.693   4
  -3   6  -9 9340.57 1189.05   4
  -3   6 -10 2737.32 772.239   4
  -3   6 -11 26017.4 2221.59   4
  -3   6 -12 6567.14 1215.31   4
  -3   6 -13 1674.01 734.357   4
  -3   6 -14 811.212 604.955   4
   3  -5 -12 7037.67 1537.44   5
   3  -5 -11 1997.94 943.127   5
   3  -5 -10 345.731 524.946   5
   3  -5  -9 8229.11 1513.55   5
   3  -5  -8 3936.70 1002.65   5
   3  -5  -7 41993.1 3152.79   5
   3  -5  -6 2740.72 792.436   5
   3  -5  -5 17177.1 1809.95   5
   3  -5  -4 11123.1 1406.49   5
  -3   5   4 13550.3 1058.12   3
   3  -5  -3 82729.2 4254.80   5
  -3   5   3 98260.7 3562.44   3
   3  -5  -2 25810.7 2137.68   5
   3  -5  -1 14219.0 1595.69   5
  -3   5   1 12982.9 846.990   1
   3  -5   0 23043.1 2121.63   5
  -3   5   0 25671.6 1356.08   1
  -3   5  -1 2320.38 433.960   1
   3  -5   1 2573.96 799.730   5
  -3   5  -2 10019.7 1147.13   4
   3  -5   2 8313.25 1304.40   5
  -3   5  -2 7599.16 819.539   1
  -3   5  -3 2328.45 587.594   4
   3  -5   3 1852.78 658.716   5
  -3   5  -3 1636.68 457.125   1
  -3   5  -4 1245.77 432.505   1
  -3   5  -4 319.947 259.700   4
  -3   5  -5 164.261 258.055   4
  -3   5  -5 256.716 316.158   1
  -3   5  -6 29062.6 1955.74   4
  -3   5  -6 27767.7 1391.34   2
  -3   5  -7 21883.7 1728.74   4
  -3   5  -7 23285.9 1215.56   2
  -3   5  -8 20586.2 1749.47   4
  -3   5  -9 7907.96 1141.88   4
  -3   5 -10 1550.20 567.674   4
  -3   5 -11 76190.8 4083.37   4
  -3   5 -12 676.175 556.147   4
  -3   5 -13 47894.3 3416.28   4
  -3   5 -14 3883.39 1094.88   4
   3  -4 -13 3203.46 1290.10   5
   3  -4 -12 22428.0 2811.98   5
   3  -4 -11-407.835 624.618   5
   3  -4 -10 578.534 625.533   5
   3  -4  -9 9458.50 1583.61   5
   3  -4  -8 18567.5 2142.59   5
   3  -4  -7 2797.96 867.833   5
  -3   4   6 4406.26 517.158   3
   3  -4  -6 5125.20 1033.25   5
   3  -4  -5 23.7162 410.427   5
   3  -4  -4 5922.28 1039.30   5
   3  -4  -3 102368. 4672.32   5
   3  -4  -2 264.498 329.078   5
   3  -4  -1 21034.3 1905.92   5
   3  -4   0 36434.3 2651.12   5
   3  -4   1 229456. 8448.79   5
   3  -4   2 35030.1 2738.65   5
  -3   4  -3 35088.7 2207.80   4
   3  -4   3 29535.7 2510.72   5
  -3   4  -4 93837.7 4002.00   4
  -3   4  -5 20104.8 1647.72   4
  -3   4  -6 44946.1 2579.59   4
  -3   4  -6 44010.3 1690.24   2
  -3   4  -7 656.085 330.356   4
  -3   4  -7 446.863 146.029   2
  -3   4  -8 120734. 5006.64   4
  -3   4  -9 22.3591 340.427   4
  -3   4 -10 2172.38 766.573   4
  -3   4 -11 807.338 590.309   4
  -3   4 -12 1942.44 762.826   4
  -3   4 -13 116.330 536.162   4
  -3   4 -14 2237.49 951.388   4
  -3   4 -15 2378.50 981.561   4
   3  -3 -13 20671.9 2835.34   5
   3  -3 -12 14307.0 2256.70   5
   3  -3 -11 4143.87 1226.40   5
   3  -3 -10 87076.1 5305.01   5
   3  -3  -9 8296.33 1495.14   5
   3  -3  -8 25427.8 2497.42   5
  -3   3   7 6695.42 572.371   3
   3  -3  -7 5979.59 1178.78   5
   3  -3  -6 147619. 6369.58   5
   3  -3  -5 64622.9 3688.93   5
   3  -3  -4 45962.3 2929.93   5
   3  -3  -3 4775.42 891.267   5
   3  -3  -2 59029.3 3318.19   5
   3  -3  -1 4221.51 829.148   5
   3  -3   0 5005.74 933.143   5
  -3   3   0 6923.96 999.924   5
   3  -3   1 14277.3 1666.73   5
   3  -3   2 9206.31 740.973   1
   3  -3   2 8107.41 1292.35   5
   3  -3   3 23857.0 1353.76   1
  -3   3  -3 22903.1 1742.71   4
   3  -3   3 22246.2 2144.13   5
  -3   3  -4 86030.3 3859.59   4
   3  -3   4 78940.6 3090.11   1
  -3   3  -5 1046.61 457.809   4
  -3   3  -6 630.639 366.782   4
  -3   3  -7 67304.4 3433.59   4
  -3   3  -8 63725.2 3444.73   4
  -3   3  -9 8590.12 1245.16   4
  -3   3 -10 35790.6 2638.09   4
  -3   3 -11 6107.81 1166.03   4
  -3   3 -12 30164.8 2667.85   4
  -3   3 -13 9481.90 1569.35   4
  -3   3 -14 19667.1 2354.99   4
  -3   3 -15 11147.6 1879.85   4
   3  -2 -13 14419.5 2431.66   5
   3  -2 -12 324.275 654.773   5
   3  -2 -11 943.226 751.830   5
   3  -2 -10 2619.01 1054.62   5
   3  -2  -9 6636.46 1289.20   5
   3  -2  -8 682.788 603.467   5
   3  -2  -7-255.190 483.956   5
   3  -2  -6 28952.3 2479.52   5
   3  -2  -5 9852.64 1355.55   5
   3  -2  -4 29380.9 2279.54   5
   3  -2  -3 2094.03 679.958   5
   3  -2  -2 24476.3 1991.88   5
   3  -2  -1 6890.35 448.207   1
   3  -2  -1 6798.78 1029.37   5
   3  -2   0 119503. 5007.27   5
   3  -2   0 117329. 3449.26   1
   3  -2   1 58142.8 3407.45   5
   3  -2   1 63774.7 2244.47   1
   3  -2   2 29460.3 2457.17   5
   3  -2   2 31920.0 1517.35   1
  -3   2  -3 15680.4 1427.00   4
   3  -2   3 16149.7 1792.66   5
   3  -2   3 16612.7 1104.32   1
   3  -2   4 3344.14 527.610   1
  -3   2  -4 3113.35 660.825   4
   3  -2   5 2622.20 537.387   1
  -3   2  -5 5082.75 913.697   4
  -3   2  -6 327.431 351.890   4
  -3   2  -7 7214.42 1095.19   4
  -3   2  -8 99.3165 406.627   4
  -3   2  -9 49907.3 3151.03   4
  -3   2 -10 11445.2 1535.20   4
  -3   2 -11 10155.7 1481.64   4
  -3   2 -12 7497.47 1379.45   4
  -3   2 -13 17260.6 2172.37   4
  -3   2 -14 45527.0 3673.24   4
  -3   2 -15 2195.27 998.183   4
   3  -1 -13 8224.78 1991.16   5
   3  -1 -12 2693.57 1143.64   5
   3  -1 -11 30786.7 3289.95   5
   3  -1 -10 25153.1 2793.64   5
   3  -1  -9 18620.9 2249.42   5
   3  -1  -8 7613.80 1359.05   5
   3  -1  -7 14071.5 1756.24   5
   3  -1  -6-115.470 447.824   5
   3  -1  -5 94.6750 330.339   5
   3  -1  -4 12944.1 1454.68   5
   3  -1  -3 23876.9 1951.74   5
   3  -1  -2 76907.1 3700.84   5
   3  -1  -1 79187.1 3751.88   5
   3  -1   0 28810.2 2097.71   5
   3  -1   1 5043.54 916.130   5
   3  -1   2 128938. 5574.36   5
   3  -1   3 262.330 326.039   5
   3  -1   4 170194. 5179.53   1
  -3   1  -4 150161. 5791.50   4
   3  -1   5 154617. 5180.72   1
  -3   1  -5 173617. 6404.04   4
  -3   1  -6 153366. 6002.35   4
  -3   1  -6 136915. 4006.54   2
  -3   1  -7 35125.5 2493.00   4
  -3   1  -7 27273.7 1164.03   2
  -3   1  -8 5644.85 1032.64   4
  -3   1  -9 112530. 5197.84   4
  -3   1 -10 5720.13 1106.90   4
  -3   1 -11 40298.5 3043.41   4
  -3   1 -12 2461.57 857.526   4
  -3   1 -13 8072.37 1485.17   4
  -3   1 -14 6429.16 1373.02   4
  -3   1 -15 249.086 608.167   4
   3   0 -13 13281.3 2500.17   5
   3   0 -12 4207.81 1291.20   5
   3   0 -11 4084.32 1180.13   5
   3   0 -10 12832.2 2003.57   5
   3   0  -9 25046.1 2677.00   5
  -3   0   9 24603.9 1313.74   3
   3   0  -8 35409.0 3005.92   5
  -3   0   8 40721.6 1869.93   3
   3   0  -7 94554.2 4913.81   5
   3   0  -6 5277.65 462.722   1
   3   0  -6 4949.41 1007.52   5
   3   0  -5 82229.9 2506.93   1
   3   0  -5 82316.8 4181.59   5
   3   0  -4 47026.2 2881.53   5
   3   0  -3 188470. 6766.76   5
   3   0  -2 105912. 4479.92   5
   3   0  -1 68391.0 3367.98   5
   3   0   0 13291.0 1384.24   5
   3   0   1 84424.0 3976.97   5
   3   0   2 10850.9 1399.52   5
   3   0   3 6625.81 1076.68   5
  -3   0  -4 13718.7 1335.32   4
  -3   0  -5 5186.17 888.923   4
  -3   0  -5 6242.37 1040.52   5
  -3   0  -5 7309.15 612.024   2
  -3   0  -6 21922.8 1952.37   4
  -3   0  -6 20126.8 1088.21   2
  -3   0  -7 24280.6 2079.81   4
  -3   0  -7 24381.4 1303.72   2
  -3   0  -8 429.531 517.211   4
  -3   0  -9 8381.15 1281.87   4
  -3   0 -10 57867.8 3585.55   4
  -3   0 -11 19850.7 2118.12   4
  -3   0 -12 519.029 695.483   4
  -3   0 -13 23168.6 2530.93   4
  -3   0 -14 920.659 691.839   4
  -3   0 -15 12299.0 2049.60   4
   3   1 -13 23463.7 3295.38   5
   3   1 -12 16173.4 2543.18   5
   3   1 -11 8482.62 1753.28   5
   3   1 -10 41464.2 3702.84   5
  -3  -1   9 1869.68 418.410   3
   3   1  -9 2645.61 908.529   5
  -3  -1   8 1933.69 422.810   3
   3   1  -8 3183.97 921.326   5
  -3  -1   7 175.269 209.707   3
   3   1  -7 529.775 556.982   5
   3   1  -7 264.738 226.686   1
   3   1  -6 7714.62 682.381   1
   3   1  -6 7918.79 1281.25   5
   3   1  -5-115.860 346.647   5
   3   1  -4 2027.60 618.312   5
  -3  -1   3 35722.7 2234.97   5
   3   1  -3 29962.8 2145.54   5
   3   1  -2 12127.9 1276.25   5
   3   1  -1 90016.0 3929.46   5
   3   1   0 1345.76 472.406   5
   3   1   1 15831.0 1523.30   5
  -3  -1  -1 18427.8 1437.57   5
  -3  -1  -2 7584.18 946.532   5
   3   1   2 5978.50 988.997   5
  -3  -1  -3 119478. 3748.79   2
   3   1   3 112818. 4909.48   5
  -3  -1  -4 81434.0 3634.49   4
  -3  -1  -4 86393.9 2965.96   2
  -3  -1  -5 46615.5 2678.17   4
  -3  -1  -5 49933.3 2940.34   5
  -3  -1  -5 48839.5 2030.27   2
  -3  -1  -6 1140.98 327.926   2
  -3  -1  -6 370.069 343.752   5
  -3  -1  -6 1691.09 572.454   4
  -3  -1  -7 3592.25 559.963   2
  -3  -1  -7 4075.99 888.622   4
  -3  -1  -8 14065.0 1579.07   4
  -3  -1  -9 647.833 497.442   4
  -3  -1 -10 217.416 337.967   4
  -3  -1 -11 103.356 411.211   4
  -3  -1 -12 11171.0 1677.05   4
  -3  -1 -13 24828.1 2597.69   4
  -3  -1 -14 15806.5 2213.21   4
  -3  -1 -15 284.076 749.425   4
   3   2 -13 24128.4 3302.06   5
   3   2 -12 3306.80 1279.48   5
   3   2 -11 3720.72 1306.05   5
   3   2 -10 34067.2 3359.58   5
   3   2 -10 39183.3 2238.62   1
   3   2  -9 13965.3 1217.90   1
   3   2  -9 11287.8 1795.25   5
  -3  -2   9 12753.3 1143.56   3
   3   2  -8 22564.8 2377.53   5
  -3  -2   8 28020.3 1703.91   3
  -3  -2   7 2646.48 520.970   3
   3   2  -7 2081.32 702.149   5
   3   2  -6 102841. 4938.92   5
  -3  -2   6 105888. 3819.86   3
   3   2  -5 799.421 454.952   5
   3   2  -4 3894.54 796.256   5
   3   2  -3 30509.8 2122.27   5
  -3  -2   3 36202.1 2153.62   5
   3   2  -2 59916.9 3015.61   5
   3   2  -1 2430.04 572.451   5
  -3  -2   0 24901.4 1593.63   5
   3   2   0 21947.5 1672.48   5
  -3  -2  -1 11262.8 1042.32   5
   3   2   1 9522.58 1122.96   5
  -3  -2  -2 502.047 224.128   2
   3   2   2 671.510 416.433   5
  -3  -2  -2 887.196 317.505   5
  -3  -2  -3 138896. 5029.74   4
  -3  -2  -3 141451. 4947.54   5
   3   2   3 139974. 5403.76   5
  -3  -2  -3 140344. 4476.05   2
  -3  -2  -4 31160.2 1962.85   4
  -3  -2  -4 32558.1 1659.12   2
  -3  -2  -5 5813.60 856.198   4
  -3  -2  -5 5314.90 630.150   2
  -3  -2  -6 12554.6 1343.30   4
  -3  -2  -6 13522.4 1468.77   5
  -3  -2  -6 13404.5 1089.36   2
  -3  -2  -7 246798. 8233.02   4
  -3  -2  -7 230586. 7406.07   2
  -3  -2  -8 29196.0 2302.35   4
  -3  -2  -9 48774.1 3121.69   4
  -3  -2 -10 63805.1 3761.95   4
  -3  -2 -11 54998.0 3606.58   4
  -3  -2 -12 16016.6 2001.81   4
  -3  -2 -13 172.421 579.627   4
  -3  -2 -14 58748.8 4275.65   4
  -3  -2 -15-87.3544 686.448   4
   3   3 -13 19053.2 2910.27   5
   3   3 -12-483.124 710.361   5
   3   3 -11 5563.90 1435.33   5
   3   3 -10 5398.03 896.179   1
   3   3 -10 3178.61 988.290   5
  -3  -3   9 1317.92 427.590   3
   3   3  -9 2012.65 563.481   1
   3   3  -9 1349.75 680.740   5
   3   3  -8 2539.03 569.251   1
  -3  -3   8 1779.59 460.685   3
   3   3  -8 1791.46 753.601   5
   3   3  -7 51960.9 3538.07   5
  -3  -3   7 63813.6 2878.19   3
   3   3  -6 11302.7 1453.14   5
  -3  -3   6 13055.1 1159.49   3
   3   3  -5 23615.3 2014.37   5
  -3  -3   5 21222.5 1474.24   3
   3   3  -4 78515.0 3764.80   5
   3   3  -3 28298.3 1973.90   5
   3   3  -2 77883.0 3485.48   5
   3   3  -1 79494.2 3482.83   5
  -3  -3   1 83876.0 3311.16   5
  -3  -3   0 235775. 7126.56   2
  -3  -3   0 255157. 7347.85   5
   3   3   0 248699. 7711.80   5
  -3  -3  -1 32104.5 1715.91   2
   3   3   1 32205.8 2052.37   5
  -3  -3  -1 34244.4 1822.72   5
   3   3   2 30325.3 2066.67   5
  -3  -3  -2 34548.5 1816.61   5
  -3  -3  -2 33948.0 1781.55   2
   3   3   3 5159.99 840.164   5
  -3  -3  -3 4427.67 684.132   4
  -3  -3  -3 5564.16 696.210   5
  -3  -3  -3 4766.81 645.686   2
  -3  -3  -4 159608. 5527.89   4
  -3  -3  -4 162782. 5422.44   5
  -3  -3  -4 158968. 5165.34   2
  -3  -3  -5 13895.1 1283.36   4
  -3  -3  -5 14244.7 1145.34   2
  -3  -3  -6 13867.2 1352.99   4
  -3  -3  -6 13210.5 1200.24   2
  -3  -3  -7 325.147 292.466   2
  -3  -3  -7-197.960 408.518   4
  -3  -3  -8 1391.66 609.481   4
  -3  -3  -9 2978.97 826.982   4
  -3  -3 -10 28456.6 2356.22   4
  -3  -3 -11 1578.41 632.871   4
  -3  -3 -12 819.343 623.118   4
  -3  -3 -13 34333.9 2982.76   4
  -3  -3 -14 37058.2 3277.36   4
  -3  -3 -15 1008.87 655.624   4
   3   4 -13 6430.34 1689.26   5
   3   4 -12 31697.8 3527.12   5
   3   4 -11 2048.17 715.206   1
   3   4 -11 2185.42 785.707   5
   3   4 -10 22394.2 1932.81   1
   3   4 -10 19481.8 2457.83   5
   3   4  -9 62389.0 3236.61   1
  -3  -4   9 57211.2 2992.16   3
   3   4  -8 30530.4 2739.21   5
  -3  -4   8 37700.2 2303.63   3
   3   4  -7 47211.8 3250.95   5
  -3  -4   7 51577.5 2705.28   3
  -3  -4   6 757.168 370.784   3
   3   4  -6 1220.25 545.034   5
  -3  -4   5 5134.21 764.123   3
   3   4  -5 5003.34 889.346   5
   3   4  -4 15453.0 1481.05   5
  -3  -4   4 16038.8 1309.29   3
   3   4  -3 11174.7 1180.28   5
  -3  -4   3 12168.8 1110.53   3
   3   4  -2 5688.84 796.217   5
   3   4  -1 245.289 252.535   5
  -3  -4   1 425.864 234.048   5
   3   4   0 31017.5 1869.54   5
  -3  -4   0 33705.2 1718.77   5
  -3  -4  -1 5378.83 622.430   5
   3   4   1 3944.40 689.317   5
  -3  -4  -2 82215.9 3046.85   5
   3   4   2 80845.1 3444.14   5
  -3  -4  -3 101.069 221.364   4
  -3  -4  -3 140.125 187.605   5
  -3  -4  -4 22188.9 1542.82   4
  -3  -4  -4 20048.4 1327.46   5
  -3  -4  -5 11075.6 1111.03   4
  -3  -4  -5 10668.8 1036.28   5
  -3  -4  -6 126690. 4772.43   4
   3   4   6 124368. 4659.66   2
  -3  -4  -7 68506.1 3341.26   4
   3   4   7 67168.5 3158.35   2
  -3  -4  -7 73865.6 3624.86   5
   3   4   8 11369.7 1158.06   2
  -3  -4  -8 12211.9 1335.72   4
  -3  -4  -9 10138.8 1292.41   4
   3   4   9 9889.11 1085.68   2
   3   4  10 10894.0 1145.66   2
  -3  -4 -10 12346.9 1498.97   4
  -3  -4 -11 1539.68 699.176   4
   3   4  11 1369.01 452.602   2
  -3  -4 -12 2110.53 769.162   4
   3   4  12 2180.88 476.852   2
  -3  -4 -13 6338.33 1293.23   4
  -3  -4 -14 433.682 635.958   4
  -3  -4 -15 11359.9 1763.88   4
   3   5 -12-1763.02 952.305   5
   3   5 -11 771.931 659.324   1
   3   5 -11 469.609 739.353   5
   3   5 -10 23352.2 2098.85   1
  -3  -5  10 21837.1 1824.82   3
   3   5  -9 16776.7 1685.60   1
   3   5  -9 13523.8 1929.30   5
  -3  -5   9 15556.8 1549.95   3
   3   5  -8 32917.9 2763.13   5
  -3  -5   8 33169.3 2315.03   3
  -3  -5   7 6821.69 984.694   3
   3   5  -7 5044.86 1048.53   5
  -3  -5   6 1663.94 489.153   3
   3   5  -6 1817.52 575.221   5
   3   5  -5 91041.9 4192.10   5
  -3  -5   5 91168.4 3893.52   3
   3   5  -4 34366.4 2210.71   5
  -3  -5   4 32004.5 2053.77   3
   3   5  -3 53899.8 2718.75   5
  -3  -5   3 49833.3 2635.70   3
   3   5  -2 21927.0 1562.75   5
  -3  -5   2 22266.4 1644.90   3
   3   5  -1 27412.7 1701.07   5
  -3  -5   1 28716.5 1881.52   3
   3   5   0-133.425 237.739   5
  -3  -5   0 477.314 210.101   5
   3   5   1 84.5049 208.247   5
  -3  -5  -1 135.831 139.677   5
   3   5   2 41613.8 2095.78   5
  -3  -5  -2 44419.9 1865.70   5
  -3  -5  -3 7603.35 838.132   4
  -3  -5  -3 5980.13 613.328   5
   3   5   4 20773.1 1686.71   2
  -3  -5  -4 20469.5 1393.87   4
  -3  -5  -4 18088.5 1149.08   5
   3   5   5 49236.6 2739.06   2
  -3  -5  -5 52456.1 2450.26   4
   3   5   6 39120.6 2419.77   2
  -3  -5  -6 35563.5 2077.69   4
  -3  -5  -7 4.49020 282.413   4
   3   5   7 386.702 396.974   2
  -3  -5  -8 54054.3 2887.95   4
   3   5   8 55833.6 3022.56   2
  -3  -5  -9 5550.82 952.886   4
   3   5   9 5513.71 927.480   2
   3   5  10 42366.7 2579.96   2
  -3  -5 -10 40044.2 2708.71   4
   3   5  11 49774.3 2842.46   2
  -3  -5 -11 53755.7 3313.21   4
  -3  -5 -12 72918.5 3177.98   3
  -3  -5 -12 75521.2 4229.14   4
   3   5  12 72570.0 3520.86   2
  -3  -5 -13 4817.71 1098.38   4
  -3  -5 -14 11603.6 1718.31   4
  -3  -5 -15 18576.9 2184.83   4
   3   6 -12 7523.38 1684.19   5
   3   6 -11 7706.90 1383.25   1
   3   6 -11 7341.06 1604.02   5
   3   6 -10 15676.2 1818.51   1
  -3  -6  10 17043.9 1694.42   3
   3   6 -10 13180.2 1948.78   5
  -3  -6   9 3251.53 803.971   3
   3   6  -9 1989.76 844.077   5
  -3  -6   8 693.805 481.753   3
   3   6  -8-152.715 371.260   5
   3   6  -7 16174.2 1776.52   5
  -3  -6   7 15682.4 1606.22   3
  -3  -6   6 1004.20 461.967   3
   3   6  -6 1339.44 533.143   5
   3   6  -5 13890.3 1415.53   5
  -3  -6   5 11447.8 1303.91   3
   3   6  -4 75997.2 3524.25   5
  -3  -6   4 79185.3 3680.50   3
   3   6  -3 16066.5 1342.92   5
  -3  -6   3 13333.8 1353.51   3
   3   6  -2 21321.4 1466.06   5
  -3  -6   2 21086.9 1297.56   4
  -3  -6   2 20978.3 1715.77   3
   3   6  -1 55170.6 2453.50   5
  -3  -6   1 60441.6 3031.97   3
   3   6   0 25238.3 1488.69   5
  -3  -6   0 26382.4 1885.38   3
   3   6   1 77567.7 2902.83   5
  -3  -6  -1 82991.2 3629.30   3
  -3  -6  -2 48026.2 2183.79   4
  -3  -6  -2 42684.0 1692.41   5
  -3  -6  -2 47036.5 2564.64   3
   3   6   3 162123. 5991.62   2
  -3  -6  -3 151200. 4833.06   4
  -3  -6  -3 143087. 4284.23   5
  -3  -6  -3 155290. 5494.19   3
   3   6   4 7576.95 1096.28   2
  -3  -6  -4 5550.64 664.859   4
  -3  -6  -4 5975.27 557.578   5
   3   6   5 18005.4 1713.53   2
  -3  -6  -5 18948.9 1316.89   4
  -3  -6  -5 16141.3 1050.20   5
  -3  -6  -6 2474.16 525.420   4
  -3  -6  -6 2527.40 426.697   5
  -3  -6  -7 111027. 4227.72   4
  -3  -6  -7 112672. 4446.28   3
   3   6   7 106891. 4822.65   2
  -3  -6  -8 5914.78 851.167   4
   3   6   8 5028.28 960.375   2
  -3  -6  -8 7258.65 966.777   3
   3   6   9 8432.15 1184.87   2
  -3  -6  -9 8616.41 1050.01   3
  -3  -6  -9 8218.67 1082.02   4
  -3  -6 -10 164.952 365.196   4
  -3  -6 -10 170.449 266.352   3
   3   6  10 436.605 432.149   2
  -3  -6 -11-357.368 487.725   4
  -3  -6 -11 782.381 382.542   3
   3   6  11 92.4674 374.178   2
  -3  -6 -12 6933.12 1202.36   4
   3   6  12 5866.59 1016.53   2
  -3  -6 -13 7441.47 1215.14   4
  -3  -6 -14-856.001 582.678   4
  -3  -6 -15 1999.92 775.342   4
   3   7 -12 2613.09 1042.59   5
   3   7 -11 60468.4 4432.09   5
   3   7 -11 69443.4 4409.10   1
   3   7 -10 108.060 583.836   1
   3   7 -10 927.534 707.201   5
   3   7  -9 32104.9 2783.71   5
  -3  -7   9 36538.4 2691.54   3
  -3  -7   8 5554.85 1028.01   3
   3   7  -8 5165.83 1058.68   5
   3   7  -7 30776.4 2385.33   5
  -3  -7   7 29763.9 2358.80   3
   3   7  -6 21101.9 1866.57   5
  -3  -7   6 19430.7 1851.17   3
   3   7  -5 22385.2 1791.20   5
  -3  -7   5 21771.4 1929.66   3
   3   7  -4 75560.7 3343.96   5
  -3  -7   4 68254.9 3622.72   3
  -3  -7   3 5820.59 945.729   3
   3   7  -3 7758.24 883.181   5
  -3  -7   2 59.4435 366.775   3
   3   7  -2 403.362 228.439   5
  -3  -7   1 5228.43 914.680   3
   3   7  -1 4208.62 533.490   5
  -3  -7   0 5124.30 903.166   3
   3   7   0 5676.09 568.983   5
  -3  -7  -1 100.379 349.657   3
  -3  -7  -2 2412.48 653.629   3
  -3  -7  -2 2676.58 433.021   4
   3   7   3 23723.6 2077.81   2
  -3  -7  -3 19603.8 1218.13   4
  -3  -7  -3 23326.1 1857.11   3
  -3  -7  -4 754.060 445.139   3
  -3  -7  -4 375.783 212.943   4
  -3  -7  -4 420.424 120.904   5
   3   7   4 264.781 414.005   2
   3   7   5 48108.3 3084.55   2
  -3  -7  -5 47265.4 2163.28   4
  -3  -7  -5 47756.4 2745.43   3
  -3  -7  -6 670.618 399.690   3
  -3  -7  -6 87.1939 213.617   4
   3   7   6 64.4312 401.951   2
  -3  -7  -7 36258.9 1992.16   4
  -3  -7  -7 35194.2 2334.65   3
   3   7   7 32938.8 2542.75   2
  -3  -7  -8 601.047 397.897   4
  -3  -7  -8-137.366 360.949   3
   3   7   8 328.702 393.586   2
  -3  -7  -9 39188.8 2434.66   3
   3   7   9 36384.8 2677.85   2
  -3  -7  -9 40667.3 2384.86   4
  -3  -7 -10 30938.0 2126.66   3
   3   7  10 30089.9 2428.52   2
  -3  -7 -10 32460.3 2230.81   4
  -3  -7 -11 23553.7 1832.34   3
   3   7  11 21777.8 2060.58   2
  -3  -7 -11 26014.5 2043.36   4
  -3  -7 -12 1101.48 575.589   4
   3   7  12 2675.27 800.679   2
  -3  -7 -13 3472.78 834.983   4
  -3  -7 -14 4280.24 954.867   4
   3   8 -11 6369.98 1403.21   1
   3   8 -11 3024.06 1051.74   5
  -3  -8  10 1175.11 539.201   3
   3   8 -10 1154.15 764.368   1
   3   8 -10 1845.35 723.250   5
  -3  -8   9-505.107 536.278   3
   3   8  -9 523.889 510.260   5
  -3  -8   8 7439.74 1278.49   3
   3   8  -8 9648.24 1368.14   5
   3   8  -7 49878.3 3070.31   5
  -3  -8   7 55735.9 3462.97   3
  -3  -8   6 3971.50 911.409   3
   3   8  -6 4274.26 803.782   5
  -3  -8   5 10104.2 1374.71   3
   3   8  -5 10999.7 1189.74   5
   3   8  -4 24699.6 1661.19   5
  -3  -8   4 23492.5 2103.67   3
   3   8  -3 31477.7 1731.41   5
  -3  -8   3 29772.8 2324.28   3
   3   8  -2 24402.9 1335.30   5
  -3  -8   2 25769.2 2142.07   3
  -3  -8   1 1133.60 540.083   3
   3   8  -1 1287.26 260.535   5
  -3  -8   0 127360. 5424.75   3
  -3  -8  -1 5103.42 969.908   3
  -3  -8  -1 3584.94 457.501   4
   3   8   2 7322.91 1234.06   2
  -3  -8  -2 5214.09 544.160   4
  -3  -8  -2 5871.09 1027.36   3
   3   8   3 7398.46 1270.28   2
  -3  -8  -3 6396.27 606.731   4
  -3  -8  -3 7638.38 1188.17   3
   3   8   4 23580.8 2183.82   2
  -3  -8  -4 26250.5 1354.24   4
  -3  -8  -4 24447.9 2030.51   3
  -3  -8  -5 2641.38 717.658   3
  -3  -8  -5 2022.99 414.819   4
   3   8   5 1646.33 542.619   2
  -3  -8  -6 1808.83 634.852   3
  -3  -8  -6 2478.28 449.524   4
   3   8   6 1860.62 702.648   2
  -3  -8  -7 350.679 400.211   3
  -3  -8  -7 186.020 248.578   4
   3   8   7 450.704 474.447   2
  -3  -8  -8 390.838 386.804   3
  -3  -8  -8 417.276 349.302   4
   3   8   8-42.7458 453.432   2
  -3  -8  -9 37217.0 2502.95   3
   3   8   9 31160.5 2583.93   2
  -3  -8  -9 37533.2 2205.92   4
   3   8  10 8545.46 1355.63   2
  -3  -8 -10 10808.1 1310.67   3
  -3  -8 -10 10546.3 1190.96   4
  -3  -8 -11 6050.67 1001.21   3
  -3  -8 -11 5664.33 919.048   4
   3   8  11 4789.66 1028.38   2
   3   8  12 659.816 594.676   2
   3   9 -10 44798.8 3728.94   1
  -3  -9  10 43154.3 3221.63   3
  -3  -9   9 4094.77 1024.94   3
  -3  -9   8 1422.40 630.332   3
  -3  -9   7 19910.6 2090.65   3
  -3  -9   6-261.246 629.281   3
  -3  -9   5 351.266 452.546   3
  -3  -9   4 5667.61 1075.55   3
  -3  -9   3 788.220 456.744   3
  -3  -9   2 6233.36 1114.63   3
  -3  -9   1 67395.2 3866.64   3
  -3  -9   0 4401.44 972.970   3
  -3  -9  -1 12645.0 1545.47   3
   3   9   2 14417.0 1791.94   2
  -3  -9  -2 18278.5 1866.19   3
   3   9   3 20445.5 2104.88   2
  -3  -9  -3 21662.4 2048.07   3
   3   9   4 47516.1 3322.75   2
  -3  -9  -4 53700.1 3310.44   3
   3   9   5 33836.2 2751.99   2
  -3  -9  -5 38399.3 2747.91   3
  -3  -9  -6 83355.4 4323.53   3
   3   9   6 82746.4 4517.88   2
  -3  -9  -7 5866.41 1053.38   3
   3   9   7 6533.21 1255.86   2
  -3  -9  -8 11912.0 1477.34   3
   3   9   8 12041.9 1636.79   2
  -3  -9  -9 2239.46 706.426   3
   3   9   9 501.387 494.491   2
  -3  -9 -10 37825.6 2683.71   3
   3   9  10 32504.8 2714.65   2
   3   9  11 7593.35 1313.26   2
   3   9  12 8629.58 1373.28   2
  -3 -10   9 4076.06 1008.01   3
  -3 -10   8 39729.7 3140.16   3
  -3 -10   7 3407.16 960.402   3
  -3 -10   6 47137.7 3395.88   3
  -3 -10   5 337.085 518.693   3
  -3 -10   4 39557.3 3055.57   3
  -3 -10   3 29511.1 2620.91   3
  -3 -10   2 17022.7 1961.18   3
  -3 -10   1 30577.1 2650.61   3
  -3 -10   0 5936.02 1172.18   3
  -3 -10  -1 2453.67 801.627   3
   3  10   2 6820.42 1271.98   2
  -3 -10  -2 7419.80 1293.37   3
   3  10   3 3171.89 912.427   2
  -3 -10  -3 1940.77 795.778   3
  -3 -10  -4-219.458 547.015   3
   3  10   4-408.324 715.712   2
  -3 -10  -5 3495.94 958.521   3
   3  10   5 4073.15 996.384   2
  -3 -10  -6 17468.2 1951.73   3
   3  10   6 17899.8 2021.59   2
  -3 -10  -7-96.8172 518.149   3
   3  10   7 244.132 488.956   2
  -3 -10  -8 30691.1 2592.93   3
   3  10   8 33778.0 2772.78   2
  -3 -10  -9 563.124 464.264   3
   3  10   9 171.174 591.167   2
  -3 -10 -10 17823.5 1943.60   3
   3  10  10 16031.6 1894.68   2
   3  10  11 378.448 614.707   2
   3  10  12 22150.3 2245.45   2
  -3 -11   6 1846.28 793.948   3
  -3 -11   5 833.657 521.868   3
  -3 -11   4 10085.5 1590.04   3
  -3 -11   3 19119.2 2197.14   3
  -3 -11   2 48871.4 3561.20   3
  -3 -11   1 947.006 589.783   3
  -3 -11   0 1340.76 658.390   3
  -3 -11  -1 41162.8 3291.31   3
   3  11   2 16061.3 2017.26   2
  -3 -11  -2 16023.0 2007.46   3
   3  11   3 31733.4 2813.71   2
  -3 -11  -3 36694.9 3093.10   3
  -3 -11  -4 2327.41 970.932   3
   3  11   4-467.914 728.366   2
   3  11   5 20905.0 2237.04   2
  -3 -11  -5 19978.0 2267.12   3
  -3 -11  -6 4690.64 1116.08   3
   3  11   6 3727.31 1038.92   2
  -3 -11  -7 811.779 703.954   3
   3  11   7 1911.37 867.439   2
  -3 -11  -8 14009.4 1849.13   3
   3  11   8 10555.5 1595.35   2
  -3 -11  -9 772.632 566.546   3
   3  11   9-187.887 658.163   2
   3  11  10 1469.37 746.254   2
  -3 -12   2 1872.22 893.636   3
  -3 -12   1 8000.32 1541.49   3
  -3 -12   0 537.211 567.474   3
  -3 -12  -1 2730.96 1035.72   3
  -3 -12  -2 43313.9 3514.97   3
   3  12   3 4486.78 1077.26   2
  -3 -12  -3 4392.39 1248.35   3
   3  12   4 8244.78 1492.82   2
  -3 -12  -4 9431.37 1645.27   3
  -3 -12  -5 7824.72 1503.93   3
   3  12   5 5819.70 1264.25   2
  -3 -12  -6 11002.2 1835.02   3
   3  12   6 9785.79 1590.25   2
  -3 -12  -7 22374.9 2430.47   3
  -3 -12  -8 15008.0 1992.43   3
  -4  12   1 1040.13 653.923   2
  -4  12   0 13983.9 1662.14   2
  -4  12  -1 6531.21 1144.99   2
  -4  12  -2 13399.6 1577.63   2
  -4  12  -3 8881.70 1272.08   2
  -4  12  -4 8420.06 1412.98   1
  -4  12  -5 781.259 569.338   1
  -4  12  -6 1822.11 792.346   1
  -4  11   3-247.331 457.661   2
  -4  11   2 1129.12 590.011   2
   4 -11  -2 274.593 517.384   5
  -4  11   1 756.636 605.981   2
   4 -11  -1-15.0745 427.973   5
  -4  11   0 2846.00 799.327   2
   4 -11   0 4843.21 1144.23   5
  -4  11  -1 607.630 435.023   2
  -4  11  -2 6078.54 1043.92   2
  -4  11  -2 12939.8 1560.07   1
  -4  11  -3-275.889 358.302   2
  -4  11  -3 340.498 409.482   1
  -4  11  -4 34571.4 2326.90   2
  -4  11  -4 21919.4 2229.95   1
  -4  11  -5 1257.80 561.854   1
  -4  11  -6 7118.85 1337.03   1
  -4  11  -7 5262.16 1212.43   1
   4 -10  -7 7045.08 1560.54   5
   4 -10  -6 7970.24 1537.40   5
   4 -10  -5 12809.4 1881.51   5
   4 -10  -4 1606.70 938.063   5
   4 -10  -3 7441.78 1442.91   5
   4 -10  -2 692.042 560.279   5
   4 -10  -1 22515.0 2468.36   5
  -4  10   0 639.323 458.987   2
   4 -10   0 179.371 533.247   5
  -4  10  -1-248.970 474.094   2
   4 -10   1 896.185 677.451   5
  -4  10  -1 1201.33 528.413   1
  -4  10  -2 2055.78 769.211   1
  -4  10  -2 1476.38 560.967   2
  -4  10  -3-116.763 503.505   1
  -4  10  -3 971.195 470.152   2
  -4  10  -4 1049.70 361.015   2
  -4  10  -4 688.451 450.506   1
  -4  10  -5 1380.23 645.565   1
  -4  10  -6 3250.58 917.434   1
  -4  10  -7 1807.13 753.166   1
   4  -9  -9 1255.81 911.453   5
   4  -9  -8 13679.6 2142.64   5
   4  -9  -7 1070.21 772.607   5
   4  -9  -6 15254.7 2078.33   5
   4  -9  -5 1724.46 814.794   5
   4  -9  -4 4200.90 1072.93   5
   4  -9  -3 4413.92 1163.65   5
   4  -9  -2 29408.7 2894.57   5
   4  -9  -1-104.887 530.489   5
  -4   9   0 17892.9 1554.35   4
   4  -9   0 13484.8 1931.76   5
  -4   9   0 15958.1 1424.63   1
  -4   9  -1 84883.7 3651.23   4
   4  -9   1 76955.5 4693.76   5
  -4   9  -1 77684.8 3692.94   1
  -4   9  -2 2347.06 628.445   1
  -4   9  -2 907.494 384.638   4
   4  -9   2 1258.90 654.899   5
  -4   9  -3 14015.6 1296.29   4
  -4   9  -3 12273.5 1311.38   2
  -4   9  -3 13010.9 1482.65   1
  -4   9  -4 4266.84 903.192   1
  -4   9  -4 4388.59 798.738   2
  -4   9  -4 5700.39 852.726   4
  -4   9  -5 55225.7 3503.90   1
  -4   9  -5 60453.6 2958.55   4
  -4   9  -5 60648.1 3017.67   2
  -4   9  -6 4351.61 1011.88   1
  -4   9  -6 4137.04 772.823   4
  -4   9  -7 3154.96 680.438   4
  -4   9  -8 5082.22 909.533   4
  -4   9  -9 8008.39 1142.99   4
  -4   9 -10 2938.68 782.247   4
  -4   9 -11 3208.52 946.108   4
   4  -8  -9 42694.7 3805.45   5
   4  -8  -8 3439.50 1122.63   5
   4  -8  -7 28630.6 2929.91   5
   4  -8  -6 5878.78 1315.20   5
   4  -8  -5 3133.25 978.912   5
   4  -8  -4 14720.2 2012.82   5
   4  -8  -3 7156.24 1369.02   5
   4  -8  -2 12882.8 1875.97   5
   4  -8  -1-258.325 620.933   5
   4  -8   0-221.659 553.000   5
  -4   8  -1 7852.95 977.289   1
  -4   8  -1 8968.55 1144.45   4
   4  -8   1 5913.73 1398.58   5
  -4   8  -2 3356.10 712.539   4
  -4   8  -2 1966.77 546.935   1
   4  -8   2 2518.90 821.305   5
  -4   8  -3 719.749 359.059   4
  -4   8  -3 1229.52 507.398   1
  -4   8  -4 775.522 388.755   2
  -4   8  -4 303.135 363.368   4
  -4   8  -4 151.420 368.114   1
  -4   8  -5 22381.5 1737.33   4
  -4   8  -5 21304.9 1592.61   2
  -4   8  -6 3573.13 632.109   2
  -4   8  -6 2625.78 624.837   4
  -4   8  -7 55311.6 3012.31   4
  -4   8  -8 3867.43 817.437   4
  -4   8  -9 15334.7 1583.29   4
  -4   8 -10-246.590 408.929   4
  -4   8 -11 8849.83 1328.03   4
  -4   8 -12 13330.3 1684.73   4
   4  -7 -10-687.805 668.669   5
   4  -7  -9 7180.35 1558.16   5
   4  -7  -8 349.186 589.340   5
   4  -7  -7 4233.16 1214.42   5
   4  -7  -6 5234.53 1176.49   5
   4  -7  -5 24101.3 2514.50   5
   4  -7  -4 14948.9 1943.49   5
   4  -7  -3 29446.4 2707.99   5
   4  -7  -2 19376.6 2217.41   5
   4  -7  -1-540.195 643.200   5
   4  -7   0 30334.9 2905.76   5
   4  -7   1 2095.23 841.869   5
  -4   7  -2 34397.6 2355.96   4
   4  -7   2 34111.6 3012.12   5
  -4   7  -3 6355.05 989.359   4
   4  -7   3 5127.99 1176.57   5
  -4   7  -4 2387.07 627.464   4
  -4   7  -5 757.258 351.991   2
  -4   7  -5 2602.25 639.450   4
  -4   7  -6 1209.93 386.210   2
  -4   7  -6 305.326 410.164   4
  -4   7  -7 3066.27 731.918   4
  -4   7  -8 412.448 414.686   4
  -4   7  -9 11099.9 1378.61   4
  -4   7 -10 8921.29 1299.68   4
  -4   7 -11 23485.1 2162.57   4
  -4   7 -12 434.106 551.653   4
  -4   7 -13 29859.3 2656.97   4
   4  -6 -10 26950.0 3090.39   5
   4  -6  -9 1346.52 731.462   5
   4  -6  -8 289.589 516.364   5
   4  -6  -7 4720.79 1189.91   5
   4  -6  -6 9348.10 1593.34   5
   4  -6  -5 4061.91 1003.07   5
   4  -6  -4 21438.1 2254.58   5
   4  -6  -3 363.999 527.711   5
   4  -6  -2 14533.6 1919.43   5
   4  -6  -1 20396.9 2294.85   5
   4  -6   0 2203.06 861.147   5
   4  -6   1 31058.2 2943.27   5
  -4   6  -2 18096.4 1691.30   4
   4  -6   2 17190.2 2141.67   5
  -4   6  -3 61582.2 3276.29   4
   4  -6   3 52482.9 3798.67   5
  -4   6  -4 45830.7 2768.23   4
  -4   6  -5-462.228 391.841   4
  -4   6  -6 43843.5 2709.09   4
  -4   6  -6 43872.7 2089.48   2
  -4   6  -7 26603.4 2062.99   4
  -4   6  -7 24574.7 1402.73   2
  -4   6  -8 63244.4 3440.17   4
  -4   6  -9 8312.53 1234.43   4
  -4   6 -10 7120.37 1176.65   4
  -4   6 -11-47.0847 422.291   4
  -4   6 -12 9977.04 1519.37   4
  -4   6 -13 270.053 561.682   4
   4  -5 -11 9384.75 1995.33   5
   4  -5 -10 16035.7 2421.78   5
   4  -5  -9 614.292 643.833   5
   4  -5  -8 16829.6 2285.40   5
   4  -5  -7 202.474 526.072   5
   4  -5  -6 77816.0 4755.36   5
   4  -5  -5 4787.93 1137.13   5
   4  -5  -4 69694.8 4248.83   5
   4  -5  -3 7293.86 1340.58   5
   4  -5  -2 21689.7 2237.20   5
   4  -5  -1 5554.48 1150.58   5
   4  -5   0 10489.6 1656.79   5
   4  -5   1 53032.9 3844.46   5
   4  -5   2 2143.01 817.870   5
  -4   5  -3 2994.28 683.580   4
   4  -5   3 2184.18 873.374   5
  -4   5  -4 4487.71 901.128   4
   4  -5   4 5084.71 1169.35   5
  -4   5  -5-406.568 411.490   4
  -4   5  -6 8120.71 1193.30   4
  -4   5  -7 4686.64 528.504   2
  -4   5  -7 5687.08 1017.85   4
  -4   5  -8 16774.7 1722.34   4
  -4   5  -9 348.546 420.943   4
  -4   5 -10 79501.6 4202.03   4
  -4   5 -11-269.229 430.242   4
  -4   5 -12 13326.7 1743.28   4
  -4   5 -13 1415.67 823.557   4
  -4   5 -14 20801.1 2413.85   4
   4  -4 -11 11834.4 2183.52   5
   4  -4 -10-2389.51 1050.85   5
   4  -4  -9 22127.2 2713.60   5
   4  -4  -8 351.590 602.034   5
   4  -4  -7 781.374 674.111   5
   4  -4  -6 21627.3 2414.17   5
   4  -4  -5 3909.06 1030.92   5
   4  -4  -4 1835.31 755.604   5
   4  -4  -3 7990.58 1364.10   5
   4  -4  -2 65925.5 4035.60   5
   4  -4  -1 23898.2 2331.92   5
   4  -4   0 33995.1 2923.61   5
   4  -4   1 50060.8 3674.13   5
   4  -4   2 7695.76 1472.13   5
  -4   4  -3 23671.7 1917.24   4
   4  -4   3 23473.9 2475.58   5
  -4   4  -4-5.76250 354.701   4
   4  -4   4-28.6938 526.930   5
  -4   4  -5 102920. 4682.77   4
  -4   4  -6 2814.43 753.348   4
  -4   4  -7 118.992 454.180   4
  -4   4  -8 4143.61 899.045   4
  -4   4  -8 3723.66 294.332   2
  -4   4  -9-348.023 535.899   4
  -4   4 -10 753.621 551.059   4
  -4   4 -11 4493.40 1002.66   4
  -4   4 -12 296.301 462.181   4
  -4   4 -13 508.829 617.383   4
  -4   4 -14 53154.4 3932.25   4
   4  -3 -11 3442.56 1184.50   5
   4  -3 -10 46.0106 587.616   5
   4  -3  -9 82953.3 5428.56   5
   4  -3  -8 3129.69 1034.72   5
   4  -3  -7 14142.5 2025.72   5
   4  -3  -6 31208.1 2904.20   5
   4  -3  -5 35706.5 2993.61   5
   4  -3  -4 80.2527 430.610   5
   4  -3  -3-149.205 415.117   5
   4  -3  -2 53677.9 3534.11   5
   4  -3  -1 14938.4 1808.87   5
   4  -3   0 40601.7 3116.23   5
   4  -3   1 2703.70 419.181   1
   4  -3   1 1639.78 682.960   5
   4  -3   2-12.6147 176.421   1
   4  -3   2 39.0204 512.417   5
   4  -3   3 494.969 258.996   1
   4  -3   3 423.694 477.601   5
  -4   3  -4 138532. 5516.56   4
   4  -3   4 139019. 6546.74   5
  -4   3  -5 1078.66 512.516   4
  -4   3  -6 28277.9 2275.48   4
  -4   3  -7 77849.0 4157.42   4
  -4   3  -8 6586.16 1204.10   4
  -4   3  -8 5003.21 333.328   2
  -4   3  -9 29358.0 2460.67   4
  -4   3 -10 20542.1 2150.09   4
  -4   3 -11 91478.9 4900.20   4
  -4   3 -12 640.525 524.971   4
  -4   3 -13 4120.32 1157.60   4
  -4   3 -14 208.964 640.265   4
   4  -2 -11 1124.87 871.227   5
   4  -2 -10 1075.93 958.206   5
   4  -2  -9 622.698 684.741   5
   4  -2  -8 21447.8 2558.24   5
   4  -2  -7 30199.5 2921.69   5
   4  -2  -6 3899.45 1046.76   5
   4  -2  -5 22702.4 2355.98   5
   4  -2  -4 2651.84 821.715   5
   4  -2  -3 123965. 5761.09   5
   4  -2  -2 16312.0 1847.06   5
   4  -2  -1 145171. 4119.98   1
   4  -2  -1 144073. 6291.73   5
   4  -2   0 7401.30 628.607   1
   4  -2   0 5804.19 1158.95   5
   4  -2   1 11675.7 1679.17   5
   4  -2   1 15513.2 1033.92   1
   4  -2   2 3689.43 976.858   5
   4  -2   2 4820.95 621.486   1
   4  -2   3 16721.3 2093.48   5
   4  -2   3 19014.5 1326.97   1
  -4   2  -4 41352.5 2566.21   4
   4  -2   4 37224.3 3053.27   5
  -4   2  -5 82.1680 307.384   4
  -4   2  -6 271.320 325.284   4
  -4   2  -7 26752.6 2284.83   4
  -4   2  -7 20608.7 1059.38   2
  -4   2  -8 2449.81 770.188   4
  -4   2  -8 1721.36 235.320   2
  -4   2  -9 2882.02 884.112   4
  -4   2 -10 2637.22 912.064   4
  -4   2 -11 29366.2 2737.61   4
  -4   2 -12 1150.39 730.798   4
  -4   2 -13 41856.5 3509.61   4
  -4   2 -14 2291.44 1002.20   4
   4  -1 -11 7571.13 1886.74   5
   4  -1 -10 5655.85 1483.74   5
   4  -1  -9-615.998 690.911   5
   4  -1  -8 15361.4 2175.01   5
   4  -1  -7 362.302 536.617   5
   4  -1  -6 20257.8 2300.73   5
   4  -1  -5 3852.44 995.240   5
   4  -1  -4-40.9853 491.111   5
   4  -1  -3 21705.5 2113.60   5
   4  -1  -2 3457.52 887.127   5
   4  -1  -1 23071.6 2133.82   5
   4  -1   0 114.899 341.719   5
   4  -1   1 45118.0 3240.38   5
   4  -1   2 65014.1 4098.71   5
   4  -1   3 99754.4 5289.41   5
  -4   1  -4 19402.4 1675.95   4
   4  -1   4 17046.5 1994.40   5
  -4   1  -5 5460.65 927.586   4
  -4   1  -6 52363.6 2061.15   2
  -4   1  -6 53412.3 3159.91   4
  -4   1  -7 9757.44 1368.06   4
  -4   1  -7 8185.10 701.141   2
  -4   1  -8 43032.4 3091.76   4
  -4   1  -8 34487.6 1494.48   2
  -4   1  -9 12163.2 1730.04   4
  -4   1 -10 26938.9 2638.43   4
  -4   1 -11 1824.81 784.704   4
  -4   1 -12 1612.19 813.913   4
  -4   1 -13 6300.88 1486.21   4
  -4   1 -14 245.794 602.437   4
   4   0 -12 10990.1 2309.93   5
   4   0 -11 10275.5 2082.58   5
   4   0 -10 25957.1 3103.03   5
   4   0  -9 2522.05 1052.77   5
   4   0  -8 43140.9 3648.85   5
   4   0  -7 33657.1 3078.90   5
   4   0  -6 78361.3 4721.27   5
   4   0  -6 79580.6 2400.97   1
   4   0  -5 44609.7 3273.73   5
   4   0  -4 60522.0 3753.54   5
   4   0  -3 2074.64 686.641   5
   4   0  -2 33537.5 2593.22   5
   4   0  -1 38766.6 2782.40   5
   4   0   0 41143.1 2901.45   5
   4   0   1 9932.03 1422.13   5
   4   0   2 59458.4 3819.71   5
   4   0   3 687.640 540.224   5
  -4   0  -4 15386.7 1491.19   4
   4   0   4 17384.8 1948.88   5
  -4   0  -5 7362.98 695.539   2
  -4   0  -5 7173.84 1038.07   4
  -4   0  -6 8486.93 1180.15   4
  -4   0  -6 9555.54 827.086   2
  -4   0  -7 60176.4 3494.47   4
  -4   0  -7 63614.8 2487.90   2
  -4   0  -8 12030.4 1530.01   4
  -4   0  -8 11161.7 882.714   2
  -4   0  -9 52719.7 3485.79   4
  -4   0 -10 20831.0 2245.50   4
  -4   0 -11 891.434 599.869   4
  -4   0 -12 35344.8 3153.86   4
  -4   0 -13 23978.1 2631.28   4
  -4   0 -14 51756.7 4165.92   4
  -4   0 -15 3192.44 1266.77   4
   4   1 -12 2008.61 1054.40   5
   4   1 -11 3050.48 1245.15   5
   4   1 -10 904.756 823.339   5
   4   1  -9 2253.47 934.358   5
   4   1  -8 5325.29 1333.42   5
  -4  -1   8 7830.17 907.176   3
   4   1  -7 345.664 241.826   1
   4   1  -7 280.987 497.773   5
   4   1  -6-22.2983 468.910   5
   4   1  -5 20832.5 2179.91   5
   4   1  -4 39061.9 2880.83   5
   4   1  -3 17386.2 1837.36   5
   4   1  -2 17290.0 1793.66   5
   4   1  -1 4953.92 962.367   5
   4   1   0 145016. 6045.07   5
   4   1   1 4163.96 883.721   5
   4   1   2 84159.1 4556.89   5
   4   1   3 4773.00 1079.32   5
  -4  -1  -4 62835.4 2560.79   2
  -4  -1  -4 65806.6 3296.53   4
   4   1   4 65861.4 3842.23   5
  -4  -1  -5 2636.60 642.622   4
  -4  -1  -5 3151.70 479.962   2
  -4  -1  -6 986.078 485.549   4
  -4  -1  -6 1002.08 345.458   2
  -4  -1  -7 25492.6 2122.90   4
  -4  -1  -7 28755.9 1616.18   2
  -4  -1  -8 1328.73 519.675   4
  -4  -1  -8 1016.45 329.360   2
  -4  -1  -9 1121.64 376.640   2
  -4  -1  -9 1043.01 516.902   4
  -4  -1 -10 19809.4 2100.50   4
  -4  -1 -11 1516.96 776.393   4
  -4  -1 -12 7026.54 1407.08   4
  -4  -1 -13 14856.9 2068.95   4
  -4  -1 -14 12885.0 2068.41   4
  -4  -1 -15 523.255 698.042   4
   4   2 -12 3671.37 1554.13   5
   4   2 -11 6474.98 1698.81   5
   4   2 -10 28063.8 3194.64   5
   4   2  -9 37399.8 3535.05   5
   4   2  -8 11940.1 1893.39   5
  -4  -2   8 13203.3 1251.14   3
   4   2  -7 16131.7 2051.00   5
  -4  -2   7 18566.2 1466.80   3
   4   2  -6 4324.71 1075.05   5
   4   2  -5 30938.1 2625.42   5
   4   2  -4 1305.19 610.068   5
   4   2  -3 12465.5 1501.95   5
   4   2  -2 151.597 307.392   5
   4   2  -1 1163.88 487.471   5
   4   2   0 53970.4 3224.20   5
   4   2   1 114.471 405.628   5
  -4  -2  -2 15606.9 1414.37   5
   4   2   2 12026.7 1559.30   5
   4   2   3 2529.67 716.051   5
  -4  -2  -4 87950.7 3899.80   4
   4   2   4 88835.6 4465.75   5
  -4  -2  -5 33368.2 2208.16   4
  -4  -2  -5 33133.4 1842.00   2
  -4  -2  -6 46211.3 2759.19   4
  -4  -2  -6 49841.7 2340.54   2
  -4  -2  -7 61225.2 3347.33   4
  -4  -2  -7 61645.5 2743.77   2
  -4  -2  -8 52750.5 3100.96   4
  -4  -2  -8 46267.2 2412.58   2
  -4  -2  -9 9821.57 1360.76   4
  -4  -2  -9 10054.6 1066.86   2
  -4  -2 -10 872.434 513.880   4
  -4  -2 -11 92587.8 4914.68   4
  -4  -2 -12-411.175 608.473   4
  -4  -2 -13 1224.49 804.489   4
  -4  -2 -14-422.090 784.597   4
  -4  -2 -15 8932.11 1751.91   4
   4   3 -11 1946.12 1127.52   5
   4   3 -10 19988.5 2662.99   5
   4   3  -9-207.342 745.671   5
   4   3  -8 1736.19 530.209   1
  -4  -3   8 1523.30 482.331   3
   4   3  -8 1508.15 747.171   5
   4   3  -7 73429.9 4628.28   5
  -4  -3   7 78748.6 3532.53   3
   4   3  -6 7144.13 1313.49   5
  -4  -3   6 8293.72 998.833   3
   4   3  -5 15873.2 1856.12   5
   4   3  -4 24490.1 2181.40   5
   4   3  -3 196603. 7328.40   5
   4   3  -2 8927.45 1236.79   5
   4   3  -1 16342.3 1635.94   5
   4   3   0 30634.5 2327.57   5
  -4  -3   0 38743.5 2247.80   5
   4   3   1 98931.2 4737.86   5
  -4  -3  -1 110509. 4313.17   5
   4   3   2 3615.79 807.056   5
  -4  -3  -2 2584.56 534.632   5
   4   3   3 8550.45 1196.06   5
  -4  -3  -3 7846.86 947.785   5
  -4  -3  -4 36177.4 2246.35   4
  -4  -3  -4 36909.7 2190.43   5
  -4  -3  -5 7056.83 960.360   4
  -4  -3  -6 14050.1 1415.81   4
  -4  -3  -7-41.6620 417.057   4
  -4  -3  -8 4488.32 898.959   4
  -4  -3  -9 583.956 441.461   4
  -4  -3 -10 74702.3 4083.45   4
  -4  -3 -11 1536.71 711.886   4
  -4  -3 -12 24297.0 2388.96   4
  -4  -3 -13 15621.6 1988.99   4
  -4  -3 -14 6457.75 1431.28   4
  -4  -3 -15 9633.39 1788.37   4
   4   4 -11 10841.5 2066.55   5
   4   4 -10 47179.8 4076.01   5
  -4  -4   9 887.808 494.035   3
   4   4  -9 273.161 564.329   5
  -4  -4   8 1355.47 532.752   3
   4   4  -8 2226.01 794.029   5
  -4  -4   7 243.275 272.313   3
   4   4  -7 865.578 616.918   5
  -4  -4   6 6043.40 908.096   3
   4   4  -6 5189.95 1107.12   5
   4   4  -5 13853.3 1688.43   5
  -4  -4   5 17079.8 1474.14   3
   4   4  -4 394.901 471.691   5
   4   4  -3 3182.97 752.598   5
   4   4  -2 14920.4 1534.31   5
   4   4  -1 28235.0 2127.74   5
  -4  -4   1 32308.4 2023.21   5
  -4  -4   0 7116.40 904.749   5
   4   4   0 5799.54 936.587   5
   4   4   1 36706.9 2497.40   5
   4   4   2 31726.6 2295.47   5
  -4  -4  -3 90363.9 3868.75   4
   4   4   3 96169.0 4258.22   5
  -4  -4  -4 21583.9 1647.04   4
  -4  -4  -4 20170.4 1461.72   5
  -4  -4  -5 85835.6 3692.65   4
  -4  -4  -5 75705.5 3366.48   5
  -4  -4  -6 307.762 304.832   4
  -4  -4  -7 39207.6 2479.21   4
  -4  -4  -8 4330.72 846.654   4
  -4  -4  -9 17919.9 1740.22   4
  -4  -4 -10 12341.3 1484.57   4
  -4  -4 -11 1262.46 697.460   4
  -4  -4 -12 966.233 633.025   4
  -4  -4 -13 20599.2 2227.80   4
  -4  -4 -14 3111.46 1000.30   4
  -4  -4 -15 3903.82 1185.67   4
   4   5 -11 14817.3 2405.59   5
   4   5 -10-83.0358 687.532   5
   4   5  -9 11978.4 1852.94   5
  -4  -5   9 14615.5 1614.29   3
  -4  -5   8 5568.11 936.684   3
   4   5  -8 5505.38 1368.79   5
   4   5  -7 23261.9 2357.71   5
  -4  -5   7 19561.0 1757.73   3
   4   5  -6 48596.2 3339.76   5
  -4  -5   6 47871.2 2791.26   3
   4   5  -5 14242.9 1635.21   5
  -4  -5   5 14376.7 1411.13   3
   4   5  -4 19274.4 1841.94   5
  -4  -5   4 21428.1 1718.94   3
   4   5  -3 12290.4 1393.61   5
  -4  -5   3 13918.4 1352.54   3
   4   5  -2 11954.9 1331.52   5
   4   5  -1 3134.57 714.440   5
  -4  -5   1 3769.32 632.849   5
   4   5   0 27605.9 1983.28   5
   4   5   1 17.7138 326.289   5
   4   5   2 349.550 322.461   5
  -4  -5  -3 15090.2 1336.53   4
  -4  -5  -4 1297.63 451.771   4
  -4  -5  -5 22544.4 1701.79   4
  -4  -5  -6 6751.23 930.544   4
  -4  -5  -7 40475.3 2440.63   4
  -4  -5  -8 37116.1 2389.28   4
  -4  -5  -9 65046.5 3404.89   4
  -4  -5 -10 8751.79 1226.35   4
  -4  -5 -11 14332.2 1597.84   4
  -4  -5 -12 24451.6 2231.06   4
  -4  -5 -13 10758.7 1549.99   4
  -4  -5 -14 14415.3 1861.88   4
  -4  -5 -15 2648.54 1031.87   4
   4   6 -11 2520.91 1099.07   5
   4   6 -10 30481.3 3110.58   5
  -4  -6   9 224.140 461.659   3
   4   6  -9 447.856 606.652   5
  -4  -6   8 2409.83 720.593   3
   4   6  -8 1710.45 760.422   5
  -4  -6   7 3611.48 816.861   3
   4   6  -7 5743.97 1209.19   5
   4   6  -6 7305.92 1230.76   5
  -4  -6   6 8684.44 1204.25   3
   4   6  -5 31708.8 2432.75   5
  -4  -6   5 31770.4 2288.40   3
   4   6  -4 17112.8 1681.04   5
  -4  -6   4 13959.2 1461.49   3
  -4  -6   3 440.895 346.366   3
   4   6  -3 153.363 292.009   5
   4   6  -2 80625.0 3657.25   5
  -4  -6   2 74779.5 3634.74   3
   4   6  -1 82667.7 3593.79   5
  -4  -6   1 74772.0 3564.18   3
   4   6   0 88393.6 3797.69   5
  -4  -6   0 81393.0 3721.28   3
   4   6   1 12486.3 1244.81   5
  -4  -6  -1 13413.9 1039.39   5
   4   6   2 63177.0 2915.94   5
  -4  -6  -2 67520.1 2633.00   5
  -4  -6  -3 231.254 301.579   4
  -4  -6  -3-61.0557 150.643   5
  -4  -6  -4 46476.8 2406.70   4
  -4  -6  -5 29554.1 1882.50   4
  -4  -6  -6 33382.1 2041.21   4
  -4  -6  -7 3445.09 697.262   4
  -4  -6  -8 10160.5 1173.46   4
  -4  -6  -9 1175.22 469.524   4
  -4  -6 -10 2761.32 698.956   4
  -4  -6 -11-2.09120 368.526   4
  -4  -6 -12 1778.18 746.743   4
  -4  -6 -12 972.973 483.634   3
  -4  -6 -13 21813.5 2129.95   4
  -4  -6 -14 8436.10 1379.39   4
   4   7 -10 21065.0 2487.38   5
   4   7  -9 15217.5 1996.06   5
  -4  -7   9 14777.9 1805.58   3
   4   7  -8 27726.7 2566.62   5
  -4  -7   8 22273.7 2162.73   3
   4   7  -7 59236.7 3692.66   5
  -4  -7   7 47321.4 3175.80   3
  -4  -7   6 1059.88 459.061   3
   4   7  -6 2005.52 734.278   5
   4   7  -5 11415.4 1364.88   5
  -4  -7   5 10220.4 1356.00   3
  -4  -7   4-23.3081 340.839   3
   4   7  -4 690.243 377.525   5
  -4  -7   3 6094.84 1016.06   3
   4   7  -3 5745.36 886.498   5
   4   7  -2 13919.4 1283.68   5
  -4  -7   2 14214.7 1516.46   3
  -4  -7   1 624.277 449.881   3
   4   7  -1 304.015 284.501   5
  -4  -7   0 1480.67 549.598   3
   4   7   0-35.0051 226.963   5
  -4  -7  -1 2209.52 621.324   3
   4   7   1 1757.02 410.857   5
  -4  -7  -2 39602.2 2100.25   4
  -4  -7  -2 42584.9 2573.77   3
  -4  -7  -3 12808.7 1096.18   4
  -4  -7  -3 11460.9 1306.61   3
  -4  -7  -4 11759.2 1063.18   4
  -4  -7  -4 12122.3 1326.44   3
  -4  -7  -5 13153.8 1148.49   4
  -4  -7  -5 12299.5 1382.24   3
  -4  -7  -6 65668.4 2917.39   4
  -4  -7  -6 60037.0 3241.21   3
  -4  -7  -7 941.739 455.320   3
  -4  -7  -7 1407.87 456.416   4
  -4  -7  -8 29354.3 1915.78   4
  -4  -7  -8 27318.4 2075.62   3
  -4  -7  -9 5544.63 858.711   4
  -4  -7  -9 6159.50 979.630   3
  -4  -7 -10 38092.7 2490.15   3
  -4  -7 -10 36543.3 2378.86   4
  -4  -7 -11-82.6981 374.032   4
  -4  -7 -11 660.445 484.195   3
  -4  -7 -12 3449.15 865.174   4
  -4  -7 -13 5479.14 1053.85   4
  -4  -8   9 1087.46 802.962   3
  -4  -8   8 18610.3 2079.64   3
  -4  -8   7-35.0306 433.535   3
  -4  -8   6 17778.1 1902.25   3
  -4  -8   5 1395.57 640.438   3
  -4  -8   4 26232.7 2239.84   3
  -4  -8   3 58829.4 3494.87   3
  -4  -8   2 15828.9 1727.81   3
  -4  -8   1 11200.0 1469.88   3
  -4  -8   0 12114.1 1445.48   3
  -4  -8  -1 20584.1 1380.78   4
  -4  -8  -1 21934.9 1913.74   3
  -4  -8  -2 467.676 446.699   3
  -4  -8  -2 17.4172 220.435   4
  -4  -8  -3 3473.19 807.213   3
  -4  -8  -3 1941.13 441.322   4
  -4  -8  -4 166.611 340.611   3
  -4  -8  -4 43.9593 253.369   4
  -4  -8  -5 6858.37 778.367   4
  -4  -8  -5 5494.30 974.548   3
  -4  -8  -6 28821.1 1723.86   4
  -4  -8  -6 28067.7 2187.83   3
  -4  -8  -7 875.117 559.571   3
  -4  -8  -7 290.964 309.736   4
  -4  -8  -8 4858.79 923.165   3
  -4  -8  -8 4073.35 677.908   4
  -4  -8  -9-146.777 422.664   3
  -4  -8  -9 2.97719 316.571   4
   4   8  10 42670.1 3177.17   2
  -4  -8 -10 46251.4 2885.76   3
   4   8  11 1681.03 742.994   2
  -4  -8 -11 1998.91 649.865   3
  -4  -9   8 2049.57 834.777   3
  -4  -9   7 5520.61 1190.07   3
  -4  -9   6 7693.93 1349.43   3
  -4  -9   5 1989.20 762.200   3
  -4  -9   4 28452.2 2475.51   3
  -4  -9   3 286.638 425.407   3
  -4  -9   2 2224.89 748.722   3
  -4  -9   1 31892.5 2566.88   3
  -4  -9   0 10584.5 1483.48   3
  -4  -9  -1 13934.9 1640.65   3
  -4  -9  -2 15084.9 1672.15   3
  -4  -9  -3 141964. 5946.90   3
  -4  -9  -4 108.167 409.207   3
  -4  -9  -5 6929.45 1141.62   3
  -4  -9  -6 1454.22 608.196   3
  -4  -9  -7 65107.0 3679.15   3
   4   9   8 6602.40 1274.45   2
  -4  -9  -8 6692.15 1169.31   3
   4   9   9 5970.45 1192.64   2
  -4  -9  -9 6867.01 1139.92   3
   4   9  10 5866.18 1158.72   2
  -4  -9 -10 5283.36 949.056   3
   4   9  11-1009.80 660.997   2
  -4 -10   6 14156.6 1889.30   3
  -4 -10   5 17306.1 2069.57   3
  -4 -10   4 38611.3 3084.28   3
  -4 -10   3 2414.31 860.585   3
  -4 -10   2 12572.0 1714.56   3
  -4 -10   1 5999.43 1207.44   3
  -4 -10   0 4554.40 1009.15   3
  -4 -10  -1 8719.58 1417.70   3
  -4 -10  -2-516.663 560.796   3
  -4 -10  -3 112.651 437.839   3
  -4 -10  -4 3280.18 929.915   3
  -4 -10  -5 14982.4 1785.58   3
  -4 -10  -6 4857.69 1080.01   3
  -4 -10  -7 16868.7 1889.93   3
   4  10   8 19264.6 2234.18   2
  -4 -10  -8 20412.7 2072.10   3
   4  10   9 22231.8 2347.78   2
  -4 -10  -9 23736.3 2236.39   3
   4  10  10 2803.56 1018.44   2
  -4 -10 -10 2233.34 800.026   3
   4  10  11 12567.9 1772.18   2
  -4 -11   2 2305.21 887.470   3
  -4 -11   1 28197.6 2701.55   3
  -4 -11   0 23419.9 2418.06   3
  -4 -11  -1 4938.98 1143.49   3
  -4 -11  -2 22761.4 2315.02   3
  -4 -11  -3 19806.2 2138.42   3
  -4 -11  -4 7456.11 1386.64   3
  -4 -11  -5 622.107 587.977   3
  -4 -11  -6 6891.87 1307.55   3
  -4 -11  -7 798.064 577.295   3
  -4 -11  -8-91.0836 663.071   3
  -4 -11  -9 2549.38 885.645   3
   5 -11  -1 7414.03 1693.67   5
  -5  11   0 6229.89 1114.62   2
   5 -11   0 7517.10 1607.80   5
  -5  11  -1 18245.1 1857.57   2
  -5  11  -2-393.563 482.734   2
   5 -10  -5 10901.0 1983.06   5
   5 -10  -4 12146.9 2182.96   5
   5 -10  -3 1400.83 1037.28   5
   5 -10  -2 6786.44 1604.06   5
   5 -10  -1 875.126 826.293   5
   5 -10   0 186.879 604.129   5
   5 -10   1 801.432 663.670   5
  -5  10  -2 1789.23 624.800   2
  -5  10  -3 1542.52 611.135   2
   5  -9  -6 6070.40 1565.97   5
   5  -9  -5 7820.04 1722.93   5
   5  -9  -4 282.691 620.455   5
   5  -9  -3 12556.4 2112.21   5
   5  -9  -2 39352.9 3765.13   5
   5  -9  -1-884.174 785.777   5
  -5   9   0 13334.8 1537.91   4
   5  -9   0 10649.2 1982.42   5
  -5   9  -1 2822.92 765.101   4
   5  -9   1 1765.62 988.124   5
  -5   9  -2 65438.5 3466.52   4
   5  -9   2 62186.8 4607.29   5
  -5   9  -3-110.045 447.157   4
  -5   9  -4 6864.40 968.171   2
  -5   9  -4 6951.50 1061.95   4
  -5   9  -5 15504.0 1548.50   4
  -5   9  -6 6638.71 1056.16   4
  -5   9  -7 1203.76 651.762   4
  -5   9  -8 2970.62 859.724   4
  -5   9  -9 3832.33 894.424   4
  -5   9 -10 2375.48 705.272   4
   5  -8  -7 2880.56 1157.02   5
   5  -8  -6 710.027 906.836   5
   5  -8  -5 25106.8 2869.23   5
   5  -8  -4 196.130 560.551   5
   5  -8  -3-272.898 711.109   5
   5  -8  -2 1051.21 818.100   5
   5  -8  -1-1982.56 979.765   5
   5  -8   0 286.444 671.255   5
  -5   8  -1 2195.35 762.244   4
   5  -8   1 856.487 745.594   5
  -5   8  -2-67.0207 544.173   4
   5  -8   2-1226.98 786.464   5
  -5   8  -3 11258.0 1397.96   4
   5  -8   3 10338.7 1865.50   5
  -5   8  -4 34761.2 2504.74   4
  -5   8  -5 2400.53 712.518   4
  -5   8  -6 17030.4 1715.71   4
  -5   8  -7 1245.66 606.192   4
  -5   8  -8 24167.1 2127.16   4
  -5   8  -9 3118.70 865.061   4
  -5   8 -10 14939.5 1782.42   4
  -5   8 -11 1551.09 675.767   4
   5  -7  -7-167.538 622.973   5
   5  -7  -6 20693.0 2625.88   5
   5  -7  -5 2049.28 898.711   5
   5  -7  -4 10014.3 1828.48   5
   5  -7  -3 1103.65 807.152   5
   5  -7  -2 9569.49 1784.27   5
   5  -7  -1 29787.7 3223.22   5
   5  -7   0 5331.88 1438.62   5
   5  -7   1 4023.13 1252.88   5
  -5   7  -2 2916.21 800.336   4
   5  -7   2 1939.45 908.288   5
  -5   7  -3 1767.85 703.758   4
   5  -7   3 1758.87 861.501   5
  -5   7  -4 1518.77 609.152   4
  -5   7  -5 510.418 504.394   4
  -5   7  -6 1047.72 593.453   4
  -5   7  -7-493.038 484.619   4
  -5   7  -8 33334.9 2542.00   4
  -5   7  -9 94.6179 451.303   4
  -5   7 -10 18891.0 2011.31   4
  -5   7 -11 1193.65 642.502   4
   5  -6  -8 1022.82 813.341   5
   5  -6  -7 2039.94 1062.83   5
   5  -6  -6 859.802 809.984   5
   5  -6  -5 12078.3 1976.94   5
   5  -6  -4 4353.50 1266.50   5
   5  -6  -3-81.0079 473.435   5
   5  -6  -2 10535.6 1824.65   5
   5  -6  -1 6474.94 1519.55   5
   5  -6   0 53585.5 4307.18   5
   5  -6   1 32129.5 3319.77   5
   5  -6   2 2244.54 1003.40   5
  -5   6  -3 50784.0 3160.95   4
   5  -6   3 53286.3 4168.01   5
  -5   6  -4 27604.8 2259.02   4
   5  -6   4 22411.1 2716.05   5
  -5   6  -5 64744.3 3723.08   4
  -5   6  -6 6965.05 1193.50   4
  -5   6  -7 38791.1 2822.34   4
  -5   6  -8 1487.66 580.696   4
  -5   6  -9 976.809 620.367   4
  -5   6 -10 5856.58 1242.31   4
  -5   6 -11 14645.8 1835.18   4
  -5   6 -12-239.452 532.390   4
   5  -5  -9 22553.5 3013.09   5
   5  -5  -8 13817.9 2317.49   5
   5  -5  -7 54999.7 4538.89   5
   5  -5  -6 5610.31 1432.08   5
   5  -5  -5 7185.45 1507.19   5
   5  -5  -4 18521.3 2360.76   5
   5  -5  -3 18137.3 2347.92   5
   5  -5  -2 31345.6 3064.99   5
   5  -5  -1 1596.33 852.416   5
   5  -5   0 5155.99 1344.97   5
   5  -5   1 1522.36 920.729   5
   5  -5   2-487.928 751.027   5
  -5   5  -3 1916.52 681.132   4
   5  -5   3 2259.93 1003.34   5
  -5   5  -4 1296.71 594.192   4
   5  -5   4 2703.23 947.098   5
  -5   5  -5 670.187 509.548   4
  -5   5  -6 13150.1 1614.87   4
  -5   5  -7 30337.3 2546.47   4
  -5   5  -8 331.056 453.362   4
  -5   5  -9 17772.5 1978.09   4
  -5   5 -10 7771.21 1349.95   4
  -5   5 -11 33691.1 2859.80   4
  -5   5 -12 242.376 582.253   4
   5  -4  -9 771.301 803.853   5
   5  -4  -8 2671.16 1107.92   5
   5  -4  -7-31.6202 603.919   5
   5  -4  -6 1670.75 927.418   5
   5  -4  -5 5567.24 1389.51   5
   5  -4  -4 535.022 572.680   5
   5  -4  -3 34398.9 3208.07   5
   5  -4  -2 1753.96 807.805   5
   5  -4  -1 13108.4 1994.56   5
   5  -4   0 3242.56 1113.07   5
   5  -4   1 22291.3 2705.22   5
   5  -4   2 39166.7 3643.55   5
  -5   4  -3 2333.15 742.786   4
   5  -4   3 1065.02 759.167   5
  -5   4  -4 16429.5 1703.16   4
   5  -4   4 16662.6 2295.19   5
  -5   4  -5 4167.64 889.077   4
  -5   4  -6 232.047 340.199   4
  -5   4  -7 521.151 470.684   4
  -5   4  -8 654.962 479.805   4
  -5   4  -9 1925.78 798.295   4
  -5   4 -10 751.167 606.785   4
  -5   4 -11 31829.8 2848.81   4
  -5   4 -12 1348.90 779.663   4
  -5   4 -13 17541.2 2243.48   4
   5  -3  -9 4373.42 1377.58   5
   5  -3  -8 17289.7 2538.86   5
   5  -3  -7 6254.06 1534.29   5
   5  -3  -6 18762.5 2505.38   5
   5  -3  -5 10135.6 1768.61   5
   5  -3  -4 670.728 698.726   5
   5  -3  -3 9071.18 1627.91   5
   5  -3  -2 732.114 769.762   5
   5  -3  -1 202.156 626.916   5
   5  -3   0 5491.12 1271.97   5
   5  -3   1 57133.7 2413.38   1
   5  -3   1 55091.5 4328.79   5
   5  -3   2 668.830 319.674   1
   5  -3   2 1044.63 712.070   5
   5  -3   3 36316.9 3435.03   5
  -5   3  -4 66203.0 3648.36   4
   5  -3   4 64604.9 4561.56   5
  -5   3  -5 10323.0 1365.93   4
  -5   3  -6 20691.1 1955.28   4
  -5   3  -7 6759.89 1165.19   4
  -5   3  -8 150102. 6497.74   4
  -5   3  -9 806.764 619.640   4
  -5   3 -10 9439.82 1595.11   4
  -5   3 -11 12899.0 1874.54   4
  -5   3 -12 15988.8 2104.85   4
  -5   3 -13 1255.05 1009.96   4
   5  -2  -9 6108.36 1677.63   5
   5  -2  -8 7754.23 1744.26   5
   5  -2  -7-120.980 767.352   5
   5  -2  -6 89030.4 5585.46   5
   5  -2  -5-239.442 548.560   5
   5  -2  -4 73443.1 4771.21   5
   5  -2  -3 30933.3 2946.09   5
   5  -2  -2 48312.5 3684.94   5
   5  -2  -1 8348.20 672.612   1
   5  -2  -1 8000.24 1526.15   5
   5  -2   0 17742.7 2249.09   5
   5  -2   0 18070.3 1165.87   1
   5  -2   1 72159.8 4911.00   5
   5  -2   1 82085.1 3159.41   1
   5  -2   2-857.520 330.372   1
   5  -2   2 814.081 564.082   5
   5  -2   3 4878.44 1337.14   5
  -5   2  -4 960.350 474.037   4
   5  -2   4 102.381 598.638   5
  -5   2  -5 629.612 497.392   4
   5  -2   5 677.208 583.919   5
  -5   2  -6 37.9311 330.367   4
  -5   2  -7 3898.85 893.122   4
  -5   2  -8 920.853 567.586   4
  -5   2  -9 4607.56 1012.90   4
  -5   2 -10 34192.6 2912.33   4
  -5   2 -11 148.730 627.140   4
  -5   2 -12 24205.0 2654.88   4
  -5   2 -13 3617.91 1190.87   4
   5  -1 -10 2449.42 1212.51   5
   5  -1  -9 23678.3 3175.76   5
   5  -1  -8 2927.51 1170.48   5
   5  -1  -7 5421.44 1440.08   5
   5  -1  -6 2499.44 877.755   5
   5  -1  -5 189.950 528.384   5
   5  -1  -4 3326.15 1007.26   5
   5  -1  -3 744.120 513.783   5
   5  -1  -2 15110.1 2016.93   5
   5  -1  -1-601.755 584.799   5
   5  -1   0 33021.3 3045.74   5
   5  -1   1 13060.7 1969.64   5
   5  -1   2 24669.7 2744.10   5
   5  -1   3 628.927 529.179   5
  -5   1  -4 9792.04 1285.73   4
   5  -1   4 8549.53 1569.97   5
  -5   1  -5 43148.3 2785.14   4
   5  -1   5 41018.6 3505.41   5
  -5   1  -6 1620.27 357.107   2
  -5   1  -6 2158.27 632.051   4
  -5   1  -7 8146.26 1277.39   4
  -5   1  -7 10879.8 924.024   2
  -5   1  -8 6941.67 1221.00   4
  -5   1  -9 2060.63 762.355   4
  -5   1 -10 1240.09 568.622   4
  -5   1 -11-75.6468 559.452   4
  -5   1 -12-152.543 680.138   4
  -5   1 -13 2172.52 1053.34   4
   5   0 -10 23024.8 3207.46   5
   5   0  -9 19872.4 2812.80   5
   5   0  -8-1267.76 858.281   5
   5   0  -7 20086.8 2614.89   5
   5   0  -6 15.9806 472.989   5
   5   0  -5 22842.0 2581.91   5
   5   0  -4 1026.40 649.193   5
   5   0  -3 48368.9 3620.04   5
   5   0  -2 763.966 610.853   5
   5   0  -1 10814.1 1651.28   5
   5   0   0 1566.93 684.143   5
   5   0   1 9471.60 1577.61   5
   5   0   2 4270.75 1138.97   5
   5   0   3 2798.96 969.102   5
  -5   0  -4 16598.6 1650.38   4
   5   0   4 18733.7 2264.07   5
  -5   0  -5 17035.1 1682.25   4
  -5   0  -6 83705.7 4152.13   4
  -5   0  -7 13792.4 1580.34   4
  -5   0  -8-34.3374 376.173   4
  -5   0  -9 37367.9 2840.72   4
  -5   0 -10 45289.0 3273.01   4
  -5   0 -11 86806.9 4865.43   4
  -5   0 -12 4526.17 1170.54   4
  -5   0 -13 26705.5 2771.45   4
   5   1 -10 3266.52 1383.38   5
   5   1  -9 3515.57 1193.25   5
   5   1  -8 12069.6 2131.08   5
   5   1  -7 19477.3 2609.41   5
   5   1  -6 504.731 601.289   5
   5   1  -5 32433.7 3005.97   5
   5   1  -4 19934.6 2283.41   5
   5   1  -3 40899.9 3247.00   5
   5   1  -2 8914.98 1465.05   5
   5   1  -1 106024. 5488.47   5
   5   1   0 7831.00 1413.93   5
   5   1   1 48859.9 3682.32   5
   5   1   2 20463.1 2379.81   5
   5   1   3 31760.0 2982.35   5
  -5  -1  -4 45191.7 2829.08   4
   5   1   4 46329.8 3493.20   5
  -5  -1  -5 783.542 469.850   4
  -5  -1  -6 12202.3 1426.55   4
  -5  -1  -7 2389.74 676.150   4
  -5  -1  -8 1161.97 570.036   4
  -5  -1  -9-88.1546 381.336   4
  -5  -1 -10 4123.37 996.609   4
  -5  -1 -11 671.117 610.768   4
  -5  -1 -12 4559.73 1145.75   4
  -5  -1 -13 21968.8 2418.53   4
   5   2 -10 19775.0 2904.36   5
   5   2  -9 5857.01 1557.26   5
   5   2  -8 19655.6 2647.90   5
  -5  -2   7 407.451 399.127   3
   5   2  -7-45.8074 601.754   5
   5   2  -6 48691.2 3858.96   5
   5   2  -5 2789.49 1005.06   5
   5   2  -4 2796.78 889.616   5
   5   2  -3 2791.44 894.324   5
   5   2  -2 714.298 458.041   5
   5   2  -1 376.570 551.845   5
   5   2   0 5547.06 1353.22   5
   5   2   1 4887.22 1213.67   5
   5   2   2 2006.78 739.677   5
   5   2   3 65906.6 4205.85   5
   5   2   4 2403.38 770.025   5
  -5  -2  -4 1925.98 632.287   4
  -5  -2  -5 25158.1 2000.46   4
  -5  -2  -6 4780.61 906.664   4
  -5  -2  -7 28216.9 2208.51   4
  -5  -2  -8 21730.9 1977.33   4
  -5  -2  -9 1232.42 582.667   4
  -5  -2 -10 17875.9 1899.76   4
  -5  -2 -11 8074.41 1371.32   4
  -5  -2 -12 3061.92 812.220   4
  -5  -2 -13 2753.63 1015.40   4
  -5  -2 -14 1409.18 801.697   4
   5   3 -10 8293.32 1834.74   5
   5   3  -9 663.483 764.091   5
   5   3  -8 1122.68 1748.44   5
   5   3  -7 23468.0 2719.99   5
  -5  -3   7 26610.1 2029.69   3
   5   3  -6 50554.6 3886.79   5
  -5  -3   6 51961.8 2913.70   3
   5   3  -5 5022.21 1200.60   5
   5   3  -4 11261.3 1637.53   5
   5   3  -3 7325.37 1307.65   5
   5   3  -2 61427.6 3846.28   5
   5   3  -1 604.026 416.406   5
   5   3   0 35781.3 2871.26   5
   5   3   1 22758.1 2329.55   5
   5   3   2 1191.21 642.170   5
   5   3   3 30165.5 2607.19   5
  -5  -3  -4-3.64874 357.278   4
   5   3   4 274.212 485.881   5
  -5  -3  -5 8479.28 1132.61   4
  -5  -3  -6 590.943 408.837   4
  -5  -3  -7 47200.1 2888.69   4
  -5  -3  -8 10.6423 457.141   4
  -5  -3  -9 37450.9 2665.42   4
  -5  -3 -10 42565.5 2950.35   4
  -5  -3 -11 14830.3 1809.49   4
  -5  -3 -12 3942.13 1033.42   4
  -5  -3 -13 7944.97 1425.10   4
  -5  -3 -14 85141.0 4989.19   4
   5   4 -10-476.873 718.630   5
   5   4  -9 7021.56 1623.46   5
  -5  -4   8 507.092 433.229   3
   5   4  -8 481.200 703.287   5
  -5  -4   7 1986.43 651.833   3
   5   4  -7 1110.00 685.675   5
  -5  -4   6 2244.73 676.929   3
   5   4  -6 2910.93 866.212   5
  -5  -4   5 1207.57 533.499   3
   5   4  -5 890.713 560.163   5
   5   4  -4 51622.1 3546.25   5
   5   4  -3 24236.8 2312.58   5
   5   4  -2 15611.6 1821.63   5
   5   4  -1 14161.7 1715.49   5
   5   4   0 91658.6 4769.03   5
   5   4   1-1563.04 701.498   5
   5   4   2 67631.8 3956.32   5
   5   4   3 23392.3 2162.85   5
  -5  -4  -4 63203.4 3228.89   4
  -5  -4  -5 2512.96 603.184   4
  -5  -4  -6 30429.5 2171.96   4
  -5  -4  -7 37504.5 2506.21   4
  -5  -4  -8 22.6082 370.499   4
  -5  -4  -9 4322.16 925.361   4
  -5  -4 -10 4829.37 961.078   4
  -5  -4 -11 1854.55 723.679   4
  -5  -4 -12 515.747 593.049   4
  -5  -4 -13 3692.72 999.835   4
   5   5 -10 18728.6 2688.28   5
   5   5  -9 31952.0 3342.25   5
   5   5  -8 21283.5 2596.29   5
  -5  -5   8 21603.9 1999.13   3
   5   5  -7 31692.5 3033.87   5
  -5  -5   7 32104.0 2395.17   3
  -5  -5   6 5050.31 934.063   3
   5   5  -6 3243.46 932.551   5
   5   5  -5 41012.5 3127.03   5
  -5  -5   5 37093.6 2519.21   3
  -5  -5   4 643.234 379.442   3
   5   5  -4 697.031 537.924   5
   5   5  -3 35354.7 2740.84   5
   5   5  -2 7517.59 1226.08   5
   5   5  -1 17463.9 1828.72   5
   5   5   0 2662.07 764.277   5
   5   5   1 239.301 392.321   5
   5   5   2 319.175 338.742   5
   5   5   3 3826.53 875.153   5
  -5  -5  -3 4372.67 806.371   4
  -5  -5  -4 9282.14 1128.57   4
  -5  -5  -5 1308.24 513.393   4
  -5  -5  -6 12677.3 1360.11   4
  -5  -5  -7 1487.57 544.442   4
  -5  -5  -8 36044.3 2458.05   4
  -5  -5  -9 919.827 492.107   4
  -5  -5 -10 14683.8 1621.26   4
  -5  -5 -11 15390.6 1708.93   4
  -5  -5 -12 1752.05 664.295   4
  -5  -5 -13 9449.69 1493.83   4
   5   6  -9-235.648 671.190   5
  -5  -6   8 4984.50 1076.70   3
   5   6  -8 4365.18 1251.17   5
  -5  -6   7 3794.60 951.424   3
   5   6  -7 3967.22 1110.16   5
  -5  -6   6 1230.76 541.657   3
   5   6  -6 1184.80 686.837   5
  -5  -6   5 4769.84 987.934   3
   5   6  -5 4429.08 1018.63   5
   5   6  -4 41720.2 2999.74   5
  -5  -6   4 38828.1 2619.63   3
   5   6  -3 29034.1 2373.60   5
  -5  -6   3 28340.7 2117.62   3
  -5  -6   2 1318.38 522.474   3
   5   6  -2 281.837 491.612   5
   5   6  -1 23220.3 2056.31   5
   5   6   0 3159.92 770.286   5
   5   6   1 13249.2 1438.39   5
   5   6   2 5845.52 945.107   5
  -5  -6  -3 77341.5 3542.57   4
  -5  -6  -4-156.244 286.795   4
  -5  -6  -5 8801.73 1086.76   4
  -5  -6  -6 1948.65 557.405   4
  -5  -6  -7 6882.97 1003.00   4
  -5  -6  -8 1035.48 499.149   4
  -5  -6  -9 7668.83 1118.22   4
  -5  -6 -10 9002.69 1230.69   4
  -5  -6 -11 13450.5 1547.06   4
  -5  -6 -12 44866.5 3009.55   4
  -5  -6 -13 1452.75 633.545   4
  -5  -7   8 9898.92 1505.62   3
  -5  -7   7 11837.4 1543.46   3
  -5  -7   6 766.215 560.665   3
   5   7  -6-808.861 585.909   5
  -5  -7   5 4078.15 957.243   3
   5   7  -5 3855.68 891.228   5
  -5  -7   4 1366.89 573.483   3
   5   7  -4 2217.80 650.238   5
  -5  -7   3 1196.15 549.957   3
   5   7  -3 1001.59 465.655   5
   5   7  -2 9532.89 1228.19   5
  -5  -7   2 9904.22 1264.73   3
   5   7  -1 12432.3 1407.88   5
  -5  -7   1 9825.65 1257.81   3
  -5  -7   0 1830.17 592.953   3
   5   7   0 1973.00 592.428   5
   5   7   1 23988.0 1784.90   5
  -5  -7  -1 24878.9 1953.79   3
  -5  -7  -2 41152.9 2346.83   4
  -5  -7  -2 40254.2 2567.02   3
  -5  -7  -3 44317.0 2432.04   4
  -5  -7  -4 538.856 265.904   4
  -5  -7  -5 61711.1 2996.86   4
  -5  -7  -6 3870.21 737.424   4
  -5  -7  -7 53026.9 2801.01   4
  -5  -7  -8 9306.43 1143.67   4
  -5  -7  -9 31487.6 2180.27   4
  -5  -7 -10 15314.1 1547.48   4
  -5  -7 -11 119.207 410.484   4
  -5  -7 -11 801.070 535.903   3
  -5  -7 -12 3193.85 796.327   4
  -5  -8   7 34929.2 2864.70   3
  -5  -8   6 20079.1 2113.65   3
  -5  -8   5 12928.1 1640.04   3
  -5  -8   4 30959.8 2523.10   3
  -5  -8   3 27043.2 2287.30   3
  -5  -8   2 35576.4 2589.90   3
  -5  -8   1 672.226 487.211   3
  -5  -8   0 33766.4 2462.15   3
  -5  -8  -1 821.113 523.088   3
  -5  -8  -1 1247.64 457.095   4
  -5  -8  -2 8899.17 968.682   4
  -5  -8  -2 9376.01 1254.39   3
  -5  -8  -3 1410.33 569.554   3
  -5  -8  -3 676.778 289.142   4
  -5  -8  -4 6617.29 1063.78   3
  -5  -8  -4 5822.74 780.530   4
  -5  -8  -5 304.275 424.942   3
  -5  -8  -5 636.551 321.584   4
  -5  -8  -6 7117.54 1116.80   3
  -5  -8  -6 6140.81 837.419   4
  -5  -8  -7 3734.94 877.401   3
  -5  -8  -8 772.375 453.978   3
  -5  -8  -9 10255.3 1319.01   3
  -5  -8 -10 2953.79 778.071   3
  -5  -8 -11 14115.3 1617.24   3
  -5  -9   5 1263.77 692.066   3
  -5  -9   4 4683.42 1068.46   3
  -5  -9   3 525.207 497.742   3
  -5  -9   2 192.862 429.858   3
  -5  -9   1 18959.9 1910.68   3
  -5  -9   0 62232.3 3621.42   3
  -5  -9  -1 2467.46 755.259   3
  -5  -9  -2 3131.96 790.921   3
  -5  -9  -3 526.728 478.228   3
  -5  -9  -4 31978.2 2490.95   3
  -5  -9  -5-330.172 503.659   3
  -5  -9  -6 13849.9 1621.38   3
  -5  -9  -7 8088.23 1295.08   3
  -5  -9  -8 1614.16 610.273   3
  -5  -9  -9 13446.7 1647.43   3
  -5  -9 -10 282.214 528.127   3
  -5 -10   0 1027.93 655.282   3
  -5 -10  -1 4614.57 1046.28   3
  -5 -10  -2 13490.1 1688.20   3
  -5 -10  -3 3822.98 930.044   3
  -5 -10  -4 7660.65 1288.50   3
  -5 -10  -5 22018.5 2155.78   3
  -5 -10  -6 42483.4 3049.87   3
  -5 -10  -7 861.259 578.505   3
  -5 -10  -8 18827.9 1992.36   3
   6  -9  -1 14143.6 2483.89   5
  -6   9   0 433.762 522.260   4
   6  -9   0-569.670 808.750   5
  -6   9  -1 8890.26 1375.90   4
   6  -9   1 7185.68 1636.25   5
  -6   9  -2 2182.61 804.852   4
   6  -9   2 3719.05 1240.96   5
  -6   9  -3 516.776 566.717   4
  -6   9  -4 1282.78 651.015   4
  -6   9  -5 6713.32 1189.27   4
  -6   9  -6 2309.40 768.595   4
  -6   9  -7 1540.34 667.769   4
   6  -8  -3 4411.68 1419.31   5
   6  -8  -2 2794.39 1214.35   5
   6  -8  -1-1709.53 1030.71   5
   6  -8   0 620.384 858.221   5
  -6   8  -1 29308.1 2489.63   4
   6  -8   1 28633.1 3493.06   5
  -6   8  -2 10565.6 1504.98   4
   6  -8   2 8717.71 1922.87   5
  -6   8  -3 12739.0 1640.82   4
   6  -8   3 11754.7 2286.58   5
  -6   8  -4 623.327 661.767   4
  -6   8  -5 35718.1 2810.04   4
  -6   8  -6 165.900 496.753   4
  -6   8  -7 16516.2 1905.84   4
  -6   8  -8 12037.2 1600.68   4
   6  -7  -4 9702.47 1989.87   5
   6  -7  -3 6438.43 1666.19   5
   6  -7  -2 23498.3 3090.82   5
   6  -7  -1 2117.36 1161.88   5
   6  -7   0 7404.75 1847.00   5
   6  -7   1 178.749 940.295   5
  -6   7  -2 11779.2 1584.09   4
   6  -7   2 8905.36 1958.51   5
  -6   7  -3 2719.07 796.646   4
   6  -7   3 2343.32 1094.81   5
  -6   7  -4 1098.83 636.064   4
  -6   7  -5 4172.55 1004.18   4
  -6   7  -6-28.2589 481.964   4
  -6   7  -7 4664.01 1068.39   4
  -6   7  -8 542.976 709.235   4
  -6   7  -9 7988.32 1425.16   4
   6  -6  -5 786.260 856.057   5
   6  -6  -4 301.509 735.409   5
   6  -6  -3 8106.92 1898.78   5
   6  -6  -2 11321.0 2191.13   5
   6  -6  -1-952.356 877.419   5
   6  -6   0 3129.04 1315.10   5
   6  -6   1 9433.32 2108.45   5
  -6   6  -2 36657.1 2833.86   4
   6  -6   2 34770.0 3799.54   5
  -6   6  -3 1226.11 584.811   4
   6  -6   3-81.5971 957.680   5
  -6   6  -4 17729.5 1933.33   4
   6  -6   4 16851.2 2570.69   5
  -6   6  -5 2011.18 750.116   4
  -6   6  -6 529.193 466.303   4
  -6   6  -7 821.631 612.988   4
  -6   6  -8 18537.4 2110.04   4
  -6   6  -9 1451.32 750.885   4
  -6   6 -10 6253.47 1303.50   4
   6  -5  -5 10109.3 2001.89   5
   6  -5  -4 1889.19 989.219   5
   6  -5  -3 11603.2 2175.00   5
   6  -5  -2 2371.84 925.704   5
   6  -5  -1 3418.02 1349.32   5
   6  -5   0 1885.12 1064.79   5
   6  -5   1-2970.86 1256.81   5
   6  -5   2-2036.62 1094.20   5
  -6   5  -3 25052.3 2286.19   4
   6  -5   3 23777.1 3077.73   5
  -6   5  -4 11434.1 1519.04   4
   6  -5   4 9997.67 2037.85   5
  -6   5  -5 1331.30 593.235   4
  -6   5  -6 41153.9 3011.92   4
  -6   5  -7 24703.8 2328.34   4
  -6   5  -8 18132.6 2062.31   4
  -6   5  -9 1131.27 692.527   4
  -6   5 -10 42164.7 3345.04   4
   6  -4  -6 28836.1 3438.98   5
   6  -4  -5 1333.52 790.420   5
   6  -4  -4 34222.8 3594.61   5
   6  -4  -3-65.6295 624.944   5
   6  -4  -2 25964.3 3153.85   5
   6  -4  -1 21211.1 2859.21   5
   6  -4   0 10994.8 2129.72   5
   6  -4   1 32163.8 3687.54   5
   6  -4   2 6205.89 1552.46   5
  -6   4  -3 13113.8 1657.23   4
   6  -4   3 12037.5 2203.63   5
  -6   4  -4 2104.31 708.828   4
   6  -4   4 1767.12 1120.27   5
  -6   4  -5 11299.7 1527.53   4
  -6   4  -6 312.121 437.932   4
  -6   4  -7-77.5294 464.643   4
  -6   4  -8 2788.74 888.994   4
  -6   4  -9 335.172 545.368   4
  -6   4 -10 8223.25 1373.99   4
  -6   4 -11 1243.98 766.026   4
   6  -3  -6 1343.68 884.599   5
   6  -3  -5 4881.86 1416.06   5
   6  -3  -4 1849.31 1011.97   5
   6  -3  -3 2177.30 939.744   5
   6  -3  -2 870.111 719.709   5
   6  -3  -1-201.798 578.761   5
   6  -3   0 24843.7 3082.36   5
   6  -3   1 11641.1 2204.72   5
   6  -3   2-1157.45 1174.87   5
   6  -3   3 3762.41 1302.38   5
  -6   3  -4 12845.6 1586.92   4
   6  -3   4 12118.6 2158.59   5
  -6   3  -5 46064.5 3109.88   4
   6  -3   5 48367.0 4291.88   5
  -6   3  -6 2432.03 779.499   4
  -6   3  -7 20672.4 2066.47   4
  -6   3  -8 1400.83 628.032   4
  -6   3  -9 2659.26 813.414   4
  -6   3 -10-1569.88 753.103   4
  -6   3 -11 9511.90 1591.84   4
   6  -2  -7 15230.6 2560.08   5
   6  -2  -6 9906.91 2058.96   5
   6  -2  -5 27413.0 3164.32   5
   6  -2  -4 2205.48 1213.95   5
   6  -2  -3 2957.79 1211.05   5
   6  -2  -2 32209.4 3383.91   5
   6  -2  -1 8804.56 1792.31   5
   6  -2   0 1575.23 858.587   5
   6  -2   1-1257.10 821.035   5
   6  -2   2 2879.82 984.329   5
   6  -2   3 1698.98 877.830   5
  -6   2  -4 9104.26 1297.53   4
   6  -2   4 8255.73 1748.56   5
  -6   2  -5 5981.50 1117.09   4
   6  -2   5 5301.12 1502.66   5
  -6   2  -6 7964.23 1218.01   4
  -6   2  -7 28349.6 2408.70   4
  -6   2  -8 9252.45 1416.08   4
  -6   2  -9 15720.0 1874.26   4
  -6   2 -10 5987.63 1224.50   4
  -6   2 -11 47555.0 3518.71   4
   6  -1  -7-1252.24 964.682   5
   6  -1  -6 6504.34 1729.56   5
   6  -1  -5-60.9222 587.224   5
   6  -1  -4 325.858 778.036   5
   6  -1  -3 38385.1 3628.54   5
   6  -1  -2 1175.82 981.549   5
   6  -1  -1 41694.9 3829.99   5
   6  -1   0 198.083 596.128   5
   6  -1   1 44548.4 4089.95   5
   6  -1   2 24319.8 3035.18   5
   6  -1   3 9204.63 1844.20   5
  -6   1  -4 27229.2 2279.19   4
   6  -1   4 21271.9 2755.13   5
  -6   1  -5 7725.54 1179.35   4
   6  -1   5 6786.89 1586.74   5
  -6   1  -6 28455.7 2350.49   4
  -6   1  -7 4618.48 971.791   4
  -6   1  -8 4375.14 1034.09   4
  -6   1  -9 2553.60 818.070   4
  -6   1 -10 765.945 667.264   4
  -6   1 -11 4716.36 1131.01   4
   6   0  -7 1351.02 1220.44   5
   6   0  -6 55624.4 4730.65   5
   6   0  -5 5041.85 1397.25   5
   6   0  -4 6873.23 1586.81   5
   6   0  -3 184.898 676.870   5
   6   0  -2 2604.22 988.510   5
   6   0  -1 6808.29 1508.64   5
   6   0   0 2393.35 1073.69   5
   6   0   1-282.994 685.186   5
   6   0   2-1103.00 828.860   5
   6   0   3 35762.2 3600.04   5
  -6   0  -4 15658.0 1689.31   4
   6   0   4 15478.2 2276.40   5
  -6   0  -5 1153.70 604.698   4
   6   0   5 1409.00 907.449   5
  -6   0  -6 2659.60 736.723   4
  -6   0  -7 22642.0 2088.58   4
  -6   0  -8 43023.1 3031.32   4
  -6   0  -9 477.760 429.168   4
  -6   0 -10 16231.5 1917.82   4
  -6   0 -11 2195.83 881.098   4
  -6   0 -12 4127.23 1033.86   4
   6   1  -7 7583.89 1812.03   5
   6   1  -6 4986.45 1496.92   5
   6   1  -5 3461.69 1211.99   5
   6   1  -4 51398.5 4207.45   5
   6   1  -3 2017.17 991.978   5
   6   1  -2 10397.1 1833.25   5
   6   1  -1 3946.29 1204.79   5
   6   1   0 37924.0 3582.32   5
   6   1   1 9857.29 1873.88   5
   6   1   2 5338.47 1509.20   5
   6   1   3 19596.3 2565.35   5
   6   1   4 6319.01 1436.67   5
  -6  -1  -4 6282.65 1092.84   4
  -6  -1  -5 1339.53 563.002   4
  -6  -1  -6-6.89482 442.940   4
  -6  -1  -7 342.723 382.353   4
  -6  -1  -8 990.637 555.744   4
  -6  -1  -9 25994.4 2320.00   4
  -6  -1 -10 3481.56 920.738   4
  -6  -1 -11-48.3344 475.473   4
  -6  -1 -12 20494.3 2230.71   4
   6   2  -7-991.477 920.586   5
   6   2  -6 1318.04 967.876   5
   6   2  -5 51.1169 607.520   5
   6   2  -4 724.921 664.854   5
   6   2  -3 4803.85 1345.93   5
   6   2  -2 2102.98 916.926   5
   6   2  -1 6253.00 1328.32   5
   6   2   0 27841.7 2972.42   5
   6   2   1 218.502 668.522   5
   6   2   2 55511.1 4289.45   5
   6   2   3 344.229 499.675   5
  -6  -2  -4 60903.0 3459.27   4
   6   2   4 58093.9 4226.19   5
  -6  -2  -5 14074.7 1583.04   4
  -6  -2  -6 10169.4 1340.62   4
  -6  -2  -7 33350.7 2507.25   4
  -6  -2  -8 13474.0 1606.05   4
  -6  -2  -9 17421.9 1859.02   4
  -6  -2 -10 6333.42 1162.81   4
  -6  -2 -11 11660.3 1597.59   4
  -6  -2 -12 191.055 538.381   4
   6   3  -7 25894.9 3151.03   5
  -6  -3   6 3629.13 823.801   3
   6   3  -6 3827.23 1262.71   5
   6   3  -5 20751.1 2574.08   5
   6   3  -4 2078.37 971.107   5
   6   3  -3 83985.1 5153.11   5
   6   3  -2 3509.74 1065.17   5
   6   3  -1 5300.17 1255.83   5
   6   3   0 2514.56 926.310   5
   6   3   1 10550.5 1806.49   5
   6   3   2 10356.8 1748.37   5
   6   3   3 1298.34 688.762   5
  -6  -3  -4 773.087 506.298   4
   6   3   4-165.147 491.342   5
  -6  -3  -5 444.573 409.321   4
  -6  -3  -6 24110.9 2033.06   4
  -6  -3  -7 14148.5 1573.25   4
  -6  -3  -8 5540.36 1108.67   4
  -6  -3  -9 1030.34 511.227   4
  -6  -3 -10 10365.7 1428.87   4
  -6  -3 -11 48576.8 3300.29   4
  -6  -3 -12 945.932 603.910   4
   6   4  -7 16194.6 2373.43   5
  -6  -4   6 1123.87 507.258   3
   6   4  -6 1735.68 889.967   5
  -6  -4   5 873.881 516.947   3
   6   4  -5 779.143 796.530   5
   6   4  -4 1494.70 890.447   5
   6   4  -3 22673.2 2504.12   5
   6   4  -2 3738.98 1110.40   5
   6   4  -1 25071.8 2611.30   5
   6   4   0 19147.9 2304.94   5
   6   4   1 43197.9 3520.25   5
   6   4   2 441.610 494.994   5
   6   4   3 11617.2 1691.98   5
  -6  -4  -4 29136.6 2214.12   4
  -6  -4  -5 1775.45 582.269   4
  -6  -4  -6 1973.45 608.002   4
  -6  -4  -7-10.6379 338.724   4
  -6  -4  -8 8710.56 1263.53   4
  -6  -4  -9 2835.64 767.641   4
  -6  -4 -10 10938.7 1462.82   4
  -6  -4 -11 3098.02 902.904   4
  -6  -4 -12 4869.73 1099.70   4
  -6  -5   7 933.847 587.175   3
   6   5  -7 1207.06 838.194   5
   6   5  -6 26184.8 2890.77   5
  -6  -5   6 24774.3 2182.27   3
  -6  -5   5 2135.20 698.903   3
   6   5  -5 2913.56 1023.40   5
  -6  -5   4 6340.65 1019.38   3
   6   5  -4 7089.47 1475.94   5
   6   5  -3 1821.29 761.129   5
   6   5  -2 1653.61 726.571   5
   6   5  -1-92.1802 484.958   5
   6   5   0 12664.2 1753.89   5
   6   5   1 2898.23 916.552   5
   6   5   2 3082.57 864.114   5
  -6  -5  -3 15237.0 1545.23   4
   6   5   3 14832.9 1760.89   5
  -6  -5  -4-1.91510 337.182   4
  -6  -5  -5 38367.5 2533.41   4
  -6  -5  -6-27.7806 450.727   4
  -6  -5  -7 43763.5 2794.59   4
  -6  -5  -8 6652.12 1073.30   4
  -6  -5  -9 14519.8 1635.49   4
  -6  -5 -10 13823.4 1638.26   4
  -6  -5 -11 10318.3 1448.08   4
  -6  -5 -12 18638.7 1979.70   4
   6   6  -6 23946.8 2678.10   5
  -6  -6   6 25923.7 2331.07   3
   6   6  -5 19994.1 2359.66   5
  -6  -6   5 17110.7 1793.76   3
  -6  -6   4 8444.24 1210.28   3
   6   6  -4 12967.4 1829.27   5
  -6  -6   3 5797.41 1007.01   3
   6   6  -3 5918.60 1260.02   5
   6   6  -2 30649.9 2687.47   5
  -6  -6   2 23797.6 1988.12   3
   6   6  -1 6012.82 1192.42   5
   6   6   0 53405.9 3586.61   5
   6   6   1 6054.60 1138.62   5
   6   6   2 3697.47 858.433   5
  -6  -6  -3 1946.90 610.358   4
  -6  -6  -4 11405.1 1309.48   4
  -6  -6  -5 2991.29 698.611   4
  -6  -6  -6-455.128 451.628   4
  -6  -6  -7 188.899 379.093   4
  -6  -6  -8 4028.32 861.652   4
  -6  -6  -9 21388.4 1917.01   4
  -6  -6 -10 5095.85 991.493   4
  -6  -6 -11 1402.27 598.615   4
  -6  -7   5 1371.18 595.647   3
  -6  -7   4 4685.66 1017.07   3
  -6  -7   3 1920.52 674.006   3
  -6  -7   2 12984.7 1511.23   3
  -6  -7   1 14436.6 1571.91   3
  -6  -7   0 13567.1 1503.87   3
  -6  -7  -1 557.927 446.904   3
  -6  -7  -2 34116.9 2296.19   4
  -6  -7  -3 873.981 385.926   4
  -6  -7  -4 18923.8 1641.68   4
  -6  -7  -5 5110.86 892.781   4
  -6  -7  -6 44969.4 2668.03   4
  -6  -7  -7 3236.99 728.548   4
  -6  -7  -8-31.9762 342.230   4
  -6  -7  -9 10662.9 1317.97   4
  -6  -7 -10 6117.19 1045.39   4
  -6  -8   1 9006.45 1277.60   3
  -6  -8   0 108.159 373.237   3
  -6  -8  -1 3406.97 810.438   3
  -6  -8  -2 832.930 514.559   3
  -6  -8  -3 4054.03 894.472   3
  -6  -8  -4 906.288 448.512   3
  -6  -8  -5 4686.55 941.336   3
  -6  -8  -6 7803.35 1199.42   3
  -6  -8  -7 411.244 419.060   3
  -7   7  -2-1899.69 770.943   4
  -7   7  -3 626.858 552.359   4
  -7   6  -2 692.670 608.745   4
  -7   6  -3 4824.50 1063.72   4
  -7   6  -4 3161.91 933.177   4
  -7   6  -5 17070.9 1993.04   4
   7  -5   0 1930.57 1126.94   5
   7  -5   1 2507.74 1121.74   5
   7  -5   2 1954.68 1266.71   5
  -7   5  -3 13570.9 1797.19   4
   7  -5   3 15340.1 2775.22   5
  -7   5  -4 3826.08 972.479   4
   7  -5   4 5006.95 1609.81   5
  -7   5  -5 11213.2 1600.30   4
  -7   5  -6 142.434 468.005   4
   7  -4  -1 438.795 991.838   5
   7  -4   0 16464.0 2830.69   5
   7  -4   1 4361.99 1600.12   5
   7  -4   2 1478.89 888.109   5
  -7   4  -3 7827.91 1406.78   4
   7  -4   3 4383.50 1571.30   5
  -7   4  -4 1103.50 682.016   4
   7  -4   4 1147.99 995.281   5
  -7   4  -5 45.2528 515.913   4
  -7   4  -6 363.585 491.095   4
  -7   4  -7 520.624 618.887   4
   7  -3  -2 890.098 826.601   5
   7  -3  -1 687.011 889.565   5
   7  -3   0-402.202 780.108   5
   7  -3   1 17385.6 2963.24   5
   7  -3   2 12917.8 2535.64   5
  -7   3  -3 13930.8 1759.64   4
   7  -3   3 9656.37 2218.77   5
  -7   3  -4 28144.3 2486.15   4
   7  -3   4 26308.9 3478.75   5
  -7   3  -5 2505.34 791.596   4
  -7   3  -6 2723.41 830.892   4
  -7   3  -7 1185.51 722.654   4
  -7   3  -8 25492.6 2458.09   4
   7  -2  -3 4478.65 1334.42   5
   7  -2  -2 2606.03 1314.32   5
   7  -2  -1-4069.07 1467.14   5
   7  -2   0 10479.6 2296.34   5
   7  -2   1-234.143 841.560   5
   7  -2   2 1036.60 1092.76   5
   7  -2   3 2417.92 1223.98   5
  -7   2  -4 10020.7 1444.67   4
   7  -2   4 6298.69 1748.97   5
  -7   2  -5 3360.52 914.288   4
   7  -2   5 1167.14 978.890   5
  -7   2  -6 6227.87 1206.56   4
  -7   2  -7 1486.49 664.182   4
  -7   2  -8 28641.3 2556.86   4
   7  -1  -3 3798.78 1428.15   5
   7  -1  -2 37925.1 4055.60   5
   7  -1  -1 1644.09 1050.12   5
   7  -1   0 4801.65 1554.92   5
   7  -1   1 40976.1 4277.67   5
   7  -1   2 17425.9 2759.64   5
   7  -1   3 13874.9 2561.28   5
  -7   1  -4 1130.14 624.394   4
   7  -1   4-195.093 773.350   5
  -7   1  -5 21163.6 2084.89   4
   7  -1   5 20088.8 2960.82   5
  -7   1  -6 1410.46 628.552   4
  -7   1  -7 29.2194 479.413   4
  -7   1  -8 1833.36 756.035   4
   7   0  -4 4936.60 1514.62   5
   7   0  -3 1778.02 1066.30   5
   7   0  -2 2436.10 1148.33   5
   7   0  -1 4600.70 1438.20   5
   7   0   0 12922.7 2314.32   5
   7   0   1 875.149 881.407   5
   7   0   2 4152.32 1287.07   5
   7   0   3 1202.31 922.993   5
  -7   0  -4 16576.6 1815.00   4
   7   0   4 19711.1 2808.78   5
  -7   0  -5 15587.1 1758.99   4
   7   0   5 15923.4 2500.36   5
  -7   0  -6 15985.1 1801.76   4
  -7   0  -7 21212.9 2102.61   4
  -7   0  -8 4135.79 989.870   4
  -7   0  -9 3835.41 965.661   4
   7   1  -4 3968.52 1443.22   5
   7   1  -3 39135.1 4000.78   5
   7   1  -2 1210.04 803.377   5
   7   1  -1 1250.61 953.571   5
   7   1   0 5363.02 1571.58   5
   7   1   1 7226.93 1697.71   5
   7   1   2-324.518 1127.39   5
   7   1   3 5163.06 1483.17   5
  -7  -1  -4 1151.76 541.137   4
   7   1   4 1655.68 929.272   5
  -7  -1  -5 1456.63 696.999   4
  -7  -1  -6 13850.3 1662.26   4
  -7  -1  -7 2831.19 737.120   4
  -7  -1  -8 1097.30 596.399   4
  -7  -1  -9 15389.0 1842.96   4
   7   2  -4 2683.18 1295.86   5
   7   2  -3 4044.21 1320.60   5
   7   2  -2 1143.07 880.140   5
   7   2  -1 34782.7 3725.89   5
   7   2   0 649.339 661.075   5
   7   2   1 23525.6 3046.18   5
   7   2   2 19268.1 2694.36   5
   7   2   3 20716.6 2747.72   5
  -7  -2  -4 18476.1 1892.43   4
   7   2   4 16219.1 2434.52   5
  -7  -2  -5 2280.71 688.239   4
  -7  -2  -6 28179.3 2365.32   4
  -7  -2  -7 8116.03 1293.50   4
  -7  -2  -8 5679.73 1106.66   4
  -7  -2  -9 3497.03 893.551   4
   7   3  -4 7590.24 1671.90   5
   7   3  -3 568.224 589.920   5
   7   3  -2 9196.74 1910.77   5
   7   3  -1 1920.44 935.555   5
   7   3   0-163.825 802.913   5
   7   3   1 6639.97 1665.15   5
   7   3   2 16.9156 538.077   5
  -7  -3  -3 11612.4 1516.68   4
   7   3   3 14894.8 2086.17   5
  -7  -3  -4 275.834 370.370   4
   7   3   4 371.760 592.627   5
  -7  -3  -5 3721.50 891.742   4
  -7  -3  -6 290.388 387.856   4
  -7  -3  -7 16188.1 1759.84   4
  -7  -3  -8 8736.62 1347.93   4
  -7  -3  -9 5318.93 1037.70   4
   7   4  -4 6695.68 1583.78   5
   7   4  -3-966.718 803.745   5
   7   4  -2 8476.82 1794.54   5
   7   4  -1 1245.87 868.810   5
   7   4   0 30093.3 3230.32   5
   7   4   1-547.505 647.186   5
   7   4   2 9813.73 1779.44   5
   7   4   3 1016.37 694.887   5
  -7  -4  -3 781.209 467.631   4
  -7  -4  -4 2831.13 770.691   4
  -7  -4  -5 4250.69 882.963   4
  -7  -4  -6 7686.34 1198.55   4
  -7  -4  -7-74.0673 451.069   4
  -7  -4  -8 541.716 494.462   4
  -7  -4  -9 4450.69 1034.80   4
   7   5  -3 3291.45 1191.48   5
   7   5  -2-159.215 818.099   5
   7   5  -1 1083.05 635.008   5
   7   5   0 14369.1 2159.45   5
   7   5   1 286.690 532.075   5
   7   5   2 8287.44 1460.25   5
   7   5   3 46.8891 466.023   5
  -7  -5  -3 267.794 409.255   4
  -7  -5  -4 53363.8 3214.25   4
  -7  -5  -5 1752.85 613.442   4
  -7  -5  -6 12807.5 1502.41   4
  -7  -5  -7 16967.1 1757.58   4
  -7  -5  -8 13646.5 1579.66   4
  -7  -6  -2 7735.89 1199.12   4
  -7  -6  -3 877.422 551.567   4
  -7  -6  -4 2519.36 710.989   4
  -7  -6  -5 199.699 390.532   4
  -7  -6  -6 4676.50 875.245   4
  -7  -6  -7 4393.10 901.095   4
  -7  -6  -8 2105.18 714.651   4
  -7  -7  -2 469.055 348.627   4
  -7  -7  -3 35061.4 2435.55   4
  -7  -7  -4-128.973 482.814   4
   8   2   3 13122.4 2463.12   5
   8   2   4 8934.75 2005.23   5
   8   3   2 6663.37 1702.55   5
   8   3   3 4465.76 1363.65   5
   0   0   0    0.00    0.00   0
;
_shelx_hkl_checksum              27721
_olex2_submission_special_instructions 'No special instructions were received'
_oxdiff_exptl_absorpt_empirical_details
;
Empirical correction (ABSPACK) includes:
- Absorption correction using spherical harmonics
- Frame scaling
;
_oxdiff_exptl_absorpt_empirical_full_max 1.627
_oxdiff_exptl_absorpt_empirical_full_min 0.596
loop_
_space_group_symop_operation_xyz
'x, y, z'
'-x, -y, -z'
loop_
_atom_site_label
_atom_site_type_symbol
_atom_site_fract_x
_atom_site_fract_y
_atom_site_fract_z
_atom_site_U_iso_or_equiv
_atom_site_adp_type
_atom_site_occupancy
_atom_site_site_symmetry_order
_atom_site_calc_flag
_atom_site_refinement_flags_posn
_atom_site_refinement_flags_adp
_atom_site_refinement_flags_occupancy
_atom_site_disorder_assembly
_atom_site_disorder_group
U1 U 1.26088(7) 0.91640(3) 0.25255(3) 0.01001(10) Uani 1 1 d . . . . .
Pb1 Pb 0.17166(7) 0.31056(3) 0.19450(3) 0.01630(11) Uani 1 1 d . . . . .
Se1 Se 1.28863(18) 0.88853(8) -0.04654(7) 0.0105(2) Uani 1 1 d . . . . .
Se2 Se 1.2250(2) 1.16855(8) 0.48784(8) 0.0166(2) Uani 1 1 d . . . . .
Se3 Se 0.90671(19) 0.62474(8) 0.22173(8) 0.0134(2) Uani 1 1 d . . . . .
Cu1 Cu 1.000000 0.500000 0.500000 0.0125(3) Uani 1 2 d S . P . .
Cu2 Cu 0.7069(2) 0.44320(10) 0.04627(10) 0.0128(3) Uani 1 1 d . . . . .
Cu3 Cu 0.5645(2) 0.42338(10) 0.38518(9) 0.0146(3) Uani 1 1 d . . . . .
O1 O 1.5212(14) 0.8658(6) 0.3049(6) 0.0226(16) Uani 1 1 d . . . . .
O2 O 1.0027(14) 0.9656(6) 0.1960(6) 0.0222(17) Uani 1 1 d . . . . .
O3 O 1.4457(13) 0.8648(5) 0.0630(5) 0.0127(14) Uani 1 1 d . . . . .
O4 O 1.1600(13) 0.7379(5) -0.0582(5) 0.0150(15) Uani 1 1 d . . . . .
O5 O 1.5199(13) 0.8868(5) -0.1623(5) 0.0140(14) Uani 1 1 d . . . . .
O6 O 1.1581(15) 1.1006(6) 0.3696(5) 0.0223(18) Uani 1 1 d . . . . .
O7 O 1.2434(15) 1.3299(6) 0.4438(6) 0.0250(13) Uani 1 1 d . . . . .
O8 O 0.9557(15) 1.1688(6) 0.5739(6) 0.0250(13) Uani 1 1 d . . . . .
O9 O 1.1766(14) 0.6907(5) 0.2227(5) 0.0166(15) Uani 1 1 d . . . . .
O10 O 0.8886(14) 0.5132(6) 0.3331(5) 0.0202(17) Uani 1 1 d . . . . .
O11 O 0.9809(12) 0.5150(5) 0.1150(5) 0.0116(14) Uani 1 1 d . . . . .
O12 O 0.6953(13) 0.4095(5) 0.5256(5) 0.0158(15) Uani 1 1 d D . . . .
H12 H 0.74(2) 0.321(4) 0.538(8) 0.024 Uiso 1 1 d D U . . .
O13 O 0.4711(13) 0.4565(6) 0.2384(5) 0.0169(15) Uani 1 1 d D . . . .
H13 H 0.345(10) 0.519(5) 0.244(8) 0.025 Uiso 1 1 d D U . . .
O14 O 0.4059(13) 0.3838(5) 0.0067(5) 0.0123(14) Uani 1 1 d D . . . .
H14 H 0.43(2) 0.295(4) -0.020(8) 0.018 Uiso 1 1 d D U . . .
O15 O 0.7015(17) 0.2028(7) 0.3422(7) 0.037(2) Uani 1 1 d . . . . .
H15A H 0.673590 0.178747 0.274486 0.056 Uiso 1 1 d DR U . . .
H15B H 0.861204 0.197162 0.333457 0.056 Uiso 1 1 d R U . . .
loop_
_atom_site_aniso_label
_atom_site_aniso_U_11
_atom_site_aniso_U_22
_atom_site_aniso_U_33
_atom_site_aniso_U_23
_atom_site_aniso_U_13
_atom_site_aniso_U_12
U1 0.0151(2) 0.00851(16) 0.00618(17) 0.00020(11) -0.00128(15) -0.00355(13)
Pb1 0.0173(2) 0.01500(18) 0.0165(2) 0.00238(13) -0.00306(17) -0.00354(14)
Se1 0.0147(6) 0.0091(4) 0.0076(4) 0.0001(3) -0.0017(4) -0.0023(3)
Se2 0.0246(6) 0.0155(4) 0.0089(5) 0.0001(3) -0.0012(4) -0.0039(4)
Se3 0.0164(6) 0.0104(4) 0.0124(5) -0.0026(3) 0.0003(4) -0.0022(4)
Cu1 0.0133(10) 0.0148(7) 0.0093(8) -0.0017(6) -0.0018(7) -0.0043(6)
Cu2 0.0137(7) 0.0110(5) 0.0144(6) 0.0005(4) -0.0047(5) -0.0032(4)
Cu3 0.0156(7) 0.0192(6) 0.0088(6) -0.0001(4) -0.0019(5) -0.0079(5)
O1 0.014(4) 0.032(4) 0.022(4) 0.008(3) -0.005(3) -0.004(3)
O2 0.019(5) 0.024(3) 0.025(4) 0.004(3) -0.008(4) 0.000(3)
O3 0.018(4) 0.014(3) 0.006(3) -0.001(2) -0.002(3) -0.004(3)
O4 0.019(4) 0.009(3) 0.018(4) 0.002(2) -0.005(3) -0.005(3)
O5 0.011(4) 0.016(3) 0.014(3) -0.003(2) 0.002(3) -0.006(3)
O6 0.034(5) 0.017(3) 0.014(4) -0.008(3) 0.000(3) -0.007(3)
O7 0.031(4) 0.017(2) 0.022(3) 0.0020(18) 0.010(3) -0.003(2)
O8 0.031(4) 0.017(2) 0.022(3) 0.0020(18) 0.010(3) -0.003(2)
O9 0.022(5) 0.011(3) 0.016(4) -0.004(2) -0.001(3) -0.002(3)
O10 0.022(5) 0.028(4) 0.010(3) 0.002(3) 0.001(3) -0.015(3)
O11 0.012(4) 0.011(3) 0.010(3) -0.007(2) 0.003(3) 0.001(3)
O12 0.024(5) 0.012(3) 0.012(3) 0.002(2) -0.005(3) -0.006(3)
O13 0.022(5) 0.018(3) 0.010(3) -0.004(2) 0.001(3) -0.001(3)
O14 0.016(4) 0.007(3) 0.013(3) 0.000(2) 0.000(3) -0.002(3)
O15 0.036(6) 0.048(5) 0.028(5) -0.016(3) -0.002(4) -0.004(4)
loop_
_atom_type_symbol
_atom_type_description
_atom_type_scat_dispersion_real
_atom_type_scat_dispersion_imag
_atom_type_scat_source
Cu Cu 0.3201 1.2651 'International Tables Vol C Tables 4.2.6.8 and 6.1.1.4'
H H 0.0000 0.0000 'International Tables Vol C Tables 4.2.6.8 and 6.1.1.4'
O O 0.0106 0.0060 'International Tables Vol C Tables 4.2.6.8 and 6.1.1.4'
Pb Pb -3.3944 10.1111 'International Tables Vol C Tables 4.2.6.8 and 6.1.1.4'
Se Se -0.0929 2.2259 'International Tables Vol C Tables 4.2.6.8 and 6.1.1.4'
U U -9.6767 9.6646 'International Tables Vol C Tables 4.2.6.8 and 6.1.1.4'
loop_
_exptl_crystal_face_index_h
_exptl_crystal_face_index_k
_exptl_crystal_face_index_l
_exptl_crystal_face_perp_dist
3 -13 5 0.0399
3 2 -14 0.0592
-2 13 -7 0.0239
-4 3 13 0.0446
7 -2 9 0.0377
-2 -13 -4 0.0406
-7 -3 -9 0.0219
0 14 1 0.0073
loop_
_geom_angle_atom_site_label_1
_geom_angle_atom_site_label_2
_geom_angle_atom_site_label_3
_geom_angle
_geom_angle_site_symmetry_1
_geom_angle_site_symmetry_3
O1 U1 O2 178.4(3) . .
O1 U1 O3 91.1(3) . .
O1 U1 O5 89.5(3) . 2_875
O1 U1 O6 98.3(3) . .
O1 U1 O8 85.8(3) . 2_776
O1 U1 O9 89.3(3) . .
O2 U1 O3 87.3(3) . .
O2 U1 O5 90.2(3) . 2_875
O2 U1 O6 83.1(3) . .
O2 U1 O8 95.4(3) . 2_776
O2 U1 O9 90.0(3) . .
O3 U1 O5 70.93(19) . 2_875
O6 U1 O3 140.7(2) . .
O6 U1 O5 71.1(2) . 2_875
O6 U1 O9 145.5(2) . .
O8 U1 O3 145.4(2) 2_776 .
O8 U1 O5 143.3(2) 2_776 2_875
O8 U1 O6 73.7(2) 2_776 .
O8 U1 O9 73.4(2) 2_776 .
O9 U1 O3 72.1(2) . .
O9 U1 O5 143.0(2) . 2_875
O5 Pb1 O4 105.83(18) 2_765 2_665
O11 Pb1 O4 63.60(17) 1_455 2_665
O11 Pb1 O5 149.18(19) 1_455 2_765
O13 Pb1 O4 147.06(19) . 2_665
O13 Pb1 O5 91.5(2) . 2_765
O13 Pb1 O11 87.2(2) . 1_455
O13 Pb1 O14 75.1(2) . .
O14 Pb1 O4 80.1(2) . 2_665
O14 Pb1 O5 81.10(19) . 2_765
O14 Pb1 O11 68.8(2) . 1_455
O3 Se1 O5 100.7(3) . .
O4 Se1 O3 104.0(3) . .
O4 Se1 O5 100.6(3) . .
O6 Se2 O7 98.9(3) . .
O8 Se2 O6 101.8(4) . .
O8 Se2 O7 100.1(3) . .
O9 Se3 O10 100.2(3) . .
O9 Se3 O11 99.7(3) . .
O11 Se3 O10 97.6(3) . .
O7 Cu1 O7 180.0 1_545 2_776
O10 Cu1 O7 91.0(3) . 1_545
O10 Cu1 O7 91.0(3) 2_766 2_776
O10 Cu1 O7 89.0(3) . 2_776
O10 Cu1 O7 89.0(3) 2_766 1_545
O10 Cu1 O10 180.0(4) . 2_766
O12 Cu1 O7 80.2(3) 2_766 1_545
O12 Cu1 O7 99.8(3) 2_766 2_776
O12 Cu1 O7 99.8(3) . 1_545
O12 Cu1 O7 80.2(3) . 2_776
O12 Cu1 O10 76.6(2) . .
O12 Cu1 O10 76.6(2) 2_766 2_766
O12 Cu1 O10 103.4(2) 2_766 .
O12 Cu1 O10 103.4(2) . 2_766
O12 Cu1 O12 180.0 . 2_766
O4 Cu2 Cu2 134.7(2) 2_765 2_665
O4 Cu2 O11 88.9(2) 2_765 .
O4 Cu2 O11 88.2(2) 2_765 2_765
O11 Cu2 Cu2 99.01(17) 2_765 2_665
O11 Cu2 Cu2 136.37(17) . 2_665
O11 Cu2 O11 76.2(2) . 2_765
O14 Cu2 Cu2 40.23(19) 2_665 2_665
O14 Cu2 Cu2 41.16(16) . 2_665
O14 Cu2 O4 95.1(3) . 2_765
O14 Cu2 O4 165.8(3) 2_665 2_765
O14 Cu2 O11 169.3(3) . .
O14 Cu2 O11 97.1(2) 2_665 .
O14 Cu2 O11 113.8(2) . 2_765
O14 Cu2 O11 80.7(2) 2_665 2_765
O14 Cu2 O14 81.4(2) . 2_665
O7 Cu3 O12 74.4(2) 1_445 2_666
O7 Cu3 O15 83.4(3) 1_445 .
O10 Cu3 O7 177.5(3) . 1_445
O10 Cu3 O12 105.9(2) . 2_666
O10 Cu3 O15 96.0(3) . .
O12 Cu3 O7 97.6(3) . 1_445
O12 Cu3 O10 80.0(3) . .
O12 Cu3 O12 87.1(3) . 2_666
O12 Cu3 O15 88.8(3) . .
O12 Cu3 O15 156.7(3) 2_666 .
O13 Cu3 O7 90.5(3) . 1_445
O13 Cu3 O10 91.9(3) . .
O13 Cu3 O12 171.6(3) . .
O13 Cu3 O12 92.9(2) . 2_666
O13 Cu3 O15 94.4(3) . .
Se1 O3 U1 119.7(4) . .
Se1 O4 Pb1 124.6(3) . 2_665
Se1 O4 Cu2 129.8(4) . 2_765
Cu2 O4 Pb1 100.1(2) 2_765 2_665
U1 O5 Pb1 105.6(2) 2_875 2_765
Se1 O5 U1 125.4(3) . 2_875
Se1 O5 Pb1 121.7(3) . 2_765
Se2 O6 U1 140.2(4) . .
Se2 O7 Cu1 129.9(4) . 1_565
Se2 O7 Cu3 122.6(4) . 1_665
Cu3 O7 Cu1 102.4(2) 1_665 1_565
Se2 O8 U1 143.7(4) . 2_776
Se3 O9 U1 126.5(4) . .
Se3 O10 Cu1 138.1(3) . .
Se3 O10 Cu3 116.3(4) . .
Cu3 O10 Cu1 95.4(3) . .
Se3 O11 Pb1 108.3(3) . 1_655
Se3 O11 Cu2 116.5(4) . .
Se3 O11 Cu2 123.0(3) . 2_765
Cu2 O11 Pb1 105.2(2) . 1_655
Cu2 O11 Pb1 97.2(2) 2_765 1_655
Cu2 O11 Cu2 103.8(2) . 2_765
Cu1 O12 Cu3 101.4(2) . 2_666
Cu1 O12 Cu3 107.8(3) . .
Cu1 O12 H12 102(7) . .
Cu3 O12 Cu3 92.9(3) . 2_666
Cu3 O12 H12 109(6) . .
Cu3 O12 H12 141(7) 2_666 .
Pb1 O13 H13 83(5) . .
Cu3 O13 Pb1 115.1(3) . .
Cu3 O13 H13 111(6) . .
Pb1 O14 H14 93(6) . .
Cu2 O14 Pb1 112.2(3) 2_665 .
Cu2 O14 Pb1 102.4(2) . .
Cu2 O14 Cu2 98.6(2) . 2_665
Cu2 O14 H14 108(7) . .
Cu2 O14 H14 138(6) 2_665 .
Cu3 O15 H15A 111.4 . .
Cu3 O15 H15B 111.6 . .
H15A O15 H15B 102.4 . .
loop_
_geom_bond_atom_site_label_1
_geom_bond_atom_site_label_2
_geom_bond_distance
_geom_bond_site_symmetry_2
U1 O1 1.772(7) .
U1 O2 1.783(7) .
U1 O3 2.392(6) .
U1 O5 2.463(6) 2_875
U1 O6 2.361(6) .
U1 O8 2.360(7) 2_776
U1 O9 2.373(5) .
Pb1 O4 2.751(7) 2_665
Pb1 O5 2.634(7) 2_765
Pb1 O11 2.567(6) 1_455
Pb1 O13 2.383(7) .
Pb1 O14 2.494(6) .
Se1 O3 1.723(6) .
Se1 O4 1.704(6) .
Se1 O5 1.729(7) .
Se2 O6 1.690(6) .
Se2 O7 1.696(6) .
Se2 O8 1.681(8) .
Se3 O9 1.670(7) .
Se3 O10 1.713(6) .
Se3 O11 1.704(5) .
Cu1 O7 2.237(7) 1_545
Cu1 O7 2.237(7) 2_776
Cu1 O10 2.202(7) .
Cu1 O10 2.202(7) 2_766
Cu1 O12 1.925(7) 2_766
Cu1 O12 1.925(7) .
Cu2 Cu2 2.982(2) 2_665
Cu2 O4 1.985(6) 2_765
Cu2 O11 2.403(6) 2_765
Cu2 O11 2.024(6) .
Cu2 O14 1.985(6) 2_665
Cu2 O14 1.948(7) .
Cu3 O7 2.050(8) 1_445
Cu3 O10 2.036(7) .
Cu3 O12 1.958(6) .
Cu3 O12 2.378(7) 2_666
Cu3 O13 1.946(7) .
Cu3 O15 2.390(8) .
O12 H12 0.94(2) .
O13 H13 0.947(19) .
O14 H14 0.95(2) .
O15 H15A 0.8925 .
O15 H15B 0.8932 .
loop_
_geom_hbond_atom_site_label_D
_geom_hbond_atom_site_label_H
_geom_hbond_atom_site_label_A
_geom_hbond_distance_DH
_geom_hbond_distance_HA
_geom_hbond_distance_DA
_geom_hbond_angle_DHA
_geom_hbond_site_symmetry_A
_geom_hbond_publ_flag
O12 H12 O8 0.94(2) 2.04(5) 2.936(10) 157(10) 1_545 yes
O13 H13 O9 0.947(19) 2.007(19) 2.909(9) 159(6) 1_455 yes
O14 H14 O3 0.95(2) 1.82(4) 2.742(8) 163(10) 2_765 yes
O15 H15A O5 0.89 2.00 2.844(10) 156.6 2_765 yes
O15 H15B O6 0.89 2.05 2.852(12) 149.0 1_545 yes
loop_
_geom_torsion_atom_site_label_1
_geom_torsion_atom_site_label_2
_geom_torsion_atom_site_label_3
_geom_torsion_atom_site_label_4
_geom_torsion
_geom_torsion_site_symmetry_1
_geom_torsion_site_symmetry_2
_geom_torsion_site_symmetry_3
_geom_torsion_site_symmetry_4
O3 Se1 O4 Pb1 172.0(4) . . . 2_665
O3 Se1 O4 Cu2 -39.7(5) . . . 2_765
O3 Se1 O5 U1 -92.4(4) . . . 2_875
O3 Se1 O5 Pb1 53.6(3) . . . 2_765
O4 Se1 O3 U1 -93.4(3) . . . .
O4 Se1 O5 U1 161.1(4) . . . 2_875
O4 Se1 O5 Pb1 -53.0(4) . . . 2_765
O5 Se1 O3 U1 162.7(3) . . . .
O5 Se1 O4 Pb1 -84.0(4) . . . 2_665
O5 Se1 O4 Cu2 64.3(5) . . . 2_765
O6 Se2 O7 Cu1 110.3(5) . . . 1_565
O6 Se2 O7 Cu3 -99.7(5) . . . 1_665
O6 Se2 O8 U1 117.4(6) . . . 2_776
O7 Se2 O6 U1 137.1(6) . . . .
O7 Se2 O8 U1 -141.2(6) . . . 2_776
O8 Se2 O6 U1 -120.5(6) . . . .
O8 Se2 O7 Cu1 6.5(6) . . . 1_565
O8 Se2 O7 Cu3 156.5(4) . . . 1_665
O9 Se3 O10 Cu1 35.7(7) . . . .
O9 Se3 O10 Cu3 170.8(3) . . . .
O9 Se3 O11 Pb1 78.6(3) . . . 1_655
O9 Se3 O11 Cu2 -33.2(4) . . . 2_765
O9 Se3 O11 Cu2 -163.1(3) . . . .
O10 Se3 O9 U1 -118.5(4) . . . .
O10 Se3 O11 Pb1 -23.1(4) . . . 1_655
O10 Se3 O11 Cu2 95.1(4) . . . .
O10 Se3 O11 Cu2 -134.9(4) . . . 2_765
O11 Se3 O9 U1 142.0(4) . . . .
O11 Se3 O10 Cu1 137.0(6) . . . .
O11 Se3 O10 Cu3 -87.8(4) . . . .
loop_
_exptl_oxdiff_crystal_face_indexfrac_h
_exptl_oxdiff_crystal_face_indexfrac_k
_exptl_oxdiff_crystal_face_indexfrac_l
_exptl_oxdiff_crystal_face_x
_exptl_oxdiff_crystal_face_y
_exptl_oxdiff_crystal_face_z
2.7488 -12.7968 5.0768 -0.0421 -0.1495 0.9879
2.6772 1.8415 -14.4772 0.2308 0.9686 -0.0923
-2.3407 12.5631 -6.5853 0.0675 0.2571 -0.9640
-3.7935 3.0340 12.8520 -0.2198 -0.9329 -0.2852
7.3134 -2.4873 8.6646 -0.7969 0.1932 0.5724
-2.2948 -13.4171 -4.0183 0.6757 -0.1557 0.7205
-7.2355 -2.7805 -9.0520 0.9455 -0.2263 -0.2340
0.1619 14.1853 1.4952 -0.4446 0.0996 -0.8902
