#------------------------------------------------------------------------------
#$Date: 2022-02-01 10:54:36 +0200 (Tue, 01 Feb 2022) $
#$Revision: 272381 $
#$URL: file:///home/coder/svn-repositories/cod/cif/1/56/62/1566228.cif $
#------------------------------------------------------------------------------
#
# This file is available in the Crystallography Open Database (COD),
# http://www.crystallography.net/
#
# All data on this site have been placed in the public domain by the
# contributors.
#
data_1566228
loop_
_publ_author_name
'Vladislav V. Gurzhiy'
'Alina R. Izatulina'
'Maria G. Krzhizhanovskaya'
'Mikhail N. Murashko'
'Dar-ya V. Spiridonova'
'Vladimir V. Shilovskikh'
'Sergey V. Krivovichev'
_publ_section_title
;
 Thermal behavior of uranyl selenite minerals derriksite and
 demesmaekerite
;
_journal_name_full               'Journal of GeoSciences'
_journal_page_first              249
_journal_page_last               259
_journal_paper_doi               10.3190/jgeosci.315
_journal_volume                  65
_journal_year                    2020
_chemical_formula_moiety         'Cu4 H6 O14 Se2 U'
_chemical_formula_sum            'Cu4 H6 O14 Se2 U'
_chemical_formula_weight         880.16
_space_group_crystal_system      orthorhombic
_space_group_IT_number           31
_space_group_name_Hall           'P 2ac -2'
_space_group_name_H-M_alt        'P m n 21'
_atom_sites_solution_hydrogens   difmap
_cell_angle_alpha                90
_cell_angle_beta                 90
_cell_angle_gamma                90
_cell_formula_units_Z            2
_cell_length_a                   5.9693(2)
_cell_length_b                   5.5579(3)
_cell_length_c                   19.0674(7)
_cell_measurement_reflns_used    2502
_cell_measurement_temperature    193(2)
_cell_measurement_theta_max      30.6140
_cell_measurement_theta_min      4.2290
_cell_volume                     632.59(5)
_computing_cell_refinement       'CrysAlisPro 1.171.39.44a (Rigaku OD, 2018)'
_computing_data_collection       'CrysAlisPro 1.171.39.44a (Rigaku OD, 2018)'
_computing_data_reduction        'CrysAlisPro 1.171.39.44a (Rigaku OD, 2018)'
_computing_molecular_graphics    'Olex2 1.3 (Dolomanov et al., 2009)'
_computing_publication_material  'Olex2 1.3 (Dolomanov et al., 2009)'
_computing_structure_refinement  'SHELXL 2018/3 (Sheldrick, 2015)'
_computing_structure_solution    'SHELXT 2018/3 (Sheldrick, 2015)'
_diffrn_ambient_environment      N~2~
_diffrn_ambient_temperature      193(2)
_diffrn_detector                 'CCD plate'
_diffrn_detector_area_resol_mean 10.3829
_diffrn_detector_type            Atlas
_diffrn_measured_fraction_theta_full 0.998
_diffrn_measured_fraction_theta_max 0.999
_diffrn_measurement_details
;
List of Runs (angles in degrees, time in seconds):

  # Type    Start    End  Width  t~exp~   \w     \q     \k     \f   Frames
--------------------------------------------------------------------------
  1  \w    -47.00   3.00   1.00   22.50    --  -14.99  77.00-180.00   50
  2  \w    -27.00  19.00   1.00   22.50    --  -14.99 -77.00-150.00   46
  3  \w     42.00  83.00   1.00   22.50    --   16.86 178.00 -30.00   41
  4  \w     31.00  59.00   1.00   22.50    --   16.86 -99.00 120.00   28
  5  \w     -4.00  93.00   1.00   22.50    --   16.86  38.00 120.00   97
  6  \w     -8.00  93.00   1.00   22.50    --   16.86  38.00  30.00  101
;
_diffrn_measurement_device       'four-circle diffractometer'
_diffrn_measurement_device_type  'SuperNova, Dual, Cu at home/near, Atlas'
_diffrn_measurement_method       '\w scans'
_diffrn_orient_matrix_type
'CrysAlisPro convention (1999,Acta A55,543-557)'
_diffrn_orient_matrix_UB_11      -0.1100810000
_diffrn_orient_matrix_UB_12      -0.0374805000
_diffrn_orient_matrix_UB_13      0.0088242000
_diffrn_orient_matrix_UB_21      0.0285039000
_diffrn_orient_matrix_UB_22      -0.1203817000
_diffrn_orient_matrix_UB_23      -0.0086054000
_diffrn_orient_matrix_UB_31      0.0347134000
_diffrn_orient_matrix_UB_32      -0.0200494000
_diffrn_orient_matrix_UB_33      0.0350735000
_diffrn_radiation_monochromator  mirror
_diffrn_radiation_probe          x-ray
_diffrn_radiation_type           'Mo K\a'
_diffrn_radiation_wavelength     0.71073
_diffrn_reflns_av_R_equivalents  0.0447
_diffrn_reflns_av_unetI/netI     0.0428
_diffrn_reflns_Laue_measured_fraction_full 0.998
_diffrn_reflns_Laue_measured_fraction_max 0.999
_diffrn_reflns_limit_h_max       7
_diffrn_reflns_limit_h_min       -6
_diffrn_reflns_limit_k_max       7
_diffrn_reflns_limit_k_min       -6
_diffrn_reflns_limit_l_max       22
_diffrn_reflns_limit_l_min       -24
_diffrn_reflns_number            5115
_diffrn_reflns_point_group_measured_fraction_full 0.973
_diffrn_reflns_point_group_measured_fraction_max 0.970
_diffrn_reflns_theta_full        25.242
_diffrn_reflns_theta_max         27.488
_diffrn_reflns_theta_min         3.577
_diffrn_source                   'micro-focus sealed X-ray tube'
_diffrn_source_type              'SuperNova (Mo) X-ray Source'
_exptl_absorpt_coefficient_mu    25.198
_exptl_absorpt_correction_T_max  0.995
_exptl_absorpt_correction_T_min  0.990
_exptl_absorpt_correction_type   analytical
_exptl_absorpt_process_details
;
CrysAlisPro 1.171.39.44a (Rigaku Oxford Diffraction, 2018)
Analytical numeric absorption correction using a multifaceted crystal
			model based on expressions derived by R.C. Clark & J.S. Reid.
(Clark, R. C. & Reid, J. S. (1995). Acta Cryst. A51, 887-897)
Empirical absorption correction using spherical harmonics,
 implemented in SCALE3 ABSPACK scaling algorithm.
;
_exptl_crystal_colour            green
_exptl_crystal_density_diffrn    4.621
_exptl_crystal_description       prism
_exptl_crystal_F_000             788
_exptl_crystal_size_max          0.108
_exptl_crystal_size_mid          0.06
_exptl_crystal_size_min          0.041
_refine_diff_density_max         1.213
_refine_diff_density_min         -1.308
_refine_diff_density_rms         0.232
_refine_ls_abs_structure_details
;
 Flack x determined using 667 quotients [(I+)-(I-)]/[(I+)+(I-)]
 (Parsons, Flack and Wagner, Acta Cryst. B69 (2013) 249-259).
;
_refine_ls_abs_structure_Flack   -0.023(17)
_refine_ls_extinction_coef       .
_refine_ls_extinction_method     none
_refine_ls_goodness_of_fit_ref   1.050
_refine_ls_hydrogen_treatment    refxyz
_refine_ls_matrix_type           full
_refine_ls_number_parameters     123
_refine_ls_number_reflns         1546
_refine_ls_number_restraints     7
_refine_ls_restrained_S_all      1.048
_refine_ls_R_factor_all          0.0360
_refine_ls_R_factor_gt           0.0341
_refine_ls_shift/su_max          0.000
_refine_ls_shift/su_mean         0.000
_refine_ls_structure_factor_coef Fsqd
_refine_ls_weighting_details
'w=1/[\s^2^(Fo^2^)+(0.0526P)^2^] where P=(Fo^2^+2Fc^2^)/3'
_refine_ls_weighting_scheme      calc
_refine_ls_wR_factor_gt          0.0808
_refine_ls_wR_factor_ref         0.0826
_reflns_Friedel_coverage         0.888
_reflns_Friedel_fraction_full    0.946
_reflns_Friedel_fraction_max     0.940
_reflns_number_gt                1498
_reflns_number_total             1546
_reflns_threshold_expression     'I > 2\s(I)'
_cod_data_source_file            Derriksite_SN_-80C_last.cif
_cod_data_source_block           derriksite_sn_-80C
_cod_database_code               1566228
_chemical_oxdiff_formula         'Cu4 U Se2 O14'
_shelx_space_group_comment
;
The symmetry employed for this shelxl refinement is uniquely defined
by the following loop, which should always be used as a source of
symmetry information in preference to the above space-group names.
They are only intended as comments.
;
_reflns_odcompleteness_completeness 99.70
_reflns_odcompleteness_iscentric 1
_reflns_odcompleteness_theta     28.51
_olex2_refinement_description
;
1. Fixed Uiso
 At 1.5 times of:
  All O(H) groups
2. Restrained distances
 O9-H9
 1 with sigma of 0.02
 H9-O5_$5
 2.15 with sigma of 0.02
 O7-H7
 0.9 with sigma of 0.02
 O10-H10
 0.9 with sigma of 0.02
 O8-H8
 0.95 with sigma of 0.02
 H8-O1_$3
 2.1 with sigma of 0.02
3. Others
 Fixed Sof: H9(0.5)
;
_shelx_res_file
;
TITL Derriksite_SN_193K in Pmn2(1)
    derriksite_sn_193k.res
    created by SHELXL-2018/3 at 02:06:11 on 05-Sep-2020
REM Pmn2(1) (#31, found as Pnm2(1) in ba-c setting)
CELL 0.71073 5.969285 5.557853 19.067414 90 90 90
ZERR 2 0.000224 0.000283 0.000731 0 0 0
LATT -1
SYMM 0.5-X,-Y,0.5+Z
SYMM 0.5+X,-Y,0.5+Z
SYMM -X,+Y,+Z
SFAC Cu H O Se U
UNIT 8 12 28 4 2
EQIV $1 1+X,+Y,+Z
EQIV $2 0.5-X,-Y,-0.5+Z
EQIV $3 -X,+Y,+Z
EQIV $4 -1-X,+Y,+Z
EQIV $5 -0.5+X,1-Y,-0.5+Z
DFIX 1 O9 H9
DFIX 2.15 H9 O5_$5
DFIX 0.9 O7 H7
DFIX 0.9 O10 H10
DFIX 0.95 O8 H8
DFIX 2.1 H8 O1_$3

L.S. 20
PLAN  2
CONF
HTAB O7 O3_$3
HTAB O10 O5_$2
FREE Cu1 Cu1_$4
FREE Cu2 Cu3_$1
FREE Cu2 Cu3_$3
FREE Cu2 Cu3_$4
FREE Cu2 Cu3
list 4
MORE -1
BOND $H
fmap 2
acta
OMIT -4 55
REM <olex2.extras>
REM <HklSrc "%.\\Derriksite_SN_193K.hkl">
REM </olex2.extras>

WGHT    0.052600
FVAR       0.98774
U1    5    0.500000    0.185538    0.606490    10.50000    0.01172    0.02303 =
         0.00845   -0.00339    0.00000    0.00000
SE1   4    0.000000   -0.140527    0.527389    10.50000    0.01524    0.02316 =
         0.01051    0.00261    0.00000    0.00000
SE2   4    1.000000    0.509301    0.690012    10.50000    0.01428    0.02074 =
         0.00952    0.00243    0.00000    0.00000
CU1   1   -0.250215    0.604414    0.361788    11.00000    0.00511    0.00566 =
         0.01345    0.00069    0.00086    0.00058
CU2   1    0.000000    0.109027    0.353824    10.50000    0.00329    0.00545 =
         0.01349   -0.00068    0.00000    0.00000
CU3   1   -0.500000    0.099856    0.356192    10.50000    0.00350    0.00547 =
         0.01238   -0.00198    0.00000    0.00000
O1    3    0.500000    0.461230    0.557325    10.50000    0.03921    0.03003 =
         0.01271    0.00422    0.00000    0.00000
O2    3    0.500000   -0.080894    0.655789    10.50000    0.04260    0.02614 =
         0.01034    0.00120    0.00000    0.00000
O3    3    0.217648    0.061820    0.534483    11.00000    0.01988    0.03935 =
         0.01588   -0.00945   -0.00216   -0.00390
O4    3    0.000000   -0.202398    0.441886    10.50000    0.00827    0.00917 =
         0.00504    0.00074    0.00000    0.00000
O5    3    0.778336    0.313821    0.681640    11.00000    0.02916    0.02582 =
         0.01285   -0.00699   -0.00318   -0.00687
O6    3    1.000000    0.557273    0.775375    10.50000    0.01056    0.00925 =
         0.01104   -0.00608    0.00000    0.00000
O7    3   -0.253041    0.275512    0.402038    11.00000    0.00651    0.00989 =
         0.01070   -0.00317   -0.00119   -0.00152
H7    2   -0.250362    0.267944    0.448901    11.00000   -1.50000
O8    3   -0.500000    0.719731    0.414488    10.50000    0.00514    0.01326 =
         0.00566   -0.00053    0.00000    0.00000
H8    2   -0.500000    0.629163    0.457699    10.50000   -1.50000
O9    3    0.000000    0.485139    0.308592    10.50000    0.00735    0.01321 =
         0.00893    0.00083    0.00000    0.00000
H9    2    0.074889    0.558644    0.267018    10.50000   -1.50000
O10   3   -0.247350   -0.073362    0.312519    11.00000    0.00606    0.00596 =
         0.01195    0.00141   -0.00311   -0.00198
H10   2   -0.263087   -0.125103    0.268354    11.00000   -1.50000
HKLF 4




REM  Derriksite_SN_193K in Pmn2(1)
REM wR2 = 0.0826, GooF = S = 1.050, Restrained GooF = 1.048 for all data
REM R1 = 0.0341 for 1498 Fo > 4sig(Fo) and 0.0360 for all 1546 data
REM 123 parameters refined using 7 restraints

END

WGHT      0.0526      0.0000

REM Highest difference peak  1.213,  deepest hole -1.308,  1-sigma level  0.232
Q1    1   0.0000  0.1063  0.4790  10.50000  0.05    1.21
Q2    1   1.0000  0.8583  0.6878  10.50000  0.05    1.18
;
_shelx_res_checksum              51887
_shelx_hkl_file
;
   0   0 -26 1082.80 348.332   2
   0   0 -25 93.3007 59.5430   6
   0   0 -25 462.906 224.319   2
   0   0 -24 29093.3 1043.16   6
   0   0 -24 26141.6 1660.53   2
   0   0 -23 374.215 116.833   6
   0   0 -23 425.147 203.627   2
   0   0 -22 987.659 172.704   6
   0   0 -22 787.244 248.939   2
   0   0 -21 178.759 129.481   2
   0   0 -21 108.183 52.3344   6
   0   0 -20 14114.9 645.794   6
   0   0 -20 13355.3 1052.38   2
   0   0 -19 213.805 81.1160   6
   0   0 -18 8853.30 511.167   1
   0   0 -18 6464.39 408.204   6
   0   0 -17 63.0853 59.0541   1
   0   0 -17 210.809 71.7557   6
   0   0 -16 32155.3 948.055   6
   0   0 -16 41866.7 1116.87   1
   0   0 -15 106.626 64.3339   1
   0   0 -15 129.250 67.6727   6
   0   0 -14 5163.63 339.497   1
   0   0 -14 4216.64 281.825   6
   0   0 -13 76.1890 39.8052   4
   0   0 -13 180.161 67.0092   6
   0   0 -13 196.134 69.1994   1
   0   0 -13 77.7698 54.4235   3
   0   0 -12 107986. 2120.75   4
   0   0 -12 101028. 1877.92   6
   0   0 -11 95.5445 54.2208   6
   0   0 -11 54.9315 43.4677   4
   0   0 -11 76.8258 38.4467   1
   0   0 -10 679.965 117.770   4
   0   0 -10 752.007 112.350   3
   0   0 -10 727.427 98.8778   6
   0   0 -10 701.711 100.685   1
   0   0  -9 9.91796 25.3587   1
   0   0  -9-12.9776 14.6194   3
   0   0  -9-11.9477 23.4006   6
   0   0  -9 13.7629 27.9803   4
   0   0  -8 18498.2 495.454   6
   0   0  -8 19597.6 532.372   1
   0   0  -8 19535.3 583.086   4
   0   0  -7 39.6872 25.9199   6
   0   0  -7 43.3435 31.3618   1
   0   0  -7 17.6136 19.0683   4
   0   0  -6 30872.6 644.992   1
   0   0  -6 30151.2 616.759   6
   0   0  -6 31136.1 690.150   4
   0   0  -5 47.4579 27.2489   6
   0   0  -5 31.2214 28.9544   1
   0   0  -4 94804.1 1405.73   6
   0   0  -4 96336.8 1426.96   1
   0   0  -3 9.89308 12.6305   1
   0   0   4 103019. 1574.71   4
   0   0   5-2.34396 20.5362   4
   0   1 -26 56.4049 91.6831   2
   0  -1 -26 457.730 151.702   6
   0  -1 -25 921.294 328.834   2
   0  -1 -25 1083.73 216.977   6
   0  -1 -24 281.946 118.828   2
   0  -1 -24 267.216 76.1817   6
   0   1 -24 197.085 152.797   2
   0   1 -23 4282.51 344.179   6
   0   1 -23 3412.73 618.869   2
   0  -1 -23 4230.21 387.496   6
   0  -1 -23 4948.49 656.289   2
   0   1 -22 4426.51 345.341   6
   0   1 -22 4299.52 653.828   2
   0  -1 -22 4275.22 588.591   2
   0  -1 -22 4065.18 366.465   6
   0   1 -22 4244.34 420.992   5
   0  -1 -21 2900.59 302.573   6
   0   1 -21 3214.92 286.084   6
   0  -1 -21 2676.45 449.322   2
   0   1 -21 2675.82 326.980   5
   0  -1 -20 990.252 170.659   6
   0   1 -20 1077.48 208.747   5
   0   1 -20 1258.19 172.426   6
   0  -1 -20 987.153 268.266   2
   0   1 -19 12956.7 551.006   6
   0   1 -19 11321.4 657.269   5
   0  -1 -19 12085.4 921.570   2
   0  -1 -19 12211.6 598.681   6
   0  -1 -18 1490.02 312.104   2
   0   1 -18 1510.64 175.177   6
   0  -1 -18 1462.44 190.890   6
   0  -1 -18 1567.73 154.425   5
   0  -1 -17 3536.20 225.158   5
   0   1 -17 3291.90 254.850   6
   0  -1 -17 3773.18 483.969   2
   0  -1 -17 2796.78 262.255   6
   0   1 -16 9792.21 428.121   6
   0  -1 -16 9237.68 467.812   6
   0  -1 -15 13521.3 557.219   6
   0   1 -15 14837.3 512.469   6
   0   1 -14 3794.36 329.776   1
   0  -1 -14 3461.01 201.584   5
   0   1 -14 3490.03 233.413   6
   0  -1 -13 2150.69 209.329   3
   0  -1 -13 1960.74 144.870   5
   0   1 -13 2133.00 172.776   6
   0   1 -13 2255.29 248.295   1
   0   1 -12 871.119 156.784   1
   0  -1 -12 759.018 86.9300   5
   0  -1 -12 837.907 147.091   4
   0   1 -12 859.448 105.192   6
   0   1 -11 10447.0 517.601   1
   0   1 -11 10353.8 363.916   6
   0  -1 -11 11137.6 521.134   4
   0  -1 -11 10370.2 327.655   5
   0  -1 -10 14281.3 498.184   3
   0   1 -10 14097.0 418.709   6
   0  -1 -10 15255.3 395.130   5
   0   1 -10 15100.0 619.478   1
   0   1  -9 14661.1 409.209   6
   0   1  -9 14627.4 604.787   1
   0  -1  -9 15268.8 385.255   5
   0  -1  -9 16081.4 505.662   3
   0   1  -8 4141.90 188.757   6
   0   1  -8 3747.43 293.022   1
   0  -1  -8 4090.94 171.643   5
   0  -1  -8 4188.40 232.222   3
   0  -1  -7 15097.3 444.165   3
   0   1  -7 14497.6 371.779   6
   0   1  -7 14005.1 567.675   1
   0  -1  -7 14370.8 350.969   5
   0  -1  -6 3257.84 143.776   5
   0   1  -6 3192.96 149.137   6
   0  -1  -5 21436.0 448.411   5
   0   1  -5 21033.7 442.568   6
   0  -1  -4 19153.1 420.346   5
   0   1  -4 18556.0 528.246   5
   0   1  -4 18547.0 400.681   6
   0  -1  -3 21687.7 461.591   5
   0   1  -3 21630.3 562.985   5
   0   1  -3 21526.9 434.273   6
   0   1  -2 12880.9 312.069   6
   0   1  -2 13502.0 420.294   5
   0   1  -1 14990.2 446.028   5
   0   1   0 2127.58 121.929   2
   0   1   0 2197.23 150.997   5
   0   1   1 15859.4 428.305   2
   0   1   1 13923.5 390.169   5
   0   1   2 11329.4 307.302   5
   0   1   3 24913.8 495.558   5
   0  -1   4 16840.8 378.031   6
   0   1   4 17203.7 373.777   5
   0   1   4 17243.7 436.211   3
   0   1   5 22548.8 531.714   3
   0   1   5 22084.6 442.597   5
   0  -1   5 21309.1 458.235   6
   0  -1   6 4632.76 193.377   6
   0   1   6 4665.92 157.114   1
   0   1   6 4386.62 216.158   3
   0   1   7 15619.5 367.532   1
   0  -1   7 16285.3 426.816   6
   0   1   7 15329.4 462.744   3
   0  -1   8 5269.65 302.634   4
   0  -1   8 5174.21 239.254   6
   0   1   8 5135.43 212.053   1
   0   1   8 5481.10 275.218   3
   0  -1   9 16384.0 587.679   4
   0  -1   9 15693.5 469.414   6
   0   1   9 16211.3 454.882   1
   0   1   9 16460.4 524.988   3
   0   1  10 20620.1 618.818   3
   0   1  10 18313.5 536.964   1
   0  -1  10 17579.8 527.344   6
   0  -1  10 19566.5 671.234   4
   0  -1  11 10806.1 504.295   4
   0   1  11 9892.46 410.033   1
   0   1  11 10363.6 442.784   3
   0  -1  12 835.088 145.147   4
   0  -1  13 3319.67 304.989   4
   0  -1  14 3917.95 346.158   4
   0  -1  15 20072.8 859.140   4
   0   2 -26 1875.63 463.622   2
   0  -2 -26 2580.14 334.736   6
   0  -2 -25 2392.83 313.247   6
   0   2 -25 1408.15 399.218   2
   0  -2 -24 267.014 187.924   2
   0  -2 -24 211.093 106.763   6
   0  -2 -23 1207.62 330.353   2
   0   2 -23 663.594 272.925   2
   0  -2 -23 757.129 179.555   6
   0   2 -23 1044.68 230.500   5
   0  -2 -22 2110.74 281.765   6
   0  -2 -22 2086.70 400.149   2
   0   2 -22 2271.07 223.472   6
   0   2 -22 2215.23 321.523   5
   0   2 -21 10173.6 701.772   5
   0  -2 -21 9699.61 890.833   2
   0  -2 -21 8913.80 558.989   6
   0   2 -21 9412.95 460.152   6
   0   2 -20 1143.43 226.685   5
   0  -2 -20 1342.84 208.265   6
   0   2 -20 1383.81 171.300   6
   0  -2 -20 1461.71 339.730   2
   0   2 -19 6743.96 534.821   5
   0  -2 -19 6533.08 671.764   2
   0  -2 -19 5778.93 426.900   6
   0   2 -19 6491.97 360.277   6
   0   2 -18 6894.41 532.205   5
   0  -2 -18 7180.99 687.407   2
   0   2 -18 7121.47 368.414   6
   0   2 -17 11341.6 466.364   6
   0   2 -17 12633.8 711.442   5
   0  -2 -17 11434.3 841.637   2
   0  -2 -17 12409.1 464.136   5
   0   2 -16 4686.63 418.813   5
   0  -2 -16 4072.53 486.455   2
   0   2 -16 4416.90 273.943   6
   0  -2 -16 4597.02 266.135   5
   0   2 -15 16326.7 536.842   6
   0  -2 -15 16078.6 933.025   2
   0   2 -15 17115.8 804.266   5
   0  -2 -15 14207.3 493.571   5
   0   2 -14 5650.26 293.866   6
   0  -2 -14 6077.96 541.016   2
   0   2 -14 5766.15 443.376   5
   0  -2 -13 13096.0 452.530   5
   0  -2 -13 12446.0 761.760   2
   0   2 -13 13583.9 464.288   6
   0   2 -13 13661.3 679.316   5
   0   2 -12 1489.60 142.666   6
   0   2 -12 1534.76 217.449   5
   0  -2 -12 1379.24 136.096   5
   0  -2 -12 1342.45 237.417   2
   0   2 -11 14556.3 466.831   6
   0  -2 -11 14938.1 474.753   5
   0  -2 -11 14709.4 778.586   2
   0   2 -11 15148.6 681.993   5
   0   2 -10 11380.2 397.191   6
   0   2 -10 10957.8 691.136   1
   0  -2 -10 11285.1 407.126   5
   0   2 -10 11180.1 569.618   5
   0  -2  -9 49102.4 1013.62   5
   0   2  -9 50445.7 995.901   6
   0   2  -9 50215.8 1299.14   5
   0  -2  -8 4755.29 252.759   5
   0   2  -8 4672.58 237.327   6
   0   2  -8 4613.63 345.423   5
   0   2  -7 31820.9 722.151   6
   0   2  -7 32091.2 957.227   5
   0  -2  -7 32693.1 769.678   5
   0  -2  -6 34875.6 1036.29   2
   0   2  -6 31145.5 701.685   6
   0   2  -6 31590.3 937.463   5
   0  -2  -6 30487.1 769.663   5
   0   2  -5 50471.6 993.023   6
   0   2  -5 52256.1 1258.67   5
   0  -2  -5 51354.3 1084.51   5
   0   2  -4 2687.09 179.072   6
   0  -2  -4 2930.57 212.268   5
   0  -2  -4 3213.05 268.814   2
   0   2  -4 3152.87 268.017   5
   0   2  -3 33781.2 788.711   6
   0   2  -3 37211.1 992.380   5
   0  -2  -3 37793.2 946.788   2
   0  -2  -3 35616.9 878.436   5
   0  -2  -2 17504.6 572.278   2
   0  -2  -2 16107.6 577.100   5
   0   2  -2 17819.3 648.453   5
   0   2  -1 22475.9 575.682   2
   0   2  -1 23828.2 760.165   5
   0  -2  -1 21929.8 630.365   2
   0   2   0 122.854 43.7246   2
   0   2   0 112.766 40.2665   5
   0   2   1 19535.7 650.223   5
   0   2   1 21383.5 642.127   2
   0   2   2 13777.7 501.634   5
   0  -2   2 14513.7 478.111   6
   0   2   2 15626.7 588.927   2
   0  -2   3 41656.8 890.685   6
   0   2   3 41149.9 926.391   5
   0  -2   4 6060.60 271.124   6
   0   2   4 6007.98 289.695   5
   0  -2   5 46664.3 925.049   6
   0   2   5 45767.1 951.590   5
   0  -2   6 29175.8 677.897   6
   0   2   6 30486.7 701.185   5
   0   2   7 41131.9 863.013   5
   0   2   7 43101.3 1013.66   3
   0  -2   7 40404.4 852.112   6
   0  -2   8 5991.22 272.215   6
   0   2   8 6230.76 275.181   5
   0   2   8 6429.38 350.342   3
   0   2   9 48178.6 1130.36   3
   0  -2   9 48067.3 993.450   6
   0   2   9 47441.0 949.924   5
   0   2  10 11785.2 345.652   1
   0  -2  10 12891.1 455.224   6
   0   2  10 13272.2 534.328   3
   0   2  11 20566.1 511.575   1
   0  -2  11 20251.2 620.239   6
   0   2  11 20919.9 717.045   3
   0   2  12 955.438 152.733   3
   0  -2  12 679.067 138.404   4
   0   2  12 867.935 97.5769   1
   0  -2  12 825.119 119.703   6
   0   2  13 13270.0 595.604   3
   0   2  13 12792.1 442.968   1
   0  -2  13 12467.0 639.958   4
   0  -2  14 7437.66 504.554   4
   0   2  14 7178.49 450.555   3
   0   2  15 22919.2 862.343   3
   0  -2  15 23490.0 953.391   4
   0  -2  16 4514.68 416.896   4
   0  -2  17 11932.8 710.580   4
   0  -2  18 10680.4 697.819   4
   0  -2  19 10321.0 714.122   4
   0  -3 -25 1923.94 298.765   6
   0  -3 -24 5376.86 494.060   6
   0  -3 -23 34.8342 106.959   2
   0  -3 -23 184.350 111.606   6
   0   3 -23 6.47785 67.6996   2
   0   3 -23-111.424 77.4004   5
   0  -3 -22 3553.86 381.957   6
   0   3 -22 3954.16 485.989   5
   0  -3 -22 3842.60 602.472   2
   0   3 -21 1770.43 305.753   5
   0  -3 -21 1786.85 403.535   2
   0   3 -20 1967.59 210.001   6
   0   3 -20 2277.20 343.290   5
   0  -3 -20 1521.44 345.608   2
   0  -3 -19 203.871 122.245   2
   0   3 -19 344.146 84.4750   6
   0   3 -19 298.669 127.392   5
   0  -3 -18 499.989 182.161   2
   0   3 -18 684.126 120.004   6
   0   3 -18 443.079 164.213   5
   0   3 -17 1494.17 267.332   5
   0   3 -17 1571.54 175.770   6
   0  -3 -17 846.742 242.900   2
   0   3 -16 2207.19 207.693   6
   0  -3 -16 2441.42 386.292   2
   0   3 -16 2170.90 323.943   5
   0  -3 -15 841.753 132.073   5
   0  -3 -15 900.512 244.611   2
   0   3 -15 886.779 209.105   5
   0   3 -15 978.964 142.011   6
   0  -3 -14 8285.71 681.752   2
   0  -3 -14 7753.31 413.422   5
   0   3 -14 8375.92 401.049   6
   0   3 -14 8112.54 601.006   5
   0   3 -13 4769.99 453.975   5
   0   3 -13 4653.87 292.820   6
   0  -3 -13 4380.27 479.606   2
   0  -3 -13 4297.68 302.251   5
   0  -3 -12 19552.1 990.986   2
   0   3 -12 17733.8 592.342   6
   0   3 -12 17834.9 870.443   5
   0  -3 -11 1313.05 168.583   5
   0  -3 -11 1646.87 282.044   2
   0   3 -11 1403.65 237.166   5
   0   3 -11 1611.95 173.582   6
   0   3 -10 9720.84 607.849   5
   0   3 -10 9284.29 413.146   6
   0  -3 -10 9849.24 673.349   2
   0  -3 -10 8874.37 450.245   5
   0   3  -9 2508.03 308.257   5
   0   3  -9 2425.04 209.994   6
   0  -3  -9 2687.64 342.821   2
   0  -3  -9 2384.13 225.069   5
   0   3  -8 4637.73 403.547   5
   0  -3  -8 4688.99 420.843   2
   0   3  -8 4023.64 265.877   6
   0  -3  -8 4457.45 321.107   5
   0   3  -7 5.28780 41.2015   6
   0  -3  -7 100.929 51.7975   5
   0   3  -7 42.4879 62.3295   5
   0  -3  -6 1789.54 209.518   5
   0   3  -6 1828.15 239.109   5
   0   3  -6 1306.03 155.697   6
   0   3  -5 646.328 148.528   5
   0  -3  -5 822.654 141.751   5
   0   3  -4 5339.51 409.002   5
   0  -3  -4 5353.09 386.078   2
   0  -3  -4 5885.84 392.134   5
   0   3  -3 1366.91 132.350   2
   0  -3  -3 1727.11 214.836   5
   0   3  -3 1633.74 226.064   5
   0  -3  -3 1583.26 196.520   2
   0   3  -2 18780.6 770.327   5
   0   3  -2 17075.2 539.873   2
   0  -3  -2 17248.3 652.557   2
   0  -3  -2 17637.4 740.571   5
   0  -3  -1 3630.05 332.184   5
   0   3  -1 3373.14 239.942   2
   0   3  -1 3541.84 324.167   5
   0   3   0 26065.7 921.943   5
   0   3   0 27245.2 806.507   2
   0   3   1 3227.85 305.482   5
   0   3   1 3218.40 276.270   2
   0   3   2 17936.5 716.004   5
   0   3   3 2116.96 228.785   5
   0  -3   3 2589.60 225.023   6
   0  -3   4 4203.77 283.892   6
   0   3   4 4120.37 303.460   5
   0   3   5 958.968 143.871   5
   0  -3   5 845.313 122.956   6
   0   3   6 2264.34 212.344   5
   0  -3   6 2363.64 204.213   6
   0   3   7 51.2943 34.4326   5
   0   3   8 3963.19 272.298   5
   0   3   9 2979.26 238.023   5
   0   3   9 3370.71 307.137   3
   0   3  10 10775.6 464.861   5
   0   3  10 11729.0 596.407   3
   0   3  11 997.477 175.222   3
   0   3  11 1009.12 135.437   5
   0   3  12 19862.2 800.835   3
   0   3  12 20902.8 649.195   5
   0   3  13 6178.57 446.868   3
   0   3  13 4543.85 218.146   1
   0  -3  14 9081.68 462.060   6
   0   3  14 10698.8 605.338   3
   0  -3  15 492.515 142.946   4
   0   3  15 289.900 43.9805   1
   0   3  15 580.089 157.241   3
   0   3  16 2991.73 337.683   3
   0  -3  16 2437.09 329.156   4
   0   3  17 1867.99 274.580   3
   0  -3  17 1536.14 266.418   4
   0   3  18 937.656 199.363   3
   0  -3  18 777.398 205.375   4
   0  -3  19 146.813 92.4228   4
   0  -3  20 1787.73 311.798   4
   0  -3  21 1865.53 326.983   4
   0  -3  22 5308.21 573.642   4
   0   4 -23 3515.88 470.541   5
   0   4 -22 2355.36 415.944   5
   0  -4 -22 2201.51 471.396   2
   0  -4 -21 3498.69 578.776   2
   0   4 -21 4113.26 525.713   5
   0   4 -20 3925.37 494.816   5
   0  -4 -20 3755.46 572.169   2
   0  -4 -19 6085.35 706.226   2
   0   4 -19 7273.16 662.842   5
   0   4 -18 2167.88 364.847   5
   0   4 -18 2209.31 236.256   6
   0  -4 -18 2221.96 419.650   2
   0   4 -17 5834.96 388.825   6
   0  -4 -17 5265.12 630.045   2
   0   4 -17 5881.65 582.496   5
   0  -4 -16 5450.12 615.994   2
   0   4 -16 5570.43 379.470   6
   0   4 -16 6131.64 586.382   5
   0   4 -15 5314.46 369.542   6
   0  -4 -15 5865.20 618.446   2
   0   4 -15 6196.87 585.718   5
   0  -4 -14 6945.60 650.608   2
   0   4 -14 6373.72 404.188   6
   0   4 -14 6563.54 600.561   5
   0   4 -13 2104.65 231.131   6
   0   4 -13 2475.95 356.623   5
   0  -4 -13 1916.52 356.180   2
   0   4 -12 9479.77 683.236   5
   0  -4 -12 8593.97 689.442   2
   0   4 -12 8391.72 463.453   6
   0   4 -11 7210.31 430.052   6
   0  -4 -11 8760.69 673.715   2
   0   4 -11 8142.92 622.774   5
   0  -4 -10 13542.9 823.028   2
   0   4 -10 13783.5 804.450   5
   0   4  -9 7635.77 590.290   5
   0  -4  -9 7899.07 612.573   2
   0   4  -8 16440.5 860.490   5
   0  -4  -8 18323.8 913.906   2
   0  -4  -7 22912.0 1015.88   2
   0   4  -7 21453.7 980.684   5
   0  -4  -6 12974.4 710.918   2
   0   4  -6 12148.0 708.721   5
   0   4  -5 11332.1 670.655   5
   0   4  -5 8399.24 370.064   2
   0   4  -4 15057.3 514.813   2
   0   4  -4 17038.8 835.676   5
   0   4  -3 16126.0 556.360   2
   0   4  -3 17006.5 824.229   5
   0   4  -2 12851.1 528.911   2
   0   4  -2 12428.5 695.369   5
   0   4  -1 4813.75 338.167   2
   0   4  -1 4551.15 420.723   5
   0   4   0 11310.5 651.930   5
   0   4   0 11189.4 571.856   2
   0   4   1 6598.28 493.805   5
   0   4   2 11094.2 628.092   5
   0   4   3 15407.2 733.518   5
   0   4   4 18093.1 785.875   5
   0   4   5 13414.2 661.847   5
   0   4   6 11484.9 594.863   5
   0   4   7 18306.6 747.304   5
   0   4   8 14818.1 649.037   5
   0   4   9 8993.92 498.896   5
   0   4  10 12214.6 714.210   3
   0   4  10 13553.9 605.313   5
   0   4  11 5731.30 390.468   5
   0   4  11 5783.88 491.708   3
   0   4  12 8390.86 595.502   3
   0   4  12 8868.43 490.612   5
   0   4  13 4152.66 422.639   3
   0   4  13 3874.81 323.229   5
   0   4  14 6701.38 547.749   3
   0   4  15 4152.62 451.292   3
   0   4  16 6730.41 578.148   3
   0  -4  17 6224.66 587.478   4
   0   4  17 7886.29 631.625   3
   0  -4  18 2118.60 351.642   4
   0   4  18 2812.30 384.294   3
   0   4  19 6152.81 586.164   3
   0  -4  19 5708.11 590.432   4
   0   4  20 3244.98 458.561   3
   0  -4  20 2838.22 425.082   4
   0   4  21 4316.46 528.477   3
   0  -4  21 3724.65 497.119   4
   0  -4  22 2710.41 424.125   4
   0   5 -21 564.004 225.406   5
   0   5 -20 1929.97 369.249   5
   0  -5 -20 1828.19 412.057   2
   0  -5 -19 1197.15 335.117   2
   0   5 -19 692.965 228.036   5
   0  -5 -18 6269.46 728.248   2
   0   5 -18 7965.39 740.497   5
   0  -5 -17 1328.05 340.921   2
   0   5 -17 1124.95 279.564   5
   0  -5 -16 1369.95 333.817   2
   0   5 -16 2122.84 373.422   5
   0  -5 -15 626.342 222.738   2
   0   5 -15 700.979 210.604   5
   0   5 -14 2478.48 398.541   5
   0  -5 -14 3099.66 462.073   2
   0   5 -13 249.439 131.104   5
   0  -5 -13 137.363 104.155   2
   0   5 -12 1789.76 316.802   5
   0  -5 -12 1165.82 288.931   2
   0   5 -11 1101.67 249.482   5
   0  -5 -11 1408.69 308.200   2
   0  -5 -10 1286.05 273.418   2
   0   5 -10 949.932 230.999   5
   0   5  -9 1849.80 327.256   5
   0  -5  -9 1790.77 320.322   2
   0   5  -8 8587.28 665.873   5
   0  -5  -8 9416.15 708.971   2
   0   5  -7 4238.76 456.712   5
   0  -5  -7 4160.33 447.089   2
   0  -5  -6 10683.7 697.079   2
   0   5  -6 10656.3 716.438   5
   0   5  -5 1354.91 276.616   5
   0   5  -5 1097.65 121.064   2
   0   5  -4 4776.98 478.377   5
   0   5  -4 4383.53 285.527   2
   0   5  -3 2376.99 338.267   5
   0   5  -2 3764.60 406.601   5
   0   5  -1 521.249 159.179   5
   0   5   0-12.8108 88.0749   5
   0   5   1 810.231 192.511   5
   0   5   2 2358.50 312.676   5
   0   5   3 2942.99 348.996   5
   0   5   4 4562.85 435.605   5
   0   5   5 2073.42 290.527   5
   0   5   6 9451.32 616.148   5
   0   5   7 3927.95 390.885   5
   0   5   8 9166.31 584.188   5
   0   5   9 1019.61 191.972   5
   0   5  10 766.452 201.795   3
   0   5  10 803.061 167.076   5
   0   5  11 891.226 219.834   3
   0   5  11 1026.58 187.463   5
   0   5  12 2002.22 265.935   5
   0   5  12 2014.64 340.077   3
   0   5  13 123.656 61.7733   3
   0   5  13 237.470 103.661   5
   0   5  14 1510.74 305.334   3
   0   5  14 1986.75 266.582   5
   0   5  15 791.043 206.818   3
   0   5  16 1852.33 332.229   3
   0   5  17 1100.02 282.027   3
   0   5  18 4462.83 543.802   3
   0  -5  19 1033.77 264.610   4
   0   5  19 953.592 273.519   3
   0   5  20 2658.96 438.117   3
   0  -5  20 2084.63 409.999   4
   0   5  21 792.380 256.610   3
   0   5  22 2158.22 380.298   3
   0  -6 -18 2063.85 464.074   2
   0  -6 -17 280.227 166.938   2
   0  -6 -16 201.136 84.4395   2
   0   6 -16 177.373 77.0951   5
   0  -6 -15 4815.88 620.050   2
   0   6 -15 5178.29 609.448   5
   0  -6 -14 7941.20 795.360   2
   0   6 -14 8690.58 791.092   5
   0  -6 -13 2795.71 466.889   2
   0   6 -13 3635.81 506.201   5
   0   6 -12 442.865 177.674   5
   0  -6 -12 481.991 181.338   2
   0   6 -11 5188.01 582.559   5
   0  -6 -11 4855.79 589.102   2
   0   6 -10 8893.54 768.733   5
   0  -6 -10 9670.87 785.045   2
   0  -6  -9 4586.00 522.026   2
   0   6  -9 4486.07 520.651   5
   0   6  -8 1057.61 251.136   5
   0   6  -7 2836.31 412.424   5
   0   6  -6 4206.93 493.279   5
   0   6  -5 2311.55 369.258   5
   0   6  -4 1726.45 313.359   5
   0   6  -3 8848.00 683.921   5
   0   6  -2 15820.8 931.185   5
   0   6  -1 7371.26 618.696   5
   0   6   0 321.539 145.040   5
   0   6   1 8975.89 677.958   5
   0   6   2 16778.9 933.677   5
   0   6   3 7799.68 628.309   5
   0   6   4 1612.26 295.327   5
   0   6   5 3061.35 389.108   5
   0   6   6 3920.64 434.158   5
   0   6   7 2585.61 348.726   5
   0   6   8 1071.55 234.122   5
   0   6   9 4819.34 464.542   5
   0   6  10 8467.79 615.822   5
   0   6  11 3227.88 457.837   3
   0   6  11 4494.87 446.354   5
   0   6  12 502.678 148.710   5
   0   6  12 374.218 141.141   3
   0   6  13 3013.08 452.027   3
   0   6  13 3936.64 419.426   5
   0   6  14 6035.89 655.010   3
   0   6  15 2916.67 435.989   3
   0   6  16 193.913 158.662   3
   0   6  17 364.911 172.590   3
   0   6  18 2224.52 414.418   3
   0   7  -9 2169.41 398.797   5
   0   7  -8 1803.98 356.959   5
   0   7  -7 812.831 240.611   5
   0   7  -6 402.839 176.564   5
   0   7  -5 2301.69 387.294   5
   0   7  -4 315.923 153.053   5
   0   7  -3 1726.62 327.906   5
   0   7  -2 1010.64 252.063   5
   0   7  -1 1536.13 305.168   5
   0   7   0 110.829 71.1206   5
   0   7   1 1489.61 306.894   5
   0   7   2 1188.26 268.828   5
   0   7   3 2201.55 363.606   5
   0   7   4 322.441 163.104   5
   0   7   5 1909.65 332.669   5
   0   7   6 432.355 176.538   5
   0   7   7 832.465 214.978   5
   0   7   8 1003.29 254.878   5
   0   7   9 1135.84 245.060   5
   0   7  10 378.172 143.784   5
   0   7  11 4.84394 70.8266   3
   0   7  12 288.778 162.432   3
   1   0 -27 1142.20 217.353   6
  -1   0 -26 223.571 178.675   2
   1   0 -26 47.0549 81.8702   6
  -1   0 -25 663.648 292.335   2
   1   0 -25 798.526 172.999   6
  -1   0 -24 512.150 248.660   2
   1   0 -24 49.4937 59.7559   6
  -1   0 -23 471.217 236.487   2
   1   0 -23 1070.82 193.715   6
  -1   0 -23 958.981 154.808   6
  -1   0 -22 21.0425 49.7323   6
   1   0 -22 36.1052 58.6161   6
  -1   0 -22 35.1614 84.8773   2
  -1   0 -21 12175.4 565.231   6
  -1   0 -21 10299.6 997.341   2
   1   0 -21 11250.5 621.357   6
  -1   0 -20 309.715 151.616   2
   1   0 -20 197.060 92.4057   6
  -1   0 -20 37.4959 69.8022   6
  -1   0 -19 15235.7 680.963   5
  -1   0 -19 16483.4 1170.57   2
  -1   0 -19 18699.4 680.993   6
   1   0 -19 16379.2 718.867   6
  -1   0 -18-116.166 58.8657   5
   1   0 -18 143.443 103.243   6
  -1   0 -18 61.9105 91.9272   2
   1   0 -18 3.09983 39.4475   1
  -1   0 -18 158.955 86.2808   6
  -1   0 -17 17090.2 689.477   5
  -1   0 -17 19155.4 659.743   6
   1   0 -17 17430.3 715.285   6
  -1   0 -17 16553.3 1104.24   2
   1   0 -16-72.3456 67.9001   1
  -1   0 -16 101.821 50.2510   5
  -1   0 -16 178.691 130.517   2
   1   0 -16 63.4410 60.6422   6
  -1   0 -16 34.2080 53.1821   6
  -1   0 -15 7806.05 686.344   2
  -1   0 -15 9232.23 476.754   1
  -1   0 -15 7433.71 401.451   5
  -1   0 -15 8739.46 401.908   6
   1   0 -15 8159.51 445.981   6
  -1   0 -14 8.96519 42.5585   6
  -1   0 -14 44.9796 57.6419   2
  -1   0 -14 37.9988 38.2329   5
  -1   0 -14 39.1315 26.2147   1
   1   0 -14-13.9964 29.4752   6
   1   0 -14-5.66477 20.9892   4
   1   0 -14 17.3711 45.7931   3
   1   0 -14 72.5117 51.1777   1
   1   0 -13 1020.45 155.275   4
   1   0 -13 825.983 133.547   6
  -1   0 -13 1029.98 121.065   6
  -1   0 -13 1158.34 150.426   1
  -1   0 -13 915.606 211.377   2
  -1   0 -13 882.450 123.015   5
   1   0 -13 1400.89 175.778   1
   1   0 -12 3.17458 34.9947   1
  -1   0 -12 8.26190 27.4400   6
  -1   0 -12 28.2922 39.4809   4
  -1   0 -12-9.38685 19.0864   1
   1   0 -12-24.6636 29.6169   6
  -1   0 -12 45.8697 29.2267   5
   1   0 -12-0.18380 19.3654   4
  -1   0 -12 29.6471 64.6424   2
   1   0 -11 839.757 123.365   6
   1   0 -11 951.180 127.517   1
  -1   0 -11 998.910 152.975   4
  -1   0 -11 965.501 210.565   2
  -1   0 -11 877.509 96.8436   6
  -1   0 -11 826.994 108.169   5
  -1   0 -11 897.708 121.623   1
   1   0 -11 931.803 117.090   3
   1   0 -11 790.866 119.366   4
   1   0 -10 32.6930 32.2819   6
  -1   0 -10-4.04104 13.3623   5
  -1   0 -10 65.4818 32.7394   1
  -1   0 -10 22.3149 27.4379   4
   1   0 -10 15.6107 21.0393   3
   1   0 -10-2.96496 27.8443   4
   1   0 -10-9.20970 31.0981   1
  -1   0 -10-24.9781 45.5423   2
   1   0  -9 21898.6 560.729   3
  -1   0  -9 20840.8 906.106   2
   1   0  -9 21105.2 615.173   6
   1   0  -9 22248.2 605.211   4
  -1   0  -9 21622.5 606.360   1
  -1   0  -9 19946.0 543.792   5
  -1   0  -8 3.66369 32.4862   2
   1   0  -8 39.2186 22.4343   3
  -1   0  -8 13.3586 14.8794   1
   1   0  -8 76.3371 46.2089   6
   1   0  -8-7.94410 15.0060   4
  -1   0  -8 6.55046 11.7179   5
   1   0  -7 35175.0 713.269   4
  -1   0  -7 31499.7 647.926   5
  -1   0  -7 35619.3 759.988   1
   1   0  -7 34522.5 778.263   6
  -1   0  -7 35636.6 1079.75   2
   1   0  -6-15.8689 14.9028   4
  -1   0  -6 24.6282 32.3824   1
   1   0  -6 10.3849 27.0625   6
  -1   0  -6-28.3681 46.2877   2
  -1   0  -6 10.0839 11.9785   5
   1   0  -5 62196.4 1115.10   6
  -1   0  -5 62731.7 926.352   5
   1   0  -5 61205.7 996.397   4
  -1   0  -4 6.56578 6.78770   5
  -1   0  -4 7.87884 18.3461   1
   1   0  -4 33.1667 27.2553   6
  -1   0  -3 23576.7 414.100   6
   1   0  -3 23846.3 505.694   6
  -1   0  -3 23782.8 390.812   5
   1   0  -2-15.8579 15.7259   6
  -1   0  -2 4.61726 8.29896   6
  -1   0  -2 5.56496 6.24635   5
   1   0   1 3907.63 158.442   4
   1   0   2-3.63921 5.99511   6
   1   0   2-2.75334 8.63656   3
   1   0   2 7.46223 9.68071   4
   1   0   2-18.4732 26.5782   2
   1   0   3 25466.8 524.955   3
   1   0   3 25706.0 435.849   5
   1   0   3 26356.1 586.300   4
   1   0   3 24861.4 663.803   2
   1   0   4 9.77085 8.63423   5
   1   0   4 19.7402 19.9770   4
   1   0   4-4.60525 35.6045   2
   1   0   5 70592.2 1438.08   2
   1   0   5 71624.5 1321.72   4
   1   0   6-12.8032 21.9782   4
   1   0   7 37996.5 883.534   1
   1   0   7 38363.6 945.339   4
   1   0   8 21.7190 28.8697   4
   1   0   8-1.79513 18.8405   1
   1   0   9 24684.4 788.193   4
   1   0   9 24153.1 746.545   1
   1   0  10 23.6836 52.0661   1
  -1   1 -27 728.185 334.580   2
   1  -1 -27 555.667 164.798   6
  -1   1 -26 4180.77 778.432   2
   1  -1 -26 3054.03 358.117   6
   1  -1 -25 752.813 172.383   6
   1  -1 -25 867.761 284.863   2
  -1   1 -25 594.671 286.441   2
  -1  -1 -25 879.069 337.514   2
   1   1 -25 907.307 209.029   6
   1  -1 -24 4785.19 435.657   6
   1   1 -24 5836.15 461.886   6
  -1   1 -24 5154.15 809.672   2
  -1  -1 -24 5048.79 738.064   2
   1  -1 -24 4775.65 662.390   2
  -1  -1 -24 5801.76 444.740   6
   1   1 -23 1531.48 227.887   6
   1  -1 -23 1824.42 271.101   6
  -1   1 -23 1517.92 426.732   2
  -1  -1 -23 1853.98 237.409   6
  -1  -1 -23 1680.91 395.716   2
   1  -1 -22 3288.22 341.925   6
  -1  -1 -22 3386.78 562.370   2
   1   1 -22 3588.16 339.098   6
  -1  -1 -22 3476.74 331.307   6
  -1   1 -22 2790.27 566.411   2
  -1   1 -21 2982.87 230.459   6
   1   1 -21 3380.75 322.863   6
  -1   1 -21 2602.79 523.171   2
  -1  -1 -21 3164.31 525.564   2
  -1  -1 -21 3403.49 314.755   6
   1  -1 -21 3261.23 337.063   6
   1   1 -20 2136.24 247.411   6
   1  -1 -20 1575.11 235.021   6
  -1   1 -20 1958.88 179.447   6
  -1  -1 -20 2008.29 239.356   6
  -1   1 -20 2223.17 294.805   5
  -1  -1 -20 2077.52 414.393   2
  -1   1 -20 2132.65 451.030   2
   1   1 -19 352.187 101.043   6
  -1  -1 -19 249.510 88.8510   6
  -1  -1 -19 465.185 184.770   2
  -1   1 -19 270.517 145.915   2
  -1   1 -19 381.044 75.7402   6
   1  -1 -19 349.684 117.666   6
  -1   1 -19 464.361 140.868   5
  -1  -1 -18 3013.51 192.927   5
  -1  -1 -18 3467.50 490.687   2
   1  -1 -18 3691.26 330.734   6
  -1   1 -18 3462.74 226.402   6
  -1  -1 -18 3458.80 286.816   6
  -1   1 -18 3472.92 544.130   2
   1   1 -18 3505.93 302.217   6
  -1   1 -18 3776.83 387.362   5
  -1  -1 -17 1037.51 74.4492   5
  -1   1 -17 1527.94 240.404   5
   1   1 -17 1265.65 171.807   6
  -1  -1 -17 1036.61 152.030   6
  -1  -1 -17 1349.84 295.214   2
  -1   1 -17 1087.58 120.161   6
   1  -1 -17 1320.47 193.419   6
  -1   1 -17 1192.24 294.027   2
  -1   1 -16 4262.75 541.599   2
  -1  -1 -16 4297.31 516.967   2
  -1   1 -16 4591.78 399.915   5
   1  -1 -16 4195.88 278.680   5
  -1   1 -16 4444.39 238.703   6
  -1  -1 -16 3749.02 151.833   5
   1  -1 -16 4105.61 332.150   6
   1   1 -16 4517.90 324.664   6
   1  -1 -15 2128.91 233.653   6
   1   1 -15 1837.63 229.135   1
  -1  -1 -15 2048.09 352.842   2
  -1   1 -15 2072.95 365.536   2
   1  -1 -15 2282.93 222.583   3
  -1  -1 -15 1774.17 95.5946   5
  -1   1 -15 1844.58 147.059   6
   1   1 -15 2147.08 208.810   6
  -1   1 -15 1921.73 245.360   5
   1  -1 -15 2078.00 185.235   5
  -1   1 -14 11744.4 375.828   6
   1  -1 -14 12995.7 516.257   3
  -1   1 -14 12345.2 629.534   5
   1  -1 -14 11479.8 537.605   6
   1  -1 -14 11812.8 449.087   5
   1  -1 -14 11486.9 579.868   4
   1   1 -14 12163.1 497.722   6
   1   1 -14 10473.6 568.471   1
  -1  -1 -14 10678.6 267.226   5
  -1  -1 -14 11345.3 797.612   2
  -1   1 -14 11729.7 823.627   2
  -1   1 -13 3514.16 323.745   5
  -1  -1 -13 3440.16 416.580   2
   1  -1 -13 3660.69 232.944   5
   1  -1 -13 3834.26 314.246   4
   1  -1 -13 3443.98 277.520   6
   1   1 -13 2621.86 277.319   1
  -1   1 -13 3880.05 445.356   2
   1   1 -13 3812.17 261.533   6
  -1   1 -13 3323.50 179.554   6
  -1  -1 -13 3335.38 126.110   5
  -1   1 -12 19046.5 719.956   1
  -1  -1 -12 16470.3 329.913   5
   1  -1 -12 15890.0 539.076   3
   1  -1 -12 16878.2 630.813   6
  -1   1 -12 16219.6 420.571   6
  -1   1 -12 16974.7 912.479   2
   1   1 -12 17711.3 574.389   6
  -1   1 -12 18313.3 731.359   5
   1  -1 -12 17136.2 525.680   5
  -1  -1 -12 17779.5 938.596   2
   1  -1 -11 6781.41 317.036   3
   1  -1 -11 6800.32 374.824   6
   1   1 -11 6384.51 323.263   6
  -1  -1 -11 7157.18 425.423   4
  -1   1 -11 6471.86 528.413   2
  -1  -1 -11 7182.43 382.697   3
  -1   1 -11 6181.68 222.403   6
  -1   1 -11 7002.98 428.633   5
  -1   1 -11 7124.97 407.636   1
   1  -1 -11 6535.40 298.766   5
  -1  -1 -11 6084.60 164.205   5
  -1   1 -10 10609.7 635.297   2
   1   1 -10 10282.9 396.879   6
  -1   1 -10 10771.2 526.366   5
   1  -1 -10 10874.1 464.684   6
  -1   1 -10 11102.6 501.732   1
  -1   1 -10 9660.35 273.667   6
   1  -1 -10 9920.42 369.295   5
   1  -1 -10 10367.3 380.467   3
  -1   1  -9 7322.87 391.928   1
  -1   1  -9 6798.14 405.171   5
   1   1  -9 6775.14 304.126   6
  -1   1  -9 7062.36 485.260   2
   1  -1  -9 6673.90 289.084   5
   1  -1  -9 6416.33 277.210   3
  -1   1  -9 6551.25 202.368   6
  -1   1  -8 8398.47 493.915   2
  -1   1  -8 8365.73 409.428   1
   1  -1  -8 7299.24 281.029   3
  -1   1  -8 7959.46 211.176   6
   1   1  -8 7889.27 318.225   6
   1  -1  -8 7943.01 309.960   5
  -1   1  -8 8218.31 430.323   5
  -1   1  -7 2129.92 90.3512   6
   1  -1  -7 1949.21 146.342   5
  -1   1  -7 2009.06 199.223   5
  -1   1  -7 2317.08 202.267   1
  -1   1  -7 2050.66 219.121   2
   1   1  -7 2036.27 150.654   6
  -1   1  -6 8311.45 183.931   6
   1  -1  -6 8121.78 300.584   5
  -1   1  -6 7770.90 384.426   5
  -1   1  -6 7759.75 365.800   1
  -1   1  -6 8397.78 419.211   2
   1   1  -6 7920.83 301.176   6
  -1   1  -5 3178.86 234.692   5
  -1   1  -5 3545.88 237.436   2
  -1   1  -5 3489.17 230.670   1
   1  -1  -5 3467.14 184.922   5
   1   1  -5 3482.59 184.776   6
  -1   1  -4 11241.3 415.246   5
   1   1  -4 11974.1 353.093   6
  -1   1  -4 12670.7 405.109   2
  -1   1  -4 11650.4 419.230   1
  -1   1  -3 16896.9 485.058   5
  -1   1  -3 17741.8 506.985   1
   1   1  -3 17317.4 444.807   6
  -1   1  -3 17548.8 419.974   2
   1  -1  -3 17797.8 358.369   1
   1   1  -2 26779.5 575.822   6
  -1   1  -2 24976.5 611.330   1
   1  -1  -2 26614.5 513.301   1
  -1   1  -2 25815.6 602.841   5
  -1   1  -1 7581.31 283.337   5
   1   1  -1 7364.14 263.163   6
   1  -1  -1 7579.00 252.784   1
  -1   1  -1 7654.18 282.530   1
   1  -1   0 28635.6 623.019   1
  -1   1   0 30269.8 616.264   1
  -1   1   0 28868.4 625.613   5
   1   1   0 28444.6 615.405   6
   1   1   1 8605.85 303.873   6
   1   1   1 8251.53 372.138   2
  -1   1   1 9078.27 296.510   5
  -1   1   1 8720.95 258.355   1
  -1   1   2 24910.7 468.247   1
   1  -1   2 23975.8 477.872   2
   1   1   2 25021.1 748.571   2
  -1   1   2 25874.6 564.332   5
   1   1   3 19851.9 431.069   5
   1  -1   3 21570.9 455.242   2
   1   1   3 21123.3 706.632   2
   1  -1   3 19577.8 366.696   6
  -1   1   3 20569.3 494.998   5
   1   1   3 19462.6 507.696   3
  -1   1   3 20268.5 359.592   1
   1   1   4 10896.9 369.774   3
   1   1   4 10774.4 275.694   5
   1  -1   4 9881.20 396.299   5
  -1   1   4 10477.2 334.284   5
   1   1   4 10734.2 521.850   2
   1   1   5 4849.67 360.734   2
   1   1   5 4655.83 240.696   3
  -1   1   5 4197.02 174.276   3
  -1   1   5 4983.53 221.786   5
   1   1   5 4782.34 133.878   5
   1  -1   5 4953.59 282.862   5
   1   1   6 7999.58 492.587   2
   1  -1   6 8888.12 385.838   5
   1   1   6 8211.34 339.952   3
  -1   1   6 7499.03 255.535   3
  -1  -1   7 2450.59 161.015   4
   1   1   7 2715.21 171.325   1
   1   1   7 2597.76 196.550   3
  -1   1   7 2280.66 146.103   3
  -1  -1   7 2626.98 189.288   6
   1  -1   8 9554.29 460.609   4
   1   1   8 9555.49 405.696   3
  -1  -1   8 9375.51 383.505   6
  -1   1   8 8930.78 318.212   3
  -1  -1   8 9378.42 350.565   4
   1   1   8 9212.60 346.834   1
   1  -1   9 7347.71 417.610   4
  -1  -1   9 6814.60 316.848   4
   1   1   9 7287.26 367.621   3
   1   1   9 6687.14 312.716   1
  -1   1   9 6715.45 289.456   3
  -1  -1   9 7228.55 352.607   6
   1   1  10 12612.5 464.707   1
  -1  -1  10 12521.2 469.146   4
   1  -1  10 13297.5 592.215   4
   1   1  10 12782.1 516.483   3
   1   1  11 6526.83 373.376   3
  -1  -1  11 6715.76 353.769   4
   1   1  11 6159.41 343.136   1
   1  -1  11 6486.28 420.791   4
   1   1  12 21791.8 744.208   3
   1  -1  12 21781.9 833.857   4
  -1  -1  12 21957.2 727.448   4
   1   1  12 22237.9 726.899   1
  -1  -1  13 4165.99 306.859   6
   1  -1  13 4560.24 382.755   4
   1  -1  14 12744.7 675.508   4
   1  -1  15 3429.86 362.281   4
   1  -1  16 5195.46 464.965   4
   1  -1  17 1358.51 250.243   4
  -1   2 -26 2857.39 630.697   2
   1  -2 -26 2659.21 335.864   6
  -1   2 -25 1811.52 543.695   2
   1  -2 -25 1753.75 278.464   6
  -1  -2 -25 1761.94 261.468   6
   1   2 -24 2573.06 282.167   6
   1  -2 -24 2248.90 309.398   6
  -1   2 -24 1100.52 370.075   2
   1  -2 -24 2225.45 451.586   2
   1   2 -24 1917.68 292.992   5
  -1  -2 -24 2572.23 302.524   6
  -1  -2 -24 3463.15 587.487   2
   1   2 -23 2569.35 340.265   5
   1   2 -23 3566.77 336.569   6
  -1  -2 -23 3613.73 588.292   2
  -1  -2 -23 3074.29 335.708   6
  -1   2 -23 2805.18 568.847   2
   1  -2 -23 2972.25 351.133   6
   1  -2 -23 3420.79 569.938   2
   1   2 -22 1539.11 263.408   5
   1  -2 -22 1259.32 224.879   6
   1   2 -22 1303.77 197.345   6
   1  -2 -22 1609.97 370.082   2
  -1  -2 -22 1223.28 209.326   6
  -1  -2 -22 1503.64 370.369   2
  -1   2 -22 1202.37 397.436   2
  -1   2 -21 4214.85 487.710   5
   1  -2 -21 2925.52 332.980   6
   1   2 -21 3428.50 316.997   6
   1  -2 -21 2901.04 481.928   2
  -1  -2 -21 3180.97 519.541   2
  -1  -2 -21 2992.44 314.812   6
  -1   2 -21 2953.00 582.516   2
   1   2 -21 2946.27 366.279   5
  -1   2 -20 1305.55 269.199   5
   1  -2 -20 1019.04 180.325   6
  -1  -2 -20 1065.08 294.512   2
   1  -2 -20 1145.22 315.621   2
  -1   2 -20 1241.16 344.892   2
   1   2 -20 1101.90 165.619   6
  -1   2 -19 487.492 237.390   2
  -1  -2 -19 697.947 224.408   2
   1  -2 -19 641.865 140.951   6
  -1   2 -19 871.785 200.989   5
   1   2 -19 638.253 128.879   6
  -1   2 -19 718.460 101.413   6
  -1   2 -18 812.711 104.043   6
  -1  -2 -18 1283.07 296.932   2
   1  -2 -18 618.190 137.442   6
   1   2 -18 992.727 149.960   6
  -1   2 -18 1160.89 228.250   5
  -1   2 -18 1352.42 352.611   2
  -1   2 -17 888.230 277.653   2
   1   2 -17 1122.07 156.376   6
  -1  -2 -17 1001.76 255.022   2
   1  -2 -17 940.838 174.840   6
  -1   2 -17 1025.44 117.701   6
  -1   2 -17 1197.25 244.116   5
   1  -2 -16 3456.93 265.953   5
   1  -2 -16 3162.12 303.651   6
   1   2 -16 3169.11 262.442   6
  -1  -2 -16 3072.19 158.393   5
  -1  -2 -16 3289.33 453.400   2
  -1   2 -16 3242.00 196.096   6
  -1   2 -16 3153.21 458.820   2
  -1   2 -16 3189.35 376.615   5
  -1   2 -15 3485.47 200.521   6
  -1  -2 -15 3608.52 466.425   2
   1  -2 -15 3560.31 260.737   5
  -1   2 -15 3722.40 488.902   2
  -1  -2 -15 3447.55 179.295   5
   1   2 -15 3934.84 284.469   6
  -1   2 -15 3633.88 388.996   5
  -1  -2 -14 8508.18 307.586   5
  -1   2 -14 10317.6 648.851   5
  -1   2 -14 8603.04 317.952   6
   1   2 -14 8948.74 423.765   6
  -1  -2 -14 8458.15 696.718   2
   1  -2 -14 9089.45 417.545   5
  -1   2 -14 8312.82 692.677   2
  -1  -2 -13 6928.85 282.052   5
  -1   2 -13 6887.17 594.270   2
  -1  -2 -13 7002.43 615.793   2
   1   2 -13 6838.36 359.377   6
  -1   2 -13 6731.39 269.803   6
  -1   2 -13 7532.04 538.120   5
   1  -2 -13 6810.34 353.040   5
  -1  -2 -12 9641.38 353.263   5
   1   2 -12 9674.58 421.816   6
  -1   2 -12 10731.0 632.735   5
  -1   2 -12 9224.17 660.085   2
  -1  -2 -12 10258.8 724.178   2
   1  -2 -12 9757.93 416.767   5
  -1   2 -12 9550.19 322.873   6
  -1  -2 -11 13922.5 443.367   5
  -1   2 -11 15120.5 744.446   5
   1  -2 -11 13878.2 495.859   5
  -1  -2 -11 14358.2 829.432   2
  -1   2 -11 13348.3 381.507   6
  -1   2 -11 11860.0 716.024   2
   1   2 -11 13147.3 488.969   6
  -1   2 -10 10739.8 611.868   5
  -1   2 -10 9008.28 294.755   6
  -1  -2 -10 9688.86 371.852   5
  -1   2 -10 8698.81 565.315   2
   1   2 -10 8778.26 390.826   6
   1  -2 -10 9973.18 408.295   5
  -1  -2  -9 6476.95 311.771   5
  -1   2  -9 5889.91 432.878   1
  -1   2  -9 7148.03 485.502   5
   1  -2  -9 6692.15 328.981   5
  -1   2  -9 6064.43 233.310   6
  -1   2  -9 6001.11 428.186   2
   1   2  -9 6182.31 318.023   6
   1  -2  -8 4263.34 256.111   5
   1   2  -8 3916.79 244.975   6
  -1   2  -8 3516.72 295.897   2
  -1  -2  -8 3632.33 239.883   5
  -1   2  -8 3524.71 174.498   6
  -1   2  -8 4148.37 360.213   5
  -1   2  -8 3685.26 340.159   1
  -1   2  -7 4231.49 355.984   1
   1  -2  -7 4369.04 262.685   5
  -1   2  -7 4177.64 284.571   2
  -1  -2  -7 4086.58 260.687   5
   1   2  -7 4270.63 252.857   6
  -1   2  -7 4119.17 351.997   5
  -1   2  -6 2470.53 263.453   1
   1   2  -6 2960.65 207.059   6
  -1   2  -6 2673.07 275.410   5
  -1   2  -6 2834.02 199.320   2
  -1  -2  -6 2719.52 218.876   5
   1  -2  -6 2929.76 213.862   5
  -1   2  -5 2422.75 257.521   5
  -1   2  -5 2223.82 250.655   1
  -1   2  -5 2260.80 138.492   2
   1   2  -5 2764.24 196.966   6
   1  -2  -5 2787.19 209.147   5
  -1  -2  -5 2467.38 219.678   5
   1  -2  -4 5892.40 309.367   5
  -1   2  -4 5127.66 372.820   5
   1   2  -4 5646.21 288.260   6
  -1   2  -4 5247.84 375.686   1
  -1   2  -3 8266.25 466.982   1
  -1   2  -3 9158.87 467.076   5
   1   2  -3 8687.93 360.315   6
   1   2  -2 14168.0 529.555   5
   1   2  -2 14407.3 482.881   6
  -1   2  -2 14151.2 600.670   1
  -1   2  -2 13053.4 546.609   5
  -1   2  -1 10929.9 512.492   1
   1   2  -1 10981.7 428.532   6
  -1   2  -1 10507.1 462.465   5
   1   2  -1 11226.4 447.874   5
  -1   2   0 13322.6 511.433   5
   1   2   0 13094.8 487.044   5
   1   2   0 14295.4 512.644   6
  -1   2   0 14225.4 565.119   1
   1   2   0 13625.2 543.894   2
   1  -2   0 15325.9 369.620   2
   1   2   1 11457.8 445.300   5
  -1   2   1 11694.9 454.451   5
  -1   2   1 11260.2 479.145   1
   1   2   1 11157.0 513.084   2
   1   2   2 12235.3 463.066   5
   1   2   2 11947.1 567.902   2
  -1   2   2 12059.2 468.090   1
  -1   2   2 12031.7 453.766   5
  -1   2   3 10536.7 411.438   5
   1  -2   3 10239.7 356.625   6
   1   2   3 9985.83 415.498   5
   1   2   3 9541.77 530.503   2
  -1   2   3 9469.85 392.461   1
   1  -2   4 5269.93 229.496   6
  -1   2   4 5547.84 290.357   5
   1   2   4 5600.28 422.037   2
  -1   2   4 4862.88 243.604   1
   1   2   4 4970.70 277.178   5
   1   2   5 3121.16 326.934   2
   1  -2   5 3007.46 283.850   5
  -1   2   5 2840.32 157.647   1
   1   2   5 2884.05 192.678   5
  -1  -2   5 3072.13 215.085   6
  -1   2   5 3136.32 217.682   5
   1  -2   5 2995.25 156.505   6
   1   2   6 2735.78 229.801   3
   1  -2   6 2769.27 277.825   5
   1  -2   6 2602.10 138.479   6
   1   2   6 2655.26 166.957   5
   1   2   6 2944.30 326.324   2
  -1  -2   6 2852.87 209.772   6
  -1   2   6 2769.21 207.301   5
  -1   2   6 2416.69 113.715   1
   1  -2   7 4468.85 355.121   5
  -1   2   7 3943.68 244.874   3
   1   2   7 3838.32 278.177   3
   1   2   7 4707.80 443.071   2
  -1   2   7 4005.92 248.646   5
   1   2   7 3918.25 192.620   5
  -1  -2   7 4037.62 251.727   6
   1  -2   7 3677.71 166.899   6
   1   2   8 4360.82 305.593   3
  -1   2   8 4627.01 270.961   3
  -1   2   8 4713.05 274.246   5
   1  -2   8 4495.37 186.419   6
   1   2   8 4509.25 196.551   5
   1  -2   9 7098.81 256.112   6
   1   2   9 7187.05 402.355   3
  -1   2   9 6994.61 341.152   3
   1   2   9 7282.34 243.109   5
   1   2  10 11667.4 532.495   3
   1  -2  10 11305.3 347.163   6
  -1   2  10 10827.3 451.482   3
  -1   2  11 13732.3 528.457   3
   1  -2  11 12398.2 381.228   6
   1   2  11 13681.6 483.616   1
  -1  -2  11 14178.7 562.533   6
   1   2  11 14378.8 618.333   3
   1  -2  12 10921.4 624.224   4
  -1  -2  12 11463.9 541.943   4
  -1  -2  12 11963.3 530.558   6
   1   2  12 12032.4 589.167   3
  -1   2  12 11397.5 495.292   3
   1   2  12 11717.1 463.861   1
  -1   2  13 9640.61 467.677   3
   1   2  13 9320.22 430.468   1
  -1  -2  13 9656.46 507.876   4
   1   2  13 9731.77 541.567   3
   1  -2  13 10349.4 621.861   4
   1   2  14 10086.9 560.534   3
   1  -2  14 9320.73 605.733   4
  -1  -2  14 9689.58 526.429   4
  -1   2  14 8806.65 466.652   3
  -1  -2  15 4651.78 386.895   4
   1  -2  15 4694.06 439.975   4
   1   2  15 5451.58 421.114   3
  -1  -2  16 3982.12 364.621   4
   1   2  16 4255.93 384.654   3
   1  -2  16 4260.70 427.583   4
  -1  -2  17 1318.69 216.842   4
   1  -2  17 1157.95 235.182   4
   1  -2  18 993.426 220.080   4
   1  -2  19 860.404 211.875   4
   1  -2  20 2052.91 350.672   4
   1  -2  21 3928.45 489.640   4
  -1  -3 -25 166.854 91.7657   6
   1  -3 -24 422.641 182.061   6
   1   3 -24 328.133 153.870   5
  -1  -3 -24 89.1056 57.5782   6
  -1  -3 -23 857.393 278.470   2
   1   3 -23 556.208 147.046   5
   1  -3 -23 909.522 330.971   2
   1  -3 -23 298.518 123.881   6
  -1  -3 -22 287.031 138.618   2
  -1   3 -22 402.510 130.771   5
   1   3 -22 221.669 99.2752   6
   1   3 -22 150.991 92.1532   5
   1  -3 -22 67.1257 59.0136   6
   1  -3 -22 209.948 149.649   2
  -1   3 -21 4993.66 558.042   5
  -1  -3 -21 4351.86 616.774   2
   1   3 -21 4012.30 452.822   5
   1  -3 -21 5227.65 670.265   2
   1  -3 -21 3410.25 386.062   6
  -1   3 -21 4262.23 583.260   2
   1   3 -21 3975.75 334.638   6
   1   3 -20 1447.46 242.884   5
  -1   3 -20 879.606 264.844   2
  -1  -3 -20 1424.41 356.557   2
   1  -3 -20 1148.68 221.085   6
   1  -3 -20 1171.89 326.250   2
  -1   3 -20 1704.51 317.517   5
   1   3 -20 1251.99 185.870   6
   1  -3 -19 7394.66 541.233   6
  -1  -3 -19 8451.98 817.466   2
   1   3 -19 8973.12 666.724   5
  -1   3 -19 9316.54 833.836   2
   1  -3 -19 10169.1 890.687   2
  -1   3 -19 10896.2 798.351   5
   1   3 -19 8629.71 484.516   6
   1   3 -18 1293.43 178.774   6
   1   3 -18 1424.81 265.013   5
  -1  -3 -18 1599.19 344.956   2
   1  -3 -18 1904.97 378.349   2
  -1   3 -18 1355.82 290.655   2
  -1   3 -18 2100.01 340.824   5
   1   3 -17 8567.64 467.165   6
  -1   3 -17 10732.4 760.588   5
  -1  -3 -17 9609.71 827.925   2
  -1   3 -17 8827.69 395.150   6
   1  -3 -17 9387.14 791.342   2
  -1   3 -17 9705.68 781.146   2
   1   3 -17 8417.46 629.646   5
  -1   3 -16 1060.58 239.497   5
   1   3 -16 434.496 105.640   6
   1   3 -16 468.763 149.508   5
  -1   3 -16 840.403 217.579   2
  -1  -3 -16 860.411 253.480   2
  -1   3 -16 499.511 102.398   6
   1  -3 -16 560.646 195.505   2
  -1  -3 -15 4047.43 503.598   2
   1  -3 -15 4728.13 521.800   2
   1   3 -15 4413.95 316.141   6
  -1   3 -15 5192.51 504.055   5
   1   3 -15 4106.92 421.473   5
  -1   3 -15 3848.59 249.597   6
  -1   3 -15 4899.98 502.462   2
  -1   3 -14 679.174 177.042   2
  -1  -3 -14 371.860 83.6762   5
   1   3 -14 739.331 175.401   5
  -1   3 -14 817.486 207.037   5
   1   3 -14 732.790 128.226   6
  -1  -3 -14 416.084 154.647   2
   1  -3 -14 595.814 207.248   2
  -1   3 -14 544.702 89.5437   6
  -1  -3 -13 417.624 151.645   2
  -1   3 -13 584.611 132.666   2
   1   3 -13 435.293 156.253   5
  -1  -3 -13 357.469 86.1772   5
   1   3 -13 429.495 93.3686   6
   1  -3 -13 654.962 188.242   2
  -1   3 -13 810.812 210.474   5
  -1   3 -13 516.946 90.0765   6
  -1   3 -12 207.654 53.1430   6
  -1   3 -12 253.445 135.166   5
   1  -3 -12 359.035 149.218   2
   1   3 -12 193.639 105.536   5
  -1   3 -12 227.798 71.7220   2
   1   3 -12 350.194 92.0859   6
  -1  -3 -12 292.481 144.454   2
  -1  -3 -12 197.054 66.7308   5
   1   3 -11 549.447 112.770   6
  -1   3 -11 523.470 133.341   2
  -1  -3 -11 353.298 99.3090   5
  -1  -3 -11 385.962 138.915   2
   1   3 -11 625.125 157.423   5
  -1   3 -11 720.129 183.721   5
   1  -3 -11 689.059 127.898   5
   1  -3 -11 559.039 162.555   2
  -1   3 -10 644.362 170.439   5
   1  -3 -10 451.129 131.329   2
  -1  -3 -10 364.256 91.0410   5
   1  -3 -10 536.754 104.798   5
   1   3 -10 580.014 115.497   6
  -1   3 -10 374.013 100.472   2
  -1  -3 -10 553.871 164.008   2
   1   3 -10 406.737 125.200   5
  -1   3  -9 10432.5 659.532   5
  -1  -3  -9 9496.98 498.843   5
   1   3  -9 9429.44 568.141   5
  -1  -3  -9 9367.26 676.759   2
   1   3  -9 9580.10 454.898   6
   1  -3  -9 10250.6 615.436   2
  -1   3  -9 9172.74 445.111   2
   1  -3  -9 10118.2 492.526   5
  -1   3  -8 2639.83 326.539   5
  -1  -3  -8 2564.02 264.123   5
   1   3  -8 2602.18 293.901   5
  -1   3  -8 2314.69 182.511   2
   1  -3  -8 2609.61 250.643   5
   1  -3  -8 2594.59 303.883   2
   1   3  -8 2737.18 238.349   6
  -1  -3  -8 2424.34 343.434   2
  -1  -3  -7 18700.5 748.216   5
  -1   3  -7 20154.0 911.540   5
   1   3  -7 19242.3 646.406   6
  -1  -3  -7 19746.9 912.329   2
   1   3  -7 18195.7 770.342   5
   1  -3  -7 18874.2 693.365   5
  -1  -3  -6 2926.22 300.505   5
  -1   3  -6 2954.39 337.930   5
   1   3  -6 2697.53 279.201   5
   1   3  -6 3003.54 249.795   6
  -1  -3  -6 2790.06 339.780   2
   1  -3  -6 3262.67 279.868   5
  -1   3  -5 23372.4 967.873   5
  -1  -3  -5 23899.7 908.265   5
  -1   3  -5 26328.3 1248.54   1
   1  -3  -5 23946.8 821.996   2
   1   3  -5 21640.5 836.156   5
   1  -3  -5 24293.5 826.358   5
   1   3  -5 22811.4 739.044   6
   1  -3  -4 2175.85 225.149   2
   1   3  -4 2191.28 244.064   5
   1   3  -4 2017.92 201.372   6
   1  -3  -4 1947.22 226.116   5
  -1   3  -4 2294.90 293.681   5
  -1   3  -4 2099.31 339.529   1
  -1   3  -3 13162.9 843.095   1
   1  -3  -3 11250.2 556.604   5
  -1   3  -3 10975.1 624.331   5
   1   3  -3 10398.3 540.417   5
   1   3  -3 11094.2 504.782   6
   1  -3  -3 11669.4 504.398   2
   1  -3  -2 1188.85 173.683   5
  -1   3  -2 1191.50 235.919   1
   1  -3  -2 1094.63 142.428   2
  -1   3  -2 1167.94 190.097   5
   1   3  -2 892.138 150.693   5
   1   3  -1 1162.70 174.940   5
  -1   3  -1 1193.80 187.988   5
   1  -3  -1 1175.79 132.202   2
  -1   3  -1 1211.32 236.065   1
   1   3  -1 1081.85 165.505   2
   1   3   0 34.6322 45.1918   2
   1  -3   0-8.98419 13.6791   2
   1   3   0 102.672 54.9166   5
  -1   3   0 63.6907 41.9552   5
  -1   3   1 1788.28 216.903   5
   1   3   1 1950.16 220.438   5
   1   3   1 1918.09 240.405   2
   1   3   2 1032.05 160.427   5
   1   3   2 1262.26 196.648   2
   1  -3   2 1029.15 142.363   6
  -1   3   2 935.177 161.978   5
   1   3   3 10486.4 611.584   2
   1   3   3 10244.7 509.506   5
  -1   3   3 9565.63 488.221   5
   1  -3   3 10125.1 451.182   6
   1  -3   4 2324.98 204.855   6
  -1   3   4 2109.29 216.738   5
   1   3   4 1971.91 298.059   2
   1   3   4 2111.13 225.686   5
  -1   3   5 23375.3 765.847   5
  -1  -3   5 24531.3 788.279   6
   1  -3   5 23520.0 673.270   6
   1   3   5 23216.3 770.232   5
   1   3   5 23548.8 1053.47   2
   1   3   6 3996.36 281.338   5
   1  -3   6 3524.66 380.024   5
   1   3   6 3800.15 417.388   2
   1  -3   6 3566.50 231.060   6
  -1  -3   6 4074.97 299.947   6
  -1   3   6 3739.73 287.218   5
   1   3   7 19520.9 640.643   5
   1  -3   7 18700.2 556.684   6
  -1  -3   7 20512.4 697.159   6
  -1   3   7 18813.7 680.514   5
  -1   3   7 17794.3 635.600   1
  -1   3   8 2025.12 163.292   1
  -1   3   8 2807.08 250.877   5
   1  -3   8 2500.71 179.078   6
   1   3   8 2086.56 250.462   3
  -1  -3   8 2681.99 240.810   6
   1   3   8 2297.74 195.797   5
  -1   3   9 9154.66 484.124   3
   1  -3   9 9520.17 352.060   6
  -1  -3   9 9924.23 471.969   6
   1   3   9 9368.33 381.127   5
  -1   3   9 9906.58 469.297   5
   1   3   9 9401.28 542.543   3
  -1   3  10 391.244 107.856   5
  -1   3  10 480.508 106.579   3
   1   3  10 558.032 88.8884   5
   1  -3  10 469.183 73.1792   6
   1   3  10 476.368 121.494   3
  -1   3  11 492.440 121.538   3
   1   3  11 500.989 83.6154   5
   1   3  11 425.432 118.228   3
  -1   3  11 625.002 124.355   5
   1  -3  11 531.105 85.8671   6
  -1   3  12 256.075 96.1122   3
   1   3  12 157.046 67.8267   3
   1  -3  12 187.168 44.8368   6
   1   3  12 121.851 40.8959   5
  -1   3  13 618.371 143.732   3
   1   3  13 604.525 159.662   3
   1  -3  13 483.053 86.8408   6
   1   3  14 704.869 172.700   3
   1  -3  14 493.615 81.5716   6
  -1   3  14 433.293 125.383   3
   1  -3  15 5210.69 499.393   4
  -1  -3  15 4080.95 392.593   4
  -1   3  15 5374.36 418.179   3
   1   3  15 5083.00 457.355   3
  -1   3  16 666.830 160.276   3
   1   3  16 639.730 172.766   3
  -1  -3  16 691.516 159.940   4
   1  -3  16 507.340 170.853   4
   1  -3  17 10334.5 742.293   4
  -1  -3  17 10935.1 675.993   4
  -1   3  17 11490.4 642.591   3
   1   3  17 11684.4 733.222   3
   1  -3  18 1588.69 300.874   4
   1   3  18 2206.02 322.814   3
  -1  -3  18 2033.15 294.170   4
  -1  -3  19 11576.5 736.417   4
   1  -3  19 9515.86 754.760   4
   1   3  19 10581.0 737.988   3
  -1  -3  20 1093.79 246.161   4
   1  -3  20 1174.74 267.410   4
  -1  -3  21 6275.01 581.486   4
   1  -3  21 5131.73 575.869   4
   1  -3  22 499.731 209.321   4
   1  -3  23 287.814 135.494   4
   1  -3  24 311.702 157.479   4
   1   4 -24 2316.12 360.352   5
   1   4 -23 9.31062 122.216   5
   1   4 -22 2540.99 385.592   5
  -1   4 -22 3375.42 491.130   5
   1  -4 -22 2711.86 359.283   6
   1  -4 -22 3442.10 611.908   2
   1   4 -21 875.687 234.360   5
  -1  -4 -21 1130.34 326.326   2
  -1   4 -21 1004.36 250.040   5
   1  -4 -21 915.010 323.803   2
  -1  -4 -20 1319.48 344.343   2
   1   4 -20 1619.36 309.126   5
   1   4 -20 1290.64 192.442   6
  -1   4 -20 1837.55 351.469   5
   1  -4 -20 1329.90 350.074   2
   1   4 -19 97.8843 90.7280   5
  -1   4 -19-177.374 117.457   5
  -1  -4 -19-63.4795 137.946   2
   1   4 -19 24.7169 59.0397   6
   1  -4 -19-71.2849 141.131   2
   1  -4 -18 2212.22 423.362   2
   1   4 -18 2759.88 283.106   6
   1   4 -18 2703.25 402.208   5
  -1  -4 -18 3151.96 504.700   2
  -1   4 -18 3615.99 476.040   5
  -1  -4 -17 1073.86 276.319   2
  -1   4 -17 1651.93 328.641   5
   1   4 -17 978.356 166.954   6
   1   4 -17 933.059 222.487   5
   1  -4 -17 1289.61 331.380   2
  -1  -4 -16 2468.46 429.494   2
   1  -4 -16 2536.66 419.839   2
   1   4 -16 2633.33 391.081   5
  -1   4 -16 3215.66 439.059   5
   1   4 -16 2856.55 283.584   6
   1   4 -15 1473.91 203.222   6
  -1  -4 -15 1902.59 378.851   2
   1  -4 -15 1856.58 348.019   2
  -1   4 -15 2173.81 352.556   5
  -1   4 -15 1100.33 188.876   2
   1   4 -15 1561.63 287.125   5
   1   4 -14 5017.81 507.244   5
  -1   4 -14 3875.37 336.996   2
  -1   4 -14 6152.18 591.555   5
   1   4 -14 4859.30 373.320   6
   1  -4 -14 5411.90 569.812   2
  -1  -4 -14 4918.45 603.220   2
  -1   4 -13 754.705 182.463   5
   1   4 -13 562.384 136.878   6
   1   4 -13 840.237 201.999   5
  -1   4 -13 362.396 89.9189   2
   1  -4 -13 677.607 199.213   2
  -1  -4 -13 613.811 212.013   2
  -1   4 -12 8329.07 665.764   5
   1   4 -12 6651.05 562.582   5
  -1  -4 -12 8281.62 525.336   5
   1   4 -12 6986.15 442.779   6
  -1  -4 -12 7426.00 686.945   2
   1  -4 -12 6897.93 592.834   2
  -1  -4 -11 854.801 167.142   5
  -1  -4 -11 511.426 212.876   2
   1   4 -11 1130.22 228.158   5
  -1   4 -11 1037.63 224.258   5
   1  -4 -11 834.664 207.410   2
   1   4 -11 1099.46 170.535   6
  -1   4 -11 508.467 74.8504   2
  -1  -4 -10 6307.53 463.126   5
  -1   4 -10 6274.24 573.160   5
   1  -4 -10 5546.39 500.764   2
   1   4 -10 5899.62 402.419   6
  -1  -4 -10 6675.54 609.576   2
   1   4 -10 5663.82 505.993   5
  -1  -4  -9 2303.84 289.120   5
   1   4  -9 1894.51 282.090   5
  -1   4  -9 1831.30 294.061   5
   1   4  -9 2160.69 244.922   6
  -1  -4  -9 2211.23 360.230   2
   1  -4  -9 2047.92 306.617   2
  -1   4  -8 2611.15 349.711   5
  -1  -4  -8 2228.82 285.882   5
   1   4  -8 2289.09 309.578   5
   1  -4  -8 2624.40 332.911   2
   1   4  -8 2125.48 241.080   6
  -1  -4  -8 1831.00 327.424   2
   1   4  -7 468.233 105.003   6
  -1   4  -7 578.846 176.389   5
   1   4  -7 405.603 132.890   5
  -1  -4  -7 375.253 129.067   5
   1  -4  -7 463.746 128.530   2
  -1  -4  -7 544.866 171.097   2
  -1   4  -6 6022.15 530.658   5
  -1  -4  -6 6267.63 509.485   5
  -1  -4  -6 5262.03 488.619   2
   1   4  -6 5271.50 387.225   6
   1   4  -6 4878.65 439.598   5
   1   4  -5 1831.94 259.988   5
  -1   4  -5 1766.05 279.176   5
   1   4  -4 3392.39 348.399   5
   1   4  -4 3046.95 294.999   2
   1  -4  -4 4047.56 331.710   2
  -1   4  -4 3527.97 391.086   5
  -1   4  -3 3702.05 397.229   5
   1   4  -3 3526.90 318.261   2
   1  -4  -3 4503.37 335.533   2
   1   4  -3 4030.02 378.261   5
  -1   4  -2 10120.7 652.672   5
   1   4  -2 10307.6 610.438   5
   1   4  -2 10414.2 565.956   2
   1  -4  -2 8782.33 512.765   2
   1   4  -1 1215.18 194.095   2
  -1   4  -1 1091.37 203.966   5
   1   4  -1 1011.76 189.817   5
  -1   4   0 16075.6 799.801   5
   1   4   0 15510.8 734.883   5
   1   4   0 14943.8 709.674   2
  -1   4   1 1061.94 202.993   5
   1  -4   1 1191.86 195.773   6
   1   4   1 1202.73 195.320   5
   1   4   1 1064.19 194.876   2
  -1   4   2 10749.8 637.899   5
   1   4   2 10248.8 592.093   5
   1  -4   2 10671.7 559.432   6
   1   4   2 11249.8 656.293   2
  -1   4   3 3766.89 365.380   5
   1   4   3 4554.34 432.921   2
   1  -4   3 3858.04 319.556   6
   1   4   3 4139.87 370.490   5
   1   4   4 3660.62 341.263   5
   1  -4   4 3969.46 316.806   6
   1   4   4 4246.71 430.560   2
  -1   4   4 3741.41 354.501   5
   1   4   5 1760.07 236.295   5
  -1   4   5 1967.90 247.291   5
  -1   4   6 4733.32 380.057   5
   1   4   6 5267.20 389.646   5
  -1   4   7 596.330 146.395   5
   1   4   7 414.182 104.875   5
   1   4   8 2251.41 242.582   5
  -1   4   8 2136.12 279.692   1
  -1   4   8 2171.30 253.402   5
   1   4   9 1758.00 264.489   3
  -1   4   9 1285.14 180.948   1
  -1   4   9 1942.41 240.433   5
   1   4   9 2327.77 239.928   5
  -1   4  10 6110.76 432.301   5
   1   4  10 5919.39 495.987   3
   1   4  10 6567.18 384.433   5
  -1   4  10 5406.02 442.693   3
   1   4  11 935.164 144.952   5
  -1   4  11 958.733 176.002   5
  -1   4  11 780.077 170.190   3
   1   4  11 757.086 190.722   3
   1   4  12 7441.22 577.473   3
  -1   4  12 6435.95 502.994   3
  -1   4  12 7993.96 506.258   5
   1   4  12 7753.62 418.291   5
   1   4  13 548.692 153.984   3
  -1   4  13 756.425 166.792   5
  -1   4  13 514.715 133.500   3
   1   4  13 705.353 125.750   5
  -1   4  14 5478.14 466.539   3
   1   4  14 6278.11 363.040   5
   1   4  14 5617.39 519.730   3
  -1   4  15 1796.85 277.438   3
   1   4  15 2122.68 327.881   3
   1   4  16 2919.22 395.348   3
  -1   4  16 2517.83 329.921   3
   1   4  17 1381.34 277.780   3
  -1  -4  17 1083.97 232.492   4
  -1   4  17 952.528 206.764   3
   1  -4  17 962.268 245.954   4
  -1  -4  18 2876.48 386.298   4
   1  -4  18 2608.27 414.085   4
   1   4  18 3426.52 445.232   3
  -1   4  18 3516.24 402.294   3
  -1   4  19 292.967 135.775   3
   1   4  19 77.6765 109.811   3
  -1  -4  19 103.019 74.3685   4
   1  -4  19 143.919 120.629   4
  -1   4  20 1776.42 290.909   3
   1   4  20 2082.08 367.519   3
   1  -4  20 1412.03 323.235   4
   1   4  21 1139.94 257.156   3
   1  -4  21 966.696 273.746   4
   1  -4  22 2916.12 458.237   4
   1  -4  23 498.966 203.529   4
  -1   5 -21 1254.31 307.411   5
  -1   5 -20 143.049 100.488   5
   1   5 -20 339.302 191.787   5
   1  -5 -20 613.468 263.941   2
  -1  -5 -19 501.041 215.594   2
   1   5 -19 567.401 218.035   5
  -1   5 -19 701.064 222.555   5
   1  -5 -19 736.105 263.794   2
  -1  -5 -18 178.001 179.136   2
   1   5 -18 253.546 141.491   5
  -1   5 -18-49.6244 155.481   5
   1   5 -18-62.2293 61.6864   6
   1  -5 -18-116.228 96.8163   2
  -1  -5 -17 953.048 285.536   2
   1   5 -17 257.798 88.4546   6
  -1   5 -17 527.576 194.144   5
   1   5 -17 669.967 241.127   5
   1  -5 -17 280.368 131.071   2
  -1  -5 -16 615.494 253.558   2
   1   5 -16 743.215 234.362   5
   1   5 -16 733.524 163.274   6
  -1   5 -16 1035.96 245.523   5
   1  -5 -16 1090.45 266.579   2
   1   5 -15 3106.36 431.925   5
  -1  -5 -15 3673.97 544.553   2
   1   5 -15 2230.61 283.725   6
  -1   5 -15 3619.15 480.454   5
   1  -5 -15 2723.84 448.526   2
  -1  -5 -14 2358.43 436.168   2
   1   5 -14 2166.35 279.135   6
  -1   5 -14 3143.09 447.526   5
   1   5 -14 2257.93 369.254   5
   1  -5 -14 1869.26 349.052   2
  -1   5 -13 5416.99 590.177   5
   1   5 -13 5585.12 574.195   5
   1  -5 -13 4773.15 546.949   2
   1   5 -13 5203.09 433.987   6
  -1  -5 -13 5657.60 645.217   2
  -1  -5 -12 574.139 221.653   2
   1   5 -12 782.873 224.122   5
   1  -5 -12 928.344 237.826   2
  -1   5 -12 846.393 230.531   5
  -1   5 -11 7566.11 668.501   5
   1   5 -11 5665.80 568.936   5
  -1  -5 -11 5531.90 643.192   2
   1  -5 -11 6208.47 582.684   2
  -1   5 -10 3202.88 437.670   5
   1   5 -10 2822.61 390.524   5
  -1  -5 -10 2372.41 389.294   2
   1  -5 -10 2730.42 386.903   2
  -1   5  -9 3842.88 476.125   5
   1   5  -9 3216.88 417.446   5
   1  -5  -9 4207.21 447.781   2
  -1  -5  -9 3981.59 485.576   2
   1  -5  -8 665.167 187.954   2
  -1  -5  -8 557.982 183.529   2
   1   5  -8 697.175 194.200   5
  -1   5  -8 838.140 211.278   5
  -1   5  -7 1646.14 305.809   5
   1   5  -7 845.177 153.594   2
   1   5  -7 1716.78 292.155   5
   1  -5  -7 1763.45 274.964   2
   1  -5  -6 307.428 117.034   2
  -1   5  -6 344.853 125.416   5
   1   5  -6 105.149 51.2818   2
   1   5  -6 332.754 124.167   5
   1   5  -5 331.799 91.3816   2
  -1   5  -5 215.259 116.466   5
   1   5  -4 772.177 140.498   2
   1   5  -4 702.691 193.899   5
  -1   5  -4 522.494 164.097   5
   1   5  -3 5699.18 496.349   5
  -1   5  -3 4838.12 506.792   5
   1   5  -3 4537.12 378.796   2
   1   5  -2 2692.15 292.702   2
  -1   5  -2 3025.96 379.949   5
   1   5  -2 2805.97 357.770   5
   1   5  -1 6676.95 535.563   5
  -1   5  -1 6888.40 574.279   5
   1   5  -1 6184.11 463.269   2
   1   5   0 1383.48 223.056   2
  -1   5   0 1360.91 253.187   5
   1   5   0 1453.89 249.049   5
  -1   5   1 6964.93 570.789   5
   1   5   1 6862.08 540.348   5
   1   5   1 7377.96 534.594   2
  -1   5   2 2441.95 336.080   5
   1   5   2 2555.17 324.328   5
   1   5   3 5572.12 475.887   5
  -1   5   3 5104.57 486.927   5
   1   5   4 580.099 155.734   5
  -1   5   4 688.018 175.605   5
  -1   5   5 364.700 148.100   5
   1   5   5 337.117 112.239   5
  -1   5   6 338.099 141.546   5
   1   5   6 288.049 100.155   5
   1   5   7 1379.85 222.155   5
  -1   5   7 1338.03 240.472   5
  -1   5   8 954.907 200.976   5
   1   5   8 848.907 168.298   5
  -1   5   9 3008.15 341.714   5
   1   5   9 3612.47 350.054   5
   1   5  10 2055.35 326.128   3
   1   5  10 2495.41 278.911   5
  -1   5  10 2723.50 324.271   5
   1   5  11 4425.03 504.415   3
  -1   5  11 4715.81 492.994   3
   1   5  11 6121.57 433.801   5
  -1   5  11 5765.87 481.074   5
   1   5  12 856.678 168.002   5
   1   5  12 376.308 135.018   3
  -1   5  12 591.977 171.973   3
  -1   5  12 921.072 202.074   5
  -1   5  13 4541.05 482.719   3
   1   5  13 4129.50 495.061   3
   1   5  13 6422.58 439.641   5
  -1   5  13 5843.42 486.197   5
  -1   5  14 1234.49 264.131   3
   1   5  14 1786.26 316.471   3
  -1   5  14 1923.15 286.946   5
  -1   5  15 2306.98 339.639   3
   1   5  15 2633.09 401.798   3
   1   5  16 643.709 203.002   3
  -1   5  16 478.110 174.442   3
  -1   5  17 608.466 171.462   3
   1   5  17 560.516 177.374   3
   1   5  18 121.286 101.443   3
  -1   5  18-16.8861 129.102   3
   1   5  19 639.598 234.058   3
   1  -5  19 568.511 238.872   4
  -1   5  19 245.480 146.736   3
  -1   5  20 352.918 187.626   3
   1   5  20 475.649 196.164   3
   1  -5  20 309.798 170.019   4
   1  -5  21 861.328 276.060   4
   1  -6 -18 1354.27 327.114   2
   1  -6 -17 1258.88 334.823   2
  -1  -6 -17 1852.92 429.091   2
   1  -6 -16 986.384 291.273   2
  -1  -6 -16 1440.12 408.375   2
  -1   6 -16 878.476 292.363   5
   1  -6 -15 867.260 292.702   2
  -1  -6 -15 1317.47 343.320   2
  -1   6 -15 889.251 253.996   5
   1   6 -15 1204.42 289.757   5
  -1   6 -14 319.547 180.130   5
   1  -6 -14 153.777 95.7538   2
   1   6 -14-40.2606 75.3895   5
  -1  -6 -14 344.776 175.459   2
   1  -6 -13-25.2316 109.269   2
  -1  -6 -13-85.2162 154.469   2
  -1   6 -13 142.725 92.9282   5
   1   6 -13 229.803 161.745   5
   1  -6 -12 483.717 200.681   2
  -1   6 -12 448.404 164.136   5
   1   6 -12 525.473 191.659   5
   1  -6 -11 293.257 134.561   2
   1   6 -11 187.478 87.7023   5
  -1   6 -11 266.688 138.292   5
   1   6 -10 686.516 221.028   5
  -1   6 -10 519.053 192.221   5
   1  -6 -10 386.308 152.515   2
  -1   6  -9 1638.41 332.651   5
   1   6  -9 1870.46 342.142   5
   1  -6  -9 1373.73 280.017   2
   1   6  -8 3038.09 423.924   5
  -1   6  -8 2900.10 421.755   5
   1  -6  -8 2555.91 371.361   2
  -1   6  -7 4716.34 528.723   5
   1  -6  -7 3982.34 431.119   2
   1   6  -7 3666.57 472.069   5
   1   6  -6 2878.99 402.630   5
  -1   6  -6 2693.71 399.561   5
  -1   6  -5 4275.02 494.865   5
   1   6  -5 3957.08 473.786   5
  -1   6  -4 2083.16 352.425   5
   1   6  -4 2438.45 362.920   5
  -1   6  -3 1793.63 322.170   5
   1   6  -3 1419.01 276.836   5
  -1   6  -2 252.953 109.989   5
   1   6  -2-21.9444 57.0383   5
   1   6  -1 111.124 85.4330   5
  -1   6  -1 194.966 96.0966   5
   1   6   0 507.002 145.934   5
  -1   6   0 470.686 181.572   5
  -1   6   1 205.583 156.401   5
   1   6   1 317.647 134.212   5
  -1   6   2 101.293 105.292   5
   1   6   2 412.227 171.820   5
  -1   6   3 1296.87 262.822   5
   1   6   3 1417.36 261.862   5
   1   6   4 2999.81 375.074   5
  -1   6   4 2597.02 393.122   5
   1   6   5 3635.54 416.165   5
  -1   6   5 3761.02 442.732   5
   1   6   6 2655.26 352.383   5
  -1   6   6 3096.70 393.583   5
   1   6   7 3332.95 386.858   5
  -1   6   7 4258.16 463.192   5
  -1   6   8 2109.16 330.035   5
   1   6   8 2569.69 331.911   5
  -1   6   9 1446.25 267.722   5
   1   6   9 1653.96 258.832   5
  -1   6  10 588.193 183.601   5
   1   6  10 509.793 137.545   5
   1   6  10 459.364 157.049   3
  -1   6  11 337.204 135.738   5
   1   6  11 244.092 76.3238   5
   1   6  11 233.239 140.131   3
  -1   6  11 10.9746 54.5090   3
   1   6  12 417.539 191.029   3
  -1   6  12 155.804 132.625   3
  -1   6  12 151.028 99.9796   5
  -1   6  13 54.4680 52.2303   5
   1   6  13 244.074 181.857   3
  -1   6  13-16.2946 123.450   3
  -1   6  14 221.369 123.112   5
  -1   6  14 89.1249 133.513   3
  -1   6  15 173.509 118.894   3
   1   6  15 976.664 301.719   3
  -1   6  16 1130.31 278.402   3
   1   6  16 1283.86 350.466   3
  -1   6  17 1772.62 337.343   3
  -1   7  -8 1076.98 294.887   5
   1   7  -8 1447.61 317.447   5
  -1   7  -7 719.347 238.487   5
   1   7  -7 449.873 191.719   5
  -1   7  -6 1046.58 253.613   5
   1   7  -6 976.380 253.052   5
  -1   7  -5 921.782 246.711   5
   1   7  -5 1026.78 260.670   5
   1   7  -4 1467.27 315.823   5
  -1   7  -4 1374.76 311.392   5
   1   7  -3 515.254 187.020   5
  -1   7  -3 942.151 260.834   5
   1   7  -2 1422.09 291.274   5
  -1   7  -2 2468.42 396.562   5
  -1   7  -1 190.746 120.617   5
   1   7  -1 284.967 160.553   5
   1   7   0 2592.82 390.139   5
  -1   7   0 2316.90 396.505   5
  -1   7   1 293.067 171.230   5
   1   7   1 371.122 154.310   5
  -1   7   2 1813.10 342.490   5
   1   7   2 1477.97 296.238   5
  -1   7   3 485.347 189.935   5
   1   7   3 567.027 180.340   5
   1   7   4 1477.84 314.762   5
  -1   7   4 906.061 239.853   5
  -1   7   5 648.198 217.251   5
   1   7   5 923.925 245.074   5
  -1   7   6 658.391 177.137   5
   1   7   6 623.672 196.290   5
   1   7   7 788.474 198.209   5
  -1   7   7 414.191 174.761   5
  -1   7   8 750.156 229.372   5
   1   7   8 1020.64 241.426   5
   1   7   9-8.51728 101.207   5
  -1   7   9 311.834 139.213   5
   1   7  10 1017.54 277.390   3
  -1   7  10 919.351 237.511   5
  -1   7  11 426.462 175.345   3
  -1   7  11 381.438 149.998   5
  -1   7  12 976.587 258.065   5
  -1   7  12 967.843 280.625   3
  -1   7  13 278.358 168.580   3
   2   0 -27-15.5924 63.7766   6
   2   0 -26 4622.83 456.585   6
  -2   0 -26 4654.59 828.639   2
  -2   0 -25 553.447 283.380   2
   2   0 -25 8.96712 68.8957   6
  -2   0 -24 10894.6 1190.86   2
   2   0 -24 9160.29 609.293   6
   2   0 -23 105.223 86.4040   6
  -2   0 -23 538.681 260.886   2
   2   0 -22 6743.23 505.382   6
  -2   0 -22 6786.36 873.244   2
   2   0 -21 85.0974 65.4656   6
  -2   0 -21 462.738 224.479   2
   2   0 -20 4250.64 386.580   6
  -2   0 -20 3930.85 608.680   2
  -2   0 -20 4899.15 304.361   6
  -2   0 -19 120.587 175.908   2
   2   0 -19-25.9738 59.1459   6
  -2   0 -19 26.6132 54.2161   6
  -2   0 -18 1190.73 144.969   6
   2   0 -18 1032.68 182.531   6
  -2   0 -18 1099.63 313.513   2
   2   0 -17-48.0118 46.2590   1
   2   0 -17 82.0798 63.6259   6
  -2   0 -17-1.95296 34.0490   6
  -2   0 -17-31.7658 68.0588   2
   2   0 -16 7425.42 460.461   6
  -2   0 -16 7992.17 358.703   6
   2   0 -16 7247.43 459.578   1
  -2   0 -16 6690.30 709.158   2
   2   0 -16 6732.23 382.854   3
   2   0 -15 42.8759 42.3195   1
   2   0 -15 56.9821 52.5846   6
  -2   0 -15-14.6916 52.4348   2
  -2   0 -15 19.1863 35.3376   6
  -2   0 -14 9156.96 772.576   2
   2   0 -14 9191.55 483.411   6
   2   0 -14 6780.21 384.353   1
  -2   0 -14 9305.05 349.009   6
  -2   0 -14 6775.94 166.029   5
   2   0 -13 31.9027 28.2405   3
  -2   0 -13 16.9078 11.1499   5
   2   0 -13 40.2619 44.0829   4
   2   0 -13-35.1889 34.8759   6
  -2   0 -13 0.55100 38.0447   2
  -2   0 -12 32791.1 1394.26   2
   2   0 -12 34491.1 955.956   6
   2   0 -12 28722.2 778.787   4
   2   0 -12 35161.0 787.662   3
  -2   0 -12 30746.7 507.918   5
   2   0 -11 32.5924 27.4670   3
  -2   0 -11-2.48471 12.6456   5
  -2   0 -11-47.7883 50.4095   2
   2   0 -11 0.12403 18.2596   4
   2   0 -11 19.7898 28.2718   6
   2   0 -10 9875.90 332.997   3
  -2   0 -10 10331.7 704.777   2
   2   0 -10 10950.2 469.671   6
   2   0 -10 9466.69 352.396   4
  -2   0 -10 10187.6 224.415   5
  -2   0  -9 2.77653 61.8118   2
   2   0  -9 30.0066 20.6077   3
  -2   0  -9 9.31504 11.1625   5
   2   0  -9-27.5777 34.3294   6
   2   0  -9-7.25341 17.5028   4
  -2   0  -8 8025.70 563.759   2
  -2   0  -8 8172.90 286.958   6
   2   0  -8 6672.68 244.727   4
   2   0  -8 7675.96 370.136   6
  -2   0  -8 8033.75 198.379   5
  -2   0  -7 26.0427 31.8653   2
  -2   0  -7 4.44799 7.65155   5
  -2   0  -7 8.94584 16.6337   6
   2   0  -7 5.33130 11.1242   4
   2   0  -7 50.5114 37.2777   6
   2   0  -6 5767.24 289.082   6
  -2   0  -6 5375.15 180.932   6
  -2   0  -6 5152.31 402.960   2
  -2   0  -6 5203.11 167.988   5
  -2   0  -5-13.8766 28.9668   3
  -2   0  -5-8.98690 31.6048   2
  -2   0  -5 12.4351 9.79695   6
   2   0  -5-8.93863 22.7733   6
   2   0  -4 7077.67 294.515   6
  -2   0  -4 6779.66 207.261   6
  -2   0  -4 6908.28 289.553   3
  -2   0  -3 30.4105 22.0639   3
  -2   0  -3 15.6606 11.8467   6
   2   0  -3-1.94528 16.4154   6
  -2   0  -2 34585.0 631.664   6
   2   0  -2 35505.4 709.827   6
  -2   0  -2 37635.0 700.032   3
   2   0  -1 0.32603 9.21153   3
  -2   0  -1 7.18188 10.8151   3
   2   0  -1 0.51836 16.4734   6
  -2   0  -1 1.94732 13.8134   6
  -2   0   0 48194.4 804.716   3
  -2   0   0 43490.3 864.238   6
   2   0   0 48227.0 791.757   3
   2   0   0 48253.6 855.253   6
   2   0   0 47826.2 878.306   4
   2   0   1-0.77503 10.0881   3
   2   0   1 10.4226 19.5144   5
  -2   0   1-4.46396 16.1695   6
   2   0   1-2.35979 17.5670   6
   2   0   1-2.17652 19.8437   4
   2   0   2 36672.1 679.792   6
   2   0   2 38026.9 818.740   4
   2   0   2 35696.1 688.493   5
   2   0   2 38041.3 727.081   3
   2   0   3 10.9077 21.2303   3
   2   0   3 27.9320 40.7199   2
   2   0   3 11.3680 14.6364   5
   2   0   3 26.5994 20.7858   6
   2   0   3 26.7563 31.2676   4
   2   0   4 5663.65 210.245   6
   2   0   4 6338.12 396.872   2
   2   0   4 6495.85 320.080   4
   2   0   4 6105.48 212.762   5
   2   0   5 46.8568 48.9129   2
   2   0   5 31.9212 13.9455   5
   2   0   5 23.4288 40.3955   4
   2   0   6 6289.54 226.888   5
   2   0   6 6506.82 431.108   2
   2   0   6 7230.65 375.746   4
   2   0   7-2.33958 19.9057   5
   2   0   7 2.45278 23.6541   4
   2   0   7 26.8361 24.8854   2
   2   0   8 7590.75 499.045   2
   2   0   8 7528.28 423.489   4
   2   0   9 33.1783 60.7565   2
   2   0   9-35.9417 47.2193   4
   2   0  10 14806.3 663.954   4
   2   0  11 23.7594 44.5858   4
   2   0  11 60.1622 61.8148   1
   2   0  12 35921.1 1136.56   1
   2   0  13 11.9974 44.9391   1
   2   0  14 12783.9 695.012   1
   2   0  15 47.9216 86.6206   1
   2   0  16 6696.74 547.462   1
   2   0  17-71.6223 102.484   1
   2   0  18 1644.23 294.826   1
  -2   1 -26 973.834 379.864   2
   2   1 -26 1438.83 257.562   6
   2  -1 -26 855.258 177.570   6
  -2   1 -25 2379.52 573.955   2
  -2  -1 -25 2273.44 539.247   2
   2   1 -25 2345.72 305.748   6
   2  -1 -25 2263.15 303.635   6
  -2  -1 -24 2439.52 551.589   2
   2   1 -24 2445.64 319.798   6
   2  -1 -24 2020.12 295.382   6
  -2   1 -24 1527.22 444.918   2
   2   1 -23 1737.02 267.108   6
  -2  -1 -23 2198.41 492.079   2
   2  -1 -23 1498.50 247.620   6
  -2   1 -23 2001.15 488.406   2
  -2  -1 -22 1053.83 333.693   2
  -2  -1 -22 962.706 151.846   6
   2   1 -22 1045.68 193.261   6
  -2   1 -22 997.105 322.822   2
   2  -1 -22 986.242 195.907   6
   2  -1 -21 9823.63 619.024   6
  -2  -1 -21 10790.9 1036.21   2
   2   1 -21 10717.5 629.784   6
  -2  -1 -21 10378.8 538.532   6
  -2   1 -21 9347.38 1002.22   2
   2  -1 -20 6722.57 496.598   6
   2   1 -20 6785.66 494.565   6
  -2  -1 -20 7198.75 431.878   6
  -2  -1 -20 7204.30 825.127   2
  -2   1 -20 7088.10 843.873   2
   2  -1 -19 5459.64 445.804   6
  -2  -1 -19 6506.45 752.254   2
  -2   1 -19 5545.95 710.426   2
  -2   1 -19 5647.64 335.658   5
   2   1 -19 6244.45 454.245   6
  -2  -1 -19 6365.20 386.872   6
   2   1 -18 546.479 141.982   6
  -2  -1 -18 335.036 180.776   2
  -2   1 -18 417.626 99.2720   5
  -2   1 -18 577.012 223.136   2
  -2   1 -18 434.959 62.3825   6
   2  -1 -18 513.141 140.138   6
  -2   1 -17 12351.2 513.030   5
  -2   1 -17 11538.1 958.582   2
  -2  -1 -17 13878.3 1046.87   2
  -2   1 -17 11640.1 337.204   6
   2   1 -17 13331.6 627.986   6
   2  -1 -17 13124.7 656.466   6
  -2   1 -16 13718.0 547.616   5
   2  -1 -16 12566.5 624.714   4
  -2   1 -16 13079.4 346.731   6
   2  -1 -16 15288.9 701.438   6
  -2  -1 -16 15888.7 1089.92   2
  -2   1 -16 13049.4 982.195   2
   2   1 -16 15094.4 655.854   6
  -2   1 -15 6088.51 350.148   5
   2  -1 -15 6312.34 439.883   6
  -2   1 -15 5928.71 626.566   2
   2  -1 -15 5744.69 405.825   4
  -2  -1 -15 6792.38 684.035   2
  -2   1 -15 5923.50 203.318   6
   2   1 -15 6973.29 420.594   6
  -2   1 -14 6988.12 359.408   5
   2  -1 -14 7595.67 359.031   3
  -2  -1 -14 7210.08 683.225   2
  -2   1 -14 6318.00 181.386   6
   2  -1 -14 5826.10 379.438   4
   2   1 -14 7030.96 402.471   6
   2  -1 -14 6894.93 445.014   6
  -2   1 -14 6670.82 636.407   2
  -2   1 -13 8706.02 393.943   5
   2  -1 -13 9461.85 381.413   3
  -2  -1 -13 9241.73 750.448   2
   2   1 -13 9401.39 449.216   6
  -2   1 -13 8642.59 194.659   6
   2  -1 -13 9900.64 521.626   6
  -2   1 -13 8122.53 678.516   2
  -2   1 -12 14965.0 519.692   5
  -2   1 -12 14509.7 873.534   2
  -2   1 -12 14864.4 258.658   6
   2  -1 -12 17060.5 676.367   6
   2   1 -12 16014.9 587.056   6
  -2  -1 -12 16953.5 996.191   2
  -2   1 -11 5210.43 293.717   5
  -2  -1 -11 5214.75 535.983   2
   2  -1 -11 3538.69 162.096   1
   2   1 -11 5457.87 323.352   6
  -2   1 -11 5478.96 494.629   2
   2  -1 -11 5406.54 371.333   6
   2  -1 -11 5379.43 308.538   5
  -2   1 -10 8669.94 377.268   5
   2  -1 -10 9211.81 479.956   6
  -2   1 -10 9645.74 635.668   2
  -2  -1 -10 8895.87 682.628   2
  -2   1 -10 9618.87 475.072   1
   2   1 -10 8940.97 413.130   6
   2  -1 -10 9136.81 401.019   5
  -2   1  -9 32260.4 791.300   5
  -2  -1  -9 32169.4 1297.57   2
   2  -1  -9 35331.5 967.287   6
   2   1  -9 31834.2 838.788   6
  -2   1  -9 33822.4 943.771   1
  -2   1  -9 33112.2 1183.11   2
   2  -1  -9 32869.1 826.225   5
  -2  -1  -8 45840.4 1126.73   6
   2   1  -8 43119.0 992.459   6
   2  -1  -8 43134.3 976.776   5
  -2   1  -8 46182.1 1313.90   2
  -2   1  -8 45041.1 1097.27   1
   2  -1  -8 47184.6 1124.38   6
  -2   1  -8 43430.7 944.564   5
  -2   1  -7 38334.3 1111.32   2
  -2   1  -7 37893.5 967.017   1
  -2   1  -7 37521.6 842.621   5
   2   1  -7 36462.8 881.571   6
   2  -1  -7 39320.5 983.769   6
  -2  -1  -7 38745.8 985.768   6
   2  -1  -7 38478.2 878.246   5
  -2  -1  -6 6018.86 322.361   6
  -2   1  -6 6406.51 335.499   1
   2   1  -6 5599.83 290.932   6
   2  -1  -6 6406.14 340.443   6
  -2   1  -6 5596.02 350.323   2
  -2   1  -6 5533.10 265.284   5
   2   1  -5 27852.2 696.022   6
   2  -1  -5 27418.3 531.969   1
  -2  -1  -5 29006.0 730.200   6
  -2   1  -5 28943.2 771.507   1
   2  -1  -5 29079.4 769.347   6
  -2   1  -5 28036.8 670.522   5
  -2   1  -4 37850.9 886.655   1
   2  -1  -4 35548.5 669.083   1
   2  -1  -4 37565.4 868.805   6
  -2  -1  -4 36584.7 818.546   6
   2   1  -4 35821.3 799.675   6
  -2   1  -4 36210.6 788.162   5
  -2  -1  -3 37443.8 813.466   6
   2   1  -3 38427.7 824.657   6
   2  -1  -3 36919.8 712.595   1
  -2   1  -3 38918.1 880.416   1
  -2  -1  -3 38387.1 874.831   4
   2  -1  -3 36482.4 847.823   6
  -2   1  -3 38372.2 812.338   5
   2   1  -2 14137.2 438.056   6
  -2  -1  -2 13883.6 429.664   6
   2  -1  -2 14174.6 434.401   6
  -2   1  -2 14286.7 463.832   1
   2  -1  -2 13484.6 382.307   1
  -2  -1  -2 14191.6 456.052   4
  -2   1  -2 14227.6 435.607   5
  -2   1  -1 10033.1 369.322   1
   2   1  -1 9906.49 354.896   6
  -2  -1  -1 10146.9 357.369   6
   2  -1  -1 9607.57 327.978   1
   2  -1  -1 9516.25 328.233   6
  -2   1  -1 10076.1 360.704   5
   2   1   0 18340.2 506.919   6
   2  -1   0 18244.3 497.497   1
   2  -1   0 17894.0 451.034   6
  -2   1   0 18827.1 521.424   5
   2   1   1 5797.25 263.422   6
   2  -1   1 5771.58 213.634   6
   2  -1   1 5604.97 269.644   1
  -2   1   1 6045.25 277.216   5
   2   1   2 12096.7 401.038   3
   2   1   2 12257.5 408.236   6
   2  -1   2 13335.5 436.086   5
   2  -1   2 11958.6 303.498   6
  -2   1   2 12000.1 415.845   5
   2   1   2 11877.4 562.208   2
   2  -1   3 42934.5 911.255   5
   2   1   3 39958.6 880.227   3
   2   1   3 39230.1 885.400   6
   2  -1   3 40606.1 664.625   6
   2   1   3 39695.6 1171.23   2
   2  -1   3 40953.0 958.501   2
  -2   1   3 41508.6 884.705   5
   2  -1   4 42534.9 630.646   6
   2  -1   4 44751.8 953.486   5
   2  -1   4 42288.2 1011.55   2
   2   1   4 43897.3 1283.15   2
   2   1   4 42394.6 922.705   3
   2  -1   5 22375.4 629.744   5
   2   1   5 21900.8 876.497   2
   2  -1   5 22205.1 675.093   2
   2   1   5 22594.0 614.028   3
   2  -1   6 6068.25 353.012   2
   2   1   6 6128.67 471.111   2
   2  -1   6 5551.46 306.603   5
   2   1   6 6053.56 316.092   3
   2  -1   7 44261.3 1068.47   5
   2   1   7 47135.0 1478.23   2
   2  -1   7 48101.4 1233.99   4
   2   1   7 46096.7 1074.18   3
   2  -1   8 46490.3 1116.57   5
   2  -1   8 49881.3 1295.17   4
   2   1   8 48922.8 1144.67   3
   2   1   8 51550.4 1567.90   2
   2  -1   9 30910.8 857.685   5
   2  -1   9 33043.2 1037.01   4
   2   1   9 33043.4 1251.61   2
   2   1   9 31459.4 895.884   3
   2  -1  10 11577.9 624.404   1
   2  -1  10 13143.5 638.740   4
  -2  -1  10 13175.2 571.255   6
   2   1  10 12853.9 553.629   3
   2  -1  11 9585.29 588.346   1
   2  -1  11 9696.92 562.174   4
   2   1  11 9782.46 493.550   3
   2  -1  12 17464.0 790.595   4
   2   1  12 16820.6 670.838   1
   2  -1  12 17608.4 843.046   1
   2   1  12 17554.6 695.536   3
   2  -1  13 8160.87 545.701   4
   2   1  13 8108.64 477.189   1
   2  -1  13 7558.49 562.950   1
   2   1  14 6611.82 459.027   1
   2  -1  14 6914.93 522.207   4
   2  -1  14 5861.99 521.121   1
   2  -1  15 11066.6 689.211   4
   2  -1  15 10587.4 727.094   1
   2   1  15 11086.9 622.083   1
   2   1  16 18253.8 848.777   1
   2  -1  16 18056.7 922.531   4
   2   1  17 14711.0 789.673   1
   2  -1  17 14771.2 863.006   4
   2  -1  18 600.109 175.636   4
   2   1  18 212.067 82.8281   1
   2   1  19 8768.69 664.410   1
   2   1  20 7427.97 637.651   1
   2   2 -25 274.985 125.387   6
   2  -2 -25 176.785 124.133   6
  -2   2 -24 251.617 172.468   2
  -2  -2 -24 178.213 152.093   2
   2   2 -24 111.561 64.5381   6
   2  -2 -24 251.082 134.380   6
  -2  -2 -23 3262.16 586.634   2
   2   2 -23 3814.92 384.655   6
   2  -2 -23 3214.27 378.971   6
  -2  -2 -23 3249.87 324.484   6
  -2   2 -23 2371.06 492.508   2
  -2  -2 -22 1125.12 345.654   2
  -2  -2 -22 1257.46 204.842   6
   2   2 -22 1162.52 218.074   6
  -2   2 -22 1306.86 382.219   2
   2  -2 -22 879.731 192.565   6
  -2  -2 -21 2282.28 458.497   2
   2   2 -21 2527.05 308.622   6
   2  -2 -21 2031.89 297.524   6
  -2   2 -21 1777.83 399.460   2
  -2  -2 -20 2499.62 476.316   2
  -2   2 -20 2813.05 477.906   2
  -2   2 -20 2017.93 291.488   5
   2   2 -20 2312.84 286.581   6
   2  -2 -20 2240.72 297.031   6
  -2   2 -19 7030.81 550.794   5
   2  -2 -19 7239.52 538.175   6
  -2  -2 -19 8066.39 841.044   2
   2   2 -19 8480.09 515.671   6
  -2   2 -19 8325.78 810.399   2
  -2   2 -18 5117.35 466.709   5
   2   2 -18 5923.94 422.839   6
  -2   2 -18 6569.38 693.003   2
   2  -2 -18 5918.40 471.715   6
  -2  -2 -18 6255.31 714.963   2
  -2   2 -17 1524.89 250.546   5
   2   2 -17 1237.40 184.972   6
   2  -2 -17 1187.00 212.686   6
  -2  -2 -17 1505.44 338.764   2
  -2   2 -17 1489.91 312.018   2
  -2   2 -16 4023.84 401.730   5
   2   2 -16 4673.55 351.495   6
  -2  -2 -16 5190.22 615.606   2
  -2   2 -16 5215.62 566.092   2
   2  -2 -16 4474.83 391.118   6
  -2   2 -15 6001.29 482.817   5
  -2  -2 -15 7139.94 711.722   2
   2  -2 -15 6465.14 472.450   6
  -2   2 -15 7043.74 633.414   2
   2   2 -15 6584.44 407.210   6
  -2   2 -14 4839.73 425.725   5
   2   2 -14 5381.42 362.915   6
  -2   2 -14 5231.31 515.307   2
   2  -2 -14 5042.28 400.637   6
  -2  -2 -14 5878.22 626.397   2
  -2  -2 -13 234.857 134.202   2
  -2   2 -13 151.055 77.9403   5
   2   2 -13 239.593 71.2833   6
   2  -2 -13 223.130 88.3029   6
  -2   2 -13 98.9314 52.4734   2
  -2  -2 -12 1780.77 322.432   2
   2  -2 -12 1666.53 221.282   6
   2   2 -12 1667.89 188.698   6
  -2   2 -12 1327.57 211.988   5
  -2   2 -12 1925.05 276.384   2
  -2   2 -11 9686.44 566.556   5
   2   2 -11 10115.3 468.981   6
  -2  -2 -11 11230.0 803.957   2
   2  -2 -11 10150.7 542.305   6
  -2   2 -11 11575.8 647.154   2
   2   2 -10 4828.04 309.772   6
  -2  -2 -10 5086.36 531.967   2
  -2   2 -10 5571.71 407.612   2
  -2   2 -10 4782.84 380.535   5
  -2   2  -9 5785.91 410.180   5
  -2   2  -9 6200.19 387.832   2
   2   2  -9 5256.57 321.149   6
   2  -2  -9 5964.36 341.950   5
  -2   2  -8 9125.48 497.773   5
  -2  -2  -8 8862.11 523.236   6
  -2   2  -8 9024.50 425.409   2
   2   2  -8 8963.17 414.051   6
   2  -2  -8 9126.95 425.292   5
  -2   2  -7 19310.6 722.069   5
   2   2  -7 19033.4 621.096   6
  -2  -2  -7 19633.7 775.086   6
  -2   2  -7 17480.9 705.950   1
   2  -2  -7 19996.7 640.816   5
  -2   2  -6 11517.6 531.200   5
  -2  -2  -6 13521.0 611.681   6
   2   2  -6 11933.8 476.076   6
  -2   2  -6 10819.2 528.633   1
   2  -2  -6 12053.6 488.805   5
  -2   2  -5 7715.29 417.394   5
   2   2  -5 7392.81 367.673   6
  -2   2  -5 7231.35 412.254   1
  -2  -2  -5 7326.83 440.592   6
  -2  -2  -4 11853.9 536.876   6
  -2   2  -4 11430.4 499.355   5
   2   2  -4 10930.0 452.456   6
  -2   2  -4 10922.2 504.145   1
   2  -2  -3 13518.3 503.775   1
  -2   2  -3 12628.9 520.839   5
  -2   2  -3 12409.5 519.064   1
   2   2  -3 12629.6 484.575   6
  -2  -2  -3 13292.6 557.725   6
   2   2  -2 10401.5 430.679   6
  -2   2  -2 8983.95 421.915   1
   2  -2  -2 9705.69 432.636   1
  -2   2  -2 9945.13 443.125   5
   2   2  -1 1631.02 168.038   6
  -2   2  -1 1252.48 146.234   1
   2  -2  -1 1407.47 162.483   1
  -2   2  -1 1543.79 166.618   5
   2  -2   0 603.504 118.138   1
  -2   2   0 528.021 102.733   5
  -2   2   0 720.001 106.832   1
   2   2   0 693.610 115.593   6
   2   2   1 1841.65 185.979   6
  -2   2   1 1945.62 167.437   1
   2   2   1 1889.53 237.640   2
   2  -2   1 1922.54 203.098   1
  -2   2   1 1968.98 187.178   5
   2   2   2 7676.30 395.684   6
  -2   2   2 7524.51 319.585   1
   2  -2   2 7226.01 413.187   1
   2   2   2 7246.59 497.551   2
  -2   2   2 7765.30 382.518   5
   2  -2   3 13168.0 571.089   5
   2   2   3 14610.7 725.886   2
   2  -2   3 14090.3 400.372   2
  -2   2   3 15334.7 448.242   1
   2  -2   3 15059.8 626.398   1
  -2   2   3 16318.3 570.018   5
   2  -2   4 10201.5 318.450   2
   2   2   4 9431.18 375.385   5
   2   2   4 9226.99 598.113   2
  -2   2   4 9257.63 316.798   1
  -2   2   4 9972.97 449.143   5
   2   2   5 7739.62 416.414   3
   2   2   5 8260.68 347.925   5
   2  -2   5 8485.20 257.468   6
   2   2   5 8163.04 573.155   2
  -2   2   5 8833.45 414.476   5
   2   2   6 11572.0 524.701   3
   2   2   6 12068.8 415.181   5
   2  -2   6 11298.2 261.619   6
   2   2   6 13455.8 763.478   2
  -2   2   6 12827.1 515.146   5
   2   2   7 18661.0 691.847   3
  -2   2   7 18206.8 509.375   3
  -2   2   7 20036.1 664.097   5
   2   2   7 19504.5 506.202   5
   2   2   7 19677.5 980.443   2
  -2  -2   8 10879.2 493.726   6
  -2   2   8 8622.96 334.898   3
   2   2   8 9820.44 490.277   3
   2   2   8 9394.93 279.764   5
   2   2   9 4804.23 144.216   5
  -2   2   9 3896.87 223.807   3
   2   2   9 4458.17 337.567   3
  -2  -2  10 6576.14 319.923   4
  -2   2  10 6166.45 298.271   3
   2   2  10 7544.42 451.754   3
  -2  -2  11 9002.13 392.746   4
  -2   2  11 8876.00 376.131   3
   2   2  11 10531.8 552.644   3
   2   2  12 2199.84 226.912   1
   2  -2  12 2310.04 303.851   4
  -2  -2  12 2014.93 182.816   4
  -2   2  12 1917.55 180.935   3
   2   2  12 2179.32 253.438   3
   2   2  13 894.423 171.548   3
  -2  -2  13 714.995 114.541   4
   2  -2  13 643.448 157.897   4
   2   2  13 767.977 139.016   1
   2  -2  14 4662.07 456.012   4
  -2  -2  14 4237.15 300.816   4
   2   2  14 4668.26 362.152   1
   2   2  14 4838.85 409.413   3
   2  -2  15 8126.96 622.195   4
   2   2  15 8526.78 560.125   3
   2   2  15 8203.46 497.644   1
   2   2  16 5755.62 438.034   1
   2   2  16 5603.20 466.546   3
   2  -2  16 5503.27 521.396   4
   2  -2  17 2394.44 354.255   4
   2   2  17 2739.00 314.099   1
   2   2  18 5774.78 477.910   1
   2  -2  18 5125.69 532.338   4
   2   2  19 11487.9 718.664   1
   2  -2  19 10238.4 785.326   4
   2   2  20 3579.38 408.791   1
   2  -2  20 3547.75 479.189   4
   2  -2  21 1901.74 350.498   4
   2  -2  22 1620.60 342.299   4
   2   3 -25 1389.54 278.075   5
   2   3 -24 7280.48 633.024   5
   2   3 -24 8365.10 582.130   6
   2   3 -23 3192.98 419.929   5
   2   3 -23 3821.82 389.454   6
   2  -3 -23 3270.59 394.616   6
  -2  -3 -22 1314.96 366.043   2
   2   3 -22 1007.59 225.444   5
   2   3 -22 967.805 194.015   6
   2  -3 -22 934.922 330.864   2
   2  -3 -22 710.301 197.075   6
  -2  -3 -21 3600.67 573.286   2
   2   3 -21 3157.06 407.355   5
   2   3 -21 3012.38 331.242   6
   2  -3 -21 2502.83 339.052   6
  -2  -3 -20 2544.02 475.313   2
   2   3 -20 2416.92 350.831   5
   2   3 -20 2561.28 298.529   6
  -2   3 -20 2268.30 358.401   5
   2  -3 -20 1774.15 272.498   6
   2   3 -19 6186.70 447.784   6
   2  -3 -19 4806.68 455.082   6
  -2   3 -19 5917.51 576.562   2
  -2   3 -19 5949.26 591.216   5
  -2   3 -18 36.3101 50.4628   2
  -2  -3 -18 122.200 87.4960   2
   2   3 -18 236.160 94.8083   6
  -2   3 -18 60.3507 70.8759   5
   2  -3 -18 198.782 91.3620   6
  -2   3 -17 1919.02 303.538   2
  -2  -3 -17 1478.85 360.000   2
  -2   3 -17 1662.55 307.627   5
   2   3 -17 1759.40 232.326   6
   2  -3 -17 1508.80 244.431   6
  -2   3 -16 5610.48 542.766   5
   2   3 -16 5333.21 398.673   6
  -2   3 -16 5865.53 504.669   2
  -2  -3 -16 6567.63 705.996   2
   2  -3 -16 4917.06 433.400   6
  -2   3 -15 10996.5 757.184   5
   2   3 -15 10215.7 545.573   6
  -2  -3 -15 11773.3 942.258   2
  -2   3 -15 11585.1 679.691   2
  -2   3 -14 5793.55 545.353   5
   2   3 -14 5733.18 392.319   6
  -2   3 -14 5677.70 444.716   2
  -2  -3 -14 6036.94 648.361   2
  -2   3 -13 5646.51 534.370   5
   2   3 -13 6225.92 405.501   6
  -2   3 -13 6356.26 435.677   2
  -2  -3 -13 7258.30 698.429   2
  -2   3 -12 26529.8 1160.43   5
   2   3 -12 26776.6 880.788   6
  -2   3 -12 26913.3 868.201   2
  -2  -3 -12 29937.6 1411.34   2
   2   3 -11 8219.98 452.053   6
  -2   3 -11 7782.64 598.392   5
  -2   3 -11 7776.75 390.695   2
  -2  -3 -11 8639.49 742.327   2
  -2   3 -10 3276.98 390.747   5
   2   3 -10 3738.54 299.178   6
  -2  -3 -10 4054.86 478.901   2
  -2   3  -9 9931.69 664.374   5
   2   3  -9 10530.4 505.834   6
  -2  -3  -9 10899.6 774.470   2
  -2   3  -8 5049.21 453.755   5
  -2  -3  -8 5869.45 547.119   2
   2   3  -8 5493.08 361.178   6
  -2   3  -7 8606.60 583.067   5
   2   3  -7 8864.68 460.565   6
  -2  -3  -7 7922.58 636.200   2
  -2   3  -6 1702.10 247.030   5
   2   3  -6 1834.30 207.862   6
  -2   3  -5 12213.4 666.943   5
   2   3  -5 12818.3 564.558   6
  -2   3  -4 12302.3 656.914   5
   2   3  -4 13585.3 582.614   6
  -2   3  -3 32281.5 1106.52   1
   2   3  -3 34112.7 988.214   6
  -2   3  -3 32830.1 1089.13   5
  -2   3  -2 4749.85 391.417   1
   2   3  -2 4430.88 345.919   5
   2   3  -2 4764.84 345.390   6
  -2   3  -2 4472.24 369.579   5
  -2   3  -1 33288.8 1083.78   1
   2   3  -1 33934.8 1011.83   5
   2   3  -1 34144.1 1018.25   6
  -2   3  -1 32558.4 1046.99   5
   2   3   0 68094.7 1550.59   5
   2   3   0 71216.1 1593.45   6
   2   3   0 68236.5 1741.19   2
  -2   3   0 66271.4 1579.58   5
  -2   3   0 70423.7 1626.76   1
   2   3   1 36484.3 990.118   5
  -2   3   1 37270.0 1027.14   1
   2   3   1 36534.7 1204.54   2
  -2   3   1 36159.1 1018.82   5
   2   3   2 4347.66 320.320   5
   2   3   2 4871.09 442.058   2
  -2   3   2 4669.39 328.107   1
  -2   3   2 4714.80 347.712   5
   2   3   3 30474.0 917.901   5
   2   3   3 30587.0 1169.39   2
  -2   3   3 30957.2 868.135   1
  -2   3   3 30337.4 939.484   5
   2   3   4 12676.4 554.157   5
   2   3   4 11841.5 720.855   2
  -2   3   4 12336.8 474.013   1
  -2   3   4 12727.0 574.408   5
   2  -3   4 11890.1 464.006   6
   2   3   5 14102.8 579.389   5
  -2   3   5 12386.7 438.100   1
   2  -3   5 13769.0 474.647   6
  -2   3   5 13504.1 594.244   5
   2   3   6 1383.19 166.226   5
   2  -3   6 1560.02 138.850   6
  -2   3   6 1342.66 120.909   1
  -2   3   6 1272.92 190.824   5
   2   3   7 8370.71 406.965   5
   2   3   7 7589.79 489.200   3
  -2   3   7 6881.18 248.763   1
   2  -3   7 8348.24 304.593   6
  -2   3   7 8837.83 484.966   5
   2   3   8 4854.32 284.034   5
   2   3   8 5060.88 402.121   3
   2  -3   8 5125.66 215.637   6
  -2   3   8 5262.69 372.549   5
   2   3   9 11677.8 627.787   3
   2  -3   9 11743.0 323.394   6
  -2   3   9 12303.5 598.201   5
   2   3   9 12888.3 447.923   5
  -2   3  10 2965.29 257.939   3
   2  -3  10 3626.80 158.001   6
  -2   3  10 3626.27 318.952   5
   2   3  10 3482.11 203.806   5
   2   3  10 3275.24 334.794   3
   2   3  11 8439.22 298.071   5
   2  -3  11 7613.00 231.653   6
  -2   3  11 7345.43 405.724   3
   2   3  11 8055.39 529.335   3
   2   3  12 30748.0 1105.95   3
  -2   3  12 28074.3 869.401   3
  -2   3  13 6469.66 409.347   3
   2   3  13 8569.25 574.755   3
   2   3  14 6382.17 426.163   1
  -2  -3  14 5739.39 403.143   4
  -2   3  14 6298.15 403.807   3
   2   3  14 7237.73 544.690   3
   2   3  15 11353.1 585.756   1
  -2  -3  15 9023.30 523.347   4
   2  -3  15 10231.6 757.801   4
  -2   3  15 10225.5 528.522   3
   2   3  15 11256.2 712.969   3
   2   3  16 7123.53 477.719   1
  -2  -3  16 6408.15 445.475   4
   2  -3  16 7155.89 643.093   4
   2   3  16 8223.69 612.619   3
  -2  -3  17 2184.80 260.645   4
   2   3  17 2314.47 271.228   1
   2   3  17 2769.73 370.164   3
   2  -3  17 2258.29 358.353   4
   2   3  18 28.5419 53.4550   1
   2  -3  18-40.4739 76.5728   4
   2  -3  19 6580.03 650.316   4
   2   3  19 6747.95 611.262   3
   2  -3  20 2812.61 435.797   4
   2  -3  21 4889.04 592.558   4
   2  -3  22 1147.10 302.622   4
   2  -3  23 4363.64 594.702   4
   2  -3  24 12079.4 1024.57   4
   2   4 -22 2931.53 332.392   6
   2   4 -22 2746.44 409.963   5
   2   4 -21 3086.51 339.910   6
   2   4 -21 2916.98 421.453   5
   2  -4 -21 2458.62 365.066   6
   2  -4 -21 3907.46 675.477   2
  -2  -4 -20 45.9527 67.3526   2
  -2   4 -20-12.9325 129.525   5
   2   4 -20-64.7297 60.5163   5
   2   4 -20 53.6024 93.0630   6
   2  -4 -20 55.2720 62.6398   6
   2  -4 -20 189.776 194.893   2
  -2  -4 -19 3266.97 579.678   2
  -2   4 -19 2873.30 448.762   5
   2   4 -19 2099.79 361.207   5
   2   4 -19 2379.22 291.833   6
   2  -4 -19 2375.27 330.151   6
   2  -4 -19 3170.52 548.895   2
  -2  -4 -18 467.470 217.628   2
  -2   4 -18-69.8860 85.4789   5
   2   4 -18 531.134 145.210   6
   2   4 -18 592.709 180.038   5
   2  -4 -18 520.254 235.606   2
  -2   4 -17 4660.52 549.608   5
   2   4 -17 4208.49 471.742   5
   2  -4 -17 5013.35 636.914   2
  -2  -4 -17 4332.15 614.325   2
   2   4 -17 4341.38 383.593   6
  -2   4 -16 5030.47 558.550   5
   2   4 -16 4209.32 478.930   5
   2  -4 -16 4778.44 589.410   2
   2   4 -16 4399.18 385.206   6
  -2  -4 -16 5090.35 671.453   2
  -2   4 -15 5554.62 585.861   5
   2   4 -15 4029.23 460.358   5
   2  -4 -15 4006.83 535.518   2
   2   4 -15 4273.56 372.606   6
  -2  -4 -15 5445.06 657.007   2
   2  -4 -14 5.07876 85.2446   2
  -2  -4 -14-28.5691 103.836   2
   2   4 -14-6.71863 49.1551   5
  -2   4 -14 6.70020 57.6671   5
   2   4 -14 109.212 81.4241   6
  -2   4 -13 4115.57 481.543   5
   2   4 -13 3073.67 381.615   5
   2  -4 -13 3465.89 446.862   2
   2   4 -13 3279.59 322.862   6
  -2  -4 -13 4033.00 548.567   2
  -2  -4 -12 17.8264 94.4581   2
  -2   4 -12 72.5869 71.8434   5
   2   4 -12 239.101 112.219   5
   2  -4 -12 287.641 143.084   2
   2   4 -12 61.8217 60.4404   6
  -2  -4 -11 1719.43 361.556   2
  -2   4 -11 1856.14 313.778   5
   2   4 -11 1525.15 264.919   5
   2  -4 -11 1761.77 293.288   2
   2   4 -11 1920.36 244.304   6
  -2   4 -10 4077.43 470.508   5
   2   4 -10 3430.65 384.351   5
   2  -4 -10 4149.91 428.970   2
   2   4 -10 3894.35 351.628   6
  -2  -4 -10 4101.76 505.342   2
   2   4  -9 6706.94 537.096   5
   2  -4  -9 6821.87 532.587   2
  -2  -4  -9 6247.47 612.775   2
   2   4  -9 6913.86 462.941   6
  -2   4  -9 7540.57 633.339   5
   2   4  -8 1661.34 267.911   5
  -2   4  -8 1602.74 290.642   5
   2  -4  -8 1462.45 239.123   2
   2   4  -8 2027.78 252.991   6
  -2   4  -7 2514.65 351.651   5
   2   4  -7 2570.14 323.382   5
   2  -4  -7 2373.78 290.929   2
   2   4  -7 2871.70 303.682   6
  -2   4  -6 45.0466 95.1776   5
   2   4  -6-4.25415 51.0027   5
   2   4  -6 32.2314 52.9470   6
  -2   4  -5 9546.17 685.472   5
   2   4  -5 8983.12 584.967   5
   2   4  -5 10111.8 578.645   6
  -2   4  -4 2082.88 305.343   5
   2   4  -4 2391.73 294.302   5
   2   4  -4 1977.44 254.168   6
   2  -4  -4 1949.28 221.135   2
  -2   4  -3 5996.77 514.910   5
   2   4  -3 5559.07 453.189   5
   2   4  -3 6297.33 449.879   6
   2  -4  -3 5829.16 366.056   2
   2   4  -2 2587.53 301.254   5
   2  -4  -2 2260.41 208.484   2
  -2   4  -2 2753.27 340.210   5
   2   4  -1 6894.45 488.586   5
   2  -4  -1 6163.25 309.157   2
  -2   4  -1 7129.11 540.798   5
  -2   4   0 32.0365 80.3316   5
   2   4   0 114.751 71.0503   5
  -2   4   1 7854.83 607.250   1
   2   4   1 6811.61 476.432   5
  -2   4   1 7084.51 515.217   5
  -2   4   2 2838.34 356.307   1
   2   4   2 2521.95 283.813   5
  -2   4   2 2151.12 278.355   5
  -2   4   3 6317.56 498.033   1
   2   4   3 6462.53 455.761   5
  -2   4   3 5446.40 432.645   5
   2   4   4 2248.51 262.215   5
  -2   4   4 2056.80 262.402   5
  -2   4   4 2278.62 270.022   1
   2   4   5 9963.22 558.621   5
  -2   4   5 9096.14 513.063   1
  -2   4   5 9681.28 578.051   5
  -2   4   6 41.5814 58.7252   5
   2   4   6-40.1906 47.4727   5
  -2   4   6 17.8223 27.4204   1
   2   4   7 2112.39 242.422   5
   2  -4   7 2318.47 209.027   6
  -2   4   7 1949.59 182.699   1
  -2   4   7 2372.41 281.911   5
   2   4   8 1681.01 202.808   5
  -2   4   8 1056.88 112.434   1
   2   4   8 1375.06 242.433   3
   2  -4   8 1548.83 164.517   6
  -2   4   8 1466.55 231.172   5
   2   4   9 6877.64 555.937   3
   2   4   9 7895.28 432.582   5
   2  -4   9 7289.47 347.576   6
  -2   4   9 6912.31 501.444   5
   2   4  10 3739.96 412.033   3
  -2   4  10 3822.55 374.274   5
   2   4  10 4753.26 316.712   5
  -2   4  11 1486.36 237.755   5
   2   4  11 1461.70 259.418   3
  -2   4  11 1256.57 208.225   3
   2   4  11 1940.65 190.342   5
  -2   4  12 88.3201 60.5238   5
   2   4  12 140.370 96.0186   3
  -2   4  12 125.551 66.1726   3
   2   4  12 132.011 42.3399   5
  -2   4  13 2526.67 301.894   3
   2   4  13 3535.74 409.294   3
  -2   4  14 226.282 103.572   3
   2   4  14 306.944 148.845   3
   2   4  15 4768.24 395.066   1
  -2   4  15 4268.79 391.039   3
   2   4  15 5650.41 544.987   3
   2   4  16 4525.70 384.227   1
  -2   4  16 3742.53 381.634   3
   2   4  16 4163.24 489.254   3
  -2  -4  16 3817.52 386.086   4
   2  -4  17 4372.04 553.692   4
  -2   4  17 3936.02 396.343   3
   2   4  17 5507.50 573.506   3
  -2   4  18 529.285 172.617   3
   2   4  18 743.622 217.356   3
   2  -4  18 578.560 209.733   4
   2  -4  19 2615.21 443.684   4
   2   4  19 3260.43 464.123   3
   2   4  20 308.345 151.553   3
   2  -4  20 239.760 177.910   4
   2  -4  21 4130.17 567.873   4
   2   4  21 4679.74 571.506   3
   2  -4  22 4023.51 575.481   4
  -2   5 -20-24.2998 186.130   5
   2   5 -20 57.1893 60.0259   6
   2  -5 -20-200.367 159.269   2
  -2   5 -19 1215.61 298.799   5
   2   5 -19 987.400 204.173   6
   2  -5 -19 1180.53 362.953   2
  -2   5 -18 14267.1 1036.83   5
   2   5 -18 12141.2 904.226   5
   2  -5 -18 11691.9 1029.16   2
   2   5 -18 11646.1 691.754   6
  -2  -5 -18 13525.7 1143.97   2
  -2  -5 -17 521.471 244.494   2
  -2   5 -17 341.122 140.080   5
   2   5 -17 303.477 131.663   5
   2   5 -17 180.303 105.794   6
   2  -5 -17 132.133 121.753   2
  -2  -5 -16 1050.60 334.764   2
  -2   5 -16 1115.28 276.045   5
   2   5 -16 1010.82 266.834   5
   2   5 -16 931.985 183.192   6
   2  -5 -16 724.315 235.299   2
  -2  -5 -15 1454.54 379.942   2
  -2   5 -15 1635.64 332.711   5
   2   5 -15 1462.15 296.178   5
   2   5 -15 1194.63 223.525   6
   2  -5 -15 1241.86 289.869   2
  -2   5 -14 12682.8 938.872   5
   2   5 -14 10359.0 792.193   5
   2  -5 -14 10142.4 829.973   2
  -2  -5 -14 12335.8 1036.72   2
   2   5 -14 11233.8 672.743   6
  -2  -5 -13 221.548 189.921   2
  -2   5 -13 315.554 173.907   5
   2   5 -13-77.1163 100.831   5
   2   5 -13 88.5074 57.5500   6
   2  -5 -13 112.600 90.1789   2
   2   5 -12 2223.01 297.137   6
   2   5 -12 2160.86 347.754   5
   2  -5 -12 2214.26 367.708   2
  -2   5 -11 495.135 193.509   5
   2   5 -11 171.802 111.806   5
   2  -5 -11 241.376 117.082   2
   2   5 -11 494.472 170.865   6
   2   5 -10 14652.0 929.780   5
   2   5 -10 16484.5 831.573   6
   2  -5 -10 16325.4 907.282   2
  -2   5  -9 2504.88 382.711   5
   2   5  -9 2523.29 314.843   6
   2  -5  -9 2350.74 324.475   2
   2   5  -9 1873.76 315.833   5
  -2   5  -8 820.999 224.365   5
   2   5  -8 514.362 160.085   5
   2   5  -8 478.644 128.698   6
   2  -5  -8 452.056 142.884   2
  -2   5  -7 926.564 256.986   5
   2   5  -7 709.125 190.054   5
   2  -5  -7 667.192 169.760   2
   2   5  -6 31770.4 1305.54   5
   2  -5  -6 32100.0 1120.85   2
  -2   5  -5 3591.35 458.707   5
   2   5  -5 3341.23 398.066   5
  -2   5  -4 1675.22 315.353   5
   2   5  -4 1558.73 266.255   5
  -2   5  -3 1473.10 288.593   5
   2  -5  -3 1428.29 178.728   2
   2   5  -3 1535.73 272.072   5
   2   5  -2 19338.6 945.141   5
  -2   5  -2 19784.6 1055.37   5
  -2   5  -1 509.670 155.552   5
   2   5  -1 525.910 157.397   5
   2   5   0 4037.93 424.645   5
  -2   5   0 4356.84 469.529   5
  -2   5   1 482.381 162.111   5
   2   5   1 607.532 175.114   5
   2   5   2 19734.2 920.327   5
  -2   5   2 20061.7 998.760   5
   2   5   3 2253.51 302.256   5
  -2   5   3 2539.16 339.152   5
   2   5   4 1068.51 205.045   5
  -2   5   4 979.880 222.984   5
   2   5   5 3156.08 347.621   5
  -2   5   5 2836.36 371.337   5
   2   5   6 32152.4 1155.47   5
  -2   5   6 31971.1 1226.01   5
  -2   5   7 860.037 207.863   5
   2   5   7 976.159 183.872   5
  -2   5   8 791.931 204.976   5
   2   5   8 813.358 152.477   5
   2   5   9 1232.24 259.694   3
   2   5   9 1633.44 221.972   5
  -2   5   9 1993.60 299.217   5
  -2   5  10 16510.6 872.623   5
   2   5  10 18151.2 761.517   5
  -2   5  11 527.971 164.161   5
   2   5  11 257.133 127.827   3
   2   5  11 495.556 121.377   5
  -2   5  11 319.733 129.560   3
   2   5  12 2134.94 360.137   3
  -2   5  12 1262.59 234.373   3
  -2   5  12 2243.29 315.868   5
  -2   5  13 171.419 105.447   5
   2   5  13 54.9454 111.702   3
  -2   5  13 142.827 83.1371   3
  -2   5  14 8097.44 602.079   3
   2   5  14 10360.4 813.091   3
  -2   5  15 879.514 194.636   3
   2   5  15 1101.77 289.831   3
  -2   5  16 249.162 127.355   3
   2   5  16 375.789 173.420   3
   2   5  17 342.329 191.553   3
   2  -5  18 12210.3 1041.78   4
   2   5  18 13778.7 1014.81   3
   2  -5  19 724.978 214.564   4
  -2   6 -16 683.900 244.478   5
  -2   6 -15 729.338 277.191   5
  -2   6 -14 3499.14 530.339   5
   2   6 -14 2854.62 433.316   5
   2   6 -13 3081.41 469.023   5
  -2   6 -13 3116.48 494.139   5
  -2   6 -12 2807.54 448.898   5
   2   6 -12 2149.24 390.474   5
   2   6 -11 1518.98 347.331   5
  -2   6 -11 2050.00 401.276   5
  -2   6 -10 4453.22 556.241   5
   2   6 -10 3943.85 507.138   5
  -2   6  -9 2308.32 420.798   5
   2   6  -9 1971.48 374.191   5
   2   6  -8 219.450 153.739   5
  -2   6  -8 528.780 211.830   5
  -2   6  -7-11.1669 77.4578   5
   2   6  -7 121.962 100.324   5
  -2   6  -6 140.800 124.011   5
   2   6  -6 235.001 114.103   5
  -2   6  -5 1191.75 286.507   5
   2   6  -5 702.604 212.124   5
  -2   6  -4 907.218 253.421   5
   2   6  -4 665.506 213.112   5
  -2   6  -3 277.387 126.261   5
   2   6  -3 621.813 206.892   5
  -2   6  -2 1686.09 338.838   5
   2   6  -2 1540.09 300.404   5
   2   6  -1 2892.81 386.212   5
  -2   6  -1 3131.96 459.877   5
   2   6   0 4881.57 504.143   5
  -2   6   0 5280.71 568.738   5
   2   6   1 3016.72 397.256   5
  -2   6   1 2687.26 401.336   5
  -2   6   2 1302.06 288.311   5
   2   6   2 1791.10 306.394   5
  -2   6   3 497.353 179.425   5
   2   6   3 512.477 174.153   5
  -2   6   4 618.367 203.640   5
   2   6   4 805.270 184.256   5
  -2   6   5 767.112 222.615   5
   2   6   5 1070.88 216.427   5
  -2   6   6 177.526 120.404   5
   2   6   6 89.1794 47.5132   5
  -2   6   7-14.3257 76.6702   5
   2   6   7-72.7637 69.7100   5
  -2   6   8 299.777 147.156   5
   2   6   8 204.147 85.8480   5
  -2   6   9 2041.07 335.322   5
   2   6   9 1941.50 270.741   5
   2   6   9 1488.79 334.543   3
   2   6  10 3171.06 490.204   3
  -2   6  10 3585.30 461.768   5
  -2   6  11 1202.09 271.531   5
   2   6  11 878.727 276.740   3
  -2   6  11 1224.29 260.283   3
  -2   6  12 2191.20 365.485   5
   2   6  12 2405.29 439.440   3
  -2   6  12 2154.55 347.403   3
   2   6  13 2663.47 477.242   3
  -2   6  13 2346.81 363.668   3
  -2   6  13 3317.49 444.608   5
   2   6  14 2078.01 392.925   3
  -2   6  14 2774.21 423.059   5
   2   7  -7 6655.68 680.983   5
   2   7  -6 176.646 134.641   5
  -2   7  -6 139.410 130.919   5
   2   7  -5 5274.84 606.151   5
  -2   7  -5 5474.70 625.231   5
  -2   7  -4 1858.36 369.352   5
   2   7  -4 1658.88 340.861   5
   2   7  -3 9175.81 781.157   5
  -2   7  -3 8786.85 782.394   5
  -2   7  -2 514.518 220.079   5
   2   7  -2 308.746 167.179   5
   2   7  -1 4536.69 538.610   5
  -2   7  -1 4208.06 543.144   5
  -2   7   0 647.298 225.711   5
   2   7   0 664.373 203.067   5
   2   7   1 5551.40 575.620   5
  -2   7   1 4486.34 564.204   5
  -2   7   2 681.425 218.049   5
   2   7   2 316.228 144.392   5
   2   7   3 6592.61 612.410   5
  -2   7   3 6295.72 659.407   5
  -2   7   4 1697.58 344.584   5
   2   7   4 1625.19 303.622   5
   2   7   5 5655.41 554.720   5
  -2   7   5 5511.07 614.243   5
  -2   7   6 5.95559 58.6730   5
   2   7   6 128.023 143.604   5
  -2   7   7 4901.50 578.686   5
   2   7   7 4712.18 487.216   5
  -2   7   8 616.093 219.387   5
  -2   7   9 7691.33 718.675   5
  -2   7  10 933.538 257.271   5
  -2   7  11 3650.77 478.852   5
  -2   7  12 230.319 133.598   5
  -3   0 -25 290.757 223.950   2
   3   0 -25 725.403 202.171   6
  -3   0 -24-79.0216 109.557   2
   3   0 -24 110.864 81.9401   6
  -3   0 -23 847.526 343.183   2
   3   0 -23 753.810 179.199   6
  -3   0 -22 178.253 159.869   2
   3   0 -22-60.6243 78.2706   6
   3   0 -21 7078.34 528.364   6
  -3   0 -21 6998.17 930.886   2
  -3   0 -20 283.233 182.698   2
   3   0 -20 8.47150 69.3617   6
  -3   0 -19 10088.7 1054.86   2
   3   0 -19 10793.0 631.380   6
  -3   0 -18 110.733 115.266   2
   3   0 -18 32.3438 54.2753   6
   3   0 -17 13438.7 683.028   6
  -3   0 -17 15279.6 449.135   6
  -3   0 -17 12272.7 1088.92   2
  -3   0 -16 130.709 155.395   2
   3   0 -16 35.3087 44.8010   6
  -3   0 -16-26.1448 25.9838   6
  -3   0 -15 7223.09 766.069   2
  -3   0 -15 7654.68 290.743   6
  -3   0 -15 6883.27 301.298   6
   3   0 -15 6866.57 456.273   6
   3   0 -15 6494.71 338.892   3
  -3   0 -14-4.23506 84.5903   2
   3   0 -14-7.65814 22.6486   3
  -3   0 -14-9.11848 26.8461   6
   3   0 -14-21.4399 66.4015   6
  -3   0 -13 1639.27 333.905   2
  -3   0 -13 1155.95 105.063   6
   3   0 -13 1183.37 177.404   6
   3   0 -13 979.710 109.716   3
   3   0 -12 3.46168 36.9071   6
   3   0 -12-30.1407 26.3768   3
  -3   0 -12 17.1819 76.6657   2
  -3   0 -12 35.3422 23.2860   6
  -3   0 -11 965.625 232.906   2
  -3   0 -11 907.777 79.0443   6
   3   0 -11 866.270 145.339   6
   3   0 -11 872.255 85.9602   3
   3   0 -10-35.9590 20.3214   3
  -3   0 -10-27.9108 84.2013   2
  -3   0 -10-1.07429 12.3407   6
   3   0 -10 28.6079 33.9104   6
   3   0  -9 11681.5 509.346   6
  -3   0  -9 11454.7 302.936   6
   3   0  -8-4.22268 8.25086   3
  -3   0  -8-4.79315 36.8391   3
  -3   0  -8 15.6640 21.3828   6
   3   0  -8 22.8661 26.2929   6
  -3   0  -7 18410.0 430.312   6
   3   0  -7 18247.3 621.141   6
  -3   0  -7 20348.6 654.060   3
  -3   0  -6-10.4722 33.6691   3
  -3   0  -6 25.6913 17.0510   6
   3   0  -6 29.2499 43.4410   6
  -3   0  -5 33029.4 662.207   6
   3   0  -5 32272.5 832.624   6
  -3   0  -5 34644.8 847.106   3
   3   0  -4-11.4607 10.3464   3
  -3   0  -4 11.6893 28.1881   3
   3   0  -4 13.6924 12.8327   4
  -3   0  -4 0.22477 12.7615   6
   3   0  -4 34.0131 33.1709   6
  -3   0  -3 16558.6 495.551   3
   3   0  -3 15519.7 492.974   6
  -3   0  -3 15310.3 415.760   6
   3   0  -3 14383.8 370.334   4
   3   0  -2 17.7462 16.0298   3
  -3   0  -2 21.0903 15.2335   3
   3   0  -2-18.8616 18.9614   6
   3   0  -2 2.16602 16.7812   4
  -3   0  -2 14.0160 16.5428   6
  -3   0  -1 4690.99 225.934   3
   3   0  -1 4492.99 245.064   6
  -3   0  -1 4438.44 233.962   6
   3   0  -1 4411.09 228.978   4
   3   0  -1 4344.66 178.727   3
   3   0  -1 3799.22 234.357   5
   3   0   0 2.01962 16.4797   3
   3   0   0 6.53745 21.6205   5
   3   0   0 9.53590 19.9788   6
   3   0   0 8.73099 16.3595   4
  -3   0   0 47.6362 31.3910   6
   3   0   1 4399.96 224.635   6
  -3   0   1 4659.66 255.047   6
   3   0   1 4793.11 271.032   4
   3   0   1 4041.49 227.007   5
   3   0   1 4588.70 214.769   3
   3   0   2-1.94867 12.5135   5
   3   0   2 18.2859 15.2103   6
   3   0   2-6.61871 16.3206   4
  -3   0   2-0.39505 21.3332   6
   3   0   3 15503.5 438.615   6
   3   0   3 17364.7 588.220   4
  -3   0   3 16164.4 543.879   6
   3   0   3 15134.1 456.069   5
   3   0   4 6.76983 30.4481   2
   3   0   4-9.25574 17.8704   5
   3   0   4 17.0964 28.5100   4
   3   0   4-4.28856 22.9327   6
  -3   0   4 34.9251 24.2280   6
   3   0   5 32715.9 723.905   6
   3   0   5 34381.3 1204.75   2
   3   0   5 37153.8 989.652   4
   3   0   5 34311.4 743.558   5
   3   0   6-28.8922 46.1904   2
   3   0   6-8.38575 14.9769   5
   3   0   6-5.52046 25.6108   4
   3   0   7 20270.0 543.219   5
   3   0   7 19799.3 904.248   2
   3   0   7 20686.2 765.719   4
   3   0   8 20.6581 28.2429   5
   3   0   8-14.5877 26.9683   4
   3   0   8-2.63260 43.7695   2
   3   0   9 12576.7 409.331   5
   3   0   9 13950.3 783.637   2
   3   0   9 13761.1 661.419   4
   3   0   9 12655.9 590.029   1
   3   0  10 49.3146 51.0634   1
   3   0  10-1.62490 15.2979   5
   3   0  10 20.1358 41.0517   4
   3   0  11 694.768 140.823   1
   3   0  11 1022.13 185.157   4
   3   0  12 141.914 79.4543   1
   3   0  13 785.436 172.697   1
   3   0  14 89.5003 81.9235   1
   3   0  15 8013.38 596.199   1
   3   0  16 174.470 104.957   1
   3   0  17 15973.7 929.094   1
   3   0  18 75.4435 63.7763   1
   3   0  19 13494.0 918.815   1
   3   0  20 28.8533 103.684   1
   3   0  21 9265.21 808.431   1
  -3   1 -25-294.911 202.066   2
   3   1 -25 613.719 189.450   6
  -3   1 -24 4302.46 764.575   2
  -3  -1 -24 4856.62 799.953   2
   3  -1 -24 4082.41 419.729   6
   3   1 -24 4838.26 483.975   6
  -3   1 -23 863.090 327.944   2
  -3  -1 -23 988.868 370.163   2
   3   1 -23 1375.49 243.432   6
   3  -1 -23 997.742 212.141   6
  -3   1 -22 2063.45 485.131   2
  -3  -1 -22 2383.85 553.393   2
   3   1 -22 2706.17 339.649   6
   3  -1 -22 2277.95 321.140   6
  -3   1 -21 3024.71 567.983   2
  -3  -1 -21 2489.12 546.598   2
   3   1 -21 2465.39 319.565   6
   3  -1 -21 1855.15 290.597   6
  -3   1 -20 771.276 282.611   2
  -3  -1 -20 1441.64 371.087   2
   3   1 -20 1617.10 261.266   6
   3  -1 -20 1266.32 232.524   6
  -3  -1 -19 97.6670 117.473   2
   3   1 -19 222.619 113.175   6
   3  -1 -19 225.852 77.8614   6
  -3   1 -18 3087.08 540.587   2
  -3  -1 -18 2994.39 548.657   2
   3  -1 -18 2854.91 330.882   6
   3   1 -18 2381.37 285.381   6
  -3   1 -17 1081.91 278.573   2
  -3  -1 -17 1013.02 312.076   2
  -3   1 -17 777.878 84.4851   5
   3   1 -17 828.530 170.399   6
   3  -1 -17 966.465 198.527   6
   3   1 -16 4029.42 355.820   6
  -3   1 -16 3796.87 543.244   2
  -3  -1 -16 3789.01 577.441   2
   3  -1 -16 3827.31 371.355   6
  -3   1 -16 3780.62 199.997   5
  -3   1 -15 1651.09 346.622   2
  -3  -1 -15 1376.41 339.171   2
   3   1 -15 1705.97 226.276   6
   3  -1 -15 1309.22 170.911   4
  -3  -1 -15 1521.16 218.052   6
   3  -1 -15 1689.61 240.059   6
  -3   1 -15 1545.19 128.855   5
  -3  -1 -14 10789.4 564.159   6
   3   1 -14 10258.2 542.898   6
  -3   1 -14 11258.0 849.638   2
  -3  -1 -14 9320.43 867.479   2
   3  -1 -14 10977.3 605.847   6
  -3   1 -14 9587.92 347.642   5
   3   1 -13 2932.40 281.491   6
   3  -1 -13 2812.18 302.551   6
  -3  -1 -13 3131.96 479.157   2
  -3   1 -13 3325.51 434.177   2
  -3  -1 -13 3321.48 293.242   6
  -3   1 -13 3023.19 189.224   5
   3  -1 -12 14991.1 683.108   6
  -3  -1 -12 14377.9 996.691   2
  -3   1 -12 15010.5 893.659   2
   3   1 -12 13580.6 601.939   6
  -3   1 -12 13818.4 435.124   5
  -3  -1 -11 4053.73 293.335   6
   3  -1 -11 3962.66 341.625   6
   3   1 -11 3893.11 302.499   6
  -3  -1 -11 3561.85 473.960   2
  -3   1 -11 4005.62 429.856   2
  -3   1 -11 3816.68 218.354   5
   3  -1 -10 8300.29 480.134   6
  -3  -1 -10 7816.92 395.039   6
   3   1 -10 7329.43 410.522   6
  -3  -1 -10 6837.70 642.776   2
  -3   1 -10 7404.61 315.492   5
  -3  -1  -9 3744.10 450.406   2
   3   1  -9 4013.25 295.570   6
   3  -1  -9 4173.38 328.801   6
  -3  -1  -9 4289.92 274.542   6
  -3   1  -9 3644.43 219.274   5
   3   1  -8 4768.05 311.707   6
  -3  -1  -8 4723.09 277.891   6
  -3   1  -8 4653.28 251.562   5
   3  -1  -8 4894.69 352.683   6
  -3  -1  -7 1089.35 154.115   3
  -3  -1  -7 1093.13 127.265   6
   3  -1  -7 1091.29 162.790   6
  -3  -1  -7 1182.68 171.784   4
   3   1  -7 931.364 137.810   6
  -3   1  -7 1428.88 182.218   3
  -3   1  -7 1178.38 124.294   5
  -3  -1  -6 3524.74 223.546   6
   3  -1  -6 3940.55 286.887   6
  -3   1  -6 4500.90 298.573   3
  -3   1  -6 3809.18 233.583   5
   3   1  -6 3749.76 260.162   6
   3  -1  -5 1110.34 110.421   1
  -3  -1  -5 1051.98 119.480   6
   3  -1  -5 1095.46 148.201   6
   3   1  -5 1077.51 135.638   6
  -3   1  -5 1245.38 147.860   3
  -3   1  -5 1134.65 127.984   5
   3  -1  -4 6623.79 289.485   1
   3   1  -4 7187.81 352.736   6
   3  -1  -4 7516.59 366.011   6
  -3  -1  -4 7098.54 382.650   4
  -3   1  -4 8120.91 367.812   3
  -3   1  -4 7323.30 331.439   5
  -3  -1  -4 6929.75 320.082   6
   3  -1  -3 7732.57 318.166   1
  -3  -1  -3 7674.28 383.083   4
   3   1  -3 7487.66 359.474   6
   3  -1  -3 7195.06 347.397   6
  -3  -1  -3 7708.31 339.119   6
  -3   1  -3 8360.28 350.857   3
  -3   1  -3 7649.07 342.938   5
  -3  -1  -2 18989.7 599.955   4
   3   1  -2 18385.0 577.250   6
  -3  -1  -2 18481.5 562.069   6
   3  -1  -2 18624.6 565.248   6
   3  -1  -2 18305.6 536.227   1
  -3   1  -2 19360.6 530.588   3
  -3   1  -2 19126.4 576.942   5
   3   1  -1 5007.36 277.137   6
   3  -1  -1 4830.84 264.797   1
  -3  -1  -1 5235.69 285.299   6
   3  -1  -1 4711.50 248.275   6
  -3  -1  -1 4710.85 272.866   4
  -3   1  -1 4904.61 228.571   3
  -3   1  -1 5192.75 282.723   5
   3   1   0 20923.1 580.588   3
  -3  -1   0 20630.3 587.732   4
   3   1   0 22288.4 631.058   6
  -3  -1   0 22638.3 660.485   6
   3  -1   0 21195.6 625.405   1
   3  -1   0 22136.1 573.001   6
  -3   1   0 22332.9 647.941   5
  -3   1   0 21080.1 500.547   3
   3   1   1 4933.32 261.505   3
   3   1   1 5444.21 286.654   6
  -3  -1   1 5366.84 301.581   6
   3  -1   1 5341.22 237.151   6
   3  -1   1 5311.31 300.412   1
  -3  -1   1 5115.71 247.870   4
  -3   1   1 5220.68 195.313   3
   3  -1   1 3611.91 244.903   5
   3   1   2 17547.4 550.481   6
   3  -1   2 16724.6 443.041   6
  -3  -1   2 19093.9 607.485   6
   3  -1   2 18096.8 603.964   1
  -3   1   2 16672.9 358.245   3
   3  -1   2 18640.8 580.692   5
   3   1   2 17531.0 537.731   3
   3   1   3 8802.01 377.926   6
   3  -1   3 8394.01 274.820   6
   3  -1   3 8249.19 407.605   1
   3   1   3 8342.99 563.020   2
   3   1   3 8469.11 365.115   3
   3  -1   3 9593.63 410.607   5
   3  -1   4 6385.84 336.049   5
   3  -1   4 5898.35 203.910   6
   3   1   4 5952.95 316.019   6
   3   1   4 5429.77 470.227   2
   3  -1   4 6109.01 419.983   2
   3   1   4 6293.39 324.675   3
   3  -1   5 1749.20 178.353   5
   3  -1   5 1405.94 84.8000   6
   3  -1   5 1377.37 207.745   2
   3   1   5 1768.93 274.613   2
   3   1   5 1662.53 169.174   3
   3  -1   6 4165.49 281.589   5
   3  -1   6 4298.87 359.768   2
   3   1   6 4196.80 433.093   2
   3  -1   6 4232.25 344.195   4
   3   1   6 3715.25 171.354   5
   3   1   6 3894.18 272.990   3
   3  -1   7 1093.66 141.729   5
   3  -1   7 1096.38 173.803   4
   3   1   7 1209.42 154.304   3
   3   1   7 1146.26 87.1943   5
   3  -1   7 1255.08 194.775   2
   3  -1   8 4463.77 307.477   5
   3   1   8 5123.80 344.177   1
   3  -1   8 5446.95 420.089   2
   3  -1   8 5282.50 410.475   4
   3   1   8 5311.89 342.795   3
   3   1   8 5202.95 178.383   5
   3  -1   9 3613.49 338.633   1
   3  -1   9 3252.49 267.869   5
   3   1   9 3546.37 299.047   1
   3  -1   9 4247.44 379.556   2
   3  -1   9 3639.89 347.895   4
   3   1   9 3894.03 303.870   3
   3  -1  10 8539.60 547.144   1
   3  -1  10 8429.95 442.766   5
   3   1  10 8523.14 479.581   1
   3  -1  10 8903.01 564.741   4
   3   1  10 9156.49 487.567   3
   3  -1  11 4040.62 386.731   1
   3  -1  11 3697.55 280.872   5
   3   1  11 3455.62 311.186   1
   3  -1  11 4063.81 386.552   4
   3   1  11 3715.01 311.498   3
   3  -1  12 16828.9 852.810   1
   3   1  12 16669.6 734.821   1
   3  -1  12 17511.8 849.738   4
   3  -1  13 3456.29 390.509   1
   3  -1  13 3904.41 403.983   4
   3   1  13 3397.92 333.171   1
   3  -1  14 10414.3 715.518   1
   3  -1  14 11324.8 720.940   4
   3   1  14 10586.0 623.469   1
   3  -1  15 2403.46 344.174   1
   3  -1  15 2105.91 318.239   4
   3   1  15 2457.35 316.802   1
   3  -1  16 4610.67 505.177   1
   3  -1  16 4898.32 496.608   4
   3   1  16 4517.36 445.466   1
   3  -1  17 948.715 230.918   4
   3  -1  17 734.492 197.649   1
   3   1  17 836.268 193.072   1
   3   1  18 3208.21 410.089   1
   3  -1  18 3863.50 472.269   4
   3  -1  18 3005.84 443.925   1
   3   1  19 173.236 96.0850   1
   3   1  20 2096.59 347.009   1
   3   1  21 2842.63 435.881   1
   3   1  22 2844.07 446.365   1
   3   2 -24 2648.74 362.334   6
  -3  -2 -23 3793.15 698.429   2
   3  -2 -23 3418.16 409.031   6
   3   2 -23 3014.47 369.927   6
  -3  -2 -22 1316.48 395.215   2
   3   2 -22 1630.27 274.704   6
   3  -2 -22 1484.85 271.978   6
  -3   2 -21 2866.29 483.198   2
  -3  -2 -21 2772.00 551.115   2
   3   2 -21 2555.13 337.358   6
   3  -2 -21 1993.65 313.264   6
  -3   2 -20 1137.06 298.448   2
  -3  -2 -20 508.291 227.854   2
   3   2 -20 653.386 178.478   6
   3  -2 -20 693.921 183.113   6
  -3   2 -19 359.468 142.661   2
  -3  -2 -19 184.303 117.494   2
   3   2 -19 574.492 164.658   6
   3  -2 -19 467.919 135.800   6
  -3   2 -18 1243.57 279.908   2
  -3  -2 -18 886.881 291.753   2
  -3   2 -18 1082.22 162.443   5
   3   2 -18 1099.18 202.474   6
   3  -2 -18 761.592 190.114   6
  -3   2 -17 1108.65 263.582   2
  -3  -2 -17 565.198 217.957   2
  -3   2 -17 663.592 124.706   5
   3   2 -17 836.950 173.352   6
   3  -2 -17 736.960 180.765   6
  -3  -2 -16 2936.98 513.039   2
   3   2 -16 3228.13 329.293   6
   3  -2 -16 2949.85 352.424   6
  -3   2 -16 3411.96 437.687   2
  -3   2 -16 2828.76 260.407   5
   3   2 -15 2774.12 288.389   6
  -3  -2 -15 3348.83 535.884   2
   3  -2 -15 3038.44 352.180   6
  -3   2 -15 3084.05 395.940   2
  -3   2 -15 2800.80 260.884   5
   3   2 -14 7297.43 461.499   6
  -3   2 -14 7987.26 606.793   2
   3  -2 -14 7625.24 551.738   6
  -3  -2 -14 7757.81 790.695   2
  -3   2 -14 6714.71 409.313   5
   3  -2 -13 5702.66 472.218   6
   3   2 -13 5225.54 386.224   6
  -3   2 -13 5659.28 475.293   2
  -3  -2 -13 6147.08 683.082   2
  -3   2 -13 5352.20 361.434   5
   3   2 -12 6805.27 426.990   6
   3  -2 -12 8576.46 567.017   6
  -3  -2 -12 8114.21 761.876   2
  -3   2 -12 7222.26 418.703   5
   3   2 -11 10885.3 529.357   6
   3  -2 -11 11155.5 637.707   6
  -3  -2 -11 10490.1 843.351   2
  -3   2 -11 10402.8 504.318   5
   3   2 -10 7375.47 423.903   6
   3  -2 -10 7712.10 510.613   6
  -3  -2 -10 6726.79 646.239   2
  -3   2 -10 7342.60 413.762   5
   3   2  -9 5759.69 370.150   6
  -3  -2  -9 6442.39 454.278   6
   3  -2  -9 6336.16 448.734   6
  -3   2  -9 5613.21 353.947   5
   3  -2  -8 3047.99 310.344   6
   3   2  -8 2825.90 250.361   6
  -3  -2  -8 3145.61 311.332   6
  -3   2  -8 2847.94 249.455   5
   3  -2  -7 3799.61 236.919   1
  -3  -2  -7 2994.33 287.457   6
   3   2  -7 2923.02 254.306   6
   3  -2  -7 3343.30 308.912   6
  -3   2  -7 2890.69 251.702   5
   3  -2  -6 2661.30 204.806   1
  -3  -2  -6 2338.90 244.279   6
   3   2  -6 2079.30 215.085   6
   3  -2  -6 2309.74 255.574   6
  -3   2  -6 2214.69 215.782   5
   3  -2  -5 2035.31 176.680   1
  -3  -2  -5 1875.17 209.977   6
   3   2  -5 1837.41 197.868   6
  -3  -2  -5 2118.91 239.286   4
   3  -2  -5 2216.83 236.514   6
  -3   2  -5 2086.40 208.231   5
   3  -2  -4 5276.73 299.333   1
  -3   2  -4 5190.48 349.335   1
  -3  -2  -4 5026.15 341.652   6
   3   2  -4 4961.42 324.077   6
   3  -2  -4 4914.13 344.865   6
  -3   2  -4 4936.11 320.342   5
   3  -2  -3 7101.30 356.675   1
   3   2  -3 6645.87 374.358   6
   3  -2  -3 7239.97 399.371   6
  -3   2  -3 7415.32 410.162   1
  -3  -2  -3 6953.57 398.891   6
  -3   2  -3 7623.21 399.817   5
   3  -2  -2 11345.7 477.202   1
  -3   2  -2 11417.6 512.312   1
   3  -2  -2 11751.2 488.917   6
   3   2  -2 11249.2 494.913   6
  -3  -2  -2 11510.7 513.265   6
  -3   2  -2 11427.2 506.550   5
   3  -2  -1 8465.68 419.796   1
  -3   2  -1 9084.73 443.767   1
   3   2  -1 8547.50 423.314   6
  -3  -2  -1 8170.60 433.050   6
   3  -2  -1 8638.66 398.906   6
  -3   2  -1 9035.39 445.516   5
   3  -2   0 10589.4 485.697   1
   3   2   0 10220.4 472.871   6
  -3  -2   0 11205.9 499.767   6
   3  -2   0 10642.6 421.055   6
  -3   2   0 11202.6 501.537   5
   3  -2   1 10347.5 496.201   5
   3  -2   1 9183.38 469.135   1
   3   2   1 9616.23 462.157   6
   3  -2   1 8846.76 362.243   6
  -3  -2   1 9452.89 464.577   6
  -3   2   1 9773.05 473.465   5
   3  -2   2 10292.2 508.673   5
   3  -2   2 8889.14 477.112   1
   3   2   2 9454.02 463.891   6
   3  -2   2 8800.70 335.633   6
  -3   2   2 9949.59 475.917   5
   3  -2   3 10066.4 501.907   5
   3   2   3 8572.45 441.907   3
   3  -2   3 8994.87 490.790   1
   3   2   3 8622.68 460.406   6
   3  -2   3 7908.06 297.280   6
   3  -2   3 8149.17 423.730   2
  -3   2   3 9184.18 463.198   5
   3   2   4 4062.68 310.049   3
   3  -2   4 4643.42 348.261   5
   3  -2   4 3883.64 331.346   1
   3  -2   4 3996.96 177.383   6
   3  -2   4 3757.70 279.238   2
  -3   2   4 4168.64 316.543   5
   3   2   5 2470.74 239.251   3
   3  -2   5 2828.71 277.426   5
   3  -2   5 2550.49 279.749   1
   3  -2   5 2376.60 219.496   2
   3  -2   5 2557.52 120.057   6
  -3   2   5 2786.31 256.889   5
  -3   2   6 1043.45 83.4585   3
   3  -2   6 1880.94 246.828   1
   3  -2   6 1780.71 189.419   2
   3   2   6 1760.14 206.137   3
   3   2   7 2493.95 174.569   5
   3  -2   7 2615.34 302.136   1
   3  -2   7 2877.10 247.168   2
  -3   2   7 1595.38 97.1043   3
   3   2   7 2503.56 242.958   3
   3   2   8 3474.17 190.434   5
  -3  -2   8 1820.10 89.7210   4
  -3   2   8 2250.96 116.950   3
   3  -2   8 3728.39 370.345   1
   3   2   8 3525.67 300.481   3
   3   2   9 5056.37 181.364   5
   3  -2   9 5434.14 468.673   1
   3   2   9 5484.06 390.775   3
   3  -2  10 9269.38 561.265   5
   3  -2  10 8753.81 625.812   1
   3   2  10 9013.10 526.663   3
   3  -2  11 10534.1 602.736   5
   3   2  11 10588.4 559.919   1
   3  -2  11 9761.28 681.206   1
   3  -2  11 10647.5 694.737   4
   3   2  11 10879.6 598.602   3
   3  -2  12 9126.80 560.616   5
   3   2  12 8375.93 517.766   1
   3  -2  12 7944.26 634.626   1
   3  -2  12 9679.26 672.110   4
   3   2  12 9276.80 561.160   3
   3   2  13 6898.70 475.928   1
   3  -2  13 6727.34 606.147   1
   3  -2  13 6970.30 581.283   4
   3   2  13 6976.82 500.861   3
   3   2  14 7349.08 510.142   1
   3  -2  14 7566.20 626.772   4
   3  -2  14 6480.75 610.620   1
   3   2  14 7870.73 543.302   3
   3   2  15 4474.98 407.035   1
   3  -2  15 4400.21 484.978   4
   3   2  15 4255.23 407.860   3
   3  -2  16 3064.76 409.008   4
   3   2  16 2747.34 327.463   1
   3   2  16 3077.08 352.935   3
   3   2  17 1137.69 222.526   1
   3  -2  17 1293.68 277.318   4
   3   2  18 1177.49 246.456   1
   3  -2  18 943.323 235.727   4
   3  -2  19 714.630 219.787   4
   3   2  19 780.205 173.785   1
   3   2  20 1728.94 313.734   1
   3  -2  20 1187.61 284.395   4
   3   2  21 3101.21 421.869   1
   3  -2  21 2593.87 441.155   4
   3  -2  22 2340.73 426.069   4
   3   3 -24 678.405 198.050   6
   3   3 -23 701.893 197.562   6
   3   3 -22 358.389 156.597   6
  -3  -3 -21 3851.55 645.229   2
   3   3 -21 4785.07 455.005   6
   3  -3 -21 3340.77 407.196   6
  -3  -3 -20 690.849 278.423   2
   3   3 -20 776.934 196.155   6
   3  -3 -20 805.250 205.629   6
   3   3 -19 8284.66 586.096   6
   3  -3 -19 7101.86 599.189   6
  -3  -3 -19 8606.41 931.817   2
  -3  -3 -18 1610.46 392.618   2
  -3   3 -18 1225.31 226.403   5
   3   3 -18 1217.86 220.062   6
   3  -3 -18 1389.22 264.066   6
   3   3 -17 6755.72 501.788   6
   3  -3 -17 6585.81 557.663   6
  -3  -3 -17 7712.03 842.366   2
  -3   3 -17 6928.81 549.109   5
  -3   3 -16 142.452 62.0015   5
   3   3 -16 209.434 81.6595   6
   3  -3 -16 396.836 131.493   6
   3   3 -15 3078.14 323.785   6
   3  -3 -15 2701.53 340.921   6
  -3  -3 -15 3608.38 551.782   2
  -3   3 -15 2889.79 347.502   5
  -3  -3 -14 417.016 178.425   2
  -3   3 -14 214.774 59.6004   5
   3   3 -14 341.883 102.320   6
   3  -3 -14 417.089 134.530   6
  -3  -3 -13 355.470 165.595   2
  -3   3 -13 447.329 123.832   5
   3   3 -13 208.997 76.5117   6
   3  -3 -13 183.132 77.9845   6
  -3  -3 -12 403.594 177.884   2
  -3   3 -12 170.471 49.4778   5
   3   3 -12 262.860 90.4854   6
   3  -3 -12 317.029 102.219   6
  -3   3 -11 458.662 135.028   5
   3   3 -11 352.538 100.100   6
   3  -3 -11 517.488 129.560   6
  -3   3 -10 391.183 114.404   5
   3   3 -10 460.748 123.754   6
   3  -3 -10 536.029 122.286   6
   3   3  -9 7784.33 462.038   6
  -3   3  -9 7715.01 540.234   5
   3   3  -8 2507.75 261.812   6
  -3   3  -8 2434.20 301.066   5
   3   3  -7 16321.2 678.515   6
  -3   3  -7 15819.2 755.246   5
   3   3  -6 2625.96 264.134   6
  -3   3  -6 2747.26 305.958   5
   3   3  -5 18655.5 727.868   6
  -3   3  -5 18020.7 773.889   5
   3   3  -4 1548.64 211.369   6
  -3   3  -4 1443.62 208.300   5
   3   3  -3 8275.51 475.599   6
  -3   3  -3 7801.35 490.521   5
  -3   3  -2 748.595 154.842   5
   3   3  -2 812.363 145.503   6
  -3   3  -1 431.180 106.978   1
  -3   3  -1 563.041 135.398   5
   3   3  -1 445.473 116.667   6
  -3   3   0 71.9911 52.1843   1
  -3   3   0 59.2169 55.2542   5
   3   3   0 15.8300 42.5905   6
  -3   3   1 909.790 158.805   5
   3   3   1 1007.38 167.866   6
  -3   3   1 829.723 141.138   1
  -3   3   2 945.881 164.253   5
  -3   3   2 910.460 140.317   1
   3   3   3 7397.27 427.870   5
  -3   3   3 7270.96 372.281   1
  -3   3   3 7030.77 457.370   5
   3   3   4 1988.92 216.129   5
  -3   3   4 2182.24 250.910   5
   3   3   5 17057.7 780.614   3
   3   3   5 18794.5 689.142   5
  -3   3   5 19147.0 783.101   5
   3   3   6 3388.79 335.009   3
   3   3   6 3081.24 260.856   5
   3  -3   6 3260.29 192.847   6
  -3   3   6 3370.01 320.683   5
   3   3   7 15971.4 757.951   3
   3   3   7 17000.8 623.359   5
   3  -3   7 17345.4 412.322   6
  -3   3   7 16940.9 747.598   5
  -3   3   8 1412.53 149.690   3
   3   3   8 2022.85 185.990   5
  -3   3   8 1970.76 257.406   5
   3   3   9 8162.55 353.134   5
   3   3   9 7781.90 519.456   3
  -3   3  10 408.880 75.6741   3
   3   3  10 549.650 146.489   3
   3   3  10 585.577 77.1173   5
  -3   3  11 259.790 72.4594   3
   3   3  11 607.933 160.683   3
   3   3  11 384.379 44.5293   5
  -3   3  12 131.563 49.4244   3
   3   3  12 142.633 87.4757   3
  -3  -3  12 178.794 49.1324   4
  -3   3  13 157.275 51.9643   3
   3   3  13 287.040 146.558   3
  -3  -3  13 168.350 46.2295   4
   3   3  14 322.352 114.145   3
   3   3  14 138.071 83.3552   1
   3  -3  14 322.110 157.838   4
   3   3  15 3558.01 374.768   1
   3  -3  15 3275.93 450.862   4
   3   3  15 3279.36 390.492   3
   3   3  16 602.909 169.145   1
   3   3  16 698.376 189.915   3
   3  -3  16 637.358 202.083   4
   3  -3  17 9450.63 791.557   4
   3   3  17 9718.11 649.719   1
   3   3  17 9104.13 690.655   3
   3   3  18 1689.71 320.102   3
   3   3  18 1573.73 250.200   1
   3  -3  18 1513.53 321.540   4
   3  -3  19 9471.95 826.626   4
   3   3  19 9619.86 699.359   1
   3   3  19 9798.53 760.875   3
   3  -3  20 1054.25 293.894   4
   3  -3  21 4919.56 625.993   4
   3  -3  22 530.927 216.183   4
   3   4 -22 3014.44 375.162   6
   3   4 -21 627.665 174.915   6
   3  -4 -20 2294.74 537.971   2
   3   4 -20 2029.59 307.478   6
   3   4 -20 1458.24 319.270   5
  -3  -4 -19-15.1120 158.317   2
   3   4 -19-59.1430 120.954   5
   3   4 -19 118.363 107.063   6
   3  -4 -19-231.890 187.563   2
   3  -4 -19 159.089 119.881   6
  -3  -4 -18 2519.56 496.255   2
  -3   4 -18 1774.13 319.413   5
   3   4 -18 2604.06 327.497   6
   3   4 -18 2261.34 366.837   5
   3  -4 -18 1593.39 297.447   6
  -3  -4 -17 1036.94 355.280   2
  -3   4 -17 656.189 159.983   5
   3   4 -17 912.400 241.263   5
   3   4 -17 906.276 209.943   6
   3  -4 -17 488.702 165.032   6
  -3  -4 -16 2624.28 485.497   2
  -3   4 -16 1892.29 336.876   5
   3   4 -16 2090.59 284.694   6
   3   4 -16 2006.74 338.090   5
   3  -4 -16 1501.20 254.567   6
  -3  -4 -15 1758.70 396.602   2
  -3   4 -15 802.097 204.633   5
   3   4 -15 1433.41 235.819   6
   3  -4 -15 622.951 174.619   6
   3   4 -14 3480.43 359.668   6
   3  -4 -14 2427.71 325.393   6
  -3   4 -14 3312.11 444.577   5
  -3   4 -13 190.850 71.6798   5
   3   4 -13 872.821 180.670   6
   3   4 -12 5147.07 425.187   6
  -3   4 -12 4336.24 491.973   5
  -3   4 -11 283.586 69.9478   5
   3   4 -11 843.037 181.841   6
   3   4 -10 5014.74 420.099   6
  -3   4 -10 4978.14 530.576   5
  -3   4  -9 1354.50 269.093   5
   3   4  -9 1767.42 245.456   6
   3   4  -8 2685.57 305.759   6
  -3   4  -8 2959.85 384.721   5
  -3   4  -7 342.665 126.462   5
   3   4  -7 529.883 147.346   6
   3   4  -6 5168.48 468.665   5
   3   4  -6 5639.28 447.787   6
  -3   4  -6 4953.65 496.327   5
  -3   4  -5 1185.65 227.820   5
   3   4  -5 964.365 215.774   5
   3   4  -5 1102.85 200.905   6
   3   4  -4 3352.07 371.147   5
   3   4  -4 3403.82 351.557   6
  -3   4  -4 3354.23 378.709   5
   3   4  -3 2753.01 329.355   5
   3   4  -3 2836.69 317.593   6
  -3   4  -3 2981.64 358.683   5
   3   4  -2 6906.32 511.593   5
   3   4  -2 7218.36 511.835   6
  -3   4  -2 6861.16 533.246   5
  -3   4  -1 850.692 188.859   5
   3   4  -1 788.375 176.950   5
   3   4   0 9203.41 571.176   5
  -3   4   0 9042.38 588.821   5
  -3   4   1 758.180 170.512   5
   3   4   1 834.931 170.373   5
   3   4   2 6914.28 490.934   5
  -3   4   2 6545.73 495.765   5
   3   4   3 3191.86 323.012   5
  -3   4   3 2175.09 249.724   1
  -3   4   3 3000.69 336.106   5
   3   4   4 3700.90 344.183   5
  -3   4   4 3548.72 289.170   1
  -3   4   4 3223.63 349.481   5
   3   4   5 1664.06 229.598   5
  -3   4   5 1321.06 236.976   5
   3  -4   5 1181.71 154.949   6
  -3   4   5 1140.25 157.029   1
   3   4   6 4988.75 483.119   3
   3   4   6 5901.05 424.884   5
  -3   4   6 4333.06 284.499   1
   3  -4   6 5627.08 332.774   6
  -3   4   6 5292.97 447.519   5
  -3   4   7 283.114 126.978   5
   3   4   7 199.709 67.9287   3
   3   4   7 440.896 100.449   5
   3   4   8 2419.01 338.981   3
   3   4   8 2670.83 264.246   5
  -3   4   8 2848.03 336.162   5
   3   4   9 1405.00 175.845   5
  -3   4   9 1442.44 253.151   5
   3   4   9 1461.38 272.361   3
   3   4  10 4834.54 476.574   3
  -3   4  10 4866.35 446.592   5
   3   4  10 5818.36 341.248   5
   3   4  11 946.587 214.907   3
  -3   4  11 407.132 110.700   3
  -3   4  12 3461.75 294.204   3
   3   4  12 5072.62 498.865   3
  -3   4  13 341.725 124.400   3
   3   4  13 572.334 196.483   3
   3   4  14 3628.00 445.209   3
   3   4  15 1540.32 305.653   3
   3   4  15 1391.03 241.172   1
   3   4  16 2024.57 345.161   3
   3   4  16 2278.84 316.405   1
   3  -4  16 1923.42 382.668   4
   3   4  17 764.794 223.231   3
   3  -4  17 569.191 190.410   4
   3  -4  18 2474.90 443.852   4
   3   4  18 3147.05 466.907   3
   3   4  19 131.160 160.622   3
   3  -4  19-2.25028 96.8484   4
   3  -4  20 2167.25 424.102   4
  -3   5 -19 444.320 203.910   5
   3   5 -19 728.912 203.063   6
  -3   5 -18-232.123 154.744   5
   3  -5 -18-110.391 118.556   2
  -3   5 -17 455.897 206.702   5
   3   5 -17 574.730 164.070   6
   3  -5 -17 366.805 156.346   2
  -3   5 -16 679.869 237.170   5
   3   5 -16 357.446 166.312   5
   3  -5 -16 688.386 232.065   2
   3   5 -16 385.459 165.277   6
   3  -5 -16 162.509 64.3182   6
  -3   5 -15 2212.64 413.459   5
   3   5 -15 2234.12 319.745   6
   3   5 -15 1714.94 322.840   5
   3  -5 -15 2174.72 388.840   2
  -3   5 -14 2187.52 412.051   5
   3   5 -14 1863.38 329.336   5
   3   5 -14 1784.57 284.752   6
   3  -5 -14 1465.41 313.401   2
   3   5 -13 2932.81 416.711   5
   3  -5 -13 3179.92 443.221   2
   3   5 -13 3538.26 392.248   6
  -3   5 -13 4446.49 577.982   5
  -3   5 -12 797.589 247.507   5
   3   5 -12 745.183 216.516   5
   3   5 -12 334.073 128.505   6
   3  -5 -12 645.945 196.892   2
   3   5 -11 3962.13 466.144   5
   3   5 -11 4848.75 462.697   6
   3  -5 -11 4211.36 465.834   2
  -3   5 -11 4997.07 596.746   5
  -3   5 -10 1649.92 339.649   5
   3   5 -10 1905.24 324.593   5
   3   5 -10 1870.27 292.221   6
   3  -5 -10 1668.02 286.491   2
   3   5  -9 2680.85 391.495   5
  -3   5  -9 2528.08 428.822   5
   3   5  -9 2418.04 328.430   6
   3  -5  -9 2906.01 349.543   2
  -3   5  -8 146.044 109.934   5
   3   5  -8 200.784 99.8995   6
   3  -5  -8 396.230 140.863   2
   3   5  -8 407.313 162.883   5
   3   5  -7 1294.08 272.967   5
  -3   5  -7 1205.79 275.421   5
   3   5  -7 1504.66 255.713   6
   3  -5  -7 1092.52 198.294   2
  -3   5  -6 337.025 134.077   5
   3   5  -6 367.140 128.871   5
   3   5  -6 354.070 124.345   6
   3  -5  -6 292.162 113.639   2
  -3   5  -5 518.178 186.422   5
   3   5  -5 575.294 178.909   5
  -3   5  -4 320.043 148.414   5
   3   5  -4 503.545 165.668   5
   3   5  -3 3640.28 430.860   5
  -3   5  -3 3979.69 475.383   5
  -3   5  -2 1846.33 312.406   5
   3   5  -2 1798.66 304.768   5
   3   5  -1 5235.72 494.423   5
  -3   5  -1 4783.32 503.518   5
  -3   5   0 916.031 235.896   5
   3   5   0 854.004 200.962   5
   3   5   1 5300.21 484.828   5
  -3   5   1 5006.68 501.662   5
   3   5   2 2136.48 311.679   5
  -3   5   2 1923.38 300.513   5
   3   5   3 4301.56 426.746   5
  -3   5   3 3635.89 418.505   5
  -3   5   4 239.857 94.8224   5
   3   5   4 464.544 140.104   5
  -3   5   5 456.114 143.706   5
   3   5   5 613.324 149.426   5
  -3   5   6 275.911 119.679   5
   3   5   6 332.341 121.442   5
  -3   5   7 1040.41 246.472   5
   3   5   7 1133.78 274.914   3
   3   5   7 1250.83 211.552   5
  -3   5   8 539.079 169.944   5
   3   5   8 244.876 87.7584   3
   3   5   8 681.845 138.367   5
   3   5   9 2515.22 274.905   5
   3   5   9 2564.12 411.458   3
  -3   5   9 2929.97 379.915   5
   3   5  10 1653.28 328.452   3
  -3   5  10 1472.93 236.550   3
  -3   5  10 1795.10 330.717   5
   3   5  11 3889.29 495.655   3
  -3   5  11 3059.34 339.139   3
  -3   5  12 495.684 173.920   5
   3   5  12 169.770 126.482   3
   3   5  13 4330.27 532.240   3
   3   5  14 1483.37 315.879   3
   3   5  15 1820.18 359.245   3
   3   5  16 532.302 259.587   3
   3  -5  17 262.225 164.456   4
   3   6 -15 886.934 253.874   6
  -3   6 -14 486.554 198.215   5
   3   6 -14 341.111 109.117   6
  -3   6 -13 312.852 201.392   5
   3   6 -13 277.484 86.5875   6
  -3   6 -12 124.356 73.0527   5
   3   6 -12-36.4847 97.5585   5
  -3   6 -11 604.646 227.735   5
   3   6 -11-3.70414 60.8027   5
  -3   6 -10 184.523 134.189   5
   3   6 -10 437.580 189.558   5
  -3   6  -9 1922.00 405.464   5
   3   6  -9 1335.95 307.727   5
  -3   6  -8 2083.90 419.466   5
   3   6  -8 1901.59 346.322   5
   3   6  -7 3497.49 474.834   5
  -3   6  -7 3188.57 518.475   5
  -3   6  -6 2192.58 410.739   5
   3   6  -6 2086.00 362.153   5
   3   6  -5 3728.00 486.779   5
  -3   6  -5 4007.68 538.719   5
   3   6  -4 1685.01 323.397   5
  -3   6  -4 2351.66 417.312   5
  -3   6  -3 1066.92 276.668   5
   3   6  -3 1348.67 295.078   5
  -3   6  -2 169.692 145.356   5
   3   6  -2 258.792 130.002   5
  -3   6  -1 62.7651 69.4363   5
   3   6  -1 110.916 81.2896   5
  -3   6   0 285.877 149.528   5
   3   6   0 294.424 123.708   5
  -3   6   1 215.174 104.471   5
   3   6   1 294.673 131.661   5
  -3   6   2-69.7213 129.840   5
   3   6   2-51.2920 87.1604   5
  -3   6   3 1097.06 283.506   5
   3   6   3 1207.27 248.547   5
   3   6   4 2586.62 360.681   5
  -3   6   4 2056.20 366.320   5
   3   6   5 3906.90 432.858   5
  -3   6   5 3933.52 495.634   5
  -3   6   6 2259.48 372.740   5
   3   6   6 2382.62 327.615   5
   3   6   7 3567.91 383.454   5
   3   6   7 3268.69 516.500   3
  -3   6   7 3180.19 443.693   5
  -3   6   8 1800.04 340.020   5
   3   6   8 1283.77 314.420   3
  -3   6   9 1322.11 302.846   5
   3   6   9 889.710 270.909   3
  -3   6  10 650.646 197.904   5
   3   6  10 334.117 183.199   3
  -3   6  11 183.764 111.071   5
   3   6  11 362.250 166.357   3
  -3   6  12 106.635 90.5104   5
   3   6  12 160.107 131.548   3
  -3   6  13 62.3909 84.3251   5
   3   7  -5 1130.94 296.256   5
   3   7  -4 1249.51 300.003   5
   3   7  -3 439.772 147.156   5
   3   7  -2 1680.43 331.887   5
   3   7  -1 278.194 109.509   5
   3   7   0 2049.51 366.044   5
   3   7   1 293.354 109.229   5
   3   7   2 1508.10 307.053   5
   3   7   3 708.374 223.028   5
   3   7   4 1384.20 289.164   5
   3   7   5 668.106 191.778   5
  -4   0 -24 16172.9 1548.10   2
  -4   0 -23-327.422 217.902   2
  -4   0 -22 665.623 295.872   2
   4   0 -22 484.603 163.553   6
  -4   0 -21 168.978 157.237   2
   4   0 -21 18.3598 78.3311   6
   4   0 -20 8126.99 588.947   6
  -4   0 -20 9510.37 1055.26   2
  -4   0 -19 82.5584 105.896   2
   4   0 -19-9.19419 73.5182   6
  -4   0 -18 4156.13 661.363   2
   4   0 -18 3077.11 340.012   6
  -4   0 -17 210.392 161.931   2
   4   0 -17 63.8969 43.8960   6
   4   0 -16 17249.1 806.118   6
   4   0 -15 61.2698 71.6137   6
   4   0 -14 1346.84 215.698   6
  -4   0 -13 18.9877 23.2239   6
   4   0 -13 58.7886 69.7121   6
   4   0 -12 47757.3 1315.65   6
  -4   0 -12 46262.7 795.663   6
  -4   0 -11-0.06024 33.5951   6
   4   0 -11 69.3866 76.4639   6
  -4   0 -10 337.437 50.3482   6
   4   0 -10 496.303 121.346   6
  -4   0  -9 10.4197 22.5617   6
   4   0  -9 35.1367 50.3155   6
   4   0  -8 14545.1 611.233   6
  -4   0  -8 14739.7 403.727   6
   4   0  -7 55.4517 51.0754   6
  -4   0  -7 29.6076 21.7977   6
   4   0  -6 10625.2 495.079   6
  -4   0  -6 10500.6 358.478   6
  -4   0  -5 47.3361 35.2470   3
   4   0  -5 42.6862 21.5105   4
   4   0  -5-0.37594 32.6623   6
  -4   0  -5 5.46906 27.1547   6
  -4   0  -4 46541.8 1066.87   3
   4   0  -4 43251.9 1054.21   6
  -4   0  -4 42044.7 899.391   6
  -4   0  -3-12.9169 25.9594   3
   4   0  -3 12.9581 26.2621   4
   4   0  -3 23.8372 33.7319   6
  -4   0  -3 14.1718 31.9886   6
  -4   0  -2 1256.43 141.469   6
   4   0  -2 1450.68 167.173   6
   4   0  -2 1291.25 132.356   4
   4   0  -1 63.6048 48.7211   5
   4   0  -1 67.7138 54.9844   6
   4   0  -1 102.781 55.8484   4
  -4   0  -1-1.73044 41.2639   6
   4   0   0 170570. 2758.50   6
  -4   0   0 178433. 2810.20   6
   4   0   0 178845. 2811.72   4
   4   0   1 32.0421 51.8507   6
   4   0   1 92.4975 65.1155   4
  -4   0   1 139.188 75.6823   6
   4   0   2 1297.18 140.599   6
   4   0   2 1426.97 176.337   4
  -4   0   2 1101.87 160.153   6
   4   0   3-4.21238 44.3367   1
   4   0   3 8.08603 30.0740   6
   4   0   3 0.82253 27.8264   4
  -4   0   3-4.13239 25.8978   6
   4   0   4 42674.8 1141.34   1
   4   0   4 43796.7 950.912   6
   4   0   4 45758.4 1205.83   4
   4   0   5-16.6469 22.4701   5
   4   0   5 31.4651 26.3364   6
   4   0   5 43.0612 53.8538   4
   4   0   5 58.5233 50.1568   1
   4   0   6 11057.7 421.776   6
   4   0   6 11415.7 553.078   1
   4   0   6 11876.7 598.047   4
   4   0   6 11435.7 443.057   5
   4   0   7-20.8175 38.0424   5
   4   0   7-30.2071 59.1412   4
   4   0   7-87.0689 70.7980   1
   4   0   8 17557.1 575.163   5
   4   0   8 16145.0 730.434   1
   4   0   9 70.4706 76.3659   1
   4   0   9 10.9311 38.7220   5
   4   0   9 2.93923 51.2819   4
   4   0  10 71.2197 39.5767   5
   4   0  10 282.804 112.543   1
   4   0  10 187.242 91.7895   4
   4   0  11-79.7705 59.8658   1
   4   0  11 14.6659 28.7663   5
   4   0  11 96.7307 78.7758   4
   4   0  12 55883.2 1640.45   1
   4   0  13 14.1689 58.7893   1
   4   0  14 1763.97 296.129   1
   4   0  15 13.5524 99.6124   1
   4   0  16 20831.9 1074.63   1
   4   0  17 156.269 117.557   1
   4   0  18 3517.55 473.038   1
   4   0  19 51.1692 130.615   1
   4   0  20 11770.0 930.274   1
   4   0  21 180.554 140.997   1
   4   0  22-140.263 135.486   1
   4   0  23 279.488 258.069   1
  -4  -1 -23 3004.28 660.797   2
  -4   1 -23 2916.10 573.294   2
  -4  -1 -22 2490.61 609.677   2
  -4   1 -22 3298.89 589.563   2
   4   1 -22 2733.50 367.935   6
   4  -1 -22 2432.40 336.341   6
  -4  -1 -21 2245.63 542.852   2
  -4   1 -21 2209.09 468.131   2
   4   1 -21 2482.16 348.100   6
   4  -1 -21 2011.27 306.413   6
  -4   1 -20 609.407 240.804   2
   4   1 -20 727.348 197.233   6
   4  -1 -20 782.952 184.409   6
   4   1 -19 8429.50 593.920   6
   4  -1 -19 7874.49 602.172   6
  -4  -1 -19 8623.58 1013.78   2
  -4  -1 -18 1034.69 355.918   2
   4   1 -18 1225.38 229.831   6
   4  -1 -18 903.635 201.935   6
  -4  -1 -17 2398.60 497.099   2
   4   1 -17 2019.96 279.903   6
   4  -1 -17 1995.23 298.201   6
   4   1 -16 5112.34 437.142   6
   4  -1 -16 5470.46 480.428   6
  -4  -1 -16 4719.38 671.385   2
   4   1 -15 7988.85 535.018   6
   4  -1 -15 8438.28 583.040   6
   4   1 -14 1811.48 248.070   6
   4  -1 -14 1873.52 271.011   6
  -4  -1 -13 1056.07 135.554   6
   4   1 -13 1150.34 195.280   6
   4  -1 -13 1263.61 212.151   6
  -4   1 -13 1199.72 128.124   5
  -4   1 -12 733.128 101.619   5
  -4  -1 -12 528.323 91.1909   6
   4   1 -12 615.475 142.542   6
   4  -1 -12 614.647 148.902   6
  -4  -1 -11 5565.36 310.251   6
   4   1 -11 5502.72 399.548   6
   4  -1 -11 6276.15 456.563   6
  -4   1 -11 5848.83 295.196   5
  -4  -1 -10 6195.60 324.337   6
   4   1 -10 5965.82 410.467   6
   4  -1 -10 6283.03 448.553   6
  -4   1 -10 6190.31 311.988   5
  -4  -1  -9 5871.73 316.228   6
   4  -1  -9 8006.93 485.077   6
   4   1  -9 7754.14 456.211   6
  -4   1  -9 7670.18 352.588   5
  -4  -1  -8 1943.78 176.959   6
   4   1  -8 2178.80 237.540   6
   4  -1  -8 2048.10 234.744   6
  -4   1  -8 2318.61 194.966   5
  -4  -1  -7 9474.50 398.462   6
   4   1  -7 9419.04 480.045   6
   4  -1  -7 9332.50 504.444   6
  -4   1  -7 9496.46 405.611   5
   4  -1  -6 1614.84 157.212   1
   4   1  -6 1491.07 185.152   6
  -4  -1  -6 1563.31 164.340   6
   4  -1  -6 1787.63 206.119   6
   4  -1  -5 9197.94 395.567   1
  -4  -1  -5 10426.6 430.928   6
   4  -1  -5 10203.2 482.164   6
   4   1  -5 10338.5 487.016   6
  -4   1  -5 10635.3 480.618   3
   4   1  -4 5549.21 280.743   3
   4  -1  -4 6710.59 342.385   1
   4   1  -4 6837.79 393.027   6
  -4  -1  -4 6794.92 346.147   6
   4  -1  -4 6672.91 370.638   6
  -4   1  -4 7836.32 378.035   3
   4   1  -3 8102.32 350.208   3
   4   1  -3 8693.36 433.185   6
  -4  -1  -3 9044.74 415.474   6
   4  -1  -3 8580.74 410.517   6
   4  -1  -3 8318.01 394.165   1
  -4   1  -3 9445.25 399.890   3
   4   1  -2 4254.23 247.185   3
   4  -1  -2 3898.26 273.482   1
   4   1  -2 4027.82 289.506   6
  -4  -1  -2 4260.63 279.988   6
   4  -1  -2 4153.53 269.195   6
  -4   1  -2 4298.95 250.729   3
   4   1  -1 4997.51 313.968   6
   4  -1  -1 4484.13 297.599   1
  -4  -1  -1 4604.52 304.514   6
   4  -1  -1 4774.03 276.088   6
  -4   1  -1 4806.46 249.656   3
   4   1  -1 4516.32 261.180   3
   4   1   0 758.883 108.597   3
   4   1   0 803.673 126.545   6
   4  -1   0 921.816 114.137   6
  -4  -1   0 934.856 135.675   6
  -4   1   0 812.728 98.7783   3
   4  -1   0 619.674 115.843   1
  -4   1   1 5018.41 223.285   3
   4   1   1 5095.08 315.277   6
   4  -1   1 5128.31 268.724   6
   4  -1   1 4868.18 328.609   1
   4  -1   1 5243.86 329.268   5
   4   1   1 5226.82 293.525   3
   4   1   2 3749.67 262.417   6
   4  -1   2 3511.39 217.158   6
   4  -1   2 3360.76 285.333   1
   4   1   2 3677.89 258.925   3
   4  -1   2 3914.68 283.318   5
   4   1   3 9801.10 442.075   6
   4  -1   3 9578.22 345.714   6
   4  -1   3 9270.06 497.819   1
   4   1   3 10673.5 459.131   3
   4  -1   3 10793.4 484.224   5
   4   1   4 6420.20 356.872   6
   4  -1   4 6291.59 261.538   6
   4  -1   4 5983.10 398.818   1
   4  -1   4 6733.10 447.915   4
   4  -1   4 6559.30 521.805   2
   4   1   4 5646.63 289.938   5
   4   1   4 6851.32 374.761   3
   4  -1   4 6657.19 380.908   5
   4   1   5 10350.8 477.475   6
   4  -1   5 10700.2 336.398   6
   4  -1   5 11435.6 699.941   2
   4  -1   5 11286.7 605.472   4
   4  -1   5 10531.0 547.934   1
   4   1   5 9560.98 375.957   5
   4   1   5 11403.0 507.002   3
   4  -1   6 2273.62 137.068   6
   4  -1   6 2224.32 304.370   2
   4  -1   6 2325.26 277.478   4
   4  -1   6 2234.00 258.618   1
   4   1   6 2482.30 238.112   3
   4   1   6 2163.65 165.000   5
   4  -1   7 10385.8 675.641   2
   4  -1   7 10980.8 628.625   4
   4  -1   7 10004.2 569.536   1
   4   1   7 10602.9 513.844   3
   4   1   7 9474.68 350.733   5
   4   1   8 2441.05 267.082   1
   4  -1   8 2457.86 327.744   2
   4  -1   8 2537.51 304.426   4
   4  -1   8 2331.36 281.970   1
   4   1   8 2782.11 264.727   3
   4   1   8 2584.60 168.070   5
   4   1   9 7801.40 498.426   1
   4  -1   9 8434.62 577.416   4
   4   1   9 7813.89 462.502   3
   4  -1   9 8169.94 555.022   1
   4   1   9 7834.50 293.871   5
   4   1  10 6420.13 229.395   5
   4  -1  10 7684.68 452.005   5
   4   1  10 7324.12 500.738   1
   4  -1  10 8329.61 589.384   4
   4   1  10 8176.90 483.842   3
   4  -1  10 7703.50 553.112   1
   4  -1  11 5613.53 486.704   1
   4  -1  11 5416.39 371.391   5
   4   1  11 5350.98 429.933   1
   4  -1  11 5758.70 496.385   4
   4   1  12 561.002 138.988   1
   4  -1  12 560.784 167.114   1
   4  -1  12 514.863 114.541   5
   4  -1  12 542.145 178.971   4
   4   1  13 1665.71 265.215   1
   4  -1  13 1491.59 268.137   1
   4  -1  13 1588.89 279.989   4
   4   1  14 1425.37 238.236   1
   4  -1  14 1788.75 321.534   1
   4  -1  14 1833.60 300.082   4
   4  -1  15 10556.1 772.626   1
   4  -1  15 10346.1 759.331   4
   4   1  15 9720.31 673.826   1
   4  -1  16 5346.14 572.729   1
   4  -1  16 5571.26 578.734   4
   4   1  16 5179.75 519.983   1
   4  -1  17 2861.38 424.578   1
   4  -1  17 3608.75 475.237   4
   4   1  17 2785.13 384.729   1
   4  -1  18 968.350 277.914   1
   4   1  18 1166.36 247.998   1
   4   1  19 10286.4 817.450   1
   4  -1  19 9794.99 871.804   1
   4   1  20 906.714 256.886   1
   4  -1  20 836.242 255.691   1
   4   1  21 2019.12 383.342   1
   4   1  22 4160.01 586.435   1
   4   1  23 3360.25 531.813   1
   4   2 -22 1735.36 292.432   6
   4   2 -21 8086.95 617.947   6
   4  -2 -21 6757.78 595.918   6
  -4  -2 -21 7036.35 975.683   2
  -4  -2 -20 885.481 333.010   2
   4   2 -20 681.367 187.380   6
   4  -2 -20 1007.39 248.536   6
   4   2 -19 4308.12 440.659   6
   4  -2 -19 4675.46 494.531   6
  -4  -2 -19 5670.08 817.597   2
   4   2 -18 4651.25 442.822   6
   4  -2 -18 5079.74 505.943   6
  -4  -2 -18 4712.48 740.353   2
   4   2 -17 7650.33 551.917   6
   4  -2 -17 8445.67 647.317   6
   4   2 -16 2729.93 321.288   6
   4  -2 -16 3217.59 390.398   6
  -4   2 -16 2828.85 229.208   5
   4   2 -15 9369.66 588.757   6
   4  -2 -15 11520.3 736.615   6
  -4   2 -15 9683.68 448.940   5
   4   2 -14 3288.20 339.103   6
   4  -2 -14 3996.15 432.717   6
  -4   2 -14 3294.14 260.911   5
   4   2 -13 8098.55 523.275   6
   4  -2 -13 9609.86 649.512   6
  -4   2 -13 8069.23 413.448   5
  -4   2 -12 654.030 114.636   5
   4   2 -12 592.181 129.154   6
   4  -2 -12 1018.17 221.273   6
   4  -2 -11 8765.13 372.767   1
   4   2 -11 6747.99 453.093   6
   4  -2 -11 8784.74 602.531   6
  -4   2 -11 7053.54 396.678   5
   4  -2 -10 7083.56 330.874   1
   4   2 -10 6087.57 422.904   6
   4  -2 -10 6662.63 522.005   6
  -4   2 -10 5928.64 366.245   5
   4   2  -9 26273.4 917.676   6
   4  -2  -9 30809.9 1106.56   6
  -4   2  -9 26417.4 837.093   5
   4  -2  -9 30078.0 764.270   1
   4   2  -8 2194.71 244.600   6
   4  -2  -8 2639.40 302.464   6
   4  -2  -8 2532.40 200.678   1
  -4   2  -8 2639.68 244.127   5
   4   2  -7 15766.4 668.386   6
   4  -2  -7 17488.3 766.034   6
   4  -2  -7 16517.3 563.473   1
  -4   2  -7 15858.2 631.369   5
   4   2  -6 15075.4 653.176   6
   4  -2  -6 17419.2 740.053   6
   4  -2  -6 16142.5 570.547   1
  -4   2  -6 15547.2 629.925   5
   4   2  -5 23686.2 823.721   6
   4  -2  -5 23598.6 866.571   6
   4  -2  -5 23607.5 727.072   1
  -4   2  -5 23723.8 798.453   5
  -4   2  -4 1056.82 161.283   5
   4  -2  -4 1628.29 207.562   6
  -4  -2  -4 1407.73 205.846   4
   4   2  -4 1081.67 170.482   6
   4  -2  -4 1234.28 162.465   1
   4   2  -3 21166.3 755.067   6
   4  -2  -3 20792.8 732.028   6
  -4  -2  -3 20206.0 779.679   4
   4  -2  -3 20095.8 696.787   1
  -4   2  -3 21539.4 758.300   5
   4   2  -2 8215.40 454.869   6
   4  -2  -2 8178.65 417.810   6
   4  -2  -2 8724.39 453.175   1
  -4   2  -2 8608.10 471.858   5
   4   2  -1 12268.4 563.585   6
   4  -2  -1 12404.9 493.992   6
  -4   2  -1 12349.9 577.180   5
   4  -2  -1 12337.6 560.050   1
  -4   2   0 17.3988 47.5535   5
   4   2   0 16.3406 26.7710   3
   4   2   0 94.4598 71.1637   6
  -4  -2   0 13.7098 41.6771   4
   4  -2   0 137.945 60.7966   6
   4  -2   0 119.018 67.0809   1
   4   2   1 10013.3 496.431   3
   4   2   1 9665.69 495.221   6
   4  -2   1 9192.91 384.436   6
  -4  -2   1 7852.51 391.496   4
  -4   2   1 10518.9 531.639   5
   4  -2   1 9954.62 526.528   1
   4   2   2 6743.58 408.693   3
   4   2   2 7284.02 430.274   6
   4  -2   2 6946.28 308.497   6
  -4  -2   2 6010.43 313.115   4
  -4   2   2 7689.91 458.290   5
   4  -2   2 7396.62 460.430   1
   4   2   3 24672.2 810.638   3
   4  -2   3 24554.1 888.515   1
   4   2   3 24404.4 824.753   6
   4  -2   3 23245.8 564.512   6
  -4  -2   3 20932.6 572.694   4
   4  -2   4 2022.29 255.135   1
   4  -2   4 1760.90 234.387   2
   4   2   4 2036.47 227.324   6
   4  -2   4 1891.26 132.431   6
  -4  -2   4 1783.59 127.445   4
  -4   2   4 1136.36 76.6068   3
   4   2   4 2136.31 229.457   3
   4  -2   5 19904.1 856.052   1
   4  -2   5 19857.1 457.555   6
   4  -2   5 19610.2 838.444   2
   4   2   5 19695.0 748.186   3
   4  -2   6 14152.9 320.245   6
   4  -2   6 15283.3 757.081   1
   4  -2   6 13313.0 671.577   2
   4   2   6 14105.0 630.566   3
   4  -2   7 20569.7 919.372   1
   4  -2   7 19164.2 832.033   2
   4   2   7 20229.9 794.268   3
   4  -2   8 2957.43 356.304   1
   4  -2   8 3433.79 332.374   2
   4   2   8 2888.84 171.664   5
   4   2   8 3518.25 326.115   3
   4   2   9 23807.6 596.563   5
   4  -2   9 25013.5 1096.32   1
   4  -2   9 28332.8 1009.68   2
   4  -2   9 26419.8 1131.33   4
   4   2   9 22043.5 515.836   5
   4   2   9 24952.2 931.102   3
   4   2  10 4082.83 156.848   5
   4  -2  10 6552.44 551.253   1
   4  -2  10 6995.08 574.539   4
   4   2  10 6967.57 481.437   3
   4   2  10 3866.42 141.510   5
   4   2  11 9868.22 602.995   1
   4  -2  11 9423.86 700.507   1
   4  -2  11 11726.3 772.171   4
   4   2  11 9967.92 602.553   3
   4   2  12 284.845 121.760   3
   4  -2  12 137.763 104.627   1
   4   2  12 233.262 96.6578   1
   4  -2  12 134.151 107.341   4
   4   2  13 6446.32 512.416   1
   4  -2  13 7657.95 645.194   4
   4   2  13 7252.73 532.372   3
   4  -2  13 7377.14 643.304   1
   4   2  14 4001.35 419.606   1
   4  -2  14 4040.22 502.459   1
   4  -2  14 4492.89 502.461   4
   4   2  14 4509.19 429.713   3
   4   2  15 13871.2 814.267   1
   4  -2  15 12926.4 928.120   1
   4  -2  15 14990.2 957.475   4
   4   2  15 14012.6 784.329   3
   4  -2  16 2758.75 416.495   4
   4   2  16 2604.28 352.596   1
   4  -2  16 2339.07 416.768   1
   4  -2  17 7185.76 698.848   4
   4  -2  17 6866.21 705.907   1
   4   2  17 6403.13 579.056   1
   4  -2  18 7192.80 713.642   4
   4   2  18 6534.50 616.393   1
   4  -2  19 6858.58 712.477   4
   4   2  19 7679.30 704.451   1
   4  -2  20 1072.52 283.975   4
   4   2  20 1229.76 301.899   1
   4   2  21 7597.76 733.451   1
   4  -2  21 7868.57 813.545   4
   4   3 -21 1142.91 238.524   6
   4   3 -20 1463.37 258.183   6
   4   3 -19 370.343 125.535   6
   4  -3 -19 229.976 131.903   6
   4   3 -18 429.861 158.404   6
   4  -3 -18 775.693 229.123   6
   4   3 -17 1326.20 227.901   6
   4  -3 -17 948.974 228.403   6
  -4   3 -16 1617.63 231.062   5
   4   3 -16 1410.42 245.460   6
   4  -3 -16 1882.50 313.959   6
  -4   3 -15 398.530 110.504   5
   4   3 -15 732.779 164.630   6
   4  -3 -15 713.390 195.263   6
   4   3 -14 5924.27 472.655   6
   4  -3 -14 5790.88 548.961   6
  -4   3 -14 5657.73 434.322   5
   4   3 -13 2876.71 318.448   6
   4  -3 -13 3013.46 393.666   6
  -4   3 -13 3107.85 322.889   5
   4   3 -12 10159.0 605.909   6
   4  -3 -12 11161.8 751.131   6
  -4   3 -12 10971.7 612.564   5
  -4   3 -11 581.813 141.679   5
   4   3 -11 697.764 158.578   6
   4  -3 -11 853.307 207.202   6
   4   3 -10 5952.71 447.503   6
   4  -3 -10 6277.57 539.783   6
  -4   3 -10 6122.58 454.529   5
  -4   3  -9 1409.69 213.471   5
   4   3  -9 1297.69 197.129   6
   4  -3  -9 1727.31 285.559   6
   4   3  -8 2615.42 287.408   6
   4  -3  -8 2731.28 342.098   6
  -4   3  -8 2648.75 297.300   5
  -4   3  -7 104.809 79.6286   5
   4   3  -7 38.2602 41.9850   6
   4  -3  -7 59.7590 109.833   6
  -4   3  -6 853.608 170.301   5
   4   3  -6 843.594 158.870   6
   4  -3  -6 684.105 178.265   6
  -4   3  -5 549.510 138.800   5
   4   3  -5 632.520 152.212   6
   4  -3  -5 500.141 145.051   6
   4   3  -4 2586.94 281.145   6
   4  -3  -4 3140.83 335.673   1
   4  -3  -4 2593.64 302.272   6
  -4   3  -4 2679.76 292.070   5
  -4   3  -3 366.625 116.714   5
   4  -3  -3 555.176 144.024   1
   4   3  -3 631.273 147.920   6
   4  -3  -3 439.501 125.301   6
   4   3  -2 10058.0 561.787   6
   4  -3  -2 10106.9 603.186   1
   4  -3  -2 9954.61 542.114   6
  -4   3  -2 10471.9 585.968   5
   4   3  -1 2243.64 264.982   6
   4  -3  -1 2138.25 275.149   1
   4  -3  -1 2150.81 241.403   6
  -4   3  -1 2304.05 268.483   5
   4   3   0 16221.5 737.105   6
   4  -3   0 16080.4 774.722   1
   4  -3   0 16084.2 641.065   6
  -4   3   0 16025.0 750.302   5
   4   3   1 1902.95 247.944   6
   4  -3   1 1894.57 268.569   1
   4  -3   1 1841.23 200.280   6
  -4   3   1 2167.42 268.723   5
   4   3   2 10455.5 635.704   3
   4   3   2 11112.1 613.795   6
   4  -3   2 9289.12 605.448   1
   4  -3   2 10149.2 448.189   6
  -4   3   2 10228.8 589.293   5
   4  -3   3 448.337 100.689   2
  -4   3   3 704.258 157.334   5
   4   3   3 735.924 163.877   3
   4  -3   3 695.780 107.735   6
   4  -3   3 759.348 177.071   1
   4   3   4 2402.03 298.716   3
   4  -3   4 1869.67 277.569   1
   4  -3   4 1496.12 176.545   2
   4  -3   4 1987.34 159.708   6
  -4   3   4 1904.06 260.231   5
  -4   3   5 511.321 148.879   5
   4   3   5 574.528 150.105   3
   4  -3   5 292.397 111.590   1
   4   3   5 542.441 121.191   5
   4  -3   5 458.036 69.7775   6
   4  -3   5 281.161 68.2762   2
  -4   3   6 1261.35 217.926   5
   4   3   6 878.652 183.909   3
   4   3   6 1180.66 165.711   5
   4  -3   6 909.988 80.2357   6
   4  -3   6 1126.34 139.837   2
   4  -3   6 730.525 189.534   1
   4  -3   7-54.0930 77.4003   1
   4   3   7 84.3977 72.2198   3
  -4   3   7 37.5762 22.1045   3
   4   3   7 9.47947 35.1594   5
   4  -3   7 18.8586 13.4087   6
   4  -3   7 23.4183 10.1093   6
   4   3   8 2198.89 209.835   5
   4  -3   8 1732.95 295.108   1
   4   3   8 2116.74 275.394   3
   4   3   9 1519.60 152.788   5
   4  -3   9 1666.15 296.795   1
   4   3   9 1812.52 262.174   3
   4  -3  10 5649.04 570.794   1
   4   3  10 6006.68 495.914   3
   4   3  11 455.214 151.833   3
   4  -3  12 11867.0 837.576   4
   4   3  12 11541.4 722.182   3
   4   3  13 3874.96 418.133   1
   4  -3  13 3590.08 473.201   4
   4   3  13 3864.74 422.708   3
   4   3  14 6058.19 525.862   1
   4  -3  14 5572.67 597.312   4
   4   3  14 6438.47 560.093   3
   4   3  15 372.127 128.136   3
   4  -3  15 392.282 182.980   4
   4   3  15 190.992 116.225   1
   4   3  16 2115.23 334.011   3
   4  -3  16 1572.55 329.635   4
   4   3  16 1571.75 293.473   1
   4   3  17 1131.04 242.008   3
   4   3  17 1092.20 242.844   1
   4  -3  17 986.213 285.978   4
   4   3  18 717.516 215.841   3
   4   3  18 545.858 186.336   1
   4  -3  18 550.560 184.854   4
   4   3  19 32.7697 96.5996   1
   4  -3  19-18.0709 96.9340   4
   4  -3  20 1367.24 337.198   4
   4   4 -19 4119.83 457.520   6
   4   4 -18 1448.74 270.786   6
   4   4 -17 4414.54 462.340   6
   4  -4 -17 3444.40 449.651   6
  -4   4 -17 4394.29 487.788   5
   4   4 -16 3774.17 414.515   6
   4  -4 -16 3526.11 449.963   6
  -4   4 -16 3558.23 437.845   5
   4   4 -15 4415.92 444.931   6
   4  -4 -15 3997.26 470.884   6
  -4   4 -15 4255.63 478.681   5
   4   4 -14 4611.11 434.609   6
   4  -4 -14 3560.82 440.042   6
  -4   4 -14 4145.32 466.263   5
  -4   4 -13 1710.57 299.109   5
   4   4 -13 1793.90 277.029   6
   4  -4 -13 1873.03 308.692   6
   4   4 -12 5427.35 471.019   6
   4  -4 -12 5078.98 502.689   6
  -4   4 -12 5350.54 524.449   5
   4   4 -11 4772.88 434.907   6
   4  -4 -11 4942.37 494.854   6
  -4   4 -11 5121.53 507.278   5
   4   4 -10 7274.68 532.539   6
   4  -4 -10 7056.22 586.390   6
  -4   4 -10 6701.11 581.719   5
   4   4  -9 4766.40 428.403   6
   4  -4  -9 3712.17 427.899   6
  -4   4  -9 4698.78 481.886   5
   4   4  -8 9303.31 596.169   6
   4  -4  -8 8583.24 638.317   6
  -4   4  -8 10174.6 700.337   5
   4   4  -7 11275.4 663.811   6
   4  -4  -7 10536.1 692.565   6
  -4   4  -7 11532.0 743.662   5
   4   4  -6 7100.50 520.763   6
   4  -4  -6 6186.84 530.471   6
  -4   4  -6 7147.20 572.497   5
   4   4  -5 5650.60 470.075   6
   4  -4  -5 4952.91 449.673   6
  -4   4  -5 6047.35 523.171   5
   4   4  -4 9671.60 620.526   6
   4  -4  -4 9538.32 623.294   6
  -4   4  -4 10149.0 677.907   5
   4   4  -3 9891.14 632.984   6
   4  -4  -3 8842.45 597.738   6
  -4   4  -3 8855.95 637.011   5
   4   4  -2 7504.25 556.099   6
   4  -4  -2 6665.17 508.299   6
  -4   4  -2 7359.21 560.641   5
   4   4  -1 3445.59 372.895   5
   4   4  -1 3198.44 355.964   6
   4  -4  -1 3139.98 337.107   6
  -4   4  -1 3015.68 364.219   5
   4   4   0 6792.19 520.504   5
   4   4   0 6758.22 518.715   6
   4  -4   0 6214.62 457.890   6
  -4   4   0 7146.19 545.657   5
   4   4   1 4871.15 431.099   5
   4  -4   1 4601.03 375.447   6
  -4   4   1 4156.84 434.981   5
   4   4   2 7178.74 516.936   5
   4  -4   2 6691.78 436.430   6
  -4   4   2 5898.22 507.004   5
   4   4   3 8072.21 546.728   5
   4  -4   3 8677.87 482.171   6
  -4   4   3 9168.18 622.529   5
   4   4   4 10607.7 794.746   3
   4   4   4 10468.4 615.819   5
   4  -4   4 10762.9 501.555   6
  -4   4   4 9359.93 633.908   5
   4   4   5 7629.59 671.157   3
   4   4   5 8618.22 547.033   5
   4  -4   5 9046.97 425.192   6
  -4   4   5 8330.55 602.152   5
   4   4   6 5839.27 566.760   3
   4   4   6 6767.24 473.262   5
   4  -4   6 7524.08 351.815   6
  -4   4   6 6686.93 537.982   5
   4   4   7 10135.5 753.645   3
   4   4   7 11301.4 590.458   5
  -4   4   7 10632.9 695.466   5
   4   4   8 8066.03 656.684   3
   4   4   8 8861.85 496.881   5
  -4   4   8 8951.64 640.726   5
   4   4   9 6187.72 572.319   3
   4   4  10 8050.01 658.334   3
   4   4  11 3703.68 438.669   3
   4   4  12 4620.78 504.164   3
   4   4  13 3242.94 431.191   3
   4   4  14 3882.18 476.177   3
   4   4  15 3090.87 406.264   1
   4  -4  15 3025.72 485.039   4
   4   4  15 3150.97 440.269   3
   4   4  16 4524.48 498.120   1
   4  -4  16 3607.78 533.225   4
   4   4  16 4003.17 500.033   3
   4   4  17 5958.70 577.970   1
   4  -4  17 4208.11 594.929   4
   4   4  17 5441.07 599.975   3
  -4   5 -17 251.765 185.900   5
  -4   5 -16 1264.75 302.104   5
   4  -5 -16 1068.04 310.359   2
  -4   5 -15 547.249 176.107   5
   4   5 -15 492.521 173.263   6
   4  -5 -15 6.74563 71.7511   2
  -4   5 -14 1424.05 320.365   5
   4   5 -14 1738.60 343.484   5
   4   5 -14 1911.57 293.181   6
   4  -5 -14 1694.91 366.164   2
   4  -5 -14 954.373 223.468   6
  -4   5 -13 21.3232 71.3587   5
   4   5 -13 94.0063 130.712   5
   4   5 -13 148.696 87.0085   6
   4  -5 -13 254.552 142.807   2
   4  -5 -13 43.5137 60.5357   6
  -4   5 -12 529.970 199.814   5
   4   5 -12 875.976 234.385   5
   4   5 -12 989.488 226.840   6
   4  -5 -12 483.461 154.711   6
  -4   5 -11 980.751 267.509   5
   4   5 -11 816.110 240.982   5
   4   5 -11 728.897 205.607   6
   4  -5 -11 447.812 153.716   6
  -4   5 -10 679.861 234.934   5
   4   5 -10 754.285 214.620   5
   4   5 -10 576.459 178.395   6
   4  -5 -10 396.379 99.9525   6
  -4   5  -9 845.770 237.399   5
   4   5  -9 742.529 218.216   5
   4   5  -9 897.586 222.741   6
   4  -5  -9 524.273 149.853   6
   4   5  -8 5244.30 540.481   5
   4   5  -8 4868.81 479.466   6
  -4   5  -8 5867.97 627.822   5
  -4   5  -7 1685.59 336.677   5
   4   5  -7 2103.70 343.872   5
   4   5  -7 2217.09 322.141   6
   4   5  -6 6188.33 574.697   5
   4   5  -6 6970.44 589.188   6
  -4   5  -6 5476.15 601.104   5
  -4   5  -5 957.563 256.504   5
   4   5  -5 1030.24 253.522   5
   4   5  -5 872.137 216.141   6
   4   5  -4 3330.17 410.807   6
   4   5  -4 2375.43 356.658   5
  -4   5  -4 2837.46 432.586   5
  -4   5  -3 1617.84 317.626   5
   4   5  -3 1288.22 259.919   5
   4   5  -2 2306.89 344.282   5
  -4   5  -2 2441.96 377.115   5
  -4   5  -1 248.677 108.300   5
   4   5  -1 300.790 130.017   5
  -4   5   0-70.8704 104.784   5
   4   5   0 110.071 85.4423   5
  -4   5   1 260.007 109.655   5
   4   5   1 359.025 131.195   5
  -4   5   2 1658.66 304.545   5
   4   5   2 2114.44 319.124   5
  -4   5   3 1436.98 298.250   5
   4   5   3 1932.37 297.344   5
   4   5   4 3315.45 381.684   5
  -4   5   4 2759.70 395.002   5
  -4   5   5 1165.75 254.551   5
   4   5   5 1365.57 353.953   3
   4   5   5 1521.48 262.678   5
   4   5   6 5538.78 685.577   3
   4   5   6 6323.75 499.590   5
  -4   5   6 5915.40 569.580   5
  -4   5   7 1976.36 328.830   5
   4   5   7 2092.22 417.479   3
   4   5   7 1864.83 262.661   5
   4   5   8 6191.88 693.418   3
  -4   5   8 5584.06 558.458   5
  -4   5   9 841.411 225.113   5
   4   5   9 503.169 217.536   3
  -4   5  10 455.619 175.412   5
   4   5  10 414.381 177.325   3
   4   5  11 751.522 235.802   3
   4   5  12 1127.95 296.586   3
   4   5  13 202.953 105.634   3
   4   5  14 1052.50 306.580   3
  -4   6 -11 2987.14 523.428   5
   4  -6 -11 2111.84 340.541   6
  -4   6 -10 7188.91 780.563   5
  -4   6  -9 2457.76 467.259   5
   4   6  -9 1972.63 369.930   5
  -4   6  -8 648.943 245.083   5
   4   6  -8 1073.64 289.130   5
  -4   6  -7 1714.57 388.387   5
   4   6  -7 2187.22 378.446   5
   4   6  -6 3121.87 457.775   5
  -4   6  -6 2167.77 430.457   5
  -4   6  -5 1447.15 332.884   5
   4   6  -5 1256.56 281.146   5
  -4   6  -4 1147.13 289.240   5
   4   6  -4 927.263 250.933   5
   4   6  -3 5899.16 617.825   5
  -4   6  -3 5862.24 668.235   5
   4   6  -2 10337.4 808.682   5
  -4   6  -2 10352.6 889.156   5
   4   6  -1 4758.01 545.690   5
  -4   6  -1 5347.78 631.729   5
  -4   6   0 270.111 148.875   5
   4   6   0 77.5319 109.409   5
   4   6   1 5910.12 584.353   5
  -4   6   1 6209.26 668.888   5
   4   6   2 11651.6 808.409   5
  -4   6   2 11874.3 917.377   5
   4   6   3 5150.38 525.235   5
  -4   6   3 4597.52 585.904   5
  -4   6   4 1116.36 271.362   5
   4   6   4 777.626 194.426   5
  -4   6   5 1588.97 347.932   5
   4   6   5 2279.77 512.663   3
   4   6   5 2198.46 330.259   5
  -4   6   6 2351.95 418.928   5
   4   6   6 3446.78 641.848   3
  -4   6   7 2297.12 407.361   5
   4   6   7 2172.79 507.041   3
  -4   6   8 393.357 201.932   5
   4   6   8 282.069 158.462   3
  -4   6   9 3077.64 482.681   5
  -4   6  10 6428.97 669.430   5
   4   7  -1 1010.61 252.955   5
   4   7   0-58.7759 107.272   5
   4   7   1 911.711 226.630   5
   4   7   2 685.756 207.870   5
   5   0 -20-73.0553 86.0472   6
   5   0 -19 8278.78 637.387   6
   5   0 -18-2.51516 58.0934   6
   5   0 -17 7532.79 577.142   6
   5   0 -16-52.3754 88.1358   6
   5   0 -15 3019.66 350.301   6
   5   0 -14 26.5106 66.4771   6
   5   0 -13 580.015 148.617   6
   5   0 -12 34.1729 64.2931   6
   5   0 -11 630.051 147.401   6
   5   0 -10 95.1622 71.6284   6
   5   0  -9 8802.13 530.154   6
   5   0  -8 51.8777 54.6812   6
  -5   0  -8 94.8790 36.0356   6
   5   0  -7 16433.0 703.566   6
  -5   0  -7 14958.0 482.624   6
   5   0  -6 58.8380 67.8007   6
  -5   0  -6 27.9019 40.7082   6
   5   0  -5 21972.7 793.549   6
  -5   0  -5 21059.2 641.833   6
   5   0  -4 18.8687 34.3595   6
  -5   0  -4 20.3633 23.4369   6
   5   0  -3 6666.73 400.483   6
  -5   0  -3 6132.82 345.105   6
   5   0  -2 31.7594 38.3631   4
   5   0  -2 16.8952 37.5820   6
  -5   0  -2 2.85815 31.9766   6
   5   0  -1 707.185 124.911   4
   5   0  -1 910.269 143.757   6
   5   0   0 7.39261 22.4198   4
   5   0   0 3.04250 25.4858   6
   5   0   1 625.188 106.822   6
   5   0   1 623.159 123.363   4
   5   0   2-34.7307 57.8389   1
   5   0   2 16.2580 31.4085   6
   5   0   2-11.1881 24.7770   4
   5   0   3 5859.10 418.017   1
   5   0   3 6928.75 363.047   6
   5   0   3 6962.83 452.280   4
   5   0   4 29.3636 49.2422   6
   5   0   4 13.5682 65.4648   4
   5   0   4 72.3246 55.5134   1
   5   0   5 24097.4 722.124   6
   5   0   5 21909.2 869.387   1
   5   0   5 25553.8 960.174   4
   5   0   5 22560.6 749.404   5
   5   0   6 8.02263 34.4696   5
   5   0   6 15.6194 48.8209   6
   5   0   6 113.152 87.3170   4
   5   0   6-16.1916 44.2587   1
   5   0   7 15960.7 766.110   1
   5   0   7 18913.1 866.007   4
   5   0   8-25.8293 39.5371   1
   5   0   8 51.0939 47.2229   4
   5   0   9 8900.74 591.951   1
   5   0  10-17.0640 68.3634   1
   5   0  11 552.874 156.991   1
   5   0  12-1.69975 72.7229   1
   5   0  13-29.1332 90.5944   1
   5   0  14 111.181 116.043   1
   5   0  15 4012.61 471.644   1
   5   0  16 49.7184 65.2541   1
   5   0  17 9565.64 794.058   1
   5   0  18-85.3661 76.2134   1
   5   0  19 11047.1 937.441   1
   5   0  20 428.151 198.281   1
   5   0  21 8242.76 853.811   1
   5   0  22-134.223 168.646   1
   5   1 -20 1560.23 283.712   6
   5   1 -19 66.1212 74.9766   6
   5  -1 -19-19.0267 58.8350   6
   5   1 -18 2180.67 313.170   6
   5  -1 -18 1970.05 305.643   6
   5   1 -17 521.924 156.681   6
   5  -1 -17 456.702 154.494   6
   5   1 -16 2340.53 313.945   6
   5  -1 -16 2309.50 327.868   6
   5   1 -15 1083.25 214.894   6
   5  -1 -15 1089.68 224.683   6
   5   1 -14 5107.75 446.165   6
   5  -1 -14 4943.47 466.095   6
   5  -1 -13 929.590 121.167   1
   5   1 -13 1400.59 222.134   6
   5  -1 -13 1378.22 241.952   6
   5   1 -12 6614.69 480.314   6
   5  -1 -12 6987.62 521.045   6
   5  -1 -11 2407.43 205.421   1
   5   1 -11 3091.20 326.327   6
   5  -1 -11 2987.57 331.040   6
   5  -1 -10 3923.40 272.840   1
   5   1 -10 4921.31 397.654   6
   5  -1 -10 4275.53 388.043   6
   5  -1  -9 2935.53 245.168   1
   5   1  -9 3537.17 327.563   6
   5  -1  -9 3562.53 335.507   6
   5   1  -9 2453.49 161.633   3
   5  -1  -8 3556.35 267.641   1
   5   1  -8 3762.19 336.361   6
   5  -1  -8 3466.21 335.263   6
   5   1  -8 2963.88 183.420   3
   5   1  -7 809.606 94.8851   3
   5   1  -7 845.313 165.350   6
   5  -1  -7 936.132 142.790   1
  -5  -1  -7 832.084 122.399   6
   5  -1  -7 901.022 159.728   6
   5  -1  -6 3768.73 281.680   1
   5   1  -6 4349.03 349.682   6
   5  -1  -6 4103.21 329.471   6
   5   1  -6 3182.85 207.985   3
   5  -1  -5 1156.95 165.532   1
   5   1  -5 1387.27 194.369   6
   5  -1  -5 1326.77 176.410   6
   5   1  -5 1224.89 133.649   3
   5  -1  -4 4818.58 332.742   1
   5   1  -4 5080.49 371.918   6
   5  -1  -4 4734.33 336.619   6
   5   1  -4 4243.36 265.365   3
  -5   1  -4 5220.51 342.851   3
  -5   1  -3 4823.75 313.805   3
   5  -1  -3 4697.76 333.790   1
   5   1  -3 4663.40 350.816   6
   5  -1  -3 4602.46 325.867   6
   5   1  -3 4429.79 281.789   3
  -5   1  -2 8667.04 410.560   3
   5  -1  -2 8256.97 452.263   1
   5   1  -2 7878.00 462.834   6
   5  -1  -2 7771.57 419.940   6
   5   1  -2 9070.62 415.186   3
  -5   1  -1 1554.08 163.229   3
   5   1  -1 2411.67 240.938   6
   5  -1  -1 2109.71 232.550   1
   5  -1  -1 1972.34 200.085   6
   5  -1  -1 2072.59 228.938   4
   5   1  -1 2305.63 215.339   3
   5   1   0 8943.38 473.611   6
   5  -1   0 8566.64 413.989   6
   5  -1   0 7899.47 472.309   1
   5  -1   0 7897.74 476.400   4
   5   1   1 2864.73 263.615   6
   5  -1   1 2550.00 213.122   6
   5  -1   1 2655.44 275.559   1
   5  -1   1 2748.68 276.576   4
   5   1   1 2929.38 262.981   3
   5   1   2 7424.26 428.536   6
   5  -1   2 7094.22 351.387   6
   5  -1   2 7668.20 477.666   1
   5  -1   2 7451.96 487.549   4
   5   1   2 8607.10 448.955   3
   5   1   3 6429.80 393.707   6
   5  -1   3 6091.29 313.321   6
   5  -1   3 5913.63 429.103   1
   5  -1   3 6514.25 458.911   4
   5   1   3 6260.31 400.722   3
   5   1   4 4226.66 317.992   6
   5  -1   4 4485.28 256.533   6
   5  -1   4 4324.40 374.536   1
   5  -1   4 4148.84 380.354   4
   5   1   4 4809.88 347.586   3
   5   1   4 4012.99 282.045   5
   5   1   5 1942.28 214.868   6
   5  -1   5 1880.48 160.065   6
   5  -1   5 1947.87 265.079   4
   5  -1   5 1822.46 243.596   1
   5   1   5 1959.60 228.954   3
   5   1   5 1654.45 176.633   5
   5   1   6 3672.37 304.615   6
   5  -1   6 3985.79 228.641   6
   5  -1   6 4514.89 419.206   4
   5  -1   6 3623.08 356.658   1
   5   1   6 4770.00 365.482   3
   5   1   7 978.585 170.690   3
   5  -1   7 1078.37 204.101   1
   5   1   7 923.631 180.758   1
   5  -1   7 1075.80 207.472   4
   5   1   8 4394.18 397.799   1
   5  -1   8 4300.79 431.899   4
   5  -1   8 4145.18 414.290   1
   5   1   9 3230.37 348.363   1
   5  -1   9 3664.52 406.403   4
   5  -1   9 3168.54 372.934   1
   5   1  10 5291.34 468.553   1
   5  -1  10 6670.10 560.468   4
   5  -1  10 5950.30 520.060   1
   5   1  11 2566.63 324.196   1
   5  -1  11 3144.40 398.000   4
   5  -1  11 2835.72 371.663   1
   5  -1  12 8323.37 653.574   1
   5   1  12 7667.04 585.688   1
   5  -1  12 9567.36 718.479   4
   5  -1  13 1868.45 313.239   1
   5   1  13 2026.59 318.172   1
   5  -1  13 2212.48 347.938   4
   5  -1  14 5671.95 578.881   1
   5  -1  14 6797.88 639.138   4
   5   1  14 5227.02 514.083   1
   5   1  15 1532.32 293.868   1
   5  -1  15 1547.28 318.520   1
   5  -1  15 1809.39 332.892   4
   5  -1  16 2353.56 395.613   1
   5  -1  16 2762.17 432.744   4
   5   1  16 2852.67 404.313   1
   5   1  17 1309.72 292.255   1
   5  -1  17 1125.52 268.334   1
   5  -1  18 2530.09 438.975   1
   5   1  18 2943.86 437.583   1
   5   1  19 392.163 201.845   1
   5  -1  19 362.373 164.188   1
   5  -1  20 2010.57 400.913   1
   5   1  20 1418.12 329.190   1
   5   1  21 1736.92 382.305   1
   5   1  22 3099.95 539.503   1
   5   2 -19 454.147 161.305   6
   5   2 -18 708.166 192.673   6
   5  -2 -18 406.218 150.483   6
   5   2 -17 694.580 180.734   6
   5  -2 -17 756.490 207.643   6
   5   2 -16 1841.07 273.949   6
   5  -2 -16 1984.03 349.431   6
   5   2 -15 1746.07 270.161   6
   5  -2 -15 1940.50 326.525   6
   5   2 -14 4499.27 424.806   6
   5  -2 -14 4245.39 474.279   6
  -5   2 -14 4287.49 310.211   5
   5   2 -13 3558.88 372.785   6
   5  -2 -13 4133.02 446.095   6
  -5   2 -13 3426.90 279.725   5
   5   2 -12 4134.76 400.511   6
   5  -2 -12 5245.61 496.511   6
  -5   2 -12 4374.55 321.813   5
   5   2 -11 5673.54 454.405   6
   5  -2 -11 5610.73 506.444   6
  -5   2 -11 5661.28 367.780   5
   5   2 -10 3524.60 347.972   6
   5  -2 -10 3841.65 412.700   6
   5  -2 -10 3633.77 262.099   1
  -5   2 -10 4130.15 316.742   5
   5   2  -9 2661.83 299.720   6
   5  -2  -9 2483.97 329.308   6
   5  -2  -9 2646.51 231.579   1
  -5   2  -9 2337.26 245.226   5
   5   2  -8 1387.21 214.963   6
   5  -2  -8 1627.59 186.083   1
   5  -2  -8 1611.36 235.105   6
  -5   2  -8 1636.62 204.640   5
   5   2  -7 1547.73 222.885   6
   5  -2  -7 1637.93 185.037   1
   5  -2  -7 1642.48 236.142   6
  -5   2  -7 1645.12 211.630   5
   5  -2  -6 933.996 145.454   1
   5   2  -6 1280.74 202.118   6
   5  -2  -6 1056.41 185.573   6
  -5   2  -6 1096.29 176.877   5
  -5   2  -5 1099.20 178.120   5
   5  -2  -5 979.740 165.017   1
   5   2  -5 1058.78 180.026   6
   5  -2  -5 1156.70 191.320   6
   5   2  -4 1880.59 211.687   3
   5   2  -4 2286.89 259.860   6
   5  -2  -4 2056.86 236.014   6
   5  -2  -4 2185.78 241.563   1
  -5   2  -4 2103.71 249.724   5
   5   2  -3 2427.99 249.684   3
   5   2  -3 2933.45 293.372   6
   5  -2  -3 2931.83 273.323   6
   5  -2  -3 3002.11 283.240   1
  -5   2  -3 2977.79 254.384   3
   5   2  -2 5014.28 362.999   3
   5   2  -2 5074.61 397.285   6
   5  -2  -2 5008.51 333.827   6
  -5  -2  -2 5393.45 402.158   4
   5  -2  -2 4821.64 374.339   1
  -5   2  -2 4698.83 305.294   3
   5   2  -1 4390.05 345.344   3
   5   2  -1 5246.49 393.856   6
   5  -2  -1 4591.89 303.264   6
   5  -2  -1 5289.21 394.401   1
  -5   2  -1 4846.77 293.020   3
   5   2   0 6198.96 425.666   6
   5  -2   0 5541.46 327.756   6
   5  -2   0 5948.17 441.151   1
  -5   2   0 5513.08 295.930   3
   5   2   0 6464.62 416.826   3
   5   2   1 5497.20 396.007   6
   5  -2   1 4496.73 276.367   6
   5  -2   1 5148.20 412.065   1
  -5   2   1 3848.76 224.145   3
   5   2   1 5634.86 394.249   3
   5   2   2 5109.23 385.717   6
   5  -2   2 4423.83 261.633   6
   5  -2   2 4579.93 395.218   1
   5   2   2 4551.94 358.272   3
   5   2   3 3877.99 340.389   6
   5  -2   3 3271.26 218.689   6
   5  -2   3 3867.01 371.655   1
   5   2   3 3861.09 334.263   3
   5  -2   4 1824.07 294.533   2
   5   2   4 2148.54 255.223   6
   5  -2   4 2151.39 162.971   6
   5   2   4 2334.02 268.908   3
   5  -2   4 2049.90 286.117   1
   5  -2   5 1200.63 217.038   1
   5   2   5 1248.57 197.011   3
   5  -2   5 1039.01 103.836   6
   5  -2   6 1284.28 236.065   1
   5   2   6 979.699 179.178   3
   5  -2   6 1137.07 100.006   6
   5  -2   6 1128.22 221.232   4
   5   2   7 1528.62 233.258   3
   5  -2   7 1276.42 236.888   1
   5  -2   7 1209.82 235.471   4
   5  -2   8 1698.45 282.887   1
   5  -2   8 1927.02 308.465   4
   5   2   8 1960.31 264.216   3
   5  -2   9 3048.23 387.865   1
   5  -2   9 2916.94 388.917   4
   5   2   9 3275.64 345.358   3
   5  -2  10 4365.53 480.942   1
   5   2  10 4394.63 428.605   1
   5  -2  10 4594.90 494.933   4
   5   2  10 4428.89 415.459   3
   5  -2  11 5431.48 559.551   1
   5   2  11 4772.24 462.037   1
   5  -2  11 5456.16 554.945   4
   5   2  11 6296.48 508.999   3
   5  -2  12 4887.10 539.305   1
   5   2  12 4742.98 467.156   1
   5  -2  12 5674.98 580.986   4
   5   2  12 4859.05 453.149   3
   5  -2  13 4830.84 558.280   1
   5   2  13 4569.69 472.801   1
   5  -2  13 4769.25 537.643   4
   5   2  13 4868.45 457.285   3
   5  -2  14 3893.44 508.793   1
   5   2  14 3892.86 447.533   1
   5  -2  14 5014.71 567.160   4
   5   2  15 2399.80 368.067   1
   5  -2  15 2544.39 412.364   4
   5  -2  15 2147.68 393.468   1
   5   2  16 2020.19 349.019   1
   5  -2  16 1853.93 373.042   1
   5  -2  16 2296.01 403.645   4
   5  -2  17 418.974 154.022   1
   5   2  17 837.763 213.548   1
   5  -2  17 557.201 203.319   4
   5   2  18 263.764 132.866   1
   5  -2  18 388.874 170.744   1
   5  -2  18 730.021 244.549   4
   5   2  19 341.093 131.638   1
   5  -2  19 919.397 278.516   4
   5   2  20 1227.42 314.700   1
   5   2  21 2048.53 424.638   1
   5   3 -17 5374.60 520.623   6
   5  -3 -17 5003.07 570.804   6
   5   3 -16 299.789 140.751   6
   5  -3 -16 693.278 221.576   6
   5   3 -15 1998.75 296.198   6
   5  -3 -15 2768.59 422.018   6
  -5   3 -14 218.016 70.8721   5
   5   3 -14 263.304 111.357   6
   5  -3 -14 426.718 178.182   6
  -5   3 -13 566.229 131.923   5
   5   3 -13 711.938 175.277   6
   5  -3 -13 1041.53 258.802   6
  -5   3 -12 128.850 57.8533   5
   5   3 -12 96.8190 89.8198   6
   5  -3 -12 323.022 168.267   6
  -5   3 -11 410.391 113.048   5
   5   3 -11 334.852 104.214   6
   5  -3 -11 694.350 194.156   6
  -5   3 -10 62.7410 73.1560   5
   5   3 -10 153.474 75.6253   6
   5  -3 -10 295.302 159.311   6
   5   3  -9 4177.15 398.244   6
   5  -3  -9 4889.80 490.998   6
  -5   3  -9 4187.96 382.785   5
  -5   3  -8 1001.46 185.625   5
   5   3  -8 1038.96 198.496   6
   5  -3  -8 857.011 218.413   6
   5   3  -7 8171.58 549.109   6
   5  -3  -7 9749.10 607.346   1
   5  -3  -7 8706.64 629.310   6
  -5   3  -7 8241.55 540.782   5
  -5   3  -6 1462.65 233.093   5
   5  -3  -6 1156.16 211.507   1
   5   3  -6 1522.76 242.907   6
   5  -3  -6 1438.08 246.206   6
   5  -3  -5 10497.9 626.470   1
   5   3  -5 9542.85 590.796   6
   5  -3  -5 10540.2 638.878   6
  -5   3  -5 9185.24 580.825   5
   5  -3  -4 553.427 152.980   1
  -5   3  -4 827.089 173.156   5
   5   3  -4 910.274 184.902   6
   5  -3  -4 1065.03 203.192   6
   5  -3  -3 4585.36 416.939   1
   5   3  -3 5082.75 424.424   6
   5  -3  -3 4668.27 392.942   6
  -5   3  -3 4731.46 420.547   5
   5  -3  -2 468.533 136.192   1
  -5   3  -2 532.241 146.957   5
   5   3  -2 619.833 167.863   6
   5  -3  -2 400.544 114.752   6
  -5   3  -1 906.371 190.845   5
   5   3  -1 634.542 159.693   3
   5   3  -1 794.232 164.084   6
   5  -3  -1 711.737 137.229   6
   5  -3  -1 751.025 175.063   1
  -5   3   0 100.546 48.2443   5
   5   3   0-35.3452 57.8084   3
   5   3   0 12.6321 56.2034   6
   5  -3   0-40.1113 62.2686   6
   5  -3   0 109.087 76.2120   1
   5  -3   1 1080.61 212.998   1
  -5   3   1 1151.20 229.024   5
   5   3   1 761.379 172.391   3
   5   3   1 1371.42 218.166   6
   5  -3   1 990.621 144.466   6
   5  -3   2 418.460 138.399   1
  -5   3   2 488.675 155.357   5
   5   3   2 169.739 68.5129   3
   5   3   2 504.614 138.279   6
   5  -3   2 424.359 90.4936   6
   5   3   3 4495.80 426.260   3
   5   3   3 4498.63 409.835   6
   5  -3   3 4678.55 465.721   1
   5  -3   3 4117.60 254.524   6
   5   3   4 883.684 197.975   3
   5  -3   4 850.425 206.543   1
   5  -3   4 825.677 103.626   6
   5  -3   5 9128.12 679.660   1
   5   3   5 9721.75 627.508   3
   5   3   6 1591.18 256.207   3
   5  -3   6 1267.71 261.563   1
   5   3   7 8670.21 481.937   5
   5  -3   7 7940.07 665.643   1
   5   3   7 8419.94 594.440   3
   5   3   8 1056.92 219.195   3
   5  -3   8 1059.83 245.109   1
   5  -3   9 4192.91 511.540   1
   5   3   9 4855.01 465.675   3
   5   3  10 273.299 121.684   3
   5  -3  10 207.020 120.121   1
   5  -3  10 26.1721 66.7030   4
   5   3  11 307.463 104.618   3
   5  -3  11 482.744 190.400   1
   5  -3  11 289.059 113.212   4
   5  -3  12-124.541 143.386   1
   5   3  12 39.9311 68.0097   3
   5  -3  12-38.8271 107.031   4
   5   3  13 261.598 123.460   1
   5  -3  13 418.661 125.999   1
   5  -3  13 525.929 191.234   4
   5   3  14 502.348 165.855   3
   5  -3  14 65.6252 127.950   4
   5   3  14 283.753 111.232   1
   5   3  15 2745.91 389.435   3
   5  -3  15 2410.44 418.758   4
   5   3  15 2325.02 372.230   1
   5   3  16 371.269 154.951   1
   5   3  16 403.669 195.638   3
   5  -3  16 656.977 241.595   4
   5   3  17 5794.06 613.315   1
   5  -3  17 5696.99 673.306   4
   5   3  18 728.457 226.690   1
   5   3  19 5489.02 616.271   1
   5   4 -15 827.609 192.921   6
   5  -4 -15 910.742 230.937   6
   5   4 -14 3452.74 411.487   6
   5  -4 -14 3675.54 477.613   6
  -5   4 -14 3469.11 400.582   5
  -5   4 -13 72.1916 91.1652   5
   5   4 -13 451.999 176.922   6
   5  -4 -13 295.966 134.644   6
   5   4 -12 3774.48 419.437   6
   5  -4 -12 3973.86 495.221   6
  -5   4 -12 3773.81 417.259   5
  -5   4 -11 85.2065 77.3686   5
   5   4 -11 336.710 141.620   6
   5  -4 -11 451.718 164.589   6
   5   4 -10 3154.58 384.094   6
   5  -4 -10 3280.28 439.929   6
  -5   4 -10 3688.65 427.335   5
  -5   4  -9 1110.53 224.420   5
   5   4  -9 971.386 214.897   6
   5  -4  -9 1057.12 269.352   6
  -5   4  -8 1202.42 245.581   5
   5   4  -8 1169.08 215.810   6
   5  -4  -8 1258.29 257.337   6
  -5   4  -7 100.074 77.8490   5
   5   4  -7 284.933 124.850   6
   5  -4  -7 123.620 91.5960   6
  -5   4  -6 2213.30 314.386   5
   5   4  -6 2651.93 343.372   6
   5  -4  -6 3248.41 407.101   6
  -5   4  -5 669.374 181.525   5
   5   4  -5 849.777 195.025   6
   5  -4  -5 790.745 190.260   6
   5   4  -4 1921.28 290.890   6
   5  -4  -4 1793.74 289.669   6
  -5   4  -4 2166.80 328.020   5
  -5   4  -3 1648.54 287.625   5
   5   4  -3 1697.49 279.811   6
   5  -4  -3 1350.55 251.041   6
   5   4  -2 5621.63 506.587   6
   5  -4  -2 6854.37 536.356   6
  -5   4  -2 5837.41 528.950   5
  -5   4  -1 542.809 162.116   5
   5   4  -1 404.892 130.826   6
   5  -4  -1 513.950 147.003   6
   5   4   0 6885.02 559.677   6
   5  -4   0 7744.08 514.716   6
  -5   4   0 6891.88 581.055   5
  -5   4   1 839.657 216.164   5
   5   4   1 623.943 170.683   3
   5  -4   1 581.428 142.938   6
   5   4   2 5965.23 658.280   3
   5   4   2 5819.95 493.384   5
   5  -4   2 6447.44 425.724   6
  -5   4   2 5850.65 530.447   5
  -5   4   3 1340.19 278.637   5
   5   4   3 2033.55 363.042   3
   5   4   3 1864.15 267.301   5
   5   4   4 1966.35 362.302   3
   5   4   4 1862.22 265.709   5
  -5   4   4 2100.65 329.449   5
  -5   4   5 1010.03 233.996   5
   5   4   5 1106.67 276.915   3
   5   4   5 810.551 174.045   5
   5   4   6 2653.97 304.706   5
   5   4   6 2434.13 386.704   3
   5   4   7 438.660 174.992   3
   5   4   8 1180.19 268.968   3
   5   4   9 1099.48 250.480   3
   5   4  10 3295.27 444.664   3
   5   4  11 913.700 262.722   3
   5   4  12 4072.89 503.845   3
   5   4  13 333.338 130.695   3
   5  -4  13 348.359 112.258   4
   5   4  14 3207.42 440.962   1
   5  -4  14 2779.16 461.884   4
   5   4  14 3515.18 480.395   3
   5   4  15 1086.39 278.397   3
   5   4  15 822.416 233.773   1
   5   4  16 1395.24 304.340   1
   5   4  17 367.465 161.928   1
  -5   5 -14 1733.80 344.099   5
  -5   5 -13 2546.18 434.420   5
  -5   5 -12 465.527 174.913   5
   5  -5 -12 316.028 175.943   6
   5   5 -11 2935.65 460.388   5
  -5   5 -11 3350.66 483.529   5
   5  -5 -11 3303.41 457.197   6
  -5   5 -10 1612.30 337.999   5
   5   5 -10 1387.90 294.230   5
   5   5 -10 1329.61 272.155   6
   5  -5 -10 1173.68 275.585   6
  -5   5  -9 1323.03 303.840   5
   5   5  -9 1391.06 314.395   5
   5   5  -9 1464.37 276.302   6
   5  -5  -9 1431.04 291.498   6
  -5   5  -8 160.291 122.428   5
   5   5  -8 151.256 98.5639   5
   5   5  -8 94.3426 122.155   6
   5  -5  -8 192.241 74.1642   6
  -5   5  -7 491.813 166.585   5
   5   5  -7 123.509 67.0668   5
   5   5  -7 858.949 211.992   6
   5  -5  -7 588.947 201.359   6
  -5   5  -6-68.7033 129.658   5
   5   5  -6 260.939 148.210   5
   5   5  -6 200.731 132.451   6
   5  -5  -6-78.6555 76.2440   6
  -5   5  -5-40.2645 105.210   5
   5   5  -5 269.244 132.038   5
   5   5  -5 57.2030 66.6371   6
   5  -5  -5 206.674 138.698   6
  -5   5  -4 532.697 134.265   5
   5   5  -4 360.228 169.671   5
   5   5  -4 253.703 153.599   6
   5  -5  -4 263.457 109.177   6
   5   5  -3 3114.17 404.956   6
   5   5  -3 2431.64 369.727   5
   5  -5  -3 2794.38 376.922   6
  -5   5  -3 3202.99 446.760   5
  -5   5  -2 2028.13 362.225   5
   5   5  -2 1147.96 247.663   5
   5  -5  -2 1810.94 315.044   6
   5   5  -1 3552.56 433.711   5
   5  -5  -1 4228.87 456.776   6
  -5   5  -1 3994.62 509.951   5
  -5   5   0 781.329 231.017   5
   5   5   0 786.435 215.161   5
   5   5   1 4001.99 461.199   5
  -5   5   1 4397.22 517.308   5
  -5   5   2 1315.12 292.887   5
   5   5   2 1488.49 393.943   3
   5   5   2 1627.03 295.437   5
   5   5   3 3139.50 394.383   5
  -5   5   3 2931.68 436.613   5
  -5   5   4 498.785 185.420   5
   5   5   4 366.924 194.007   3
   5   5   4 596.398 160.252   5
  -5   5   5 203.142 107.022   5
   5   5   5 118.506 243.671   3
  -5   5   6 25.8114 91.0927   5
   5   5   6-177.983 154.066   3
  -5   5   7 366.788 154.772   5
   5   5   7 1068.81 335.466   3
   5   5   8 609.673 250.422   3
   5   5   9 1701.28 395.233   3
   5   5  10 1543.47 372.018   3
   5   5  11 2873.62 512.163   3
   5  -6  -8 831.306 247.973   6
   5  -6  -7 1717.61 317.531   6
   5  -6  -6 1012.00 256.808   6
   5   6  -5 2178.28 403.150   5
   5  -6  -5 1736.59 301.048   6
   5   6  -4 1234.17 279.217   5
   5  -6  -4 651.729 157.804   6
   5   6  -3 1216.12 261.242   5
   5   6  -2 174.448 116.322   5
   5   6  -1 111.712 65.8862   5
   5   6   0 112.058 76.5249   5
   5   6   1 259.578 132.304   5
   5   6   2 276.720 292.959   3
   5   6   2 349.182 152.160   5
   5   6   3 1819.27 578.613   3
   6   0 -17 95.2282 129.669   6
   6   0 -16 3204.86 416.059   6
   6   0 -15 58.5376 66.8055   6
   6   0 -14 4080.34 439.104   6
   6   0 -13 33.4316 77.4721   6
   6   0 -12 14034.9 785.065   6
   6   0 -11 90.9679 95.6786   6
   6   0 -10 4492.47 418.993   6
   6   0  -9-75.9479 70.2184   6
   6   0  -8 2662.31 297.568   6
   6   0  -7 39.7839 42.7323   6
   6   0  -6 715.448 152.080   6
   6   0  -5 4.91488 39.6230   6
   6   0  -4 2237.45 258.890   6
   6   0  -3 22.2571 73.1018   6
   6   0  -2 10554.5 556.344   6
   6   0  -1-17.3808 57.2938   6
   6   0   0 15433.3 744.398   1
   6   0   0 15642.8 659.970   6
   6   0   1 78.9040 68.8772   6
   6   0   1 0.30858 71.2630   1
   6   0   2 10076.6 601.185   1
   6   0   2 10501.4 514.843   6
   6   0   3 1.70973 51.0428   6
   6   0   3-8.79628 60.5085   1
   6   0   4 2190.90 225.737   6
   6   0   4 1684.93 262.453   1
   6   0   5 13.7757 37.5529   6
   6   0   5-26.6094 49.9818   1
   6   0   6 1030.54 205.539   1
   6   0   6 1160.29 165.319   6
   6   0   7-11.1246 60.3158   1
   6   0   8 2059.52 293.822   1
   6   0   9-25.8434 72.4274   1
   6   0  10 5665.69 528.139   1
   6   0  11-66.5360 57.1857   1
   6   0  12 13778.9 877.842   1
   6   0  13-1.09392 83.6327   1
   6   0  14 6229.20 637.808   1
   6   0  15 235.041 167.743   1
   6   0  16 3633.07 506.651   1
   6   0  17 1.40411 86.1808   1
   6   1 -16 6192.53 544.533   6
   6  -1 -16 6218.55 583.470   6
   6   1 -15 2463.13 344.182   6
   6  -1 -15 2293.24 355.842   6
   6   1 -14 1977.03 303.250   6
   6  -1 -14 2344.27 346.220   6
   6   1 -13 4276.42 427.949   6
   6  -1 -13 4096.15 444.076   6
   6   1 -12 5784.99 491.463   6
   6  -1 -12 5675.27 501.174   6
   6  -1 -11 2366.61 315.611   6
   6   1 -11 2047.05 284.819   6
   6  -1 -11 1640.20 200.434   1
   6  -1 -10 2512.87 252.813   1
   6   1 -10 2987.12 339.706   6
   6  -1 -10 2775.28 339.260   6
   6  -1  -9 9492.41 524.702   1
   6   1  -9 10519.4 647.673   6
   6  -1  -9 11064.1 640.825   6
   6  -1  -8 12045.5 591.917   1
   6   1  -8 12285.5 688.573   6
   6  -1  -8 10845.9 635.252   6
   6  -1  -7 9228.33 516.220   1
   6   1  -7 10244.7 612.441   6
   6  -1  -7 8398.91 547.313   6
   6  -1  -6 1706.08 230.207   1
   6   1  -6 1756.79 244.530   6
   6  -1  -6 1705.81 231.207   6
   6  -1  -5 7535.96 476.990   1
   6   1  -5 8737.07 547.499   6
   6  -1  -5 8549.82 511.175   6
   6   1  -4 10612.9 604.557   6
   6  -1  -4 10713.4 577.428   1
   6  -1  -4 9726.78 537.902   6
   6  -1  -4 9261.06 464.456   4
   6   1  -3 10564.6 593.498   6
   6  -1  -3 9832.00 562.434   1
   6  -1  -3 9770.48 522.687   6
   6  -1  -3 8564.29 467.586   4
   6   1  -3 9888.08 478.863   3
   6   1  -2 4552.80 375.140   6
   6  -1  -2 3900.24 312.512   6
   6  -1  -2 3755.91 349.722   1
   6  -1  -2 3831.49 320.033   4
   6   1  -2 4171.22 319.112   3
   6   1  -1 4015.63 350.207   6
   6  -1  -1 3737.81 307.498   6
   6  -1  -1 4185.12 369.716   1
   6  -1  -1 3757.25 332.400   4
   6   1  -1 4983.91 363.629   3
   6   1   0 7110.13 462.234   6
   6  -1   0 7332.48 420.369   6
   6  -1   0 6654.89 477.583   1
   6  -1   0 7194.71 477.621   4
   6   1   0 7400.51 467.832   3
   6   1   1 3042.50 295.364   6
   6  -1   1 2830.36 250.115   6
   6  -1   1 2444.28 290.644   1
   6  -1   1 2588.66 295.017   4
   6   1   1 3263.91 306.969   3
   6   1   2 3516.47 328.627   6
   6  -1   2 3572.03 274.383   6
   6  -1   2 3292.59 347.827   1
   6  -1   2 3746.37 362.395   4
   6   1   3 12560.5 613.477   6
   6  -1   3 12122.0 508.679   6
   6  -1   3 12050.9 672.875   4
   6  -1   3 11667.4 674.382   1
   6   1   4 12958.9 630.911   6
   6  -1   4 12764.6 513.496   6
   6  -1   4 12994.3 719.801   4
   6  -1   4 11659.6 685.711   1
   6   1   5 6038.73 498.055   1
   6   1   5 6490.21 447.959   6
   6  -1   5 6600.17 356.941   6
   6  -1   5 6882.85 537.742   4
   6  -1   5 6408.71 510.693   1
   6  -1   6 1746.27 272.455   1
   6  -1   6 1810.23 287.621   4
   6   1   6 1588.96 213.902   6
   6   1   6 1639.70 262.965   1
   6   1   7 11398.9 705.043   1
   6  -1   7 12975.6 784.330   4
   6  -1   7 11719.0 739.036   1
   6   1   8 12559.4 759.848   1
   6  -1   8 14976.8 865.743   4
   6  -1   8 13497.6 819.355   1
   6   1   9 8242.01 624.360   1
   6  -1   9 10545.6 747.865   4
   6  -1   9 9672.87 712.891   1
   6   1  10 3589.92 419.194   1
   6  -1  10 4815.81 518.500   4
   6  -1  10 3912.35 460.625   1
   6   1  11 3171.78 393.991   1
   6  -1  11 4151.99 495.455   4
   6  -1  11 4208.38 480.480   1
   6  -1  12 5916.81 593.890   1
   6  -1  12 7224.12 668.199   4
   6   1  12 6142.80 577.750   1
   6  -1  13 3560.03 485.395   1
   6  -1  13 4257.12 532.582   4
   6   1  13 3672.11 461.076   1
   6  -1  14 2043.13 373.935   1
   6   1  14 1633.79 307.920   1
   6  -1  14 1824.31 363.088   4
   6  -1  15 4208.80 569.500   1
   6   1  15 5052.73 568.817   1
   6  -1  16 7404.32 757.947   1
   6   1  16 6951.32 700.808   1
   6  -1  17 5873.26 689.091   1
   6   1  17 7167.56 733.128   1
   6   1  18 407.156 197.365   1
   6  -2 -16 1955.46 346.013   6
   6   2 -15 2542.99 349.262   6
   6  -2 -15 2662.55 404.499   6
   6   2 -14 1604.11 287.855   6
   6  -2 -14 1936.77 332.118   6
   6   2 -13 37.9572 74.3066   6
   6  -2 -13 30.2599 102.277   6
   6   2 -12 673.384 185.345   6
   6  -2 -12 889.241 219.509   6
   6   2 -11 3154.50 375.365   6
   6  -2 -11 3789.41 422.120   6
   6   2 -10 1187.61 216.575   6
   6  -2 -10 1622.39 282.582   6
   6   2  -9 1685.50 265.687   6
   6  -2  -9 1736.27 276.120   6
   6   2  -8 3149.06 359.397   6
   6  -2  -8 3253.39 356.501   6
   6  -2  -8 2300.54 251.604   1
   6   2  -7 5824.96 488.096   6
   6  -2  -7 6491.79 493.098   6
   6  -2  -7 6584.57 437.137   1
   6   2  -6 4425.90 407.000   6
   6  -2  -6 3745.42 362.420   6
   6  -2  -6 3609.29 327.999   1
   6   2  -5 2586.47 315.027   6
   6  -2  -5 2694.47 293.861   6
   6  -2  -5 2301.25 273.472   1
   6   2  -5 2397.29 255.784   3
   6   2  -4 3707.71 376.814   6
   6  -2  -4 3075.23 301.904   6
   6  -2  -4 3135.69 322.844   1
   6   2  -4 3084.94 293.107   3
   6   2  -3 3840.24 377.588   6
   6  -2  -3 2956.98 285.012   6
   6  -2  -3 2941.09 320.523   1
   6   2  -3 3096.39 300.663   3
   6   2  -2 2813.26 323.929   6
   6  -2  -2 1972.11 223.027   6
   6  -2  -2 2284.53 287.069   1
   6   2  -2 2214.16 267.044   3
   6   2  -1 630.669 151.259   3
   6  -2  -1 1033.33 195.741   1
   6   2  -1 767.281 169.897   6
   6  -2  -1 746.650 135.199   6
   6   2   0 556.126 146.019   3
   6   2   0 532.536 149.100   6
   6  -2   0 252.560 103.584   1
   6  -2   0 377.219 92.4227   6
   6   2   1 647.794 156.000   3
   6   2   1 993.373 186.993   6
   6  -2   1 818.322 133.946   6
   6  -2   1 847.407 189.280   1
   6   2   2 1883.77 259.323   3
   6  -2   2 1937.16 191.223   6
   6   2   2 2014.88 263.256   6
   6  -2   2 1816.89 274.403   1
   6  -2   2 1564.67 254.335   4
   6   2   3 4433.91 399.188   6
   6  -2   3 3864.24 264.600   6
   6  -2   3 3675.43 403.340   4
   6   2   3 4108.97 391.471   3
   6  -2   3 4339.43 431.797   1
   6   2   4 2808.79 320.458   6
   6  -2   4 3057.43 369.683   4
   6   2   4 3368.24 361.014   3
   6  -2   4 3541.87 397.623   1
   6  -2   5 2750.38 366.281   1
   6  -2   5 2115.41 322.128   4
   6   2   5 2949.11 338.149   3
   6  -2   6 4532.83 473.118   1
   6  -2   6 4127.39 449.826   4
   6   2   6 5008.51 453.762   3
   6  -2   7 6811.71 591.525   1
   6  -2   7 6692.51 595.540   4
   6   2   7 7739.88 578.839   3
   6  -2   8 3521.23 441.080   1
   6  -2   8 3166.30 413.109   4
   6   2   8 3934.47 418.029   3
   6   2   9 1729.59 281.763   3
   6  -2   9 1619.25 294.124   1
   6   2   9 1315.96 248.684   1
   6  -2   9 1284.72 270.862   4
   6  -2  10 2436.24 380.267   1
   6  -2  10 2106.95 343.156   4
   6   2  10 1857.01 314.755   1
   6   2  10 2512.27 335.172   3
   6  -2  11 3608.17 489.996   1
   6   2  11 2747.50 379.179   1
   6  -2  11 3484.97 465.549   4
   6  -2  12 888.789 252.130   1
   6  -2  12 871.164 233.114   4
   6   2  12 745.335 206.409   1
   6   2  13 252.483 105.998   1
   6  -2  13 245.405 127.346   1
   6   2  14 1577.95 301.216   1
   6  -2  14 1385.40 324.356   1
   6  -2  14 1714.04 351.625   4
   6  -2  15 3534.21 541.887   1
   6  -2  15 4300.97 566.810   4
   6   2  15 3489.49 473.534   1
   6   2  16 2253.57 370.838   1
   6  -2  16 2211.45 425.346   4
   6   2  17 669.664 195.138   1
   6  -3 -14 2430.09 407.128   6
   6   3 -13 2126.94 333.109   6
   6  -3 -13 2109.39 382.842   6
   6   3 -12 9633.22 681.162   6
  -6   3 -12 9858.81 587.078   5
   6   3 -11 3834.46 434.626   6
   6  -3 -11 4217.17 494.648   6
  -6   3 -11 3538.23 350.444   5
  -6   3 -10 1442.29 229.248   5
   6   3 -10 1501.00 274.677   6
   6  -3 -10 1933.87 322.354   6
   6   3  -9 3455.82 408.203   6
   6  -3  -9 4027.88 461.278   6
  -6   3  -9 3844.99 371.590   5
   6   3  -8 3188.05 384.384   6
   6  -3  -8 3029.49 395.818   6
  -6   3  -8 2575.29 312.375   5
   6   3  -7 3926.09 420.295   6
   6  -3  -7 3418.71 386.772   6
  -6   3  -7 3392.34 371.450   5
   6  -3  -6 304.382 121.679   1
  -6   3  -6 435.273 145.576   5
   6   3  -6 262.544 73.8149   3
   6   3  -6 363.565 136.665   6
   6  -3  -6 291.371 120.813   6
   6   3  -5 3534.89 367.895   3
   6  -3  -5 4334.32 408.924   1
   6   3  -5 4679.31 445.564   6
   6  -3  -5 4196.59 396.571   6
   6   3  -4 3594.41 372.661   3
   6  -3  -4 4339.01 444.553   1
   6   3  -4 5115.92 476.249   6
   6  -3  -4 4979.44 415.881   6
   6  -3  -3 10422.5 671.221   1
   6   3  -3 9920.77 653.779   6
   6  -3  -3 9379.05 558.799   6
   6   3  -2 1668.39 265.197   3
   6   3  -2 2162.97 314.303   6
   6  -3  -2 1400.72 241.330   1
   6  -3  -2 1418.24 213.482   6
   6   3  -1 8057.74 589.916   3
   6  -3  -1 9713.18 659.691   1
   6   3  -1 9661.00 651.064   6
   6  -3  -1 9131.24 505.534   6
   6  -3   0 20171.9 982.930   1
   6   3   0 21124.2 970.390   6
   6  -3   0 19188.7 720.669   6
   6   3   0 17613.4 894.839   3
   6  -3   1 11524.6 748.812   1
   6   3   1 11258.4 705.324   6
   6  -3   1 10639.9 498.894   6
   6   3   1 9179.05 640.316   3
   6   3   2 1460.54 273.460   3
   6   3   2 1765.59 271.159   6
   6  -3   2 1775.46 311.616   1
   6  -3   3 8430.35 664.440   1
   6   3   3 9691.94 653.978   6
   6   3   3 8751.39 635.239   3
   6  -3   4 5234.44 530.568   1
   6   3   4 4525.70 452.502   3
   6  -3   5 5250.77 544.810   1
   6   3   5 4710.92 478.321   3
   6   3   6 66.0221 84.8967   3
   6  -3   6-36.3074 62.0263   1
   6  -3   7 3551.96 471.338   1
   6  -3   7 2938.09 413.669   4
   6   3   7 3405.04 408.691   3
   6  -3   8 2710.95 420.889   1
   6  -3   8 2703.05 400.269   4
   6   3   8 2927.20 385.847   3
   6  -3   9 4542.67 553.517   1
   6  -3   9 3538.73 466.935   4
   6   3   9 4522.66 488.215   3
   6   3  10 1739.33 308.666   3
   6  -3  10 1390.56 311.057   4
   6  -3  10 1805.47 371.069   1
   6   3  11 3310.34 424.428   1
   6  -3  11 3782.05 511.817   1
   6  -3  11 2921.33 442.447   4
   6   3  11 4166.68 484.732   3
   6   3  12 11468.9 835.542   1
   6  -3  12 12682.5 994.865   1
   6  -3  12 11528.7 908.189   4
   6   3  12 12035.0 835.303   3
   6   3  13 2849.02 429.050   1
   6  -3  13 2920.58 464.679   1
   6  -3  13 2595.44 438.762   4
   6   3  13 3377.60 447.564   3
   6  -3  14 2666.35 453.405   4
   6   3  14 2777.34 421.296   3
   6   3  14 2128.98 356.530   1
   6   3  15 4139.48 515.995   1
   6   3  16 2854.53 461.488   1
  -6   4 -12 185.996 106.150   5
   6  -4 -12 307.641 165.739   6
  -6   4 -11 974.343 203.223   5
   6  -4 -11 825.917 223.918   6
  -6   4 -10 1438.09 276.482   5
   6   4 -10 1632.03 293.511   6
   6  -4 -10 2125.41 378.880   6
   6   4  -9 3038.83 403.347   6
   6  -4  -9 3528.83 477.712   6
  -6   4  -9 3477.06 418.972   5
  -6   4  -8 489.124 175.747   5
   6   4  -8 735.779 194.656   6
   6  -4  -8 647.321 202.310   6
  -6   4  -7 1323.04 282.785   5
   6   4  -7 1771.84 294.233   6
   6  -4  -7 1650.51 320.985   6
  -6   4  -6-23.3978 66.9263   5
   6   4  -6 242.934 139.388   6
   6  -4  -6 117.361 130.595   6
   6   4  -5 4510.99 477.502   6
   6  -4  -5 4753.66 495.965   6
  -6   4  -5 4491.94 499.861   5
  -6   4  -4 967.494 231.860   5
   6   4  -4 782.270 160.951   3
   6   4  -4 1212.54 251.236   6
   6  -4  -4 1115.54 233.840   6
   6   4  -3 2949.46 433.969   3
   6  -4  -3 2856.98 356.495   6
   6   4  -3 2006.55 317.398   6
  -6   4  -3 2565.46 373.361   5
  -6   4  -2 1047.42 243.739   5
   6   4  -2 920.456 266.209   3
   6   4  -2 780.668 204.633   6
   6  -4  -2 906.720 179.985   6
  -6   4  -1 2535.16 364.152   5
   6   4  -1 2249.32 396.211   3
   6   4  -1 2818.47 389.776   6
  -6   4   0 118.204 114.945   5
   6   4   0 25.3387 73.1272   3
   6   4   0 119.974 61.7326   6
   6   4   1 2531.74 409.500   3
   6   4   2 639.960 247.020   3
   6   4   3 2330.25 405.828   3
   6   4   3 2222.83 311.175   5
   6   4   4 986.802 263.404   3
   6   4   5 3770.94 506.473   3
   6   4   6 366.291 209.146   3
   6   4   7 1475.42 318.545   3
   6   4   8 886.891 249.854   3
   6   4   9 3789.45 512.814   3
   6   4  10 1535.83 329.779   3
   6  -4  10 1381.90 332.929   4
   6   4  11 804.171 238.623   3
   6  -4  11 720.626 227.853   4
  -6   5 -10 7568.03 728.219   5
  -6   5  -9 504.922 193.583   5
   6  -5  -9 1184.80 306.558   6
  -6   5  -8 180.302 131.570   5
   6  -5  -8 270.747 149.800   6
  -6   5  -7 425.019 197.101   5
   6  -5  -7 688.461 224.512   6
   6   5  -6 12727.4 944.116   5
   6  -5  -6 15713.8 1015.58   6
  -6   5  -6 16164.6 1066.67   5
  -6   5  -5 1422.94 314.142   5
   6   5  -5 1198.77 272.298   5
   6  -5  -5 1875.90 337.518   6
  -6   5  -4 589.529 208.731   5
   6   5  -4 875.100 253.125   5
  -6   5  -3 627.864 231.131   5
   6   5  -3 807.713 224.375   5
   6   5  -3 518.305 148.645   6
   6   5  -2 11983.0 1284.11   3
  -6   5  -2 9551.22 808.540   5
  -6   5  -1 359.548 179.574   5
   6   5  -1 109.018 158.217   3
   6   5  -1 259.396 148.621   5
  -6   5   0 2033.44 399.252   5
   6   5   0 1083.44 267.181   5
  -6   5   1 128.800 84.9456   5
   6   5   1-9.49174 314.534   3
   6   5   1 371.924 146.823   5
   6   5   2 11969.3 1293.63   3
  -6   5   2 8904.88 783.895   5
   6   5   3 1474.22 460.112   3
   6   5   4 606.408 283.893   3
   6   5   5 2023.28 537.739   3
   6   5   6 19782.1 1539.84   3
   6   5   7 693.541 325.884   3
   7   0 -13 526.248 156.833   6
   7   0 -12-84.1148 82.1997   6
   7   0 -11 659.238 178.568   6
   7   0 -10-48.7878 87.0613   6
   7   0  -9 3556.60 394.258   6
   7   0  -8 4.41526 53.3487   6
   7   0  -7 5370.33 468.498   6
   7   0  -6 25.6634 76.0833   6
   7   0  -5 8578.98 637.946   1
   7   0  -5 7934.08 551.816   6
   7   0  -4-35.9920 48.1382   1
   7   0  -4 16.3905 63.8074   6
   7   0  -3 3925.51 441.887   1
   7   0  -3 3936.34 369.054   6
   7   0  -2 27.9591 48.5135   6
   7   0  -2-12.6809 50.7066   1
   7   0  -1 1277.45 203.941   6
   7   0  -1 1189.12 242.375   1
   7   0   0-40.2012 39.7139   6
   7   0   0-56.5764 47.1660   1
   7   0   1 1385.32 196.919   6
   7   0   1 972.933 215.568   1
   7   0   2 101.358 82.3394   6
   7   0   2 2.46163 52.1699   1
   7   0   3 4280.86 351.083   6
   7   0   3 4143.89 444.751   1
   7   0   4 59.9338 50.3861   1
   7   0   5 8142.61 631.781   1
   7   0   6-65.4355 70.4042   1
   7   0   7 6010.34 567.199   1
   7   0   8 1.47471 59.8128   1
   7   0   9 4039.83 474.929   1
   7   0  10-18.6282 91.3381   1
   7   0  11 377.544 141.971   1
   7   0  12-145.836 147.462   1
   7  -1 -13 849.214 249.739   6
   7   1 -12 4733.27 483.997   6
   7  -1 -12 4701.34 496.570   6
   7   1 -11 943.134 223.100   6
   7  -1 -11 1191.61 237.583   6
   7   1 -10 2208.35 315.783   6
   7  -1 -10 2208.49 312.690   6
   7   1  -9 1089.79 218.939   6
   7  -1  -9 1135.59 232.291   6
   7  -1  -8 1553.13 248.526   1
   7   1  -8 1641.49 256.589   6
   7  -1  -8 1898.76 280.006   6
   7  -1  -7 474.987 140.196   1
   7   1  -7 466.769 144.545   6
   7  -1  -7 482.060 142.389   6
   7  -1  -6 1112.35 209.861   1
   7   1  -6 1195.06 232.847   6
   7  -1  -6 859.704 183.933   6
   7  -1  -5 80.2210 48.0802   1
   7   1  -5 215.975 75.0440   6
   7  -1  -5 240.492 92.8695   6
   7  -1  -4 1798.29 282.560   1
   7  -1  -4 1806.22 249.886   6
   7   1  -4 2100.10 286.434   6
   7  -1  -3 1538.18 254.095   1
   7   1  -3 1409.49 241.409   6
   7  -1  -3 1274.65 197.790   6
   7   1  -2 5216.81 437.928   6
   7  -1  -2 4980.29 388.171   6
   7  -1  -2 4678.90 460.150   1
   7  -1  -1 1322.43 239.952   1
   7   1  -1 1406.40 222.637   6
   7  -1  -1 1034.11 175.669   6
   7   1   0 5556.93 452.102   6
   7  -1   0 5492.84 401.677   6
   7  -1   0 5507.30 449.433   4
   7  -1   0 5806.91 502.228   1
   7  -1   1 1555.08 259.517   1
   7   1   1 1357.63 225.514   6
   7  -1   1 1263.82 181.359   6
   7  -1   1 1233.52 218.637   4
   7   1   2 4635.13 406.594   6
   7  -1   2 5041.58 461.106   4
   7  -1   2 4839.91 466.852   1
   7  -1   3 1923.96 303.514   1
   7   1   3 1735.75 243.835   6
   7   1   3 1444.24 283.086   1
   7  -1   3 1939.02 290.094   4
   7  -1   4 1707.52 283.502   1
   7   1   4 1839.30 251.640   6
   7  -1   4 1903.62 302.797   4
   7   1   4 1751.75 298.899   1
   7  -1   5 583.698 188.144   1
   7   1   5 303.351 126.338   6
   7  -1   5 358.173 151.007   4
   7   1   5 197.412 106.517   1
   7  -1   6 1439.72 278.437   1
   7  -1   6 1595.27 290.947   4
   7   1   6 1343.70 275.271   1
   7  -1   7 435.779 163.394   1
   7  -1   7 466.991 159.819   4
   7   1   7 209.742 127.492   1
   7  -1   8 2015.97 348.967   1
   7  -1   8 1986.04 336.429   4
   7   1   8 1360.33 281.934   1
   7   1   9 805.986 180.855   1
   7  -1   9 1067.06 250.409   4
   7  -1   9 1127.60 261.973   1
   7   1  10 2336.86 380.586   1
   7  -1  10 2897.85 426.817   4
   7  -1  10 3089.93 449.513   1
   7   1  11 1040.31 257.655   1
   7  -1  11 1460.98 311.776   1
   7  -1  12 5615.89 623.853   1
   7   1  12 5048.21 574.688   1
   7  -2 -12 2441.85 373.721   6
   7   2 -11 3331.81 417.247   6
   7  -2 -11 3420.95 425.378   6
   7   2 -10 2282.73 338.527   6
   7  -2 -10 2219.05 333.494   6
   7   2  -9 1682.46 290.257   6
   7  -2  -9 1968.68 295.089   6
   7   2  -8 697.837 183.729   6
   7  -2  -8 691.907 180.329   6
   7   2  -7 951.947 208.693   6
   7  -2  -7 934.163 194.385   6
   7  -2  -6 611.950 156.711   1
   7   2  -6 912.043 205.390   6
   7  -2  -6 670.745 161.527   6
   7  -2  -5 498.211 145.505   1
   7   2  -5 775.466 208.223   6
   7  -2  -5 454.989 148.805   6
   7   2  -4 1700.73 288.913   6
   7  -2  -4 1353.71 241.226   1
   7  -2  -4 1415.20 211.607   6
   7  -2  -3 1292.68 250.483   1
   7  -2  -3 1806.54 242.588   6
   7   2  -2 3413.06 386.128   6
   7  -2  -2 3181.42 313.434   6
   7  -2  -2 3397.16 385.508   1
   7   2  -1 2832.15 353.710   6
   7  -2  -1 2405.65 258.982   6
   7  -2  -1 2091.01 298.104   4
   7  -2  -1 2986.00 373.905   1
   7   2   0 3390.20 374.231   6
   7  -2   0 2428.00 328.759   4
   7  -2   0 2815.36 371.453   1
   7   2   1 2849.25 341.896   6
   7  -2   1 2615.40 351.108   4
   7  -2   1 3090.27 383.081   1
   7   2   2 2740.19 337.038   6
   7  -2   2 2288.76 324.481   4
   7   2   2 3024.00 368.268   3
   7  -2   2 3467.50 415.372   1
   7   2   3 2641.84 336.435   6
   7  -2   3 2403.94 344.736   4
   7   2   3 3249.00 397.141   3
   7  -2   3 2476.47 360.126   1
   7   2   4 1406.68 263.406   3
   7   2   4 1246.15 220.637   6
   7  -2   4 1122.02 241.949   4
   7  -2   4 839.071 236.773   1
   7  -2   5 864.767 226.721   1
   7   2   5 1186.55 247.634   3
   7  -2   5 985.552 222.465   4
   7  -2   6 658.280 194.270   1
   7  -2   6 588.401 185.646   4
   7  -2   7 718.511 202.095   1
   7   2   7 461.335 178.946   1
   7  -2   7 664.655 196.875   4
   7  -2   8 1329.71 277.539   1
   7   2   8 719.748 219.857   1
   7  -2   8 1186.19 281.225   4
   7  -2   9 2094.24 372.074   1
   7  -2   9 1447.65 311.139   4
   7   2   9 1521.39 316.199   1
   7  -2  10 3405.63 487.895   1
   7  -2  10 3082.22 458.214   4
   7   2  10 2489.36 383.958   1
   7  -2  11 3281.42 480.395   4
   7   2  11 2567.04 401.459   1
   7  -2  12 3049.58 470.540   4
   7  -3 -11 518.423 191.045   6
   7  -3 -10 223.282 103.349   6
   7  -3  -9 2617.00 392.021   6
   7   3  -8 771.866 210.555   6
   7  -3  -8 612.751 177.270   6
   7   3  -7 5254.61 526.883   6
   7  -3  -7 4982.81 496.422   6
   7   3  -6 843.529 245.804   6
   7  -3  -6 703.735 181.924   6
   7   3  -5 6298.93 572.326   6
   7  -3  -5 5660.73 493.055   6
   7   3  -4 465.021 148.215   6
   7  -3  -4 483.874 150.021   6
   7   3  -3 2843.49 379.753   6
   7  -3  -3 1884.74 298.488   1
   7  -3  -2-22.5259 43.8461   1
   7   3  -2 234.954 139.642   6
   7  -3  -1 187.498 89.0065   1
   7   3  -1 351.765 56.1822   6
   7  -3   0-14.2847 44.4465   1
   7   3   0-99.7565 105.890   6
   7   3   1 184.757 112.584   6
   7  -3   1 111.663 88.7426   1
   7   3   2 135.852 139.152   3
   7   3   2 297.072 102.328   6
   7  -3   2 192.297 146.681   1
   7  -3   2 191.441 53.5668   4
   7  -3   3 1755.53 320.983   4
   7  -3   3 1524.64 323.573   1
   7   3   4 689.409 195.357   3
   7  -3   4 598.816 190.002   4
   7  -3   4 873.621 263.911   1
   7  -3   5 5132.91 587.618   1
   7  -3   5 4906.42 538.422   4
   7   3   5 5973.74 571.917   3
   7   3   6 878.425 245.144   3
   7  -3   6 1442.01 310.402   1
   7  -3   6 674.618 207.198   4
   7  -3   7 5437.37 627.367   1
   7  -3   7 4975.02 576.260   4
   7   3   7 5957.99 588.583   3
   7   3   8 988.518 257.386   3
   7  -3   8 773.872 267.381   1
   7  -3   8 521.710 169.181   4
   7   3   9 2762.46 421.471   3
   7  -3   9 2394.24 408.542   4
   7   3  10 596.397 216.786   3
   7  -3  10 114.051 73.7823   4
   7   3  11 272.912 112.293   3
   7  -4  -9 304.885 106.792   6
   7  -4  -8 1254.34 251.559   6
   7  -4  -7 327.786 95.1781   6
   7   4  -2 2356.21 378.075   6
   7   4  -1 19.0861 129.682   6
   7   4   0 2810.01 431.375   6
   7   4   1 181.904 101.960   3
   7   4   2 1981.82 348.616   3
   7   4   3 674.039 243.175   3
   7   4   4 1772.51 363.407   3
   7   4   5 498.320 179.900   3
   7   4   6 2242.65 389.624   3
   7  -4   6 1998.30 397.920   4
   7   4   7 335.830 186.264   3
   7   4   8 1236.32 315.774   3
   8   0  -8 5312.71 502.832   6
   8   0  -7-59.9212 93.9447   6
   8   0  -7-44.8317 81.4649   1
   8   0  -6 1317.87 230.516   6
   8   0  -6 2381.38 388.073   1
   8   0  -5-10.0131 51.7731   6
   8   0  -5-70.7466 107.956   1
   8   0  -4 11293.4 816.424   1
   8   0  -4 10961.5 675.331   6
   8   0  -3-12.6272 61.5681   6
   8   0  -3 29.9260 61.1161   1
   8   0  -2 422.780 136.075   6
   8   0  -2 393.066 145.497   1
   8   0  -1-86.3307 62.6888   6
   8   0  -1 105.350 97.1137   1
   8   0   0 35327.7 1486.01   1
   8   0   1 198.971 156.359   1
   8   0   2 229.664 107.435   1
   8   0   3 358.347 152.371   1
   8   0   4 11419.4 830.638   1
   8  -1  -8 409.231 127.108   6
   8   1  -7 2991.57 369.658   6
   8  -1  -7 2899.87 351.579   6
   8   1  -6 601.124 171.289   6
   8  -1  -6 554.680 150.106   6
   8  -1  -5 3101.16 410.335   1
   8   1  -5 2953.59 367.594   6
   8  -1  -5 2577.56 310.238   6
   8  -1  -4 991.197 238.141   1
   8   1  -4 1068.76 225.696   6
   8  -1  -4 1165.93 209.824   6
   8  -1  -3 2193.42 345.574   1
   8   1  -3 1923.14 294.171   6
   8  -1  -3 2256.26 282.102   6
   8  -1  -2 805.844 190.256   1
   8   1  -2 603.573 225.882   1
   8   1  -2 1026.40 229.022   6
   8  -1  -1 1160.83 255.025   1
   8   1  -1 1006.60 225.614   6
   8   1  -1 684.162 234.821   1
   8  -1   0 166.753 103.433   1
   8   1   0 292.686 100.499   6
   8   1   0 229.417 123.228   1
   8  -1   1 1376.31 271.277   1
   8   1   1 1017.37 180.783   6
   8   1   1 1429.60 316.560   1
   8  -1   2 537.072 177.224   1
   8   1   2 438.425 185.566   1
   8  -1   3 2299.00 369.979   1
   8   1   3 2505.23 383.587   1
   8  -1   4 1488.91 314.319   1
   8  -1   5 3403.30 470.048   1
   8  -2  -8 553.459 202.397   6
   8  -2  -7 4224.32 444.759   6
   8  -2  -6 3901.99 425.370   6
   8   2  -5 6485.29 592.406   6
   8   2  -4 614.409 204.459   6
   8   2  -3 5241.86 509.388   6
   8  -2  -3 6526.10 602.108   1
   8   2  -2 2589.13 354.640   6
   8  -2  -2 2765.64 393.712   1
   8   2  -1 3426.91 398.557   6
   8  -2  -1 3722.75 476.097   1
   8   2   0-77.7702 106.509   6
   8  -2   0 164.912 139.463   1
   8   2   1 2385.47 337.739   6
   8  -2   1 2500.42 395.210   1
   8   2   2 1908.99 300.991   6
   8  -2   2 2412.94 402.184   1
   8  -2   3 7558.15 698.891   1
   8  -2   6 3730.11 490.506   4
   8  -2   7 4950.36 570.411   4
   8  -2   8 1097.01 289.460   4
   8   3   1 413.757 145.409   6
   8  -3   1 526.542 192.182   1
   8  -3   2 3269.94 471.150   1
   0   0   0    0.00    0.00   0
;
_shelx_hkl_checksum              25785
_olex2_submission_special_instructions 'No special instructions were received'
_oxdiff_exptl_absorpt_empirical_details
;
Empirical correction (ABSPACK) includes:
- Absorption correction using spherical harmonics
- Frame scaling
;
_oxdiff_exptl_absorpt_empirical_full_max 2.480
_oxdiff_exptl_absorpt_empirical_full_min 0.591
loop_
_space_group_symop_operation_xyz
'x, y, z'
'-x+1/2, -y, z+1/2'
'x+1/2, -y, z+1/2'
'-x, y, z'
loop_
_atom_site_label
_atom_site_type_symbol
_atom_site_fract_x
_atom_site_fract_y
_atom_site_fract_z
_atom_site_U_iso_or_equiv
_atom_site_adp_type
_atom_site_occupancy
_atom_site_site_symmetry_order
_atom_site_calc_flag
_atom_site_refinement_flags_posn
_atom_site_refinement_flags_adp
_atom_site_refinement_flags_occupancy
_atom_site_disorder_assembly
_atom_site_disorder_group
U1 U 0.500000 0.18554(14) 0.60649(4) 0.0144(2) Uani 1 2 d S T P . .
Se1 Se 0.000000 -0.1405(4) 0.52739(11) 0.0163(5) Uani 1 2 d S T P . .
Se2 Se 1.000000 0.5093(4) 0.69001(10) 0.0148(4) Uani 1 2 d S T P . .
Cu1 Cu -0.2502(2) 0.6044(3) 0.36179(10) 0.0081(4) Uani 1 1 d . . . . .
Cu2 Cu 0.000000 0.1090(4) 0.35382(14) 0.0074(4) Uani 1 2 d S T P . .
Cu3 Cu -0.500000 0.0999(4) 0.35619(14) 0.0071(4) Uani 1 2 d S T P . .
O1 O 0.500000 0.461(4) 0.5573(8) 0.027(4) Uani 1 2 d S T P . .
O2 O 0.500000 -0.081(3) 0.6558(8) 0.026(4) Uani 1 2 d S T P . .
O3 O 0.2176(19) 0.062(3) 0.5345(6) 0.025(3) Uani 1 1 d . . . . .
O4 O 0.000000 -0.202(3) 0.4419(7) 0.007(3) Uani 1 2 d S T P . .
O5 O 0.778(2) 0.314(2) 0.6816(6) 0.023(3) Uani 1 1 d . . . . .
O6 O 1.000000 0.557(3) 0.7754(7) 0.010(3) Uani 1 2 d S T P . .
O7 O -0.2530(18) 0.276(2) 0.4020(5) 0.009(2) Uani 1 1 d D . . . .
H7 H -0.25(3) 0.27(3) 0.4489(17) 0.014 Uiso 1 1 d D U . . .
O8 O -0.500000 0.720(3) 0.4145(7) 0.008(3) Uani 1 2 d DS T P . .
H8 H -0.500000 0.63(3) 0.458(6) 0.012 Uiso 1 2 d DS U P . .
O9 O 0.000000 0.485(3) 0.3086(7) 0.010(3) Uani 1 2 d DS T P . .
H9 H 0.07(3) 0.56(5) 0.267(9) 0.015 Uiso 0.5 1 d D U P . .
O10 O -0.2474(13) -0.0734(18) 0.3125(6) 0.0080(19) Uani 1 1 d D . . . .
H10 H -0.26(3) -0.13(3) 0.268(3) 0.012 Uiso 1 1 d D U . . .
loop_
_atom_site_aniso_label
_atom_site_aniso_U_11
_atom_site_aniso_U_22
_atom_site_aniso_U_33
_atom_site_aniso_U_23
_atom_site_aniso_U_13
_atom_site_aniso_U_12
U1 0.0117(3) 0.0230(4) 0.0084(3) -0.0034(3) 0.000 0.000
Se1 0.0152(10) 0.0232(12) 0.0105(10) 0.0026(8) 0.000 0.000
Se2 0.0143(9) 0.0207(12) 0.0095(9) 0.0024(8) 0.000 0.000
Cu1 0.0051(7) 0.0057(8) 0.0135(9) 0.0007(7) 0.0009(6) 0.0006(6)
Cu2 0.0033(9) 0.0054(11) 0.0135(11) -0.0007(9) 0.000 0.000
Cu3 0.0035(9) 0.0055(11) 0.0124(10) -0.0020(9) 0.000 0.000
O1 0.039(10) 0.030(10) 0.013(7) 0.004(7) 0.000 0.000
O2 0.043(10) 0.026(10) 0.010(7) 0.001(7) 0.000 0.000
O3 0.020(5) 0.039(8) 0.016(6) -0.009(5) -0.002(4) -0.004(6)
O4 0.008(6) 0.009(7) 0.005(7) 0.001(5) 0.000 0.000
O5 0.029(6) 0.026(7) 0.013(6) -0.007(5) -0.003(5) -0.007(5)
O6 0.011(6) 0.009(7) 0.011(7) -0.006(5) 0.000 0.000
O7 0.007(5) 0.010(6) 0.011(5) -0.003(4) -0.001(3) -0.002(4)
O8 0.005(6) 0.013(7) 0.006(6) -0.001(5) 0.000 0.000
O9 0.007(5) 0.013(7) 0.009(6) 0.001(5) 0.000 0.000
O10 0.006(4) 0.006(5) 0.012(5) 0.001(4) -0.003(4) -0.002(3)
loop_
_atom_type_symbol
_atom_type_description
_atom_type_scat_dispersion_real
_atom_type_scat_dispersion_imag
_atom_type_scat_source
Cu Cu 0.3201 1.2651 'International Tables Vol C Tables 4.2.6.8 and 6.1.1.4'
H H 0.0000 0.0000 'International Tables Vol C Tables 4.2.6.8 and 6.1.1.4'
O O 0.0106 0.0060 'International Tables Vol C Tables 4.2.6.8 and 6.1.1.4'
Se Se -0.0929 2.2259 'International Tables Vol C Tables 4.2.6.8 and 6.1.1.4'
U U -9.6767 9.6646 'International Tables Vol C Tables 4.2.6.8 and 6.1.1.4'
loop_
_exptl_crystal_face_index_h
_exptl_crystal_face_index_k
_exptl_crystal_face_index_l
_exptl_crystal_face_perp_dist
-3 1 25 0.0213
-8 0 1 0.0487
8 0 5 0.0396
-2 5 19 0.0250
1 7 -11 0.0187
2 -4 -21 0.0323
-1 -7 10 0.0219
loop_
_geom_angle_atom_site_label_1
_geom_angle_atom_site_label_2
_geom_angle_atom_site_label_3
_geom_angle
_geom_angle_site_symmetry_1
_geom_angle_site_symmetry_3
O1 U1 O3 86.7(5) . 4_655
O1 U1 O3 86.7(5) . .
O1 U1 O5 93.5(5) . .
O1 U1 O5 93.5(5) . 4_655
O2 U1 O1 179.1(9) . .
O2 U1 O3 93.9(5) . .
O2 U1 O3 93.9(5) . 4_655
O2 U1 O5 85.9(5) . 4_655
O2 U1 O5 85.9(5) . .
O3 U1 O3 95.3(6) . 4_655
O3 U1 O5 178.4(4) . .
O3 U1 O5 178.4(4) 4_655 4_655
O3 U1 O5 86.3(4) . 4_655
O3 U1 O5 86.3(4) 4_655 .
O5 U1 O5 92.1(6) . 4_655
O3 Se1 O3 97.8(9) . 4
O4 Se1 O3 102.2(5) . .
O4 Se1 O3 102.2(5) . 4
O5 Se2 O5 100.6(8) 4_755 .
O6 Se2 O5 101.2(5) . 4_755
O6 Se2 O5 101.2(5) . .
O4 Cu1 Cu1 51.3(2) 1_565 4
O4 Cu1 O6 174.9(4) 1_565 2_564
O6 Cu1 Cu1 128.5(2) 2_564 4
O7 Cu1 Cu1 90.5(3) . 4
O7 Cu1 O4 99.9(5) . 1_565
O7 Cu1 O6 85.1(5) . 2_564
O7 Cu1 O10 175.1(4) . 1_565
O8 Cu1 Cu1 141.4(3) . 4
O8 Cu1 O4 90.1(4) . 1_565
O8 Cu1 O6 90.1(4) . 2_564
O8 Cu1 O7 95.7(5) . .
O8 Cu1 O9 179.4(6) . .
O8 Cu1 O10 87.4(5) . 1_565
O9 Cu1 Cu1 39.1(3) . 4
O9 Cu1 O4 90.4(4) . 1_565
O9 Cu1 O6 89.5(4) . 2_564
O9 Cu1 O7 83.9(5) . .
O9 Cu1 O10 93.1(5) . 1_565
O10 Cu1 Cu1 89.5(2) 1_565 4
O10 Cu1 O4 83.9(4) 1_565 1_565
O10 Cu1 O6 91.0(4) 1_565 2_564
O7 Cu2 O4 90.7(4) 4 .
O7 Cu2 O4 90.7(4) . .
O7 Cu2 O7 98.4(6) 4 .
O7 Cu2 O9 75.3(4) 4 .
O7 Cu2 O9 75.4(4) . .
O9 Cu2 O4 158.3(5) . .
O10 Cu2 O4 84.7(4) 4 .
O10 Cu2 O4 84.7(4) . .
O10 Cu2 O7 81.6(4) . .
O10 Cu2 O7 81.6(4) 4 4
O10 Cu2 O7 175.4(5) 4 .
O10 Cu2 O7 175.4(5) . 4
O10 Cu2 O9 109.0(4) . .
O10 Cu2 O9 109.0(4) 4 .
O10 Cu2 O10 98.0(6) 4 .
Cu3 Cu3 Cu2 0(10) 4_455 1_455
Cu3 Cu3 O7 0(10) 4_455 4_455
Cu3 Cu3 O7 0(10) 4_455 .
Cu3 Cu3 O8 0(10) 4_455 1_545
Cu3 Cu3 O10 0(10) 4_455 .
Cu3 Cu3 O10 0(10) 4_455 4_455
O7 Cu3 Cu2 138.2(3) . 1_455
O7 Cu3 Cu2 41.5(3) 4_455 1_455
O7 Cu3 O7 96.7(6) . 4_455
O7 Cu3 O8 103.4(4) 4_455 1_545
O7 Cu3 O8 103.4(4) . 1_545
O7 Cu3 O10 178.4(4) . 4_455
O7 Cu3 O10 178.4(4) 4_455 .
O7 Cu3 O10 81.8(4) . .
O7 Cu3 O10 81.8(4) 4_455 4_455
O8 Cu3 Cu2 91.27(6) 1_545 1_455
O10 Cu3 Cu2 140.0(3) . 1_455
O10 Cu3 Cu2 40.4(3) 4_455 1_455
O10 Cu3 O8 76.4(4) 4_455 1_545
O10 Cu3 O8 76.4(4) . 1_545
O10 Cu3 O10 99.7(6) 4_455 .
Se1 O3 U1 143.2(7) . .
Se1 O4 Cu1 135.9(4) . 4_545
Se1 O4 Cu1 135.9(4) . 1_545
Se1 O4 Cu2 122.2(7) . .
Cu1 O4 Cu1 77.3(4) 1_545 4_545
Cu1 O4 Cu2 83.0(4) 4_545 .
Cu1 O4 Cu2 83.0(4) 1_545 .
Se2 O5 U1 143.8(7) . .
Se2 O6 Cu1 128.2(5) . 2_565
Se2 O6 Cu1 128.2(5) . 3_665
Cu1 O6 Cu1 76.9(4) 3_665 2_565
Cu1 O7 Cu2 104.0(5) . .
Cu1 O7 H7 115(10) . .
Cu2 O7 H7 115(10) . .
Cu3 O7 Cu1 106.9(5) 4_455 .
Cu3 O7 Cu1 106.9(5) . .
Cu3 O7 Cu2 97.6(5) . .
Cu3 O7 Cu2 97.6(5) 4_455 .
Cu3 O7 Cu3 0.00(18) 4_455 .
Cu3 O7 H7 116(10) . .
Cu3 O7 H7 116(10) 4_455 .
Cu1 O8 Cu1 102.7(7) 4_455 .
Cu1 O8 Cu3 93.0(5) 4_455 1_565
Cu1 O8 Cu3 93.0(5) . 1_565
Cu1 O8 H8 106(8) . .
Cu1 O8 H8 106(8) 4_455 .
Cu3 O8 H8 149(10) 1_565 .
Cu1 O9 Cu1 101.9(7) . 4
Cu1 O9 Cu2 96.7(5) . .
Cu1 O9 Cu2 96.7(5) 4 .
Cu1 O9 H9 129(10) . .
Cu1 O9 H9 86(10) 4 .
Cu2 O9 H9 133(10) . .
Cu1 O10 H10 99(10) 1_545 .
Cu2 O10 Cu1 106.2(4) . 1_545
Cu2 O10 Cu3 98.9(5) . 4_455
Cu2 O10 Cu3 98.9(5) . .
Cu2 O10 H10 129(10) . .
Cu3 O10 Cu1 103.3(4) 4_455 1_545
Cu3 O10 Cu1 103.3(4) . 1_545
Cu3 O10 Cu3 0.00(14) 4_455 .
Cu3 O10 H10 118(10) 4_455 .
Cu3 O10 H10 118(10) . .
loop_
_geom_bond_atom_site_label_1
_geom_bond_atom_site_label_2
_geom_bond_distance
_geom_bond_site_symmetry_2
U1 O1 1.796(18) .
U1 O2 1.754(18) .
U1 O3 2.280(11) .
U1 O3 2.280(11) 4_655
U1 O5 2.307(11) .
U1 O5 2.307(11) 4_655
Se1 O3 1.724(13) .
Se1 O3 1.724(12) 4
Se1 O4 1.666(13) .
Se2 O5 1.719(12) 4_755
Se2 O5 1.719(12) .
Se2 O6 1.649(14) .
Cu1 Cu1 2.987(3) 4
Cu1 O4 2.391(11) 1_565
Cu1 O6 2.397(12) 2_564
Cu1 O7 1.983(11) .
Cu1 O8 1.909(9) .
Cu1 O9 1.923(9) .
Cu1 O10 2.022(10) 1_565
Cu2 O4 2.411(14) .
Cu2 O7 1.996(11) 4
Cu2 O7 1.996(11) .
Cu2 O9 2.261(14) .
Cu2 O10 1.956(9) 4
Cu2 O10 1.957(9) .
Cu3 Cu3 0.000(7) 4_455
Cu3 O7 1.972(11) .
Cu3 O7 1.972(11) 4_455
Cu3 O8 2.387(15) 1_545
Cu3 O10 1.973(9) 4_455
Cu3 O10 1.974(9) .
O7 H7 0.89(3) .
O8 H8 0.97(2) .
O9 H9 1.00(3) .
O10 H10 0.89(3) .
loop_
_geom_torsion_atom_site_label_1
_geom_torsion_atom_site_label_2
_geom_torsion_atom_site_label_3
_geom_torsion_atom_site_label_4
_geom_torsion
_geom_torsion_site_symmetry_1
_geom_torsion_site_symmetry_2
_geom_torsion_site_symmetry_3
_geom_torsion_site_symmetry_4
O3 Se1 O3 U1 110.1(11) 4 . . .
O3 Se1 O4 Cu1 65.8(11) . . . 4_545
O3 Se1 O4 Cu1 166.7(9) 4 . . 4_545
O3 Se1 O4 Cu1 -166.7(9) . . . 1_545
O3 Se1 O4 Cu1 -65.8(11) 4 . . 1_545
O3 Se1 O4 Cu2 50.5(5) 4 . . .
O3 Se1 O4 Cu2 -50.5(5) . . . .
O4 Se1 O3 U1 -145.5(11) . . . .
O5 Se2 O5 U1 -105.2(11) 4_755 . . .
O5 Se2 O6 Cu1 -103.9(8) 4_755 . . 2_565
O5 Se2 O6 Cu1 103.9(8) . . . 3_665
O5 Se2 O6 Cu1 -0.6(9) . . . 2_565
O5 Se2 O6 Cu1 0.6(9) 4_755 . . 3_665
O6 Se2 O5 U1 151.0(11) . . . .
loop_
_exptl_oxdiff_crystal_face_indexfrac_h
_exptl_oxdiff_crystal_face_indexfrac_k
_exptl_oxdiff_crystal_face_indexfrac_l
_exptl_oxdiff_crystal_face_x
_exptl_oxdiff_crystal_face_y
_exptl_oxdiff_crystal_face_z
-2.6320 1.2167 25.1936 -0.0104 -0.0042 0.9999
-8.4076 0.1667 0.5799 -0.9197 0.2163 0.3277
8.2525 0.1046 5.1923 0.9666 -0.2289 -0.1150
-2.1224 5.1811 18.9871 0.1177 0.5188 0.8467
0.8673 7.0849 -11.0871 0.2241 0.9358 -0.2721
2.3067 -4.3550 -21.0966 -0.0902 -0.4047 -0.9100
-0.7693 -7.2103 10.1697 -0.2262 -0.9456 0.2339
