#------------------------------------------------------------------------------
#$Date: 2022-02-01 10:53:36 +0200 (Tue, 01 Feb 2022) $
#$Revision: 272377 $
#$URL: file:///home/coder/svn-repositories/cod/cif/1/56/62/1566224.cif $
#------------------------------------------------------------------------------
#
# This file is available in the Crystallography Open Database (COD),
# http://www.crystallography.net/
#
# All data on this site have been placed in the public domain by the
# contributors.
#
data_1566224
loop_
_publ_author_name
'Vladislav V. Gurzhiy'
'Alina R. Izatulina'
'Maria G. Krzhizhanovskaya'
'Mikhail N. Murashko'
'Dar-ya V. Spiridonova'
'Vladimir V. Shilovskikh'
'Sergey V. Krivovichev'
_publ_section_title
;
 Thermal behavior of uranyl selenite minerals derriksite and
 demesmaekerite
;
_journal_name_full               'Journal of GeoSciences'
_journal_page_first              249
_journal_page_last               259
_journal_paper_doi               10.3190/jgeosci.315
_journal_volume                  65
_journal_year                    2020
_chemical_formula_moiety         'Cu5 H10 O30 Pb2 Se6 U2'
_chemical_formula_sum            'Cu5 H10 O30 Pb2 Se6 U2'
_chemical_formula_weight         2171.98
_space_group_crystal_system      triclinic
_space_group_IT_number           2
_space_group_name_Hall           '-P 1'
_space_group_name_H-M_alt        'P -1'
_atom_sites_solution_hydrogens   difmap
_cell_angle_alpha                88.674(4)
_cell_angle_beta                 79.773(6)
_cell_angle_gamma                89.940(5)
_cell_formula_units_Z            1
_cell_length_a                   5.6699(5)
_cell_length_b                   10.0953(4)
_cell_length_c                   11.9744(7)
_cell_measurement_reflns_used    2723
_cell_measurement_temperature    360(2)
_cell_measurement_theta_max      30.9310
_cell_measurement_theta_min      3.6430
_cell_volume                     674.33(8)
_computing_cell_refinement       'CrysAlisPro 1.171.39.44a (Rigaku OD, 2018)'
_computing_data_collection       'CrysAlisPro 1.171.39.44a (Rigaku OD, 2018)'
_computing_data_reduction        'CrysAlisPro 1.171.39.44a (Rigaku OD, 2018)'
_computing_molecular_graphics    'Olex2 1.3 (Dolomanov et al., 2009)'
_computing_publication_material  'Olex2 1.3 (Dolomanov et al., 2009)'
_computing_structure_refinement  'SHELXL 2018/3 (Sheldrick, 2015)'
_computing_structure_solution    'SHELXT 2018/3 (Sheldrick, 2015)'
_diffrn_ambient_environment      air
_diffrn_ambient_temperature      360(2)
_diffrn_detector                 'CCD plate'
_diffrn_detector_area_resol_mean 10.3829
_diffrn_detector_type            Atlas
_diffrn_measured_fraction_theta_full 0.995
_diffrn_measured_fraction_theta_max 0.995
_diffrn_measurement_details
;
List of Runs (angles in degrees, time in seconds):

  # Type    Start    End  Width  t~exp~   \w     \q     \k     \f   Frames
--------------------------------------------------------------------------
  1  \w    -26.00   1.00   1.00   22.50    --  -15.14 -77.00-150.00   27
  2  \w    -40.00  17.00   1.00   22.50    --  -15.14 -77.00 -30.00   57
  3  \w     39.00 102.00   1.00   22.50    --   16.86 178.00  60.00   63
  4  \w     -2.00  93.00   1.00   22.50    --   16.86  38.00-120.00   95
  5  \w    -57.00  41.00   1.00   22.50    --   16.86 -57.00  90.00   98
;
_diffrn_measurement_device       'four-circle diffractometer'
_diffrn_measurement_device_type  'SuperNova, Dual, Cu at home/near, Atlas'
_diffrn_measurement_method       '\w scans'
_diffrn_orient_matrix_type
'CrysAlisPro convention (1999,Acta A55,543-557)'
_diffrn_orient_matrix_UB_11      -0.0738198000
_diffrn_orient_matrix_UB_12      -0.0252223000
_diffrn_orient_matrix_UB_13      -0.0364426000
_diffrn_orient_matrix_UB_21      0.0925076000
_diffrn_orient_matrix_UB_22      0.0117400000
_diffrn_orient_matrix_UB_23      -0.0471407000
_diffrn_orient_matrix_UB_31      0.0453451000
_diffrn_orient_matrix_UB_32      -0.0643933000
_diffrn_orient_matrix_UB_33      0.0072272000
_diffrn_radiation_monochromator  mirror
_diffrn_radiation_probe          x-ray
_diffrn_radiation_type           'Mo K\a'
_diffrn_radiation_wavelength     0.71073
_diffrn_reflns_av_R_equivalents  0.0397
_diffrn_reflns_av_unetI/netI     0.0687
_diffrn_reflns_Laue_measured_fraction_full 0.995
_diffrn_reflns_Laue_measured_fraction_max 0.995
_diffrn_reflns_limit_h_max       7
_diffrn_reflns_limit_h_min       -7
_diffrn_reflns_limit_k_max       13
_diffrn_reflns_limit_k_min       -13
_diffrn_reflns_limit_l_max       14
_diffrn_reflns_limit_l_min       -15
_diffrn_reflns_number            5578
_diffrn_reflns_point_group_measured_fraction_full 0.995
_diffrn_reflns_point_group_measured_fraction_max 0.995
_diffrn_reflns_theta_full        25.242
_diffrn_reflns_theta_max         27.497
_diffrn_reflns_theta_min         3.459
_diffrn_source                   'micro-focus sealed X-ray tube'
_diffrn_source_type              'SuperNova (Mo) X-ray Source'
_exptl_absorpt_coefficient_mu    36.472
_exptl_absorpt_correction_T_max  0.250
_exptl_absorpt_correction_T_min  0.078
_exptl_absorpt_correction_type   analytical
_exptl_absorpt_process_details
;
CrysAlisPro 1.171.39.44a (Rigaku Oxford Diffraction, 2018)
Analytical numeric absorption correction using a multifaceted crystal
			model based on expressions derived by R.C. Clark & J.S. Reid.
(Clark, R. C. & Reid, J. S. (1995). Acta Cryst. A51, 887-897)
Empirical absorption correction using spherical harmonics,
 implemented in SCALE3 ABSPACK scaling algorithm.
;
_exptl_crystal_colour            brown
_exptl_crystal_density_diffrn    5.349
_exptl_crystal_description       prism
_exptl_crystal_F_000             947
_exptl_crystal_size_max          0.12
_exptl_crystal_size_mid          0.063
_exptl_crystal_size_min          0.055
_refine_diff_density_max         2.501
_refine_diff_density_min         -1.977
_refine_diff_density_rms         0.374
_refine_ls_extinction_coef       .
_refine_ls_extinction_method     none
_refine_ls_goodness_of_fit_ref   1.002
_refine_ls_hydrogen_treatment    mixed
_refine_ls_matrix_type           full
_refine_ls_number_parameters     215
_refine_ls_number_reflns         3080
_refine_ls_number_restraints     5
_refine_ls_restrained_S_all      1.001
_refine_ls_R_factor_all          0.0485
_refine_ls_R_factor_gt           0.0361
_refine_ls_shift/su_max          0.000
_refine_ls_shift/su_mean         0.000
_refine_ls_structure_factor_coef Fsqd
_refine_ls_weighting_details
'w=1/[\s^2^(Fo^2^)+(0.0207P)^2^] where P=(Fo^2^+2Fc^2^)/3'
_refine_ls_weighting_scheme      calc
_refine_ls_wR_factor_gt          0.0674
_refine_ls_wR_factor_ref         0.0736
_reflns_Friedel_coverage         0.000
_reflns_Friedel_fraction_full    .
_reflns_Friedel_fraction_max     .
_reflns_number_gt                2551
_reflns_number_total             3080
_reflns_threshold_expression     'I > 2\s(I)'
_cod_data_source_file            Demesmaekerite_SN_87C_last.cif
_cod_data_source_block           demesmaekerite_sn_87C
_cod_database_code               1566224
_chemical_oxdiff_formula         'Pb2 Cu5 U2 Se6 O30'
_shelx_space_group_comment
;
The symmetry employed for this shelxl refinement is uniquely defined
by the following loop, which should always be used as a source of
symmetry information in preference to the above space-group names.
They are only intended as comments.
;
_reflns_odcompleteness_completeness 99.66
_reflns_odcompleteness_iscentric 1
_reflns_odcompleteness_theta     28.51
_olex2_refinement_description
;
1. Fixed Uiso
 At 1.5 times of:
  All O(H) groups, All O(H,H) groups
2. Restrained distances
 O14-H14
 0.95 with sigma of 0.02
 O13-H13
 0.95 with sigma of 0.02
 O12-H12
 0.95 with sigma of 0.02
 H15A-O5_$3
 2 with sigma of 0.02
 O9_$2-H13
 2 with sigma of 0.02
3.a Rotating group:
 O15(H15A,H15B)
;
_shelx_res_file
;
TITL Demesmaekerite_SN_363K in P-1
    demesmaekerite_sn_363k.res
    created by SHELXL-2018/3 at 02:38:00 on 09-Sep-2020
REM P-1 (#2 in standard setting)
CELL 0.71073 5.669872 10.095273 11.974376 88.6735 79.7731 89.9402
ZERR 1 0.000547 0.000434 0.000697 0.0041 0.0063 0.0053
LATT 1
SFAC Cu H O Pb Se U
UNIT 5 10 30 2 6 2
EQIV $1 +X,-1+Y,+Z
EQIV $2 -1+X,+Y,+Z
EQIV $3 2-X,1-Y,-Z
DFIX 0.95 O14 H14
DFIX 0.95 O13 H13
DFIX 0.95 O12 H12
DFIX 2 H15a O5_$3
DFIX 2 O9_$2 H13

L.S. 20
PLAN  4
CONF
HTAB O12 O8_$1
HTAB O13 O9_$2
HTAB O14 O3_$3
HTAB O15 O5_$3
HTAB O15 O6_$1
Htab
BOND $H
MORE -1
fmap 2
acta
OMIT -4 55
OMIT 1 2 11
OMIT -1 1 0
OMIT 1 2 10
OMIT 4 0 7
OMIT 1 -12 5
OMIT 1 -8 1
OMIT 1 0 2
OMIT -6 -3 4
OMIT 3 -1 4
REM <olex2.extras>
REM <HklSrc "%.\\Demesmaekerite_SN_363K.hkl">
REM </olex2.extras>

WGHT    0.020700
FVAR       1.62929
U1    6    1.260718    0.916351    0.252664    11.00000    0.01616    0.01026 =
         0.00823    0.00017   -0.00099   -0.00464
PB1   4    0.171655    0.310027    0.194599    11.00000    0.01902    0.01786 =
         0.02041    0.00236   -0.00299   -0.00461
SE1   5    1.289029    0.888213   -0.046810    11.00000    0.01669    0.01085 =
         0.01036    0.00024   -0.00109   -0.00357
SE2   5    1.224914    1.168095    0.488220    11.00000    0.02757    0.01870 =
         0.01158    0.00074   -0.00069   -0.00456
SE3   5    0.906587    0.624331    0.222131    11.00000    0.01790    0.01273 =
         0.01549   -0.00326    0.00089   -0.00338
CU1   1    1.000000    0.500000    0.500000    10.50000    0.01463    0.01880 =
         0.01157   -0.00137   -0.00196   -0.00566
CU2   1    0.706971    0.443377    0.046314    11.00000    0.01563    0.01149 =
         0.01871    0.00146   -0.00524   -0.00306
CU3   1    0.564675    0.423077    0.385537    11.00000    0.01707    0.02308 =
         0.01156   -0.00148   -0.00057   -0.00885
O1    3    1.521407    0.866197    0.304644    11.00000    0.01649    0.03768 =
         0.03013    0.00664   -0.00606   -0.00007
O2    3    1.002192    0.965174    0.196817    11.00000    0.01253    0.03367 =
         0.02331    0.00319    0.00087   -0.00105
O3    3    1.443080    0.865430    0.062577    11.00000    0.02147    0.01426 =
         0.01088   -0.00111   -0.00177   -0.00688
O4    3    1.161588    0.736916   -0.058418    11.00000    0.02594    0.00798 =
         0.01923    0.00406   -0.00715   -0.00221
O5    3    1.517445    0.886776   -0.161875    11.00000    0.01594    0.02044 =
         0.01957    0.00008    0.00341   -0.00467
O6    3    1.160317    1.101187    0.368757    11.00000    0.05674    0.02178 =
         0.01537   -0.00453   -0.01027   -0.00998
O7    3    1.241765    1.329623    0.443325    11.00000    0.03012    0.01244 =
         0.03166   -0.00083    0.00565   -0.00841
O8    3    0.954895    1.167368    0.572942    11.00000    0.04883    0.02731 =
         0.01824    0.00701    0.01628   -0.00037
O9    3    1.176577    0.690547    0.223151    11.00000    0.02310    0.01495 =
         0.01902   -0.00656   -0.00049   -0.00834
O10   3    0.888904    0.512845    0.332463    11.00000    0.02353    0.03128 =
         0.01168    0.00148    0.00337   -0.01482
O11   3    0.981977    0.514327    0.114976    11.00000    0.01602    0.01439 =
         0.00936   -0.00709    0.00004   -0.00070
O12   3    0.693500    0.410140    0.525970    11.00000    0.01731    0.01388 =
         0.01569    0.00459   -0.00108   -0.00370
H12   2    0.715427    0.321052    0.546761    11.00000   -1.50000
O13   3    0.472333    0.455906    0.238570    11.00000    0.02226    0.01993 =
         0.01265   -0.00267   -0.00065   -0.00479
H13   2    0.370240    0.530705    0.251339    11.00000   -1.50000
O14   3    0.405066    0.383371    0.006742    11.00000    0.02182    0.00802 =
         0.01538   -0.00210   -0.00643   -0.00055
H14   2    0.435127    0.305846   -0.035571    11.00000   -1.50000
O15   3    0.701264    0.201271    0.342015    11.00000    0.03351    0.06158 =
         0.04840   -0.02091   -0.00793   -0.00245
AFIX   7
H15A  2    0.678635    0.178310    0.273097    11.00000   -1.50000
H15B  2    0.860500    0.194856    0.335986    11.00000   -1.50000
AFIX   0
HKLF 4




REM  Demesmaekerite_SN_363K in P-1
REM wR2 = 0.0736, GooF = S = 1.002, Restrained GooF = 1.001 for all data
REM R1 = 0.0361 for 2551 Fo > 4sig(Fo) and 0.0485 for all 3080 data
REM 215 parameters refined using 5 restraints

END

WGHT      0.0207      0.0000

REM Instructions for potential hydrogen bonds
HTAB O12 O8_$1
HTAB O13 Se3_$2
HTAB O13 O9_$2
HTAB O14 Se1_$3
HTAB O14 O3_$3
HTAB O15 Se1_$3
HTAB O15 O5_$3
HTAB O15 Se2_$1
HTAB O15 O6_$1

REM Highest difference peak  2.501,  deepest hole -1.977,  1-sigma level  0.374
Q1    1   1.3378  0.9816  0.2766  11.00000  0.05    2.50
Q2    1   0.1060  0.2365  0.1604  11.00000  0.05    2.50
Q3    1   1.1967  0.8397  0.2286  11.00000  0.05    2.09
Q4    1   1.3172  0.8787  0.3047  11.00000  0.05    2.08
;
_shelx_res_checksum              49180
_shelx_hkl_file
;
   0   0   2 45474.4 1373.57   1
   0   0  -3 35197.6 1565.78   4
   0   0  -3 35350.9 991.672   3
   0   0   3 36622.5 1317.93   1
   0   0   4 203489. 5348.64   1
   0   0  -4 211772. 4807.46   3
   0   0  -4 207389. 5859.19   4
   0   0  -5 50691.3 2383.88   4
   0   0   5 50368.8 1989.88   1
   0   0  -5 51433.5 1537.17   3
   0   0  -6 6695.00 866.431   4
   0   0  -6 6734.00 473.651   3
   0   0   6 8026.53 750.401   1
   0   0   7 119760. 3791.95   1
   0   0  -7 112020. 4380.32   4
   0   0  -8 3987.03 377.562   3
   0   0   8 4329.86 642.358   1
   0   0  -8 3905.89 779.105   4
   0   0  -9 25121.2 2098.52   4
   0   0  -9 19245.9 820.695   3
   0   0 -10 2041.29 636.888   4
   0   0 -11 7247.62 1266.10   4
   0   0 -12 823.679 651.974   4
   0   0 -13 18148.0 2223.95   4
   0   0 -14 13471.3 2022.63   4
   0   0 -15 801.185 786.185   4
   0   1 -15 1328.93 830.500   4
   0   1 -14 35963.8 3313.96   4
   0   1 -13 7354.55 1442.52   4
   0   1 -12 34713.5 2954.52   4
   0   1 -11 37831.1 2940.53   4
   0   1 -10 80635.5 2789.29   3
   0   1 -10 97019.8 4615.82   4
   0   1  -9 32331.8 2445.55   4
   0   1  -9 32662.3 1586.21   3
   0   1  -8 11702.9 906.313   3
   0   1  -8 15037.8 1512.53   4
   0   1  -7 147265. 4370.05   3
   0   1  -7 159375. 5473.21   4
   0   1  -6 2238.72 352.696   3
   0   1  -6 2009.40 425.041   1
   0   1  -6 2318.90 515.461   4
   0   1  -5 75486.9 3053.44   4
   0   1  -5 75797.0 2449.00   3
   0   1  -5 77956.8 2735.13   1
   0   1  -4 2365.92 312.263   3
   0   1  -4 2455.93 429.149   4
   0  -1   3 88077.5 2311.63   3
   0   1  -3 82193.2 2767.94   4
   0   1  -3 83173.7 2444.80   3
   0   1  -2 338.602 132.944   4
   0  -1   2 505.684 123.728   3
   0  -1  -2 58111.5 1842.65   4
   0  -1  -3 24422.2 1228.75   4
   0  -1  -4 62742.6 2465.17   4
   0  -1  -5 2062.01 458.702   4
   0  -1  -6 116623. 4243.48   4
   0   1   6 114628. 3665.89   1
   0   1   7 34744.8 2056.02   4
   0  -1  -7 34432.4 2187.76   4
   0   1   7 33766.4 1782.57   1
   0   1   8 9803.03 980.232   1
   0  -1  -8 9427.67 1188.78   4
   0  -1  -9 2886.00 712.355   4
   0   1   9 3027.78 571.990   1
   0  -1 -10 10057.0 1363.52   4
   0  -1 -11 19264.5 2067.01   4
   0  -1 -12 10439.9 1628.92   4
   0  -1 -13 798.269 589.972   4
   0  -1 -14 586.813 504.124   4
   0  -1 -15 276.443 608.279   4
   0   2 -15 13992.2 2123.96   4
   0   2 -14 1471.62 773.244   4
   0   2 -13 1203.20 681.708   4
   0   2 -12 6006.59 1189.01   4
   0   2 -11 489.065 487.203   4
   0   2 -10 3577.18 568.844   3
   0   2 -10 5583.19 1038.87   4
   0   2  -9 1894.27 605.050   4
   0   2  -9 819.968 296.280   3
   0   2  -8 10818.7 1008.21   3
   0   2  -8 14735.8 1471.46   4
   0   2  -8 12180.6 1168.83   1
   0   2  -7 36791.4 1905.36   3
   0  -2   7 42006.8 2396.65   4
   0   2  -7 36609.9 2258.86   4
   0   2  -6 51600.5 2538.55   4
   0   2  -6 47947.6 2176.07   3
   0   2  -5 38541.0 1810.39   3
   0   2  -5 38352.3 2014.79   4
   0  -2   5 39122.5 1580.33   3
   0   2  -4 18073.9 1109.44   3
   0  -2   4 17806.7 972.384   3
   0   2  -4 17753.1 1185.74   4
   0  -2   4 18080.1 843.803   2
   0   2  -3 133494. 4010.66   3
   0  -2   3 139543. 3571.79   2
   0  -2   3 139271. 3824.21   3
   0   2  -3 140542. 3991.12   4
   0   2  -2 2091.59 286.659   4
   0   2  -2 1983.89 267.419   2
   0  -2   2 1732.71 243.899   2
   0  -2   2 2143.48 330.628   3
   0   2  -1 83312.1 2192.55   4
   0  -2   1 85469.9 2537.10   2
   0  -2   1 84428.1 2616.93   3
   0  -2   0 9962.84 693.937   3
   0  -2   0 9376.02 707.190   2
   0  -2  -1 87394.1 2240.18   5
   0  -2  -1 81710.9 2601.69   3
   0   2   1 85413.6 2230.44   5
   0   2   2 258.332 104.741   4
   0   2   2 304.001 120.875   3
   0  -2  -2 276.637 116.228   4
   0  -2  -2 143.114 96.3723   3
   0  -2  -3 602.574 216.409   4
   0   2   3 449.746 154.284   4
   0  -2  -3 442.428 134.952   3
   0  -2  -4 656.607 258.248   4
   0  -2  -4 543.158 143.470   3
   0   2   4 948.762 264.259   4
   0  -2  -5 673.073 296.745   4
   0   2   5 532.353 244.632   4
   0  -2  -5 320.075 107.489   3
   0   2   6 11000.0 1003.52   4
   0  -2  -6 10121.4 1037.25   4
   0  -2  -6 9470.93 522.080   3
   0   2   7 8901.63 983.411   4
   0  -2  -7 10444.2 1146.20   4
   0  -2  -8 90387.4 3983.26   4
   0   2   8 90282.6 3520.18   1
   0   2   9 7283.13 937.798   1
   0  -2  -9 8468.12 1216.00   4
   0  -2 -10 65288.3 3653.64   4
   0  -2 -11 22552.3 2185.14   4
   0  -2 -12 38123.2 3028.45   4
   0  -2 -13 17131.6 2132.33   4
   0   2  13 17049.2 1507.79   2
   0  -2 -14 14660.2 2059.76   4
   0  -2 -15 40104.4 3611.81   4
   0   3 -15 11612.1 1981.10   4
   0   3 -14 510.077 484.384   4
   0   3 -13 12050.0 1773.69   4
   0   3 -12 24373.3 2405.14   4
   0   3 -11 65017.7 3828.76   4
   0   3 -10 7171.37 983.593   3
   0   3 -10 10780.9 1419.06   4
   0   3 -10 9111.88 1194.02   1
   0  -3  10 9949.10 746.014   2
   0   3  -9 15291.6 1452.89   1
   0  -3   9 15464.3 940.327   2
   0   3  -9 15629.9 1601.96   4
   0  -3   8 273.406 165.455   2
   0   3  -8 465.059 400.363   4
   0   3  -8 298.035 190.358   3
   0   3  -8 428.905 319.979   1
   0   3  -7 15457.8 1289.44   3
   0  -3   7 13588.6 868.562   2
   0   3  -7 14804.8 1363.77   4
   0   3  -7 15880.7 1332.95   1
   0  -3   6 6151.57 558.103   2
   0   3  -6 5274.11 742.486   4
   0  -3   6 5490.88 633.511   3
   0   3  -6 4097.81 642.799   3
   0   3  -5 37213.5 1993.38   3
   0  -3   5 38441.2 2010.28   4
   0  -3   5 35452.5 1492.81   2
   0   3  -5 37001.1 1940.06   4
   0  -3   5 38014.0 1748.89   3
   0   3  -4 28915.0 1523.29   4
   0  -3   4 27630.4 1278.80   2
   0  -3   4 28561.6 1470.70   3
   0   3  -4 30098.5 1695.55   3
   0  -3   4 28973.4 1568.48   4
   0  -3   3 75709.1 2574.37   4
   0  -3   3 72932.4 2705.25   3
   0  -3   3 70768.8 2419.84   2
   0   3  -3 77667.5 2910.60   3
   0   3  -3 76842.3 2538.26   4
   0   3  -3 76612.1 2473.26   2
   0  -3   2 193723. 5237.76   2
   0   3  -2 196996. 4916.18   4
   0  -3   2 195809. 5490.59   3
   0  -3   2 198591. 4998.65   4
   0   3  -2 194297. 5310.42   2
   0  -3   1 21549.4 1281.52   3
   0   3  -1 21112.6 780.154   4
   0  -3   1 21361.5 1262.21   2
   0  -3   1 22126.0 848.164   4
   0   3  -1 20642.3 1215.47   2
   0   3   0 1421.01 227.950   5
   0  -3   0 1720.07 361.540   3
   0  -3   0 1499.67 356.055   2
   0  -3  -1 201432. 4774.38   5
   0   3   1 195403. 4727.15   5
   0  -3  -1 203139. 5575.30   3
   0   3   2 94171.7 2900.88   3
   0  -3  -2 93083.4 2660.84   5
   0  -3  -2 95542.7 3165.95   3
   0  -3  -2 91690.0 2438.15   4
   0   3   2 91842.5 2498.98   4
   0  -3  -3 388798. 9286.18   5
   0  -3  -3 371681. 9424.27   3
   0   3   3 388455. 9032.23   4
   0  -3  -3 386706. 9028.94   4
   0   3   3 381170. 9128.95   3
   0   3   4 28838.1 1390.18   4
   0  -3  -4 27695.9 1398.49   4
   0  -3  -4 25985.5 1359.11   3
   0  -3  -5 229213. 6136.70   3
   0   3   5 244972. 6509.14   4
   0  -3  -5 246189. 6629.39   4
   0   3   6 19119.5 1304.76   4
   0  -3  -6 14866.0 898.147   3
   0  -3  -6 17963.3 1346.93   4
   0  -3  -7 28256.7 1841.75   4
   0   3   7 30391.1 1781.38   4
   0  -3  -8 94612.0 4015.82   4
   0  -3  -9 34901.2 2406.55   4
   0  -3 -10 11615.5 1420.19   4
   0  -3 -11 227.639 342.506   4
   0   3  11 419.481 233.684   2
   0  -3 -12 29.2062 434.555   4
   0   3  12 290.649 253.465   2
   0  -3 -13 17142.6 2091.92   4
   0   3  13 15653.6 1565.70   2
   0  -3 -14 1526.55 745.413   4
   0  -3 -15 2461.54 916.320   4
   0  -3 -15 2282.04 1028.36   5
   0  -3 -16 2582.51 1099.01   5
   0   4 -15 3814.28 1105.35   4
   0   4 -14-124.756 440.418   4
   0   4 -13 25297.9 2584.60   4
   0   4 -12 13949.9 1773.36   4
   0   4 -11 32272.7 2590.48   4
   0   4 -11 30406.3 2462.87   1
   0   4 -10 16732.2 1742.00   4
   0  -4  10 14094.3 958.197   2
   0   4 -10 15791.9 1654.51   1
   0  -4   9 69174.5 2506.16   2
   0   4  -9 67527.7 3413.37   3
   0   4  -9 68480.1 3513.87   1
   0   4  -9 74616.7 3678.11   4
   0   4  -8 18940.6 1626.94   3
   0   4  -8 20321.4 1700.08   4
   0   4  -8 18784.2 1657.31   1
   0  -4   8 19231.6 1159.60   2
   0  -4   7 89509.3 3042.46   2
   0   4  -7 92165.1 3809.88   4
   0   4  -7 91860.4 3835.44   1
   0   4  -7 98411.8 3972.87   3
   0  -4   6 37549.9 1716.76   2
   0  -4   6 36952.5 1947.93   3
   0   4  -6 37595.6 2064.01   4
   0   4  -6 36426.5 2144.51   1
   0   4  -6 40552.2 2298.92   3
   0  -4   5 87245.0 3297.60   4
   0  -4   5 79402.6 2859.00   2
   0   4  -5 89592.0 3572.45   3
   0  -4   5 80439.0 3126.07   3
   0   4  -5 84947.8 3149.45   4
   0  -4   4 129670. 4057.44   2
   0  -4   4 128456. 4345.83   3
   0  -4   4 134845. 4229.68   4
   0   4  -4 140273. 4718.40   3
   0   4  -4 142173. 4141.38   4
   0   4  -3 255.030 197.917   2
   0   4  -3 300.807 204.827   3
   0  -4   3 140.863 131.956   4
   0  -4   3 549.773 284.226   3
   0  -4   3 772.237 230.164   2
   0   4  -3 446.958 177.394   4
   0   4  -2 48738.6 2220.18   2
   0  -4   2 48604.4 2354.21   3
   0   4  -2 50314.1 1654.40   4
   0  -4   2 49656.0 2223.80   2
   0  -4   2 49026.1 1743.00   4
   0   4  -1 9994.16 937.769   2
   0   4  -1 9727.92 817.814   5
   0  -4   1 10031.8 990.367   3
   0  -4   1 10601.4 990.339   2
   0  -4   1 9966.75 558.371   4
   0   4  -1 9685.08 459.908   4
   0  -4   0 99228.9 3636.19   3
   0   4   0 100002. 2888.81   5
   0  -4   0 102090. 3714.74   2
   0   4   1 1580.37 216.105   5
   0  -4  -1 1800.82 259.584   5
   0  -4  -1 1884.42 420.875   3
   0   4   2 7415.92 436.773   4
   0   4   2 7594.48 738.500   3
   0  -4  -2 7913.61 555.236   5
   0  -4  -2 7556.60 840.936   3
   0  -4  -3 9791.20 940.979   3
   0  -4  -3 8944.43 702.436   5
   0   4   3 8568.52 594.803   4
   0  -4  -3 9810.64 611.486   4
   0   4   3 9013.49 783.706   3
   0   4   4 657.401 202.129   4
   0  -4  -4 412.241 231.226   3
   0  -4  -4 483.501 203.896   4
   0  -4  -4 578.172 211.820   5
   0  -4  -5 17158.4 1294.50   5
   0  -4  -5 18138.9 1237.13   3
   0  -4  -5 19230.2 1217.83   4
   0   4   5 18896.2 1177.48   4
   0  -4  -6 5085.74 776.733   5
   0  -4  -6 4974.01 682.046   4
   0   4   6 4742.32 636.452   4
   0  -4  -6 5050.97 597.320   3
   0   4   7 47035.8 2280.01   4
   0  -4  -7 39090.3 1776.98   3
   0  -4  -7 46182.6 2375.77   4
   0   4   7 45288.4 2300.45   2
   0  -4  -8 602.443 174.185   3
   0   4   8 216.532 239.323   2
   0  -4  -8-125.142 328.160   4
   0  -4  -9 107403. 4480.03   4
   0   4   9 102035. 4076.09   2
   0   4  10 5075.93 830.665   2
   0  -4 -10 5979.45 1024.55   4
   0  -4 -11 5734.09 1027.19   4
   0   4  11 3821.93 783.930   2
   0  -4 -12 13059.9 1671.55   4
   0   4  12 10746.4 1311.55   2
   0  -4 -13 12494.0 2071.39   5
   0   4  13 10083.5 1348.64   2
   0  -4 -13 11602.9 1652.36   4
   0  -4 -14 4367.24 1345.35   5
   0  -4 -14 6201.07 1311.64   4
   0  -4 -15 1969.42 1097.08   5
   0  -4 -15 445.231 486.716   4
   0  -4 -16 2778.42 1238.92   5
   0   5 -15 1080.71 688.322   4
   0   5 -14 33632.0 3076.66   4
   0   5 -13 3395.99 895.034   4
   0   5 -12 12678.3 1723.33   1
   0   5 -12 14648.4 1797.11   4
   0   5 -11 1529.96 657.518   4
   0   5 -11 1119.17 502.863   1
   0   5 -10 21841.8 2073.57   1
   0   5 -10 23386.1 2045.47   4
   0   5  -9 102.805 276.765   4
   0   5  -9-84.6635 338.289   1
   0  -5   9-316.600 199.385   2
   0  -5   8 7455.38 775.732   2
   0   5  -8 8427.70 1076.16   4
   0   5  -8 7980.34 1116.13   1
   0  -5   7 1962.04 479.792   3
   0  -5   7 1723.26 384.901   2
   0   5  -7 2353.95 550.505   4
   0   5  -7 2105.34 599.001   1
   0   5  -6 27805.5 1735.54   4
   0  -5   6 26298.1 1563.26   2
   0   5  -6 28936.2 2055.89   3
   0  -5   6 26831.9 1767.96   3
   0   5  -5 8550.33 843.961   4
   0  -5   5 7237.50 893.198   3
   0  -5   5 7414.44 820.969   2
   0  -5   5 7824.12 867.678   4
   0   5  -5 8685.98 1073.69   3
   0   5  -4 7625.67 992.115   3
   0   5  -4 8102.80 878.229   2
   0  -5   4 7146.37 743.212   4
   0   5  -4 7153.43 694.190   4
   0  -5   4 7034.98 801.135   2
   0  -5   4 6446.64 847.495   3
   0  -5   3 48477.1 2509.21   3
   0  -5   3 48406.7 1941.77   4
   0   5  -3 46585.1 2364.20   2
   0  -5   3 46763.4 2316.37   2
   0   5  -3 51007.2 1844.12   4
   0  -5   2 50162.0 1796.28   4
   0  -5   2 52224.1 2532.20   2
   0   5  -2 52375.1 1650.51   4
   0   5  -2 45413.2 2384.21   2
   0   5  -2 48831.7 2246.51   5
   0  -5   2 50995.0 2624.86   3
   0  -5   1 47883.2 2510.44   3
   0   5  -1 44726.5 1276.05   4
   0   5  -1 48256.9 2416.13   2
   0  -5   1 51149.1 2507.69   2
   0   5  -1 50664.1 2212.14   5
   0   5   0 121977. 3501.26   5
   0  -5   0 129758. 4635.56   3
   0   5   0 136646. 4599.16   2
   0  -5  -1 13277.0 1259.97   3
   0   5   1 12367.8 674.437   5
   0  -5  -1 12970.3 727.710   5
   0  -5  -2 77781.7 2332.03   5
   0   5   2 83946.2 3069.23   3
   0  -5  -2 81789.8 3370.83   3
   0  -5  -3 730.388 205.588   5
   0   5   3 553.033 152.520   4
   0  -5  -3 388.283 246.653   3
   0   5   3 707.975 251.671   3
   0  -5  -4 62764.7 2878.98   3
   0  -5  -4 63938.8 2175.19   4
   0   5   4 69321.0 2719.28   3
   0  -5  -4 66765.9 2512.38   5
   0   5   4 64260.0 2198.19   4
   0  -5  -5 1810.66 361.628   4
   0  -5  -5 1497.31 396.963   3
   0   5   5 1400.76 455.711   2
   0  -5  -5 1686.79 383.275   5
   0   5   5 1814.74 346.531   4
   0   5   6 1784.56 392.272   4
   0  -5  -6 1376.79 352.409   3
   0  -5  -6 1694.83 393.082   4
   0   5   6 636.785 392.616   2
   0  -5  -6 1245.58 378.660   5
   0   5   7 3796.63 588.127   4
   0  -5  -7 2950.33 656.081   5
   0   5   7 2997.76 602.177   2
   0  -5  -7 2918.70 586.592   4
   0  -5  -7 3396.94 559.789   3
   0  -5  -8 824.246 411.343   4
   0  -5  -8 663.177 227.856   3
   0   5   8 524.848 344.332   2
   0  -5  -8 935.044 426.390   5
   0   5   9 10387.6 1225.63   2
   0  -5  -9 9702.66 754.944   3
   0  -5  -9 12254.1 1515.46   5
   0  -5 -10 832.755 436.865   4
   0   5  10 463.086 410.254   2
   0  -5 -10 643.771 436.269   5
   0  -5 -11 8330.67 1469.53   5
   0   5  11 6961.22 1042.43   2
   0  -5 -11 6884.60 1142.65   4
   0   5  12-146.697 306.944   2
   0  -5 -12 633.362 551.866   4
   0  -5 -12 883.242 736.325   5
   0   5  13 57328.9 3431.29   2
   0  -5 -13 61633.3 3864.04   4
   0   5  14 1044.73 592.769   2
   0  -5 -14 1306.57 798.844   4
   0  -5 -14 1995.87 934.860   5
   0  -5 -15 7038.61 1734.65   5
   0  -5 -15 6314.87 1339.64   4
   0  -5 -16 15183.8 2526.73   5
   0   6 -14 41325.2 3292.86   4
   0   6 -13 447.980 486.437   1
   0   6 -13-411.822 476.472   4
   0   6 -12 3700.74 947.528   4
   0   6 -12 3499.51 992.155   1
   0   6 -11 3655.64 956.974   1
   0   6 -11 2826.26 710.761   4
   0   6 -10 60161.1 3295.74   4
   0   6 -10 60427.2 3720.03   1
   0   6  -9 12408.2 1384.58   4
   0   6  -9 11503.3 1514.21   1
   0   6  -8 25448.2 2132.11   1
   0   6  -8 24122.2 1751.96   4
   0  -6   8 20948.6 1516.35   2
   0  -6   7 44484.5 2293.52   2
   0  -6   7 40123.0 2446.61   3
   0   6  -7 43188.4 2745.68   1
   0   6  -7 43800.1 2291.14   4
   0  -6   6 881.010 363.748   2
   0  -6   6 467.179 277.489   3
   0   6  -6 1009.33 319.867   4
   0  -6   5 17316.8 1416.27   2
   0  -6   5 13652.6 1358.10   3
   0  -6   5 13733.4 1169.92   4
   0   6  -5 15307.4 1083.63   4
   0   6  -4 2473.64 387.064   4
   0  -6   4 2374.60 524.741   2
   0  -6   4 2201.18 548.867   3
   0   6  -4 2144.95 583.542   2
   0  -6   4 2759.93 475.177   4
   0   6  -3 44237.6 2541.47   2
   0  -6   3 50165.2 2749.00   3
   0  -6   3 52504.8 2681.67   2
   0   6  -3 49966.1 1763.37   4
   0  -6   3 49848.3 1976.34   4
   0   6  -3 46032.1 2390.17   5
   0   6  -2 2400.07 262.997   4
   0   6  -2 2723.19 505.870   5
   0  -6   2 2676.19 617.170   3
   0  -6   2 2825.44 353.494   4
   0   6  -2 2276.51 547.044   2
   0  -6   2 3049.54 644.812   2
   0  -6   1 114543. 4432.96   2
   0   6  -1 114185. 4396.09   2
   0  -6   1 108925. 4466.61   3
   0   6  -1 107116. 3662.09   5
   0   6   0 6214.46 901.118   2
   0   6   0 6069.21 533.168   5
   0  -6   0 6330.50 943.643   3
   0  -6  -1 20118.3 1678.94   3
   0   6   1 17966.1 873.583   5
   0   6   1 20550.1 1518.45   3
   0  -6  -2 77651.0 2415.60   5
   0  -6  -2 80127.4 3599.82   3
   0   6   3 77661.6 2208.53   4
   0  -6  -3 84589.9 3678.30   3
   0  -6  -3 83702.9 2589.43   5
   0  -6  -4 25275.3 1838.06   3
   0   6   4 23293.0 1084.31   4
   0  -6  -4 24647.7 1318.94   5
   0   6   4 21761.0 1766.81   2
   0  -6  -5 7016.79 937.012   3
   0   6   5 6026.55 586.134   4
   0  -6  -5 6014.96 705.931   5
   0   6   5 6083.27 918.150   2
   0   6   6 266307. 7139.08   4
   0  -6  -6 261849. 7982.07   3
   0  -6  -6 293058. 7823.53   5
   0  -6  -6 285318. 7334.99   4
   0   6   6 251883. 8156.02   2
   0  -6  -7 326.020 267.316   5
   0   6   7 1119.19 342.522   4
   0  -6  -7 658.206 265.145   4
   0  -6  -7 379.883 275.704   3
   0   6   7 889.068 364.626   2
   0  -6  -8 31037.4 1937.10   4
   0   6   8 25226.0 2024.40   2
   0  -6  -8 24788.5 1674.80   3
   0  -6  -8 32480.6 2241.41   5
   0  -6  -9 670.579 360.501   5
   0   6   9 756.764 393.163   2
   0  -6  -9 743.953 284.359   3
   0  -6  -9 696.755 353.395   4
   0  -6 -10 74961.4 4142.29   5
   0  -6 -10 67717.2 3470.47   4
   0  -6 -11 3459.90 832.185   4
   0   6  11 3411.13 758.926   2
   0  -6 -11 4049.68 1074.41   5
   0   6  12 2383.35 700.840   2
   0  -6 -12 2502.57 735.239   4
   0  -6 -12 4213.99 1175.64   5
   0  -6 -13 20077.5 2492.03   5
   0  -6 -13 15428.0 1820.38   4
   0   6  13 15966.6 1795.40   2
   0  -6 -14 9874.60 1906.00   5
   0   6  14 7834.51 1267.39   2
   0  -6 -14 8213.49 1477.94   4
   0  -6 -15 4535.14 1459.06   5
   0   7 -14 662.187 627.312   4
   0   7 -13 2185.70 893.415   1
   0   7 -13 2476.69 826.657   4
   0   7 -12 12210.9 1844.02   1
   0   7 -12 11013.0 1473.15   4
   0   7 -11 1835.87 726.954   1
   0   7 -11 971.339 449.414   4
   0   7 -10 5466.04 1141.85   1
   0   7 -10 5778.52 975.559   4
   0   7  -9 9341.81 1415.95   1
   0   7  -9 8764.33 1089.66   4
   0   7  -8 83757.2 4350.85   1
   0   7  -8 83626.7 3510.20   4
   0  -7   7 1939.51 617.037   3
   0   7  -7 2985.01 537.353   4
   0   7  -7 2714.97 783.519   1
   0  -7   7 2480.72 594.342   2
   0  -7   6 27434.9 2138.45   3
   0  -7   6 32979.0 2124.52   2
   0   7  -6 31235.9 1694.76   4
   0  -7   6 32030.5 1972.08   4
   0  -7   5 28045.4 2135.95   3
   0   7  -5 31436.9 2223.01   2
   0   7  -5 31164.6 1561.84   4
   0  -7   5 34300.1 2197.17   2
   0   7  -4 99442.3 4339.70   2
   0   7  -4 98642.6 4155.53   5
   0  -7   4 110405. 4344.93   2
   0   7  -4 104351. 3156.60   4
   0  -7   4 103923. 3503.83   4
   0  -7   4 98588.7 4411.90   3
   0  -7   3 49144.3 2728.38   2
   0   7  -3 43372.4 2702.47   2
   0  -7   3 44982.9 2764.59   3
   0  -7   3 46673.6 1858.34   4
   0   7  -3 44213.6 1583.21   4
   0   7  -3 41218.1 2291.34   5
   0  -7   2 58966.9 3285.06   3
   0   7  -2 61940.4 2829.44   5
   0   7  -2 64756.8 3283.64   2
   0  -7   1 67755.6 3570.13   3
   0   7  -1 65625.7 2523.28   5
   0  -7   0 348.520 333.180   3
   0   7   0 285.263 140.076   5
   0   7   0 123.033 231.769   2
   0  -7  -1 29887.0 2262.70   3
   0   7   1 33830.5 2209.19   2
   0   7   1 31233.9 1216.28   5
   0  -7  -2 13670.0 1498.07   3
   0   7   2 12915.7 1334.17   2
   0  -7  -3 43421.8 1671.93   5
   0   7   3 43772.8 2572.78   2
   0  -7  -3 45268.8 2768.50   3
   0  -7  -4 992.199 460.126   3
   0   7   4 987.892 348.672   3
   0   7   4 296.037 270.459   2
   0  -7  -4 591.672 214.355   5
   0   7   4 480.126 142.776   4
   0   7   5 53.0512 271.923   2
   0  -7  -5 324.491 282.333   3
   0   7   5 86.5787 127.119   4
   0  -7  -5 124.446 165.527   5
   0   7   6 5050.85 579.265   4
   0  -7  -6 7285.99 1009.83   3
   0   7   6 5767.31 1084.74   2
   0   7   7 2379.22 441.216   4
   0   7   7 3123.70 725.971   2
   0  -7  -7 2999.07 588.463   5
   0  -7  -7 1909.41 593.612   3
   0  -7  -8 3189.47 648.054   3
   0  -7  -8 4643.03 819.725   5
   0   7   8 3892.56 800.449   2
   0  -7  -9 6092.15 832.114   3
   0   7   9 5589.63 1006.07   2
   0   7  10 17482.8 1835.39   2
   0  -7 -10 23310.9 2108.41   5
   0  -7 -11 1643.43 743.509   5
   0   7  11 100.655 366.557   2
   0  -7 -12 31154.6 2825.18   5
   0   7  12 24828.1 2272.54   2
   0  -7 -13 5092.27 1226.54   5
   0   7  13 4965.31 1028.45   2
   0   7  14 7096.43 1274.67   2
   0  -7 -14 9522.23 1748.59   5
   0   8 -14 1216.27 575.915   4
   0   8 -13 34139.7 2716.39   4
   0   8 -13 37225.6 3426.38   1
   0   8 -12-164.140 628.324   1
   0   8 -12-54.7286 366.302   4
   0   8 -11 18576.7 2293.73   1
   0   8 -11 17634.2 1713.48   4
   0   8 -10 9670.22 1546.95   1
   0   8 -10 7133.92 1019.16   4
   0   8  -9 18676.3 1560.83   4
   0   8  -9 19151.4 2139.28   1
   0   8  -8 76.4139 352.890   1
   0   8  -8-82.2630 208.486   4
   0  -8   7 10334.2 1392.38   3
   0   8  -7 10681.0 1010.57   4
   0  -8   6 1065.10 533.199   3
   0   8  -6 1346.86 337.910   4
   0   8  -5 1842.65 545.387   2
   0   8  -5 1724.49 340.511   4
   0  -8   5 1082.78 336.801   4
   0  -8   5 2041.92 621.386   3
   0   8  -5 1126.01 426.717   5
   0   8  -4 7005.49 1145.55   2
   0  -8   4 6795.60 700.993   4
   0   8  -4 6166.23 905.119   5
   0  -8   4 7091.23 1139.69   3
   0   8  -4 7152.97 593.506   4
   0   8  -3 1051.90 368.666   5
   0   8  -3 2480.42 661.220   2
   0  -8   3 2323.80 688.503   3
   0   8  -2 7427.65 844.527   5
   0   8  -2 8634.54 1218.55   2
   0  -8   2 7174.94 1154.90   3
   0   8  -1 28231.1 2181.13   2
   0  -8   1 25388.5 2166.41   3
   0   8  -1 21432.9 1233.04   5
   0   8   0 29229.9 1237.07   5
   0  -8   0 30448.2 2413.40   3
   0   8   0 34365.0 2365.15   2
   0   8   1 10670.3 1303.70   2
   0  -8  -1 9949.72 1370.50   3
   0  -8  -2 26286.0 2199.58   3
   0   8   2 27276.1 2065.38   2
   0   8   3 55066.0 3067.53   2
   0  -8  -3 48556.2 3095.67   3
   0  -8  -3 55232.8 1857.18   5
   0  -8  -4 199.328 315.442   3
   0  -8  -4-7.26647 140.393   5
   0   8   4 165.922 230.878   2
   0  -8  -5 30017.7 1446.13   5
   0   8   5 28009.1 2159.85   2
   0  -8  -5 26726.4 2144.69   3
   0   8   6 1729.98 332.441   4
   0  -8  -6 2095.24 599.205   3
   0  -8  -6 1980.42 406.790   5
   0   8   6 2495.17 662.440   2
   0   8   7 31395.2 2375.15   2
   0  -8  -7 26686.6 2127.69   3
   0  -8  -8 516.670 246.009   3
   0   8   8 392.069 377.212   2
   0  -8  -8 956.117 394.048   5
   0  -8  -9 2194.86 612.429   5
   0  -8  -9 1425.26 445.773   3
   0   8   9 1739.37 605.208   2
   0   8  10 379.370 375.473   2
   0  -8 -10 189.393 295.126   5
   0  -8 -11 2265.66 686.036   5
   0   8  11 2317.22 800.108   2
   0   8  12 853.347 524.806   2
   0   8  13 1815.02 726.238   2
   0   8  14 9691.68 1462.69   2
   0   9 -13 4871.93 1030.46   4
   0   9 -12 7991.81 1199.22   4
   0   9 -11 26760.0 2852.83   1
   0   9 -11 25200.5 2036.80   4
   0   9 -10 5177.25 931.522   4
   0   9 -10 5980.61 1278.10   1
   0   9  -9 17243.4 1478.89   4
   0   9  -9 17504.9 2061.05   1
   0   9  -8 943.439 594.427   1
   0   9  -8 2355.98 486.149   4
   0  -9   7 18874.2 2002.96   3
   0   9  -7 21130.4 1414.73   4
   0  -9   6 33620.9 2693.29   3
   0   9  -6 36256.4 1770.09   4
   0  -9   5 51963.1 3345.01   3
   0   9  -5 51332.1 3330.20   2
   0   9  -4 5177.08 1012.74   2
   0   9  -4 5191.77 895.074   5
   0  -9   4 5929.87 1120.17   3
   0   9  -3 999.269 517.277   2
   0   9  -3-309.919 231.062   5
   0  -9   3 979.372 412.438   3
   0   9  -2 2438.75 744.070   2
   0   9  -2 1950.44 394.003   5
   0  -9   2 2330.19 690.988   3
   0  -9   1 10616.7 1503.53   3
   0   9  -1 9461.48 736.448   5
   0   9  -1 12251.3 1477.21   2
   0   9   0 1897.71 634.153   2
   0   9   0 1473.50 210.498   5
   0  -9   0 696.397 507.811   3
   0  -9  -1 29854.1 2516.17   3
   0   9   1 33641.5 2443.43   2
   0  -9  -2 3241.56 840.938   3
   0   9   2 3488.03 805.042   2
   0   9   3 36940.2 2590.36   2
   0  -9  -3 35694.3 2762.84   3
   0   9   4 37276.3 2593.94   2
   0  -9  -4 35975.5 2711.72   3
   0  -9  -4 36485.5 1390.11   5
   0   9   5 6125.87 1080.17   2
   0  -9  -5 6032.97 1113.51   3
   0  -9  -5 5464.40 551.558   5
   0  -9  -6 8076.64 746.977   5
   0   9   6 9682.83 1352.10   2
   0  -9  -6 7222.64 1155.25   3
   0  -9  -7 23276.4 2091.41   3
   0   9   7 25769.8 2213.78   2
   0   9   8 26578.1 2279.24   2
   0  -9  -8 23842.8 2078.12   3
   0   9   9 57777.9 3488.84   2
   0  -9  -9 48515.5 3033.54   3
   0   9  10 6640.14 1278.44   2
   0   9  11 34446.4 2753.96   2
   0   9  12 3725.95 929.676   2
   0   9  13 17364.1 2000.50   2
   0  10 -10-109.133 440.218   1
   0  10  -9 1922.87 739.361   1
   0  10  -8-332.202 466.423   1
   0 -10   7 11921.8 1702.83   3
   0 -10   6 14767.0 1852.99   3
   0 -10   5 35910.9 2906.45   3
   0  10  -5 36714.2 2938.62   2
   0 -10   4 460.544 435.098   3
   0  10  -4 543.606 447.116   2
   0 -10   3 29755.5 2630.69   3
   0  10  -3 39033.0 2885.79   2
   0 -10   2 7928.44 1365.80   3
   0  10  -2 6699.81 1145.21   2
   0  10  -1 73443.3 3923.70   2
   0 -10   1 64068.5 3982.59   3
   0  10   0 31665.3 2469.71   2
   0 -10   0 25777.0 2444.29   3
   0  10   1 52053.2 3255.25   2
   0 -10  -1 47554.9 3366.44   3
   0 -10  -2 27767.8 2523.35   3
   0  10   2 33642.3 2557.73   2
   0 -10  -3 1059.90 562.353   3
   0  10   3 2689.92 773.955   2
   0 -10  -4 10630.3 1515.70   3
   0  10   4 11566.9 1494.59   2
   0  10   5 1410.72 620.659   2
   0 -10  -5 1945.08 654.302   3
   0 -10  -6 15089.5 1783.02   3
   0  10   6 18324.1 1935.02   2
   0  10   7 1099.35 562.875   2
   0 -10  -7 669.472 527.458   3
   0 -10  -8-96.7025 333.069   3
   0  10   8 1102.82 546.572   2
   0  10   9 2991.03 905.077   2
   0  10  10 560.379 491.525   2
   0  10  11 4360.52 1096.28   2
   0  10  12-331.446 533.394   2
   0  11  -9 1834.49 791.903   1
   0  11  -8 27136.5 2626.90   1
   0 -11   6 10329.3 1680.24   3
   0  11  -5 1085.35 596.582   2
   0 -11   5 774.616 534.598   3
   0  11  -4 15393.5 1902.58   2
   0 -11   4 13476.4 1841.60   3
   0  11  -3 545.173 520.068   2
   0 -11   3 214.680 345.431   3
   0  11  -2 855.347 580.750   2
   0 -11   2-155.249 377.009   3
   0  11  -1 4468.27 991.012   2
   0 -11   1 4826.15 1240.70   3
   0  11   0 2668.47 768.927   2
   0 -11   0 2680.86 843.802   3
   0 -11  -1 2659.31 865.224   3
   0  11   1 3610.21 897.799   2
   0 -11  -2 6868.20 1301.48   3
   0  11   2 7475.80 1262.30   2
   0 -11  -3 14436.3 1911.78   3
   0  11   3 18702.9 1984.71   2
   0 -11  -4 11736.8 1687.81   3
   0  11   4 14305.6 1774.39   2
   0 -11  -5 7781.73 1377.29   3
   0  11   5 9104.39 1440.39   2
   0 -11  -6 19989.3 2161.01   3
   0  11   6 23162.1 2360.29   2
   0  11   7 966.024 590.619   2
   0 -11  -7-1520.65 616.639   3
   0  11   8 8161.96 1412.54   2
   0 -11  -8 4479.01 1021.69   3
   0  11   9-120.499 425.948   2
   0  11  10 16871.2 2051.83   2
   0 -12   6 3824.01 1108.89   3
   0 -12   5 83.5035 474.543   3
   0  12  -5 326.349 438.961   2
   0  12  -4 44049.2 3294.83   2
   0 -12   4 40175.8 3379.26   3
   0 -12   3 4335.82 1141.69   3
   0  12  -3 7481.82 1347.03   2
   0 -12   2 4160.83 1109.61   3
   0  12  -2 3237.16 959.358   2
   0  12  -1 23957.0 2383.53   2
   0 -12   1 21541.8 2444.71   3
   0  12   0 6837.73 1299.16   2
   0 -12   0 4719.67 1123.44   3
   0  12   1 6241.61 1172.78   2
   0 -12  -1 5160.12 1210.90   3
   0 -12  -2 235.935 373.941   3
   0  12   2 23.2928 400.400   2
   0 -12  -3 14128.7 1965.40   3
   0  12   3 16902.5 1989.98   2
   0  12   4 3032.60 898.456   2
   0 -12  -4 1978.47 730.877   3
   0  12   5 20196.8 2182.43   2
   0 -12  -5 16106.7 2034.39   3
   0  12   6 3902.53 1044.99   2
   0 -12  -6 2779.26 870.202   3
   0 -12  -7 1133.61 571.599   3
   0  12   7 1142.26 559.110   2
   0  12   8 9286.33 1588.17   2
   0 -13   4 3936.58 1195.08   3
   0  13  -4 2155.89 786.867   2
   0 -13   3 4369.31 1212.24   3
   0  13  -3 5179.13 1187.30   2
   0  13  -2 32060.0 2859.15   2
   0 -13   2 29658.5 3012.56   3
   0  13  -1 821.857 550.973   2
   0 -13   1 538.678 536.342   3
   0 -13   0 13466.8 2034.95   3
   0  13   0 18292.0 2131.65   2
   0 -13  -1 652.699 466.759   3
   0  13   1 1475.16 736.136   2
   0 -13  -2 28486.6 2973.68   3
   0  13   2 40931.5 3226.96   2
   0 -13  -3 10675.5 1779.47   3
   0  13   3 13060.1 1838.91   2
   0 -13  -4 23091.7 2609.67   3
   0  13   4 28860.9 2718.42   2
   0  13   5 10148.3 1654.14   2
   0 -13  -5 6613.88 1393.62   3
   0 -13  -6 3117.19 987.409   3
   0 -13  -7 3667.96 896.105   3
   0  14  -4 830.794 674.151   2
   0  14  -3 11231.5 1676.52   2
   0  14  -2-451.912 552.248   2
   0  14  -1 7648.09 1466.35   2
   0  14   0 879.014 828.529   2
   0 -14  -3-291.890 415.587   3
   0 -14  -4 272.004 502.846   3
   0 -14  -5 832.241 535.678   3
  -1  14  -1-236.840 484.225   2
  -1  14  -2 3874.51 1040.07   2
  -1  14  -3 1436.20 780.635   2
  -1  14  -4 9547.74 1531.80   2
  -1  13   4 1371.38 715.125   2
  -1  13   3 5382.75 1200.51   2
  -1  13   2 4676.79 1100.91   2
  -1  13   1 14055.3 1875.54   2
  -1  13   0 2736.84 846.228   2
  -1  13  -1 13321.9 1761.19   2
  -1  13  -2-584.401 489.513   2
  -1  13  -3-987.166 533.771   2
  -1  13  -4 1598.05 634.124   2
  -1  13  -5-1165.69 596.374   2
  -1  12   7 1238.12 723.093   2
  -1  12   6 3768.95 1062.30   2
  -1  12   5 1320.04 686.047   2
  -1  12   4 2283.09 837.662   2
  -1  12   3 3681.94 963.155   2
  -1  12   2 11830.4 1615.74   2
  -1  12   1 5855.43 1146.32   2
  -1  12   0 23242.1 2263.59   2
  -1  12  -1 57041.6 3609.85   2
  -1  12  -2 1476.78 557.421   2
  -1  12  -3 10530.1 1487.84   2
  -1  12  -4 309.586 290.760   2
  -1  12  -5 55103.8 3536.80   2
  -1  12  -6-69.5201 396.236   1
  -1  12  -6-704.073 625.681   2
  -1  12  -7 7134.27 1382.67   1
  -1  11   9 34292.8 3057.68   2
  -1  11   8 1460.34 792.434   2
  -1  11   7 18152.7 2125.22   2
  -1  11   6 34063.9 2874.41   2
  -1  11   5 25855.2 2412.89   2
  -1  11   4 4951.18 1071.45   2
  -1  11   3 3796.53 933.162   2
   1 -11  -2 24374.6 2564.95   3
  -1  11   2 31580.5 2603.46   2
   1 -11  -1 1100.73 664.462   3
  -1  11   1 843.486 539.842   2
  -1  11   0 3880.27 925.920   2
   1 -11   0 2733.79 796.786   3
  -1  11  -1 415.032 429.484   2
   1 -11   1-51.6353 404.879   3
  -1  11  -2 5181.75 997.455   2
  -1  11  -3 10978.7 1451.47   2
  -1  11  -4 3833.73 847.223   2
  -1  11  -5 1359.48 599.707   2
  -1  11  -6 850.278 553.064   1
  -1  11  -6-476.038 517.722   2
  -1  11  -7 21141.2 2257.86   1
  -1  11  -8 302.986 400.677   1
  -1  11  -9 11804.4 1842.48   1
  -1  10  11 3643.98 1213.55   2
  -1  10  10 6636.96 1315.00   2
  -1  10   9 1529.64 756.001   2
  -1  10   8 2300.39 904.353   2
  -1  10   7-344.225 413.433   2
  -1  10   6 499.946 384.293   2
  -1  10   5 4070.26 1070.69   2
  -1  10   4 912.532 574.682   2
   1 -10  -4 1676.24 635.520   3
   1 -10  -3 11926.5 1664.35   3
  -1  10   3 9804.08 1445.55   2
  -1  10   2 42653.7 2894.66   2
   1 -10  -2 36099.3 2995.72   3
   1 -10  -1 10867.0 1609.32   3
  -1  10   1 9500.03 1337.01   2
   1 -10   0 7544.68 1356.33   3
  -1  10   0 7306.76 1180.77   2
  -1  10  -1 5975.08 1025.78   2
   1 -10   1 5564.97 1205.85   3
   1 -10   2 43492.9 3357.70   3
  -1  10  -2 50965.1 3050.92   2
  -1  10  -3 1397.48 546.110   2
  -1  10  -4 8378.55 1198.62   2
  -1  10  -5 1112.10 577.637   2
  -1  10  -6 12077.6 1601.36   2
  -1  10  -6 8555.07 1352.19   1
  -1  10  -7 1183.99 543.805   1
  -1  10  -8 1942.62 695.763   1
  -1  10  -9-170.372 571.541   1
  -1  10 -10 2932.25 958.320   1
  -1   9  12 22416.3 2638.24   2
  -1   9  11-141.652 493.679   2
  -1   9  10 7179.65 1372.87   2
  -1   9   9 5648.88 1174.16   2
  -1   9   8 3407.00 857.630   2
   1  -9  -8 4624.21 870.163   5
  -1   9   7 2525.01 695.247   2
   1  -9  -7 3539.06 726.576   5
  -1   9   6 19340.2 2030.39   2
   1  -9  -6 20448.5 1625.67   5
   1  -9  -5 11013.7 1093.08   5
  -1   9   5 11346.5 1567.14   2
   1  -9  -4 6628.45 1145.24   3
  -1   9   4 7655.69 1231.17   2
   1  -9  -4 5800.83 766.784   5
  -1   9   3 6059.33 1030.01   2
   1  -9  -3 4505.24 990.284   3
   1  -9  -3 6533.81 814.489   5
  -1   9   2 986.582 499.191   2
  -1   9   2 1828.10 432.899   5
   1  -9  -2 1739.83 689.446   3
   1  -9  -2 2035.86 482.238   5
  -1   9   1 2638.45 605.582   2
  -1   9   1 4102.98 580.687   5
   1  -9  -1 3116.22 834.925   3
  -1   9   0 1134.92 486.506   2
   1  -9   0 960.169 486.717   3
  -1   9   0-68.5390 172.988   5
  -1   9  -1 18648.4 1407.93   5
   1  -9   1 17384.4 1944.37   3
  -1   9  -1 17397.6 1666.34   2
  -1   9  -2 24876.7 1975.39   2
  -1   9  -2 23929.6 1683.15   5
   1  -9   2 21693.8 2184.77   3
  -1   9  -2 18976.7 716.659   4
  -1   9  -3 78631.8 3577.87   5
   1  -9   3 83387.1 4486.96   3
  -1   9  -3 76137.6 2326.97   4
  -1   9  -4 58809.8 2134.70   4
  -1   9  -4 71202.0 3500.90   2
  -1   9  -5 500.074 229.661   4
  -1   9  -5 200.055 364.797   2
  -1   9  -6 26947.6 2300.59   1
  -1   9  -6 27948.2 1587.42   4
  -1   9  -6 32754.7 2539.69   2
  -1   9  -7 15915.8 1821.26   1
  -1   9  -7 15309.1 1235.74   4
  -1   9  -8 79475.8 4457.86   1
  -1   9  -8 78451.4 3329.26   4
  -1   9  -9 13066.9 1303.45   4
  -1   9  -9 13838.7 1886.30   1
  -1   9 -10 30993.9 2205.23   4
  -1   9 -10 34526.5 3158.42   1
  -1   9 -11 768.220 590.973   1
  -1   9 -11 764.994 398.015   4
  -1   9 -12 158.214 345.975   4
  -1   9 -13 1758.62 628.613   4
  -1   8  14 110.929 492.108   2
  -1   8  13 912.670 454.667   2
   1  -8 -12 3750.12 1032.12   5
  -1   8  12 2309.16 823.259   2
  -1   8  11 6106.36 1339.22   2
   1  -8 -11 7454.65 1347.46   5
  -1   8  10 5707.19 1308.72   2
   1  -8 -10 9045.07 1396.30   5
   1  -8  -9 1355.20 502.038   5
  -1   8   9 816.436 644.523   2
  -1   8   8 61372.4 3691.06   2
   1  -8  -8 66466.3 3542.71   5
   1  -8  -7 17050.0 1639.15   5
  -1   8   7 18799.4 1877.76   2
  -1   8   6 33243.5 2562.46   2
   1  -8  -6 36472.4 2262.92   5
  -1   8   6 34344.8 1659.13   4
  -1   8   5 24889.0 2099.00   2
   1  -8  -5 21909.4 1944.70   3
  -1   8   5 25151.6 1273.83   4
  -1   8   4 75144.4 3852.08   2
   1  -8  -4 73218.6 3683.71   3
   1  -8  -3 22499.4 2001.41   3
  -1   8   3 23267.1 974.995   4
  -1   8   3 26243.0 2065.58   2
   1  -8  -3 26174.3 1655.66   5
  -1   8   2 30977.9 993.150   4
   1  -8  -2 31862.2 2446.76   3
  -1   8   2 26528.4 1693.76   5
  -1   8   2 32900.4 2348.18   2
   1  -8  -1 54278.6 2533.73   5
  -1   8   1 54126.5 2964.06   2
   1  -8  -1 50572.3 3115.06   3
  -1   8   0 45597.5 2620.71   2
   1  -8   0 41620.5 2847.31   3
   1  -8   1 29840.3 2365.77   3
  -1   8  -1 26149.7 889.803   4
  -1   8  -1 33020.6 2170.62   2
  -1   8  -2 6804.58 965.288   2
  -1   8  -2 3984.10 695.250   5
  -1   8  -2 5068.95 411.683   4
   1  -8   2 5186.98 989.136   3
  -1   8  -3 18035.6 1648.59   5
   1  -8   3 16134.8 1746.55   3
  -1   8  -3 21314.2 1706.30   2
  -1   8  -3 17225.8 946.020   4
  -1   8  -4 6414.65 626.488   4
  -1   8  -4 7414.33 1159.70   5
  -1   8  -4 8444.98 1098.69   2
  -1   8  -5 2343.05 633.258   2
  -1   8  -5 1870.25 386.816   4
  -1   8  -6 2413.11 618.525   2
  -1   8  -6 2086.20 425.340   4
  -1   8  -6 2299.39 671.808   1
  -1   8  -7-95.1813 428.260   1
  -1   8  -7 350.616 291.972   4
  -1   8  -8 11136.0 1579.39   1
  -1   8  -8 10246.8 1112.21   4
  -1   8  -9 6204.14 1277.25   1
  -1   8  -9 5427.91 858.066   4
  -1   8 -10 14901.3 2006.65   1
  -1   8 -10 14217.2 1484.97   4
  -1   8 -11 5027.88 1254.72   1
  -1   8 -11 4370.16 899.678   4
  -1   8 -12 14335.3 1701.05   4
  -1   8 -12 13670.9 2031.70   1
  -1   8 -13 1080.16 541.466   4
  -1   8 -13 958.301 690.968   1
  -1   8 -14 19771.9 2167.83   4
  -1   7  14 2336.13 858.568   2
   1  -7 -14 4118.44 1304.12   5
   1  -7 -13 32664.6 3308.58   5
  -1   7  13 31711.1 2726.70   2
  -1   7  12 1685.22 727.710   2
   1  -7 -12 2125.07 866.530   5
   1  -7 -11 22129.8 2407.74   5
  -1   7  11 21029.5 2107.85   2
  -1   7  10 54.0231 325.059   2
   1  -7 -10 937.608 544.992   5
  -1   7   9 28417.4 2355.03   2
   1  -7  -9 30495.4 2510.52   5
   1  -7  -8 18351.6 1796.88   5
  -1   7   8 17612.3 1843.60   2
   1  -7  -7 5494.39 954.504   5
  -1   7   7 5509.87 973.367   2
  -1   7   6 1281.68 507.488   2
   1  -7  -6 1026.02 402.838   5
  -1   7   6 1192.11 323.554   4
  -1   7   5 11908.5 1472.54   2
  -1   7   5 9779.14 818.646   4
  -1   7   4 10153.5 1087.49   3
  -1   7   4 9179.79 1271.47   2
   1  -7  -4 9074.20 969.310   5
   1  -7  -4 7236.08 1018.51   3
  -1   7   4 8991.47 690.143   4
  -1   7   3 2373.17 681.124   2
   1  -7  -3 3475.64 585.039   5
  -1   7   3 3279.14 357.699   4
   1  -7  -3 3138.95 693.863   3
  -1   7   3 3460.80 621.821   5
  -1   7   2 8260.24 509.356   4
  -1   7   2 6489.26 1077.98   2
   1  -7  -2 7346.84 1049.72   3
   1  -7  -2 8828.08 948.411   5
  -1   7   1 8051.59 1028.79   2
   1  -7  -1 7894.10 1102.49   3
  -1   7   1 9163.41 556.815   4
   1  -7  -1 8140.04 921.090   5
  -1   7   1 10264.7 967.706   5
  -1   7   1 8696.50 470.526   4
   1  -7   0 26247.1 1699.74   5
  -1   7   0 28369.6 1685.07   5
  -1   7   0 26659.6 1890.42   2
  -1   7   0 27081.5 995.049   4
   1  -7   0 21927.0 1893.64   3
  -1   7  -1 29017.0 1104.32   4
  -1   7  -1 29652.9 1983.65   2
   1  -7   1 28222.0 2137.62   3
  -1   7  -1 32329.2 1911.69   5
  -1   7  -2 4752.89 783.568   5
  -1   7  -2 4376.88 739.272   2
   1  -7   2 4224.40 854.472   3
  -1   7  -2 4886.69 447.814   4
   1  -7   3 42863.1 2707.28   3
  -1   7  -3 53019.9 3046.69   5
  -1   7  -3 50326.6 2596.16   2
  -1   7  -3 46326.4 1827.11   4
  -1   7  -4 35457.4 2549.30   5
  -1   7  -4 35934.5 1687.44   4
  -1   7  -4 40680.6 2411.61   2
  -1   7  -5 34581.6 2219.78   2
  -1   7  -5 34644.1 1774.42   4
  -1   7  -6 9304.08 1283.01   1
  -1   7  -6 8519.13 905.779   4
  -1   7  -6 9462.85 1107.25   2
   1  -7   6 7276.73 994.454   4
  -1   7  -7 20001.9 1509.36   4
  -1   7  -7 21007.4 1959.30   1
  -1   7  -8-114.843 213.413   4
  -1   7  -8 283.691 407.937   1
  -1   7  -9 4001.33 988.646   1
  -1   7  -9 3859.82 717.651   4
  -1   7 -10 168.752 494.346   1
  -1   7 -10 187.491 315.647   4
  -1   7 -11 362.474 581.389   1
  -1   7 -11 1425.06 576.869   4
  -1   7 -12 3274.56 845.805   4
  -1   7 -12 786.353 611.389   1
  -1   7 -13 9140.18 1432.43   4
  -1   7 -14 5424.15 1190.08   4
   1  -6 -15 2335.14 1345.07   5
   1  -6 -14 7352.35 1743.19   5
  -1   6  14 5247.88 1134.14   2
  -1   6  13 15213.2 1826.13   2
   1  -6 -13 16382.9 2371.83   5
   1  -6 -12 3700.66 1104.98   5
  -1   6  12 3712.76 876.833   2
   1  -6 -11 9222.76 1606.89   5
  -1   6  11 7623.04 1330.27   2
   1  -6 -10 2439.46 815.735   5
   1  -6  -9 81004.7 4416.31   5
   1  -6  -8 2053.95 655.323   5
   1  -6  -7 40198.9 2614.44   5
   1  -6  -6 16436.5 1535.36   5
  -1   6   6 16098.3 1205.64   3
  -1   6   6 16208.6 1190.85   4
  -1   6   5 3932.96 523.671   4
   1  -6  -5 4290.92 742.754   5
   1  -6  -4 5330.54 751.681   5
  -1   6   4 5585.14 566.917   4
   1  -6  -4 5648.66 796.960   3
  -1   6   3 33271.4 1917.58   5
   1  -6  -3 28640.9 1743.30   5
   1  -6  -3 27923.9 1864.03   3
  -1   6   3 30225.4 1294.65   4
  -1   6   2 78524.8 3057.43   5
  -1   6   2 66601.0 3292.85   2
   1  -6  -2 73214.9 3274.69   3
   1  -6  -2 74805.1 3026.05   5
  -1   6   2 72887.0 2190.91   4
  -1   6   1 7809.62 938.269   2
  -1   6   1 7501.40 824.756   5
   1  -6  -1 6806.39 822.871   5
  -1   6   1 7604.86 893.602   3
   1  -6  -1 5571.83 829.572   3
  -1   6   0 51471.9 2388.44   5
   1  -6   0 50002.2 2425.71   5
  -1   6   0 49917.5 2572.13   2
  -1   6   0 46776.2 1638.50   4
  -1   6   0 53865.6 2570.94   3
   1  -6   0 48097.2 2624.23   3
  -1   6  -1 190.733 96.3366   4
  -1   6  -1-68.5823 202.343   2
   1  -6   1 34.9923 190.139   3
  -1   6  -1-18.8783 152.432   5
  -1   6  -2 1604.27 491.027   5
  -1   6  -2 894.150 214.093   4
   1  -6   2 924.248 380.361   3
  -1   6  -2 1002.58 331.501   2
  -1   6  -3 1325.58 383.493   2
   1  -6   3 951.322 390.539   3
  -1   6  -3 1607.21 313.801   4
  -1   6  -3 1069.77 430.626   5
  -1   6  -4 56976.4 3234.64   5
  -1   6  -4 57644.0 2713.42   2
   1  -6   4 55273.3 2599.55   4
  -1   6  -4 56198.6 2272.62   4
  -1   6  -5 4745.95 829.276   1
  -1   6  -5 3891.98 580.266   4
  -1   6  -5 4388.47 889.012   5
  -1   6  -5 4723.98 727.256   2
   1  -6   6 61667.6 3052.26   4
  -1   6  -6 67439.1 3378.43   1
  -1   6  -6 63098.2 2733.77   2
  -1   6  -6 64097.6 2811.92   4
  -1   6  -7 118182. 4920.87   1
  -1   6  -7 116959. 4355.67   4
  -1   6  -8 20806.2 1957.52   1
  -1   6  -8 22729.0 1747.10   4
  -1   6  -9 14415.4 1496.25   4
  -1   6  -9 16040.8 1768.24   1
  -1   6 -10 3603.47 910.792   1
  -1   6 -10 3261.31 745.890   4
  -1   6 -11 120992. 5730.69   1
  -1   6 -11 114904. 5154.06   4
  -1   6 -12 1200.59 622.050   1
  -1   6 -12 812.373 556.460   4
  -1   6 -13 15569.8 1892.41   4
  -1   6 -14 1726.33 632.928   4
  -1   6 -15 14516.7 2032.22   4
   1  -5 -15 1415.25 900.668   5
  -1   5  14 2256.21 698.995   2
   1  -5 -14 2286.23 995.126   5
  -1   5  13 142.994 319.233   2
   1  -5 -13 2615.61 1132.70   5
   1  -5 -12 12145.3 2012.37   5
   1  -5 -11 1320.71 631.099   5
   1  -5 -10 7530.61 1393.89   5
   1  -5  -9 5366.48 1066.90   5
   1  -5  -8 154.434 307.033   5
   1  -5  -7 65310.4 3426.72   5
  -1   5   6 14548.1 998.965   3
   1  -5  -6 15471.0 1488.52   5
  -1   5   6 15567.2 1195.19   4
  -1   5   5 25453.6 1412.41   3
   1  -5  -5 24798.2 1788.43   5
  -1   5   5 25172.4 1453.86   4
   1  -5  -4 7029.88 871.799   5
  -1   5   4 7172.96 667.698   4
  -1   5   4 6403.26 713.713   3
   1  -5  -3 186190. 5728.36   3
   1  -5  -3 195008. 5914.58   5
  -1   5   3 199839. 6031.24   5
  -1   5   3 197013. 5148.09   4
  -1   5   3 207846. 5801.09   3
   1  -5  -2 2416.40 473.511   5
   1  -5  -2 2387.69 490.281   3
  -1   5   2 1679.15 389.686   5
  -1   5   2 1866.24 399.097   3
  -1   5   2 2030.69 291.427   4
  -1   5   1 66766.1 2726.98   5
   1  -5  -1 60672.1 2706.31   3
   1  -5  -1 62896.4 2727.88   5
  -1   5   0 155325. 4808.74   2
   1  -5   0 144798. 4877.54   5
  -1   5   0 155821. 4847.56   5
  -1   5  -1 130212. 3646.10   4
  -1   5  -1 136120. 4668.54   5
  -1   5  -1 123854. 4423.58   2
   1  -5   1 138624. 4600.74   3
   1  -5   1 143844. 4682.58   5
   1  -5   2 8150.95 941.835   3
  -1   5  -2 8335.63 1108.29   5
  -1   5  -2 7943.32 837.285   2
  -1   5  -2 7311.54 606.784   4
  -1   5  -3 55804.8 3160.35   5
  -1   5  -3 60813.3 2529.16   2
  -1   5  -3 52127.5 2081.84   4
   1  -5   4 110512. 3951.49   4
  -1   5  -4 105551. 4488.30   5
  -1   5  -4 107318. 3754.43   2
  -1   5  -4 114553. 4132.30   3
  -1   5  -4 108490. 3575.12   4
  -1   5  -5 1823.47 515.267   1
  -1   5  -5 1171.94 341.288   4
  -1   5  -5 946.058 499.499   5
  -1   5  -5 870.551 291.855   2
  -1   5  -6 1505.97 431.286   4
   1  -5   6 1534.22 417.101   4
  -1   5  -6 2025.56 535.330   1
  -1   5  -7 331.218 299.128   4
  -1   5  -7 613.044 349.577   1
  -1   5  -8 19743.3 1817.74   1
  -1   5  -8 19864.2 1703.27   4
  -1   5  -9 9477.35 1230.99   4
  -1   5  -9 8699.06 1239.41   1
  -1   5 -10 2904.28 736.592   4
  -1   5 -10 3373.97 845.535   1
  -1   5 -11 11900.4 1547.58   4
  -1   5 -11 10099.5 1490.96   1
  -1   5 -12 6006.25 1180.98   4
  -1   5 -13 19806.8 2193.15   4
  -1   5 -14 2008.68 754.197   4
  -1   5 -15 8104.33 1552.21   4
   1  -4 -15 10152.3 2171.58   5
   1  -4 -14 3993.77 1308.09   5
   1  -4 -13 22849.8 2987.59   5
   1  -4 -12 39825.2 3730.40   5
   1  -4 -11 6897.60 1492.79   5
   1  -4 -10 58876.5 4081.04   5
  -1   4  10 60133.1 2849.06   1
  -1   4   9 10962.6 1078.42   1
   1  -4  -9 10073.1 1513.63   5
   1  -4  -8 69959.1 3915.91   5
   1  -4  -7 1949.65 618.533   5
   1  -4  -6 44664.4 2679.12   5
  -1   4   6 51659.1 2349.89   4
  -1   4   6 48994.7 1776.67   3
  -1   4   5 17023.7 996.144   3
   1  -4  -5 17893.4 1485.28   5
  -1   4   5 18150.9 1209.35   4
   1  -4  -4 29783.4 1868.50   5
  -1   4   4 28767.2 1432.08   3
  -1   4   4 28790.7 1444.99   4
  -1   4   3 932.843 226.983   4
  -1   4   3 1913.97 430.319   5
  -1   4   3 1379.50 304.076   3
   1  -4  -3 1145.27 378.226   5
  -1   4   2 53353.0 2370.35   5
  -1   4   2 57410.1 2174.28   3
  -1   4   2 55007.7 1880.50   4
   1  -4  -2 54571.5 2419.32   5
   1  -4  -1 6665.80 699.069   3
  -1   4   1 7640.40 791.235   5
   1  -4  -1 6932.77 774.129   5
  -1   4   1 7292.01 692.871   3
   1  -4   0 14945.7 1228.86   5
  -1   4   0 16416.0 1242.55   5
   1  -4   0 14985.0 1091.68   3
  -1   4  -1 100837. 3057.54   4
   1  -4   1 112159. 4041.25   5
  -1   4  -1 106112. 3957.20   5
  -1   4  -2 4884.56 829.413   5
  -1   4  -2 4105.35 547.485   2
  -1   4  -2 3845.60 454.800   4
  -1   4  -3 5864.59 626.264   4
   1  -4   3 6646.14 795.884   4
  -1   4  -3 8125.35 748.535   2
  -1   4  -3 5419.22 913.807   5
  -1   4  -4 93090.4 3234.06   2
   1  -4   4 105097. 3828.51   4
  -1   4  -4 112064. 3607.29   4
  -1   4  -4 115731. 3893.14   3
  -1   4  -4 100355. 4210.80   5
  -1   4  -5 41280.5 2139.09   3
  -1   4  -5 37219.8 1574.12   2
  -1   4  -5 38890.4 2051.29   4
  -1   4  -6 60319.2 2758.87   3
  -1   4  -6 58122.5 2802.15   4
  -1   4  -7 21028.6 1679.35   1
  -1   4  -7 22818.4 1643.60   3
  -1   4  -7 23300.5 1785.99   4
  -1   4  -8 87239.9 3948.59   1
  -1   4  -8 96508.7 4184.35   4
  -1   4  -9 80.3308 257.990   1
  -1   4  -9 465.938 408.305   4
  -1   4 -10 10400.1 1402.93   4
  -1   4 -10 8027.09 1196.47   1
  -1   4 -11 2798.75 776.632   4
  -1   4 -12 14343.7 1837.10   4
  -1   4 -13 619.384 627.667   4
  -1   4 -14-494.621 577.788   4
  -1   4 -15-3.17540 382.772   4
   1  -3 -15 8596.93 2015.02   5
   1  -3 -14 10562.0 2135.20   5
   1  -3 -13 251.513 599.454   5
   1  -3 -12 1979.95 967.633   5
   1  -3 -12 1393.17 680.200   4
   1  -3 -11 9180.07 1430.40   4
   1  -3 -11 7381.21 1521.98   5
   1  -3 -10 31046.6 2475.10   4
   1  -3 -10 28098.9 2776.91   5
  -1   3  10 27154.1 1782.04   1
  -1   3   9 2439.21 507.652   1
   1  -3  -9 913.294 590.463   5
   1  -3  -9 2220.16 658.485   4
  -1   3   8 13538.4 1103.56   1
   1  -3  -8 14504.9 1462.16   4
   1  -3  -8 13446.5 1717.72   5
   1  -3  -7 6020.81 1032.50   5
   1  -3  -7 7601.09 969.321   4
  -1   3   7 6973.90 753.651   1
   1  -3  -6 194256. 6639.92   5
  -1   3   6 194353. 5827.90   4
  -1   3   5 15588.1 1117.69   4
   1  -3  -5 15977.4 1409.98   5
  -1   3   5 15341.7 772.424   3
   1  -3  -4 102453. 3829.75   5
  -1   3   4 106753. 3010.63   3
  -1   3   4 98088.5 3267.98   4
   1  -3  -3 3222.22 541.672   5
  -1   3   3 2882.64 349.462   3
  -1   3   3 3290.57 421.494   4
  -1   3   3 3017.06 547.008   5
  -1   3   2 5941.43 535.697   3
  -1   3   2 5259.16 651.977   5
   1  -3  -2 5423.89 678.948   5
   1  -3  -1 127997. 4168.60   5
  -1   3   1 135117. 3759.33   3
  -1   3   1 128338. 4129.01   5
  -1   3   0 69898.2 2844.85   5
   1  -3   0 65804.5 2766.11   5
  -1   3  -1 97688.0 3080.41   4
  -1   3  -1 89542.1 3630.04   5
   1  -3   1 101008. 3763.98   5
  -1   3  -2 62164.6 2280.60   4
  -1   3  -2 67210.8 3229.31   5
  -1   3  -3 5482.85 798.917   5
  -1   3  -3 4920.51 587.157   4
  -1   3  -3 4887.11 487.710   2
   1  -3   3 4182.40 621.380   4
   1  -3   4 4862.67 683.092   4
  -1   3  -4 5442.89 626.717   3
  -1   3  -4 3918.30 571.827   4
  -1   3  -4 3928.82 402.221   2
  -1   3  -5 13860.6 1162.14   4
   1  -3   5 13059.6 1228.61   4
  -1   3  -5 14379.5 1087.45   3
  -1   3  -6 41503.8 2059.40   3
  -1   3  -6 42258.2 2314.31   4
  -1   3  -7 32235.9 2129.00   4
  -1   3  -7 30891.3 1815.14   3
  -1   3  -8 40443.3 2569.11   4
  -1   3  -8 37774.6 2327.17   1
  -1   3  -8 42259.9 2228.32   3
  -1   3  -9 78896.8 3399.63   3
  -1   3  -9 89446.5 4194.24   4
  -1   3 -10 25264.2 1809.97   3
  -1   3 -10 29661.8 2405.99   4
  -1   3 -11 4369.24 971.684   4
  -1   3 -12 32382.7 2804.81   4
  -1   3 -13 35096.1 3050.46   4
  -1   3 -14 40690.8 3468.25   4
  -1   3 -15 8289.93 1623.21   4
   1  -2 -15 7979.64 1925.86   5
   1  -2 -14 18903.7 2426.80   4
   1  -2 -14 16690.0 2665.43   5
   1  -2 -13 15353.6 2485.14   5
   1  -2 -13 19199.5 2279.43   4
   1  -2 -12 7112.82 1319.09   4
   1  -2 -12 4369.99 1117.47   5
   1  -2 -11 49887.8 3416.28   4
   1  -2 -11 44126.4 3779.26   5
   1  -2 -10 8884.75 1578.76   5
  -1   2  10 11120.3 1100.30   1
   1  -2 -10 11201.7 1518.32   4
  -1   2   9 1698.84 440.744   1
   1  -2  -9 1376.53 577.433   4
   1  -2  -9 1721.00 647.755   5
  -1   2   8 16552.9 1181.76   1
   1  -2  -8 17595.8 1934.06   5
   1  -2  -8 17311.7 1631.13   4
   1  -2  -7 1885.22 505.502   4
   1  -2  -7 2637.81 702.220   5
  -1   2   7 2809.77 444.791   1
  -1   2   6 1302.45 362.787   4
   1  -2  -6 1752.55 536.947   5
  -1   2   6 1587.67 305.550   1
   1  -2  -6 1971.76 480.983   4
   1  -2  -5 96668.1 3513.33   4
  -1   2   5 94147.5 3309.93   4
  -1   2   5 89541.1 2820.17   1
  -1   2   4 24000.2 867.955   3
   1  -2  -4 24602.6 1641.62   5
  -1   2   4 21196.8 1246.36   4
  -1   2   3 5273.35 378.694   3
  -1   2   3 3728.88 451.644   4
   1  -2  -3 4296.73 638.067   5
  -1   2   2 197629. 4794.22   3
  -1   2   2 198263. 5602.18   5
   1  -2  -2 185723. 5570.02   5
   1  -2  -1 152084. 4551.05   5
   1  -2   0 186578. 5412.99   5
   1  -2   1 12047.5 1105.04   5
  -1   2  -1 11737.8 663.279   1
  -1   2  -2 204211. 5580.75   4
  -1   2  -3 13342.7 977.001   4
  -1   2  -3 13887.8 635.384   2
   1  -2   4 70236.5 2604.10   1
  -1   2  -4 69431.2 2766.54   4
  -1   2  -4 76544.0 2570.88   3
  -1   2  -5 99455.1 3752.43   4
   1  -2   5 106774. 3536.29   1
  -1   2  -5 108699. 3389.83   3
   1  -2   6 186837. 5603.49   1
  -1   2  -6 195517. 5368.91   3
  -1   2  -6 182453. 5976.81   4
   1  -2   7 16751.1 1312.85   1
  -1   2  -7 16555.1 1505.46   4
  -1   2  -7 17887.4 1204.53   3
  -1   2  -8-48.0820 227.252   4
  -1   2  -8 1671.40 386.285   3
  -1   2  -9 9589.26 1290.54   4
  -1   2  -9 8770.65 910.078   3
  -1   2 -10 13627.6 1199.60   3
  -1   2 -10 15351.4 1724.16   4
  -1   2 -11 8203.86 1342.18   4
  -1   2 -11 6968.64 874.272   3
  -1   2 -12 4905.77 1090.48   4
  -1   2 -13 384.439 570.832   4
  -1   2 -14 13222.7 1987.38   4
  -1   2 -15 4602.00 1206.32   4
   1  -1 -15-1135.98 924.258   5
   1  -1 -14 10877.9 1857.86   4
   1  -1 -14 10993.1 2199.95   5
   1  -1 -13 9191.43 1602.38   4
   1  -1 -13 10680.8 2091.83   5
   1  -1 -12 23779.0 2899.01   5
   1  -1 -12 25663.9 2560.06   4
   1  -1 -11 1118.00 431.768   4
   1  -1 -10 76768.3 4191.53   4
   1  -1  -9 62672.2 3584.93   4
   1  -1  -8 1705.02 591.368   4
  -1   1   7 110164. 3597.23   1
   1  -1  -7 119785. 4647.10   4
  -1   1   6 35125.7 1545.74   1
   1  -1  -6 35933.9 2131.54   4
  -1   1   5 153589. 4090.97   1
   1  -1  -5 158996. 4946.75   4
   1  -1  -5 147992. 5421.21   5
  -1   1   4 671.080 154.971   1
   1  -1  -4 551.638 309.511   5
   1  -1  -4 711.157 260.902   4
   1  -1  -3 91888.0 3374.73   5
  -1   1   3 90874.2 2285.20   1
   1  -1  -2 10627.2 893.472   5
   1  -1  -1 1973.99 370.840   5
   1  -1   0 1903.58 178.306   1
   1  -1   0 2155.27 386.438   5
   1  -1   1 138845. 4541.85   5
   1  -1   1 139123. 3496.84   1
  -1   1  -2 30084.1 1511.77   4
   1  -1   2 32510.2 1263.21   1
   1  -1   3 7895.83 626.895   1
  -1   1  -3 7394.07 722.221   4
   1  -1   4 36960.7 1634.75   1
  -1   1  -4 31880.1 1737.45   4
  -1   1  -5 261.155 206.619   4
   1  -1   5 295.209 199.875   1
  -1   1  -6 38699.7 2209.75   4
   1  -1   6 37064.1 1873.09   1
   1  -1   7 61904.3 2703.24   1
  -1   1  -7 58260.3 3081.34   4
  -1   1  -8 8472.01 1155.58   4
  -1   1  -8 10343.0 845.425   3
  -1   1  -9 58583.5 2321.67   3
  -1   1  -9 57669.2 3319.44   4
   1  -1  10 33812.2 1061.28   2
  -1   1 -10 28953.6 1684.25   3
  -1   1 -11 47483.2 3361.08   4
  -1   1 -11 49442.4 2332.85   3
  -1   1 -12 725.614 500.477   4
  -1   1 -13 8711.23 1534.56   4
  -1   1 -14 101.425 434.950   4
  -1   1 -15 3390.14 1094.70   4
  -1   1 -16 811.087 815.142   4
   1   0 -15 3779.51 1160.67   4
   1   0 -15 2290.14 1104.74   5
   1   0 -14 160.286 656.566   5
   1   0 -14-498.297 606.529   4
   1   0 -13 10226.4 1733.36   4
   1   0 -12 13639.2 1863.22   4
   1   0 -11 1430.15 653.841   4
   1   0 -10 1150.19 595.587   4
   1   0  -9 17452.5 1818.59   4
   1   0  -8 31031.5 2275.05   4
   1   0  -7 54983.6 2931.29   4
   1   0  -6 1389.78 449.058   4
  -1   0   5 19899.4 745.326   3
   1   0  -5 18500.3 1364.81   4
   1   0  -4 65760.5 2054.81   1
   1   0  -4 66620.2 2582.37   4
  -1   0   4 66111.5 1835.20   3
   1   0  -3 450099. 10029.6   1
   1   0  -3 444458. 11337.3   5
   1   0  -2 14031.5 1009.40   5
   1   0  -1 102237. 3198.01   5
   1   0   0 12043.3 833.247   5
   1   0   1 131965. 4236.65   5
  -1   0  -2 20128.3 1182.15   4
  -1   0  -3 14488.8 1030.67   4
  -1   0  -3 16152.1 688.338   2
   1   0   4 211921. 4904.99   2
  -1   0  -4 214337. 6072.84   4
   1   0   5 1917.88 382.607   1
   1   0   5 2324.00 247.850   2
  -1   0  -5 1926.27 456.185   4
   1   0   6 33116.2 1766.76   1
   1   0   6 35161.5 1286.08   2
  -1   0  -6 34647.9 2115.82   4
   1   0   7 243.873 121.338   2
  -1   0  -7 416.641 300.076   4
   1   0   7-15.5535 147.829   1
   1   0   8 3974.21 437.368   2
  -1   0  -8 3798.38 782.010   4
  -1   0  -9 4828.99 930.583   4
   1   0   9 5303.28 537.391   2
  -1   0  -9 5050.39 558.509   3
   1   0  10 60603.5 2177.69   2
  -1   0 -10 57696.1 3555.46   4
  -1   0 -11 100.814 346.939   4
   1   0  11 751.048 200.943   2
  -1   0 -11 676.877 228.625   3
  -1   0 -12 15887.7 1998.65   4
  -1   0 -13 61784.1 4258.99   4
  -1   0 -14 19691.1 2461.57   4
  -1   0 -15 1689.79 840.833   4
  -1   0 -16 5429.01 1481.08   4
   1   1 -15 5890.15 1519.32   4
   1   1 -15 5216.02 1581.61   5
   1   1 -14 28047.7 3005.67   4
   1   1 -13 39752.7 3402.28   4
   1   1 -12 2431.48 866.019   4
   1   1 -11 10174.3 1579.61   4
   1   1 -10 102278. 4976.82   4
   1   1  -9 1388.05 550.624   4
   1   1  -8 16865.3 1657.16   4
   1   1  -7 1427.99 498.202   4
  -1  -1   7 1347.37 222.499   3
  -1  -1   6 101631. 2825.61   3
   1   1  -6 94284.7 3820.41   4
   1   1  -6 91402.9 3203.75   1
   1   1  -5 11024.7 1038.12   4
  -1  -1   5 11275.0 717.289   3
   1   1  -5 10694.9 809.464   1
   1   1  -4 656.297 224.046   4
  -1  -1   4 369.271 139.596   3
  -1  -1   3 59505.9 1917.82   3
   1   1  -2 11759.5 919.216   5
   1   1  -1 60269.8 2141.90   5
   1   1   0 16470.5 898.937   5
   1   1   1 31319.9 1529.37   5
  -1  -1  -1 31334.1 1173.46   2
  -1  -1  -2 18626.9 1098.53   4
  -1  -1  -2 16290.1 839.390   2
  -1  -1  -3 359377. 8969.32   4
   1   1   3 364115. 8440.04   2
  -1  -1  -3 353858. 8607.92   2
  -1  -1  -4 20198.5 1313.44   4
  -1  -1  -4 19955.1 1048.32   2
   1   1   4 21076.5 1056.09   2
  -1  -1  -5 37841.8 2019.29   4
   1   1   5 37894.2 1600.35   2
   1   1   6 56985.2 2189.78   2
  -1  -1  -6 62441.6 2916.92   4
   1   1   7 90919.1 3803.55   4
   1   1   7 80707.9 2898.07   2
  -1  -1  -7 89368.2 3866.27   4
   1   1   8 21796.9 1316.16   2
  -1  -1  -8 21167.5 1848.47   4
   1   1   8 21307.3 1585.36   1
   1   1   9 49259.0 2197.20   2
  -1  -1  -9 52615.7 3188.34   4
   1   1  10 35356.9 1832.65   2
  -1  -1 -10 35056.6 2707.07   4
  -1  -1 -11 7269.36 1290.06   4
   1   1  11 6420.04 746.181   2
  -1  -1 -11 5326.19 546.026   3
  -1  -1 -12 299.261 451.890   4
   1   1  12 16.7197 177.594   2
  -1  -1 -13 1191.21 677.952   4
  -1  -1 -14 5219.68 1362.50   4
  -1  -1 -15 3580.50 1184.32   4
  -1  -1 -16 189.105 503.322   4
   1   2 -15 1304.32 1001.09   4
   1   2 -14 1201.94 694.854   4
   1   2 -13 538.029 486.890   4
   1   2 -12 935.277 615.516   4
   1   2 -11 11162.7 1614.37   4
   1   2 -10 7588.09 1236.87   4
   1   2  -9 62093.4 2997.89   1
   1   2  -9 63118.8 3529.70   4
   1   2  -8 124.349 289.615   4
   1   2  -8 723.525 322.073   1
  -1  -2   8 615.211 211.747   3
  -1  -2   7 102839. 3204.60   3
   1   2  -7 102414. 4207.72   4
  -1  -2   6 55596.6 2642.28   4
  -1  -2   6 58974.0 2209.20   3
   1   2  -6 57028.0 2746.42   4
  -1  -2   5 18736.6 1140.98   3
   1   2  -5 19353.2 1378.81   4
  -1  -2   4 142344. 4140.76   3
   1   2  -4 139371. 4289.16   4
  -1  -2   3 16018.1 986.466   3
   1   2  -2 260149. 6761.73   5
  -1  -2   2 249450. 6405.93   3
  -1  -2   1 38701.0 1497.75   2
   1   2  -1 34099.8 1472.84   5
  -1  -2   1 36058.0 1505.88   3
   1   2   0 52508.6 1756.14   5
  -1  -2   0 52207.4 1884.51   2
  -1  -2  -1 22071.4 913.917   5
   1   2   1 21664.0 1087.26   5
  -1  -2  -1 20760.9 1110.14   2
  -1  -2  -2 11808.5 869.700   2
  -1  -2  -2 12820.6 864.834   4
  -1  -2  -2 12640.6 817.779   5
  -1  -2  -3 8683.01 749.219   4
  -1  -2  -3 7936.58 788.790   2
   1   2   3 9951.88 799.004   4
  -1  -2  -4 729.498 251.021   2
   1   2   4 885.039 272.797   2
  -1  -2  -4 1064.99 310.175   4
   1   2   4 1018.96 294.764   4
  -1  -2  -5 6170.85 751.614   4
   1   2   5 5480.01 706.980   4
   1   2   5 4890.27 615.665   2
   1   2   6 1339.79 372.904   2
  -1  -2  -6 1694.78 454.387   4
   1   2   6 1814.37 463.379   4
   1   2   7 128240. 4682.38   4
  -1  -2  -7 124196. 4737.50   4
   1   2   7 120573. 4098.70   2
   1   2   8 260.267 235.547   2
  -1  -2  -8 466.830 248.406   4
   1   2   9 12746.7 1151.90   2
  -1  -2  -9 13745.0 1538.31   4
  -1  -2 -10 29887.2 2438.98   4
  -1  -2 -11 17535.3 916.294   3
  -1  -2 -11 16358.1 1891.40   4
  -1  -2 -12 31343.5 2745.91   4
  -1  -2 -13 18430.2 2233.58   4
  -1  -2 -14 36811.3 3292.35   4
  -1  -2 -15 277.925 554.826   4
  -1  -2 -16 2919.53 998.700   4
   1   3 -15 555.435 585.460   4
   1   3 -14 51453.5 4022.46   4
   1   3 -13 13323.9 1916.92   4
   1   3 -12 9593.17 1533.69   4
   1   3 -11 498.755 508.513   4
   1   3 -11 850.320 421.688   1
   1   3 -10 19072.7 1734.55   1
   1   3 -10 18072.2 1880.11   4
   1   3  -9 42238.8 2541.76   1
   1   3  -9 43392.2 2814.17   4
   1   3  -8 352.855 340.122   4
   1   3  -8 105.486 215.716   1
  -1  -3   8 501.692 244.043   3
  -1  -3   7 338.394 202.467   3
   1   3  -7 363.162 271.857   1
   1   3  -7 278.666 291.070   4
  -1  -3   6 26435.9 1552.91   3
   1   3  -6 26226.1 1731.68   4
  -1  -3   6 26532.8 1744.12   4
   1   3  -5 35650.3 1897.24   4
  -1  -3   5 36863.1 1885.32   3
  -1  -3   4 80582.2 2759.68   2
  -1  -3   4 80380.3 3073.04   3
   1   3  -4 81181.3 2877.42   4
  -1  -3   4 78467.0 2894.36   4
  -1  -3   3 4711.63 613.855   3
  -1  -3   3 4997.55 533.849   4
  -1  -3   3 5318.58 569.208   2
  -1  -3   2 52013.4 2190.01   3
  -1  -3   2 50905.5 1832.80   4
   1   3  -1 63832.4 2213.79   5
  -1  -3   1 67428.1 2021.18   4
  -1  -3   1 66027.0 2426.99   2
  -1  -3   1 67203.2 2482.05   3
   1   3   0 286900. 6654.85   5
  -1  -3   0 280999. 7349.17   2
  -1  -3   0 282714. 7325.76   3
  -1  -3  -1 43339.9 1977.07   2
  -1  -3  -1 43979.9 1886.49   3
  -1  -3  -2 159025. 4281.87   4
  -1  -3  -2 153204. 4853.90   2
  -1  -3  -2 158280. 4027.91   5
  -1  -3  -3 141.819 188.660   2
   1   3   3 92.8789 103.062   4
  -1  -3  -3-66.3217 104.020   4
  -1  -3  -4 59732.8 2337.39   4
   1   3   4 61511.0 2669.55   2
  -1  -3  -4 55352.7 2621.33   2
   1   3   4 62958.9 2447.33   4
   1   3   5 55332.3 2427.38   4
   1   3   5 55091.9 2538.88   2
  -1  -3  -5 54647.4 2413.11   4
   1   3   6 54171.6 2594.86   2
   1   3   6 55304.8 2572.78   4
  -1  -3  -6 52995.9 2558.84   4
   1   3   7 66662.4 3033.39   4
  -1  -3  -7 61686.7 2997.46   4
  -1  -3  -8 6326.97 981.088   4
  -1  -3  -9 751.038 444.288   4
  -1  -3 -10 24427.3 2093.02   4
  -1  -3 -10 20490.8 1154.09   3
  -1  -3 -11 2350.53 715.864   4
   1   3  11 2545.30 584.317   2
  -1  -3 -11 1885.26 286.285   3
   1   3  12 27942.2 1944.41   2
  -1  -3 -12 23738.7 2354.17   4
  -1  -3 -13 3585.50 961.885   4
   1   3  13 4327.52 777.432   2
  -1  -3 -14 8707.00 1577.38   4
  -1  -3 -15 17957.1 2376.05   4
  -1  -3 -16 5830.18 1430.79   4
   1   4 -14 6148.05 1403.96   4
   1   4 -13 10410.5 1670.43   4
   1   4 -12 39743.9 3020.99   1
   1   4 -12 43433.8 3254.24   4
   1   4 -11 3337.06 867.316   4
   1   4 -11 3180.32 849.798   1
   1   4 -10 15387.6 1700.97   4
   1   4 -10 16336.5 1714.31   1
   1   4  -9 52788.9 2998.17   1
  -1  -4   9 48037.4 2334.94   3
  -1  -4   9 42255.5 2108.69   2
   1   4  -9 49311.0 2953.69   4
  -1  -4   8 87542.4 3284.26   2
   1   4  -8 98283.0 4127.44   1
  -1  -4   8 95053.7 3554.51   3
   1   4  -8 95949.9 4129.80   4
   1   4  -7 23561.7 1743.41   1
  -1  -4   7 22823.8 1565.33   3
  -1  -4   7 23284.9 1429.42   2
   1   4  -7 24966.8 1788.44   4
  -1  -4   6 16841.0 1343.80   3
   1   4  -6 17208.8 1562.31   3
  -1  -4   6 15793.2 1151.75   2
   1   4  -6 17584.7 1363.60   4
  -1  -4   6 15925.3 1337.38   4
   1   4  -5 115246. 4512.02   3
  -1  -4   5 114806. 4150.48   3
   1   4  -5 114550. 3881.51   4
  -1  -4   5 113939. 3793.33   2
  -1  -4   4 13862.6 1030.62   4
  -1  -4   4 13519.4 1210.90   3
   1   4  -4 13227.2 1331.49   3
   1   4  -4 14077.7 1005.74   4
  -1  -4   4 12510.6 1003.88   2
  -1  -4   3 25049.5 1638.58   3
  -1  -4   3 25552.9 1501.38   2
  -1  -4   3 23963.4 1279.47   4
   1   4  -3 27355.1 1828.87   3
  -1  -4   2 10358.2 1006.56   3
  -1  -4   2 12119.4 1015.64   2
  -1  -4   2 11248.5 730.182   4
  -1  -4   1 112.395 82.9522   4
  -1  -4   1 253.964 202.121   3
   1   4  -1 637.502 172.734   5
  -1  -4   1 338.466 210.620   2
   1   4   0 6360.09 404.759   5
  -1  -4   0 7109.47 791.500   2
  -1  -4   0 6322.73 738.085   3
  -1  -4  -1 34600.2 1283.66   4
  -1  -4  -1 32029.7 1833.76   2
  -1  -4  -1 30545.3 1695.03   3
  -1  -4  -2 440.540 227.372   2
  -1  -4  -2 727.543 255.657   3
  -1  -4  -2 333.354 122.372   4
  -1  -4  -3 147.148 168.159   2
  -1  -4  -3 449.160 185.268   4
  -1  -4  -3 228.117 197.729   3
   1   4   4 64645.3 2455.05   4
  -1  -4  -4 68789.1 2456.35   4
  -1  -4  -4 68585.8 2701.70   3
   1   4   5 62241.8 2551.71   4
  -1  -4  -5 62434.7 2564.17   3
  -1  -4  -5 63011.2 2541.65   4
   1   4   6 115056. 4050.47   4
  -1  -4  -6 110573. 3777.64   3
  -1  -4  -6 114376. 4012.41   4
  -1  -4  -7 645.009 279.001   4
   1   4   7 255.836 257.397   4
  -1  -4  -7 595.259 278.603   3
   1   4   8 73516.6 3344.83   2
  -1  -4  -8 67406.6 2686.93   3
  -1  -4  -8 70039.6 3298.38   4
  -1  -4  -9 200.209 328.095   4
  -1  -4  -9 612.700 256.756   3
   1   4   9 964.395 420.776   2
   1   4  10 32983.3 2193.68   2
  -1  -4 -10 33725.4 2399.97   4
  -1  -4 -10 27493.0 1516.81   3
  -1  -4 -11 22727.5 1303.35   3
  -1  -4 -11 26150.7 2248.44   4
   1   4  12 50276.6 2864.93   2
  -1  -4 -12 45271.8 3189.41   4
  -1  -4 -13 8970.62 1414.91   4
   1   4  13 12973.3 1422.16   2
  -1  -4 -14 6018.00 1274.16   4
  -1  -4 -15 837.560 630.737   4
  -1  -4 -16 7242.94 1569.76   4
   1   5 -13 6821.58 1344.44   4
   1   5 -13 3604.57 1069.39   1
   1   5 -12 2210.62 716.266   4
   1   5 -12 2055.96 760.121   1
   1   5 -11 3630.31 922.657   4
   1   5 -11 2921.71 804.080   1
   1   5 -10 1026.17 443.745   4
   1   5 -10 1270.93 687.861   1
   1   5  -9 538.032 382.420   4
  -1  -5   9 777.018 381.395   3
   1   5  -9 221.714 280.018   1
  -1  -5   8 7514.45 964.980   3
   1   5  -8 9476.85 1205.32   1
  -1  -5   8 6990.59 825.346   2
   1   5  -8 9656.19 1158.47   4
  -1  -5   7 5238.24 824.606   3
  -1  -5   7 5496.17 727.332   2
   1   5  -7 6388.11 871.942   4
   1   5  -6 62909.0 2768.97   4
  -1  -5   6 59664.3 2976.22   3
  -1  -5   6 60556.9 2691.22   2
  -1  -5   6 59498.8 2805.89   4
  -1  -5   5 3107.62 634.586   3
   1   5  -5 3510.07 539.541   4
   1   5  -5 3051.26 673.976   3
  -1  -5   5 3244.87 562.238   2
  -1  -5   4 161841. 5151.86   2
  -1  -5   4 157132. 5478.12   3
   1   5  -4 158783. 5850.39   3
  -1  -5   4 160578. 4831.69   4
  -1  -5   3 42678.6 2453.36   3
  -1  -5   3 48921.2 2339.67   2
   1   5  -3 45456.8 2648.11   3
  -1  -5   3 43725.9 1864.84   4
  -1  -5   2 9878.45 1077.65   3
   1   5  -2 9292.18 1052.97   2
  -1  -5   2 9572.49 1003.82   2
  -1  -5   2 7870.05 617.045   4
  -1  -5   1 134829. 4478.28   2
  -1  -5   1 127697. 4540.43   3
   1   5  -1 122015. 3522.61   5
   1   5  -1 129219. 4694.30   2
  -1  -5   1 122064. 3260.22   4
  -1  -5   0 42727.6 2271.62   2
  -1  -5   0 42801.4 2274.27   3
  -1  -5   0 38607.0 1189.79   4
  -1  -5  -1 182880. 4369.29   4
  -1  -5  -1 182609. 5768.76   3
  -1  -5  -1 182016. 5993.27   2
  -1  -5  -2 2108.84 235.641   4
  -1  -5  -2 2147.10 536.779   2
  -1  -5  -2 2313.72 492.316   3
  -1  -5  -3 85601.2 2245.20   5
  -1  -5  -3 94634.7 4115.04   2
  -1  -5  -3 88775.7 3487.74   3
  -1  -5  -3 88565.0 2343.75   5
  -1  -5  -3 86123.6 2584.03   4
  -1  -5  -4 2170.82 483.405   3
   1   5   4 2452.16 383.111   4
  -1  -5  -4 2861.53 391.638   4
  -1  -5  -5 192.702 181.100   3
  -1  -5  -5 546.274 238.691   4
   1   5   5 310.641 298.039   2
   1   5   5 181.371 142.987   4
   1   5   6 476.189 320.789   2
  -1  -5  -6 317.875 228.213   3
  -1  -5  -6 619.198 250.103   4
   1   5   6 379.048 183.631   4
   1   5   7 26708.5 1712.58   4
  -1  -5  -7 27101.7 1719.31   3
   1   5   7 29806.9 2090.24   2
  -1  -5  -7 30322.3 1830.73   4
  -1  -5  -8 1464.05 418.986   3
  -1  -5  -8 1222.73 455.370   4
   1   5   8 682.325 389.263   2
  -1  -5  -9 779.992 314.665   3
  -1  -5  -9 659.193 362.273   4
   1   5   9 1103.62 515.809   2
  -1  -5 -10 31412.0 1837.83   3
   1   5  10 36392.8 2446.55   2
  -1  -5 -10 38593.7 2507.57   4
  -1  -5 -11 5813.27 700.835   3
  -1  -5 -11 6015.03 1033.63   4
   1   5  11 6730.05 1100.90   2
   1   5  12 24103.0 2017.36   2
  -1  -5 -12 23164.2 2156.80   4
  -1  -5 -13 3940.41 916.289   4
   1   5  13 5359.23 959.972   2
  -1  -5 -14 3399.80 1036.89   4
  -1  -5 -15 18769.7 2260.63   4
  -1  -5 -16 13187.9 2010.73   4
  -1  -5 -16 13376.2 2308.40   5
   1   6 -13 22474.7 2544.17   1
   1   6 -12 1191.70 637.176   1
   1   6 -12 281.563 328.198   4
   1   6 -11 56601.6 3774.25   1
   1   6 -11 66320.1 3692.53   4
   1   6 -10 17324.2 1923.26   1
   1   6 -10 18510.6 1773.78   4
   1   6  -9 6560.91 1096.85   1
   1   6  -9 7440.22 1055.57   4
  -1  -6   9 6539.78 958.910   3
  -1  -6   8 1207.16 376.934   3
   1   6  -8 931.562 378.553   4
   1   6  -8 1476.65 598.314   1
  -1  -6   7 28037.5 2068.58   3
   1   6  -7 29122.0 1854.18   4
  -1  -6   6 30700.3 1981.69   2
  -1  -6   6 32571.4 2251.26   3
  -1  -6   6 32379.4 1956.39   4
  -1  -6   5 199.690 382.354   3
  -1  -6   5 416.087 318.569   2
  -1  -6   4 1957.15 557.054   3
  -1  -6   4 1738.13 474.324   2
  -1  -6   4 1338.79 340.259   4
  -1  -6   3 11965.6 1196.08   2
  -1  -6   3 10841.8 1278.28   3
   1   6  -3 11268.8 1286.46   2
  -1  -6   3 11979.2 884.984   4
  -1  -6   2 10633.7 734.408   4
  -1  -6   2 10424.4 1137.78   2
  -1  -6   2 9720.23 1184.85   3
   1   6  -2 11089.9 1290.77   2
   1   6  -1 79431.0 3823.38   2
  -1  -6   1 83049.5 3620.65   2
   1   6  -1 80435.6 2555.58   5
  -1  -6   1 85880.1 3825.63   3
  -1  -6   1 86278.2 2384.45   4
  -1  -6   0 24687.6 1851.29   3
  -1  -6   0 23521.1 1805.12   2
   1   6   0 24217.9 1944.00   2
  -1  -6   0 23241.3 752.500   4
  -1  -6  -1 513.282 288.020   3
  -1  -6  -2 31588.1 2109.00   3
  -1  -6  -3 250364. 7607.18   3
  -1  -6  -3 244043. 5821.60   4
   1   6   4 4976.78 889.650   2
  -1  -6  -4 4859.24 388.629   5
  -1  -6  -4 4783.52 789.331   3
  -1  -6  -4 5337.94 513.269   4
   1   6   5 34188.7 1679.16   4
   1   6   5 40012.9 2546.53   2
  -1  -6  -5 38104.5 1697.34   4
  -1  -6  -5 38111.5 1630.76   5
  -1  -6  -5 35594.0 2232.94   3
  -1  -6  -6 3157.67 647.905   3
   1   6   6 2745.49 479.946   4
  -1  -6  -6 3228.04 512.155   5
   1   6   6 3300.89 776.889   2
  -1  -6  -6 4111.19 578.352   4
   1   6   7 70052.9 2956.95   4
   1   6   7 77808.1 3762.76   2
  -1  -6  -7 72162.6 3340.03   3
  -1  -6  -7 79420.5 3107.39   4
  -1  -6  -8 2262.84 577.607   3
  -1  -6  -8 2713.07 590.242   4
   1   6   8 2299.09 666.816   2
   1   6   9 7877.12 1171.07   2
  -1  -6  -9 7488.91 957.053   3
  -1  -6  -9 7699.65 1007.53   4
   1   6  10 46525.6 2994.25   2
  -1  -6 -10 39296.8 2296.48   3
  -1  -6 -10 45825.8 2704.86   4
  -1  -6 -11 1305.54 527.944   4
   1   6  11 1053.25 502.139   2
  -1  -6 -12 4162.86 885.876   4
   1   6  12 5426.80 1028.49   2
  -1  -6 -13 509.000 506.963   4
   1   6  13 189.062 392.805   2
  -1  -6 -13 235.611 602.187   5
  -1  -6 -14 722.874 580.217   4
  -1  -6 -14 1149.72 733.853   5
  -1  -6 -15 198.611 450.660   4
  -1  -6 -15-1195.59 803.123   5
   1   7 -14 2560.64 951.588   1
   1   7 -13-984.060 637.245   1
   1   7 -12 444.733 401.401   1
   1   7 -11 40903.3 3243.55   1
   1   7 -10 355.282 513.176   1
  -1  -7  10 118.294 350.635   3
   1   7  -9 4234.54 1000.27   1
  -1  -7   9 5596.35 965.922   3
  -1  -7   8 21443.3 1922.27   3
  -1  -7   7 89908.8 4232.31   3
  -1  -7   6 7027.01 882.844   4
  -1  -7   6 7854.27 1166.61   3
  -1  -7   5 29715.0 2285.44   3
  -1  -7   4 110331. 3694.36   4
  -1  -7   4 114115. 4827.20   3
   1   7  -3 7930.89 1174.26   2
  -1  -7   3 7779.75 690.818   4
  -1  -7   3 6738.00 1056.87   3
  -1  -7   2 11971.1 738.086   4
  -1  -7   2 10568.6 1312.55   3
   1   7  -2 8897.03 1307.04   2
  -1  -7   1 806.913 404.426   3
  -1  -7   1 1254.86 165.773   4
   1   7  -1 583.645 412.431   2
   1   7  -1 1147.42 252.319   5
   1   7  -1 1556.00 247.443   5
  -1  -7   0 134399. 5325.07   3
   1   7   0 128563. 5342.88   2
  -1  -7  -1 1573.76 541.694   3
   1   7   1 1831.38 635.894   2
  -1  -7  -2 4946.01 913.072   3
   1   7   2 4767.86 896.804   2
  -1  -7  -3 11498.5 1360.32   3
   1   7   3 14464.1 1560.22   2
  -1  -7  -4 7111.92 1076.88   3
   1   7   4 7196.24 1144.65   2
  -1  -7  -4 6430.94 467.469   4
   1   7   5 24355.7 2102.34   2
  -1  -7  -5 21095.2 1855.54   3
  -1  -7  -5 21907.9 1004.51   5
  -1  -7  -5 21385.2 1118.17   4
  -1  -7  -6 4943.73 907.794   3
  -1  -7  -6 6093.66 617.479   5
   1   7   6 5758.62 1060.37   2
  -1  -7  -6 6467.52 669.133   4
   1   7   6 3546.53 536.539   4
  -1  -7  -7 4197.38 818.710   3
  -1  -7  -7 3467.13 542.324   4
   1   7   7 3520.00 846.496   2
   1   7   7 3458.74 548.923   4
  -1  -7  -7 3389.27 552.698   5
  -1  -7  -8 6599.98 984.694   3
  -1  -7  -8 8239.17 978.952   5
   1   7   8 9145.71 1296.90   2
  -1  -7  -8 7714.71 899.230   4
   1   7   9 95750.1 4555.23   2
  -1  -7  -9 104189. 4269.25   5
  -1  -7  -9 94304.3 3901.34   4
  -1  -7 -10 668.450 268.537   4
   1   7  10 585.064 469.771   2
  -1  -7 -10 797.248 369.220   3
  -1  -7 -10 411.142 352.206   5
  -1  -7 -11 19767.2 2036.23   5
   1   7  11 19288.9 1955.94   2
  -1  -7 -11 18773.2 1769.45   4
  -1  -7 -12 460.010 471.122   4
   1   7  12-91.7174 370.829   2
  -1  -7 -12-473.237 454.096   5
  -1  -7 -13 24631.1 2584.29   5
   1   7  13 23172.6 2230.01   2
  -1  -7 -13 21533.7 2112.32   4
  -1  -7 -14 4639.95 1048.49   4
  -1  -7 -15 18015.3 2166.00   4
   1   8 -12 12071.6 1917.21   1
   1   8 -11 2772.22 927.203   1
   1   8 -10 7961.53 1447.76   1
  -1  -8  10 8769.37 1346.92   3
  -1  -8   9 5856.78 1080.40   3
   1   8  -9 5175.36 1141.91   1
  -1  -8   8 2351.26 717.996   3
  -1  -8   7 469.919 375.941   3
  -1  -8   6 4523.56 984.267   3
  -1  -8   5 5975.99 1101.85   3
  -1  -8   4 782.688 450.931   3
  -1  -8   4 264.181 163.850   4
   1   8  -3 41574.2 2932.08   2
  -1  -8   3 41971.9 2854.57   3
  -1  -8   3 40972.9 1723.83   4
  -1  -8   2 2177.17 686.726   3
  -1  -8   2 2129.18 277.267   4
   1   8  -2 1790.85 336.586   5
   1   8  -2 1586.73 338.357   5
   1   8  -2 3295.31 829.647   2
   1   8  -1 83650.3 2252.85   5
   1   8  -1 83070.3 2267.27   5
  -1  -8   1 100305. 4550.84   3
   1   8  -1 96158.3 4571.21   2
  -1  -8   0 33799.4 2567.89   3
   1   8   0 34660.7 2602.64   2
  -1  -8  -1 20436.0 1979.17   3
   1   8   1 23884.5 2148.05   2
   1   8   2 22537.6 2078.75   2
  -1  -8  -2 18828.1 1905.16   3
  -1  -8  -3 13015.4 1566.56   3
   1   8   3 13879.9 1629.97   2
  -1  -8  -4 117368. 5311.96   3
   1   8   4 139171. 5687.44   2
   1   8   5 9151.26 1318.42   2
  -1  -8  -5 9816.12 1343.54   3
  -1  -8  -6 15508.9 858.319   5
  -1  -8  -6 15032.9 1670.68   3
  -1  -8  -6 15651.0 968.293   4
   1   8   6 15476.7 1700.06   2
  -1  -8  -7 1642.54 631.497   3
  -1  -8  -7 738.824 290.204   4
   1   8   7 613.042 535.716   2
  -1  -8  -7 576.174 225.903   5
  -1  -8  -8 2396.96 630.911   3
  -1  -8  -8 2745.39 530.425   4
  -1  -8  -8 3608.22 597.263   5
   1   8   8 3125.07 810.227   2
  -1  -8  -9 4277.32 833.259   3
  -1  -8  -9 2562.39 590.654   4
  -1  -8  -9 3448.09 632.226   5
   1   8   9 2449.68 717.529   2
  -1  -8 -10 4118.71 816.980   3
  -1  -8 -10 4429.46 784.301   4
   1   8  10 3841.80 904.354   2
  -1  -8 -11 598.244 360.299   4
   1   8  11 197.514 429.073   2
   1   8  12 2497.86 760.038   2
  -1  -8 -12 2449.08 675.781   4
   1   8  13 22370.9 2312.76   2
   1   9 -11 2865.37 1015.80   1
   1   9 -10 24249.7 2534.98   1
   1   9  -9 355.965 449.887   1
  -1  -9   9 402.005 465.754   3
  -1  -9   8 42717.1 3091.80   3
  -1  -9   7 12906.4 1660.91   3
  -1  -9   6 14521.8 1755.44   3
  -1  -9   5 879.919 577.283   3
  -1  -9   4 31395.9 2593.61   3
   1   9  -3 7844.47 807.989   5
  -1  -9   3 9002.64 1354.97   3
   1   9  -3 6054.34 1200.85   2
  -1  -9   2 756.344 448.959   3
   1   9  -2 917.306 210.024   5
   1   9  -2 906.215 217.122   5
   1   9  -2 945.342 635.110   2
  -1  -9   1-101.663 349.348   3
   1   9  -1 432.209 454.634   2
   1   9   0 33052.7 2695.73   2
  -1  -9   0 30441.0 2520.20   3
   1   9   1 15071.0 1819.45   2
  -1  -9  -1 12382.9 1612.09   3
  -1  -9  -2 26129.0 2359.48   3
   1   9   2 28651.0 2464.12   2
  -1  -9  -3 3029.38 835.894   3
   1   9   3 2879.85 813.013   2
   1   9   4 18932.7 1965.43   2
  -1  -9  -4 17927.7 1956.22   3
  -1  -9  -5 34202.4 2708.85   3
   1   9   5 36241.0 2737.26   2
   1   9   6 61338.5 3680.93   2
  -1  -9  -6 60048.6 3656.55   3
   1   9   7 12982.9 1639.71   2
  -1  -9  -7 12597.6 1595.10   3
  -1  -9  -8 43579.6 3008.91   3
   1   9   8 49911.7 3265.21   2
  -1  -9  -9 3429.65 992.352   3
   1   9   9 3542.21 905.600   2
   1   9  10 31744.8 2629.38   2
   1   9  11 11222.4 1640.34   2
   1   9  12 13214.8 1757.51   2
   1   9  13 4512.55 1065.36   2
   1  10 -10 7843.23 1445.46   1
  -1 -10   9 4747.99 1077.42   3
   1  10  -9 3562.90 959.563   1
  -1 -10   8 10262.3 1536.74   3
  -1 -10   7 5661.60 1231.31   3
  -1 -10   6 34783.3 2887.38   3
  -1 -10   5 1480.63 697.316   3
  -1 -10   4 19792.3 2197.99   3
   1  10  -3 31406.7 2827.24   2
  -1 -10   3 33330.3 2811.90   3
  -1 -10   2 76969.5 4439.25   3
   1  10  -2 83974.7 4769.74   2
  -1 -10   1 31077.4 2707.01   3
   1  10  -1 34171.8 2861.34   2
  -1 -10   0 234.317 369.356   3
   1  10   0-154.374 401.235   2
   1  10   1 39884.1 3033.45   2
  -1 -10  -1 34333.4 2871.53   3
  -1 -10  -2 4726.13 1065.64   3
   1  10   2 5629.61 1172.65   2
  -1 -10  -3 23689.5 2368.08   3
   1  10   3 27967.8 2476.61   2
  -1 -10  -4 5812.04 1206.32   3
   1  10   4 6035.11 1157.02   2
  -1 -10  -5 6242.77 1179.78   3
   1  10   5 8913.23 1408.29   2
  -1 -10  -6 1696.36 651.731   3
   1  10   6 1731.83 704.455   2
   1  10   7 9613.70 1478.80   2
  -1 -10  -7 10128.4 1503.36   3
  -1 -10  -8 414.241 391.417   3
   1  10   8 1674.63 728.878   2
  -1 -10  -9 414.268 402.072   3
   1  10   9 376.964 342.388   2
   1  10  10 4118.84 1004.80   2
   1  10  11 7619.50 1368.73   2
   1  10  12 22914.8 2351.41   2
  -1 -11   9 7791.52 1475.26   3
  -1 -11   8 2314.63 905.879   3
  -1 -11   7 15887.9 2076.54   3
  -1 -11   6 3698.00 992.204   3
  -1 -11   5 2285.98 811.220   3
  -1 -11   4 597.804 548.218   3
  -1 -11   3-109.246 410.701   3
   1  11  -3-324.873 573.274   2
  -1 -11   2 2910.09 981.754   3
   1  11  -2 2696.33 1034.03   2
  -1 -11   1 1450.70 626.024   3
   1  11  -1 2546.47 927.776   2
  -1 -11   0 10522.5 1654.02   3
   1  11   0 12905.6 1820.99   2
  -1 -11  -1 2951.73 919.797   3
   1  11   1 2927.52 962.720   2
   1  11   2 77072.2 4451.32   2
  -1 -11  -2 73737.5 4545.91   3
  -1 -11  -3 10221.9 1647.42   3
   1  11   3 11469.2 1649.45   2
  -1 -11  -4 8536.09 1506.71   3
   1  11   4 9833.71 1508.90   2
  -1 -11  -5 10680.4 1681.84   3
   1  11   5 13448.3 1775.42   2
  -1 -11  -6 9723.89 1596.56   3
   1  11   6 11189.7 1623.64   2
   1  11   7 25920.3 2447.21   2
  -1 -11  -7 22872.0 2371.41   3
  -1 -11  -8 2341.86 812.308   3
   1  11   8 2853.83 887.512   2
  -1 -11  -9 13120.6 1750.07   3
   1  11   9 19432.2 2152.71   2
   1  11  10 2807.17 902.234   2
  -1 -12   7 15625.3 2120.53   3
  -1 -12   6 219.829 579.909   3
  -1 -12   5 26206.3 2695.22   3
  -1 -12   4 6883.15 1375.93   3
  -1 -12   3 6100.62 1308.41   3
   1  12  -3 8573.47 1598.40   2
  -1 -12   2 767.191 649.586   3
   1  12  -2-282.248 491.606   2
  -1 -12   1 25937.1 2676.66   3
   1  12  -1 26429.4 2751.92   2
  -1 -12   0 12203.9 1860.69   3
   1  12   0 14707.1 1946.70   2
  -1 -12  -1 13.9711 428.090   3
   1  12   1 1110.42 668.904   2
  -1 -12  -2 4523.52 1159.82   3
   1  12   2 6455.23 1315.40   2
  -1 -12  -3 4167.09 1095.48   3
   1  12   3 6086.61 1295.98   2
  -1 -12  -4 170.570 429.173   3
   1  12   4 1181.08 657.981   2
  -1 -12  -5 19636.9 2340.76   3
   1  12   5 21115.0 2310.25   2
  -1 -12  -6 9111.50 1543.36   3
   1  12   6 11127.9 1667.53   2
  -1 -12  -7 3047.29 888.132   3
   1  12   7 3579.52 952.780   2
  -1 -12  -8 5064.09 1177.35   3
   1  12   8 6341.60 1332.79   2
  -1 -13   3 8443.72 1551.93   3
   1  13  -3 11857.0 1907.35   2
  -1 -13   2 5374.13 1278.06   3
   1  13  -2 3344.00 965.136   2
  -1 -13   1 38150.8 3398.59   3
   1  13  -1 40204.0 3336.74   2
  -1 -13   0 2594.36 871.339   3
   1  13   0 4034.72 1087.95   2
  -1 -13  -1 20516.9 2515.15   3
   1  13   1 27110.8 2715.36   2
   1  13   2 34994.3 3093.15   2
  -1 -13  -2 31846.1 3121.20   3
   1  13   3 9475.12 1657.94   2
  -1 -13  -3 5579.47 1375.50   3
  -1 -13  -4 3493.32 1101.03   3
   1  13   4 3066.13 1028.43   2
  -1 -13  -5 1962.76 815.151   3
  -1 -13  -6 26442.9 2762.73   3
  -1 -13  -7-312.303 445.164   3
  -2  14  -2 367.156 407.573   1
  -2  14  -2-322.612 435.867   2
  -2  13   2 16615.8 1960.25   2
  -2  13   1 533.649 452.230   2
  -2  13   0 9304.59 1466.38   2
  -2  13  -1 2811.22 852.815   2
  -2  13  -2 3607.53 893.248   2
  -2  13  -3 959.766 548.896   1
  -2  13  -3-19.4120 356.614   2
  -2  13  -4 1271.15 588.796   1
  -2  13  -4 393.793 358.140   2
  -2  13  -5 1536.29 715.428   1
  -2  12   5 2531.76 863.195   2
  -2  12   4 6006.37 1241.04   2
  -2  12   3 20541.1 2154.27   2
  -2  12   2 19352.1 2138.72   2
  -2  12   1 304.598 483.032   2
  -2  12   0 14446.4 1740.47   2
  -2  12  -1 1881.70 732.595   2
  -2  12  -2 36219.2 2775.52   2
  -2  12  -3 2417.15 730.641   1
  -2  12  -3 4801.16 998.691   2
  -2  12  -4 21946.7 2183.75   1
  -2  12  -4 25816.9 2253.91   2
  -2  12  -5 2890.41 893.023   1
  -2  12  -5 3697.92 885.696   2
  -2  12  -6 826.796 541.070   1
  -2  12  -7 1229.75 748.492   1
  -2  11   8 12066.2 1905.64   2
  -2  11   7 4234.32 1198.69   2
  -2  11   6 3020.63 916.603   2
  -2  11   5 19482.0 2251.80   2
  -2  11   4-424.006 546.916   2
  -2  11   3 3000.28 864.925   2
  -2  11   2 2151.95 796.614   2
  -2  11   1 1405.25 583.964   2
  -2  11   0 2530.02 784.227   2
  -2  11  -1 3274.36 813.275   2
  -2  11  -2 637.420 366.951   2
  -2  11  -3 8588.43 1246.01   2
  -2  11  -4 19896.3 1971.52   1
  -2  11  -4 24892.9 2090.63   2
  -2  11  -5 4564.56 1006.15   1
  -2  11  -5 6133.23 1014.92   2
  -2  11  -6 3780.00 954.541   1
  -2  11  -6 7710.57 1203.03   2
  -2  11  -7-103.566 432.070   1
  -2  11  -8 37697.7 3203.29   1
  -2  11  -9 394.465 749.056   1
  -2  10   9 2694.26 1229.91   2
  -2  10   8-418.616 524.465   2
  -2  10   7-484.751 512.023   2
  -2  10   6 33098.2 2841.58   2
  -2  10   5 4786.21 1181.53   2
   2 -10  -5 4667.24 877.290   5
   2 -10  -4 9342.66 1211.34   5
  -2  10   4 11675.0 1555.39   2
  -2  10   3 8280.32 1311.97   2
   2 -10  -3 8121.28 1152.30   5
  -2  10   2 48751.9 3265.05   2
   2 -10  -2 52433.7 2965.79   5
   2 -10  -1 24160.9 1998.53   5
  -2  10   1 25091.6 2195.29   2
  -2  10   0 1240.97 622.116   2
  -2  10  -1 28497.0 2263.38   2
  -2  10  -2 4713.09 919.614   2
  -2  10  -3 17518.6 1690.67   2
  -2  10  -4 4520.39 834.867   2
  -2  10  -4 2732.14 724.254   1
  -2  10  -5 9199.04 1348.14   1
  -2  10  -5 11543.9 1343.78   2
  -2  10  -6 737.957 409.821   2
  -2  10  -6 263.217 415.762   1
  -2  10  -7-183.283 420.439   1
  -2  10  -8 4327.36 1047.24   1
  -2  10  -9 1045.75 643.591   1
  -2  10 -10 3177.67 1075.10   1
  -2   9  11 7323.29 1720.43   2
  -2   9  10 501.679 680.432   2
  -2   9   9 24539.9 2817.19   2
   2  -9  -9 26474.0 2513.58   5
  -2   9   8 10247.8 1669.26   2
   2  -9  -8 14210.2 1758.92   5
  -2   9   7 6074.52 1219.83   2
   2  -9  -7 6010.00 1143.20   5
  -2   9   6 4145.15 961.021   2
   2  -9  -6 3035.07 760.363   5
  -2   9   5 2475.54 781.247   2
   2  -9  -5 3777.69 840.285   5
  -2   9   4 1209.15 545.857   2
   2  -9  -4 1444.77 538.735   5
  -2   9   3 4672.62 1086.81   2
   2  -9  -3 5675.12 954.615   5
  -2   9   2 299.473 335.938   2
   2  -9  -2-79.5894 294.656   5
  -2   9   1 4493.32 500.021   4
  -2   9   1 4934.49 1011.40   2
   2  -9  -1 4674.10 861.162   5
  -2   9   0 30360.2 1408.94   4
  -2   9   0 34127.6 2440.50   2
   2  -9   0 34077.1 2370.70   5
  -2   9  -1 72601.7 2450.17   4
  -2   9  -1 71018.3 3728.68   2
  -2   9  -2 900.100 401.344   2
  -2   9  -2 1077.38 263.386   4
  -2   9  -3 6081.62 642.906   4
  -2   9  -3 7906.80 1071.60   2
  -2   9  -4 5372.34 985.455   1
  -2   9  -4 6887.43 983.154   2
  -2   9  -4 7010.32 746.699   4
  -2   9  -5 77807.9 4038.04   1
  -2   9  -5 87326.5 3774.86   2
  -2   9  -5 81967.2 3172.93   4
  -2   9  -6 3052.13 598.960   4
  -2   9  -6 4285.52 932.707   1
  -2   9  -6 3927.48 768.967   2
  -2   9  -7 32227.5 2718.63   1
  -2   9  -7 37968.8 2567.23   2
  -2   9  -7 31166.1 2005.47   4
  -2   9  -8 4118.97 1022.90   1
  -2   9  -8 5833.68 908.314   4
  -2   9  -9 7366.11 1424.11   1
  -2   9  -9 7492.05 1052.92   4
  -2   9 -10 21.4546 329.851   4
  -2   9 -10-230.518 575.540   1
  -2   9 -11 2442.89 684.035   4
  -2   9 -11 4602.49 1259.43   1
  -2   9 -12 10608.0 1487.28   4
  -2   9 -13 1763.31 653.119   4
  -2   8  12 1885.20 748.712   2
   2  -8 -12 3368.53 1170.86   5
   2  -8 -11 16056.8 2179.74   5
  -2   8  11 17895.2 2207.04   2
   2  -8 -10 124.728 400.252   5
   2  -8  -9 17288.0 2058.03   5
   2  -8  -8 5068.98 1066.48   5
   2  -8  -7 45464.1 3158.17   5
   2  -8  -6 21200.9 2040.17   5
   2  -8  -5 9013.09 1236.91   5
   2  -8  -4 33793.2 2363.98   5
  -2   8   4 35026.2 1682.84   4
   2  -8  -3 60287.9 3308.13   5
  -2   8   3 62994.6 2302.42   4
   2  -8  -2 22179.0 1920.81   5
  -2   8   2 24171.2 1885.98   5
  -2   8   2 27086.0 2117.44   2
  -2   8   2 23279.8 1205.75   4
   2  -8  -1 5304.60 933.902   5
  -2   8   1 8692.52 1096.63   5
  -2   8   1 7741.83 1063.34   2
  -2   8   0 32637.2 1604.64   4
  -2   8   0 37456.3 2371.58   5
  -2   8   0 34908.8 2369.38   2
   2  -8   0 34378.9 2345.77   5
  -2   8  -1-237.942 315.048   2
  -2   8  -1-222.462 192.132   4
   2  -8   1-816.866 409.076   5
  -2   8  -1-68.6522 201.207   5
  -2   8  -2 175.910 265.858   2
  -2   8  -2 1075.26 289.469   4
  -2   8  -3 1901.12 551.394   1
  -2   8  -3 1926.91 546.768   2
  -2   8  -3 2329.77 426.447   4
  -2   8  -4 1863.80 407.049   4
  -2   8  -4 1676.04 545.970   1
  -2   8  -4 2126.14 547.129   2
  -2   8  -5 4250.09 872.053   1
  -2   8  -5 5000.81 786.278   2
  -2   8  -5 4517.81 670.341   4
  -2   8  -6 47433.5 3110.86   1
  -2   8  -6 55358.8 2829.97   2
  -2   8  -6 50722.0 2529.63   4
  -2   8  -7 5604.83 834.559   4
  -2   8  -7 5594.96 891.372   2
  -2   8  -7 5237.00 1080.73   1
  -2   8  -8 138.441 395.979   1
  -2   8  -8 310.811 314.568   4
  -2   8  -9 28446.9 2666.84   1
  -2   8  -9 27904.3 2127.22   4
  -2   8 -10 9399.42 1602.68   1
  -2   8 -10 8590.74 1207.95   4
  -2   8 -11 25449.1 2705.15   1
  -2   8 -11 27383.9 2305.60   4
  -2   8 -12 1162.88 571.219   4
  -2   8 -13 28403.3 2544.99   4
  -2   8 -14-370.998 484.805   4
  -2   7  13 1867.43 774.662   2
   2  -7 -13 3803.69 1272.38   5
   2  -7 -12 15285.5 2322.79   5
   2  -7 -11 23187.1 2686.20   5
   2  -7 -10 7021.32 1367.89   5
   2  -7  -9 267.007 396.974   5
   2  -7  -8-85.1933 364.247   5
   2  -7  -7 2374.89 772.718   5
   2  -7  -6-117.832 344.292   5
  -2   7   5 9909.67 1049.50   3
   2  -7  -5 9231.72 1286.04   5
  -2   7   5 9319.61 891.518   4
   2  -7  -4 18638.9 1732.36   5
  -2   7   4 18862.5 1220.28   4
   2  -7  -3 11499.2 1310.54   5
  -2   7   3 13711.4 1489.58   5
  -2   7   2 23145.4 1813.64   5
   2  -7  -2 18567.3 1689.25   5
  -2   7   1 64628.7 3218.18   5
   2  -7  -1 54364.9 3169.75   5
   2  -7   0 3740.80 791.491   5
  -2   7   0 5255.93 851.719   5
   2  -7   1 65660.4 3511.09   5
  -2   7  -1 76453.1 2807.77   4
  -2   7  -1 76914.6 3434.39   2
  -2   7  -1 76397.3 3644.99   5
  -2   7  -2 47560.7 2091.06   4
  -2   7  -2 45606.4 2805.20   5
  -2   7  -2 45651.2 2592.05   2
  -2   7  -3 14472.4 1093.82   4
  -2   7  -3 15201.9 1445.84   1
  -2   7  -3 14393.7 1336.28   2
  -2   7  -4 35302.1 1859.77   4
  -2   7  -4 34589.9 2330.31   1
  -2   7  -4 35996.0 2040.90   2
  -2   7  -5 250.002 248.488   2
  -2   7  -5-25.7588 180.779   4
  -2   7  -5-264.866 349.511   1
  -2   7  -6 21547.9 1960.98   1
  -2   7  -6 25237.5 1759.74   2
  -2   7  -6 23600.6 1648.30   4
  -2   7  -7 4310.55 686.515   2
  -2   7  -7 3361.74 799.814   1
  -2   7  -7 5216.06 812.882   4
  -2   7  -8 7139.02 1228.17   1
  -2   7  -8 7247.88 1024.82   4
  -2   7  -9 299.982 325.205   4
  -2   7  -9 612.646 491.544   1
  -2   7 -10 249.399 346.262   4
  -2   7 -10 1584.22 722.191   1
  -2   7 -11 3598.06 861.057   4
  -2   7 -11 5831.15 1253.13   1
  -2   7 -12 1444.86 551.683   4
  -2   7 -13 8250.55 1382.68   4
  -2   7 -14 1722.83 813.418   4
   2  -6 -14 1748.59 843.693   5
   2  -6 -13 6470.46 1588.47   5
   2  -6 -12 17915.6 2544.82   5
   2  -6 -11 5111.91 1315.86   5
   2  -6 -10 35500.9 3198.03   5
   2  -6  -9 1604.62 700.778   5
   2  -6  -8 5305.65 1109.78   5
   2  -6  -7 55.7930 315.873   5
   2  -6  -6 93542.6 4356.36   5
  -2   6   6 65774.4 2784.51   3
   2  -6  -5 23267.1 2042.48   5
  -2   6   5 22172.6 1468.87   4
  -2   6   4 210.004 171.234   4
   2  -6  -4 133.063 232.310   5
  -2   6   3 7076.11 1051.31   5
   2  -6  -3 6543.62 980.289   5
  -2   6   3 7309.12 849.130   3
  -2   6   3 6231.50 677.043   4
   2  -6  -2 19461.6 1712.46   5
  -2   6   2 21939.3 1841.73   5
  -2   6   2 25103.1 1704.26   3
   2  -6  -1 998.757 356.862   5
  -2   6   1 1949.42 541.398   5
  -2   6   0 394.058 279.996   5
   2  -6   0 189.297 318.904   5
  -2   6  -1 980.011 373.322   5
  -2   6  -1 613.232 257.783   4
   2  -6   1 580.335 345.169   5
  -2   6  -2 14133.4 1252.34   1
  -2   6  -2 14124.8 1093.92   4
   2  -6   2 13660.6 1476.45   5
  -2   6  -2 15190.8 1560.61   5
  -2   6  -3 73363.2 2910.10   4
  -2   6  -3 76993.7 3153.70   2
  -2   6  -3 81302.6 3378.22   1
  -2   6  -3 79509.8 4110.89   5
  -2   6  -4 111436. 3893.31   4
  -2   6  -4 119167. 4432.73   1
  -2   6  -4 109562. 3905.73   2
  -2   6  -5 9345.59 973.516   4
  -2   6  -5 10442.3 1194.70   1
  -2   6  -5 9026.94 876.896   2
  -2   6  -6 25174.2 1718.53   4
  -2   6  -6 26050.8 2034.92   1
  -2   6  -6 29544.5 1727.78   2
  -2   6  -7 20855.5 1886.46   1
  -2   6  -7 21579.0 1305.45   2
  -2   6  -7 20103.8 1617.50   4
  -2   6  -8 83105.9 4229.90   1
  -2   6  -8 87568.2 3883.06   4
  -2   6  -9 6303.29 1013.20   4
  -2   6  -9 5382.36 1036.95   1
  -2   6 -10 49427.4 3357.32   1
  -2   6 -10 49435.2 3073.40   4
  -2   6 -11 3535.74 847.444   4
  -2   6 -12 10781.0 1528.71   4
  -2   6 -13 501.053 521.411   4
  -2   6 -14 5877.57 1254.59   4
   2  -5 -14 7278.99 1855.30   5
   2  -5 -13 1197.82 833.143   5
   2  -5 -12 736.245 720.337   5
   2  -5 -11 585.550 484.975   5
   2  -5 -10 13942.5 2026.70   5
   2  -5  -9 845.062 627.762   5
  -2   5   8 15731.8 934.564   1
   2  -5  -8 16680.3 1949.49   5
  -2   5   7 44.4538 139.423   1
  -2   5   7-125.246 188.722   3
   2  -5  -7 241.166 311.140   5
  -2   5   6 107515. 3488.11   3
   2  -5  -6 97463.3 4741.95   5
  -2   5   5 691.615 212.401   3
  -2   5   5 1209.36 379.142   4
   2  -5  -5 1196.71 505.296   5
   2  -5  -4 62819.1 3390.79   5
  -2   5   4 66332.4 2627.28   3
  -2   5   4 68146.0 3519.49   5
  -2   5   4 68550.2 2737.90   4
  -2   5   3 103475. 4329.04   5
  -2   5   3 96592.6 3354.63   4
   2  -5  -3 90355.6 4140.05   5
  -2   5   2 79316.3 3655.25   5
   2  -5  -2 68486.6 3437.70   5
   2  -5  -1 34959.0 2389.79   5
  -2   5   1 45097.1 2662.83   5
   2  -5   0 43823.9 2779.62   5
  -2   5   0 45984.1 2737.59   5
  -2   5  -1 127096. 4042.95   1
  -2   5  -1 127214. 5022.37   5
   2  -5   1 126847. 5261.22   5
  -2   5  -2 9885.34 942.841   4
  -2   5  -2 10268.4 960.183   1
  -2   5  -2 8784.22 1214.89   5
   2  -5   2 10226.0 1299.82   5
  -2   5  -3 4418.64 633.098   4
  -2   5  -3 4099.62 650.177   1
  -2   5  -3 5196.83 1024.92   5
  -2   5  -4 19028.4 1358.89   4
  -2   5  -4 19666.4 1505.86   1
  -2   5  -4 17870.7 1212.59   2
  -2   5  -5 74816.9 3104.36   4
  -2   5  -5 76373.4 2737.65   2
  -2   5  -5 75547.3 3387.52   1
  -2   5  -6 5386.69 784.576   4
  -2   5  -6 4780.59 846.204   1
  -2   5  -6 4699.28 567.315   2
  -2   5  -7 7321.20 964.629   4
  -2   5  -7 6986.73 533.549   2
  -2   5  -7 6076.96 963.400   1
  -2   5  -8 2712.00 673.153   4
  -2   5  -8 2539.11 707.888   1
  -2   5  -9 6818.00 1063.97   4
  -2   5  -9 6222.27 1088.69   1
  -2   5 -10 24966.2 2169.72   4
  -2   5 -11 14770.2 1732.60   4
  -2   5 -12 2804.36 849.096   4
  -2   5 -13 24.7593 430.130   4
  -2   5 -14 44116.0 3484.37   4
  -2   5 -15 1121.06 646.398   4
   2  -4 -14 1803.68 1002.65   5
   2  -4 -13 58987.4 4995.92   5
   2  -4 -12 3369.19 1071.52   5
   2  -4 -11 25266.3 2936.27   5
   2  -4 -10 344.968 432.420   5
   2  -4  -9 48345.5 3627.63   5
   2  -4  -8 6872.31 1273.81   5
  -2   4   7 463.829 156.883   1
  -2   4   7 914.305 195.234   3
   2  -4  -7 656.463 458.459   5
  -2   4   6 14799.0 905.923   3
   2  -4  -6 15164.8 1664.76   5
  -2   4   6 12746.3 661.786   1
   2  -4  -5 15812.9 1661.62   5
  -2   4   5 17443.9 1046.90   3
  -2   4   5 18053.2 1368.23   4
  -2   4   4 249.516 177.259   3
  -2   4   4 120.972 148.369   4
   2  -4  -4 344.801 335.680   5
  -2   4   4 92.3937 300.011   5
   2  -4  -3 28581.8 2146.07   5
  -2   4   3 33434.8 2250.76   5
  -2   4   3 34418.2 1681.43   3
  -2   4   2 4418.90 594.957   3
   2  -4  -2 3648.50 744.294   5
  -2   4   2 3199.66 696.034   5
   2  -4  -1 1947.53 570.394   5
  -2   4   1 1499.10 466.550   5
  -2   4   1 1695.00 380.673   3
  -2   4   0 50199.7 1895.74   1
   2  -4   0 50622.8 2933.20   5
  -2   4   0 55086.2 3018.46   5
  -2   4  -1 2715.11 414.281   1
   2  -4   1 2598.97 684.856   5
  -2   4  -1 3004.30 677.427   5
  -2   4  -2 43669.8 2790.40   5
  -2   4  -2 41782.0 1907.12   1
   2  -4   2 36086.1 2526.19   5
  -2   4  -2 40955.0 2151.12   4
  -2   4  -3 25569.9 1537.08   1
  -2   4  -3 23018.5 1569.64   4
  -2   4  -3 27458.0 2371.29   5
  -2   4  -4 196025. 7311.76   5
  -2   4  -4 185125. 5656.03   1
  -2   4  -5 41702.9 2208.98   4
  -2   4  -5 38231.6 1600.45   2
  -2   4  -5 40180.5 2241.88   1
  -2   4  -5 44106.6 3093.37   5
  -2   4  -6 18359.1 1482.04   4
   2  -4   6 16273.8 1684.77   4
  -2   4  -6 14434.7 830.521   2
  -2   4  -6 14679.5 1368.35   1
  -2   4  -7 26524.1 1922.88   4
  -2   4  -7 25873.4 1932.58   1
  -2   4  -8 5726.81 951.375   4
  -2   4  -9 36246.5 2577.54   4
  -2   4 -10 1673.81 586.517   4
  -2   4 -11 12416.6 1657.18   4
  -2   4 -12 153.003 383.575   4
  -2   4 -13 2936.24 953.482   4
  -2   4 -14 12134.9 1867.78   4
  -2   4 -15-357.516 651.961   4
   2  -3 -14 1703.74 1033.55   5
   2  -3 -13 4991.92 1484.82   5
   2  -3 -12 365.478 477.570   5
   2  -3 -11 1122.85 924.520   5
   2  -3 -10 7203.50 1495.24   5
   2  -3  -9 66487.9 4396.70   5
   2  -3  -8 11958.1 1645.61   5
   2  -3  -7 32151.3 2611.90   5
  -2   3   7 31608.4 1050.09   3
  -2   3   6 83.7703 102.680   3
   2  -3  -6-174.463 347.645   5
   2  -3  -5 36352.9 2568.89   5
  -2   3   5 40052.8 1532.09   3
  -2   3   5 37833.6 2036.94   4
  -2   3   4 10062.7 1228.79   5
  -2   3   4 9447.16 716.457   3
   2  -3  -4 9082.93 1184.18   5
  -2   3   4 8322.93 869.902   4
   2  -3  -3 111509. 4597.81   5
  -2   3   3 119120. 4713.54   5
   2  -3  -2 110408. 4599.95   5
  -2   3   2 118988. 4624.06   5
  -2   3   2 121884. 2936.88   1
  -2   3   1 14868.9 732.422   1
   2  -3  -1 15058.5 1459.81   5
  -2   3   1 15000.9 1443.76   5
   2  -3   0 8775.58 1159.21   5
  -2   3   0 10063.3 1198.71   5
  -2   3   0 9799.86 667.410   1
  -2   3  -1 16031.0 1533.04   5
   2  -3   1 16198.0 1648.74   5
  -2   3  -1 19401.3 1082.25   1
   2  -3   2 97.1856 243.096   5
  -2   3  -2 123.426 128.124   1
  -2   3  -3 718.051 287.553   1
  -2   3  -3 1157.47 397.071   4
   2  -3   3 1359.73 558.743   5
  -2   3  -4 3489.19 626.070   4
  -2   3  -4 4296.21 643.690   1
  -2   3  -5 2913.11 608.940   4
  -2   3  -5 3420.16 627.581   1
  -2   3  -6 53595.8 2803.82   4
   2  -3   6 55226.1 3196.79   4
  -2   3  -7 150482. 5610.87   4
  -2   3  -7 155856. 5073.57   3
  -2   3  -8 16803.4 1653.59   4
  -2   3  -9 14790.0 1644.20   4
  -2   3 -10 38526.0 2873.23   4
  -2   3 -11 83157.2 4601.42   4
  -2   3 -12 6207.17 1284.67   4
  -2   3 -13 38963.6 3293.23   4
  -2   3 -14 628.719 692.428   4
  -2   3 -15 12181.3 1956.81   4
   2  -2 -14 6910.29 1878.37   5
   2  -2 -13 11027.2 2211.13   5
   2  -2 -12 12972.3 2226.44   5
   2  -2 -11 5962.38 1506.47   5
   2  -2 -10 4774.43 1275.64   5
   2  -2  -9 433.641 569.782   5
   2  -2  -8 13599.0 1804.58   5
   2  -2  -7 1921.16 600.078   5
   2  -2  -6 14801.8 1619.83   5
  -2   2   6 15861.3 720.329   3
   2  -2  -5 43586.3 2750.33   5
  -2   2   5 43769.5 2258.96   4
   2  -2  -4 30557.6 2217.93   5
  -2   2   4 31760.1 1787.54   4
   2  -2  -3 146795. 5382.97   5
   2  -2  -2 344.290 201.637   5
   2  -2  -1 193005. 6392.42   5
   2  -2   0 2044.99 562.486   5
   2  -2   1 65026.7 2067.36   1
   2  -2   1 58096.8 3214.34   5
   2  -2   2 140492. 3949.34   1
   2  -2   2 132499. 5463.02   5
  -2   2  -3 238109. 7170.40   4
   2  -2   3 225954. 7940.97   5
   2  -2   3 232189. 6180.54   1
  -2   2  -4 87937.7 3730.46   4
   2  -2   4 88682.4 3116.14   1
  -2   2  -5 3535.32 683.817   4
   2  -2   5 3072.45 525.237   1
  -2   2  -6 40906.1 2438.69   4
   2  -2   6 36558.4 2030.79   1
  -2   2  -7 6912.20 1018.47   4
  -2   2  -8 2004.64 646.130   4
  -2   2  -9 6443.57 830.662   3
  -2   2  -9 5130.79 981.452   4
  -2   2 -10 10350.5 1460.17   4
  -2   2 -11 9486.51 1460.27   4
  -2   2 -12 37869.9 3136.02   4
  -2   2 -13 3085.62 997.085   4
  -2   2 -14-1517.93 796.995   4
  -2   2 -15 11221.9 1875.69   4
   2  -1 -14 1127.26 908.374   5
   2  -1 -13 12361.2 2377.41   5
   2  -1 -12 39818.1 4095.83   5
   2  -1 -11 20142.4 2759.43   5
   2  -1 -10 42469.2 3769.12   5
   2  -1  -9 520.000 420.989   5
   2  -1  -8 176362. 7524.54   5
   2  -1  -7 18105.8 2012.60   5
  -2   1   7 17086.7 662.487   3
   2  -1  -6 52932.5 3315.75   5
   2  -1  -5 56702.0 3181.82   5
   2  -1  -4 16623.5 1581.18   5
   2  -1  -3 3105.49 655.623   5
   2  -1  -2 2389.36 579.132   5
   2  -1  -1 24319.1 1783.42   5
   2  -1   0 2462.92 585.953   5
   2  -1   1 11908.6 1310.27   5
   2  -1   2 9449.57 1265.00   5
  -2   1  -3 69934.3 3167.77   4
   2  -1   3 67830.0 2502.08   1
  -2   1  -4 18441.7 1599.37   4
   2  -1   4 18496.6 1224.89   1
  -2   1  -5 44253.2 2487.68   4
   2  -1   5 45969.3 2123.61   1
  -2   1  -6 16923.8 1514.35   4
   2  -1   6 18590.0 1377.00   1
  -2   1  -7 132157. 5118.89   4
  -2   1  -8 58191.2 3243.06   4
  -2   1  -9 11841.8 1473.98   4
  -2   1 -10 8226.72 1298.63   4
  -2   1 -11 1891.08 678.624   4
  -2   1 -11 2761.14 585.901   3
  -2   1 -12 19691.3 2251.70   4
  -2   1 -13 814.575 718.009   4
  -2   1 -14 13629.5 2079.81   4
  -2   1 -15 1981.70 996.965   4
  -2   1 -16-1127.93 748.623   4
   2   0 -14 1128.03 935.505   5
   2   0 -13 11950.8 2505.00   5
   2   0 -12-144.735 539.757   5
   2   0 -11 9268.49 1863.10   5
   2   0 -10 5006.80 1337.40   5
   2   0  -9-118.861 534.753   5
   2   0  -8 1541.64 762.731   5
  -2   0   8 1459.19 180.228   3
   2   0  -7 45431.9 3330.97   5
  -2   0   7 48777.2 1684.97   3
  -2   0   6 58387.4 1965.52   3
   2   0  -6 51942.2 3356.40   5
   2   0  -6 52773.7 2083.78   1
   2   0  -5 2157.97 311.161   1
   2   0  -5 2683.82 686.304   5
   2   0  -4 157344. 3997.77   1
   2   0  -4 157115. 5658.56   5
   2   0  -3 14296.0 1359.80   5
   2   0  -2 14161.0 1303.13   5
   2   0  -1 178.959 224.981   5
   2   0   0 147743. 5054.27   5
   2   0   1 47922.6 2648.40   5
   2   0   2 2027.96 620.340   5
   2   0   3 4762.66 876.578   5
  -2   0  -3 4019.81 696.772   4
  -2   0  -4 50912.6 2754.70   4
  -2   0  -4 47526.9 1673.03   2
  -2   0  -5 3361.86 671.626   4
  -2   0  -5 3428.19 398.523   2
  -2   0  -6 5371.55 501.566   2
  -2   0  -6 4672.20 815.984   4
  -2   0  -7 1856.80 570.118   4
  -2   0  -8 3401.32 742.476   4
  -2   0  -9 35170.5 2602.93   4
  -2   0 -10 71272.1 4078.71   4
  -2   0 -11 12411.5 1714.48   4
  -2   0 -12 10431.3 1615.44   4
  -2   0 -13 33039.0 3128.81   4
  -2   0 -14 41719.8 3633.60   4
  -2   0 -15 6.82758 687.706   4
  -2   0 -16 10364.8 1948.54   4
   2   1 -14 28932.7 3950.41   5
   2   1 -13 11870.9 2387.23   5
   2   1 -12 6948.74 1803.08   5
   2   1 -11 7444.17 1717.44   5
   2   1 -10 6761.94 1611.01   5
   2   1  -9 37807.3 3578.69   5
  -2  -1   9 45021.1 1526.01   3
   2   1  -8 40475.0 3447.89   5
  -2  -1   8 42937.4 1685.44   3
  -2  -1   7 596.057 200.188   3
   2   1  -7 267.906 191.334   1
   2   1  -7 591.679 428.993   5
  -2  -1   6 2063.50 354.929   3
   2   1  -6 2377.08 432.954   1
   2   1  -6 1916.22 682.344   5
   2   1  -5 2833.16 703.907   5
  -2  -1   5 3286.20 451.263   3
   2   1  -4 27454.4 2030.63   5
   2   1  -3 723.440 401.076   5
   2   1  -2 15783.5 1347.46   5
   2   1  -1 272.626 237.370   5
   2   1   0 306934. 8475.86   5
  -2  -1  -1 28390.6 1631.83   5
   2   1   1 24757.3 1754.67   5
   2   1   2 129574. 5142.81   5
  -2  -1  -2 141662. 4767.46   5
  -2  -1  -3 66192.3 3048.78   4
  -2  -1  -3 77049.0 3307.15   5
   2   1   3 72398.6 3513.00   5
  -2  -1  -3 71436.2 2405.43   2
  -2  -1  -4 108923. 4256.50   4
  -2  -1  -4 108209. 4311.31   5
  -2  -1  -4 100882. 3157.41   2
  -2  -1  -5 11828.0 1220.65   4
  -2  -1  -5 10707.4 869.219   2
  -2  -1  -5 11092.4 1236.68   5
  -2  -1  -6 76951.3 3475.75   4
   2   1   6 80623.6 3621.02   4
  -2  -1  -7 192813. 6530.15   4
   2   1   7 184857. 4983.11   2
  -2  -1  -8 37703.9 2551.73   4
   2   1   8 38173.1 1591.66   2
  -2  -1  -9 3751.53 828.676   4
   2   1   9 3760.33 462.152   2
  -2  -1 -10 2064.14 785.534   4
   2   1  10 2104.80 361.705   2
   2   1  11 26752.8 1265.56   2
  -2  -1 -11 27382.8 2560.19   4
  -2  -1 -12 316.399 458.160   4
  -2  -1 -13-17.3502 394.479   4
  -2  -1 -14-335.505 458.980   4
  -2  -1 -15 1466.11 746.683   4
  -2  -1 -16 12280.0 2143.19   4
   2   2 -14 9150.32 2271.52   5
   2   2 -13 316.036 650.921   5
   2   2 -12 3471.46 1371.93   5
   2   2 -11 12505.9 2305.27   5
   2   2 -10 75958.9 5504.49   5
   2   2 -10 83708.0 3784.03   1
   2   2  -9 22174.5 1681.76   1
  -2  -2   9 22056.1 1237.29   3
   2   2  -9 19669.3 2543.58   5
  -2  -2   8 2690.53 446.945   3
   2   2  -8 3423.27 626.385   1
   2   2  -8 4375.44 1136.38   5
   2   2  -7 129414. 6300.96   5
  -2  -2   7 140319. 4403.29   3
  -2  -2   6 26609.1 1518.58   3
   2   2  -6 24569.9 2308.72   5
   2   2  -5 108611. 4896.03   5
  -2  -2   5 112994. 3720.83   3
  -2  -2   5 115572. 4132.26   4
  -2  -2   4 1223.21 315.535   3
   2   2  -4 1658.37 542.725   5
   2   2  -3 201400. 5781.31   5
  -2  -2   3 132653. 4527.80   4
   2   2  -2 5771.25 784.314   5
  -2  -2   2 5055.64 691.479   5
   2   2  -1 2211.47 465.855   5
  -2  -2   1 2687.03 470.421   5
   2   2   0 56115.3 2513.86   5
  -2  -2   0 61532.7 2443.64   5
   2   2   1 31007.8 1884.94   5
  -2  -2  -1 34685.0 1689.34   5
  -2  -2  -1 31047.3 1519.37   2
   2   2   2 32692.0 2068.54   5
  -2  -2  -2 35802.4 1795.28   5
  -2  -2  -2 30375.4 1515.84   2
  -2  -2  -3 26212.3 1663.71   4
  -2  -2  -3 24166.1 1333.93   2
  -2  -2  -3 27825.2 1672.75   5
   2   2   4 17786.9 1151.24   2
  -2  -2  -4 17156.5 1423.97   4
  -2  -2  -4 17885.5 1471.68   5
  -2  -2  -4 15985.6 1152.10   2
  -2  -2  -5 5481.27 807.712   4
   2   2   5 6497.80 933.843   4
  -2  -2  -5 6057.40 871.422   5
  -2  -2  -5 5930.60 742.007   2
   2   2   5 5181.21 623.549   2
  -2  -2  -6 39048.4 2354.88   4
   2   2   6 37883.2 2370.89   4
  -2  -2  -6 35796.9 2011.38   2
   2   2   6 38051.3 1840.64   2
  -2  -2  -7 219.899 277.768   4
   2   2   7 232.868 252.256   4
   2   2   7 95.0128 205.039   2
  -2  -2  -8 34535.5 2412.44   4
   2   2   8 33252.7 1763.79   2
  -2  -2  -9 4890.97 959.570   4
   2   2   9 4417.91 624.387   2
   2   2  10 73009.0 2878.11   2
  -2  -2 -10 71750.7 4084.02   4
   2   2  11 31446.7 1745.33   2
  -2  -2 -11 32170.6 2785.70   4
   2   2  12 18241.4 1258.10   2
  -2  -2 -12 22112.9 2375.79   4
  -2  -2 -13 5452.16 1284.13   4
  -2  -2 -14 546.313 525.502   4
  -2  -2 -15 10405.5 1865.75   4
  -2  -2 -16 3684.24 1263.64   4
   2   3 -14 810.202 852.077   5
   2   3 -13 9912.64 2278.92   5
   2   3 -12 21858.3 3163.49   5
   2   3 -11 1937.70 642.139   1
   2   3 -11 265.261 505.764   5
   2   3 -10 11056.2 1340.14   1
   2   3 -10 8406.07 1806.57   5
  -2  -3  10 10712.7 949.078   3
  -2  -3   9 251.512 258.862   3
   2   3  -9 69.5928 338.689   1
   2   3  -9-326.777 515.353   5
  -2  -3   8 1103.04 331.138   3
   2   3  -8 1695.15 512.354   1
   2   3  -8 792.463 556.753   5
   2   3  -7 13718.3 1319.20   1
   2   3  -7 13406.6 1833.39   5
  -2  -3   7 15268.0 1273.11   3
  -2  -3   6 8037.37 896.403   3
   2   3  -6 6946.92 1223.23   5
   2   3  -5 10998.9 1397.89   5
  -2  -3   5 13330.5 1131.44   3
  -2  -3   5 14062.7 1226.35   4
   2   3  -4 38381.5 2461.30   5
  -2  -3   4 38946.8 1974.61   3
   2   3  -3 88562.1 3771.79   5
  -2  -3   3 94538.4 3366.49   3
  -2  -3   2 5311.58 655.547   2
   2   3  -2 5880.64 783.734   5
  -2  -3   2 6853.22 751.056   3
   2   3  -1 100203. 3692.21   5
  -2  -3   1 107543. 3592.47   5
  -2  -3   1 110121. 3591.45   2
   2   3   0 41228.9 1962.88   5
  -2  -3   0 42410.8 1831.98   5
  -2  -3   0 40157.5 1938.06   2
   2   3   1 98969.4 3542.19   5
  -2  -3  -1 100141. 3148.70   5
  -2  -3  -1 94204.9 3300.03   2
   2   3   2 9047.15 930.266   5
  -2  -3  -2 8575.91 742.461   5
  -2  -3  -2 8191.63 797.491   2
  -2  -3  -3 100898. 3653.13   4
  -2  -3  -3 98525.8 3399.08   5
  -2  -3  -3 99235.6 3520.94   2
   2   3   3 101128. 3601.64   2
  -2  -3  -4 92469.2 3610.63   4
  -2  -3  -4 91208.3 3481.24   5
  -2  -3  -4 89778.5 3518.88   2
   2   3   4 85775.5 3352.38   2
   2   3   5 1920.24 456.523   2
  -2  -3  -5 2771.53 606.423   2
  -2  -3  -5 3371.35 611.609   4
  -2  -3  -5 3368.06 628.617   5
  -2  -3  -6 19632.9 1568.10   4
   2   3   6 18704.0 1582.43   4
  -2  -3  -6 16953.7 1484.75   2
  -2  -3  -6 17834.0 1560.30   5
  -2  -3  -7 44009.9 2564.42   4
   2   3   7 45238.6 2660.31   4
  -2  -3  -8 1389.47 513.465   4
  -2  -3  -9 873.043 387.319   4
  -2  -3 -10 19106.6 1968.69   4
  -2  -3 -11 4187.31 1010.14   4
  -2  -3 -12 10915.4 1622.37   4
  -2  -3 -13 39622.1 3289.42   4
  -2  -3 -14 4971.26 1207.88   4
  -2  -3 -15 13400.6 2028.78   4
  -2  -3 -16 20051.9 2643.21   4
   2   4 -14 1165.45 594.653   5
   2   4 -13 6854.54 1988.86   5
   2   4 -12 178.381 444.028   1
   2   4 -12 1372.04 925.252   5
   2   4 -11 44356.7 4430.65   5
   2   4 -11 64350.7 3755.33   1
   2   4 -10 7260.01 1116.61   1
   2   4 -10 5590.14 1479.82   5
  -2  -4  10 7434.76 880.289   3
  -2  -4   9 5529.35 791.989   3
   2   4  -9 5474.02 1406.29   5
   2   4  -9 6127.99 1005.78   1
   2   4  -8 23834.7 1937.24   1
   2   4  -8 22100.3 2616.17   5
  -2  -4   8 27087.7 1824.72   3
   2   4  -7 24330.0 2506.58   5
  -2  -4   7 26714.5 1873.57   3
   2   4  -6 23930.6 2303.15   5
  -2  -4   6 29144.7 1959.73   3
  -2  -4   5 799.168 293.385   3
  -2  -4   5 639.421 281.783   4
   2   4  -5 419.694 312.242   5
   2   4  -4 23492.2 1876.06   5
  -2  -4   4 25223.2 1698.51   3
  -2  -4   4 23502.2 1535.34   2
   2   4  -3 12094.7 1224.42   5
  -2  -4   3 13970.1 1191.99   3
  -2  -4   3 12608.3 1093.85   2
   2   4  -2 51368.3 2489.65   5
  -2  -4   2 55907.0 2245.04   4
  -2  -4   2 54607.1 2546.60   3
  -2  -4   2 57810.5 2528.95   2
  -2  -4   1 112.337 162.537   3
   2   4  -1 271.562 131.383   5
  -2  -4   1 364.467 255.938   2
   2   4   0 7648.60 731.075   5
  -2  -4   0 6510.20 622.083   5
  -2  -4   0 6634.06 770.323   2
  -2  -4   0 7802.36 869.607   3
  -2  -4  -1 44981.4 1722.45   5
  -2  -4  -1 45016.9 2179.59   2
   2   4   2 34859.8 1711.43   5
  -2  -4  -2 30376.3 1334.91   5
  -2  -4  -2 30481.7 1797.33   2
  -2  -4  -3 103728. 3595.18   4
  -2  -4  -3 103330. 3912.67   2
  -2  -4  -3 100060. 3142.06   5
  -2  -4  -4 2957.13 621.963   2
  -2  -4  -4 2457.31 480.688   4
  -2  -4  -4 2527.69 442.785   5
  -2  -4  -5 226765. 6661.36   4
  -2  -4  -5 214791. 7238.91   2
  -2  -4  -5 221651. 6613.81   5
  -2  -4  -6 324.577 264.888   2
  -2  -4  -6 619.964 313.913   4
  -2  -4  -6 228.252 257.765   5
   2   4   6 248.086 240.284   4
  -2  -4  -7 21016.0 1643.31   4
   2   4   7 19939.7 1647.51   4
   2   4   8 63780.9 3194.06   2
  -2  -4  -8 61866.7 3216.71   4
   2   4   9 106171. 4436.82   2
  -2  -4  -9 103180. 4597.55   4
   2   4  10 33503.8 2298.86   2
  -2  -4 -10 34364.5 2572.16   4
  -2  -4 -11 1123.77 568.085   4
   2   4  11 1233.89 492.271   2
   2   4  12 13263.9 1404.05   2
  -2  -4 -12 11418.6 1099.44   3
  -2  -4 -12 11504.8 1636.56   4
  -2  -4 -13 14198.0 1877.44   4
  -2  -4 -14 3051.09 881.307   4
  -2  -4 -15 4058.94 1100.94   4
  -2  -4 -16 985.020 627.218   4
   2   5 -13 5872.04 1291.66   1
   2   5 -13 3960.53 1484.25   5
   2   5 -12 375.195 701.841   5
   2   5 -12 5441.33 1188.43   1
   2   5 -11 2521.59 837.823   1
   2   5 -11 2651.43 1112.25   5
   2   5 -10 15741.6 1777.36   1
  -2  -5  10 14356.0 1365.92   3
   2   5 -10 13746.6 2253.53   5
  -2  -5   9 29706.0 2060.15   3
   2   5  -9 31519.6 2396.77   1
   2   5  -9 24163.4 2883.90   5
  -2  -5   8 190.242 236.376   3
   2   5  -8-428.523 626.530   5
   2   5  -7 65982.0 4235.61   5
  -2  -5   7 74703.0 3539.82   3
   2   5  -6 79813.0 4406.26   5
  -2  -5   6 91079.4 3999.85   3
   2   5  -5 70535.3 3765.36   5
  -2  -5   5 74850.1 3522.90   3
   2   5  -4 54685.3 2958.23   5
  -2  -5   4 55323.8 2861.90   3
   2   5  -3 4146.85 703.422   5
  -2  -5   3 3996.02 700.246   3
   2   5  -2 242414. 6974.07   5
  -2  -5   2 236887. 7299.52   3
  -2  -5   2 247117. 6458.80   4
   2   5  -1 24616.2 1425.72   5
  -2  -5   1 23231.4 1588.47   2
  -2  -5   1 23299.8 1665.37   3
  -2  -5   0 95362.5 3700.26   2
   2   5   0 97379.8 3101.61   5
  -2  -5   0 93120.9 3750.91   3
   2   5   1 12967.5 894.081   5
  -2  -5  -1 11703.0 1159.08   2
  -2  -5  -1 11329.9 1123.32   3
  -2  -5  -2 13859.7 1025.47   4
  -2  -5  -2 12546.0 657.066   5
  -2  -5  -2 12911.8 1232.26   2
  -2  -5  -2 12420.9 1175.27   3
  -2  -5  -3 5723.35 878.330   2
  -2  -5  -3 5223.83 641.675   4
  -2  -5  -3 5468.50 457.504   5
  -2  -5  -3 5814.48 809.310   3
  -2  -5  -4 15798.5 1155.58   4
  -2  -5  -4 14265.3 925.000   5
   2   5   4 13481.1 1493.27   2
  -2  -5  -4 14988.1 1300.30   3
  -2  -5  -5 23997.5 1514.55   4
  -2  -5  -5 23187.2 1439.42   5
   2   5   5 22594.7 1885.60   2
  -2  -5  -6 1087.38 375.769   5
  -2  -5  -6 941.593 347.846   4
   2   5   6 705.072 380.646   2
   2   5   7 9507.36 1094.79   4
  -2  -5  -7 12218.5 1267.26   5
   2   5   7 9659.57 1248.49   2
  -2  -5  -7 11968.8 1202.35   3
  -2  -5  -7 10369.2 1088.90   4
  -2  -5  -8 3384.36 710.108   4
  -2  -5  -8 3294.67 646.121   3
   2   5   8 3001.06 719.403   2
   2   5   9 18138.1 1769.41   2
  -2  -5  -9 18261.4 1529.93   3
  -2  -5  -9 19262.8 1719.58   4
  -2  -5 -10 25.4419 321.146   4
  -2  -5 -10 198.866 227.023   3
   2   5  10-145.536 448.873   2
   2   5  11 14700.8 1618.80   2
  -2  -5 -11 14141.5 1306.49   3
  -2  -5 -11 13389.2 1592.97   4
  -2  -5 -12 2634.89 765.649   4
   2   5  12 2040.71 711.673   2
   2   5  13 32744.1 2419.28   2
  -2  -5 -13 28696.6 2561.15   4
  -2  -5 -14 10030.3 1601.95   4
  -2  -5 -15 7499.60 1444.50   4
  -2  -5 -16 4779.18 1231.34   4
   2   6 -13 12813.8 1940.31   1
   2   6 -13 10571.3 2355.38   5
   2   6 -12 16005.1 2024.31   1
   2   6 -12 15889.8 2686.75   5
   2   6 -11 1375.51 714.105   5
   2   6 -11 3556.70 950.027   1
   2   6 -10 31917.7 2652.73   1
   2   6 -10 36948.2 3661.37   5
  -2  -6  10 34049.8 2344.55   3
   2   6  -9 19185.1 1957.76   1
   2   6  -9 21759.5 2627.85   5
  -2  -6   9 19198.6 1770.32   3
  -2  -6   8-450.598 474.844   3
   2   6  -8 25.3162 487.990   5
   2   6  -7 30354.7 2747.81   5
  -2  -6   7 36412.4 2507.98   3
  -2  -6   6 2413.43 684.501   3
   2   6  -6 1509.48 611.800   5
  -2  -6   5 6521.44 1044.47   3
   2   6  -5 6383.85 1038.45   5
   2   6  -4 7561.32 1030.11   5
  -2  -6   4 8747.30 1169.75   3
  -2  -6   3 4469.10 818.666   3
   2   6  -3 4269.55 713.679   5
  -2  -6   2 8978.97 1126.73   3
   2   6  -2 9932.34 947.640   5
  -2  -6   2 8687.23 747.175   4
   2   6  -1 79127.8 2779.87   5
  -2  -6   1 74122.1 3461.07   3
  -2  -6   1 71174.1 2455.59   4
   2   6   0 50107.9 1822.79   5
  -2  -6   0 49010.7 2732.29   3
  -2  -6  -1 2092.80 562.135   3
   2   6   1 3514.11 782.417   2
  -2  -6  -2 56895.8 2144.03   4
  -2  -6  -2 54489.6 2838.83   3
   2   6   2 53365.5 3187.83   2
  -2  -6  -3 16928.3 1063.54   4
   2   6   3 15523.4 1662.99   2
  -2  -6  -3 17816.3 1543.76   3
  -2  -6  -4 36745.5 1708.34   4
  -2  -6  -4 34782.0 1227.89   5
   2   6   4 34183.8 2648.71   2
  -2  -6  -4 36598.9 2276.37   3
  -2  -6  -5 11973.6 968.108   4
  -2  -6  -5 11634.3 835.893   5
   2   6   5 10464.3 1420.85   2
  -2  -6  -5 12129.2 1270.27   3
  -2  -6  -6 45777.7 2239.89   5
   2   6   6 41583.0 2837.65   2
  -2  -6  -6 45776.3 2596.69   3
  -2  -6  -6 45137.2 2188.56   4
  -2  -6  -7 21546.1 1631.27   5
   2   6   7 22200.1 2046.06   2
  -2  -6  -7 21580.3 1748.91   3
  -2  -6  -7 21856.6 1564.25   4
  -2  -6  -8 393.109 305.951   4
  -2  -6  -8 739.733 380.916   3
   2   6   8 631.008 361.729   2
  -2  -6  -9 787.953 386.936   4
  -2  -6  -9 899.750 401.373   3
   2   6   9 1158.93 550.997   2
   2   6  10 20904.0 2034.83   2
  -2  -6 -10 24726.8 1868.79   3
  -2  -6 -10 22208.7 1874.44   4
  -2  -6 -11-79.2387 277.353   3
  -2  -6 -11 8.71742 324.440   4
   2   6  11 441.079 471.622   2
  -2  -6 -12-375.267 406.557   4
   2   6  12-603.515 527.319   2
   2   6  13 10998.1 1491.48   2
  -2  -6 -13 10857.4 1529.55   4
  -2  -6 -14 999.438 620.517   4
  -2  -6 -15 5979.14 1222.58   4
   2   7 -13-1813.99 1032.12   5
   2   7 -13 2080.18 860.583   1
   2   7 -12 2267.05 952.521   1
   2   7 -12 3002.26 1250.11   5
   2   7 -11 751.364 600.134   1
   2   7 -11-585.884 638.104   5
   2   7 -10 13307.2 1778.98   1
  -2  -7  10 14483.5 1603.46   3
   2   7 -10 18144.3 2494.14   5
  -2  -7   9-614.227 425.955   3
   2   7  -9-398.816 467.648   1
   2   7  -9-6.25017 350.005   5
   2   7  -8 42373.9 3445.05   5
  -2  -7   8 45327.8 3033.79   3
   2   7  -7 14727.8 1887.07   5
  -2  -7   7 16025.2 1741.06   3
   2   7  -6 18010.3 1888.27   5
  -2  -7   6 21487.8 2025.74   3
  -2  -7   5 1500.64 575.067   3
   2   7  -5 1032.03 464.718   5
  -2  -7   4 5094.57 966.913   3
   2   7  -4 4828.78 811.983   5
   2   7  -3 47111.6 2393.70   5
  -2  -7   3 41447.7 2769.03   3
  -2  -7   3 41191.1 1922.10   4
   2   7  -2 21061.4 1377.49   5
  -2  -7   2 18659.8 1769.82   3
  -2  -7   2 18625.9 1112.33   4
  -2  -7   1 3987.93 796.433   3
   2   7  -1 3777.37 457.723   5
  -2  -7   1 3892.25 438.930   4
  -2  -7   0 293.570 138.500   4
  -2  -7   0 44.0503 316.336   3
  -2  -7  -1 5857.31 550.236   4
  -2  -7  -1 6033.46 958.103   3
   2   7   1 6957.63 1201.10   2
  -2  -7  -2 29240.9 1257.30   4
  -2  -7  -2 28776.3 2160.57   3
   2   7   2 29402.2 2475.65   2
  -2  -7  -3 18269.4 991.841   4
   2   7   3 16531.4 1801.12   2
  -2  -7  -3 19151.9 1738.44   3
  -2  -7  -4 332.770 255.813   3
  -2  -7  -4 488.611 195.272   4
   2   7   4 620.239 475.580   2
  -2  -7  -5 1718.82 581.938   3
  -2  -7  -5 966.019 288.421   4
  -2  -7  -5 763.244 130.275   5
   2   7   5 1310.62 562.327   2
  -2  -7  -5 891.739 135.160   5
  -2  -7  -6 176426. 4869.09   5
   2   7   6 169562. 6786.58   2
  -2  -7  -6 171650. 6280.76   3
  -2  -7  -6 171198. 5206.84   4
   2   7   7 8441.61 1302.96   2
  -2  -7  -7 8918.01 1212.56   3
  -2  -7  -7 8115.28 910.287   4
   2   7   8 47299.4 3186.64   2
  -2  -7  -8 46141.8 2839.44   3
  -2  -7  -8 43954.9 2395.88   4
  -2  -7  -9 2471.43 638.816   3
  -2  -7  -9 3219.60 656.082   4
   2   7  10 77961.0 4280.02   2
  -2  -7 -10 78708.2 3846.05   3
  -2  -7 -10 76876.6 3678.36   4
  -2  -7 -11 903.222 394.592   3
  -2  -7 -11 1459.71 508.678   4
   2   7  11 2144.43 715.044   2
   2   7  12 23435.5 2265.55   2
  -2  -7 -12 21054.3 1988.44   4
   2   7  13 45960.5 3250.87   2
  -2  -7 -13 43363.8 3041.77   4
  -2  -7 -14 18163.6 2003.22   4
  -2  -7 -15 886.607 645.352   4
   2   8 -12 637.589 570.491   1
   2   8 -12 698.765 679.983   5
   2   8 -11-383.468 775.170   1
   2   8 -11-1966.36 967.474   5
   2   8 -10 467.432 440.683   1
   2   8 -10 85.7671 584.450   5
  -2  -8  10 119.715 496.597   3
   2   8  -9-280.910 415.443   1
  -2  -8   9-248.606 550.462   3
   2   8  -9 543.347 560.496   5
  -2  -8   8 9889.34 1453.97   3
   2   8  -8 7692.34 1409.55   5
  -2  -8   7-44.4925 311.416   3
   2   8  -7 100.691 292.195   5
  -2  -8   6 7907.73 1269.19   3
   2   8  -6 8804.98 1296.00   5
   2   8  -5 9429.70 1201.22   5
  -2  -8   5 10091.5 1443.01   3
   2   8  -4 110759. 4395.86   5
  -2  -8   4 113035. 5229.16   3
   2   8  -3 22870.0 1552.14   5
  -2  -8   3 22641.0 2164.68   3
  -2  -8   3 21907.6 1332.88   4
   2   8  -2 30641.8 1587.48   5
  -2  -8   2 30550.8 2483.50   3
  -2  -8   2 30601.4 1466.19   4
   2   8  -1 56998.6 3677.12   2
   2   8  -1 58918.5 1821.28   5
  -2  -8   1 62631.0 3579.43   3
  -2  -8   1 57975.6 2008.04   4
  -2  -8   0 48412.9 3071.74   3
  -2  -8   0 43550.4 1484.53   4
   2   8   0 46762.7 3285.57   2
  -2  -8  -1 105410. 2662.60   4
  -2  -8  -1 110633. 4874.69   3
  -2  -8  -1 96445.1 2569.15   4
   2   8   1 111421. 5250.86   2
  -2  -8  -2 716.208 116.051   4
  -2  -8  -2 799.655 460.946   3
  -2  -8  -2 753.120 133.955   4
  -2  -8  -3 99085.7 4658.60   3
   2   8   3 109107. 5132.16   2
  -2  -8  -3 97038.2 2693.09   4
  -2  -8  -4 72.0396 333.722   3
  -2  -8  -4 24.6890 146.469   4
   2   8   4-175.976 328.928   2
   2   8   5 12892.3 1650.46   2
  -2  -8  -5 12489.5 1525.42   3
  -2  -8  -5 11443.1 841.048   4
  -2  -8  -6 6481.38 1105.64   3
   2   8   6 6573.47 1184.15   2
  -2  -8  -6 6105.65 666.201   4
   2   8   7 11882.0 1635.18   2
  -2  -8  -7 12873.8 1572.51   3
  -2  -8  -7 11984.2 1053.85   4
  -2  -8  -8 5356.79 1015.88   3
   2   8   8 6225.98 1192.49   2
  -2  -8  -8 6257.81 816.694   4
  -2  -8  -9 383.074 334.901   3
  -2  -8  -9 704.425 412.004   4
   2   8   9 597.444 447.444   2
  -2  -8 -10 3661.61 838.078   3
  -2  -8 -10 3880.08 772.543   4
   2   8  10 3314.72 944.212   2
  -2  -8 -11-263.994 366.105   4
   2   8  11 445.641 496.419   2
   2   8  12 7983.17 1352.64   2
   2   8  13 280.128 500.217   2
   2   9 -11 35895.2 3327.30   1
   2   9 -11 41967.1 3890.14   5
   2   9 -10 12025.6 1782.64   1
  -2  -9  10 14657.4 1848.20   3
   2   9 -10 14357.3 2130.78   5
   2   9  -9 31071.4 2924.99   5
  -2  -9   9 30423.1 2686.55   3
  -2  -9   8 306.997 382.642   3
   2   9  -8 369.511 421.380   5
   2   9  -7 31406.4 2569.93   5
  -2  -9   7 33367.0 2825.73   3
   2   9  -6 34762.3 2522.63   5
  -2  -9   6 38690.5 3017.95   3
  -2  -9   5 2961.18 879.945   3
   2   9  -5 3063.31 688.344   5
  -2  -9   4 7355.17 1304.05   3
   2   9  -4 6120.41 834.939   5
  -2  -9   3-175.928 446.829   3
   2   9  -3 484.705 190.889   5
  -2  -9   2 237.818 439.532   3
   2   9  -2 191.343 137.072   5
   2   9  -1 15512.9 2002.83   2
  -2  -9   1 18404.4 1986.52   3
  -2  -9   0 682.604 497.400   3
   2   9   0 435.401 382.093   2
  -2  -9  -1 5226.41 1077.07   3
   2   9   1 4398.54 1011.17   2
  -2  -9  -2 28105.4 2482.47   3
   2   9   2 28703.1 2677.79   2
  -2  -9  -3 34448.1 2810.34   3
   2   9   3 40037.1 3112.69   2
   2   9   4-238.348 432.580   2
  -2  -9  -4 249.230 324.168   3
  -2  -9  -5 19201.1 2050.83   3
   2   9   5 18225.3 2124.87   2
  -2  -9  -6 5870.04 1131.64   3
   2   9   6 4532.78 1076.57   2
  -2  -9  -7 48239.1 3359.17   3
   2   9   7 48374.2 3509.15   2
  -2  -9  -8 5332.83 1091.96   3
   2   9   8 5663.36 1185.08   2
   2   9   9 10822.1 1636.70   2
  -2  -9  -9 12028.6 1613.21   3
  -2  -9 -10 4134.36 935.058   3
   2   9  10 4317.73 1056.48   2
   2   9  11 2074.52 809.070   2
   2   9  12 898.026 612.189   2
   2   9  13 12464.0 1787.14   2
  -2 -10  10-460.557 460.953   3
  -2 -10   9 3653.65 1041.86   3
  -2 -10   8-534.914 518.698   3
  -2 -10   7 5703.72 1229.95   3
  -2 -10   6 4504.29 1091.09   3
  -2 -10   5 63467.9 4121.61   3
  -2 -10   4 10625.3 1650.41   3
  -2 -10   3 4038.53 1008.96   3
  -2 -10   2 7522.65 1379.93   3
   2  10  -1 12916.1 1952.32   2
  -2 -10   1 16529.1 1999.14   3
  -2 -10   0 17346.0 2062.65   3
   2  10   0 16056.9 2141.83   2
  -2 -10  -1 160.046 322.164   3
   2  10   1 1045.31 609.934   2
  -2 -10  -2 11232.3 1666.98   3
   2  10   2 12711.5 1799.55   2
  -2 -10  -3 9479.37 1552.70   3
   2  10   3 11241.2 1704.61   2
  -2 -10  -4 10099.7 1642.59   3
   2  10   4 11124.5 1708.46   2
  -2 -10  -5 1761.77 771.680   3
   2  10   5 1147.40 665.368   2
  -2 -10  -6 927.142 654.156   3
   2  10   6 220.864 537.271   2
  -2 -10  -7 5492.08 1184.57   3
   2  10   7 3782.40 1049.96   2
  -2 -10  -8 16590.3 2093.72   3
   2  10   8 17944.4 2158.34   2
  -2 -10  -9 25330.2 2482.41   3
   2  10   9 24627.5 2625.85   2
  -2 -10 -10 1322.24 603.829   3
   2  10  10 2236.07 842.296   2
   2  10  11 45239.1 3568.32   2
   2  10  12 2802.39 940.587   2
  -2 -11   9 3245.21 1019.68   3
  -2 -11   8 1089.61 526.957   3
  -2 -11   7 7151.73 1424.85   3
  -2 -11   6 3211.63 1026.12   3
  -2 -11   5 202.096 693.393   3
  -2 -11   4 21.2477 423.708   3
  -2 -11   3 15225.3 2032.35   3
  -2 -11   2 884.122 701.766   3
   2  11  -1 52661.7 3944.73   2
  -2 -11   1 48257.0 3634.76   3
  -2 -11   0 27148.1 2691.32   3
   2  11   0 29370.4 2908.04   2
  -2 -11  -1 35008.6 3097.24   3
   2  11   1 39431.6 3440.67   2
  -2 -11  -2 15183.9 2038.98   3
   2  11   2 16021.2 2179.92   2
  -2 -11  -3 18812.8 2295.66   3
   2  11   3 24753.9 2672.05   2
  -2 -11  -4 43533.1 3574.11   3
   2  11   4 52442.8 3937.35   2
  -2 -11  -5 7899.69 1454.45   3
   2  11   5 7085.02 1417.78   2
  -2 -11  -6 53008.3 3911.48   3
   2  11   6 48195.0 3706.44   2
  -2 -11  -7 19.2146 300.826   3
   2  11   7-632.797 714.471   2
  -2 -11  -8 9854.60 1648.15   3
   2  11   8 9255.76 1580.88   2
  -2 -11  -9 236.163 528.657   3
   2  11   9 653.154 568.142   2
   2  11  10 7716.89 1443.76   2
  -2 -12   6 10977.0 1815.33   3
  -2 -12   5 427.177 633.316   3
  -2 -12   4 54873.3 4064.24   3
  -2 -12   3 8354.69 1549.20   3
  -2 -12   2 374.354 568.811   3
   2  12  -1 7318.81 1598.77   2
  -2 -12   1 6453.11 1417.34   3
  -2 -12   0 3697.01 1147.55   3
   2  12   0 5929.30 1285.58   2
  -2 -12  -1 106.404 397.972   3
   2  12   1 339.318 646.887   2
  -2 -12  -2 3144.62 1016.83   3
   2  12   2 5135.79 1295.96   2
  -2 -12  -3 848.235 677.815   3
   2  12   3 156.323 535.636   2
  -2 -12  -4 440.761 541.365   3
   2  12   4 730.432 639.864   2
  -2 -12  -5 20120.3 2500.54   3
   2  12   5 22693.3 2574.63   2
  -2 -12  -6 11928.4 1916.93   3
   2  12   6 14182.7 2042.42   2
  -2 -12  -7-196.329 491.893   3
   2  12   7-1778.98 815.774   2
  -2 -12  -8 8487.88 1552.84   3
  -2 -12  -9 4031.89 1090.84   3
  -2 -13   1 16573.4 2272.62   3
   2  13   0 13890.2 2120.49   2
  -2 -13   0 13713.4 2078.05   3
  -2 -13  -1-107.007 475.763   3
   2  13   1-1379.20 786.787   2
  -2 -13  -2 3115.26 1073.88   3
   2  13   2 3178.22 1043.97   2
  -2 -13  -3 19986.1 2515.54   3
   2  13   3 26222.9 2784.80   2
  -2 -13  -4 4223.66 1257.21   3
  -2 -13  -5 1884.14 905.492   3
  -2 -13  -6-121.943 684.119   3
  -2 -13  -7-1804.38 893.034   3
  -3  13   0 5575.56 1110.82   2
  -3  13  -1 796.334 550.053   2
  -3  13  -2 14.8959 370.921   2
  -3  13  -2-733.806 477.536   1
  -3  13  -3-112.356 315.216   2
  -3  13  -3-781.442 486.630   1
  -3  13  -4 487.047 482.305   1
  -3  12   3-141.291 363.409   2
  -3  12   2 3002.50 959.809   2
  -3  12   1 8054.49 1329.16   2
  -3  12   0 1681.56 573.116   2
  -3  12   0 1007.86 461.794   1
  -3  12  -1 15454.5 1657.32   1
  -3  12  -1 25617.9 2274.10   2
  -3  12  -2 53.3776 256.679   2
  -3  12  -2-93.3932 261.484   1
  -3  12  -3 1576.97 576.904   2
  -3  12  -3 1404.52 562.778   1
  -3  12  -4 520.183 339.836   2
  -3  12  -4 280.759 359.251   1
  -3  12  -5 8983.54 1404.36   1
  -3  12  -6 1236.89 643.213   1
  -3  11   6 4830.41 1275.48   2
  -3  11   5 960.336 673.691   2
  -3  11   4 106.532 440.768   2
  -3  11   3 2054.52 805.314   2
  -3  11   2 277.258 542.310   2
  -3  11   1 348.265 372.609   1
  -3  11   1 360.602 430.480   2
  -3  11   0 8477.28 1133.56   1
  -3  11   0 8951.27 1446.18   2
  -3  11  -1 7365.48 1194.88   2
  -3  11  -1 6951.10 1074.40   1
  -3  11  -2 745.860 533.472   2
  -3  11  -2 564.568 366.034   1
  -3  11  -3 12755.3 1500.15   2
  -3  11  -3 7971.84 1222.55   1
  -3  11  -4 443.017 429.589   2
  -3  11  -4 208.742 390.199   1
  -3  11  -5 33955.5 2826.06   1
  -3  11  -5 43808.1 2754.80   2
  -3  11  -6-389.377 581.059   1
  -3  11  -7 23474.8 2494.42   1
  -3  11  -8 6895.56 1404.69   1
  -3  10   8 3381.30 1053.80   2
  -3  10   7 9816.48 1745.56   2
  -3  10   6 9732.80 1814.91   2
   3 -10  -6 10580.3 1636.44   5
   3 -10  -5 54979.3 3750.97   5
  -3  10   5 51158.3 3862.93   2
   3 -10  -4 10519.0 1542.57   5
  -3  10   4 15015.1 1832.44   2
  -3  10   3 3767.23 927.919   2
   3 -10  -3 2542.56 787.219   5
  -3  10   2 42658.4 2325.64   1
  -3  10   2 48048.1 3191.87   2
   3 -10  -2 46388.3 3186.73   5
  -3  10   1 4190.87 899.789   2
  -3  10   1 3174.39 636.349   1
   3 -10  -1 2907.48 736.082   5
   3 -10   0 16975.6 1844.90   5
  -3  10   0 15030.9 1438.80   1
  -3  10   0 17948.1 1816.59   2
  -3  10  -1-399.923 366.020   2
  -3  10  -1 290.448 295.414   1
  -3  10  -2 37613.6 2531.51   1
  -3  10  -2 45487.7 2901.31   2
  -3  10  -3 483.630 417.815   2
  -3  10  -3 163.791 335.583   1
  -3  10  -4 2000.31 571.860   2
  -3  10  -4 1083.07 500.450   1
  -3  10  -5 996.942 495.655   1
  -3  10  -5 2473.87 610.347   2
  -3  10  -6 2711.25 814.200   1
  -3  10  -6 3566.02 743.146   2
  -3  10  -7 2153.08 813.108   1
  -3  10  -8 1226.52 673.946   1
  -3  10  -9 2893.97 1037.04   1
  -3  10 -10-321.070 637.844   1
   3  -9 -10 9441.63 1775.29   5
   3  -9  -9 3456.14 1087.01   5
   3  -9  -8 7499.69 1425.80   5
   3  -9  -7 1091.38 554.464   5
   3  -9  -6 3433.50 951.240   5
   3  -9  -5 9262.23 1495.66   5
   3  -9  -4 989.380 487.068   5
  -3   9   3 7531.02 823.333   1
   3  -9  -3 10235.0 1511.28   5
  -3   9   2 15788.1 1268.97   1
   3  -9  -2 17941.4 2012.43   5
  -3   9   1 1143.29 377.042   1
   3  -9  -1 691.661 495.841   5
  -3   9   0 1885.17 627.063   2
  -3   9   0 1401.11 440.477   1
  -3   9   0 845.127 296.341   4
   3  -9   0 440.600 337.543   5
  -3   9  -1 10660.9 994.973   4
  -3   9  -1 9542.10 1136.24   1
  -3   9  -1 9439.69 1316.89   2
   3  -9   1 10291.4 1456.50   5
  -3   9  -2 17035.8 1301.77   4
  -3   9  -2 14945.9 1484.39   1
  -3   9  -2 16116.9 1654.16   2
  -3   9  -3 1302.63 475.304   2
  -3   9  -3 1182.10 363.479   4
  -3   9  -3 864.763 432.711   1
  -3   9  -4 37957.7 2104.17   4
  -3   9  -4 40281.7 2502.93   2
  -3   9  -4 36151.0 2583.54   1
  -3   9  -5 1228.88 608.586   1
  -3   9  -5 1301.85 433.711   2
  -3   9  -5 1834.53 490.755   4
  -3   9  -6 8109.95 1008.66   4
  -3   9  -6 8526.48 1363.46   1
  -3   9  -6 8367.18 1032.82   2
  -3   9  -7 3365.65 709.218   4
  -3   9  -7 2664.12 872.205   1
  -3   9  -8 12192.6 1758.82   1
  -3   9  -8 11585.5 1342.98   4
  -3   9  -9 10212.3 1710.84   1
  -3   9  -9 10418.2 1331.70   4
  -3   9 -10 893.979 447.891   4
  -3   9 -10-588.978 550.142   1
  -3   9 -11 1467.51 725.449   4
  -3   9 -12 1247.11 523.497   4
   3  -8 -11 4171.17 1268.97   5
   3  -8 -10 7843.08 1549.18   5
   3  -8  -9 7313.17 1510.99   5
   3  -8  -8 6655.07 1355.91   5
   3  -8  -7 802.636 553.454   5
   3  -8  -6 26586.3 2604.05   5
   3  -8  -5 14727.0 1854.44   5
  -3   8   4 3112.47 441.469   1
   3  -8  -4 4485.59 998.644   5
  -3   8   3 3686.56 518.359   1
   3  -8  -3 4115.75 999.544   5
  -3   8   2 510.367 266.324   1
   3  -8  -2 123.482 272.056   5
  -3   8   1 2600.38 532.134   1
   3  -8  -1 2443.49 789.703   5
  -3   8   0 4746.35 713.138   1
   3  -8   0 4644.67 1035.30   5
  -3   8  -1 581.563 323.503   1
  -3   8  -1 222.376 212.182   4
   3  -8   1 232.608 351.126   5
  -3   8  -2 926.386 407.961   2
  -3   8  -2 1034.69 353.930   4
   3  -8   2 1210.34 594.535   5
  -3   8  -2 505.499 380.343   1
  -3   8  -3 30199.6 1876.99   4
  -3   8  -3 29093.8 2153.31   1
  -3   8  -3 28120.4 2094.30   2
  -3   8  -4 7908.74 957.294   4
  -3   8  -4 9760.31 1275.88   1
  -3   8  -4 7527.42 1012.40   2
  -3   8  -5 2172.49 544.988   2
  -3   8  -5 2694.21 575.713   4
  -3   8  -5 2434.32 739.007   1
  -3   8  -6 17547.8 1524.41   4
  -3   8  -6 18220.8 1433.59   2
  -3   8  -6 16911.4 1894.93   1
  -3   8  -7 5359.68 1149.08   1
  -3   8  -7 5279.97 866.995   4
  -3   8  -7 6254.07 835.933   2
  -3   8  -8 37529.7 3048.26   1
  -3   8  -8 39350.6 2518.20   4
  -3   8  -9 490.594 561.751   1
  -3   8  -9 197.794 296.315   4
  -3   8 -10 66937.5 3740.34   4
  -3   8 -11 2299.76 765.756   4
  -3   8 -12 10158.9 1496.33   4
  -3   8 -13 5862.57 1228.42   4
   3  -7 -12-1124.72 823.587   5
   3  -7 -11 682.126 692.613   5
   3  -7 -10 118.632 467.810   5
   3  -7  -9 436.944 494.010   5
   3  -7  -8 8792.99 1623.15   5
   3  -7  -7 7105.27 1376.92   5
   3  -7  -6 10620.8 1652.14   5
   3  -7  -5 18843.3 2124.53   5
  -3   7   4 45406.8 1694.29   1
   3  -7  -4 49882.9 3389.71   5
   3  -7  -3 937.596 440.662   5
  -3   7   3 1634.57 306.651   1
  -3   7   2 53481.9 2203.68   1
   3  -7  -2 49739.6 3387.20   5
  -3   7   1 61306.8 2540.05   1
   3  -7  -1 59080.0 3741.19   5
  -3   7   0 69073.8 2897.68   1
   3  -7   0 69034.6 4112.10   5
   3  -7   1 28427.9 2559.41   5
  -3   7  -1 33575.2 1983.88   1
  -3   7  -2 1076.36 341.262   4
   3  -7   2 1000.88 508.659   5
  -3   7  -2 422.200 312.685   1
  -3   7  -3 85298.4 3595.85   4
  -3   7  -3 89889.9 3842.68   1
  -3   7  -4 9214.47 1072.05   4
  -3   7  -4 10123.0 1106.23   2
  -3   7  -4 10962.0 1268.87   1
  -3   7  -5 34877.3 2150.83   4
  -3   7  -5 31220.6 1944.28   2
  -3   7  -5 31863.2 2350.44   1
  -3   7  -6 9306.19 1111.45   4
  -3   7  -6 8129.74 880.149   2
  -3   7  -6 8071.38 1228.43   1
  -3   7  -7 3471.60 715.257   4
  -3   7  -7 4354.81 652.064   2
  -3   7  -7 2781.39 792.823   1
  -3   7  -8 1493.72 588.804   4
  -3   7  -8 1881.47 703.238   1
  -3   7  -9 552.222 359.761   4
  -3   7 -10 3544.30 830.893   4
  -3   7 -11 1312.90 553.542   4
  -3   7 -12 14663.6 1844.78   4
  -3   7 -13 570.369 674.611   4
  -3   7 -14 9526.81 1587.33   4
   3  -6 -12 496.161 631.736   5
   3  -6 -11 14555.4 2456.61   5
   3  -6 -10 2011.40 964.774   5
   3  -6  -9 45144.8 3772.67   5
   3  -6  -8 27722.0 2802.54   5
   3  -6  -7 22178.0 2472.93   5
   3  -6  -6 2852.77 853.503   5
   3  -6  -5 17505.9 2046.47   5
   3  -6  -4 3541.31 946.218   5
  -3   6   3 2475.60 323.612   1
   3  -6  -3 3065.70 857.805   5
   3  -6  -2 10901.2 1519.83   5
  -3   6   2 11926.0 835.758   1
   3  -6  -1 2732.77 770.490   5
  -3   6   1 2602.21 436.617   1
   3  -6   0 13532.5 1740.59   5
  -3   6   0 12741.1 1035.76   1
  -3   6  -1 20899.1 1426.49   1
   3  -6   1 17541.0 2063.38   5
  -3   6  -2 5281.33 847.752   4
   3  -6   2 3736.61 928.333   5
  -3   6  -2 5875.05 788.293   1
  -3   6  -3 2250.90 536.320   4
   3  -6   3 1873.71 700.131   5
  -3   6  -3 2001.25 538.247   1
  -3   6  -4 43834.6 2506.22   4
  -3   6  -4 44786.8 2524.68   1
  -3   6  -5 26168.0 1899.29   4
  -3   6  -5 27297.6 1667.53   2
  -3   6  -5 28499.6 2072.22   1
  -3   6  -6 469.630 449.262   1
  -3   6  -6 307.753 176.976   2
  -3   6  -6 227.473 288.177   4
  -3   6  -7 55487.5 3014.66   4
  -3   6  -7 63189.3 2439.10   2
  -3   6  -7 53507.2 3252.03   1
  -3   6  -8-280.739 253.430   4
  -3   6  -8 338.494 127.599   2
  -3   6  -9 7159.31 1103.60   4
  -3   6 -10 2664.02 752.609   4
  -3   6 -11 24161.1 2263.84   4
  -3   6 -12 4534.15 1043.32   4
  -3   6 -13 1210.14 584.426   4
  -3   6 -14 1227.77 707.364   4
   3  -5 -13 1918.76 1182.68   5
   3  -5 -12 8069.19 1951.49   5
   3  -5 -11 2960.65 1087.86   5
   3  -5 -10 1974.17 1001.00   5
   3  -5  -9 6051.00 1393.02   5
   3  -5  -8 2887.68 944.086   5
   3  -5  -7 32373.5 2912.39   5
   3  -5  -6 1638.44 647.733   5
   3  -5  -5 15183.9 1882.68   5
   3  -5  -4 10207.7 1511.51   5
  -3   5   4 12539.5 1129.81   3
   3  -5  -3 77022.7 4402.41   5
  -3   5   3 94587.8 3606.44   3
   3  -5  -2 21393.3 2167.25   5
   3  -5  -1 11875.5 1609.45   5
  -3   5   1 12685.3 887.664   1
  -3   5   0 24218.9 1380.83   1
   3  -5   0 20227.1 2147.94   5
  -3   5  -1 2116.94 428.978   1
   3  -5   1 2452.70 813.538   5
   3  -5   2 8153.66 1389.85   5
  -3   5  -2 6696.55 835.244   1
  -3   5  -3 1384.77 467.234   4
   3  -5   3 1315.81 577.634   5
  -3   5  -3 1535.17 416.794   1
  -3   5  -4 605.768 355.637   4
  -3   5  -4 584.835 335.390   1
  -3   5  -5-38.1957 290.441   1
  -3   5  -5-60.6506 188.316   4
  -3   5  -6 21420.7 1781.62   4
  -3   5  -6 25444.2 1377.17   2
  -3   5  -7 16144.6 1561.08   4
  -3   5  -7 17088.3 996.199   2
  -3   5  -8 14671.7 1516.42   4
  -3   5  -9 7998.81 1178.49   4
  -3   5 -10 654.676 478.515   4
  -3   5 -11 57992.0 3630.22   4
  -3   5 -12 1085.73 590.778   4
  -3   5 -13 35683.4 3022.46   4
  -3   5 -14 2481.00 896.106   4
   3  -4 -13 3282.82 1059.89   5
   3  -4 -12 20002.8 2958.31   5
   3  -4 -11-402.416 816.754   5
   3  -4 -10-68.2389 543.900   5
   3  -4  -9 6794.87 1477.30   5
   3  -4  -8 16353.5 2167.84   5
   3  -4  -7 3393.26 981.106   5
  -3   4   6 4093.53 524.051   3
   3  -4  -6 3264.25 894.938   5
   3  -4  -5 506.300 429.399   5
  -3   4   5 659.856 280.626   3
   3  -4  -4 5027.89 1071.81   5
   3  -4  -3 100407. 5005.49   5
   3  -4  -2 478.830 415.495   5
   3  -4  -1 19098.0 2010.47   5
   3  -4   0 32667.2 2729.86   5
   3  -4   1 221945. 8492.10   5
   3  -4   2 34356.2 2894.06   5
  -3   4  -3 27686.8 1995.53   4
   3  -4   3 26128.1 2459.49   5
  -3   4  -4 80381.4 3690.39   4
   3  -4   4 69378.2 4223.93   5
  -3   4  -5 18953.0 1707.61   4
  -3   4  -6 38558.2 2488.85   4
  -3   4  -7 288.993 123.271   2
  -3   4  -7 202.053 336.924   4
  -3   4  -8 98935.9 4452.31   4
  -3   4  -9 734.771 539.964   4
  -3   4 -10 1432.30 574.193   4
  -3   4 -11 180.490 394.185   4
  -3   4 -12 2346.71 801.498   4
  -3   4 -13 1135.78 732.519   4
  -3   4 -14 1245.39 737.355   4
  -3   4 -15 1438.87 819.733   4
   3  -3 -13 19843.8 3218.95   5
   3  -3 -12 8216.49 1940.79   5
   3  -3 -11 2098.85 1010.18   5
   3  -3 -10 66787.1 5020.21   5
   3  -3  -9 10579.7 1861.55   5
   3  -3  -8 24098.6 2610.97   5
  -3   3   7 5868.78 545.898   3
   3  -3  -7 5934.10 1256.46   5
   3  -3  -6 113154. 5612.89   5
   3  -3  -5 54057.5 3575.60   5
   3  -3  -4 42031.1 3059.53   5
   3  -3  -3 5857.14 1098.18   5
   3  -3  -2 64168.4 3806.63   5
   3  -3  -1 3818.41 918.760   5
  -3   3   1 4228.66 914.649   5
   3  -3   0 6792.43 1203.02   5
  -3   3   0 6310.22 1127.37   5
   3  -3   1 14002.2 1781.36   5
   3  -3   2 8657.60 770.987   1
   3  -3   2 7710.95 1361.41   5
   3  -3   3 23039.0 1426.72   1
   3  -3   3 18900.0 2125.02   5
  -3   3  -4 69868.5 3435.63   4
   3  -3   4 74999.7 3024.88   1
   3  -3   4 74144.8 4345.75   5
  -3   3  -5 774.449 414.770   4
  -3   3  -6 1445.71 541.933   4
  -3   3  -7 52034.8 3019.20   4
  -3   3  -7 39783.0 1238.74   2
  -3   3  -8 53377.4 3225.98   4
  -3   3  -9 5874.81 1077.68   4
  -3   3 -10 28481.8 2480.72   4
  -3   3 -11 3638.76 963.400   4
  -3   3 -12 25777.9 2616.31   4
  -3   3 -13 6272.83 1345.39   4
  -3   3 -14 14964.7 2193.28   4
  -3   3 -15 6689.80 1564.23   4
   3  -2 -13 11950.8 2461.54   5
   3  -2 -12-1115.08 844.605   5
   3  -2 -11 2272.91 1023.72   5
   3  -2 -10 1054.47 795.405   5
   3  -2  -9 5756.36 1429.42   5
   3  -2  -8-137.812 333.939   5
   3  -2  -7 36.5568 422.220   5
   3  -2  -6 23400.4 2358.91   5
   3  -2  -5 8510.42 1362.64   5
   3  -2  -4 26558.9 2385.42   5
   3  -2  -3 763.219 461.708   5
   3  -2  -2 24936.3 2226.49   5
   3  -2  -1 6447.91 435.990   1
   3  -2  -1 6131.76 1117.19   5
   3  -2   0 120719. 5494.38   5
   3  -2   0 117761. 3325.82   1
   3  -2   1 60929.3 3831.07   5
   3  -2   1 65726.6 2343.43   1
   3  -2   2 27982.4 2654.99   5
   3  -2   2 32657.4 1626.44   1
   3  -2   3 12762.2 1752.43   5
   3  -2   3 17578.8 1247.05   1
   3  -2   4 3429.81 571.332   1
  -3   2  -4 2235.61 570.512   4
   3  -2   4 3685.53 989.670   5
   3  -2   5 4210.55 675.809   1
  -3   2  -5 3620.12 803.976   4
  -3   2  -6 783.190 475.299   4
  -3   2  -7 6798.73 1141.15   4
  -3   2  -7 4195.72 341.107   2
  -3   2  -8 190.377 404.421   4
  -3   2  -9 44525.4 3135.93   4
  -3   2 -10 9833.86 1477.56   4
  -3   2 -11 6148.90 1218.10   4
  -3   2 -12 6779.86 1341.58   4
  -3   2 -13 17106.1 2281.40   4
  -3   2 -14 31473.7 3187.58   4
  -3   2 -15-614.109 537.456   4
   3  -1 -13 8166.64 2099.88   5
   3  -1 -12 4.74539 831.009   5
   3  -1 -11 28775.8 3510.01   5
   3  -1 -10 21699.9 2841.34   5
   3  -1  -9 17571.6 2487.16   5
   3  -1  -8 6507.53 1405.97   5
  -3   1   8 8487.31 628.028   3
   3  -1  -7 13132.4 1860.82   5
   3  -1  -6 604.743 492.409   5
   3  -1  -5 120.039 289.065   5
   3  -1  -4 12398.6 1579.32   5
   3  -1  -3 21711.7 2040.79   5
   3  -1  -2 78992.9 4079.02   5
   3  -1  -1 82217.1 4191.27   5
   3  -1   0 27458.0 2300.15   5
   3  -1   1 3012.75 817.962   5
   3  -1   2 137174. 6164.21   5
   3  -1   3 551.605 382.055   5
  -3   1  -4 128910. 5053.55   4
   3  -1   4 131669. 6163.44   5
  -3   1  -5 135189. 5468.34   4
   3  -1   5 132130. 4588.22   1
  -3   1  -6 133566. 5739.42   4
  -3   1  -6 119963. 3513.90   2
  -3   1  -7 28417.6 2378.06   4
  -3   1  -7 21912.9 1075.37   2
  -3   1  -8 5307.05 1090.42   4
  -3   1  -9 96526.4 4852.91   4
  -3   1 -10 8122.52 1359.32   4
  -3   1 -11 32503.7 2866.47   4
  -3   1 -12 1272.04 597.694   4
  -3   1 -13 9376.89 1683.92   4
  -3   1 -14 3155.15 1108.80   4
  -3   1 -15-530.945 605.794   4
   3   0 -13 15151.0 2820.29   5
   3   0 -12 3241.26 1335.46   5
   3   0 -11 3916.11 1439.42   5
   3   0 -10 10891.0 2088.33   5
   3   0  -9 21956.5 2780.46   5
   3   0  -8 28979.6 3000.50   5
  -3   0   8 35114.4 1609.30   3
   3   0  -7 85031.9 5078.56   5
  -3   0   7 98614.1 3275.99   3
   3   0  -6 4402.44 458.438   1
   3   0  -6 6049.75 1198.09   5
   3   0  -5 73635.3 2250.33   1
   3   0  -5 67615.7 3996.92   5
   3   0  -4 40041.6 2859.63   5
   3   0  -3 171370. 6596.19   5
   3   0  -2 101123. 4660.38   5
   3   0  -1 67421.9 3648.33   5
   3   0   0 12278.4 1470.72   5
   3   0   1 91440.0 4475.11   5
   3   0   2 11760.5 1575.38   5
   3   0   3 4603.19 1092.31   5
  -3   0  -4 12486.3 1392.07   4
   3   0   4 10647.8 1524.08   5
  -3   0  -5 6284.21 1026.52   4
  -3   0  -5 6793.80 1168.66   5
  -3   0  -5 6299.38 635.209   2
  -3   0  -6 18468.5 1872.10   4
  -3   0  -6 16464.2 1037.70   2
  -3   0  -7 25258.5 2237.15   4
  -3   0  -7 21412.7 1244.93   2
  -3   0  -8 217.070 107.545   2
  -3   0  -8 364.026 273.175   4
  -3   0  -9 7114.95 1218.06   4
  -3   0 -10 47557.0 3323.45   4
  -3   0 -11 15041.9 1924.86   4
  -3   0 -12 130.768 415.589   4
  -3   0 -13 21171.4 2521.34   4
  -3   0 -14-229.259 589.080   4
  -3   0 -15 7330.38 1593.81   4
   3   1 -13 16501.6 3062.26   5
   3   1 -12 18519.1 3079.23   5
   3   1 -11 8546.15 1960.95   5
   3   1 -10 34828.2 3812.02   5
  -3  -1   9 1778.72 348.537   3
   3   1  -9 4068.55 1276.51   5
  -3  -1   8 2307.77 438.971   3
   3   1  -8 2057.40 900.223   5
  -3  -1   7 0.83178 176.924   3
   3   1  -7 219.368 377.873   5
   3   1  -7 125.677 187.843   1
   3   1  -6 6967.33 702.270   1
   3   1  -6 7838.94 1359.60   5
  -3  -1   6 7466.00 810.008   3
   3   1  -5-183.863 360.742   5
   3   1  -4 1842.16 660.840   5
  -3  -1   3 32634.9 2367.67   5
   3   1  -3 31533.1 2422.12   5
   3   1  -2 11639.4 1408.32   5
   3   1  -1 83801.6 3999.79   5
   3   1   0 1364.99 509.730   5
   3   1   1 17100.1 1703.11   5
  -3  -1  -2 5700.59 848.474   5
   3   1   2 8092.07 1276.10   5
   3   1   3 105484. 5098.12   5
  -3  -1  -4 75965.6 3636.64   4
   3   1   4 73743.2 4148.05   5
  -3  -1  -4 84584.9 2981.43   2
  -3  -1  -5 42092.8 2645.73   4
  -3  -1  -5 42994.6 1953.50   2
  -3  -1  -6 2224.16 427.435   2
  -3  -1  -6 1568.23 559.762   5
  -3  -1  -6 1253.90 515.394   4
  -3  -1  -7 2519.55 462.822   2
  -3  -1  -7 3146.62 788.622   4
  -3  -1  -8 12487.8 1550.66   4
  -3  -1  -8 9853.24 965.412   2
  -3  -1  -9 399.540 400.919   4
  -3  -1 -10-123.396 375.653   4
  -3  -1 -11-368.788 657.533   4
  -3  -1 -12 7686.32 1463.48   4
  -3  -1 -13 17242.2 2291.21   4
  -3  -1 -14 9523.71 1791.45   4
  -3  -1 -15 190.910 631.234   4
   3   2 -13 16187.0 2990.60   5
   3   2 -12 980.237 851.229   5
   3   2 -11 2149.80 1065.90   5
   3   2 -10 26018.6 3368.18   5
   3   2 -10 36000.8 2319.99   1
   3   2  -9 11535.2 1220.70   1
  -3  -2   9 11200.2 1021.47   3
   3   2  -9 8631.90 1763.02   5
  -3  -2   8 26881.0 1707.03   3
   3   2  -8 21622.6 2650.03   5
  -3  -2   7 1614.47 433.780   3
   3   2  -7 1594.99 710.388   5
   3   2  -6 89056.4 4916.50   5
  -3  -2   6 95170.7 3618.67   3
  -3  -2   5 10.3748 156.449   3
   3   2  -5-150.025 360.596   5
   3   2  -4 2413.18 677.214   5
   3   2  -3 28326.6 2237.29   5
   3   2  -2 55443.9 3106.44   5
   3   2  -1 2505.57 629.018   5
   3   2   0 20900.3 1777.63   5
  -3  -2   0 23208.0 1685.63   5
   3   2   1 9831.28 1244.33   5
  -3  -2  -1 9682.00 1060.83   5
  -3  -2  -2 298.109 169.805   2
   3   2   2 227.678 298.971   5
  -3  -2  -2 98.5477 175.888   5
   3   2   3 119392. 5323.50   5
  -3  -2  -3 133127. 4742.39   5
  -3  -2  -3 130482. 4280.37   2
  -3  -2  -4 27447.0 1971.46   4
   3   2   4 28520.5 2329.50   5
  -3  -2  -4 27186.8 1578.77   2
  -3  -2  -5 5148.76 878.874   4
  -3  -2  -5 5362.91 690.820   2
  -3  -2  -6 9882.79 1252.25   4
  -3  -2  -6 13619.3 1535.50   5
  -3  -2  -6 11655.4 1056.91   2
  -3  -2  -7 203303. 7023.70   4
  -3  -2  -7 180679. 5942.88   2
  -3  -2  -8 21476.3 2036.54   4
  -3  -2  -8 21200.2 1624.66   2
  -3  -2  -9 39191.6 2864.58   4
  -3  -2 -10 49543.1 3366.05   4
  -3  -2 -11 40785.7 3191.52   4
  -3  -2 -12 14989.5 2014.92   4
  -3  -2 -13 471.324 575.967   4
  -3  -2 -14 47090.4 3937.42   4
  -3  -2 -15 378.328 685.728   4
   3   3 -13 16954.1 3131.02   5
   3   3 -12 5593.46 1747.81   5
   3   3 -11 7981.37 1912.25   5
   3   3 -10 5186.32 925.134   1
   3   3 -10 3111.72 1172.46   5
  -3  -3   9 1421.43 481.883   3
   3   3  -9 2534.18 1063.67   5
   3   3  -9 1782.36 545.673   1
  -3  -3   8 1996.36 503.259   3
   3   3  -8 1696.41 555.948   1
   3   3  -8 1263.14 716.554   5
   3   3  -7 47629.8 3722.44   5
  -3  -3   7 57193.6 2813.87   3
   3   3  -6 13917.6 1795.58   5
  -3  -3   6 14478.0 1305.26   3
   3   3  -5 21883.5 2133.93   5
  -3  -3   5 20678.2 1538.10   3
   3   3  -4 72494.0 3917.74   5
  -3  -3   4 79219.7 3268.13   3
   3   3  -3 25847.7 2100.23   5
   3   3  -2 69548.3 3477.47   5
   3   3  -1 70060.3 3392.06   5
  -3  -3   0 220969. 6550.79   2
   3   3   0 220250. 7132.23   5
  -3  -3   0 232691. 6715.05   5
  -3  -3  -1 30793.7 1819.65   5
   3   3   1 28461.8 2098.10   5
  -3  -3  -1 30990.3 1789.26   2
   3   3   2 32765.9 2358.61   5
  -3  -3  -2 32274.5 1878.90   5
  -3  -3  -2 30896.3 1809.93   2
   3   3   3 4644.28 862.247   5
  -3  -3  -3 3922.31 635.199   5
  -3  -3  -3 4057.61 599.017   2
  -3  -3  -4 144160. 5070.60   4
  -3  -3  -4 140161. 4802.83   5
  -3  -3  -4 134724. 4564.76   2
  -3  -3  -5 12786.2 1341.67   4
  -3  -3  -5 11537.0 1090.44   2
  -3  -3  -6 12476.2 1354.61   4
  -3  -3  -6 11593.3 1165.62   2
  -3  -3  -7 271.708 178.603   2
  -3  -3  -7 225.988 256.102   4
  -3  -3  -7 174.149 265.619   5
  -3  -3  -8 921.935 383.711   2
  -3  -3  -8 211.492 282.162   4
  -3  -3  -9 3143.26 808.020   4
  -3  -3 -10 25864.4 2345.25   4
  -3  -3 -11 790.748 590.818   4
  -3  -3 -12 2117.27 827.748   4
  -3  -3 -13 26678.0 2769.23   4
  -3  -3 -14 31395.6 3124.65   4
  -3  -3 -15 2503.99 1022.06   4
   3   4 -13 6347.66 1911.38   5
   3   4 -12 29034.1 3871.01   5
   3   4 -11 1339.65 470.781   1
   3   4 -11 994.255 782.845   5
   3   4 -10 21420.0 2036.77   1
   3   4 -10 14072.8 2488.85   5
   3   4  -9 48619.3 3010.05   1
  -3  -4   9 53293.3 2863.96   3
   3   4  -8 32930.3 2298.52   1
   3   4  -8 27963.7 2997.90   5
  -3  -4   8 35449.5 2351.99   3
   3   4  -7 42296.1 3443.46   5
  -3  -4   7 46071.4 2700.91   3
  -3  -4   6 1330.43 471.822   3
   3   4  -6 863.151 495.966   5
  -3  -4   5 4765.88 783.221   3
   3   4  -5 4128.75 913.964   5
   3   4  -4 12389.8 1502.55   5
  -3  -4   4 14547.6 1344.82   3
   3   4  -3 11733.8 1374.96   5
  -3  -4   3 11133.9 1144.90   3
   3   4  -2 4094.73 771.069   5
   3   4  -1 250.901 251.185   5
  -3  -4   1 322.988 272.427   5
  -3  -4   0 29296.8 1727.67   5
   3   4   0 30559.1 2031.51   5
  -3  -4  -1 4256.18 599.108   5
   3   4   1 3394.84 682.124   5
   3   4   2 83714.3 3775.17   5
  -3  -4  -2 72116.5 2894.12   5
   3   4   3 319.926 222.441   5
  -3  -4  -3 268.208 188.187   5
  -3  -4  -4 19841.6 1561.18   4
  -3  -4  -4 18944.6 1348.28   5
  -3  -4  -5 10160.1 1137.00   4
  -3  -4  -5 7953.01 936.967   5
   3   4   6 104647. 4236.30   2
  -3  -4  -6 109846. 4385.04   4
   3   4   7 60334.5 3013.02   2
  -3  -4  -7 59052.8 3151.60   4
  -3  -4  -8 10948.8 1338.22   4
   3   4   8 8565.04 1077.39   2
  -3  -4  -9 7657.80 1214.36   4
   3   4   9 7962.20 1050.92   2
   3   4  10 9068.79 1121.96   2
  -3  -4 -10 9391.06 1369.66   4
  -3  -4 -11 972.292 468.530   4
   3   4  11 950.161 400.443   2
  -3  -4 -12 1550.62 608.307   4
   3   4  12 1839.83 525.393   2
  -3  -4 -13 5565.14 1264.39   4
  -3  -4 -14 96.6010 477.508   4
  -3  -4 -15 7243.50 1550.40   4
   3   5 -12 516.022 725.289   5
   3   5 -11 794.719 550.217   1
   3   5 -11 5155.49 1623.22   5
   3   5 -10 18079.9 1952.52   1
   3   5 -10 12424.8 2351.82   5
   3   5  -9 13953.5 1582.78   1
  -3  -5   9 14818.0 1553.64   3
   3   5  -9 11894.6 2091.73   5
   3   5  -8 25295.2 2818.85   5
  -3  -5   8 33206.6 2430.60   3
  -3  -5   7 5792.70 1000.26   3
   3   5  -7 5252.48 1201.09   5
  -3  -5   6 1531.11 497.461   3
   3   5  -6 1675.98 714.790   5
   3   5  -5 77995.0 4219.92   5
  -3  -5   5 83760.6 3852.25   3
   3   5  -4 29034.6 2291.31   5
  -3  -5   4 29610.9 2079.70   3
   3   5  -3 44339.3 2746.55   5
  -3  -5   3 49101.3 2677.79   3
   3   5  -2 19638.4 1654.95   5
  -3  -5   2 19532.4 1619.52   3
   3   5  -1 24592.7 1787.73   5
  -3  -5   1 21546.4 1710.70   3
   3   5   0 162.803 153.764   5
   3   5   1 531.958 239.026   5
  -3  -5  -1 388.317 210.585   5
  -3  -5  -2 36406.6 1724.36   5
   3   5   2 37023.2 2145.23   5
  -3  -5  -3 6735.20 852.179   4
  -3  -5  -3 6318.27 671.788   5
  -3  -5  -4 18700.9 1465.77   4
  -3  -5  -4 17708.1 1190.49   5
   3   5   5 40382.9 2631.87   2
  -3  -5  -5 43974.4 2370.97   4
  -3  -5  -5 39079.6 2017.39   5
  -3  -5  -6 31817.8 2060.77   4
  -3  -5  -6 30193.9 1915.61   5
   3   5   6 34017.3 2384.25   2
  -3  -5  -7 2.73748 219.179   4
   3   5   7 517.837 435.321   2
  -3  -5  -8 48168.7 2822.86   4
  -3  -5  -8 49285.5 3007.27   5
   3   5   8 47126.6 2907.16   2
  -3  -5  -9 3743.46 786.201   4
   3   5   9 4935.29 905.296   2
   3   5  10 34048.6 2474.08   2
  -3  -5 -10 34466.4 2593.91   4
   3   5  11 42121.0 2768.91   2
  -3  -5 -11 40977.8 2981.14   4
   3   5  12 59326.7 3357.54   2
  -3  -5 -12 64357.0 3959.50   4
  -3  -5 -13 4502.31 1098.27   4
  -3  -5 -14 11052.1 1676.83   4
  -3  -5 -15 13961.2 1997.49   4
   3   6 -12 6532.36 1820.49   5
   3   6 -11 5868.43 1542.99   5
   3   6 -11 5470.48 1127.20   1
   3   6 -10 11374.9 1576.20   1
   3   6 -10 12086.8 2134.72   5
   3   6  -9 2972.22 841.518   1
  -3  -6   9 2610.04 725.165   3
   3   6  -9 2464.89 873.937   5
  -3  -6   8-462.088 521.236   3
   3   6  -8 333.887 427.049   5
   3   6  -7 12783.8 1832.28   5
  -3  -6   7 16557.3 1791.38   3
  -3  -6   6 724.085 402.093   3
   3   6  -6 556.230 453.998   5
   3   6  -5 8933.06 1327.37   5
  -3  -6   5 11955.1 1423.33   3
   3   6  -4 73464.7 3771.75   5
  -3  -6   4 68068.8 3597.85   3
   3   6  -3 14342.9 1478.09   5
  -3  -6   3 12871.8 1421.84   3
   3   6  -2 19924.2 1650.10   5
  -3  -6   2 19582.0 1362.39   4
  -3  -6   2 19736.2 1717.98   3
   3   6  -1 53546.0 2654.54   5
  -3  -6   1 52115.0 2907.59   3
   3   6   0 19412.2 1411.14   5
  -3  -6   0 21939.6 1771.17   3
   3   6   1 80593.5 3230.36   5
  -3  -6  -1 71091.7 3477.37   3
   3   6   2 36728.4 1835.22   5
  -3  -6  -2 36051.6 1606.99   5
  -3  -6  -2 39202.5 2411.52   3
  -3  -6  -3 140195. 4584.62   4
  -3  -6  -3 125705. 3729.16   5
  -3  -6  -3 133125. 5053.13   3
   3   6   4 6772.77 1150.15   2
  -3  -6  -4 6055.87 791.607   4
  -3  -6  -4 5606.72 574.353   5
  -3  -6  -5 17676.4 1355.60   4
  -3  -6  -5 14740.7 1029.04   5
   3   6   5 14224.7 1637.70   2
  -3  -6  -6 2383.98 528.023   4
  -3  -6  -6 2987.42 509.161   5
   3   6   6 2180.74 718.938   2
  -3  -6  -7 91631.7 3762.04   4
  -3  -6  -7 86826.5 3622.93   5
   3   6   7 88916.4 4439.44   2
  -3  -6  -8 5320.44 864.039   4
   3   6   8 4146.68 928.680   2
   3   6   9 6781.47 1233.49   2
  -3  -6  -9 8356.91 1110.41   3
  -3  -6  -9 6978.38 1049.60   4
  -3  -6 -10 110.031 316.336   4
  -3  -6 -10 343.732 391.403   3
   3   6  10 189.618 544.671   2
  -3  -6 -11 1018.54 553.656   4
  -3  -6 -11 1125.59 549.604   3
   3   6  11 780.394 558.101   2
  -3  -6 -12 6229.39 1160.59   4
  -3  -6 -12 4862.98 901.164   3
   3   6  12 6408.01 1213.10   2
  -3  -6 -13 9579.50 1486.09   4
  -3  -6 -14 1471.59 633.228   4
  -3  -6 -15 1098.02 791.021   4
   3   7 -12-1122.35 765.668   5
   3   7 -11 57544.1 4845.95   5
   3   7 -11 52643.5 3838.24   1
   3   7 -10 1263.94 443.688   1
   3   7 -10 1484.68 731.864   5
   3   7  -9 27343.6 2968.04   5
  -3  -7   9 30954.5 2573.15   3
  -3  -7   8 4652.19 1000.43   3
   3   7  -8 5058.37 1211.86   5
   3   7  -7 24821.5 2441.27   5
  -3  -7   7 26962.0 2402.94   3
   3   7  -6 17217.6 1900.69   5
  -3  -7   6 20068.6 2064.52   3
   3   7  -5 17978.0 1844.61   5
  -3  -7   5 19357.0 1977.03   3
   3   7  -4 69768.1 3618.39   5
  -3  -7   4 64026.2 3661.48   3
  -3  -7   3 4984.51 948.913   3
   3   7  -3 5241.82 869.741   5
  -3  -7   2 118.880 218.362   4
  -3  -7   2 271.943 302.878   3
   3   7  -2 339.338 257.101   5
  -3  -7   1 4927.41 918.149   3
   3   7  -1 4518.49 664.430   5
  -3  -7   0 4577.77 867.160   3
   3   7   0 4620.78 638.836   5
  -3  -7  -1 109.601 306.547   3
   3   7   1 326.826 166.381   5
  -3  -7  -2 2474.70 649.426   3
  -3  -7  -2 1454.38 397.294   4
   3   7   3 22725.8 2203.82   2
  -3  -7  -3 20570.3 1368.10   4
  -3  -7  -3 20126.0 1803.53   3
  -3  -7  -4 487.978 342.136   3
  -3  -7  -4 519.151 253.346   4
  -3  -7  -4 400.881 144.625   5
   3   7   4 540.188 486.898   2
  -3  -7  -5 42432.1 2047.80   4
  -3  -7  -5 35882.7 1433.87   5
  -3  -7  -5 41915.4 2679.16   3
   3   7   5 42892.8 3045.09   2
  -3  -7  -6 163.004 331.267   3
  -3  -7  -6 67.9188 207.121   4
   3   7   6 536.083 437.958   2
  -3  -7  -7 29326.9 1873.46   4
  -3  -7  -7 29820.1 2270.76   3
   3   7   7 29261.3 2571.57   2
  -3  -7  -8 630.497 435.127   3
  -3  -7  -8-56.0377 220.266   4
   3   7   8 45.4937 317.978   2
  -3  -7  -9 32943.8 2415.97   3
   3   7   9 31874.3 2787.79   2
  -3  -7  -9 34465.9 2307.51   4
  -3  -7 -10 27491.8 2227.29   3
   3   7  10 27666.5 2583.89   2
  -3  -7 -10 30071.6 2241.66   4
  -3  -7 -11 21270.8 1952.03   3
   3   7  11 18965.6 2166.88   2
  -3  -7 -11 22632.9 2005.84   4
  -3  -7 -12 2495.84 743.167   4
   3   7  12 1389.48 653.971   2
  -3  -7 -13 2850.91 801.100   4
  -3  -7 -14 3023.69 799.321   4
   3   8 -11 2215.47 809.842   1
   3   8 -11 3124.22 1123.14   5
   3   8 -10 321.532 434.206   1
   3   8 -10 1564.52 876.623   5
  -3  -8   9-122.053 424.404   3
   3   8  -9 410.963 485.814   5
  -3  -8   8 9110.78 1461.33   3
   3   8  -8 8440.00 1521.29   5
   3   8  -7 40584.7 3150.65   5
  -3  -8   7 43966.4 3243.75   3
  -3  -8   6 2799.21 830.305   3
   3   8  -6 3147.24 828.499   5
   3   8  -5 10986.1 1423.85   5
  -3  -8   5 11244.8 1584.43   3
   3   8  -4 26278.8 2003.94   5
  -3  -8   4 21597.2 2198.52   3
   3   8  -3 27696.9 1886.82   5
  -3  -8   3 24173.3 2235.29   3
   3   8  -2 21248.6 1484.38   5
  -3  -8   2 20466.8 2038.20   3
  -3  -8   1 892.565 457.102   3
   3   8  -1 1368.72 343.553   5
   3   8   0 101842. 3061.51   5
  -3  -8   0 105458. 4835.46   3
  -3  -8  -1 4106.83 863.260   3
  -3  -8  -2 4687.68 583.374   4
  -3  -8  -2 5143.57 1034.02   3
   3   8   3 4792.13 1043.90   2
  -3  -8  -3 6007.31 639.099   4
  -3  -8  -3 5173.82 990.056   3
  -3  -8  -4 21409.5 1270.07   4
  -3  -8  -4 22628.7 2041.67   3
   3   8   4 19567.4 2148.25   2
  -3  -8  -5 2462.60 725.199   3
  -3  -8  -5 1566.98 352.246   4
   3   8   5 1055.78 674.453   2
  -3  -8  -6 1864.08 655.131   3
  -3  -8  -6 819.965 303.388   4
   3   8   6 2122.54 776.223   2
  -3  -8  -7 185.457 327.715   3
  -3  -8  -7 270.001 215.906   4
   3   8   7-129.250 502.280   2
  -3  -8  -8 858.262 508.759   3
  -3  -8  -8 214.944 215.780   4
  -3  -8  -9 30909.5 2490.00   3
   3   8   9 25761.7 2597.59   2
  -3  -8  -9 31956.2 2124.57   4
  -3  -8 -10 8004.39 1305.24   3
  -3  -8 -10 8231.90 1111.17   4
   3   8  10 8002.48 1419.11   2
  -3  -8 -11 2861.69 798.364   3
   3   8  11 5083.84 1180.18   2
   3   8  12 680.794 492.209   2
   3   9 -10 34060.8 3206.90   1
  -3  -9   9 3950.25 1087.59   3
  -3  -9   8 957.167 614.608   3
  -3  -9   7 14754.8 1926.22   3
  -3  -9   6 247.173 409.946   3
  -3  -9   5 190.204 363.121   3
  -3  -9   4 6531.91 1268.05   3
  -3  -9   3 1146.61 653.743   3
  -3  -9   2 4113.61 918.886   3
  -3  -9   1 53065.5 3523.47   3
  -3  -9   0 3817.60 910.710   3
  -3  -9  -1 11820.0 1616.66   3
   3   9   2 14978.3 2022.45   2
  -3  -9  -2 15978.8 1806.37   3
   3   9   3 17162.0 2169.99   2
  -3  -9  -3 16790.5 1896.83   3
  -3  -9  -4 45909.2 3180.97   3
   3   9   4 41519.8 3373.45   2
  -3  -9  -5 26305.0 2393.65   3
   3   9   5 30875.8 2868.66   2
  -3  -9  -6 72618.9 4158.04   3
   3   9   6 71534.8 4610.85   2
  -3  -9  -7 4858.80 1047.10   3
   3   9   7 5882.94 1358.29   2
  -3  -9  -8 9492.50 1474.24   3
   3   9   8 10562.8 1697.86   2
  -3  -9  -9 717.368 443.632   3
   3   9   9 2296.70 895.509   2
  -3  -9 -10 30356.1 2662.54   3
   3   9  10 29282.1 2918.23   2
  -3  -9 -11 6185.89 1202.59   3
   3   9  11 5759.22 1376.82   2
   3   9  12 5704.73 1356.07   2
  -3 -10   9 1776.73 754.216   3
  -3 -10   8 37448.2 3265.26   3
  -3 -10   7 3434.47 1008.80   3
  -3 -10   6 38885.9 3276.45   3
  -3 -10   5 599.633 702.769   3
  -3 -10   4 33138.7 2977.22   3
  -3 -10   3 25190.6 2594.72   3
  -3 -10   2 12524.5 1797.11   3
  -3 -10   1 26843.9 2652.36   3
  -3 -10   0 6448.47 1278.11   3
  -3 -10  -1 3099.37 853.804   3
   3  10   2 7371.18 1487.32   2
  -3 -10  -2 6198.88 1212.53   3
   3  10   3 2093.59 799.905   2
  -3 -10  -3 1207.56 498.935   3
  -3 -10  -4 62.8181 492.316   3
   3  10   4-463.441 732.388   2
  -3 -10  -5 1541.71 625.240   3
   3  10   5 2302.47 858.624   2
  -3 -10  -6 15253.3 1964.45   3
   3  10   6 16084.8 2137.85   2
  -3 -10  -7 610.130 528.234   3
   3  10   7 512.193 617.233   2
  -3 -10  -8 33311.4 2944.10   3
   3  10   8 27817.4 2916.15   2
  -3 -10  -9-112.733 554.597   3
   3  10   9-414.759 645.306   2
  -3 -10 -10 17722.2 2132.95   3
   3  10  10 13056.0 2019.55   2
   3  10  11 405.607 490.360   2
   3  10  12 19611.4 2418.91   2
  -3 -11   7 5228.97 1252.92   3
  -3 -11   6 3781.30 1095.76   3
  -3 -11   5 579.671 482.714   3
  -3 -11   4 10013.0 1711.71   3
  -3 -11   3 20475.5 2424.11   3
  -3 -11   2 40040.6 3376.63   3
  -3 -11   1 1233.46 822.357   3
  -3 -11   0 1942.53 726.232   3
  -3 -11  -1 39166.0 3346.20   3
  -3 -11  -2 11064.3 1741.40   3
   3  11   3 28883.1 3013.20   2
  -3 -11  -3 31029.9 2955.66   3
  -3 -11  -4 1617.89 776.046   3
   3  11   4-437.492 500.302   2
  -3 -11  -5 15112.0 2067.87   3
   3  11   5 17076.7 2267.50   2
  -3 -11  -6 3117.83 989.965   3
   3  11   6 3947.75 1161.18   2
  -3 -11  -7 1096.87 701.973   3
   3  11   7 1507.37 899.191   2
  -3 -11  -8 10142.5 1764.97   3
   3  11   8 8641.58 1662.79   2
  -3 -11  -9 454.836 512.212   3
   3  11   9 1253.40 816.370   2
  -3 -11 -10 2212.95 882.439   3
  -3 -12   3 981.679 669.690   3
  -3 -12   2 473.129 641.399   3
  -3 -12   1 6553.41 1442.51   3
  -3 -12   0 1256.45 702.958   3
  -3 -12  -1 1462.48 783.374   3
  -3 -12  -2 32761.3 3161.91   3
   3  12   3 5187.58 1295.95   2
  -3 -12  -3 4069.95 1156.43   3
   3  12   4 9880.18 1817.03   2
  -3 -12  -4 9341.29 1704.92   3
  -3 -12  -5 7040.06 1469.96   3
   3  12   5 4603.47 1239.14   2
  -3 -12  -6 8474.45 1606.23   3
   3  12   6 7505.57 1620.34   2
  -3 -12  -7 15309.7 2226.44   3
  -3 -12  -8 11003.9 1832.59   3
  -3 -12  -9 49853.2 4006.55   3
  -4  12   1 240.146 415.445   2
  -4  12   0 10461.4 1497.20   2
  -4  12  -1 5699.09 1060.74   2
  -4  12  -2 8840.31 1398.80   2
  -4  12  -3 3467.44 906.316   2
  -4  12  -4 8179.31 1392.06   1
  -4  12  -5 838.679 550.741   1
  -4  12  -6 1234.64 720.755   1
  -4  11   3-642.331 564.825   2
  -4  11   2 653.089 521.277   2
  -4  11   1-176.630 347.505   2
   4 -11  -1 293.784 515.874   5
  -4  11   0 2324.10 887.500   2
   4 -11   0 2641.79 907.124   5
  -4  11  -1-241.335 314.294   2
  -4  11  -2 4802.92 1031.25   2
  -4  11  -3-176.628 330.734   1
  -4  11  -3-307.194 332.622   2
  -4  11  -4 24598.5 2044.07   2
  -4  11  -4 13580.8 1710.45   1
  -4  11  -5 86.1623 380.906   1
  -4  11  -6 4660.86 1024.08   1
  -4  11  -7 2980.69 943.453   1
   4 -10  -6 7555.70 1703.15   5
   4 -10  -5 12281.2 1975.50   5
   4 -10  -4-309.783 467.134   5
   4 -10  -3 5877.57 1406.93   5
   4 -10  -2 266.927 447.628   5
   4 -10  -1 19255.2 2351.32   5
  -4  10   0 379.363 396.448   2
   4 -10   0-1409.97 669.817   5
  -4  10  -1-327.063 395.456   2
   4 -10   1-322.600 566.060   5
  -4  10  -1 318.768 316.208   1
  -4  10  -2 650.674 417.052   1
  -4  10  -2 1571.07 611.177   2
  -4  10  -3-633.378 429.770   2
  -4  10  -3-783.396 459.309   1
  -4  10  -4-166.466 308.188   2
  -4  10  -4 258.044 362.300   1
  -4  10  -5 166.753 361.482   1
  -4  10  -5 626.932 393.314   2
  -4  10  -6 2406.84 764.603   1
   4  -9  -9 780.229 695.537   5
   4  -9  -8 8736.20 1814.64   5
   4  -9  -7 2535.45 992.283   5
   4  -9  -6 10114.7 1869.49   5
   4  -9  -5 639.649 576.650   5
   4  -9  -4 3842.18 1183.47   5
   4  -9  -3 2350.91 824.824   5
   4  -9  -2 24081.5 2602.49   5
   4  -9  -1 1283.86 765.053   5
   4  -9   0 11342.0 1788.11   5
  -4   9   0 10882.9 1184.67   1
  -4   9  -1 57975.3 2896.31   4
   4  -9   1 53282.9 3861.20   5
  -4   9  -1 62804.8 3208.09   1
  -4   9  -2 1486.50 554.312   1
  -4   9  -2 1175.04 424.802   4
   4  -9   2 1767.45 788.923   5
  -4   9  -3 9098.56 1083.60   4
  -4   9  -3 9551.31 1277.24   2
  -4   9  -3 8974.71 1259.50   1
  -4   9  -4 4735.71 858.403   2
  -4   9  -4 3994.75 880.948   1
  -4   9  -4 4584.41 806.541   4
  -4   9  -5 48406.3 2714.89   4
  -4   9  -5 45952.2 2730.79   2
  -4   9  -5 47298.7 3186.69   1
  -4   9  -6 2670.50 613.013   4
  -4   9  -7 3274.32 735.572   4
  -4   9  -8 3670.91 767.978   4
  -4   9  -9 6174.89 1056.64   4
  -4   9 -10 2013.04 744.450   4
  -4   9 -11 3797.71 957.967   4
   4  -8 -10 421.773 663.327   5
   4  -8  -9 34328.0 3643.13   5
   4  -8  -8 4005.83 1168.62   5
   4  -8  -7 25605.4 2990.11   5
   4  -8  -6 4924.56 1325.39   5
   4  -8  -5 3803.50 1168.66   5
   4  -8  -4 11444.7 1869.02   5
   4  -8  -3 8386.15 1603.14   5
   4  -8  -2 9406.97 1642.04   5
   4  -8  -1 125.283 376.591   5
   4  -8   0 380.322 640.189   5
  -4   8  -1 7436.77 1030.87   4
   4  -8   1 4868.17 1177.84   5
  -4   8  -1 6890.40 987.037   1
  -4   8  -2 2052.41 584.500   4
   4  -8   2 2881.42 958.469   5
  -4   8  -2 1462.70 508.112   1
  -4   8  -3 1742.05 568.336   1
  -4   8  -3 1252.07 384.618   4
   4  -8   3 1676.58 730.496   5
  -4   8  -4 87.1069 277.610   2
  -4   8  -4 516.037 354.990   4
  -4   8  -5 15088.6 1509.75   4
  -4   8  -5 17467.2 1537.40   2
  -4   8  -6 3218.72 653.538   2
  -4   8  -6 2801.08 662.271   4
  -4   8  -7 40905.6 2666.61   4
  -4   8  -8 2631.39 671.378   4
  -4   8  -9 13799.3 1586.62   4
  -4   8 -10-632.376 464.959   4
  -4   8 -11 8942.61 1401.88   4
  -4   8 -12 8358.75 1420.65   4
   4  -7 -10-812.640 708.707   5
   4  -7  -9 2189.27 851.979   5
   4  -7  -8 3084.16 1152.07   5
   4  -7  -7 3270.79 1095.90   5
   4  -7  -6 6152.64 1472.71   5
   4  -7  -5 23399.4 2716.71   5
   4  -7  -4 13372.0 2045.16   5
   4  -7  -3 25428.6 2785.22   5
   4  -7  -2 15827.8 2152.18   5
   4  -7  -1 78.5348 436.770   5
   4  -7   0 23270.6 2620.19   5
   4  -7   1 2725.49 940.952   5
  -4   7  -2 28455.7 2080.25   4
   4  -7   2 26023.2 2728.49   5
  -4   7  -3 4541.54 843.413   4
   4  -7   3 4117.59 1118.35   5
  -4   7  -4 1289.57 450.231   4
  -4   7  -5 1218.36 432.250   4
  -4   7  -6 623.377 294.684   2
  -4   7  -6 151.981 284.994   4
  -4   7  -7 2652.74 495.769   2
  -4   7  -7 2034.82 597.021   4
  -4   7  -8-175.451 321.414   4
  -4   7  -9 9678.90 1346.05   4
  -4   7 -10 7586.25 1254.63   4
  -4   7 -11 20010.4 2093.23   4
  -4   7 -12 1210.05 623.003   4
  -4   7 -13 19738.5 2262.46   4
   4  -6 -11 12892.5 2438.18   5
   4  -6 -10 20276.4 2912.73   5
   4  -6  -9 1382.74 671.902   5
   4  -6  -8 1004.18 704.616   5
   4  -6  -7 1793.70 696.888   5
   4  -6  -6 8320.95 1668.76   5
   4  -6  -5 2953.96 1034.85   5
   4  -6  -4 15166.6 2153.92   5
   4  -6  -3 287.271 381.475   5
   4  -6  -2 14321.8 2043.81   5
   4  -6  -1 17715.7 2293.36   5
   4  -6   0 860.652 660.147   5
   4  -6   1 24702.6 2784.00   5
   4  -6   2 13791.2 2025.68   5
  -4   6  -3 43689.8 2693.75   4
   4  -6   3 40008.4 3473.70   5
  -4   6  -4 37740.7 2566.43   4
   4  -6   4 35405.2 3229.43   5
  -4   6  -5 110.184 275.007   4
  -4   6  -6 31934.9 2406.78   4
  -4   6  -7 23072.9 2042.24   4
  -4   6  -7 21877.2 1415.63   2
  -4   6  -8 49788.2 3137.88   4
  -4   6  -9 5662.12 1057.92   4
  -4   6 -10 5055.79 1029.76   4
  -4   6 -11 24.0836 362.953   4
  -4   6 -12 6927.23 1337.11   4
  -4   6 -13-360.608 542.650   4
   4  -5 -11 5623.92 1614.89   5
   4  -5 -10 13354.4 2394.99   5
   4  -5  -9 1479.96 874.933   5
   4  -5  -8 14181.4 2254.06   5
   4  -5  -7 73.5794 410.943   5
   4  -5  -6 64081.9 4636.75   5
   4  -5  -5 5516.81 1359.44   5
   4  -5  -4 61878.2 4399.51   5
   4  -5  -3 5815.35 1329.17   5
   4  -5  -2 20893.3 2486.67   5
   4  -5  -1 6573.88 1406.56   5
   4  -5   0 9306.78 1751.91   5
   4  -5   1 45652.0 3825.26   5
   4  -5   2 2145.02 778.958   5
  -4   5  -3 3502.95 774.719   4
   4  -5   3 2702.93 984.904   5
  -4   5  -4 2941.13 710.665   4
   4  -5   4 4731.51 1222.26   5
  -4   5  -5-37.0706 308.331   4
  -4   5  -6 7348.91 1177.88   4
  -4   5  -7 3760.42 855.635   4
  -4   5  -8 14246.8 1666.32   4
  -4   5  -8 11479.3 795.673   2
  -4   5  -9 64.3966 318.192   4
  -4   5 -10 64203.2 3857.99   4
  -4   5 -11 150.766 445.786   4
  -4   5 -12 13379.4 1800.11   4
  -4   5 -13 35.1530 456.057   4
  -4   5 -14 14944.5 2079.14   4
   4  -4 -11 12808.2 2440.57   5
   4  -4 -10-1103.78 836.413   5
   4  -4  -9 15939.6 2500.28   5
   4  -4  -8-138.226 462.221   5
   4  -4  -7-883.258 654.750   5
   4  -4  -6 19229.7 2449.40   5
   4  -4  -5 1903.43 760.674   5
   4  -4  -4 500.035 563.131   5
   4  -4  -3 7097.23 1471.38   5
   4  -4  -2 67581.9 4563.56   5
   4  -4  -1 21318.3 2521.01   5
   4  -4   0 33639.4 3239.46   5
   4  -4   1 47787.3 3925.97   5
   4  -4   2 7807.52 1612.53   5
   4  -4   3 19851.7 2477.90   5
  -4   4  -4 150.563 323.891   4
   4  -4   4-38.4323 363.087   5
  -4   4  -5 79704.5 4005.29   4
  -4   4  -6 2336.03 714.434   4
  -4   4  -7 522.262 463.215   4
  -4   4  -8 3072.45 812.686   4
  -4   4  -9 227.751 377.702   4
  -4   4 -10 1016.91 641.424   4
  -4   4 -11 3425.52 921.090   4
  -4   4 -12 686.724 599.940   4
  -4   4 -13 951.120 618.693   4
  -4   4 -14 30941.5 3087.68   4
   4  -3 -11 3400.48 1395.08   5
   4  -3 -10 96.3411 681.396   5
   4  -3  -9 68734.7 5241.70   5
   4  -3  -8 3102.25 1239.60   5
   4  -3  -7 8706.35 1687.30   5
   4  -3  -6 22851.3 2652.56   5
   4  -3  -5 33466.3 3176.86   5
   4  -3  -4 156.499 460.100   5
   4  -3  -3 181.857 472.934   5
   4  -3  -2 46862.9 3704.67   5
   4  -3  -1 13528.2 1982.51   5
   4  -3   0 38226.0 3411.50   5
   4  -3   1 2593.17 430.423   1
   4  -3   1 1257.00 604.669   5
   4  -3   2 654.304 281.639   1
   4  -3   2-124.832 401.074   5
   4  -3   3 679.385 297.978   1
   4  -3   3 221.296 449.777   5
  -4   3  -4 120294. 5034.05   4
   4  -3   4 116834. 6407.88   5
  -4   3  -5 330.227 251.839   4
   4  -3   5 15.3521 423.035   5
  -4   3  -6 23225.9 2098.67   4
  -4   3  -7 55827.3 3524.27   4
  -4   3  -8 6500.98 1208.09   4
  -4   3  -8 5036.72 446.602   2
  -4   3  -9 21802.2 2234.99   4
  -4   3 -10 15094.1 1941.04   4
  -4   3 -11 76287.5 4592.53   4
  -4   3 -12 697.273 607.032   4
  -4   3 -13 3121.39 1038.62   4
  -4   3 -14-523.633 679.822   4
   4  -2 -11-4.99042 790.958   5
   4  -2 -10 1495.18 910.721   5
   4  -2  -9 2065.68 944.464   5
   4  -2  -8 15048.6 2332.19   5
   4  -2  -7 21660.8 2653.19   5
   4  -2  -6 2447.72 818.336   5
   4  -2  -5 20360.2 2428.59   5
   4  -2  -4 2480.01 875.356   5
   4  -2  -3 123523. 6240.29   5
   4  -2  -2 17336.5 2171.99   5
   4  -2  -1 139589. 3745.32   1
   4  -2  -1 142058. 6747.26   5
   4  -2   0 6660.81 645.359   1
   4  -2   0 5524.92 1223.87   5
   4  -2   1 11428.0 1825.24   5
   4  -2   1 14322.4 1051.17   1
   4  -2   2 5151.78 1311.42   5
   4  -2   2 4684.13 669.921   1
   4  -2   3 15970.3 2228.43   5
   4  -2   3 18071.6 1364.74   1
  -4   2  -4 34347.6 2452.65   4
   4  -2   4 34154.3 3229.19   5
  -4   2  -5-8.43547 291.002   4
   4  -2   5 543.641 516.422   5
  -4   2  -6 183.428 363.491   4
  -4   2  -7 19001.1 1978.63   4
  -4   2  -7 19345.9 1128.75   2
  -4   2  -8 2207.69 765.706   4
  -4   2  -8 1765.23 298.664   2
  -4   2  -9 813.806 485.584   4
  -4   2 -10 2408.67 846.002   4
  -4   2 -11 24551.4 2668.42   4
  -4   2 -12 1394.99 727.119   4
  -4   2 -13 35776.6 3491.17   4
  -4   2 -14 2515.69 1033.65   4
   4  -1 -12 20821.8 3405.50   5
   4  -1 -11 7825.81 2047.88   5
   4  -1 -10 6463.37 1750.42   5
   4  -1  -9 365.847 770.281   5
   4  -1  -8 17347.6 2517.16   5
   4  -1  -7 203.826 456.287   5
   4  -1  -6 23275.6 2649.17   5
   4  -1  -5 2583.35 857.326   5
   4  -1  -4-144.624 327.419   5
   4  -1  -3 18485.9 2183.93   5
   4  -1  -2 3826.14 1025.53   5
   4  -1  -1 23565.2 2476.11   5
   4  -1   0-113.868 461.490   5
   4  -1   1 40646.3 3384.35   5
   4  -1   2 64302.4 4440.27   5
   4  -1   3 93868.3 5637.05   5
   4  -1   4 18331.9 2328.01   5
  -4   1  -5 4356.04 862.868   4
   4  -1   5 5611.42 1416.85   5
  -4   1  -6 52960.9 2190.32   2
  -4   1  -6 39142.9 2884.89   4
  -4   1  -7 7106.80 1254.97   4
  -4   1  -7 8003.04 757.839   2
  -4   1  -8 33249.6 2836.36   4
  -4   1  -8 31141.0 1513.01   2
  -4   1  -9 8192.39 1455.57   4
  -4   1  -9 6074.27 613.268   2
  -4   1 -10 23304.3 2554.53   4
  -4   1 -11 2426.17 934.728   4
  -4   1 -12 761.944 734.588   4
  -4   1 -13 3430.14 1056.10   4
  -4   1 -14-115.728 558.467   4
   4   0 -12 4324.36 1593.48   5
   4   0 -11 6594.29 1800.49   5
   4   0 -10 28519.9 3660.45   5
   4   0  -9 1130.01 682.303   5
   4   0  -8 36194.4 3683.93   5
  -4   0   8 45309.5 2240.18   3
   4   0  -7 33092.0 3312.20   5
   4   0  -6 63129.0 4407.26   5
   4   0  -6 57187.4 1876.23   1
   4   0  -5 38720.5 1437.39   1
   4   0  -5 38400.7 3303.83   5
   4   0  -4 56316.2 3936.96   5
   4   0  -3 2185.32 804.428   5
   4   0  -2 30018.8 2736.52   5
   4   0  -1 39201.4 3125.40   5
   4   0   0 42290.9 3246.47   5
   4   0   1 10357.8 1581.12   5
   4   0   2 56465.3 4009.50   5
   4   0   3 875.136 658.509   5
   4   0   4 11574.0 1838.63   5
  -4   0  -5 8505.76 860.418   2
  -4   0  -5 7025.87 1139.72   4
   4   0   5 6919.49 1441.60   5
  -4   0  -6 7671.69 1222.53   4
  -4   0  -6 9122.66 883.556   2
  -4   0  -7 45230.0 3166.22   4
  -4   0  -7 49573.7 2202.45   2
  -4   0  -8 10559.6 1534.87   4
  -4   0  -8 10060.5 901.688   2
  -4   0  -9 41815.7 3189.75   4
  -4   0  -9 37422.4 1930.86   2
  -4   0 -10 12877.4 1827.57   4
  -4   0 -11 261.079 385.032   4
  -4   0 -12 24757.1 2731.85   4
  -4   0 -13 18819.2 2449.01   4
  -4   0 -14 44104.0 4029.99   4
  -4   0 -15 1706.78 851.539   4
   4   1 -12-66.6972 634.620   5
   4   1 -11 2567.94 1190.85   5
   4   1 -10 596.294 674.464   5
   4   1  -9 4025.31 1309.31   5
   4   1  -8 5908.04 1463.53   5
  -4  -1   8 7111.04 885.796   3
  -4  -1   7-119.852 294.799   3
   4   1  -7-73.5061 404.181   5
   4   1  -7 115.790 179.482   1
   4   1  -6 153.206 184.817   1
   4   1  -6 53.7602 391.555   5
   4   1  -5 17986.7 2227.93   5
   4   1  -4 35202.4 3027.13   5
   4   1  -3 16097.2 1957.77   5
   4   1  -2 17375.2 2014.95   5
   4   1  -1 5147.92 1100.41   5
   4   1   0 136151. 6110.67   5
   4   1   1 3565.19 887.450   5
   4   1   2 82689.0 4863.04   5
   4   1   3 3538.14 1049.34   5
  -4  -1  -4 64919.1 2790.93   2
   4   1   4 58840.1 4052.94   5
  -4  -1  -5 2209.41 669.074   4
   4   1   5 2238.76 755.606   5
  -4  -1  -5 2568.39 531.740   2
  -4  -1  -6 660.434 436.107   4
  -4  -1  -6 783.899 292.560   2
  -4  -1  -7 21204.6 2074.07   4
  -4  -1  -7 21996.8 1480.85   2
  -4  -1  -8 1443.57 378.139   2
  -4  -1  -8 1023.89 498.456   4
  -4  -1  -9 616.633 293.577   2
  -4  -1  -9 671.195 440.059   4
  -4  -1 -10 14066.8 1834.35   4
  -4  -1 -11 1486.88 712.185   4
  -4  -1 -12 6077.96 1332.67   4
  -4  -1 -13 9013.66 1647.59   4
  -4  -1 -14 10890.3 1954.16   4
  -4  -1 -15-1852.11 922.604   4
   4   2 -11 9104.04 2242.41   5
   4   2 -10 25958.6 3527.58   5
   4   2  -9 33165.1 3757.77   5
   4   2  -8 12517.3 2157.65   5
  -4  -2   8 14599.9 1384.28   3
   4   2  -7 12881.5 2071.32   5
  -4  -2   7 16032.3 1432.93   3
  -4  -2   6 4255.65 736.958   3
   4   2  -6 4142.33 1059.83   5
   4   2  -5 26869.1 2678.64   5
   4   2  -4 1398.22 652.545   5
   4   2  -3 12503.2 1708.18   5
   4   2  -2 616.432 466.162   5
   4   2  -1 1308.56 573.622   5
   4   2   0 49601.0 3317.99   5
   4   2   1 916.225 595.594   5
   4   2   2 12979.0 1763.20   5
  -4  -2  -2 13994.9 1483.59   5
   4   2   3 2971.03 924.823   5
   4   2   4 79986.6 4614.84   5
  -4  -2  -5 27231.0 2136.09   4
  -4  -2  -6 44294.6 2847.45   4
  -4  -2  -6 45056.6 2340.06   2
  -4  -2  -7 56307.5 3320.94   4
  -4  -2  -7 50878.2 2574.01   2
  -4  -2  -8 40378.9 2892.31   4
  -4  -2  -8 40467.1 2284.64   2
  -4  -2  -9 9382.61 1397.88   4
  -4  -2  -9 8783.45 1059.35   2
  -4  -2 -10 660.489 454.703   4
  -4  -2 -11 68422.4 4234.95   4
  -4  -2 -12 39.5574 411.200   4
  -4  -2 -13 1170.05 673.598   4
  -4  -2 -14 1606.43 774.373   4
  -4  -2 -15 8433.53 1834.65   4
   4   3 -11 2084.77 1163.66   5
   4   3 -10 14968.7 2722.92   5
   4   3  -9 919.876 680.454   5
  -4  -3   8 1321.95 446.356   3
   4   3  -8 1874.61 554.271   1
   4   3  -8 1271.26 537.901   5
   4   3  -7 60585.5 4578.71   5
  -4  -3   7 70072.4 3387.19   3
   4   3  -6 5458.02 1246.05   5
  -4  -3   6 6112.94 924.020   3
   4   3  -5 15323.1 1975.16   5
  -4  -3   5 16619.2 1515.26   3
   4   3  -4 20604.4 2235.81   5
   4   3  -3 169819. 7010.76   5
   4   3  -2 6386.48 1159.01   5
   4   3  -1 14329.4 1707.62   5
   4   3   0 27855.1 2385.92   5
   4   3   1 88351.2 4655.33   5
  -4  -3  -1 96508.6 4106.57   5
   4   3   2 3951.81 916.413   5
  -4  -3  -2 3591.11 738.391   5
  -4  -3  -3 8091.57 1034.11   5
   4   3   3 5625.30 1103.81   5
  -4  -3  -4 29703.2 2217.40   4
   4   3   4 32455.1 2679.95   5
  -4  -3  -4 33630.1 2204.25   5
  -4  -3  -5 5910.79 972.370   4
  -4  -3  -6 10536.0 1306.07   4
  -4  -3  -7 85.2065 315.675   4
  -4  -3  -8 4298.79 893.425   4
  -4  -3  -9 510.536 479.805   4
  -4  -3 -10 63602.3 3831.63   4
  -4  -3 -11 1759.07 676.614   4
  -4  -3 -12 20197.9 2252.35   4
  -4  -3 -13 13650.2 1940.98   4
  -4  -3 -14 3791.55 1124.06   4
  -4  -3 -15 7104.77 1548.55   4
   4   4 -11 8407.69 2082.29   5
   4   4 -10 36743.0 4100.02   5
   4   4  -9 555.332 656.833   5
  -4  -4   8 2852.99 644.922   3
   4   4  -8 2513.52 908.644   5
  -4  -4   7 313.602 281.704   3
   4   4  -7 1919.10 743.035   5
  -4  -4   6 3521.54 786.052   3
   4   4  -6 3715.14 1025.23   5
   4   4  -5 11966.3 1727.74   5
  -4  -4   5 13324.4 1386.61   3
  -4  -4   4 162.983 348.688   3
   4   4  -4 452.302 482.095   5
   4   4  -3 2384.46 757.451   5
   4   4  -2 12632.7 1589.51   5
   4   4  -1 27297.4 2307.82   5
   4   4   0 4553.99 950.744   5
  -4  -4   0 5738.72 874.416   5
   4   4   1 32444.1 2493.76   5
  -4  -4  -1 35932.3 2177.32   5
   4   4   2 26185.4 2318.59   5
   4   4   3 77886.6 4157.08   5
  -4  -4  -4 19180.3 1699.21   4
   4   4   4 20733.0 1995.86   5
  -4  -4  -4 17477.7 1484.30   5
  -4  -4  -5 72882.6 3544.89   4
  -4  -4  -5 73118.8 3369.75   5
  -4  -4  -6 1096.26 445.184   4
  -4  -4  -7 32683.2 2370.45   4
  -4  -4  -8 4545.41 905.732   4
  -4  -4  -9 15177.0 1678.73   4
  -4  -4 -10 10560.9 1446.99   4
  -4  -4 -11-2.14987 477.497   4
  -4  -4 -12 469.123 435.348   4
  -4  -4 -13 16863.1 2106.35   4
  -4  -4 -14 845.828 741.356   4
  -4  -4 -15 1420.27 659.031   4
   4   5 -11 7417.00 1918.19   5
   4   5 -10 620.210 639.277   5
   4   5  -9 8975.80 1327.76   1
   4   5  -9 10748.6 2010.25   5
  -4  -5   8 7235.29 1159.74   3
   4   5  -8 3682.63 1138.82   5
   4   5  -7 19039.7 2380.47   5
  -4  -5   7 19959.3 1924.69   3
   4   5  -6 41544.2 3379.13   5
  -4  -5   6 44129.3 2821.90   3
   4   5  -5 10343.7 1579.90   5
  -4  -5   5 10403.8 1281.96   3
   4   5  -4 18843.6 2052.83   5
  -4  -5   4 18780.7 1758.42   3
   4   5  -3 12243.1 1581.05   5
  -4  -5   3 11624.6 1325.72   3
   4   5  -2 10949.3 1452.30   5
  -4  -5   2 12767.1 1389.36   3
   4   5  -1 2903.78 771.120   5
   4   5   0 22923.1 1975.54   5
  -4  -5   0 22725.2 1694.13   5
   4   5   1 763.256 373.683   5
   4   5   2 106.400 287.500   5
   4   5   3 15658.0 1623.00   5
  -4  -5  -4 1118.61 384.210   4
  -4  -5  -5 19791.2 1695.40   4
  -4  -5  -6 4048.46 804.703   4
  -4  -5  -7 35416.1 2427.50   4
  -4  -5  -8 33422.7 2390.08   4
  -4  -5  -9 54395.9 3209.95   4
  -4  -5 -10 7860.24 1240.36   4
  -4  -5 -11 15696.2 1780.21   4
  -4  -5 -12 19002.8 2078.77   4
  -4  -5 -13 11302.8 1667.62   4
  -4  -5 -14 11907.3 1782.03   4
  -4  -5 -15 1414.18 685.808   4
   4   6 -11-1801.14 1014.93   5
   4   6 -10 23797.5 3067.64   5
   4   6  -9 1208.55 576.609   1
   4   6  -9-121.144 463.841   5
  -4  -6   8 1708.92 640.641   3
   4   6  -8 3875.53 1133.64   5
  -4  -6   7 3575.18 909.817   3
   4   6  -7 3778.25 983.041   5
  -4  -6   6 7785.57 1227.67   3
   4   6  -6 7834.83 1349.14   5
   4   6  -5 28133.5 2598.09   5
  -4  -6   5 27990.1 2283.70   3
   4   6  -4 14253.9 1753.43   5
  -4  -6   4 13653.9 1584.75   3
  -4  -6   3 242.497 307.239   3
   4   6  -3 1058.91 551.942   5
   4   6  -2 79212.5 4060.20   5
  -4  -6   2 73696.3 3770.26   3
   4   6  -1 66884.5 3484.28   5
  -4  -6   1 63115.2 3448.62   3
   4   6   0 78617.9 3797.45   5
  -4  -6   0 81430.8 3953.86   3
   4   6   1 12846.1 1436.90   5
  -4  -6  -2 59445.5 2614.22   5
   4   6   2 59425.3 3165.95   5
  -4  -6  -3 244.205 231.213   4
  -4  -6  -3-12.2606 263.879   5
  -4  -6  -4 40973.5 2439.61   4
  -4  -6  -5 27474.9 2004.81   4
  -4  -6  -6 31809.3 2180.88   4
  -4  -6  -7 2352.83 602.630   4
  -4  -6  -8 8921.71 1143.01   4
  -4  -6  -9 937.449 453.677   4
  -4  -6 -10 2032.15 646.110   4
  -4  -6 -11 259.333 417.129   4
  -4  -6 -12 1278.02 648.504   4
  -4  -6 -13 18335.9 2060.10   4
  -4  -6 -14 7318.05 1343.41   4
   4   7 -10 15118.5 2378.36   5
   4   7  -9 14044.3 2187.49   5
   4   7  -8 18821.3 2396.94   5
  -4  -7   8 22984.0 2348.37   3
   4   7  -7 45336.1 3599.85   5
  -4  -7   7 48492.9 3456.73   3
  -4  -7   6 331.204 347.588   3
   4   7  -6 1682.37 775.276   5
  -4  -7   5 8922.30 1352.83   3
   4   7  -5 9483.13 1490.51   5
  -4  -7   4 489.634 411.985   3
   4   7  -4 647.802 383.858   5
  -4  -7   3 5902.60 1080.78   3
   4   7  -3 4502.57 928.239   5
   4   7  -2 13112.4 1452.37   5
  -4  -7   2 10726.1 1423.44   3
  -4  -7   1 575.649 462.152   3
   4   7  -1 569.661 350.076   5
  -4  -7   0 1516.00 644.711   3
   4   7   0 233.889 272.884   5
  -4  -7  -1 2724.01 738.897   3
   4   7   1 2323.77 602.326   5
   4   7   2 36124.7 2044.35   5
  -4  -7  -2 33943.8 2493.28   3
  -4  -7  -3 12154.5 1248.85   4
  -4  -7  -3 10311.8 1323.09   3
  -4  -7  -4 12456.6 1252.07   4
  -4  -7  -4 10534.3 1331.17   3
  -4  -7  -5 12618.6 1264.88   4
  -4  -7  -5 10678.6 1370.26   3
  -4  -7  -6 57315.4 2811.35   4
  -4  -7  -6 50650.5 3067.08   3
  -4  -7  -7 1876.16 602.103   3
  -4  -7  -7 1484.25 434.315   4
  -4  -7  -8 25065.5 1844.35   4
  -4  -7  -8 20507.4 1935.76   3
  -4  -7  -9 4505.49 818.534   4
  -4  -7  -9 4166.04 879.565   3
  -4  -7 -10 26253.9 2228.60   3
  -4  -7 -10 30486.9 2237.21   4
  -4  -7 -11 335.813 469.202   4
  -4  -7 -11 99.1190 355.742   3
  -4  -7 -12 3502.12 819.804   4
  -4  -7 -12 3406.64 865.608   3
  -4  -7 -13 2801.90 786.937   4
   4   8  -9-72.2674 430.577   5
  -4  -8   8 18108.2 2144.41   3
   4   8  -8 15912.2 2123.64   5
  -4  -8   7 43.2420 381.385   3
   4   8  -7 10.5447 338.538   5
   4   8  -6 15088.0 1882.53   5
  -4  -8   6 16243.4 2041.69   3
  -4  -8   5 1888.75 749.428   3
   4   8  -5 1018.03 453.506   5
   4   8  -4 25829.8 2205.71   5
  -4  -8   4 24871.3 2385.33   3
   4   8  -3 56580.4 3168.58   5
  -4  -8   3 51354.0 3424.93   3
   4   8  -2 15181.5 1470.47   5
  -4  -8   2 13588.1 1677.78   3
   4   8  -1 10856.4 1203.54   5
  -4  -8   1 11324.8 1537.89   3
  -4  -8   0 10227.9 1426.77   3
  -4  -8  -1 18157.2 1894.81   3
  -4  -8  -2 153.859 402.962   3
  -4  -8  -2 180.555 211.908   4
  -4  -8  -3 2898.25 740.781   3
  -4  -8  -3 2653.11 575.049   4
  -4  -8  -4 312.944 448.003   3
  -4  -8  -4 371.783 319.772   4
  -4  -8  -5 4852.64 960.615   3
  -4  -8  -5 5147.29 729.612   4
  -4  -8  -6 24618.0 1655.63   4
  -4  -8  -6 25103.0 2173.75   3
  -4  -8  -7-341.028 405.434   3
  -4  -8  -7-12.3619 215.311   4
  -4  -8  -8 3313.68 860.867   3
  -4  -8  -8 3614.80 665.635   4
  -4  -8  -9-446.224 353.611   3
  -4  -8 -10 38782.4 2818.17   3
  -4  -8 -11 2893.77 750.303   3
  -4  -9   8 925.133 605.464   3
  -4  -9   7 6362.05 1306.00   3
  -4  -9   6 5326.61 1226.90   3
  -4  -9   5 1997.46 767.717   3
  -4  -9   4 27821.2 2650.75   3
  -4  -9   3 1153.78 461.535   3
  -4  -9   2 1860.87 766.874   3
  -4  -9   1 29076.9 2614.37   3
  -4  -9   0 9221.85 1460.32   3
  -4  -9  -1 13480.1 1731.16   3
  -4  -9  -2 12548.0 1648.31   3
  -4  -9  -3 128307. 5823.42   3
  -4  -9  -4 641.116 585.000   3
  -4  -9  -5 4010.70 940.355   3
  -4  -9  -6 1926.03 706.670   3
  -4  -9  -7 50757.6 3333.73   3
  -4  -9  -8 4195.94 962.598   3
  -4  -9  -9 6143.81 1179.18   3
  -4  -9 -10 4341.77 1067.76   3
  -4  -9 -11-38.1807 311.714   3
  -4 -10   7 23331.8 2601.73   3
  -4 -10   6 9301.22 1618.59   3
  -4 -10   5 13691.8 1970.78   3
  -4 -10   4 33191.7 3091.31   3
  -4 -10   3 1261.10 709.903   3
  -4 -10   2 11050.4 1703.46   3
  -4 -10   1 3583.72 1027.58   3
  -4 -10   0 3542.50 926.826   3
  -4 -10  -1 6889.46 1325.93   3
  -4 -10  -2 711.417 568.767   3
  -4 -10  -3-323.513 427.996   3
  -4 -10  -4 3298.06 978.906   3
  -4 -10  -5 14632.1 1860.99   3
  -4 -10  -6 3413.34 896.377   3
  -4 -10  -7 13037.4 1744.89   3
  -4 -10  -8 15111.4 1880.79   3
  -4 -10  -9 18460.1 2162.60   3
  -4 -10 -10 1890.76 789.187   3
  -4 -11   3 11655.7 1878.17   3
  -4 -11   2 1341.30 720.526   3
  -4 -11   1 23471.6 2599.92   3
  -4 -11   0 18202.4 2260.12   3
  -4 -11  -1 3713.70 1029.71   3
  -4 -11  -2 16533.9 2103.39   3
  -4 -11  -3 14567.8 2002.71   3
  -4 -11  -4 4003.72 1073.35   3
  -4 -11  -5-852.954 582.717   3
  -4 -11  -6 5146.00 1213.07   3
  -4 -11  -7 1367.81 568.048   3
  -4 -11  -8-634.943 584.513   3
  -4 -11  -9 4447.07 1082.00   3
   5 -11  -1-413.374 589.424   5
  -5  11   0 4893.77 1113.16   2
   5 -11   0 5544.53 1359.64   5
  -5  11  -1 9844.89 1487.32   2
   5 -11   1 11826.3 1902.43   5
  -5  11  -2 486.040 352.335   2
  -5  11  -3 6337.38 1105.25   2
   5 -10  -5 9355.76 1994.50   5
   5 -10  -4 8259.41 1778.95   5
   5 -10  -3 1784.36 922.159   5
   5 -10  -2 2739.92 1074.98   5
   5 -10  -1 439.186 650.258   5
   5 -10   0-1167.28 715.698   5
   5 -10   1-120.718 447.210   5
  -5  10  -2 1643.85 607.776   2
   5 -10   2 2764.81 970.165   5
  -5  10  -3 381.709 376.120   2
   5  -9  -6 4591.58 1378.02   5
   5  -9  -5 7960.17 1824.84   5
   5  -9  -4-1550.93 873.071   5
   5  -9  -3 7282.01 1701.99   5
   5  -9  -2 31353.6 3422.18   5
   5  -9  -1-564.116 647.067   5
   5  -9   0 4880.50 1382.55   5
  -5   9  -1 2056.32 595.607   4
   5  -9   1 1470.56 791.440   5
  -5   9  -2 47542.3 2853.67   4
   5  -9   2 47187.8 3975.09   5
  -5   9  -3 119.552 280.787   4
  -5   9  -4 5324.59 949.727   4
  -5   9  -5 9546.69 1233.97   4
  -5   9  -6 3316.99 787.332   4
  -5   9  -7-471.867 452.000   4
  -5   9  -8 741.118 309.078   4
  -5   9  -9 3296.87 797.293   4
  -5   9 -10 1711.55 696.407   4
   5  -8  -7 6106.99 1654.78   5
   5  -8  -6 993.144 812.001   5
   5  -8  -5 23204.1 3132.13   5
   5  -8  -4 1682.46 997.835   5
   5  -8  -3 1037.51 730.283   5
   5  -8  -2 1103.19 676.701   5
   5  -8  -1-136.369 559.689   5
   5  -8   0 421.940 654.521   5
   5  -8   1 69.1715 581.475   5
  -5   8  -2-131.464 269.603   4
   5  -8   2-63.3938 631.776   5
  -5   8  -3 5704.46 970.663   4
   5  -8   3 6443.28 1574.47   5
  -5   8  -4 23351.5 2039.25   4
  -5   8  -5 1559.36 564.475   4
  -5   8  -6 11137.4 1431.65   4
  -5   8  -7 1249.86 547.855   4
  -5   8  -8 15820.8 1756.65   4
  -5   8  -9 2569.79 767.805   4
  -5   8 -10 9909.51 1489.64   4
  -5   8 -11 1918.39 747.166   4
   5  -7  -8 3978.62 1368.17   5
   5  -7  -7 416.214 599.830   5
   5  -7  -6 14011.7 2501.64   5
   5  -7  -5 2448.94 1196.92   5
   5  -7  -4 10191.8 2036.55   5
   5  -7  -3 551.031 558.982   5
   5  -7  -2 5781.88 1506.99   5
   5  -7  -1 25341.6 3154.04   5
   5  -7   0 3851.12 1252.33   5
   5  -7   1 2394.88 1145.76   5
  -5   7  -2 1980.28 600.044   4
   5  -7   2 2365.01 1048.02   5
  -5   7  -3 1658.29 593.728   4
   5  -7   3 1590.27 926.922   5
  -5   7  -4 966.689 460.278   4
   5  -7   4-310.474 551.923   5
  -5   7  -5 255.680 367.633   4
  -5   7  -6 1360.20 564.817   4
  -5   7  -7 462.918 415.534   4
  -5   7  -8 22893.4 2201.48   4
  -5   7  -9 541.670 470.168   4
  -5   7 -10 13961.5 1799.81   4
  -5   7 -11 356.936 376.182   4
   5  -6  -8 1790.79 986.691   5
   5  -6  -7 1588.30 998.828   5
   5  -6  -6 1549.06 937.540   5
   5  -6  -5 7194.44 1733.19   5
   5  -6  -4 5324.82 1529.83   5
   5  -6  -3-252.413 544.348   5
   5  -6  -2 11101.0 2099.53   5
   5  -6  -1 6540.45 1650.41   5
   5  -6   0 44353.2 4199.98   5
   5  -6   1 26986.4 3265.45   5
   5  -6   2 2645.98 1014.40   5
  -5   6  -3 41106.8 2802.23   4
   5  -6   3 42648.2 4001.74   5
  -5   6  -4 22893.0 2062.24   4
   5  -6   4 21975.5 2877.21   5
  -5   6  -5 47116.0 3101.47   4
  -5   6  -6 6413.75 1164.11   4
  -5   6  -7 27618.6 2459.93   4
  -5   6  -8-225.631 400.739   4
  -5   6  -9 1859.05 755.057   4
  -5   6 -10 4212.98 932.000   4
  -5   6 -11 13063.1 1804.38   4
  -5   6 -12 452.212 516.021   4
   5  -5  -9 20675.0 3112.09   5
   5  -5  -8 9069.94 2058.78   5
   5  -5  -7 45372.6 4422.98   5
   5  -5  -6 3810.80 1278.61   5
   5  -5  -5 7087.01 1672.19   5
   5  -5  -4 17189.2 2606.26   5
   5  -5  -3 13637.1 2346.24   5
   5  -5  -2 29128.8 3391.77   5
   5  -5  -1 2894.61 1168.45   5
   5  -5   0 6236.14 1600.25   5
   5  -5   1 2274.18 1017.87   5
   5  -5   2 1546.78 1001.68   5
   5  -5   3 1478.62 917.680   5
  -5   5  -4 1235.93 498.106   4
   5  -5   4 2558.09 1087.53   5
  -5   5  -5 1091.82 531.164   4
   5  -5   5 184.114 401.801   5
  -5   5  -6 8716.14 1349.34   4
  -5   5  -7 21513.4 2167.15   4
  -5   5  -8 657.711 483.396   4
  -5   5  -9 15334.6 1944.49   4
  -5   5 -10 6824.60 1345.72   4
  -5   5 -11 25624.0 2599.49   4
  -5   5 -12 1705.20 744.719   4
   5  -4  -9-1474.35 931.311   5
   5  -4  -8 1609.73 1113.64   5
   5  -4  -7 267.452 557.823   5
   5  -4  -6-337.482 882.899   5
   5  -4  -5 6005.87 1649.06   5
   5  -4  -4 1545.15 885.706   5
   5  -4  -3 30776.0 3451.45   5
   5  -4  -2 2122.62 882.206   5
   5  -4  -1 10744.0 2086.96   5
   5  -4   0 3372.94 1202.19   5
   5  -4   1 21748.1 2977.70   5
   5  -4   2 37967.2 3947.99   5
   5  -4   3 1411.54 739.615   5
  -5   4  -4 13280.6 1605.72   4
   5  -4   4 13226.3 2272.27   5
  -5   4  -5 5130.10 995.984   4
   5  -4   5 5992.44 1572.27   5
  -5   4  -6 616.101 478.614   4
  -5   4  -7-150.688 318.154   4
  -5   4  -8 799.961 486.685   4
  -5   4  -9-599.323 481.252   4
  -5   4 -10 1096.25 641.697   4
  -5   4 -11 26701.2 2698.79   4
  -5   4 -12 431.423 479.676   4
  -5   4 -13 12357.9 2015.21   4
   5  -3  -9 3443.82 1352.20   5
   5  -3  -8 15919.5 2599.40   5
   5  -3  -7 2916.58 1226.57   5
   5  -3  -6 17322.9 2616.46   5
   5  -3  -5 9810.69 1946.65   5
   5  -3  -4 1209.72 810.348   5
   5  -3  -3 8813.98 1852.06   5
   5  -3  -2 1371.36 857.045   5
   5  -3  -1 255.919 457.677   5
   5  -3   0 6588.05 1673.93   5
   5  -3   1 50473.5 2257.05   1
   5  -3   1 53991.6 4644.34   5
   5  -3   2 1005.17 394.338   1
   5  -3   2 493.124 640.151   5
   5  -3   3 31076.3 3520.68   5
  -5   3  -4 57965.1 3460.40   4
   5  -3   4 58071.1 4811.55   5
  -5   3  -5 7849.12 1245.09   4
   5  -3   5 9473.40 1951.73   5
  -5   3  -6 16223.9 1818.24   4
  -5   3  -7 5266.74 1097.54   4
  -5   3  -8 120399. 5706.44   4
  -5   3  -9 1636.15 570.514   4
  -5   3 -10 5583.67 1230.30   4
  -5   3 -11 6570.54 1372.46   4
  -5   3 -12 14011.1 2007.98   4
  -5   3 -13 12.6685 546.639   4
   5  -2  -9 3801.23 1435.95   5
   5  -2  -8 5186.77 1589.16   5
   5  -2  -7 1430.67 943.312   5
   5  -2  -6 68078.2 5229.17   5
   5  -2  -5 758.397 771.439   5
   5  -2  -4 68702.0 5110.23   5
   5  -2  -3 25780.7 3065.04   5
   5  -2  -2 45881.5 4098.84   5
   5  -2  -1 7239.26 617.792   1
   5  -2  -1 8546.31 1804.14   5
   5  -2   0 15911.0 1103.16   1
   5  -2   0 14939.6 2313.52   5
   5  -2   1 69017.4 5165.65   5
   5  -2   1 71008.5 2865.85   1
   5  -2   2 226.672 225.692   1
   5  -2   2 22.3801 414.324   5
   5  -2   3 7376.03 1700.89   5
   5  -2   4 654.072 781.245   5
  -5   2  -5 267.415 348.502   4
   5  -2   5 561.353 537.230   5
  -5   2  -6 3.94839 344.391   4
  -5   2  -7 2803.14 790.259   4
  -5   2  -8 311.044 305.215   4
  -5   2  -9 4686.76 1097.57   4
  -5   2 -10 30534.0 2812.57   4
  -5   2 -11 980.966 590.274   4
  -5   2 -12 16309.0 2231.26   4
  -5   2 -13 2732.93 996.158   4
   5  -1 -10-1238.71 1003.94   5
   5  -1  -9 17660.0 2931.50   5
   5  -1  -8 4126.59 1466.00   5
   5  -1  -7 4114.52 1327.83   5
   5  -1  -6 2435.82 1018.55   5
   5  -1  -5 135.353 461.006   5
   5  -1  -4 863.687 767.702   5
   5  -1  -3 986.408 683.399   5
   5  -1  -2 16603.6 2396.75   5
   5  -1  -1-497.100 552.497   5
   5  -1   0 32071.1 3353.14   5
   5  -1   1 8772.71 1733.19   5
   5  -1   2 23240.5 2892.83   5
   5  -1   3 1698.06 852.267   5
   5  -1   4 10789.6 1986.69   5
  -5   1  -5 33999.6 2570.50   4
   5  -1   5 35442.9 3635.87   5
  -5   1  -6 1769.90 698.949   4
  -5   1  -7 8623.20 1388.85   4
  -5   1  -8 5160.77 1149.17   4
  -5   1  -9 1261.41 644.230   4
  -5   1 -10-612.303 520.027   4
  -5   1 -11 516.906 610.854   4
  -5   1 -12-108.356 407.065   4
  -5   1 -13 1300.34 826.561   4
   5   0 -10 17939.1 3188.93   5
   5   0  -9 18159.4 2999.79   5
   5   0  -8-1401.34 885.659   5
   5   0  -7 18359.7 2743.58   5
   5   0  -6 747.552 679.836   5
   5   0  -5 22643.7 2838.99   5
   5   0  -4 1050.06 682.152   5
   5   0  -3 48421.2 4076.42   5
   5   0  -2 710.376 571.116   5
   5   0  -1 8939.36 1731.55   5
   5   0   0 667.769 497.657   5
   5   0   1 7799.24 1612.35   5
   5   0   2 3591.49 1216.62   5
   5   0   3 1355.92 591.405   5
   5   0   4 16065.1 2358.89   5
  -5   0  -5 13381.2 1582.39   4
   5   0   5 15118.0 2340.06   5
  -5   0  -6 67033.3 3816.89   4
  -5   0  -7 11380.5 1586.54   4
  -5   0  -8 176.076 332.434   4
  -5   0  -9 28840.2 2690.08   4
  -5   0 -10 35763.6 3066.54   4
  -5   0 -11 65176.0 4347.72   4
  -5   0 -12 2416.10 854.699   4
  -5   0 -13 20729.5 2520.00   4
   5   1 -10 5715.00 1778.24   5
   5   1  -9 2813.24 1316.36   5
   5   1  -8 11359.0 2252.36   5
   5   1  -7 12504.8 2212.14   5
   5   1  -6 1011.37 632.975   5
   5   1  -5 27860.2 3131.27   5
   5   1  -4 15089.0 2236.15   5
   5   1  -3 40778.2 3644.13   5
   5   1  -2 10495.8 1802.03   5
   5   1  -1 95695.7 5613.32   5
   5   1   0 6439.35 1392.12   5
   5   1   1 42059.1 3628.17   5
   5   1   2 17299.3 2337.50   5
   5   1   3 29220.7 3155.59   5
   5   1   4 37080.1 3457.16   5
   5   1   5 98.2010 585.465   5
  -5  -1  -5 380.305 435.678   4
  -5  -1  -6 9849.44 1416.78   4
  -5  -1  -7 2562.69 773.874   4
  -5  -1  -8 467.829 440.430   4
  -5  -1  -9 949.231 585.129   4
  -5  -1 -10 3402.38 952.887   4
  -5  -1 -11-213.634 535.856   4
  -5  -1 -12 4680.96 1231.62   4
  -5  -1 -13 15221.4 2114.11   4
  -5  -1 -14-410.776 555.711   4
   5   2 -10 15777.5 2999.54   5
   5   2  -9 5544.52 1698.74   5
   5   2  -8 16479.3 2694.73   5
  -5  -2   7-213.518 287.302   3
   5   2  -7-367.254 553.051   5
   5   2  -6 36765.2 3686.61   5
   5   2  -5 1944.60 899.650   5
   5   2  -4 3999.64 1164.07   5
   5   2  -3 2389.62 852.902   5
   5   2  -2 1475.68 714.687   5
   5   2  -1 657.530 506.621   5
   5   2   0 6549.21 1366.55   5
   5   2   1 4667.01 1209.33   5
   5   2   2 654.091 552.230   5
   5   2   3 53650.5 4150.99   5
   5   2   4 2084.18 852.156   5
  -5  -2  -5 22468.5 2060.97   4
   5   2   5 25595.6 2791.67   5
  -5  -2  -6 4066.44 850.055   4
  -5  -2  -7 26394.1 2326.65   4
  -5  -2  -8 20263.9 2072.83   4
  -5  -2  -9 125.637 307.229   4
  -5  -2 -10 14056.5 1798.48   4
  -5  -2 -11 7481.35 1376.65   4
  -5  -2 -12 1937.58 768.105   4
  -5  -2 -13 2431.74 892.108   4
  -5  -2 -14-57.9232 512.245   4
   5   3 -10 5141.87 1728.97   5
   5   3  -9 1807.81 1044.66   5
   5   3  -8 1769.77 823.068   5
   5   3  -7 16495.5 2544.25   5
  -5  -3   7 22592.1 1917.50   3
   5   3  -6 41094.8 3821.90   5
  -5  -3   6 45988.9 2770.65   3
   5   3  -5 3535.65 1152.11   5
   5   3  -4 7159.09 1521.47   5
   5   3  -3 3756.09 1056.24   5
   5   3  -2 52425.3 3908.24   5
   5   3  -1 325.709 351.430   5
   5   3   0 32569.7 2985.79   5
   5   3   1 20023.0 2344.68   5
   5   3   2 1392.87 628.877   5
   5   3   3 22127.0 2497.47   5
   5   3   4 467.258 546.067   5
  -5  -3  -5 8912.06 1274.55   4
   5   3   5 7969.67 1521.29   5
  -5  -3  -6 231.973 284.147   4
  -5  -3  -7 39075.7 2809.78   4
  -5  -3  -8 493.986 398.151   4
  -5  -3  -9 28295.9 2431.73   4
  -5  -3 -10 35499.4 2817.10   4
  -5  -3 -11 10658.5 1612.90   4
  -5  -3 -12 4299.54 1056.92   4
  -5  -3 -13 4387.74 1085.96   4
  -5  -3 -14 66778.0 4528.12   4
   5   4  -9 4775.79 1516.91   5
   5   4  -8 239.197 498.363   5
  -5  -4   7 793.697 441.744   3
   5   4  -7 1289.32 836.958   5
  -5  -4   6 2108.25 647.215   3
   5   4  -6 1414.66 706.358   5
  -5  -4   5 875.342 491.546   3
   5   4  -5 1367.95 754.500   5
   5   4  -4 43998.6 3664.96   5
   5   4  -3 18982.6 2306.43   5
   5   4  -2 15781.4 2088.64   5
   5   4  -1 13644.1 1891.13   5
   5   4   0 84873.5 4916.70   5
   5   4   1-323.210 383.356   5
   5   4   2 64403.3 4230.00   5
   5   4   3 17834.3 2130.93   5
  -5  -4  -4 61973.9 3380.73   4
   5   4   4 60526.5 3978.66   5
  -5  -4  -5 2707.34 693.219   4
  -5  -4  -6 24961.0 2129.66   4
  -5  -4  -7 34190.0 2544.02   4
  -5  -4  -8 1133.29 481.415   4
  -5  -4  -9 4789.50 937.073   4
  -5  -4 -10 3169.35 838.585   4
  -5  -4 -11 2353.53 779.683   4
  -5  -4 -12 753.704 535.623   4
  -5  -4 -13 1960.83 784.072   4
  -5  -4 -14 940.897 637.679   4
   5   5  -9 29286.7 3589.82   5
   5   5  -8 17637.1 2617.40   5
   5   5  -7 23738.5 2913.18   5
  -5  -5   7 25943.3 2260.00   3
  -5  -5   6 4538.41 916.368   3
   5   5  -6 3950.59 1157.61   5
   5   5  -5 34603.5 3291.95   5
  -5  -5   5 33806.0 2499.24   3
  -5  -5   4 503.573 406.340   3
   5   5  -4 552.103 468.498   5
   5   5  -3 36466.8 3159.78   5
  -5  -5   3 31189.6 2409.37   3
   5   5  -2 7673.80 1412.34   5
   5   5  -1 15258.3 1943.87   5
   5   5   0 2407.87 795.250   5
   5   5   1 446.714 361.733   5
   5   5   2 386.322 404.527   5
   5   5   3 2257.35 750.062   5
  -5  -5  -4 8341.99 1182.56   4
   5   5   4 9389.17 1461.79   5
  -5  -5  -5 600.097 307.416   4
  -5  -5  -6 12374.5 1480.73   4
  -5  -5  -7 2536.03 735.679   4
  -5  -5  -8 28287.9 2300.54   4
  -5  -5  -9 830.295 454.247   4
  -5  -5 -10 14442.4 1726.52   4
  -5  -5 -11 11063.5 1554.31   4
  -5  -5 -12 1194.88 648.065   4
  -5  -5 -13 6559.31 1255.80   4
   5   6  -9-1249.98 826.706   5
   5   6  -8 3932.09 1140.59   5
  -5  -6   7 2507.62 748.788   3
   5   6  -7 1693.15 844.877   5
  -5  -6   6-150.097 447.673   3
   5   6  -6 882.383 650.704   5
  -5  -6   5 3312.25 794.678   3
   5   6  -5 3483.48 1044.74   5
   5   6  -4 38257.8 3281.93   5
  -5  -6   4 32570.5 2549.83   3
   5   6  -3 31335.0 2858.06   5
  -5  -6   3 26810.4 2341.10   3
  -5  -6   2 144.333 352.127   3
   5   6  -2 96.6261 498.921   5
   5   6  -1 20931.9 2154.06   5
  -5  -6   1 20455.1 1962.14   3
   5   6   0 3815.87 888.570   5
   5   6   1 14920.2 1818.98   5
   5   6   2 4735.32 1022.98   5
   5   6   3 66669.9 3772.70   5
  -5  -6  -4-83.1227 280.926   4
  -5  -6  -5 8619.42 1201.91   4
  -5  -6  -6 1305.05 569.439   4
  -5  -6  -7 6764.69 1081.17   4
  -5  -6  -8 990.934 462.709   4
  -5  -6  -9 5020.14 982.665   4
  -5  -6 -10 7133.24 1199.61   4
  -5  -6 -11 10096.5 1390.63   4
  -5  -6 -12 37139.7 2852.99   4
  -5  -6 -13 3151.00 947.576   4
   5   7  -8 9241.59 1799.12   5
  -5  -7   7 10269.8 1545.47   3
   5   7  -7 9806.21 1804.05   5
  -5  -7   6 239.116 423.914   3
   5   7  -6 1336.98 734.109   5
  -5  -7   5 1734.31 699.348   3
   5   7  -5 2589.81 913.832   5
  -5  -7   4 1640.49 599.254   3
   5   7  -4 878.515 498.441   5
  -5  -7   3 374.876 470.131   3
   5   7  -3 1420.37 624.687   5
   5   7  -2 8202.44 1314.75   5
  -5  -7   2 9170.73 1409.40   3
   5   7  -1 13077.1 1652.99   5
  -5  -7   1 13426.5 1655.17   3
  -5  -7   0 1780.90 672.553   3
   5   7   0 1108.84 418.146   5
   5   7   1 27646.4 2367.32   5
  -5  -7  -1 27094.7 2325.24   3
   5   7   2 35466.9 2504.31   5
  -5  -7  -2 35446.0 2660.39   3
  -5  -7  -3 40733.8 2630.18   4
  -5  -7  -4 2169.59 586.423   4
  -5  -7  -5 60429.8 3274.40   4
  -5  -7  -6 3946.19 805.803   4
  -5  -7  -7 48783.9 2903.13   4
  -5  -7  -8 8839.25 1201.47   4
  -5  -7  -9 25824.1 2111.04   4
  -5  -7 -10 10548.7 1374.23   4
  -5  -7 -11 46.1536 342.303   4
  -5  -7 -12 2306.51 737.326   3
  -5  -8   7 33262.7 3045.24   3
  -5  -8   6 15200.3 1954.58   3
  -5  -8   5 11259.8 1642.40   3
  -5  -8   4 29246.9 2630.72   3
  -5  -8   3 25471.4 2445.05   3
  -5  -8   2 33876.1 2788.24   3
  -5  -8   1 174.689 359.502   3
  -5  -8   0 28719.0 2516.68   3
  -5  -8  -1 1489.00 656.089   3
  -5  -8  -2 8501.50 1232.36   4
  -5  -8  -2 7991.73 1320.01   3
  -5  -8  -3 1010.32 531.311   3
  -5  -8  -3 276.246 257.413   4
  -5  -8  -4 5182.82 1024.80   3
  -5  -8  -4 6073.67 950.163   4
  -5  -8  -5-228.292 333.339   3
  -5  -8  -5 875.767 425.032   4
  -5  -8  -6 5668.56 1108.91   3
  -5  -8  -6 4681.90 797.392   4
  -5  -8  -7 4134.42 982.726   3
  -5  -8  -8 365.966 441.295   3
  -5  -8  -9 9812.69 1436.39   3
  -5  -8 -10 3150.31 842.242   3
  -5  -8 -11 10996.8 1570.35   3
  -5  -9   6 308.273 537.180   3
  -5  -9   5 692.669 524.048   3
  -5  -9   4 4532.72 1161.13   3
  -5  -9   3 763.981 630.071   3
  -5  -9   2 646.685 490.713   3
  -5  -9   1 17380.1 2079.91   3
  -5  -9   0 62630.1 4048.82   3
  -5  -9  -1 2718.97 833.124   3
  -5  -9  -2 4233.92 1004.20   3
  -5  -9  -3 122.266 500.064   3
  -5  -9  -4 23712.2 2309.44   3
  -5  -9  -5 1656.78 723.868   3
  -5  -9  -6 9279.52 1429.72   3
  -5  -9  -7 5165.29 1093.41   3
  -5  -9  -8 2864.25 822.014   3
  -5  -9  -9 10544.3 1534.28   3
  -5  -9 -10-1198.60 598.417   3
  -5  -9 -11 2360.10 672.346   3
  -5 -10   1 1109.44 692.200   3
  -5 -10   0 1574.23 726.787   3
  -5 -10  -1 3384.85 995.092   3
  -5 -10  -2 13080.5 1806.51   3
  -5 -10  -3 3863.21 973.658   3
  -5 -10  -4 6726.55 1297.61   3
  -5 -10  -5 15439.4 1940.24   3
  -5 -10  -6 33665.6 2876.59   3
   6  -9  -1 10286.9 2190.56   5
   6  -9   0-472.098 703.754   5
  -6   9  -1 4390.93 924.329   4
   6  -9   1 4022.78 1320.45   5
  -6   9  -2 703.591 434.128   4
   6  -9   2 567.906 646.610   5
  -6   9  -3 616.835 431.524   4
   6  -9   3 2529.61 1156.94   5
  -6   9  -4 316.743 359.585   4
  -6   9  -5 2527.15 733.848   4
  -6   9  -6 1533.37 632.504   4
  -6   9  -7 689.327 505.605   4
   6  -8  -3 476.633 721.026   5
   6  -8  -2 1973.33 1100.85   5
   6  -8  -1-197.538 930.149   5
   6  -8   0 1804.60 1307.43   5
   6  -8   1 22309.9 3156.67   5
  -6   8  -2 5058.79 1022.11   4
   6  -8   2 4210.75 1440.16   5
  -6   8  -3 8457.76 1254.89   4
   6  -8   3 9480.84 2075.80   5
  -6   8  -4-252.631 371.263   4
  -6   8  -5 26296.6 2329.67   4
  -6   8  -6 90.1890 349.587   4
  -6   8  -7 11977.1 1627.77   4
  -6   8  -8 8437.04 1421.74   4
   6  -7  -4 11685.8 2440.54   5
   6  -7  -3 6509.99 1844.53   5
   6  -7  -2 15689.2 2804.89   5
   6  -7  -1 1228.13 974.170   5
   6  -7   0 6235.96 1749.63   5
   6  -7   1 839.880 813.925   5
  -6   7  -2 8292.86 1294.06   4
   6  -7   2 7599.81 1897.59   5
  -6   7  -3 1316.00 563.098   4
   6  -7   3 3133.43 1230.59   5
  -6   7  -4-9.88054 303.872   4
   6  -7   4 2631.43 1193.26   5
  -6   7  -5 2980.97 779.677   4
  -6   7  -6-241.762 434.750   4
  -6   7  -7 2807.31 884.836   4
  -6   7  -8-110.415 440.126   4
  -6   7  -9 5317.52 1148.56   4
   6  -6  -5 1123.04 903.179   5
   6  -6  -4-20.6422 677.176   5
   6  -6  -3 8972.21 2129.43   5
   6  -6  -2 8844.89 2093.04   5
   6  -6  -1 292.891 929.659   5
   6  -6   0 6252.04 1818.99   5
   6  -6   1 8863.50 2113.82   5
   6  -6   2 28921.8 3740.87   5
  -6   6  -3 1184.61 596.331   4
   6  -6   3-990.108 887.028   5
  -6   6  -4 14935.8 1742.49   4
   6  -6   4 19014.6 2971.64   5
  -6   6  -5 1383.80 647.390   4
   6  -6   5 1415.23 970.141   5
  -6   6  -6 381.968 523.847   4
  -6   6  -7-681.173 481.153   4
  -6   6  -8 10868.5 1615.93   4
  -6   6  -9 2462.48 958.477   4
  -6   6 -10 3781.00 1079.45   4
   6  -5  -6 13461.9 2623.01   5
   6  -5  -5 7105.45 1967.58   5
   6  -5  -4 2042.53 1182.40   5
   6  -5  -3 4550.99 1519.22   5
   6  -5  -2 2249.66 1158.76   5
   6  -5  -1 1503.94 850.731   5
   6  -5   0-2640.70 1233.45   5
   6  -5   1 1083.72 885.598   5
   6  -5   2-289.853 890.886   5
   6  -5   3 18249.0 2959.41   5
  -6   5  -4 7910.67 1322.42   4
   6  -5   4 10758.1 2329.17   5
  -6   5  -5-64.0142 381.685   4
   6  -5   5 1422.67 835.515   5
  -6   5  -6 27312.2 2501.67   4
  -6   5  -7 14673.3 1872.59   4
  -6   5  -8 12150.2 1774.57   4
  -6   5  -9-143.189 438.099   4
  -6   5 -10 28921.4 2793.16   4
   6  -4  -6 23425.8 3398.75   5
   6  -4  -5 2104.17 1185.56   5
   6  -4  -4 24727.1 3532.52   5
   6  -4  -3 1165.97 839.874   5
   6  -4  -2 25431.0 3533.31   5
   6  -4  -1 16456.0 2855.22   5
   6  -4   0 13396.4 2571.57   5
   6  -4   1 33355.1 4094.05   5
   6  -4   2 5913.33 1799.01   5
   6  -4   3 9991.99 2371.20   5
  -6   4  -4 1902.46 672.539   4
   6  -4   4 1203.73 954.714   5
  -6   4  -5 8008.65 1315.08   4
   6  -4   5 11360.7 2394.89   5
  -6   4  -6 312.479 274.702   4
  -6   4  -7 441.403 447.984   4
  -6   4  -8 3482.50 1020.60   4
  -6   4  -9 1186.59 658.320   4
  -6   4 -10 5392.40 1234.55   4
  -6   4 -11 1625.41 752.049   4
   6  -3  -7 1754.10 1212.79   5
   6  -3  -6-456.625 647.351   5
   6  -3  -5 2931.94 1213.11   5
   6  -3  -4-43.4384 671.282   5
   6  -3  -3 4385.70 1533.87   5
   6  -3  -2-300.906 621.303   5
   6  -3  -1-557.896 833.520   5
   6  -3   0 19799.1 3111.09   5
   6  -3   1 11970.4 2447.74   5
   6  -3   2 1506.17 1070.95   5
   6  -3   3 3240.56 1354.05   5
  -6   3  -4 11894.3 1630.67   4
   6  -3   4 11998.8 2360.68   5
  -6   3  -5 35467.5 2810.78   4
   6  -3   5 43633.5 4491.59   5
  -6   3  -6 1293.49 562.719   4
  -6   3  -7 15539.2 1902.09   4
  -6   3  -8 2370.37 802.990   4
  -6   3  -9 2807.08 947.934   4
  -6   3 -10-970.125 613.307   4
  -6   3 -11 7118.47 1437.46   4
   6  -2  -7 15520.0 2875.74   5
   6  -2  -6 10915.1 2314.95   5
   6  -2  -5 22022.9 3215.12   5
   6  -2  -4 141.354 556.839   5
   6  -2  -3 2216.50 1051.23   5
   6  -2  -2 27683.0 3553.89   5
   6  -2  -1 2906.41 1346.39   5
   6  -2   0 3005.52 1164.41   5
   6  -2   1-384.917 787.607   5
   6  -2   2 2074.87 967.312   5
   6  -2   3 1129.23 828.807   5
   6  -2   4 6617.36 1774.66   5
  -6   2  -5 3681.91 896.440   4
   6  -2   5 4067.75 1490.25   5
  -6   2  -6 7030.78 1220.85   4
   6  -2   6 9710.20 2159.74   5
  -6   2  -7 24970.1 2381.92   4
  -6   2  -8 6204.38 1172.26   4
  -6   2  -9 11526.5 1694.98   4
  -6   2 -10 5123.70 1202.84   4
  -6   2 -11 35569.0 3175.24   4
   6  -1  -7 671.995 671.977   5
   6  -1  -6 2555.38 869.384   5
   6  -1  -5-309.660 577.805   5
   6  -1  -4 59.4639 556.839   5
   6  -1  -3 38677.3 4098.41   5
   6  -1  -2 1836.53 1050.78   5
   6  -1  -1 37075.3 4044.54   5
   6  -1   0 30.4937 747.463   5
   6  -1   1 45350.8 4477.33   5
   6  -1   2 25969.4 3336.04   5
   6  -1   3 5539.75 1653.75   5
   6  -1   4 19154.2 2851.99   5
  -6   1  -5 8937.02 1372.15   4
   6  -1   5 7770.14 1853.80   5
  -6   1  -6 25156.9 2289.42   4
   6  -1   6 24640.2 3335.61   5
  -6   1  -7 3763.46 921.710   4
  -6   1  -8 4463.97 1053.27   4
  -6   1  -9 1517.63 692.316   4
  -6   1 -10 42.0948 514.114   4
  -6   1 -11 3549.38 1044.81   4
  -6   1 -12 479.788 544.022   4
   6   0  -7 1649.28 973.193   5
   6   0  -6 44327.8 4612.32   5
   6   0  -5 2496.52 1222.07   5
   6   0  -4 3374.39 1253.60   5
   6   0  -3-132.379 504.460   5
   6   0  -2 3117.63 1298.42   5
   6   0  -1 6028.80 1599.20   5
   6   0   0 1956.32 1089.78   5
   6   0   1-48.2650 633.880   5
   6   0   2 39.9456 570.029   5
   6   0   3 29592.0 3508.91   5
   6   0   4 9563.69 1988.57   5
   6   0   5 1976.62 944.098   5
  -6   0  -5 941.022 460.279   4
  -6   0  -6 1576.11 584.208   4
   6   0   6 3650.03 1332.58   5
  -6   0  -7 19390.5 2075.77   4
  -6   0  -8 35374.8 2949.74   4
  -6   0  -9 715.258 543.914   4
  -6   0 -10 16446.4 2122.96   4
  -6   0 -11 872.225 654.746   4
  -6   0 -12 1495.72 695.556   4
   6   1  -7 8108.54 2031.58   5
   6   1  -6 8112.48 2009.84   5
   6   1  -5 3870.48 1351.94   5
   6   1  -4 44134.4 4344.02   5
   6   1  -3 1233.41 805.479   5
   6   1  -2 8074.25 1865.14   5
   6   1  -1 4793.59 1380.61   5
   6   1   0 30598.1 3450.99   5
   6   1   1 7431.49 1737.97   5
   6   1   2 3812.28 1300.35   5
   6   1   3 18335.3 2654.73   5
   6   1   4 5228.70 1424.99   5
   6   1   5 595.060 512.966   5
  -6  -1  -5 763.875 508.895   4
  -6  -1  -6 1423.92 588.956   4
  -6  -1  -7 316.258 438.092   4
  -6  -1  -8-312.975 471.530   4
  -6  -1  -9 22354.9 2336.47   4
  -6  -1 -10 3197.42 899.689   4
  -6  -1 -11-297.960 564.325   4
  -6  -1 -12 14517.4 1997.98   4
   6   2  -7 1598.09 834.105   5
   6   2  -6 1071.86 952.709   5
   6   2  -5 769.463 659.885   5
   6   2  -4 69.4308 497.073   5
   6   2  -3 3836.14 1237.72   5
   6   2  -2 2365.10 1033.39   5
   6   2  -1 4751.59 1420.57   5
   6   2   0 21967.7 2850.92   5
   6   2   1 999.847 685.559   5
   6   2   2 49175.0 4290.42   5
   6   2   3 833.061 649.141   5
   6   2   4 51725.8 4287.79   5
  -6  -2  -5 10794.3 1549.84   4
   6   2   5 11208.5 1991.35   5
  -6  -2  -6 9131.88 1390.28   4
  -6  -2  -7 26695.0 2392.60   4
  -6  -2  -8 12755.4 1671.99   4
  -6  -2  -9 13643.6 1796.60   4
  -6  -2 -10 5228.62 1156.57   4
  -6  -2 -11 6802.22 1369.52   4
  -6  -2 -12 187.045 459.001   4
   6   3  -7 20100.9 3061.97   5
  -6  -3   6 2793.55 749.917   3
   6   3  -6 2594.43 1032.40   5
   6   3  -5 18017.5 2755.38   5
   6   3  -4 54.6689 393.405   5
   6   3  -3 74422.6 5390.10   5
   6   3  -2 3849.40 1238.89   5
   6   3  -1 5249.66 1457.33   5
   6   3   0 2118.79 915.256   5
   6   3   1 8728.67 1753.89   5
   6   3   2 9218.09 1773.50   5
   6   3   3 1150.08 584.055   5
   6   3   4 640.168 472.013   5
   6   3   5 456.972 652.998   5
  -6  -3  -5 543.027 406.788   4
  -6  -3  -6 18316.3 1895.23   4
  -6  -3  -7 11655.8 1555.04   4
  -6  -3  -8 4537.33 1007.17   4
  -6  -3  -9 747.163 539.931   4
  -6  -3 -10 9420.94 1448.19   4
  -6  -3 -11 38490.2 3074.90   4
  -6  -3 -12 320.975 433.630   4
   6   4  -7 9790.46 2145.33   5
  -6  -4   6 1553.10 660.374   3
   6   4  -6-541.255 685.515   5
  -6  -4   5 333.438 328.565   3
   6   4  -5 1746.63 907.250   5
   6   4  -4 318.573 733.497   5
   6   4  -3 24577.9 2981.59   5
   6   4  -2 3191.45 1081.69   5
   6   4  -1 23933.0 2875.15   5
   6   4   0 19150.3 2513.08   5
   6   4   1 42580.6 3778.30   5
   6   4   2 1494.14 775.234   5
   6   4   3 13089.0 2051.26   5
  -6  -4  -4 26421.8 2339.45   4
   6   4   4 26601.5 2841.92   5
  -6  -4  -5 507.901 392.863   4
  -6  -4  -6 1755.76 641.762   4
  -6  -4  -7-237.704 323.617   4
  -6  -4  -8 6632.63 1196.74   4
  -6  -4  -9 2959.60 820.957   4
  -6  -4 -10 7871.12 1351.53   4
  -6  -4 -11 1766.75 708.063   4
  -6  -4 -12 6245.28 1218.66   4
   6   5  -7 912.154 711.690   5
   6   5  -6 21280.8 2911.98   5
  -6  -5   6 21446.4 2104.25   3
  -6  -5   5 3255.76 924.026   3
   6   5  -5 1977.80 1115.05   5
  -6  -5   4 5317.96 1041.26   3
   6   5  -4 6892.17 1648.95   5
  -6  -5   3 905.441 517.501   3
   6   5  -3-448.535 597.639   5
   6   5  -2 2099.02 992.637   5
   6   5  -1 972.244 630.390   5
   6   5   0 8471.82 1625.27   5
   6   5   1 2760.20 963.043   5
   6   5   2 5409.02 1258.16   5
   6   5   3 13761.0 1953.77   5
   6   5   4 578.589 579.247   5
  -6  -5  -4 142.993 307.834   4
  -6  -5  -5 31125.7 2482.46   4
  -6  -5  -6-238.521 295.277   4
  -6  -5  -7 37999.5 2830.16   4
  -6  -5  -8 5603.37 1103.69   4
  -6  -5  -9 11538.4 1556.83   4
  -6  -5 -10 12684.0 1637.43   4
  -6  -5 -11 7465.69 1297.00   4
  -6  -5 -12 13338.2 1781.82   4
   6   6  -7 16944.9 2581.34   5
   6   6  -6 19256.6 2716.84   5
  -6  -6   6 21699.5 2229.27   3
   6   6  -5 15690.8 2356.91   5
  -6  -6   5 15296.1 1813.93   3
  -6  -6   4 9422.39 1466.48   3
   6   6  -4 10806.0 1829.66   5
  -6  -6   3 4996.46 1066.01   3
   6   6  -3 6191.48 1438.12   5
   6   6  -2 25094.7 2784.44   5
  -6  -6   2 23141.5 2199.28   3
  -6  -6   1 5204.88 1026.77   3
   6   6  -1 5627.89 1231.79   5
   6   6   0 57661.4 4203.81   5
   6   6   1 6782.93 1313.01   5
   6   6   2 3698.46 961.452   5
   6   6   3 2983.77 893.215   5
  -6  -6  -4 6496.93 1104.30   4
  -6  -6  -5 1900.79 667.212   4
  -6  -6  -6-53.1360 298.985   4
  -6  -6  -7 212.197 386.025   4
  -6  -6  -8 5147.31 1064.35   4
  -6  -6  -9 18236.3 1922.51   4
  -6  -6 -10 5824.08 1123.52   4
  -6  -6 -11 1899.97 770.050   4
  -6  -7   5 340.289 474.157   3
  -6  -7   4 4932.26 1121.27   3
  -6  -7   3 2316.28 816.861   3
  -6  -7   2 12224.1 1672.24   3
  -6  -7   1 12545.6 1659.87   3
  -6  -7   0 9665.23 1475.13   3
  -6  -7  -1 1191.79 598.019   3
  -6  -7  -3 340.687 336.241   4
  -6  -7  -4 17076.6 1787.71   4
  -6  -7  -5 6559.94 1102.04   4
  -6  -7  -6 40906.8 2857.04   4
  -6  -7  -7 4278.76 929.763   4
  -6  -7  -8 520.604 460.951   4
  -6  -7  -9 11310.7 1523.86   4
  -6  -8   2 4345.24 1022.47   3
  -6  -8   1 6944.13 1322.69   3
  -6  -8   0 138.317 409.109   3
  -6  -8  -1 3099.06 896.001   3
  -6  -8  -2 27.5884 385.437   3
  -6  -8  -3 3929.19 973.179   3
  -6  -8  -4 87.5719 410.769   3
  -6  -8  -5 2460.89 767.885   3
  -6  -8  -6 7006.92 1301.71   3
  -7   7  -2 759.971 411.858   4
  -7   7  -3 41.9193 306.603   4
  -7   7  -4 2805.46 819.305   4
  -7   6  -3 2515.81 770.829   4
  -7   6  -4 703.839 536.662   4
  -7   6  -5 11481.5 1655.13   4
   7  -5   0 2523.64 1343.74   5
   7  -5   1 2105.51 1293.35   5
   7  -5   2 923.691 835.665   5
  -7   5  -3 10572.3 1585.23   4
   7  -5   3 8988.48 2335.17   5
  -7   5  -4 2182.17 825.283   4
   7  -5   4 2005.10 1087.95   5
  -7   5  -5 5017.65 1080.32   4
   7  -5   5 11613.9 2636.74   5
  -7   5  -6 289.136 398.183   4
   7  -4  -1 662.832 902.797   5
   7  -4   0 19899.7 3468.63   5
   7  -4   1 6206.68 2036.93   5
   7  -4   2 3464.09 1606.67   5
   7  -4   3 6929.74 2051.67   5
  -7   4  -4 1172.00 580.153   4
   7  -4   4 127.198 755.423   5
  -7   4  -5-679.694 466.357   4
   7  -4   5 337.011 739.403   5
  -7   4  -6 175.725 358.450   4
  -7   4  -7 1228.17 597.983   4
   7  -3  -2 913.542 1260.54   5
   7  -3  -1 591.169 866.612   5
   7  -3   0-1957.74 1185.50   5
   7  -3   1 15561.2 3075.42   5
   7  -3   2 14872.4 2932.13   5
   7  -3   3 8462.90 2091.29   5
  -7   3  -4 17566.8 2068.13   4
   7  -3   4 21173.7 3341.65   5
  -7   3  -5 1010.71 545.962   4
   7  -3   5 1000.29 697.699   5
  -7   3  -6 2149.75 733.653   4
  -7   3  -7 341.664 387.336   4
  -7   3  -8 17946.9 2160.39   4
   7  -2  -3 2766.42 1385.45   5
   7  -2  -2 2618.91 1345.59   5
   7  -2  -1 1873.36 1152.24   5
   7  -2   0 12366.4 2706.01   5
   7  -2   1 2286.04 1392.36   5
   7  -2   2 1713.04 802.944   5
   7  -2   3 336.957 622.074   5
   7  -2   4 7782.50 2069.07   5
  -7   2  -5 1582.79 736.335   4
   7  -2   5 831.331 1005.41   5
  -7   2  -6 5294.57 1091.94   4
   7  -2   6 5548.79 1721.35   5
  -7   2  -7 2306.79 834.094   4
  -7   2  -8 19631.2 2206.57   4
   7  -1  -3 2958.50 1349.05   5
   7  -1  -2 32939.6 4272.57   5
   7  -1  -1 4255.35 1557.14   5
   7  -1   0 1269.66 949.644   5
   7  -1   1 29787.7 3935.89   5
   7  -1   2 13539.6 2654.03   5
   7  -1   3 9121.50 2143.71   5
   7  -1   4-431.310 688.940   5
  -7   1  -5 14719.1 1789.99   4
   7  -1   5 12937.3 2525.03   5
  -7   1  -6 761.043 496.521   4
   7  -1   6 1998.64 1259.15   5
  -7   1  -7-2.29027 319.109   4
  -7   1  -8 764.385 432.589   4
   7   0  -4 2975.49 1359.14   5
   7   0  -3 757.282 1002.87   5
   7   0  -2 3476.28 1525.55   5
   7   0  -1 3011.90 1283.33   5
   7   0   0 12804.0 2630.08   5
   7   0   1 1129.41 702.262   5
   7   0   2 2890.63 1427.32   5
   7   0   3-450.753 779.112   5
   7   0   4 12265.1 2414.70   5
  -7   0  -5 11228.0 1595.98   4
   7   0   5 12140.4 2413.32   5
  -7   0  -6 12044.8 1626.06   4
   7   0   6 13182.0 2480.04   5
  -7   0  -7 14687.9 1805.18   4
  -7   0  -8 1005.12 480.277   4
  -7   0  -9 3401.32 919.929   4
   7   1  -4 2080.76 1033.63   5
   7   1  -3 32406.2 4083.25   5
   7   1  -2-326.732 720.210   5
   7   1  -1 4865.73 1551.23   5
   7   1   0 3721.26 1451.13   5
   7   1   1 5982.80 1816.76   5
   7   1   2 81.9461 578.704   5
   7   1   3 3962.48 1408.19   5
   7   1   4 3975.90 1329.08   5
   7   1   5 475.993 658.800   5
  -7  -1  -5 151.280 367.988   4
  -7  -1  -6 8567.13 1376.18   4
  -7  -1  -7 1804.10 712.833   4
  -7  -1  -8 19.6035 354.339   4
  -7  -1  -9 12174.7 1760.03   4
   7   2  -4 4901.90 1716.72   5
   7   2  -3 3961.05 1517.02   5
   7   2  -2 1355.96 1004.48   5
   7   2  -1 24079.5 3369.13   5
   7   2   0 308.611 654.035   5
   7   2   1 23312.3 3232.26   5
   7   2   2 16772.5 2754.57   5
   7   2   3 15915.8 2648.45   5
   7   2   4 11480.7 2147.66   5
   7   2   5 1142.38 839.820   5
  -7  -2  -5 2821.16 854.520   4
  -7  -2  -6 22938.6 2290.49   4
  -7  -2  -7 7883.54 1374.41   4
  -7  -2  -8 3682.24 962.218   4
  -7  -2  -9 1959.74 670.493   4
   7   3  -4 8816.74 2045.51   5
   7   3  -3-1414.75 900.413   5
   7   3  -2 6397.66 1794.37   5
   7   3  -1 3243.56 1239.92   5
   7   3   0-26.3421 531.763   5
   7   3   1 4908.38 1485.08   5
   7   3   2-430.738 608.454   5
   7   3   3 8615.17 1894.17   5
   7   3   4-161.966 570.232   5
   7   3   5 2217.09 1040.16   5
  -7  -3  -5 1090.47 590.172   4
  -7  -3  -6-2.14095 356.960   4
  -7  -3  -7 11787.3 1646.98   4
  -7  -3  -8 7064.43 1295.92   4
  -7  -3  -9 4710.12 1117.39   4
  -7  -4   4 5353.99 1125.44   3
   7   4  -4 4558.88 1478.72   5
   7   4  -3 502.356 679.321   5
   7   4  -2 12461.2 2387.60   5
   7   4  -1 2324.62 975.955   5
   7   4   0 24041.7 3207.37   5
   7   4   1 1556.41 935.819   5
   7   4   2 5989.45 1547.23   5
   7   4   3 121.256 480.163   5
   7   4   4 3413.22 1068.01   5
  -7  -4  -4 3081.54 923.692   4
  -7  -4  -5 3443.29 826.655   4
  -7  -4  -6 8025.67 1301.32   4
  -7  -4  -7-224.098 376.119   4
  -7  -4  -8 810.396 619.702   4
  -7  -4  -9 4706.85 1097.16   4
  -7  -5   4 1999.73 804.916   3
   7   5  -4 5715.73 1679.73   5
  -7  -5   3 1532.31 743.975   3
   7   5  -3 2213.52 989.409   5
   7   5  -2 491.287 1136.22   5
   7   5  -1 94.5856 455.990   5
   7   5   0 16642.8 2526.83   5
   7   5   1-2353.07 1011.81   5
   7   5   2 7671.12 1599.44   5
   7   5   3 257.502 465.011   5
  -7  -5  -4 42089.9 3094.90   4
   7   5   4 46649.5 3967.89   5
  -7  -5  -5 2454.06 843.083   4
  -7  -5  -6 10397.2 1481.41   4
  -7  -5  -7 12633.1 1653.41   4
  -7  -5  -8 11071.8 1585.91   4
  -7  -5  -9 13606.9 1748.99   4
  -7  -6  -3 1468.32 615.011   4
  -7  -6  -4 749.013 511.554   4
  -7  -6  -5 1483.74 636.377   4
  -7  -6  -6 4053.53 923.446   4
  -7  -6  -7 3443.44 909.865   4
  -7  -6  -8 2443.75 804.311   4
  -7  -7  -3 25992.0 2435.71   4
  -7  -7  -4-715.734 641.460   4
  -7  -7  -5 2340.72 796.289   4
   8   2   3 8357.83 2013.99   5
   8   2   4 9450.98 2123.34   5
   8   2   5 3356.97 1523.00   5
   8   3   2 2247.18 1105.33   5
   8   3   3 137.377 640.701   5
   8   3   4 9867.02 2073.74   5
   8   3   5 513.197 930.534   5
   0   0   0    0.00    0.00   0
;
_shelx_hkl_checksum              51735
_olex2_submission_special_instructions 'No special instructions were received'
_oxdiff_exptl_absorpt_empirical_details
;
Empirical correction (ABSPACK) includes:
- Absorption correction using spherical harmonics
- Frame scaling
;
_oxdiff_exptl_absorpt_empirical_full_max 1.957
_oxdiff_exptl_absorpt_empirical_full_min 0.543
loop_
_space_group_symop_operation_xyz
'x, y, z'
'-x, -y, -z'
loop_
_atom_site_label
_atom_site_type_symbol
_atom_site_fract_x
_atom_site_fract_y
_atom_site_fract_z
_atom_site_U_iso_or_equiv
_atom_site_adp_type
_atom_site_occupancy
_atom_site_site_symmetry_order
_atom_site_calc_flag
_atom_site_refinement_flags_posn
_atom_site_refinement_flags_adp
_atom_site_refinement_flags_occupancy
_atom_site_disorder_assembly
_atom_site_disorder_group
U1 U 1.26072(7) 0.91635(3) 0.25266(3) 0.01170(10) Uani 1 1 d . . . . .
Pb1 Pb 0.17165(8) 0.31003(3) 0.19460(3) 0.01920(12) Uani 1 1 d . . . . .
Se1 Se 1.2890(2) 0.88821(8) -0.04681(8) 0.0128(2) Uani 1 1 d . . . . .
Se2 Se 1.2249(2) 1.16809(9) 0.48822(8) 0.0196(3) Uani 1 1 d . . . . .
Se3 Se 0.9066(2) 0.62433(8) 0.22213(8) 0.0158(2) Uani 1 1 d . . . . .
Cu1 Cu 1.000000 0.500000 0.500000 0.0150(4) Uani 1 2 d S . P . .
Cu2 Cu 0.7070(2) 0.44338(10) 0.04631(10) 0.0150(3) Uani 1 1 d . . . . .
Cu3 Cu 0.5647(3) 0.42308(11) 0.38554(10) 0.0175(3) Uani 1 1 d . . . . .
O1 O 1.5214(16) 0.8662(7) 0.3046(7) 0.0280(18) Uani 1 1 d . . . . .
O2 O 1.0022(15) 0.9652(7) 0.1968(6) 0.0237(17) Uani 1 1 d . . . . .
O3 O 1.4431(14) 0.8654(6) 0.0626(5) 0.0157(16) Uani 1 1 d . . . . .
O4 O 1.1616(14) 0.7369(5) -0.0584(5) 0.0174(17) Uani 1 1 d . . . . .
O5 O 1.5174(14) 0.8868(6) -0.1619(6) 0.0195(17) Uani 1 1 d . . . . .
O6 O 1.1603(17) 1.1012(6) 0.3688(6) 0.031(2) Uani 1 1 d . . . . .
O7 O 1.2418(16) 1.3296(6) 0.4433(6) 0.0261(19) Uani 1 1 d . . . . .
O8 O 0.9549(18) 1.1674(7) 0.5729(6) 0.034(2) Uani 1 1 d . . . . .
O9 O 1.1766(14) 0.6905(6) 0.2232(6) 0.0193(17) Uani 1 1 d . . . . .
O10 O 0.8889(15) 0.5128(6) 0.3325(6) 0.0230(18) Uani 1 1 d . . . . .
O11 O 0.9820(13) 0.5143(5) 0.1150(5) 0.0134(15) Uani 1 1 d . . . . .
O12 O 0.6935(14) 0.4101(6) 0.5260(5) 0.0159(16) Uani 1 1 d D . . . .
H12 H 0.72(2) 0.321(4) 0.547(8) 0.024 Uiso 1 1 d D U . . .
O13 O 0.4723(15) 0.4559(6) 0.2386(5) 0.0185(17) Uani 1 1 d D . . . .
H13 H 0.370(16) 0.531(7) 0.251(6) 0.028 Uiso 1 1 d D U . . .
O14 O 0.4051(14) 0.3834(5) 0.0067(5) 0.0147(16) Uani 1 1 d D . . . .
H14 H 0.44(2) 0.306(6) -0.036(7) 0.022 Uiso 1 1 d D U . . .
O15 O 0.7013(19) 0.2013(8) 0.3420(8) 0.047(3) Uani 1 1 d . . . . .
H15A H 0.678635 0.178310 0.273097 0.071 Uiso 1 1 d DR U . . .
H15B H 0.860500 0.194856 0.335986 0.071 Uiso 1 1 d R U . . .
loop_
_atom_site_aniso_label
_atom_site_aniso_U_11
_atom_site_aniso_U_22
_atom_site_aniso_U_33
_atom_site_aniso_U_23
_atom_site_aniso_U_13
_atom_site_aniso_U_12
U1 0.0162(2) 0.01026(17) 0.00823(19) 0.00017(12) -0.00099(16) -0.00464(14)
Pb1 0.0190(3) 0.01786(19) 0.0204(2) 0.00236(14) -0.00299(19) -0.00461(16)
Se1 0.0167(6) 0.0108(4) 0.0104(5) 0.0002(3) -0.0011(4) -0.0036(4)
Se2 0.0276(7) 0.0187(5) 0.0116(5) 0.0007(4) -0.0007(5) -0.0046(4)
Se3 0.0179(6) 0.0127(4) 0.0155(5) -0.0033(3) 0.0009(4) -0.0034(4)
Cu1 0.0146(11) 0.0188(8) 0.0116(9) -0.0014(6) -0.0020(8) -0.0057(7)
Cu2 0.0156(8) 0.0115(5) 0.0187(7) 0.0015(4) -0.0052(6) -0.0031(5)
Cu3 0.0171(8) 0.0231(6) 0.0116(6) -0.0015(4) -0.0006(6) -0.0089(5)
O1 0.016(5) 0.038(4) 0.030(5) 0.007(3) -0.006(4) 0.000(3)
O2 0.013(5) 0.034(4) 0.023(4) 0.003(3) 0.001(4) -0.001(3)
O3 0.021(5) 0.014(3) 0.011(3) -0.001(2) -0.002(3) -0.007(3)
O4 0.026(5) 0.008(3) 0.019(4) 0.004(2) -0.007(3) -0.002(3)
O5 0.016(5) 0.020(3) 0.020(4) 0.000(3) 0.003(3) -0.005(3)
O6 0.057(7) 0.022(4) 0.015(4) -0.005(3) -0.010(4) -0.010(4)
O7 0.030(6) 0.012(3) 0.032(4) -0.001(3) 0.006(4) -0.008(3)
O8 0.049(7) 0.027(4) 0.018(4) 0.007(3) 0.016(4) 0.000(4)
O9 0.023(5) 0.015(3) 0.019(4) -0.007(3) 0.000(3) -0.008(3)
O10 0.024(5) 0.031(4) 0.012(4) 0.001(3) 0.003(3) -0.015(3)
O11 0.016(4) 0.014(3) 0.009(3) -0.007(2) 0.000(3) -0.001(3)
O12 0.017(5) 0.014(3) 0.016(4) 0.005(3) -0.001(3) -0.004(3)
O13 0.022(5) 0.020(3) 0.013(4) -0.003(3) -0.001(3) -0.005(3)
O14 0.022(5) 0.008(3) 0.015(4) -0.002(2) -0.006(3) -0.001(3)
O15 0.034(7) 0.062(6) 0.048(6) -0.021(4) -0.008(5) -0.002(5)
loop_
_atom_type_symbol
_atom_type_description
_atom_type_scat_dispersion_real
_atom_type_scat_dispersion_imag
_atom_type_scat_source
Cu Cu 0.3201 1.2651 'International Tables Vol C Tables 4.2.6.8 and 6.1.1.4'
H H 0.0000 0.0000 'International Tables Vol C Tables 4.2.6.8 and 6.1.1.4'
O O 0.0106 0.0060 'International Tables Vol C Tables 4.2.6.8 and 6.1.1.4'
Pb Pb -3.3944 10.1111 'International Tables Vol C Tables 4.2.6.8 and 6.1.1.4'
Se Se -0.0929 2.2259 'International Tables Vol C Tables 4.2.6.8 and 6.1.1.4'
U U -9.6767 9.6646 'International Tables Vol C Tables 4.2.6.8 and 6.1.1.4'
loop_
_exptl_crystal_face_index_h
_exptl_crystal_face_index_k
_exptl_crystal_face_index_l
_exptl_crystal_face_perp_dist
3 -13 5 0.0399
3 2 -14 0.0592
-2 13 -7 0.0239
-4 3 13 0.0446
7 -2 9 0.0377
-2 -13 -4 0.0406
-7 -3 -9 0.0219
0 14 1 0.0073
loop_
_geom_angle_atom_site_label_1
_geom_angle_atom_site_label_2
_geom_angle_atom_site_label_3
_geom_angle
_geom_angle_site_symmetry_1
_geom_angle_site_symmetry_3
O1 U1 O2 178.5(3) . .
O1 U1 O3 91.3(3) . .
O1 U1 O5 89.0(3) . 2_875
O1 U1 O6 98.3(3) . .
O1 U1 O8 85.9(3) . 2_776
O1 U1 O9 89.3(3) . .
O2 U1 O3 87.2(3) . .
O2 U1 O5 90.6(3) . 2_875
O2 U1 O6 83.0(3) . .
O2 U1 O8 95.2(3) . 2_776
O2 U1 O9 90.1(3) . .
O3 U1 O5 70.7(2) . 2_875
O6 U1 O3 140.1(2) . .
O6 U1 O5 70.8(2) . 2_875
O6 U1 O8 73.7(2) . 2_776
O6 U1 O9 145.8(3) . .
O8 U1 O3 145.9(2) 2_776 .
O8 U1 O5 143.0(2) 2_776 2_875
O8 U1 O9 73.7(2) 2_776 .
O9 U1 O3 72.3(2) . .
O9 U1 O5 142.9(2) . 2_875
O5 Pb1 O4 106.3(2) 2_765 2_665
O11 Pb1 O4 63.36(18) 1_455 2_665
O11 Pb1 O5 148.9(2) 1_455 2_765
O13 Pb1 O4 146.9(2) . 2_665
O13 Pb1 O5 91.1(2) . 2_765
O13 Pb1 O11 87.1(2) . 1_455
O13 Pb1 O14 75.0(2) . .
O14 Pb1 O4 80.1(2) . 2_665
O14 Pb1 O5 80.9(2) . 2_765
O14 Pb1 O11 68.6(2) . 1_455
O3 Se1 O5 101.3(4) . .
O4 Se1 O3 103.8(3) . .
O4 Se1 O5 100.4(3) . .
O6 Se2 O7 98.0(3) . .
O8 Se2 O6 101.7(4) . .
O8 Se2 O7 100.2(4) . .
O9 Se3 O10 100.4(4) . .
O9 Se3 O11 99.5(3) . .
O10 Se3 O11 97.2(3) . .
O7 Cu1 O7 180.0 1_545 2_776
O10 Cu1 O7 90.7(3) 2_766 2_776
O10 Cu1 O7 89.3(3) . 2_776
O10 Cu1 O7 89.3(3) 2_766 1_545
O10 Cu1 O7 90.7(3) . 1_545
O10 Cu1 O10 180.0(4) . 2_766
O12 Cu1 O7 99.9(3) 2_766 2_776
O12 Cu1 O7 80.1(3) 2_766 1_545
O12 Cu1 O7 99.9(3) . 1_545
O12 Cu1 O7 80.1(3) . 2_776
O12 Cu1 O10 103.3(3) . 2_766
O12 Cu1 O10 76.7(3) 2_766 2_766
O12 Cu1 O10 76.7(3) . .
O12 Cu1 O10 103.3(3) 2_766 .
O12 Cu1 O12 180.0 . 2_766
O4 Cu2 Cu2 134.6(2) 2_765 2_665
O4 Cu2 O11 88.7(3) 2_765 .
O4 Cu2 O11 88.5(3) 2_765 2_765
O4 Cu2 O14 165.8(3) 2_765 2_665
O11 Cu2 Cu2 98.92(18) 2_765 2_665
O11 Cu2 Cu2 136.68(18) . 2_665
O11 Cu2 O11 76.1(3) . 2_765
O14 Cu2 Cu2 41.26(17) . 2_665
O14 Cu2 Cu2 40.4(2) 2_665 2_665
O14 Cu2 O4 94.9(3) . 2_765
O14 Cu2 O11 113.9(3) . 2_765
O14 Cu2 O11 169.4(3) . .
O14 Cu2 O11 97.2(3) 2_665 .
O14 Cu2 O11 80.5(3) 2_665 2_765
O14 Cu2 O14 81.7(3) . 2_665
O7 Cu3 O12 74.5(3) 1_445 2_666
O7 Cu3 O15 83.3(3) 1_445 .
O10 Cu3 O7 178.2(3) . 1_445
O10 Cu3 O12 105.9(3) . 2_666
O10 Cu3 O15 96.0(3) . .
O12 Cu3 O7 97.8(3) . 1_445
O12 Cu3 O10 80.5(3) . .
O12 Cu3 O12 86.8(3) . 2_666
O12 Cu3 O15 89.3(3) . .
O12 Cu3 O15 156.7(3) 2_666 .
O13 Cu3 O7 90.3(3) . 1_445
O13 Cu3 O10 91.5(3) . .
O13 Cu3 O12 93.0(3) . 2_666
O13 Cu3 O12 171.5(3) . .
O13 Cu3 O15 94.1(3) . .
Se1 O3 U1 120.5(4) . .
Se1 O4 Pb1 124.0(3) . 2_665
Se1 O4 Cu2 130.3(4) . 2_765
Cu2 O4 Pb1 100.3(2) 2_765 2_665
U1 O5 Pb1 105.0(3) 2_875 2_765
Se1 O5 U1 125.7(3) . 2_875
Se1 O5 Pb1 121.8(3) . 2_765
Se2 O6 U1 140.2(5) . .
Se2 O7 Cu1 130.0(4) . 1_565
Se2 O7 Cu3 122.1(5) . 1_665
Cu3 O7 Cu1 102.2(2) 1_665 1_565
Se2 O8 U1 143.5(5) . 2_776
Se3 O9 U1 126.5(4) . .
Se3 O10 Cu1 137.8(4) . .
Se3 O10 Cu3 116.6(4) . .
Cu3 O10 Cu1 95.0(3) . .
Se3 O11 Pb1 108.4(3) . 1_655
Se3 O11 Cu2 123.0(3) . 2_765
Se3 O11 Cu2 116.0(4) . .
Cu2 O11 Pb1 97.4(2) 2_765 1_655
Cu2 O11 Pb1 105.4(2) . 1_655
Cu2 O11 Cu2 103.9(3) . 2_765
Cu1 O12 Cu3 101.7(2) . 2_666
Cu1 O12 Cu3 107.6(3) . .
Cu1 O12 H12 109(7) . .
Cu3 O12 Cu3 93.2(3) . 2_666
Cu3 O12 H12 132(7) 2_666 .
Cu3 O12 H12 111(6) . .
Pb1 O13 H13 95(7) . .
Cu3 O13 Pb1 115.1(3) . .
Cu3 O13 H13 103(5) . .
Pb1 O14 H14 106(6) . .
Cu2 O14 Pb1 112.4(3) 2_665 .
Cu2 O14 Pb1 102.5(3) . .
Cu2 O14 Cu2 98.3(3) . 2_665
Cu2 O14 H14 127(6) 2_665 .
Cu2 O14 H14 108(7) . .
Cu3 O15 H15A 111.7 . .
Cu3 O15 H15B 111.5 . .
H15A O15 H15B 102.3 . .
loop_
_geom_bond_atom_site_label_1
_geom_bond_atom_site_label_2
_geom_bond_distance
_geom_bond_site_symmetry_2
U1 O1 1.772(8) .
U1 O2 1.780(8) .
U1 O3 2.394(6) .
U1 O5 2.477(6) 2_875
U1 O6 2.361(7) .
U1 O8 2.363(7) 2_776
U1 O9 2.377(6) .
Pb1 O4 2.754(7) 2_665
Pb1 O5 2.644(7) 2_765
Pb1 O6 2.924(7) 1_445
Pb1 O7 3.085(7) 1_445
Pb1 O10 2.949(7) 1_455
Pb1 O11 2.567(6) 1_455
Pb1 O13 2.390(7) .
Pb1 O14 2.496(7) .
Pb1 O15 3.111(10) 1_455
Se1 O3 1.710(7) .
Se1 O4 1.709(6) .
Se1 O5 1.716(7) .
Se2 O6 1.694(7) .
Se2 O7 1.703(6) .
Se2 O8 1.680(9) .
Se3 O9 1.673(8) .
Se3 O10 1.705(7) .
Se3 O11 1.712(6) .
Cu1 O7 2.240(8) 1_545
Cu1 O7 2.240(7) 2_776
Cu1 O10 2.208(7) 2_766
Cu1 O10 2.208(7) .
Cu1 O12 1.933(7) 2_766
Cu1 O12 1.933(7) .
Cu2 Cu2 2.984(3) 2_665
Cu2 O4 1.978(6) 2_765
Cu2 O11 2.403(7) 2_765
Cu2 O11 2.026(7) .
Cu2 O14 1.956(7) .
Cu2 O14 1.989(6) 2_665
Cu3 O7 2.060(8) 1_445
Cu3 O10 2.041(8) .
Cu3 O12 1.950(7) .
Cu3 O12 2.372(7) 2_666
Cu3 O13 1.944(7) .
Cu3 O15 2.407(9) .
O12 H12 0.94(2) .
O13 H13 0.950(18) .
O14 H14 0.94(2) .
O15 H15A 0.8932 .
O15 H15B 0.8953 .
loop_
_geom_hbond_atom_site_label_D
_geom_hbond_atom_site_label_H
_geom_hbond_atom_site_label_A
_geom_hbond_distance_DH
_geom_hbond_distance_HA
_geom_hbond_distance_DA
_geom_hbond_angle_DHA
_geom_hbond_site_symmetry_A
_geom_hbond_publ_flag
O12 H12 O8 0.94(2) 2.11(7) 2.957(10) 148(10) 1_545 yes
O13 H13 O9 0.950(18) 2.007(18) 2.922(10) 161(6) 1_455 yes
O14 H14 O3 0.94(2) 1.87(5) 2.753(8) 154(9) 2_765 yes
O15 H15A O5 0.89 2.00 2.832(11) 154.0 2_765 yes
O15 H15B O6 0.90 2.04 2.859(14) 151.8 1_545 yes
loop_
_geom_torsion_atom_site_label_1
_geom_torsion_atom_site_label_2
_geom_torsion_atom_site_label_3
_geom_torsion_atom_site_label_4
_geom_torsion
_geom_torsion_site_symmetry_1
_geom_torsion_site_symmetry_2
_geom_torsion_site_symmetry_3
_geom_torsion_site_symmetry_4
O3 Se1 O4 Pb1 171.2(4) . . . 2_665
O3 Se1 O4 Cu2 -40.0(6) . . . 2_765
O3 Se1 O5 U1 -91.8(4) . . . 2_875
O3 Se1 O5 Pb1 53.5(4) . . . 2_765
O4 Se1 O3 U1 -93.4(4) . . . .
O4 Se1 O5 U1 161.7(4) . . . 2_875
O4 Se1 O5 Pb1 -53.0(4) . . . 2_765
O5 Se1 O3 U1 162.7(3) . . . .
O5 Se1 O4 Pb1 -84.2(4) . . . 2_665
O5 Se1 O4 Cu2 64.5(5) . . . 2_765
O6 Se2 O7 Cu1 111.5(6) . . . 1_565
O6 Se2 O7 Cu3 -99.9(5) . . . 1_665
O6 Se2 O8 U1 119.4(7) . . . 2_776
O7 Se2 O6 U1 138.7(7) . . . .
O7 Se2 O8 U1 -140.1(7) . . . 2_776
O8 Se2 O6 U1 -119.1(7) . . . .
O8 Se2 O7 Cu1 8.0(6) . . . 1_565
O8 Se2 O7 Cu3 156.6(5) . . . 1_665
O9 Se3 O10 Cu1 36.1(7) . . . .
O9 Se3 O10 Cu3 170.4(4) . . . .
O9 Se3 O11 Pb1 78.9(3) . . . 1_655
O9 Se3 O11 Cu2 -33.4(5) . . . 2_765
O9 Se3 O11 Cu2 -162.9(4) . . . .
O10 Se3 O9 U1 -118.9(4) . . . .
O10 Se3 O11 Pb1 -23.0(4) . . . 1_655
O10 Se3 O11 Cu2 95.3(4) . . . .
O10 Se3 O11 Cu2 -135.2(4) . . . 2_765
O11 Se3 O9 U1 141.9(4) . . . .
O11 Se3 O10 Cu1 137.2(6) . . . .
O11 Se3 O10 Cu3 -88.5(4) . . . .
loop_
_exptl_oxdiff_crystal_face_indexfrac_h
_exptl_oxdiff_crystal_face_indexfrac_k
_exptl_oxdiff_crystal_face_indexfrac_l
_exptl_oxdiff_crystal_face_x
_exptl_oxdiff_crystal_face_y
_exptl_oxdiff_crystal_face_z
2.7488 -12.7968 5.0768 -0.0421 -0.1495 0.9879
2.6772 1.8415 -14.4772 0.2308 0.9686 -0.0923
-2.3407 12.5631 -6.5853 0.0675 0.2571 -0.9640
-3.7935 3.0340 12.8520 -0.2198 -0.9329 -0.2852
7.3134 -2.4873 8.6646 -0.7969 0.1932 0.5724
-2.2948 -13.4171 -4.0183 0.6757 -0.1557 0.7205
-7.2355 -2.7805 -9.0520 0.9455 -0.2263 -0.2340
0.1619 14.1853 1.4952 -0.4446 0.0996 -0.8902
