#------------------------------------------------------------------------------
#$Date: 2022-02-03 01:10:00 +0200 (Thu, 03 Feb 2022) $
#$Revision: 272433 $
#$URL: file:///home/coder/svn-repositories/cod/cif/1/56/62/1566269.cif $
#------------------------------------------------------------------------------
#
# This file is available in the Crystallography Open Database (COD),
# http://www.crystallography.net/
#
# All data on this site have been placed in the public domain by the
# contributors.
#
data_1566269
loop_
_publ_author_name
'Nguyen, Vivian'
'Ji, Bingheng'
'Wu, Kui'
'Zhang, Bingbing'
'Wang, Jian'
_publ_section_title
;
 Unprecedented Mid-Infrared Nonlinear Optical Materials Achieved by
 Crystal Structure Engineering, a Case Study of (KX)P2S6(X=Sb, Bi, Ba)
;
_journal_name_full               'Chemical Science'
_journal_paper_doi               10.1039/D1SC06849K
_journal_year                    2022
_chemical_formula_sum            'Ba K2 P2 S6'
_chemical_formula_weight         469.84
_space_group_crystal_system      orthorhombic
_space_group_IT_number           33
_space_group_name_Hall           'P 2c -2n'
_space_group_name_H-M_alt        'P n a 21'
_audit_creation_method           SHELXL-2014/6
_audit_update_record
;
2022-01-24 deposited with the CCDC.	2022-02-02 downloaded from the CCDC.
;
_cell_angle_alpha                90
_cell_angle_beta                 90
_cell_angle_gamma                90
_cell_formula_units_Z            4
_cell_length_a                   12.3592(13)
_cell_length_b                   14.4324(14)
_cell_length_c                   6.7939(7)
_cell_measurement_reflns_used    1731
_cell_measurement_temperature    446(2)
_cell_measurement_theta_max      23.214
_cell_measurement_theta_min      2.823
_cell_volume                     1211.8(2)
_computing_cell_refinement       'SMART V5.625 (Bruker, 2000)'
_computing_data_collection       'SMART V5.625 (Bruker, 2000)'
_computing_data_reduction        'SAINT V6.32 (Bruker, 2001)'
_computing_structure_refinement  'SHELXL-97 (Sheldrick, 1997)'
_computing_structure_solution    'SHELXS-97 (Sheldrick, 1990)'
_diffrn_ambient_temperature      446(2)
_diffrn_measured_fraction_theta_full 0.796
_diffrn_measured_fraction_theta_max 0.999
_diffrn_measurement_device_type  'Bruker APEX II CCD area-detector'
_diffrn_measurement_method       'profile data from \w scans'
_diffrn_radiation_type           MoK\a
_diffrn_radiation_wavelength     0.71073
_diffrn_reflns_av_R_equivalents  0.0808
_diffrn_reflns_av_unetI/netI     0.0455
_diffrn_reflns_Laue_measured_fraction_full 0.796
_diffrn_reflns_Laue_measured_fraction_max 0.999
_diffrn_reflns_limit_h_max       13
_diffrn_reflns_limit_h_min       -13
_diffrn_reflns_limit_k_max       16
_diffrn_reflns_limit_k_min       -15
_diffrn_reflns_limit_l_max       7
_diffrn_reflns_limit_l_min       -7
_diffrn_reflns_number            13922
_diffrn_reflns_point_group_measured_fraction_full 0.792
_diffrn_reflns_point_group_measured_fraction_max 0.999
_diffrn_reflns_theta_full        25.242
_diffrn_reflns_theta_max         23.214
_diffrn_reflns_theta_min         2.823
_diffrn_source                   'fine-focus sealed tube'
_exptl_absorpt_coefficient_mu    5.203
_exptl_absorpt_correction_T_max  0.159
_exptl_absorpt_correction_T_min  0.096
_exptl_absorpt_correction_type   multi-scan
_exptl_crystal_colour            Translucent
_exptl_crystal_density_diffrn    2.575
_exptl_crystal_description       Chunk
_exptl_crystal_F_000             880
_exptl_crystal_size_max          0.04
_exptl_crystal_size_mid          0.03
_exptl_crystal_size_min          0.02
_refine_diff_density_max         1.590
_refine_diff_density_min         -0.635
_refine_diff_density_rms         0.186
_refine_ls_abs_structure_details
;
 Refined as an inversion twin.
;
_refine_ls_abs_structure_Flack   0.57(14)
_refine_ls_extinction_method     none
_refine_ls_goodness_of_fit_ref   1.071
_refine_ls_hydrogen_treatment    undef
_refine_ls_matrix_type           full
_refine_ls_number_parameters     81
_refine_ls_number_reflns         1731
_refine_ls_number_restraints     1
_refine_ls_restrained_S_all      1.071
_refine_ls_R_factor_all          0.0561
_refine_ls_R_factor_gt           0.0373
_refine_ls_shift/su_max          0.000
_refine_ls_shift/su_mean         0.000
_refine_ls_structure_factor_coef Fsqd
_refine_ls_weighting_details
'w=1/[\s^2^(Fo^2^)+(0.0328P)^2^+11.9508P] where P=(Fo^2^+2Fc^2^)/3'
_refine_ls_weighting_scheme      calc
_refine_ls_wR_factor_gt          0.0807
_refine_ls_wR_factor_ref         0.0874
_reflns_Friedel_coverage         0.821
_reflns_Friedel_fraction_full    0.786
_reflns_Friedel_fraction_max     1.000
_reflns_number_gt                1381
_reflns_number_total             1731
_reflns_threshold_expression     'I > 2\s(I)'
_cod_data_source_file            d1sc06849k2.cif
_cod_data_source_block           x1
_cod_depositor_comments
;
The following automatic conversions were performed:

data item '_exptl_absorpt_correction_type' value 'Multi-Scan' was
changed to 'multi-scan' in accordance with the
/home/data/users/saulius/crontab/automatic-downloads/rss-feeds/RSC/lib/dictionaries/cif_core.dic
dictionary named 'cif_core.dic' version 2.4.2 last updated on
2011-04-26.

Automatic conversion script
Id: cif_fix_values 7556 2019-12-06 15:28:31Z antanas 
;
_cod_database_code               1566269
_shelx_space_group_comment
;
The symmetry employed for this shelxl refinement is uniquely defined
by the following loop, which should always be used as a source of
symmetry information in preference to the above space-group names.
They are only intended as comments.
;
_shelx_estimated_absorpt_t_min   0.102
_shelx_estimated_absorpt_t_max   0.213
_shelxl_version_number           2014/6
_shelx_res_file
;
TITL x1 in Pna2(1)
CELL 0.71073  12.35920  14.43240   6.79390  90.0000  90.0000  90.0000
ZERR    4.00   0.00130   0.00140   0.00070   0.0000   0.0000   0.0000
LATT -1
SYMM -X, -Y, 0.5+Z
SYMM 0.5+X, 0.5-Y, Z
SYMM 0.5-X, 0.5+Y, 0.5+Z
SFAC P S K BA
UNIT 8 24 8 4
TEMP 173

L.S. 14
BOND
TWIN
acta
FMAP 2
PLAN -5
EADP K1 K2
EADP S2 P1
EADP S2 P2
EADP S2 S6
EADP S2 S2
EADP S2 S4

WGHT    0.032800   11.950800
BASF   0.57014
FVAR       0.06429   0.87556
K1    3    0.014664    0.653976    0.024196   -21.00000    0.03502    0.01790 =
         0.00671   -0.00053    0.00394   -0.01611
K2    3    0.201489    0.282141    0.503800    21.00000    0.03502    0.01790 =
         0.00671   -0.00053    0.00394   -0.01611
K3    3    0.478083    0.138007    0.020808    11.00000    0.01847    0.01885 =
         0.07205    0.02048   -0.00442    0.00254
BA1   4    0.113745    0.037613    0.005383    11.00000    0.01395    0.01204 =
         0.01081   -0.00111    0.00058    0.00003
P1    1    0.247471    0.479019   -0.001856    11.00000    0.01065    0.00983 =
         0.00466    0.00121    0.00134   -0.00126
P2    1    0.328084    0.341331    0.001111    11.00000    0.01065    0.00983 =
         0.00466    0.00121    0.00134   -0.00126
S1    2    0.078673    0.840518    0.264857    11.00000    0.02371    0.02446 =
         0.01037   -0.00164   -0.00935   -0.00447
S2    2    0.126879    0.068521    0.520987    11.00000    0.01065    0.00983 =
         0.00466    0.00121    0.00134   -0.00126
S3    2    0.160707    0.486230    0.757490    11.00000    0.02211    0.03454 =
         0.01756    0.00912   -0.00869   -0.00117
S4    2    0.162926    0.481728    0.258360    11.00000    0.01065    0.00983 =
         0.00466    0.00121    0.00134   -0.00126
S5    2    0.208544    0.245858    0.003618    11.00000    0.02028    0.01147 =
         0.02033    0.00020   -0.00312   -0.00780
S6    2    0.423009    0.337643    0.251267    11.00000    0.01065    0.00983 =
         0.00466    0.00121    0.00134   -0.00126
HKLF 4

REM  x1 in Pna2(1)
REM R1 =  0.0373 for    1381 Fo > 4sig(Fo)  and  0.0561 for all    1731 data
REM     81 parameters refined using      1 restraints

END

WGHT      0.0329     11.9321

REM Highest difference peak  1.590,  deepest hole -0.635,  1-sigma level  0.186
Q1    1   0.2235  0.7303  0.0041  11.00000  0.05    1.59
Q2    1  -0.2066  0.6726  0.0051  11.00000  0.05    0.79
Q3    1  -0.1811  0.7292  0.0791  11.00000  0.05    0.78
Q4    1  -0.2172  0.6970  0.0832  11.00000  0.05    0.78
Q5    1   0.1880  0.0913  0.0046  11.00000  0.05    0.77
;
_shelx_res_checksum              38192
_shelx_hkl_file
;
   0   0  -1    0.05    0.20
   0   0   1   -0.22    0.20
   0   0  -1    0.41    0.28
   0   0  -1   -0.69    0.41
   0   0  -1   -0.38    0.23
   0   0   1    0.07    0.23
   0   0   1   -0.43    0.42
   0   0   1   -0.16    0.26
   0   0  -2  392.92   10.11
   0   0   2  374.40   11.12
   0   0   2  402.92   10.61
   0   0   2  392.57   10.15
   0   0  -2  409.61   11.24
   0   0  -2  389.06   10.14
   0   0  -2  400.38   10.56
   0   0   2  403.07   10.15
   0   0  -3    2.01    1.15
   0   0   3   -0.91    0.79
   0   0   3    1.26    1.43
   0   0  -3    0.34    1.52
   0   0   3    0.25    0.79
   0   0  -3   -0.04    0.60
   0   0  -3    0.28    0.65
   0   0   3    0.34    0.95
   0   0   4  966.40   25.69
   0   0   4  991.89   27.21
   0   0  -4  995.63   24.81
   0   0   4  971.08   24.98
   0   0  -4  981.89   24.91
   0   0  -4  985.58   27.05
   0   0  -4  974.23   25.66
   0   0   4 1000.00   24.91
   0   0  -5    0.72    1.24
   0   0  -5    0.82    1.03
   0   0  -5    0.44    2.55
   0   0   5    0.83    2.30
   0   0   5    1.28    1.85
   0   0   5    0.43    2.14
   0   0  -6   82.19    4.21
   0   0   6   97.27    7.63
   0   0  -6   79.28    4.09
   0   0   6   83.34    5.38
   0   0   7    1.90    4.67
   0   0  -7    0.15    1.79
   0   0   7   -0.70    3.25
   0   0  -7    0.43    2.30
  -1   0  -1   -0.39    0.19
  -1   0   1   -0.12    0.30
   1   0  -1   -0.31    0.36
  -1   0  -1    0.23    0.24
  -1   0  -1    0.65    0.60
   1   0   1   -0.16    0.27
   1   0   1    0.04    0.32
  -1   0  -1    0.25    0.32
   1   0   1    0.04    0.29
  -1   0  -1   -0.24    0.22
  -1   0   1    0.12    0.51
  -1   0   1   -0.02    0.32
   1   0  -1    0.49    0.49
   1   0  -1   -0.27    0.23
   1   0   1   -0.48    0.47
  -1   0   2    0.64    0.51
  -1   0  -2    0.34    0.44
  -1   0   2   -0.36    0.50
   1   0  -2    0.13    0.66
   1   0  -2   -0.48    0.48
  -1   0  -2   -0.27    0.37
   1   0   2    0.23    0.48
   1   0  -2   -0.38    0.46
   1   0  -2   -1.36    0.94
   1   0   2    0.56    0.60
   1   0   2    0.46    0.52
  -1   0  -2    0.11    1.18
   1   0   2   -0.76    0.80
  -1   0   2   -0.10    0.64
  -1   0   2    0.08    0.83
  -1   0  -2    0.28    0.60
   1   0  -3   -0.16    1.04
  -1   0  -3    0.19    0.93
  -1   0  -3    0.14    0.54
   1   0   3    0.22    1.30
   1   0   3   -0.22    0.89
  -1   0   3   -0.26    1.39
  -1   0  -3   -1.41    1.60
  -1   0  -3    0.71    0.69
   1   0  -3   -0.26    0.69
   1   0  -3   -0.23    0.54
  -1   0   3    0.01    0.83
   1   0   3    0.84    0.82
   1   0   3    0.51    0.89
  -1   0   3    0.30    0.99
   1   0  -3   -0.97    1.69
  -1   0   3    0.39    0.85
   1   0   4   -0.39    1.36
  -1   0   4   -0.99    1.47
   1   0   4   -1.46    1.94
  -1   0  -4   -1.18    1.52
   1   0  -4    0.06    0.90
   1   0  -4   -2.28    1.51
  -1   0   4   -1.92    1.92
   1   0   4   -0.54    1.10
   1   0  -4    2.91    2.71
   1   0  -4    0.72    0.94
  -1   0   4    0.96    1.39
  -1   0  -4   -1.16    2.67
  -1   0  -4   -0.22    0.84
  -1   0  -4    0.23    0.88
  -1   0   4    0.18    1.23
   1   0   4   -0.47    1.24
  -1   0   5    2.61    1.74
   1   0  -5   -2.31    1.12
  -1   0   5   -2.93    2.54
  -1   0  -5    0.54    1.00
  -1   0  -5   -0.09    1.20
   1   0   5    2.03    2.16
   1   0   5   -2.70    2.37
   1   0  -5   -1.61    0.95
   1   0   5    2.18    1.80
   1   0  -5   -4.61    2.26
  -1   0   6   -2.17    2.08
   1   0  -6   -0.01    1.79
   1   0   6   -2.89    2.34
   1   0   6    1.78    3.33
   1   0  -6   -1.29    1.38
  -1   0  -6    1.20    1.69
  -1   0  -6   -2.80    1.38
  -1   0   6   -0.04    3.26
  -1   0   7    1.76    4.72
  -1   0  -7   -0.83    2.24
  -1   0  -7    3.82    2.06
  -1   0   7    0.51    3.33
   1   0  -7   -1.61    1.85
   1   0  -7   -2.56    2.32
   1   0   7    7.80    3.65
   1   0   7    4.46    4.55
   2   0   0   22.54    1.25
   2   0   0   22.92    0.99
   2   0   0   23.34    0.89
  -2   0   0   22.82    0.88
  -2   0  -1   20.64    1.18
   2   0   1   18.52    1.49
   2   0   1   20.01    0.98
  -2   0  -1   20.24    1.61
  -2   0   1   19.31    1.09
  -2   0  -1   21.11    0.78
   2   0  -1   20.95    1.08
   2   0   1   20.92    1.02
  -2   0   1   19.86    1.41
   2   0   1   20.90    0.81
  -2   0   1   21.48    1.20
   2   0   1   21.25    1.13
   2   0  -1   21.21    1.13
  -2   0  -1   18.86    0.95
  -2   0  -2   31.81    2.43
   2   0  -2   30.43    1.59
   2   0   2   29.71    1.76
   2   0  -2   31.68    1.90
   2   0  -2   30.84    1.69
  -2   0   2   33.25    1.73
  -2   0  -2   30.58    1.42
  -2   0  -2   30.47    1.32
   2   0  -2   34.42    2.56
  -2   0  -2   34.38    1.88
  -2   0   2   29.89    1.78
   2   0   2   31.05    1.50
   2   0   2   29.88    1.55
  -2   0   2   35.33    2.34
   2   0   2   30.18    2.33
  -2   0  -2   31.75    1.51
  -2   0  -3   24.42    2.17
   2   0   3   27.08    1.83
  -2   0  -3   33.61    3.55
   2   0  -3   22.43    1.75
  -2   0   3   24.81    2.03
   2   0   3   26.75    2.78
  -2   0   3   27.26    1.97
   2   0   3   27.15    1.79
   2   0   3   25.04    2.03
   2   0  -3   32.33    3.40
  -2   0  -3   22.68    1.55
  -2   0  -3   26.57    1.61
  -2   0   3   29.42    2.93
   2   0  -3   30.63    2.25
   2   0  -3   25.07    1.69
   2   0  -4   17.51    2.40
  -2   0  -4   10.98    3.07
  -2   0   4   15.48    3.01
  -2   0   4   14.97    1.85
   2   0  -4   16.00    1.83
  -2   0  -4   13.22    2.35
   2   0  -4   12.11    3.41
   2   0  -4   11.86    1.67
  -2   0  -4   16.79    1.55
  -2   0  -4   14.56    1.66
   2   0   4   11.92    1.86
   2   0   4   13.87    2.72
   2   0   4   16.41    2.02
   2   0  -5   10.00    1.77
  -2   0  -5   11.29    1.62
   2   0  -5   15.27    3.23
  -2   0  -5   13.21    1.97
   2   0  -5   13.06    2.03
  -2   0   5    8.48    3.37
  -2   0   5   10.46    2.40
   2   0   5    7.67    2.07
   2   0   5   13.77    3.31
   2   0   5   12.48    2.22
  -2   0  -6   15.81    2.39
  -2   0  -6   19.25    2.59
  -2   0   6   20.36    3.31
   2   0  -6   14.16    2.21
   2   0  -6   17.83    2.59
  -2   0   6   18.43    4.64
   2   0   6   21.13    4.36
   2   0   6   19.58    3.32
   2   0  -7   17.28    2.99
  -2   0  -7   15.08    2.65
  -2   0   7   20.37    4.38
  -2   0  -7   11.12    3.00
   2   0   7   10.20    5.56
   2   0  -7   16.37    3.24
  -2   0   7   14.91    4.81
   2   0   7   15.90    4.40
  -2   0  -7   16.42    2.98
   3   0   0    0.23    0.65
  -3   0   0   -0.23    0.29
  -3   0   0    0.23    0.74
  -3   0   0    0.11    0.44
   3   0   0    0.33    0.40
   3   0   0   -0.06    0.35
   3   0   1    0.51    0.44
   3   0   1    0.18    0.73
  -3   0  -1   -0.36    0.55
  -3   0  -1   -0.39    0.28
   3   0   1    0.03    0.35
  -3   0   1    0.08    0.58
  -3   0  -1   -0.39    0.46
   3   0  -1    0.04    0.42
   3   0   1    0.34    0.47
   3   0  -1    0.57    0.46
  -3   0  -1    0.12    0.95
  -3   0   2   -0.23    1.15
   3   0   2   -0.52    0.72
   3   0   2   -0.04    1.12
  -3   0  -2    0.97    0.58
   3   0   2   -0.05    0.60
   3   0  -2    0.77    0.89
  -3   0  -2   -1.43    1.36
   3   0  -2   -0.01    0.58
   3   0   2   -0.21    0.65
  -3   0  -2   -0.05    0.82
  -3   0   2    0.44    0.77
  -3   0   2    1.37    0.91
   3   0  -2    0.94    0.67
  -3   0   3   -1.95    1.08
  -3   0   3    0.97    1.58
  -3   0  -3   -0.35    0.63
   3   0   3   -0.18    1.36
   3   0   3   -1.58    0.88
   3   0  -3    3.04    2.13
  -3   0   3   -0.04    0.73
  -3   0  -3   -0.05    0.65
   3   0  -3    1.76    1.33
   3   0   3   -0.89    0.95
   3   0  -3   -0.24    0.73
  -3   0  -3   -0.88    1.20
   3   0  -3   -0.98    0.93
   3   0   3    0.69    0.93
   3   0  -3    0.07    0.81
  -3   0  -3    0.57    2.05
  -3   0  -3   -0.38    0.69
   3   0   4   -1.08    1.31
  -3   0  -4    0.85    1.92
   3   0  -4    1.64    1.59
   3   0  -4   -1.15    3.01
  -3   0  -4    0.29    1.02
  -3   0  -4    0.62    0.98
  -3   0  -4   -0.23    0.89
  -3   0   4   -0.04    1.84
   3   0  -4    1.33    1.03
   3   0  -4   -2.70    1.76
   3   0   4   -1.60    1.97
   3   0  -4    0.65    1.20
   3   0   4    0.89    1.29
  -3   0   4   -1.56    1.29
   3   0  -5    0.73    1.23
   3   0  -5   -1.54    1.54
  -3   0  -5   -1.54    1.08
   3   0   5   -3.20    2.77
  -3   0  -5   -0.97    1.32
  -3   0   5    0.61    1.47
   3   0   5   -3.60    1.63
  -3   0   5   -0.08    2.78
  -3   0  -5    1.11    1.22
   3   0  -5   -1.26    2.45
  -3   0   6    1.92    3.80
   3   0   6    0.44    2.01
   3   0  -6    1.29    1.49
  -3   0  -6   -2.79    1.77
   3   0   6   -1.23    3.49
   3   0  -6   -0.52    1.89
  -3   0   6   -2.42    2.69
  -3   0  -6   -1.17    1.60
  -3   0  -6   -1.83    1.42
  -3   0   7   -2.36    3.34
  -3   0  -7   -2.27    2.30
   3   0  -7   -0.17    2.18
   3   0  -7    3.40    2.37
  -3   0   7   -4.73    4.91
  -3   0  -7    0.39    2.26
   3   0   7   -2.74    2.81
   3   0   7   -5.00    4.54
  -3   0  -7   -2.15    1.96
  -4   0   0  145.97    4.88
   4   0   0  139.58    4.29
   4   0   0  145.09    4.07
  -4   0   0  147.01    4.24
   4   0   0  138.35    4.78
  -4   0   0  129.40    3.99
   4   0   1   19.93    1.09
   4   0   1   18.67    1.28
  -4   0  -1   19.77    1.30
  -4   0   1   19.38    1.81
   4   0   1   19.16    1.36
  -4   0  -1   19.79    1.41
   4   0   1   19.78    1.93
   4   0  -1   17.86    1.52
  -4   0  -1   20.40    2.11
  -4   0  -1   17.39    0.95
   4   0  -1   19.47    1.33
  -4   0   1   20.36    1.46
  -4   0  -2   -0.32    0.59
   4   0   2   -1.91    1.26
   4   0   2    0.11    0.67
   4   0   2    1.00    0.72
   4   0  -2    2.04    0.83
  -4   0   2    0.43    0.98
  -4   0   2   -0.33    0.82
  -4   0  -2    0.71    0.98
  -4   0  -2    2.52    1.62
   4   0  -2    0.62    0.70
  -4   0   2   -0.45    1.27
   4   0   2   -0.23    0.77
  -4   0   3   22.32    2.06
   4   0  -3   21.59    1.92
   4   0   3   21.75    2.04
  -4   0   3   23.11    2.31
  -4   0  -3   26.94    3.38
  -4   0   3   25.70    2.89
   4   0   3   22.47    1.93
   4   0   3   21.81    1.95
   4   0   3   27.58    3.38
  -4   0  -3   24.15    2.40
  -4   0  -3   20.07    1.57
   4   0  -3   23.17    2.06
  -4   0  -4   90.68    3.19
   4   0  -4   89.69    4.01
  -4   0  -4   94.71    3.70
   4   0  -4   89.86    4.68
  -4   0   4   91.57    4.37
   4   0  -4   82.09    3.92
  -4   0  -4   88.15    3.83
  -4   0   4   94.83    5.73
   4   0   4   91.40    5.88
   4   0   4   89.87    4.41
   4   0   4   91.33    3.96
   4   0   5    7.75    3.46
  -4   0   5   10.31    3.55
  -4   0  -5    8.73    1.81
  -4   0   5   10.23    2.50
  -4   0  -5   11.37    1.78
   4   0   5   11.59    2.37
   4   0  -5   10.23    1.79
   4   0  -5   10.05    3.16
   4   0  -5   15.69    2.35
   4   0  -6    1.75    2.26
  -4   0  -6    0.39    1.68
  -4   0  -6    3.29    2.02
   4   0   6    0.68    2.55
  -4   0   6    3.57    2.76
   4   0   6   -0.19    3.52
  -4   0  -6    1.78    1.96
  -4   0   6    4.71    4.32
   4   0  -6    2.25    1.77
   4   0   7   14.69    5.75
  -4   0  -7   12.01    2.91
   4   0  -7   15.97    3.27
  -4   0   7   18.22    6.18
  -4   0   7   18.39    3.76
  -4   0  -7   14.45    2.91
   4   0  -7   12.04    2.68
   4   0   7    9.47    3.35
  -4   0  -7   18.45    3.02
   5   0   0   -1.01    0.95
  -5   0   0    0.26    1.33
  -5   0   0   -0.20    0.52
   5   0   0    0.12    0.72
  -5   0   0    0.40    0.81
   5   0   0   -1.43    0.66
  -5   0  -1   -0.79    1.48
   5   0   1    0.40    0.75
   5   0   1    0.34    0.63
   5   0   1   -1.77    1.01
   5   0  -1    2.04    0.86
  -5   0   1    1.41    0.96
  -5   0  -1   -0.46    0.89
   5   0   1   -1.24    0.75
   5   0  -1   -0.73    0.84
  -5   0  -1   -0.49    0.49
  -5   0   1   -2.20    1.20
  -5   0   2    1.32    1.38
   5   0   2    1.46    1.33
   5   0  -2   -0.27    1.09
  -5   0  -2   -2.98    1.97
   5   0   2    1.53    1.04
   5   0   2   -0.83    0.71
  -5   0   2   -1.48    0.80
   5   0   2   -0.49    0.88
  -5   0  -2   -1.28    0.68
   5   0  -2    0.96    0.85
  -5   0  -2   -0.50    1.18
   5   0   2    0.35    0.77
  -5   0   2    1.09    1.42
  -5   0   3   -0.71    1.62
   5   0  -3    0.18    0.97
  -5   0  -3   -0.96    0.80
  -5   0   3   -1.53    1.79
  -5   0   3    1.79    1.15
   5   0   3   -2.11    1.09
   5   0  -3   -1.91    1.26
  -5   0  -3   -0.24    1.65
   5   0   3    2.81    2.10
   5   0   3    1.82    1.32
  -5   0  -3   -0.52    2.72
   5   0   3    1.19    1.34
   5   0   4    0.14    1.71
  -5   0   4    1.68    1.39
   5   0   4   -0.09    1.48
  -5   0  -4    1.17    1.19
   5   0  -4    1.98    1.25
   5   0  -4    0.72    1.46
   5   0   4   -1.56    2.41
  -5   0  -5   -0.70    1.23
  -5   0   5   -3.83    2.90
   5   0   5   -1.45    3.08
   5   0  -5   -0.96    1.42
   5   0  -5   -1.10    1.74
  -5   0   5    2.06    1.87
   5   0   5   -3.78    1.63
   5   0  -6    1.99    1.64
  -5   0  -6    1.00    1.71
   5   0   6   -6.56    3.91
  -5   0   6    2.94    4.18
   5   0  -6   -2.69    2.05
  -5   0   6    1.12    2.76
  -5   0  -6   -1.33    1.76
   5   0   6   -1.37    2.30
   5   0   7   -7.83    4.66
  -5   0  -7    1.87    2.25
  -5   0   7   -7.36    5.18
   5   0  -7   -1.61    2.78
   5   0  -7    0.96    2.34
   5   0   7    4.42    3.71
  -5   0  -7   -0.48    2.53
  -5   0   7    1.18    4.08
   6   0   0    0.54    1.10
   6   0   0    0.33    0.77
   6   0   0    0.06    1.10
  -6   0   0    0.76    1.05
   6   0   0    1.11    0.92
  -6   0   0    0.09    1.74
  -6   0   0    0.38    0.65
   6   0  -1   66.86    3.39
   6   0   1   67.36    3.77
  -6   0  -1   77.41    3.25
  -6   0  -1   69.70    4.27
   6   0   1   73.39    3.12
  -6   0  -1   70.62    2.56
  -6   0   1   77.24    4.16
  -6   0   1   77.08    3.24
   6   0  -1   76.11    3.15
   6   0   1   74.06    3.17
   6   0   1   75.75    2.72
   6   0   2    1.91    1.20
   6   0   2    2.00    1.19
   6   0  -2    1.69    1.20
  -6   0  -2    6.76    2.36
  -6   0  -2    1.78    1.49
  -6   0  -2    1.39    0.96
   6   0   2   -1.81    1.70
  -6   0   2    3.14    1.81
   6   0  -2    2.78    1.42
  -6   0  -2    2.14    0.60
   6   0   2    3.06    0.92
  -6   0   2    2.75    1.09
  -6   0   2    0.56    1.35
  -6   0   3   41.91    2.87
  -6   0  -3   39.87    2.50
   6   0  -3   44.76    2.79
  -6   0   3   41.94    3.98
   6   0   3   41.35    2.78
   6   0   3   42.90    4.06
   6   0   3   39.32    2.87
   6   0  -4    2.86    1.60
   6   0   4    3.90    2.75
  -6   0  -4    3.57    1.29
   6   0  -4    3.09    1.54
   6   0   4    0.27    1.32
  -6   0   4    7.26    2.96
  -6   0   4    4.08    1.73
   6   0  -5   37.28    3.21
  -6   0   5   32.25    5.23
   6   0  -5   26.21    3.13
   6   0   5   46.26    6.06
   6   0   5   34.68    3.66
  -6   0  -5   33.59    2.86
  -6   0   5   37.99    3.70
   6   0   6    1.12    2.37
  -6   0   6    3.26    2.75
  -6   0  -6    0.80    2.22
   6   0  -6    3.47    2.38
  -6   0   6    6.60    4.43
   6   0  -6    3.18    1.97
   6   0   6   -1.04    4.43
   7   0   0    0.81    1.40
  -7   0   0   -1.92    1.21
  -7   0   0    0.69    2.18
   7   0   0   -0.39    1.02
  -7   0   0    0.59    0.74
   7   0   0    2.18    1.16
   7   0   0   -2.43    1.48
   7   0   1    1.17    1.05
   7   0   1   -0.23    1.28
   7   0  -1   -0.75    0.99
  -7   0   1    1.48    1.35
  -7   0  -1   -0.59    1.20
  -7   0   1   -3.14    2.31
   7   0  -1   -1.91    1.14
   7   0   1    0.66    0.94
   7   0   1    2.10    1.96
  -7   0  -1   -0.62    2.27
  -7   0  -1   -0.15    0.74
   7   0   2   -1.22    0.97
  -7   0  -2   -0.56    1.31
   7   0   2   -1.37    1.30
   7   0   2   -0.17    0.99
  -7   0   2   -3.11    1.19
   7   0   2    0.06    1.75
   7   0  -2   -0.86    1.14
  -7   0  -2   -0.07    0.68
  -7   0  -3   -1.49    1.07
   7   0  -3    0.05    1.27
  -7   0   3   -0.27    1.44
   7   0   3   -0.68    2.24
   7   0   3    0.53    1.50
  -7   0   3    3.57    2.16
  -7   0  -4   -1.48    1.29
   7   0   4    0.02    1.68
  -7   0   4    3.57    3.04
   7   0   4   -4.53    2.49
  -7   0   4    0.44    1.57
   7   0  -4    2.87    1.55
  -7   0   5   -0.43    2.20
   7   0   5   -3.03    3.48
   7   0  -5    1.55    1.77
   7   0  -5   -0.68    2.12
   7   0   5   -2.02    2.10
  -7   0  -5   -0.62    1.70
  -7   0   5   -2.58    3.31
   7   0   6    2.63    2.85
   7   0  -6   -1.34    2.54
  -7   0   6    3.73    4.57
   7   0  -6   -2.89    2.15
   7   0   6   -0.30    4.77
  -7   0  -6   -0.92    2.14
  -7   0   6   -3.75    3.13
   8   0   0   23.20    2.31
  -8   0   0   21.40    1.71
   8   0   0   22.76    2.23
   8   0   0   24.75    2.97
   8   0  -1   72.04    4.08
  -8   0  -1   71.26    2.85
   8   0   1   75.37    3.67
   8   0   1   81.48    3.32
   8   0   1   76.80    4.69
   8   0  -1   72.67    3.66
  -8   0   2  130.60    5.66
  -8   0  -2  135.17    4.22
   8   0   2  141.94    4.55
   8   0   2  135.95    6.53
   8   0   2  137.71    5.41
   8   0  -2  131.42    5.65
   8   0   3   56.74    3.57
  -8   0  -3   57.06    3.42
  -8   0   3   56.46    4.96
   8   0  -3   51.40    3.54
   8   0   3   53.06    4.74
  -8   0   3   48.79    3.50
  -8   0   4   13.73    2.59
  -8   0  -4   16.47    2.21
   8   0   4   14.02    2.71
   8   0   4    9.62    3.35
  -8   0   4   16.58    4.52
   8   0  -4   13.98    2.34
  -8   0  -5   25.80    3.02
   8   0  -5   28.62    3.49
   8   0  -5   29.58    3.75
   8   0   5   22.52    3.47
  -8   0   5   28.58    3.71
  -8   0   5   23.18    4.79
   8   0   5   30.49    5.70
  -8   0   6   49.94    7.54
   8   0  -6   62.80    5.05
   8   0  -6   56.09    4.77
   8   0   6   62.49    8.28
   8   0   6   60.35    5.58
  -8   0  -6   60.02    4.51
  -8   0   6   65.04    5.75
   9   0   0    2.67    1.96
   9   0   0   -0.51    1.29
   9   0   0    0.34    1.81
   9   0   1    0.00    2.00
   9   0   1   -0.62    1.24
   9   0   1   -0.03    1.57
   9   0  -1    1.97    1.73
  -9   0  -1   -0.52    1.01
   9   0  -2    1.17    1.43
   9   0   2   -1.16    1.26
   9   0   2    0.81    1.62
   9   0   2   -2.53    2.19
  -9   0  -2    0.49    0.99
   9   0  -3   -4.20    1.54
  -9   0   3   -1.86    2.87
   9   0   3   -0.66    1.67
   9   0   3    0.25    2.82
  -9   0   3    1.27    2.03
   9   0  -4   -0.32    1.91
   9   0   4   -0.06    2.03
  -9   0   4   -1.92    3.89
  -9   0   4   -0.15    2.19
  -9   0  -4   -1.34    1.78
   9   0   4    2.46    3.52
  -9   0   5    0.04    4.31
   9   0   5   -4.90    4.51
   9   0  -5    3.83    2.33
  -9   0   5    2.84    3.21
   9   0  -5   -1.71    2.37
   9   0   5    3.38    2.50
  -9   0  -5    0.54    2.22
  10   0   0   16.07    2.92
  10   0   0   16.42    2.39
  10   0  -1   24.06    3.38
  10   0   1   26.66    2.87
  10   0   1   19.68    2.63
  10   0   1   22.09    3.40
 -10   0   2   50.37    4.59
  10   0   2   45.33    4.59
  10   0   2   44.44    3.33
  10   0  -2   46.19    3.80
  10   0   2   52.37    3.37
 -10   0  -2   47.44    2.63
  10   0   3   14.23    2.88
  10   0   3   15.38    3.56
 -10   0   3   17.47    4.17
  10   0  -3   17.90    2.95
 -10   0   3    9.06    3.14
  10   0   4   13.33    3.00
  10   0  -4    8.51    2.55
 -10   0   4    7.18    4.37
  10   0   4   13.09    4.19
 -10   0   4    8.03    2.83
  10   0   5   38.29    6.74
 -10   0  -5   31.67    3.89
  10   0  -5   27.09    3.69
  10   0   5   34.74    5.03
  10   0  -5   28.39    4.33
 -10   0   5   32.04    4.33
 -10   0   5   28.94    6.28
  11   0   0    3.57    2.31
  11   0   0   -0.18    1.69
  11   0   1    0.18    1.77
  11   0   1   -2.15    2.51
  11   0  -1    2.27    2.17
 -11   0   2    0.76    2.47
  11   0  -2   -1.90    1.98
  11   0   2    0.22    2.62
  11   0   2   -1.23    2.94
  11   0   2    1.93    2.08
 -11   0   3   -5.33    3.93
  11   0   3    1.20    2.49
  11   0   3   -1.22    3.54
  11   0  -3    3.66    2.50
  11   0   3   -2.42    2.53
  11   0   4   -1.02    2.66
 -11   0   4   -4.93    4.15
  11   0   4    0.50    4.44
 -11   0   4   -6.80    2.82
  11   0  -4   -2.65    2.34
  12   0   0   -0.28    2.10
  12   0   0   -0.65    2.63
  12   0   1    1.09    3.00
  12   0  -1    5.46    2.62
  12   0   1    7.55    2.34
 -12   0   2   83.21    5.11
  12   0   2   85.15    5.01
  12   0   2   83.04    6.98
 -12   0   3   -2.33    4.96
  12   0   3    3.08    2.36
  12   0  -3    7.27    2.77
  12   0   3    6.75    4.05
  13   0   0   -0.34    2.96
  13   0   1   -1.01    2.36
  13   0   1    6.78    3.72
  13   0  -1   -2.13    2.62
  13   0  -2   -4.89    3.01
  13   0   2   -1.46    3.99
  13   0   2    3.05    2.64
   0   1   1   53.93    2.11
   0  -1   1   50.33    1.78
   0   1  -1   54.21    1.66
   0  -1   1   49.63    2.10
   0  -1  -1   50.85    1.60
   0   1  -1   52.13    1.80
   0   1  -1   49.68    1.70
   0   1  -1   53.56    2.13
   0   1   1   50.47    1.53
   0   1   1   52.56    1.82
   0   1   1   54.44    1.53
   0   1   1   55.43    1.64
   0  -1  -1   52.66    1.51
   0  -1  -2   -0.37    0.62
   0  -1  -2    0.39    0.46
   0  -1   2   -0.09    0.52
   0  -1   2   -0.32    0.57
   0   1   2    0.36    0.85
   0  -1   2    0.83    0.63
   0  -1  -2    0.24    0.41
   0  -1  -2    0.20    1.04
   0  -1  -2    0.22    0.42
   0   1   2    0.68    0.55
   0   1  -2    0.46    0.61
   0   1   2   -1.06    0.49
   0   1  -2    0.23    0.41
   0   1  -2   -0.44    1.07
   0   1  -2   -0.09    0.46
   0   1   2    0.24    0.48
   0  -1   2   -0.97    0.82
   0   1   3   17.66    1.69
   0   1   3   18.26    1.53
   0   1   3   18.63    2.56
   0  -1   3   15.36    2.32
   0   1  -3   16.38    1.36
   0   1   3   16.21    1.42
   0  -1   3   16.64    1.55
   0   1  -3   15.74    1.42
   0  -1   3   17.30    1.70
   0  -1  -3   19.77    2.65
   0  -1  -3   18.44    2.02
   0  -1  -3   14.13    1.28
   0   1  -3   17.01    2.72
   0   1  -3   17.20    1.82
   0  -1  -3   17.01    1.27
   0  -1   3   16.37    1.68
   0  -1  -4   -1.51    1.45
   0  -1   4    2.17    1.39
   0  -1  -4   -0.33    1.04
   0   1   4   -0.38    1.14
   0  -1  -4    1.10    2.57
   0  -1   4    0.37    1.90
   0   1   4    0.26    1.33
   0  -1  -4    0.41    0.95
   0   1   4   -0.09    1.20
   0   1  -4   -2.75    2.65
   0   1  -4   -0.42    1.23
   0  -1   4    2.05    1.20
   0  -1   4   -1.92    1.58
   0   1  -4    0.25    0.86
   0  -1  -4    1.64    0.95
   0   1   4    2.12    2.12
   0   1  -4    1.60    1.06
   0  -1   5   12.62    3.51
   0  -1  -5   17.20    2.02
   0   1   5   19.57    2.68
   0   1   5   12.63    2.50
   0   1  -5   16.07    2.02
   0   1  -5   12.25    2.58
   0   1   5   18.25    3.69
   0  -1   5   19.26    2.62
   0  -1  -5   15.52    2.08
   0  -1  -5   16.46    2.08
   0   1  -5   13.29    1.94
   0   1  -6   -2.58    1.72
   0  -1  -6    1.37    1.49
   0  -1   6    2.67    2.46
   0   1  -6    2.57    1.45
   0   1   6    2.08    3.04
   0   1   6   -0.49    2.12
   0  -1   6    2.09    3.28
   0  -1  -6    2.41    2.01
   0   1   7    4.11    3.25
   0  -1  -7    3.00    2.01
   0   1  -7    4.51    2.24
   0  -1   7    2.18    3.12
   0  -1  -7    4.18    2.26
   0  -1   7   -1.40    4.34
   0   1  -7    4.30    2.49
   0   1   7    4.67    4.87
   1  -1   1    2.14    0.48
   1   1  -1    3.39    0.50
  -1  -1  -1    3.39    0.50
   1  -1   1    1.73    0.71
  -1   1   1    4.58    0.72
  -1  -1  -1    2.73    0.71
   1  -1   1    3.07    0.49
   1   1  -1    3.09    0.52
   1  -1   1    3.89    0.47
  -1  -1  -1    2.70    0.40
   1   1  -1    2.70    0.69
  -1   1   1    2.75    0.83
   1   1  -1    2.49    0.41
  -1  -1  -1    3.16    0.33
   1  -1   1    3.07    0.46
  -1   1   1    3.66    0.50
  -1   1   1    2.35    0.38
   1   1   1    3.38    0.42
   1  -1  -1    3.41    0.51
   1   1   1    2.93    0.50
  -1   1  -1    2.58    0.48
  -1  -1   1    2.67    0.52
  -1  -1   1    3.29    0.69
  -1   1  -1    4.32    0.62
  -1   1  -1    2.95    0.46
   1   1   1    3.81    0.74
   1  -1  -1    2.11    0.39
  -1   1  -1    3.00    0.43
   1   1   1    3.19    0.36
  -1  -1   1    4.51    0.63
  -1  -1   1    2.09    0.40
  -1   1  -1    1.58    0.73
  -1  -1  -2   82.93    3.02
   1  -1   2   78.48    3.61
   1   1  -2   76.96    2.78
  -1  -1  -2   79.89    2.45
   1  -1   2   82.61    2.69
   1   1  -2   77.27    2.71
   1  -1   2   78.34    3.01
   1   1  -2   82.57    3.00
  -1  -1  -2   77.35    2.62
  -1  -1  -2   76.01    3.50
   1   1  -2   78.87    3.57
  -1   1   2   75.11    3.53
  -1   1   2   80.19    2.74
  -1   1   2   78.47    3.02
   1  -1   2   81.96    2.74
  -1   1  -2   83.80    3.73
  -1  -1   2   81.59    2.87
   1  -1  -2   81.62    2.64
  -1   1  -2   80.06    3.05
   1  -1  -2   77.40    2.62
   1  -1  -2   76.19    3.52
   1  -1  -2   78.03    2.69
   1   1   2   80.92    2.65
   1  -1  -2   81.60    3.08
   1   1   2   81.74    2.53
  -1   1  -2   79.02    2.64
   1   1   2   85.07    3.06
   1   1   2   79.96    3.55
  -1   1  -2   75.96    2.66
  -1  -1   2   77.19    3.52
  -1  -1   2   77.47    2.95
  -1  -1   2   83.88    2.80
   1  -1   3    5.46    1.18
  -1   1   3    5.43    1.14
   1   1  -3    3.97    0.85
  -1  -1  -3    7.41    0.97
  -1  -1  -3    7.78    1.46
   1  -1   3    3.31    1.49
  -1  -1  -3    4.64    1.84
   1  -1   3    3.76    1.07
   1   1  -3    4.92    1.79
  -1  -1  -3    4.57    0.88
   1  -1   3    4.60    1.15
   1   1  -3    6.19    1.12
  -1   1   3    5.72    1.39
  -1   1   3    4.44    1.65
   1   1  -3    5.87    1.28
   1   1   3    5.44    1.71
   1  -1  -3    5.77    1.07
   1   1   3    4.63    1.01
  -1  -1   3    3.48    1.09
  -1   1  -3    6.98    2.12
  -1   1  -3    4.85    1.47
   1  -1  -3    7.34    2.30
  -1  -1   3    5.62    1.76
  -1   1  -3    5.44    1.02
   1   1   3    4.39    1.26
   1  -1  -3    5.27    1.06
   1  -1  -3    7.28    1.49
  -1  -1   3    5.79    1.13
   1   1   3    6.71    1.05
  -1   1  -3    5.08    0.87
   1  -1  -3    5.80    0.97
  -1  -1   3    4.65    1.24
  -1   1   4   46.44    3.09
   1   1  -4   45.58    2.52
  -1  -1  -4   44.09    4.59
  -1  -1  -4   49.46    3.36
   1  -1   4   41.74    2.80
   1  -1   4   50.87    4.38
   1  -1   4   46.24    3.09
  -1   1   4   46.42    2.81
   1  -1   4   44.87    2.71
  -1   1   4   50.11    4.45
  -1  -1  -4   46.41    2.51
   1   1  -4   44.93    3.17
   1   1  -4   50.96    4.68
  -1  -1  -4   45.81    2.30
   1   1   4   51.47    2.75
   1  -1  -4   47.27    4.88
   1  -1  -4   43.94    2.48
   1   1   4   45.08    2.78
  -1   1  -4   49.75    3.40
  -1   1  -4   41.15    4.69
  -1   1  -4   45.22    2.49
   1  -1  -4   43.39    2.42
   1   1   4   45.01    3.01
  -1  -1   4   39.62    2.85
   1  -1  -4   47.67    2.53
   1  -1  -4   43.83    3.32
   1   1   4   44.07    4.14
  -1  -1   4   48.44    3.03
  -1  -1   4   45.40    3.06
  -1   1  -4   46.63    2.55
  -1  -1   4   49.10    3.99
  -1  -1  -5    3.79    1.43
   1  -1   5    4.38    2.75
  -1  -1  -5    4.11    1.27
   1   1  -5    0.94    1.31
   1   1  -5    3.27    2.49
  -1   1   5    3.21    2.65
   1  -1   5    3.52    1.85
  -1  -1  -5    6.46    1.66
   1   1  -5    0.69    1.31
  -1   1   5    2.53    1.85
   1  -1  -5   -0.50    2.63
  -1   1  -5    4.04    1.28
   1  -1  -5    3.22    1.39
   1   1   5    1.48    1.70
   1  -1  -5    0.69    1.06
   1   1   5    2.44    2.56
  -1  -1   5    2.34    1.76
   1  -1  -5    4.15    1.61
  -1   1  -5    2.62    2.30
   1   1   5    4.73    2.03
  -1  -1   5    0.81    2.59
  -1   1  -5    3.15    1.50
  -1   1   6   36.72    4.29
   1   1  -6   32.36    2.97
   1  -1   6   27.42    5.53
  -1   1   6   40.52    5.94
  -1  -1  -6   39.68    3.04
  -1  -1  -6   35.71    3.07
  -1  -1  -6   40.34    3.47
   1  -1   6   39.05    4.37
   1   1  -6   32.22    3.18
  -1   1  -6   34.34    2.98
   1  -1  -6   31.54    2.91
  -1  -1   6   29.07    3.88
  -1   1  -6   32.85    3.08
   1  -1  -6   36.15    3.14
   1   1   6   33.93    5.44
   1   1   6   36.26    4.01
  -1  -1   6   35.31    5.57
  -1   1   7    3.11    3.16
  -1  -1  -7    2.97    2.13
  -1  -1  -7   -0.12    2.25
  -1   1   7    6.01    4.38
   1  -1   7   -2.22    4.36
   1   1  -7    0.72    1.95
   1  -1   7   -0.99    3.05
  -1  -1   7    1.46    3.26
  -1   1  -7    2.50    2.17
  -1   1  -7    2.54    2.26
   1  -1  -7    2.01    2.54
  -1  -1   7    4.04    4.58
   1   1   7    4.83    4.33
   1   1   7   -3.95    3.36
  -2   1   0    0.41    0.36
   2  -1   0    0.16    0.57
  -2  -1   0    0.18    0.41
   2  -1   0   -0.12    0.28
   2  -1   0    0.76    0.36
  -2   1   0    0.34    0.28
   2   1   0   -0.13    0.36
   2   1   0    0.17    0.24
  -2   1   0    0.09    0.33
  -2   1   0    0.07    0.61
  -2  -1   0   -0.03    0.22
   2  -1   0   -0.37    0.32
  -2   1   1    1.55    0.42
   2  -1   1    1.55    0.87
  -2   1   1    1.41    0.55
   2  -1   1    2.15    0.49
   2   1  -1    1.95    0.49
   2   1  -1    1.73    0.47
   2  -1   1    1.89    0.45
   2  -1   1    1.11    0.51
  -2  -1  -1    2.29    0.84
   2   1  -1    0.10    0.66
  -2  -1  -1    2.45    0.57
   2  -1   1    2.06    0.53
  -2  -1  -1    2.17    0.43
  -2  -1   1    1.13    0.49
   2  -1  -1    2.24    0.49
  -2   1  -1    1.74    0.41
  -2   1  -1    3.16    1.07
   2   1   1    1.57    0.45
   2   1   1    1.58    0.69
   2   1   1    1.43    0.40
   2   1   1    1.91    0.51
  -2   1  -1    1.44    0.52
  -2   1  -1    1.82    0.40
   2  -1  -1    2.77    0.55
  -2  -1   1    1.10    0.68
   2  -1   2   75.77    2.60
  -2   1   2   73.44    2.71
  -2   1   2   64.19    3.46
  -2  -1  -2   70.40    2.50
   2   1  -2   72.92    3.47
   2  -1   2   72.50    2.53
   2   1  -2   69.16    2.63
   2  -1   2   67.61    3.53
   2   1  -2   69.91    2.79
  -2  -1  -2   71.45    2.31
  -2  -1  -2   73.22    2.82
   2  -1   2   73.15    2.92
   2   1  -2   69.26    2.75
  -2   1   2   69.74    2.88
  -2  -1  -2   72.22    3.46
   2   1   2   72.64    2.54
  -2   1  -2   67.68    3.63
  -2   1  -2   68.56    2.49
   2   1   2   71.29    3.42
   2   1   2   70.32    2.78
   2  -1  -2   71.40    2.61
  -2   1  -2   71.56    2.55
  -2  -1   2   73.84    2.76
   2  -1  -2   77.11    2.63
  -2  -1   2   66.73    3.30
  -2  -1   2   72.52    2.81
   2  -1  -2   72.44    2.96
  -2   1  -2   71.95    2.91
  -2   1  -2   71.31    2.45
   2   1   2   76.57    2.39
  -2  -1  -3    0.39    1.64
  -2  -1  -3   -0.80    0.55
   2  -1   3    0.28    1.49
   2  -1   3    1.15    1.07
   2   1  -3    0.47    1.72
   2  -1   3   -0.07    0.89
   2   1  -3    1.02    1.15
   2   1  -3    0.49    0.66
  -2   1   3   -0.30    1.46
  -2  -1  -3    1.48    1.09
  -2   1   3    1.04    1.02
   2   1  -3    0.31    0.78
   2  -1   3   -0.37    0.74
  -2   1   3    1.24    0.84
  -2  -1  -3    0.58    0.59
   2   1   3    1.01    0.86
  -2  -1   3   -1.08    1.00
  -2   1  -3   -1.22    1.81
   2   1   3    1.48    0.99
  -2   1  -3    0.15    1.07
   2  -1  -3   -0.69    1.20
  -2  -1   3    0.97    1.46
  -2   1  -3    0.77    0.62
  -2   1  -3    1.38    0.77
   2   1   3    0.35    0.81
   2  -1  -3    3.62    1.97
   2  -1  -3   -0.21    0.69
  -2  -1   3    0.54    0.79
  -2   1  -3    0.03    0.73
   2   1   3    0.44    1.33
   2  -1  -3   -0.72    0.76
   2  -1  -3    0.80    0.79
   2  -1   4   -0.33    2.01
  -2   1   4    1.83    2.08
  -2   1   4   -0.36    1.38
  -2   1   4    0.11    1.12
   2  -1   4   -1.30    1.20
   2  -1   4   -1.17    1.46
   2   1  -4    3.12    2.65
  -2  -1  -4    2.04    2.57
   2   1  -4   -0.55    1.33
   2  -1   4    0.04    1.33
   2   1  -4    0.20    0.94
  -2  -1  -4    3.03    1.60
   2   1  -4    0.61    1.46
  -2  -1  -4    2.08    0.94
  -2  -1  -4    1.14    0.95
   2  -1  -4    1.93    1.12
   2  -1  -4   -0.30    1.17
  -2  -1   4   -0.47    1.33
   2  -1  -4   -0.21    0.87
  -2   1  -4   -1.42    1.42
  -2   1  -4   -0.70    0.94
   2   1   4   -0.61    1.28
   2  -1  -4   -0.11    1.59
  -2  -1   4   -0.88    1.91
   2   1   4    2.80    2.14
  -2   1  -4   -0.02    1.00
   2  -1  -4    3.62    2.84
   2   1   4   -1.66    1.26
  -2   1  -4    1.49    2.93
   2   1   4   -0.52    1.22
  -2  -1   4   -0.97    1.12
  -2   1   5   -0.36    2.81
  -2  -1  -5    2.06    1.39
   2   1  -5    1.55    2.38
   2   1  -5   -1.19    1.41
  -2   1   5   -2.10    1.50
   2  -1   5    1.93    1.71
   2   1  -5    0.63    1.12
  -2  -1  -5    0.50    0.94
   2  -1   5   -1.64    2.42
   2  -1  -5   -0.63    1.37
   2   1   5    1.75    2.03
   2   1   5    2.17    1.59
  -2  -1   5    0.74    2.85
  -2  -1   5    0.22    1.78
  -2   1  -5    0.11    1.31
   2   1   5    2.63    2.54
  -2   1  -5    1.90    1.21
   2  -1  -5    1.35    1.09
   2  -1  -5   -3.34    2.37
  -2   1   6   27.01    4.24
  -2   1   6   10.81    4.32
   2  -1   6   18.55    3.32
  -2  -1  -6   18.61    2.43
   2   1  -6   23.45    2.74
  -2  -1  -6   24.94    2.72
  -2  -1  -6   17.90    2.50
   2  -1   6   26.59    5.19
   2   1  -6   22.30    2.72
  -2   1  -6   24.45    2.89
   2  -1  -6   25.28    2.91
  -2   1  -6   24.62    3.23
   2   1   6   13.95    4.40
  -2  -1   6   24.14    3.40
  -2  -1   6   19.83    4.34
   2  -1  -6   18.96    2.55
  -2   1  -6   21.87    2.82
   2   1   6   21.71    3.62
  -2   1   7    0.25    3.06
   2   1  -7    0.50    2.34
   2   1  -7    2.06    2.30
  -2   1   7    3.62    4.82
   2  -1   7   -2.75    2.94
  -2  -1  -7    0.12    2.04
  -2  -1  -7   -0.50    2.17
   2  -1   7   -5.43    4.39
  -2   1  -7    1.61    2.15
   2   1   7    4.42    4.58
  -2  -1   7   -2.15    2.90
   2  -1  -7    5.23    2.73
   2   1   7   -3.42    3.14
   2  -1  -7   -0.99    2.06
  -2   1  -7   -0.95    2.47
  -2   1  -7   -1.12    2.42
  -2  -1   7   -2.06    4.57
   3  -1   0   28.69    1.39
   3   1   0   29.21    1.23
  -3   1   0   28.70    1.28
  -3   1   0   28.47    1.50
   3  -1   0   30.95    1.35
  -3  -1   0   32.07    1.63
   3   1   0   30.67    1.55
   3  -1   0   29.76    1.89
  -3   1   0   28.48    1.99
   3  -1   0   29.06    1.50
  -3  -1   0   31.27    1.20
   3   1   0   30.41    1.24
  -3   1   1  125.58    4.12
   3  -1   1  121.17    3.49
   3  -1   1  120.14    4.45
   3  -1   1  119.47    3.92
  -3  -1  -1  119.34    3.60
  -3  -1  -1  122.85    4.17
   3  -1   1  125.34    3.67
  -3  -1  -1  129.57    3.67
   3   1  -1  113.40    3.87
  -3   1   1  122.51    3.93
   3  -1  -1  121.51    3.71
  -3   1  -1  123.10    3.70
   3  -1  -1  116.97    3.85
  -3  -1   1  118.32    4.07
   3   1   1  120.21    4.12
  -3   1  -1  126.45    4.55
  -3   1  -1  122.91    3.47
   3   1   1  125.37    3.57
   3   1   1  121.20    3.68
  -3  -1   1  127.08    3.99
  -3   1  -1  126.98    3.93
  -3   1   2  285.45    9.14
   3  -1   2  296.08    7.72
  -3   1   2  279.20    8.28
  -3  -1  -2  297.97    8.19
   3  -1   2  306.48    7.96
   3  -1   2  296.82    7.92
   3   1  -2  306.46    8.99
  -3  -1  -2  289.71    7.71
   3   1  -2  277.53    8.10
  -3   1   2  308.24    8.27
   3   1  -2  292.44    8.19
   3  -1   2  279.35    8.36
   3  -1   2  277.92    9.20
  -3  -1  -2  296.44    8.97
  -3   1  -2  293.64    7.62
  -3  -1   2  301.27    8.28
   3   1   2  296.39    7.90
  -3   1  -2  298.53    8.38
   3  -1  -2  289.41    8.13
   3  -1  -2  289.16    7.98
   3   1   2  294.46    7.69
  -3  -1   2  286.06    8.84
   3   1   2  283.96    8.93
  -3   1  -2  288.39    9.22
  -3  -1   2  291.03    8.19
  -3   1  -2  284.93    7.88
   3   1   2  287.66    8.20
  -3  -1  -3   93.57    3.94
  -3   1   3   87.32    4.76
   3   1  -3   89.98    3.58
  -3  -1  -3   88.63    3.17
  -3  -1  -3   96.03    3.47
   3  -1   3   93.23    3.56
  -3   1   3   88.01    3.91
   3  -1   3   88.78    4.78
   3  -1   3   91.56    3.47
   3   1  -3  103.09    4.91
   3   1  -3   94.73    3.72
  -3   1   3   96.05    3.85
  -3  -1  -3   92.07    5.08
   3   1  -3   96.39    4.04
   3  -1   3   87.73    3.96
   3  -1  -3   89.65    3.61
  -3   1  -3   93.99    3.23
  -3  -1   3   91.89    4.77
   3   1   3   93.28    3.87
  -3  -1   3   97.24    3.87
  -3   1  -3   95.04    3.45
  -3   1  -3   96.03    4.07
   3   1   3   98.07    3.35
   3   1   3   92.67    3.49
   3  -1  -3   97.38    3.63
  -3   1  -3  101.24    5.28
   3   1   3   87.75    4.70
  -3  -1   3   96.09    3.91
   3  -1  -3   93.22    3.57
  -3   1  -3   91.91    3.45
   3   1  -4   12.63    1.78
   3  -1   4   16.54    2.09
  -3   1   4    9.44    1.80
  -3  -1  -4   10.10    2.36
   3   1  -4    9.20    1.60
  -3   1   4   11.40    2.86
  -3  -1  -4   11.17    1.45
   3   1  -4   16.81    2.68
   3  -1   4   13.06    2.76
   3  -1   4   12.50    1.88
   3   1  -4   13.82    3.21
  -3  -1  -4   13.94    1.63
   3  -1  -4   12.73    1.76
   3  -1  -4   13.18    1.89
   3   1   4    9.59    2.79
  -3  -1   4    8.75    2.70
  -3   1  -4   10.41    1.50
   3   1   4   14.61    2.16
  -3   1  -4   11.86    1.60
  -3  -1   4    8.53    1.81
  -3   1  -4   12.52    1.63
   3  -1  -4   13.68    2.45
   3   1   4   14.68    1.77
   3  -1  -4   13.33    3.36
  -3  -1  -5   45.95    2.96
   3  -1   5   39.66    4.96
   3   1  -5   41.11    3.12
  -3   1   5   41.76    5.02
  -3  -1  -5   44.84    2.75
  -3   1   5   38.95    3.54
   3   1  -5   38.72    2.72
  -3  -1  -5   41.33    2.64
   3   1  -5   44.41    4.20
   3  -1   5   45.70    3.57
   3  -1  -5   39.17    4.58
  -3   1  -5   39.88    2.73
   3  -1  -5   44.43    2.99
   3   1   5   40.95    3.36
  -3  -1   5   44.10    3.67
   3  -1  -5   39.22    2.81
  -3  -1   5   45.62    4.93
  -3   1  -5   44.01    2.88
  -3   1  -5   42.27    2.89
   3   1   5   39.41    4.71
   3   1   5   45.49    3.83
   3   1  -6   90.92    7.13
   3  -1   6   71.63    5.33
   3   1  -6   78.81    4.41
  -3   1   6   81.66    5.81
  -3   1   6   70.44    6.93
  -3  -1  -6   81.04    4.07
   3   1  -6   86.15    4.39
  -3  -1  -6   78.11    3.86
  -3  -1  -6   76.89    4.27
   3  -1   6   78.49    7.14
  -3  -1  -6   77.06    4.06
  -3   1  -6   79.12    4.16
  -3   1  -6   76.75    4.39
  -3  -1   6   76.29    7.05
   3  -1  -6   77.79    4.45
   3   1   6   84.43    7.23
  -3   1  -6   78.45    4.28
   3  -1  -6   80.83    4.26
   3   1   6   75.19    5.39
  -3  -1   6   77.43    5.36
   3  -1   7   28.20    4.58
  -3  -1  -7   36.79    3.86
  -3   1   7   39.78    5.08
  -3  -1  -7   38.14    3.76
   3   1  -7   33.05    3.86
  -3  -1  -7   34.19    3.73
  -3   1   7   49.05    7.21
   3  -1   7   36.77    6.75
   3   1  -7   36.04    4.09
   3  -1  -7   33.57    3.67
   3  -1  -7   36.12    4.01
  -3  -1   7   34.49    6.95
  -3  -1   7   43.20    4.86
   3   1   7   45.57    5.84
   3   1   7   41.79    7.22
  -3   1  -7   42.99    4.11
  -3   1  -7   35.45    3.91
  -3   1  -7   38.53    3.77
  -4  -1   0  107.06    3.74
  -4  -1   0  102.17    3.13
   4  -1   0  102.43    3.56
  -4   1   0  104.89    3.53
   4  -1   0  108.20    3.31
   4   1   0  106.99    3.16
   4   1   0  102.74    3.23
  -4   1   0  106.54    4.20
   4  -1   0   99.13    4.07
   4   1   0  102.88    3.63
  -4   1   0   96.81    3.19
   4  -1   1    0.67    0.68
  -4   1   1   -0.80    1.02
   4   1  -1    0.54    0.63
  -4   1   1    0.04    0.46
  -4   1   1   -0.05    0.73
  -4  -1  -1   -0.04    0.33
   4  -1   1   -1.27    1.04
   4  -1   1    0.17    0.58
   4   1  -1    0.13    0.62
  -4  -1  -1    0.36    1.10
   4  -1   1   -0.59    0.62
  -4  -1  -1    0.49    0.67
  -4  -1   1   -0.20    0.64
  -4  -1   1    0.10    0.55
   4  -1  -1    0.15    0.65
  -4   1  -1   -0.82    1.30
  -4  -1   1    0.21    0.89
   4   1   1    0.06    0.86
   4  -1  -1    0.91    0.70
   4   1   1   -1.21    0.52
  -4   1  -1    0.33    0.54
  -4   1  -1   -0.71    0.79
   4   1   1   -0.31    0.46
  -4   1  -1    0.39    0.44
  -4   1   2    2.00    0.94
   4   1  -2    2.20    0.85
   4  -1   2    0.92    0.79
  -4  -1  -2    4.67    1.75
  -4  -1  -2    1.00    0.93
   4  -1   2    1.72    0.89
  -4   1   2    1.60    1.13
  -4   1   2    0.61    1.34
   4  -1   2    0.12    0.82
   4  -1   2   -0.12    1.36
  -4  -1  -2    1.52    0.67
   4  -1   2    2.19    0.80
   4   1   2    1.84    1.38
   4   1   2    0.97    0.74
   4  -1  -2    1.88    0.89
  -4   1  -2    1.26    1.69
  -4  -1   2    0.45    1.07
  -4   1  -2    2.21    1.12
   4  -1  -2    0.44    0.90
  -4  -1   2    0.38    1.14
  -4   1  -2    1.17    0.71
   4   1   2    1.47    0.77
   4   1   2    0.65    0.85
  -4  -1   2    0.63    0.76
  -4   1  -2    1.20    0.57
   4  -1   3    1.82    2.03
   4  -1   3   -0.54    1.02
  -4  -1  -3    1.80    2.18
   4   1  -3   -0.30    0.92
  -4   1   3    1.89    1.14
   4   1  -3    1.23    1.33
   4  -1   3   -0.54    1.01
   4   1  -3    1.63    1.41
  -4   1   3    0.23    1.27
  -4  -1  -3   -1.09    0.72
  -4  -1  -3   -1.92    1.16
  -4   1   3    0.07    1.74
   4  -1   3    1.07    1.12
  -4   1  -3    0.49    0.82
  -4   1  -3    0.97    1.44
   4   1   3   -0.26    1.71
  -4  -1   3   -1.36    1.51
   4   1   3    0.75    1.01
   4   1   3   -0.21    1.01
   4  -1  -3    0.87    0.99
  -4  -1   3    0.90    1.08
   4   1   3   -0.11    1.08
  -4   1  -3   -0.10    2.48
  -4   1  -3   -0.60    0.67
  -4  -1   3    1.71    1.43
   4  -1  -3   -0.94    1.12
  -4  -1  -4   29.26    2.23
   4   1  -4   28.18    3.15
   4   1  -4   30.67    2.48
   4   1  -4   30.27    2.36
   4   1  -4   44.87    4.85
  -4   1   4   27.04    2.72
  -4   1   4   29.74    4.19
   4  -1   4   34.58    2.84
   4  -1   4   28.09    2.85
  -4  -1  -4   31.54    1.95
   4  -1   4   36.75    4.24
   4  -1  -4   28.80    2.52
  -4   1  -4   32.01    2.26
   4   1   4   29.24    2.59
   4   1   4   32.75    4.22
  -4  -1   4   30.04    2.68
   4  -1  -4   28.86    2.42
   4   1   4   30.99    2.60
  -4  -1   4   30.68    3.59
  -4   1  -4   30.24    2.05
  -4   1  -4   31.78    2.25
  -4  -1  -5    0.78    1.22
   4   1  -5    4.02    2.95
  -4   1   5    2.56    1.86
   4  -1   5   -0.50    2.83
  -4  -1  -5    0.99    1.31
   4   1  -5   -0.07    1.75
  -4   1   5   -1.43    2.85
   4   1  -5   -1.28    1.31
   4  -1   5    1.10    1.82
  -4   1  -5    0.48    1.50
   4   1   5   -0.83    1.68
   4   1   5   -5.30    2.62
   4  -1  -5    0.68    1.43
   4   1   5    0.46    2.08
   4  -1  -5    0.84    1.60
  -4   1  -5    0.45    1.34
  -4  -1   5    1.14    1.86
  -4   1  -5    1.08    1.47
  -4  -1   5    0.62    2.86
   4   1  -6    4.08    1.93
   4  -1   6    3.15    2.60
  -4  -1  -6    1.55    1.83
   4   1  -6    5.70    4.23
  -4   1   6    1.45    2.22
   4   1  -6   -0.02    2.14
   4  -1   6    7.19    4.08
  -4  -1  -6    0.85    1.70
  -4   1   6    2.30    4.21
  -4   1  -6    4.97    1.92
  -4  -1   6    3.05    4.30
  -4  -1   6    6.50    2.85
   4   1   6   -1.35    3.90
   4  -1  -6    4.09    1.93
   4  -1  -6    4.12    2.18
   4   1   6    1.48    2.11
  -4   1  -6    5.57    2.09
  -4   1  -6    2.49    1.88
   4   1  -7   -2.52    2.56
  -4   1   7    7.43    3.94
  -4  -1  -7    1.17    2.01
   4  -1   7    5.54    5.07
  -4   1   7    0.82    5.30
   4  -1   7   -0.32    3.24
   4   1  -7   -2.57    2.12
  -4  -1  -7   -1.58    2.24
   4  -1  -7    0.75    2.57
   4   1   7    4.97    5.11
   4  -1  -7    1.35    2.17
  -4   1  -7    0.27    2.46
  -4  -1   7    7.46    3.88
  -4  -1   7    5.80    5.10
  -4   1  -7   -4.27    2.30
  -4   1  -7    1.21    2.13
   4   1   7    3.03    3.06
   5  -1   0  317.16    8.63
  -5  -1   0  324.16    8.99
  -5   1   0  295.79    8.22
   5   1   0  325.76    8.21
  -5  -1   0  307.77    8.18
   5  -1   0  319.21    8.35
   5  -1   0  307.80    9.43
   5   1   0  296.75    8.33
  -5   1   0  304.69    8.60
   5  -1   0  291.33    8.67
   5   1   0  294.85    8.80
  -5   1   0  306.67    9.49
   5  -1   1    9.79    1.13
  -5   1   1   11.63    1.58
  -5  -1  -1    7.24    0.74
   5  -1   1    8.12    1.23
  -5   1   1    8.22    1.12
   5  -1   1    7.84    1.33
  -5  -1  -1   12.29    1.38
   5   1  -1    6.48    1.26
  -5  -1  -1    7.65    1.75
  -5   1   1   10.08    1.95
   5   1  -1    7.69    1.24
   5  -1   1    9.05    1.73
   5  -1  -1    9.46    1.51
   5   1   1    9.29    1.19
   5   1   1    6.35    1.50
  -5   1  -1    7.86    2.10
  -5  -1   1    7.48    1.04
  -5   1  -1    8.60    0.94
   5  -1  -1    8.56    1.19
  -5  -1   1    9.92    1.23
  -5   1  -1    7.27    1.27
   5   1   1    9.24    0.95
  -5  -1   1    9.69    1.56
  -5   1  -1   10.05    1.50
   5   1   1    6.88    1.11
   5   1  -2   60.42    2.93
   5  -1   2   60.05    2.43
  -5   1   2   60.83    2.95
  -5  -1  -2   57.34    2.56
   5   1  -2   59.04    2.85
   5  -1   2   60.62    3.77
  -5   1   2   61.90    3.20
   5  -1   2   59.77    2.73
  -5  -1  -2   63.58    2.90
   5  -1   2   57.73    2.66
   5  -1   2   57.55    2.91
  -5  -1  -2   67.78    3.88
   5  -1  -2   57.92    2.86
  -5   1  -2   62.63    4.34
  -5   1  -2   58.88    2.62
  -5  -1   2   61.40    3.22
   5   1   2   57.08    2.76
  -5  -1   2   55.95    3.40
   5  -1  -2   63.84    2.90
   5   1   2   63.96    2.77
   5   1   2   60.79    2.57
   5   1   2   61.15    3.62
  -5   1  -2   59.73    2.21
  -5   1  -2   56.61    3.07
   5  -1   3    7.36    1.55
   5  -1   3    8.67    1.66
   5   1  -3    5.01    1.26
  -5  -1  -3    8.19    1.29
  -5   1   3    9.43    1.73
  -5  -1  -3    4.41    1.66
  -5   1   3    6.58    1.82
   5  -1   3    9.15    1.79
  -5  -1  -3   10.58    2.74
   5   1  -3    7.15    1.75
  -5   1   3   10.62    2.45
   5  -1   3    8.95    2.31
  -5   1  -3    4.91    2.92
   5   1   3    6.64    1.50
  -5   1  -3    3.07    1.23
  -5   1  -3    3.52    1.69
   5  -1  -3    2.93    1.72
  -5  -1   3    5.53    1.86
   5   1   3    7.53    1.52
  -5  -1   3    3.36    1.34
  -5   1  -3    4.96    1.04
   5   1   3    3.28    2.08
   5  -1  -3    5.11    1.29
  -5  -1   3    4.36    1.96
   5   1   3    5.04    1.36
   5   1  -4  142.95    6.01
   5   1  -4  139.80    5.58
   5  -1   4  135.04    5.88
   5  -1   4  130.51    7.19
   5   1  -4  139.42    5.38
  -5  -1  -4  145.69    4.89
  -5   1   4  131.71    7.26
  -5   1   4  129.67    5.72
   5  -1  -4  132.74    5.31
   5   1   4  132.77    5.01
  -5   1  -4  138.33    4.40
  -5  -1   4  136.80    5.59
   5   1   4  129.46    6.81
  -5  -1   4  140.85    6.88
   5  -1  -4  136.40    5.45
   5   1   4  134.52    5.72
  -5   1  -4  141.61    4.98
  -5  -1  -5    7.20    1.54
   5   1  -5    6.70    3.19
   5  -1   5    8.31    2.18
  -5   1   5    7.42    2.39
   5   1  -5    7.16    2.25
   5   1  -5    7.52    1.87
   5  -1   5    4.77    3.53
  -5   1   5    5.30    3.65
   5   1   5    4.41    3.02
  -5  -1   5    9.28    3.62
   5   1   5   11.63    2.74
  -5   1  -5   10.98    1.72
  -5   1  -5    7.36    1.67
  -5  -1   5    8.26    2.43
   5  -1  -5   10.31    2.40
   5  -1  -5    7.61    1.67
   5   1  -6   21.84    3.35
   5  -1   6   16.23    4.86
   5   1  -6   17.81    2.60
  -5   1   6   22.39    5.23
   5   1  -6   28.80    5.41
  -5   1   6   16.27    3.49
  -5  -1  -6   18.60    2.54
   5  -1   6   16.16    3.17
  -5   1  -6   21.94    2.52
   5   1   6   20.33    3.47
  -5  -1   6   22.71    5.02
  -5   1  -6   18.53    2.72
  -5  -1   6   18.93    3.59
   5  -1  -6   17.43    2.86
   5  -1  -6   17.74    2.65
  -5   1  -6   18.24    2.78
   5   1   6   20.20    5.26
  -5   1   7    2.16    3.64
   5  -1   7    4.74    6.01
  -5  -1  -7    7.05    2.50
   5   1  -7    5.08    2.94
   5  -1   7    3.69    3.99
  -5   1   7    6.76    5.92
   5   1  -7    7.03    2.50
  -5  -1  -7    1.24    2.10
  -5  -1   7    3.28    4.01
  -5   1  -7   -1.71    2.17
   5   1   7    4.14    3.87
   5   1   7    1.14    4.79
   5  -1  -7    8.81    3.15
  -5   1  -7    4.52    2.65
   5  -1  -7    3.09    2.56
  -5   1  -7    7.81    2.88
  -5  -1   7    7.43    6.49
   6   1   0    1.17    1.09
  -6   1   0    3.09    0.79
  -6  -1   0    2.24    1.77
  -6  -1   0    2.86    1.00
   6  -1   0    3.16    0.92
   6   1   0    1.62    0.83
   6   1   0    3.14    0.91
  -6   1   0    4.26    2.07
  -6   1   0    3.53    1.23
   6  -1   0    3.68    1.07
   6  -1   0    2.93    1.22
   6  -1   0    2.66    1.39
   6  -1   1    0.88    1.29
  -6   1   1    2.20    1.30
   6   1  -1    0.81    1.00
  -6  -1  -1   -0.61    1.65
   6   1  -1    2.19    1.17
  -6  -1  -1    1.07    1.08
   6  -1   1    0.19    1.13
  -6   1   1    1.28    0.74
  -6   1   1    0.17    2.03
   6  -1   1    2.15    1.03
   6  -1   1    0.91    0.95
   6  -1  -1    1.29    1.10
   6   1   1   -0.06    0.85
   6  -1  -1    0.08    0.83
  -6  -1   1    2.48    1.79
   6   1   1    1.89    0.98
   6   1   1    1.91    0.80
  -6   1  -1   -1.74    1.92
  -6   1  -1   -0.53    1.17
   6   1   1    1.43    1.22
  -6   1  -1    2.17    0.74
  -6  -1   1    1.09    1.06
   6  -1   2    0.45    1.28
  -6   1   2    0.83    1.09
   6  -1   2    2.03    1.03
   6  -1   2    1.21    0.95
  -6  -1  -2    1.73    2.24
   6   1  -2    0.62    1.01
  -6   1   2   -1.29    2.03
   6   1  -2    0.76    1.07
   6  -1   2    1.51    1.88
  -6  -1  -2   -1.26    0.89
  -6   1   2   -0.61    1.37
  -6  -1  -2    0.86    1.33
   6   1   2    0.34    1.05
  -6  -1   2    1.45    1.59
   6  -1  -2   -1.00    1.10
   6  -1  -2    0.00    1.36
  -6   1  -2    0.43    0.63
  -6   1  -2    0.08    0.76
   6   1   2   -0.02    1.71
  -6   1  -2   -0.34    1.59
  -6  -1   2   -1.94    1.54
  -6   1  -2   -1.44    2.58
  -6  -1   2    0.32    1.25
   6   1   2   -0.19    0.98
   6  -1   3    1.03    1.64
  -6  -1  -3    1.74    0.98
  -6   1   3    2.00    1.47
   6  -1   3    1.28    2.14
   6  -1   3    1.89    1.24
   6  -1   3    0.72    1.20
  -6   1   3    0.69    1.95
   6   1  -3    2.42    1.30
   6   1   3   -0.51    1.99
   6  -1  -3    1.58    1.17
  -6  -1   3   -1.00    2.02
  -6  -1   3    3.05    1.36
  -6   1  -3    1.22    0.85
  -6   1  -3    1.20    1.07
   6   1   3    0.13    1.25
   6   1   3    4.36    1.42
   6   1  -4    0.33    1.37
   6   1  -4    1.11    1.38
   6  -1   4    0.05    1.51
   6  -1   4    5.02    2.84
  -6  -1  -4    2.04    1.31
  -6   1   4   -0.91    2.84
  -6   1   4   -0.81    1.66
   6   1   4    1.02    1.92
  -6  -1   4   -3.44    2.21
   6   1   4    1.93    1.65
   6   1   4    3.76    2.46
  -6  -1   4    2.87    1.70
  -6   1  -4    1.03    1.43
   6  -1  -4    1.02    1.50
  -6  -1  -5    1.27    1.60
  -6   1   5   -4.08    3.25
   6  -1   5   -5.20    3.28
   6   1  -5   -0.59    1.85
   6  -1   5    0.03    1.97
  -6   1   5   -1.21    2.16
   6   1  -5   -1.72    1.78
   6  -1  -5   -1.51    1.93
   6  -1  -5   -0.71    1.49
   6   1   5   -1.05    3.29
  -6   1  -5    0.68    1.53
  -6  -1   5   -1.25    2.02
   6   1   5   -0.44    1.97
  -6  -1   5   -4.17    2.93
  -6   1   6    4.10    3.08
   6   1  -6    2.27    2.29
  -6   1   6    1.78    4.43
   6  -1   6   -1.41    2.36
   6   1  -6    0.46    2.18
  -6  -1  -6    1.24    2.23
   6  -1   6    6.03    4.40
  -6  -1   6   -3.80    4.49
  -6  -1   6    1.88    2.99
   6   1   6    0.71    2.76
   6  -1  -6   -0.92    1.96
  -6   1  -6   -1.20    1.90
   6   1   6   -4.37    4.36
   6  -1  -6    1.86    2.45
   7   1   0    2.48    1.44
   7  -1   0    1.91    1.44
  -7  -1   0    2.78    1.17
  -7   1   0    2.53    1.47
  -7   1   0    0.67    0.73
   7   1   0    0.31    1.08
   7  -1   0    2.92    1.28
   7   1   0    1.48    1.20
  -7  -1   0   -0.31    2.08
  -7   1   0    1.99    2.31
   7  -1   0    1.27    1.74
   7  -1   0    0.14    1.07
   7  -1   1   19.96    1.90
   7   1  -1   16.26    2.13
   7   1  -1   22.55    2.14
  -7   1   1   19.72    2.40
   7  -1   1   18.09    2.07
  -7  -1  -1   22.65    2.13
  -7   1   1   18.95    1.76
   7  -1   1   20.67    3.09
  -7  -1  -1   29.93    3.34
  -7   1   1   20.44    3.33
   7  -1   1   18.67    2.10
   7   1   1   22.20    2.82
   7   1   1   20.26    2.08
   7   1   1   22.27    1.65
   7   1   1   20.55    1.82
   7  -1  -1   15.60    2.13
  -7   1  -1   20.58    2.29
  -7   1  -1   17.72    1.49
  -7  -1   1   21.29    2.12
  -7   1  -1   18.81    3.15
  -7  -1   1   23.98    3.03
   7  -1  -1   19.78    2.10
   7  -1   2   65.01    4.61
   7  -1   2   69.17    3.56
   7  -1   2   71.22    2.96
   7   1  -2   68.13    3.72
  -7  -1  -2   57.65    4.84
  -7   1  -2   69.42    3.35
  -7  -1   2   66.39    3.24
   7   1   2   67.14    3.39
   7   1   2   67.21    3.34
  -7  -1   2   58.34    4.26
   7   1   2   67.30    4.46
  -7   1  -2   76.42    2.72
   7  -1  -2   67.62    3.61
  -7  -1   2   66.22    4.22
  -7  -1  -3   21.00    2.06
   7  -1   3   25.38    2.28
   7   1  -3   19.59    2.40
   7  -1   3   17.44    2.35
  -7   1   3   18.91    2.45
  -7   1   3   20.90    3.47
   7  -1   3   21.23    3.55
  -7   1  -3   18.51    1.59
  -7   1  -3   21.14    2.19
  -7  -1   3   22.03    3.26
   7   1   3   21.34    2.43
   7   1   3   19.71    2.53
   7  -1  -3   19.04    2.43
   7   1   3   18.61    3.17
  -7  -1   3   23.54    2.36
  -7  -1  -4    1.05    1.34
  -7   1   4    2.20    1.95
   7  -1   4   -2.29    2.74
   7  -1   4    2.18    1.75
   7   1  -4    0.20    1.35
  -7   1   4   -2.40    2.86
   7   1  -4   -0.45    1.65
   7  -1  -4    0.86    1.53
  -7  -1   4    2.75    1.98
   7   1   4   -6.33    2.51
  -7   1  -4   -0.31    1.64
  -7  -1   4    0.58    2.76
   7   1   4   -0.18    1.33
   7  -1   5   15.96    4.24
   7   1  -5   11.49    2.46
  -7   1   5   13.18    4.48
   7  -1   5   14.03    3.01
  -7  -1  -5   13.12    2.32
   7   1  -5    8.62    2.52
  -7   1   5   12.61    2.75
  -7   1  -5   11.80    2.08
   7   1   5   14.24    3.10
   7   1   5   10.31    3.86
   7  -1  -5   14.98    2.84
  -7  -1   5    7.53    4.04
  -7  -1   5   17.15    3.29
   7  -1  -5   10.90    2.26
   7  -1   6   36.34    6.33
   7   1  -6   34.67    3.89
   7   1  -6   38.62    4.24
  -7   1   6   45.82    5.79
  -7  -1  -6   34.41    3.64
  -7   1   6   42.21    6.94
   7  -1   6   41.16    5.24
   7   1   6   33.20    4.78
   7  -1  -6   37.20    3.94
  -7  -1   6   42.07    6.72
  -7   1  -6   30.72    3.59
  -7  -1   6   41.00    5.05
   7  -1  -6   38.38    4.28
   7   1   6   35.84    6.53
   8   1   0   18.43    2.18
   8  -1   0   14.83    2.47
   8   1   0   16.89    2.09
   8   1   0   15.28    2.22
   8  -1   0   17.18    2.12
  -8  -1   0   17.70    3.18
   8  -1   0   18.26    2.38
   8   1  -1   -0.04    1.55
   8  -1   1   -1.32    1.96
   8   1  -1   -0.60    1.37
   8  -1   1    1.55    1.38
  -8  -1  -1   -0.62    2.34
   8  -1   1    0.86    1.35
  -8   1   1   -0.04    0.94
  -8   1  -1    0.16    0.88
   8  -1  -1    0.45    1.40
   8  -1  -1   -0.19    1.50
   8   1   1    1.26    1.73
   8   1   1   -0.41    1.23
  -8  -1   1   -0.43    2.31
   8   1   1    1.37    1.12
   8  -1   2   71.03    3.25
   8  -1   2   70.97    4.90
   8   1  -2   71.71    4.00
   8  -1   2   74.12    3.93
  -8   1  -2   71.26    2.90
  -8  -1   2   68.59    3.47
   8   1   2   74.86    2.88
  -8  -1   2   65.58    4.46
   8   1   2   66.34    4.59
   8   1   2   74.36    3.66
  -8   1   3    1.16    1.63
  -8   1   3    3.85    2.62
   8   1  -3    0.55    1.50
   8  -1   3    0.41    1.52
   8  -1   3    3.56    2.46
   8  -1   3    3.19    1.75
  -8  -1   3    0.83    2.57
  -8   1  -3    1.76    1.06
   8   1   3    2.64    2.44
  -8   1  -3    2.47    1.45
   8   1   3    1.65    1.36
   8  -1  -3    2.07    1.61
   8   1  -4    5.07    2.20
  -8   1   4   11.82    2.55
   8  -1   4    5.87    2.11
   8  -1   4    2.89    3.23
  -8   1   4   13.27    3.76
  -8  -1  -4    5.68    1.80
  -8  -1   4    6.30    2.22
   8   1   4   10.09    2.41
  -8   1  -4    6.71    2.02
   8   1   4   -0.63    3.08
   8  -1  -4    6.01    1.83
  -8  -1   4    2.61    3.23
   8  -1   5    1.88    3.92
  -8   1   5    4.88    3.84
  -8  -1  -5    0.22    1.93
  -8   1   5    0.60    2.73
   8   1  -5   -1.19    1.85
   8  -1   5    1.14    2.81
   8   1  -5   -1.09    2.19
  -8  -1   5    2.08    3.64
   8   1   5   -3.37    3.68
   8   1   5   -0.14    2.23
  -8  -1   5    0.81    2.44
   8  -1  -5   -2.03    1.78
  -8   1  -5   -0.88    1.75
   8  -1  -5   -2.97    2.25
   8  -1   6   30.35    4.23
  -8  -1  -6   27.05    3.55
  -8   1   6   27.76    6.63
  -8   1   6   25.01    4.97
   8   1  -6   30.39    3.78
   8  -1   6   26.20    6.24
   8   1  -6   29.81    4.31
   8   1   6   22.69    6.02
  -8   1  -6   27.35    3.67
  -8  -1   6   26.55    4.29
   8  -1  -6   29.48    4.15
  -8  -1   6   28.82    6.38
   8  -1  -6   24.13    3.71
   8   1   6   35.11    4.84
   9  -1   0   95.83    4.48
   9  -1   0   85.33    4.23
   9   1   0   91.99    4.17
   9   1   0   96.03    4.23
   9  -1   0   92.51    5.10
  -9   1   0   90.24    3.81
   9   1   0   92.95    4.88
   9  -1   1    0.58    2.16
   9  -1   1    1.27    1.75
   9  -1   1    3.45    1.56
   9   1  -1    0.19    1.60
   9   1   1   -0.63    1.56
   9   1   1    2.00    1.32
  -9   1  -1    2.84    1.13
   9   1   1   -1.45    1.93
   9  -1  -1    0.92    1.52
   9   1  -2   16.74    2.81
   9  -1   2   11.56    2.80
   9  -1   2   13.67    2.10
   9  -1   2   14.10    2.30
  -9   1  -2   15.16    1.71
  -9  -1   2   13.20    2.08
   9   1   2   17.39    2.41
   9  -1  -2   12.61    2.16
   9   1   2   12.05    2.70
  -9   1   3   -1.46    1.87
   9  -1   3    1.58    2.10
   9  -1   3    2.63    3.07
  -9   1   3   -3.49    3.04
   9   1  -3    2.54    1.69
   9  -1   3    1.32    1.91
  -9   1  -3    0.38    1.12
   9  -1  -3    1.28    1.77
  -9  -1   3    0.62    2.06
   9   1   3    1.42    2.87
   9   1   3    2.35    1.66
  -9  -1   3   -2.44    2.86
  -9   1  -3    3.76    1.75
   9  -1   4   64.47    4.53
   9   1  -4   61.38    4.29
  -9  -1  -4   54.89    4.00
   9  -1   4   52.96    6.22
  -9   1   4   61.08    6.61
  -9   1   4   59.88    4.62
  -9  -1   4   58.57    4.35
   9   1   4   66.66    4.46
  -9   1  -4   61.47    3.95
  -9  -1   4   68.50    6.12
   9  -1  -4   62.63    4.33
   9   1   4   70.82    6.31
  -9   1   5    2.14    3.03
  -9   1   5  -10.48    4.12
   9  -1   5    1.85    2.49
   9  -1   5    1.46    4.33
   9   1  -5   -2.93    2.18
   9   1  -5   -1.75    2.53
  -9  -1  -5    2.59    2.21
   9   1   5   -2.52    3.91
  -9   1  -5    4.49    2.42
  -9  -1   5   -0.40    2.71
   9  -1  -5    0.89    2.06
   9  -1  -5   -2.44    2.64
  -9  -1   5    6.49    4.68
   9   1   5    3.58    2.51
  10   1   0   26.18    2.66
  10   1   0   28.64    3.27
  10  -1   0   28.05    3.59
 -10   1   0   27.37    2.45
  10  -1   0   22.18    2.70
  10  -1   1    0.54    1.54
  10  -1   1   -1.70    2.25
  10  -1   1    2.56    2.46
  10   1  -1    0.43    1.86
  10  -1  -1    0.91    1.65
  10   1   1   -1.94    2.37
 -10   1  -1    2.51    1.37
  10   1   1    3.56    2.08
  10   1   1    2.36    1.55
 -10   1   2   -0.96    2.02
  10  -1   2   -1.81    1.69
  10  -1   2   -2.10    2.08
  10  -1   2    4.94    2.68
  10   1  -2    0.95    1.73
 -10   1  -2    1.53    1.33
 -10  -1   2    4.06    2.13
  10  -1  -2   -2.33    1.73
  10   1   2    4.21    2.58
  10   1   2   -0.66    1.46
  10   1   2    1.86    1.88
 -10   1   3    7.83    4.04
  10  -1   3    2.29    2.02
  10  -1   3   -1.13    2.35
  10  -1   3   -4.66    2.95
 -10   1   3    1.27    2.35
  10   1  -3   -1.08    1.89
 -10   1  -3   -0.35    1.44
  10  -1  -3   -1.77    1.93
 -10  -1   3   -0.44    3.26
  10   1   3    5.31    3.12
 -10  -1   3    2.39    2.26
  10   1   3    0.28    1.97
  10  -1   4   18.86    5.02
 -10   1   4   32.88    5.77
 -10   1   4   21.03    3.44
  10   1  -4   19.76    3.15
  10  -1   4   24.47    3.71
  10  -1  -4   22.03    3.37
  10   1   4   20.79    3.21
 -10  -1   4   33.98    5.37
  10   1   4   27.86    5.15
 -10   1  -4   18.79    3.07
 -10   1   5    0.71    4.81
 -10  -1  -5    2.88    2.99
  10  -1   5   -2.53    4.79
  10   1  -5    0.16    2.37
  10   1  -5    8.54    2.96
  10  -1   5   -1.13    2.70
 -10   1   5    5.71    3.14
 -10   1  -5   -1.12    2.34
  10   1   5    3.14    4.51
  10   1   5   -5.19    2.30
  10  -1  -5   -1.33    2.63
 -10  -1   5    8.27    4.75
  11   1   0   -0.02    1.63
  11  -1   0    3.65    2.70
  11   1   0   -1.52    2.06
  11  -1   0    3.00    2.00
  11  -1   1   69.33    4.45
  11   1  -1   77.17    5.26
  11  -1   1   76.80    5.70
 -11   1  -1   76.37    3.75
  11  -1  -1   77.59    5.11
  11   1   1   79.33    5.34
 -11  -1   1   71.67    4.46
  11   1   1   77.30    4.49
  11   1  -2   -0.34    1.97
  11  -1   2    4.77    2.93
  11  -1   2   -0.38    1.97
  11  -1   2    1.58    3.20
 -11   1   2    2.69    2.30
 -11  -1   2   -3.13    2.31
 -11   1  -2   -0.43    1.52
  11  -1  -2   -2.85    1.98
  11   1   2   -1.05    2.90
  11   1   2    1.24    2.39
  11   1   2   -1.70    1.80
  11  -1   3   56.03    4.64
 -11   1   3   57.47    4.67
  11  -1   3   51.74    4.47
 -11   1   3   52.91    6.32
  11  -1   3   56.01    6.47
  11   1  -3   54.99    4.54
 -11  -1   3   40.99    4.41
 -11   1  -3   57.40    3.10
  11  -1  -3   57.26    4.60
  11   1   3   51.06    5.74
  11   1   3   64.14    4.60
 -11  -1   3   50.09    5.61
  11  -1   4    0.98    2.95
  11  -1   4    3.78    4.32
  11   1  -4    1.43    2.67
 -11   1   4    3.31    4.81
 -11   1   4    2.27    3.26
  11   1   4   -3.13    4.30
  11   1   4    0.06    2.64
  11  -1  -4   -0.72    2.27
 -11  -1   4    1.93    4.67
  12  -1   0    1.85    2.13
  12  -1   0   -1.87    2.75
  12   1   0    0.84    1.85
  12  -1   1    0.38    2.10
  12  -1   1   -3.50    3.00
  12   1  -1   -0.81    2.38
  12  -1  -1   -2.22    2.26
 -12  -1   1    0.34    2.61
  12   1   1    1.53    2.98
  12   1   1   -0.62    2.23
  12   1  -2    1.59    2.91
  12  -1   2    0.94    2.27
  12  -1   2   -0.21    3.61
  12  -1  -2    1.60    2.63
 -12   1  -2    1.05    1.73
  12   1   2   -1.23    2.97
 -12  -1   2    1.95    2.79
  12   1   2    0.13    2.24
  12   1   2   -1.81    3.44
  12   1  -3    3.43    2.96
 -12   1   3    0.93    2.87
 -12   1   3   -0.26    4.52
  12  -1   3    2.21    4.61
  12  -1   3    3.74    2.68
  12   1   3    6.12    3.98
 -12   1  -3   -0.25    1.86
  12  -1  -3    3.64    2.92
 -12  -1   3   -5.04    3.89
  12   1   3   -1.03    2.34
  13   1   0   34.55    4.61
  13  -1   0   43.24    5.12
  13  -1   0   42.03    5.11
  13  -1   1    8.39    3.87
  13  -1   1   -2.36    2.25
  13   1  -1    6.19    3.44
  13  -1  -1   -0.88    2.72
  13   1   1   -0.37    3.62
  13   1   1    0.65    2.34
  13   1  -2   22.60    4.06
  13  -1   2   19.00    5.08
  13  -1   2   22.98    4.05
  13   1   2   23.08    4.81
 -13  -1   2   29.91    5.42
  13  -1  -2   24.46    4.20
  13   1   2   24.93    3.80
   0  -2   0  129.09    3.66
   0   2   0  130.98    3.67
   0   2   0  133.75    3.35
   0   2   0  128.39    3.53
   0   2   0  132.72    3.47
   0  -2  -1    0.20    0.29
   0  -2  -1    0.24    0.22
   0   2   1    0.41    0.38
   0  -2   1   -0.28    0.30
   0   2   1    0.15    0.25
   0   2  -1    0.46    0.37
   0  -2   1   -0.07    0.29
   0  -2   1    0.50    0.63
   0   2  -1    0.34    0.29
   0   2   1    0.46    0.30
   0   2  -1    0.02    0.36
   0   2   1    0.48    0.61
   0  -2   1   -0.08    0.41
   0   2  -1    0.62    0.72
   0   2   2   10.34    0.89
   0   2  -2    8.32    0.99
   0   2  -2   10.40    1.67
   0  -2  -2   13.31    1.85
   0  -2   2    9.58    1.11
   0  -2  -2    9.79    0.76
   0  -2   2    8.19    0.95
   0  -2   2   10.19    1.11
   0   2   2   10.40    1.68
   0  -2  -2    9.17    0.82
   0  -2   2    8.52    1.52
   0   2   2    9.73    1.17
   0   2  -2   10.00    1.29
   0   2  -2    8.85    0.85
   0  -2  -2   10.60    1.21
   0   2   2   10.32    0.97
   0  -2  -2    9.56    0.82
   0  -2   3   -0.66    1.23
   0  -2  -3    3.92    1.95
   0  -2   3   -0.43    1.03
   0   2   3    0.08    0.81
   0   2  -3    0.67    1.01
   0   2  -3    0.03    1.83
   0  -2  -3   -0.37    0.67
   0  -2   3    0.17    0.86
   0  -2   3   -1.08    0.81
   0   2  -3   -0.55    0.59
   0   2   3    1.14    0.82
   0   2   3   -0.27    1.30
   0   2   3   -0.68    0.80
   0  -2  -3    0.57    0.58
   0  -2  -3    0.19    0.61
   0   2  -3   -0.06    0.72
   0  -2  -3   -0.28    1.15
   0   2  -4   67.75    5.25
   0   2   4   63.14    3.56
   0   2  -4   67.70    3.81
   0   2  -4   62.46    2.99
   0  -2   4   68.02    4.68
   0  -2  -4   63.47    2.99
   0   2  -4   67.11    3.26
   0  -2  -4   67.38    2.80
   0  -2   4   68.31    3.61
   0   2   4   67.91    3.11
   0   2   4   63.78    4.70
   0  -2  -4   64.74    2.79
   0  -2  -4   60.54    5.23
   0   2   4   64.27    3.29
   0  -2   4   64.03    3.32
   0  -2  -4   59.19    3.71
   0   2   5   -0.55    1.68
   0   2   5    0.49    2.72
   0   2  -5   -1.54    1.03
   0  -2  -5    1.64    1.22
   0   2  -5   -0.34    2.58
   0  -2   5   -0.85    1.74
   0  -2   5   -3.28    2.56
   0   2  -5    1.56    1.45
   0  -2  -5    1.46    1.23
   0  -2  -5    0.63    1.54
   0  -2  -6    8.73    1.88
   0  -2  -6   11.78    1.96
   0  -2   6    8.15    4.18
   0  -2   6   18.97    3.43
   0   2   6    9.29    2.65
   0   2   6    9.69    3.98
   0   2  -6    9.68    2.03
   0   2  -6    8.03    2.13
   0  -2  -7    2.48    2.07
   0   2   7   -3.10    2.78
   0  -2  -7   -0.88    2.11
   0  -2   7    1.71    5.02
   0   2  -7   -2.99    1.78
   0   2  -7    1.95    2.38
   0   2   7    3.64    4.48
   0  -2   7    4.52    3.73
   1   2   0    9.42    0.59
   1   2   0    9.53    0.47
  -1   2   0   10.11    0.67
   1  -2   0   10.36    0.73
  -1   2   0   10.58    0.58
  -1   2   0    9.10    0.98
   1   2   0   10.04    0.67
  -1   2   0    9.84    0.76
   1  -2   0    9.58    0.97
  -1  -2  -1    3.60    0.60
   1  -2   1    2.38    0.41
   1  -2   1    2.69    0.61
  -1   2   1    2.21    0.46
   1   2  -1    2.60    0.52
   1   2  -1    2.63    0.47
   1   2  -1    3.22    0.75
   1   2  -1    1.97    0.49
   1  -2   1    2.87    0.79
   1  -2   1    2.75    0.53
  -1  -2  -1    3.80    0.81
   1  -2   1    2.27    0.55
  -1  -2  -1    2.82    0.41
  -1   2   1    2.35    0.45
   1  -2  -1    2.41    0.40
  -1  -2   1    2.61    0.72
  -1   2  -1    2.52    0.53
  -1  -2   1    2.61    0.53
  -1   2  -1    1.93    0.52
  -1  -2   1    2.38    0.58
   1  -2  -1    2.75    0.52
   1   2   1    2.70    0.68
  -1   2  -1    2.77    0.42
  -1   2  -1    2.17    0.99
   1   2   1    1.82    0.40
  -1   2  -1    2.15    0.51
   1   2   1    3.19    0.55
   1   2  -2   26.20    1.52
  -1   2   2   25.32    2.15
   1   2  -2   27.52    2.19
  -1  -2  -2   28.37    1.70
   1  -2   2   27.85    1.42
   1   2  -2   27.36    1.42
  -1  -2  -2   29.27    2.12
   1  -2   2   26.07    1.53
  -1  -2  -2   26.31    1.32
   1  -2   2   25.23    2.27
   1  -2   2   25.91    1.66
  -1  -2  -2   27.12    1.09
  -1   2   2   27.12    1.32
  -1   2   2   26.82    1.45
  -1   2   2   24.68    1.68
   1  -2  -2   28.28    2.38
   1   2   2   27.89    1.66
   1  -2  -2   26.91    1.31
  -1  -2   2   28.43    1.52
  -1   2  -2   27.56    1.81
   1   2   2   29.23    1.21
  -1  -2   2   26.65    1.59
  -1   2  -2   27.32    1.36
  -1  -2   2   24.97    1.54
   1  -2  -2   27.61    1.37
   1  -2  -2   26.65    1.35
  -1   2  -2   25.40    1.50
   1   2   2   26.49    2.17
  -1   2  -2   27.55    1.48
   1   2   2   27.16    1.36
  -1   2  -2   27.34    2.47
  -1  -2   2   26.57    2.06
   1   2  -3    2.59    0.76
   1  -2   3    4.22    1.14
  -1  -2  -3    2.94    1.21
  -1   2   3    1.74    0.89
   1   2  -3    2.44    0.90
  -1  -2  -3    2.40    0.70
  -1   2   3    1.53    1.53
   1  -2   3    3.02    0.98
   1  -2   3    0.79    0.99
  -1  -2  -3    0.99    0.72
  -1  -2  -3    2.43    0.71
  -1  -2  -3    1.74    1.71
   1  -2   3    3.76    1.65
  -1   2   3    1.50    0.94
   1   2  -3    2.44    1.15
   1   2  -3    3.29    1.78
  -1   2  -3    3.95    0.90
  -1   2  -3    2.55    1.98
  -1   2  -3    3.84    1.20
  -1  -2   3    2.22    1.02
   1  -2  -3    2.55    0.76
  -1  -2   3    2.73    1.11
   1   2   3    2.17    0.82
  -1  -2   3    4.88    1.67
   1   2   3    3.50    0.90
   1   2   3    0.81    0.80
   1  -2  -3    2.52    0.86
  -1   2  -3    1.19    0.65
   1  -2  -3    2.47    1.40
  -1  -2   3    2.93    0.98
   1  -2  -3    1.77    1.87
   1  -2  -3    1.37    0.85
   1   2   3    1.57    1.39
   1  -2   4    3.78    1.57
  -1   2   4    0.91    1.38
  -1  -2  -4    2.49    0.97
   1  -2   4    2.75    2.39
   1   2  -4    3.62    1.10
  -1  -2  -4    0.02    1.60
  -1  -2  -4    2.76    0.99
   1  -2   4    2.14    1.32
   1   2  -4    4.81    1.63
  -1  -2  -4    1.03    2.61
  -1   2   4    0.58    1.08
   1   2  -4    1.75    1.15
  -1  -2  -4    2.60    1.15
   1  -2   4    2.48    1.68
   1   2  -4    5.22    2.70
  -1   2   4    3.96    2.34
  -1   2  -4    4.41    1.40
  -1   2  -4    2.72    1.45
   1  -2  -4    1.89    1.00
   1  -2  -4    1.93    1.25
  -1  -2   4    4.14    1.52
   1   2   4    5.33    1.42
   1   2   4    4.05    1.32
  -1  -2   4    2.85    1.71
  -1   2  -4    4.40    3.02
   1  -2  -4    3.20    2.70
  -1   2  -4    2.82    1.02
   1   2   4    0.89    2.01
   1  -2  -4    0.24    1.85
  -1  -2   4    2.80    1.41
  -1  -2   4    3.38    2.00
   1   2   4    2.88    1.49
   1  -2  -4    4.64    1.13
  -1  -2  -5    7.52    1.42
   1   2  -5    9.97    1.90
  -1   2   5    6.93    2.24
   1   2  -5    7.14    1.64
  -1   2   5   11.86    2.99
   1   2  -5    6.87    2.29
   1  -2   5    9.03    2.21
   1  -2   5    7.20    3.39
  -1  -2  -5    9.12    1.58
  -1  -2  -5    4.91    1.51
  -1   2  -5    8.65    1.55
  -1  -2   5    9.57    2.24
   1  -2  -5    9.69    1.72
   1  -2  -5   10.59    2.08
   1   2   5    8.12    2.24
  -1   2  -5    8.27    1.71
  -1  -2   5    8.20    3.27
   1   2   5    8.13    3.01
   1   2   5    6.08    1.95
  -1   2  -5    5.37    2.67
   1  -2  -5    9.90    1.73
   1   2  -6    8.22    2.11
  -1  -2  -6   12.42    2.52
  -1  -2  -6    9.55    2.02
   1  -2   6    6.98    3.97
   1  -2   6    7.06    3.02
   1   2  -6    6.09    1.80
  -1   2   6   11.39    3.27
  -1   2   6    4.64    4.00
  -1  -2  -6   10.35    1.96
  -1   2  -6    6.07    2.14
   1  -2  -6    5.88    1.77
  -1  -2   6    8.93    3.95
   1   2   6    4.96    2.40
  -1  -2   6    9.25    3.02
   1  -2  -6   11.32    2.21
  -1   2  -6    7.31    1.95
   1   2   6   10.78    3.87
  -1  -2  -7    1.91    2.24
   1  -2   7   -0.33    5.08
  -1  -2  -7    4.96    2.12
  -1   2   7   -1.26    4.28
  -1   2   7    8.76    3.39
   1   2  -7   -0.82    2.10
   1   2  -7    6.47    2.85
   1  -2   7   -3.20    3.03
   1   2   7    4.56    4.48
   1  -2  -7    1.85    2.28
  -1  -2   7    0.75    3.49
  -1  -2   7   -2.74    4.46
  -1   2  -7   -0.46    2.22
  -1   2  -7    3.94    2.13
   1  -2  -7    3.01    1.98
   1   2   7    4.48    3.38
   2  -2   0    0.50    0.66
   2  -2   0    0.95    0.46
   2  -2   0    0.87    0.42
  -2   2   0   -0.45    0.48
  -2   2   0    0.54    0.32
  -2   2   0    0.99    0.38
   2  -2   0    0.74    0.46
  -2   2   0    0.84    0.81
   2  -2   1  100.33    3.92
  -2  -2  -1  107.22    3.02
   2  -2   1  105.32    3.03
  -2   2   1  109.78    3.23
   2   2  -1   95.72    3.17
   2  -2   1  107.01    3.18
   2  -2   1  103.45    3.18
  -2   2   1   99.81    3.13
   2   2  -1   99.98    3.33
   2   2  -1  102.13    3.04
  -2  -2  -1  105.68    3.39
   2   2  -1  104.88    3.35
  -2  -2   1  101.89    2.97
  -2   2  -1  103.42    3.15
  -2   2  -1   97.60    3.12
   2  -2  -1  100.25    3.12
   2   2   1  104.02    2.83
   2  -2  -1  105.81    3.17
  -2   2  -1  106.71    4.04
  -2  -2   1  106.58    3.30
   2   2   1  104.14    3.08
   2   2   1  106.60    3.45
  -2  -2   1  100.55    3.34
   2   2   1  104.02    3.03
  -2  -2  -2   66.71    3.28
   2  -2   2   66.25    2.38
   2  -2   2   66.82    2.83
   2   2  -2   64.80    2.65
   2   2  -2   61.17    2.46
  -2   2   2   66.87    3.53
  -2  -2  -2   66.11    2.35
  -2   2   2   64.98    2.42
   2   2  -2   64.38    3.25
  -2   2   2   67.95    2.60
   2  -2   2   65.48    2.50
  -2   2   2   61.38    2.76
   2  -2   2   64.32    3.56
  -2  -2  -2   66.42    2.62
  -2  -2  -2   64.75    2.05
   2   2  -2   66.98    2.67
  -2  -2   2   65.87    2.65
  -2   2  -2   64.49    2.39
  -2   2  -2   61.10    2.42
  -2  -2   2   60.33    3.09
   2  -2  -2   66.65    2.45
   2   2   2   65.62    2.39
  -2   2  -2   69.82    3.60
  -2  -2   2   63.47    2.53
   2   2   2   59.74    3.15
  -2   2  -2   68.62    2.89
  -2   2  -2   63.44    2.44
   2   2   2   65.66    2.10
   2  -2  -2   66.16    2.45
   2   2   2   65.04    2.66
   2   2  -3   64.69    4.12
  -2   2   3   70.10    3.06
   2   2  -3   62.49    2.77
   2  -2   3   74.03    3.05
  -2  -2  -3   64.69    3.99
   2   2  -3   66.10    2.96
  -2  -2  -3   60.60    2.62
  -2  -2  -3   64.04    2.34
   2   2  -3   74.58    3.34
   2  -2   3   65.58    2.80
  -2   2   3   65.77    3.97
   2  -2   3   65.01    3.22
   2  -2   3   67.23    4.21
  -2   2   3   64.04    3.25
  -2  -2  -3   65.26    3.17
  -2   2  -3   65.42    2.83
   2  -2  -3   64.73    2.73
   2  -2  -3   70.32    2.80
   2   2   3   69.58    2.83
  -2  -2   3   64.93    3.97
  -2   2  -3   70.92    3.40
  -2  -2   3   68.81    3.13
   2  -2  -3   67.38    2.78
  -2   2  -3   64.60    2.70
  -2   2  -3   67.26    2.80
   2   2   3   68.66    3.16
   2   2   3   65.82    3.89
  -2   2  -3   65.20    4.35
  -2  -2   3   65.63    3.03
   2   2   3   70.64    2.53
   2  -2   4   -1.89    2.27
  -2   2   4    0.66    2.03
  -2  -2  -4    2.10    0.87
  -2  -2  -4    0.89    0.90
   2   2  -4    1.64    1.79
  -2   2   4   -0.53    1.52
   2   2  -4   -0.59    1.15
   2  -2   4    2.60    1.72
   2   2  -4   -0.15    0.80
   2  -2   4    0.08    1.18
  -2   2   4    0.79    1.14
  -2  -2  -4   -0.13    1.69
  -2  -2  -4   -0.39    0.82
   2   2  -4    1.55    2.70
   2   2   4    0.20    1.29
  -2   2  -4    0.18    1.01
   2   2   4    0.47    1.25
  -2   2  -4    0.41    1.02
   2   2   4    0.59    1.77
   2   2   4   -0.19    1.22
   2  -2  -4   -2.92    1.70
   2  -2  -4   -0.04    1.36
   2  -2  -4   -0.66    0.83
  -2  -2   4    0.12    1.22
  -2   2  -4    2.58    2.88
  -2   2  -4    1.83    1.92
   2  -2  -4   -0.62    0.97
  -2  -2   4   -1.06    2.05
   2  -2  -4    2.11    2.76
  -2   2  -4    0.08    0.84
   2   2  -5   48.70    3.07
   2  -2   5   48.41    3.91
  -2  -2  -5   44.45    2.62
  -2  -2  -5   46.32    2.51
  -2  -2  -5   46.56    2.86
   2   2  -5   48.11    4.31
  -2   2   5   45.21    4.74
   2  -2   5   43.05    4.80
   2   2  -5   43.87    2.92
  -2   2   5   43.70    3.81
  -2  -2   5   39.59    3.48
  -2   2  -5   44.75    2.84
   2  -2  -5   43.08    3.03
   2  -2  -5   40.88    4.54
   2   2   5   53.99    5.10
  -2   2  -5   52.40    3.35
   2  -2  -5   40.00    2.77
   2   2   5   45.34    3.40
  -2  -2   5   47.81    5.02
  -2   2  -5   42.99    2.95
   2   2   5   42.53    3.62
   2  -2   6   18.27    3.31
  -2   2   6   15.54    4.44
   2   2  -6   19.72    2.48
   2  -2   6   12.66    4.16
   2   2  -6   23.68    3.12
   2   2  -6   16.49    4.20
  -2  -2  -6   17.13    2.15
  -2  -2  -6   26.55    2.60
  -2  -2  -6   18.35    2.54
  -2  -2   6   18.60    4.85
  -2   2  -6   18.87    3.00
   2  -2  -6   20.03    2.68
   2   2   6   21.24    4.59
   2  -2  -6   20.69    2.52
  -2   2  -6   14.21    2.35
  -2   2  -6   19.56    2.59
   2   2   6   23.04    3.80
  -2  -2   6   12.64    3.19
  -2   2   7   22.67    4.46
   2   2  -7   24.93    3.41
   2  -2   7   21.66    5.81
   2   2  -7   23.45    3.35
  -2  -2  -7   22.84    2.96
  -2  -2  -7   29.91    3.53
  -2   2   7   29.30    6.35
   2  -2   7   26.22    4.98
   2  -2  -7   26.78    3.22
  -2   2  -7   26.68    3.43
  -2   2  -7   22.74    3.23
   2   2   7   29.17    4.56
  -2  -2   7   28.41    6.46
   2  -2  -7   22.26    3.47
   2   2   7   18.36    5.96
  -2   2  -7   25.09    3.83
  -2  -2   7   25.98    4.14
  -3   2   0   15.31    1.06
  -3  -2   0   12.72    1.03
   3  -2   0   14.17    1.64
   3   2   0   15.45    0.94
   3  -2   0   13.57    1.17
   3  -2   0   14.87    1.03
  -3   2   0   13.57    1.27
  -3   2   0   14.39    1.00
   3  -2   0   14.35    1.00
  -3   2   0   16.17    1.76
   3  -2   1   56.64    3.00
   3  -2   1   55.12    2.45
   3  -2   1   61.53    2.22
   3  -2   1   58.26    2.24
   3   2  -1   56.40    2.06
  -3  -2  -1   61.64    2.03
   3   2  -1   56.86    2.35
  -3   2   1   57.15    2.24
  -3   2   1   64.16    2.89
  -3   2   1   60.76    2.41
  -3  -2  -1   64.64    2.55
   3   2   1   61.84    2.12
  -3  -2   1   62.71    2.49
   3   2   1   61.57    2.50
   3  -2  -1   62.37    2.29
  -3   2  -1   56.20    2.22
  -3   2  -1   59.81    2.16
  -3   2  -1   57.44    3.19
  -3   2  -1   58.47    2.49
   3   2   1   59.15    2.04
  -3  -2   1   59.66    2.02
  -3  -2   1   58.22    2.39
   3  -2  -1   59.86    2.33
  -3   2   2  187.42    5.99
  -3  -2  -2  184.81    5.17
   3  -2   2  194.40    5.48
  -3   2   2  183.94    5.58
   3  -2   2  175.02    6.78
   3  -2   2  195.86    5.53
  -3   2   2  190.07    5.77
  -3  -2  -2  190.09    5.64
  -3  -2  -2  192.87    6.41
   3   2  -2  179.38    5.67
   3  -2   2  185.91    5.97
   3   2  -2  187.78    5.89
   3   2  -2  190.81    6.32
   3   2  -2  185.53    5.64
   3  -2   2  193.96    5.60
  -3   2   2  185.07    6.78
   3   2   2  196.26    5.48
  -3   2  -2  184.70    5.54
   3   2   2  185.91    6.40
   3  -2  -2  193.56    5.59
  -3   2  -2  190.99    5.40
  -3   2  -2  202.54    6.14
   3   2   2  182.77    5.66
  -3  -2   2  191.28    6.36
   3  -2  -2  183.98    5.62
  -3   2  -2  182.03    6.84
  -3  -2   2  189.93    5.84
   3   2   2  197.53    5.19
  -3   2   3   35.33    2.46
   3   2  -3   44.08    3.74
   3   2  -3   35.95    2.43
   3   2  -3   34.52    2.10
   3  -2   3   34.90    2.48
  -3  -2  -3   35.30    1.91
  -3  -2  -3   34.68    3.43
   3  -2   3   33.72    2.11
  -3   2   3   29.86    3.07
  -3   2   3   36.17    2.43
  -3  -2  -3   32.57    1.61
   3  -2   3   33.61    2.32
   3   2  -3   31.96    2.19
  -3  -2  -3   34.49    2.42
   3  -2   3   33.80    3.40
   3  -2  -3   34.84    2.18
  -3   2  -3   34.03    1.93
   3   2   3   35.80    1.88
   3   2   3   32.17    2.07
  -3   2  -3   32.97    1.93
   3  -2  -3   33.77    2.03
  -3   2  -3   33.32    3.81
   3   2   3   34.51    2.28
  -3   2  -3   31.64    1.91
  -3  -2   3   30.83    2.92
  -3   2  -3   36.57    2.70
   3   2   3   35.66    3.14
  -3  -2   3   30.53    2.41
  -3  -2   3   36.79    2.31
   3   2  -4    3.96    1.46
  -3   2   4    3.48    2.46
   3   2  -4    3.55    3.19
   3   2  -4    5.60    1.34
   3  -2   4    4.75    1.70
  -3  -2  -4    4.91    0.86
   3  -2   4    1.74    2.31
   3   2  -4    8.95    1.96
   3  -2   4    4.76    1.58
  -3  -2  -4    6.48    1.23
  -3   2   4    2.88    1.31
  -3  -2   4    8.81    1.82
  -3   2  -4    5.04    1.39
  -3   2  -4    3.05    1.98
  -3   2  -4    5.89    1.26
   3   2   4    5.11    1.32
   3   2   4    5.34    2.31
   3  -2  -4    5.26    1.37
  -3  -2   4   11.05    2.82
   3  -2  -4    5.33    1.25
  -3   2  -4    4.59    1.28
   3   2   4    8.36    1.40
   3  -2  -4    8.89    1.66
  -3  -2  -5   14.74    2.01
  -3  -2  -5   16.24    1.87
   3   2  -5   13.43    1.94
  -3   2   5   18.59    3.98
   3  -2   5   14.79    3.78
   3  -2   5   18.48    3.27
  -3   2   5   20.35    3.46
   3   2  -5    3.80    4.70
   3   2  -5   17.84    3.47
   3   2  -5   19.26    2.60
  -3   2  -5   17.25    2.33
  -3  -2   5   19.27    3.99
  -3   2  -5   17.57    2.27
  -3   2  -5   16.20    2.12
   3  -2  -5   21.11    2.34
   3  -2  -5   14.03    1.90
   3   2   5   24.73    2.57
  -3  -2   5   15.64    2.73
   3   2   5   20.66    3.10
   3   2   5   13.35    3.47
  -3  -2  -6   52.46    3.62
   3  -2   6   53.98    6.43
   3   2  -6   58.51    3.93
  -3   2   6   56.49    6.95
   3  -2   6   62.14    5.02
  -3  -2  -6   59.43    3.40
   3   2  -6   50.87    3.57
  -3   2   6   54.51    4.69
   3   2  -6   57.33    6.31
  -3   2  -6   55.60    3.69
   3  -2  -6   52.05    3.83
  -3   2  -6   51.37    3.63
  -3  -2   6   54.04    6.50
   3   2   6   53.85    6.45
  -3   2  -6   54.15    3.83
   3   2   6   51.64    4.75
   3  -2  -6   54.71    3.62
  -3  -2   6   46.57    4.54
   3  -2   7    7.59    3.88
  -3  -2  -7    6.24    2.38
   3   2  -7   11.19    2.71
  -3   2   7    7.97    3.67
   3   2  -7    6.76    2.87
   3  -2   7    7.53    5.03
  -3  -2  -7   10.89    2.39
  -3   2   7    8.74    5.47
   3  -2  -7    8.49    2.88
   3  -2  -7   11.10    2.57
  -3   2  -7    8.18    2.55
  -3  -2   7   11.84    3.94
  -3   2  -7   14.92    3.30
  -3  -2   7   13.43    6.01
   3   2   7   14.57    3.80
   3   2   7   12.32    4.86
  -3   2  -7    8.85    2.64
   4  -2   0  221.43    6.09
  -4  -2   0  220.35    6.09
   4  -2   0  209.39    7.10
   4  -2   0  206.18    6.41
   4   2   0  213.59    5.74
  -4   2   0  215.22    7.17
  -4   2   0  213.99    6.05
   4  -2   0  224.80    6.20
   4   2   0  213.03    6.05
  -4   2   0  224.20    6.41
  -4   2   1    3.04    0.68
  -4   2   1    6.96    1.30
   4  -2   1    3.41    0.79
  -4  -2  -1    5.37    0.79
   4   2  -1    3.45    0.93
   4  -2   1    4.19    1.30
  -4  -2  -1    5.00    1.15
  -4   2   1    3.45    1.47
   4  -2   1    4.37    0.85
   4  -2   1    4.37    1.09
   4  -2  -1    3.44    0.86
   4   2   1    2.23    0.71
  -4   2  -1    4.44    0.82
   4  -2  -1    3.52    0.83
   4   2   1    5.18    1.07
  -4   2  -1    2.95    0.89
  -4  -2   1    3.41    0.93
  -4  -2   1    3.56    0.76
  -4   2  -1    3.93    0.73
  -4  -2   1    3.26    0.67
  -4   2  -1    2.40    1.53
   4   2   1    4.56    0.80
   4  -2   2   72.79    2.76
  -4   2   2   66.13    2.79
   4  -2   2   72.41    2.80
  -4  -2  -2   75.82    2.94
   4  -2   2   68.08    3.19
  -4   2   2   72.00    3.19
   4  -2   2   74.44    2.92
   4  -2   2   65.60    3.88
   4   2  -2   69.37    3.04
  -4  -2  -2   69.70    3.69
   4   2  -2   67.90    2.89
  -4  -2  -2   71.07    2.58
   4   2   2   73.41    2.55
   4   2   2   68.91    2.77
   4   2   2   72.06    3.65
  -4  -2   2   67.74    3.41
  -4   2  -2   65.86    2.53
  -4   2  -2   66.87    2.79
  -4   2  -2   72.50    3.38
  -4  -2   2   70.07    3.24
   4   2   2   70.98    2.89
   4  -2  -2   69.95    2.90
   4  -2  -2   66.65    2.99
  -4   2  -2   71.61    4.48
   4  -2   3    4.36    2.27
  -4   2   3    2.50    1.27
   4   2  -3    2.72    1.25
   4   2  -3    1.25    1.25
  -4  -2  -3   -1.12    2.06
   4  -2   3    1.17    1.01
   4   2  -3    0.10    2.07
  -4   2   3   -0.01    1.68
  -4  -2  -3   -0.52    1.46
   4   2  -3    2.41    1.19
  -4  -2  -3    0.20    0.76
   4  -2   3    1.80    1.07
   4  -2   3    2.56    1.34
  -4   2   3    2.22    1.38
  -4  -2   3    2.57    1.50
  -4   2  -3    1.93    0.94
  -4  -2   3    1.16    1.03
  -4  -2   3    0.53    1.64
   4   2   3   -0.27    1.71
   4   2   3    1.40    1.11
   4   2   3   -0.24    1.06
  -4   2  -3    0.00    0.85
  -4   2  -3    2.00    1.63
   4  -2  -3    0.68    0.95
   4  -2  -3    3.16    1.37
   4   2   3    2.00    1.04
  -4   2  -3   -0.10    2.53
   4   2  -4   91.49    4.33
   4  -2   4  101.41    6.31
   4   2  -4   96.24    4.65
   4  -2   4  101.98    4.92
  -4   2   4   96.81    4.71
  -4  -2  -4   92.10    3.92
   4   2  -4   89.64    4.11
  -4   2   4   89.97    5.90
   4   2  -4   91.41    6.34
  -4  -2  -4   89.23    3.45
   4   2   4   90.73    5.75
  -4   2  -4  101.19    3.81
  -4   2  -4   92.23    3.91
   4   2   4   95.89    4.61
  -4  -2   4   98.83    4.51
  -4   2  -4   91.59    5.01
   4   2   4   98.68    3.86
  -4   2  -4   99.10    4.03
   4  -2  -4   95.76    4.22
   4  -2  -4   94.51    4.08
  -4  -2   4   93.47    5.64
   4  -2   5    3.61    1.99
  -4  -2  -5    2.27    1.49
   4   2  -5    2.41    1.27
   4   2  -5    0.37    4.79
   4   2  -5    3.01    1.77
   4   2  -5    3.37    2.91
   4  -2   5   -2.84    2.72
  -4   2   5    0.96    1.79
  -4  -2  -5    3.36    1.40
  -4   2   5    0.73    3.15
   4   2   5    2.12    2.28
   4   2   5    6.74    3.06
  -4  -2   5    5.03    3.37
   4   2   5    4.03    2.07
  -4   2  -5    3.37    1.32
  -4   2  -5    2.60    1.56
  -4   2  -5    4.32    1.59
  -4  -2   5    4.30    1.94
   4  -2  -5    0.77    1.65
   4  -2  -5    4.28    1.63
   4   2  -6   20.04    2.95
   4  -2   6   29.29    5.45
   4   2  -6   27.25    4.64
  -4   2   6   22.23    4.01
   4   2  -6   24.22    3.42
   4  -2   6   16.22    3.26
  -4  -2  -6   24.53    2.79
  -4   2   6   25.43    5.02
  -4  -2  -6   24.86    2.97
   4  -2  -6   25.95    3.22
  -4   2  -6   23.28    2.97
  -4   2  -6   27.33    3.02
   4   2   6   21.20    3.21
  -4  -2   6   16.25    5.22
  -4  -2   6   29.17    4.18
  -4   2  -6   23.06    2.85
   4  -2  -6   22.62    2.90
   4   2   6   23.13    5.18
   4  -2   7   -1.29    3.63
  -4  -2  -7    0.91    2.13
  -4   2   7   -9.60    3.94
   4  -2   7    2.05    4.91
   4   2  -7   -3.79    2.36
  -4   2   7   -3.89    5.17
  -4  -2  -7   -4.10    2.11
   4   2  -7   -0.35    2.16
   4  -2  -7   -2.45    2.65
  -4  -2   7   -3.20    3.14
   4   2   7    0.98    3.12
  -4   2  -7   -2.50    2.50
  -4   2  -7   -2.12    2.22
  -4  -2   7   -7.29    4.79
   4   2   7   -1.55    4.92
  -4   2  -7   -0.74    2.54
   4  -2  -7    0.48    2.07
  -5  -2   0    6.07    1.34
   5  -2   0    3.49    1.01
   5  -2   0    3.78    1.51
  -5   2   0    4.50    1.10
   5   2   0    5.03    0.89
   5   2   0    4.55    0.78
  -5   2   0    3.74    0.77
  -5  -2   0    5.62    0.80
   5   2   0    2.93    0.96
  -5   2   0    1.90    1.69
   5  -2   0    4.36    1.08
   5  -2   0    2.83    0.89
   5  -2   1    6.30    1.03
  -5   2   1    7.36    1.40
  -5  -2  -1    5.45    1.50
   5  -2   1    7.95    1.81
  -5   2   1    6.62    1.94
  -5  -2  -1    5.87    0.98
   5  -2   1    4.46    1.08
  -5   2   1    5.70    0.97
   5   2  -1    4.97    1.15
   5  -2   1    4.76    1.08
   5   2   1    6.36    1.28
  -5  -2   1    5.40    0.96
   5   2   1    4.60    1.02
  -5   2  -1    4.98    0.97
   5  -2  -1    4.81    1.00
  -5  -2   1    5.93    0.91
  -5   2  -1    7.45    2.03
  -5   2  -1    6.32    0.98
   5   2   1    5.09    0.89
   5  -2  -1    3.80    1.04
  -5  -2   1    4.91    1.30
   5   2   1    5.27    0.73
  -5   2  -1    7.60    1.46
   5   2  -2    4.07    1.18
  -5   2   2    2.62    0.90
   5  -2   2    6.25    1.26
  -5   2   2    3.57    1.88
  -5  -2  -2    2.77    0.91
   5  -2   2    3.24    1.18
  -5   2   2    2.12    1.32
   5  -2   2    2.13    0.99
   5  -2   2    0.34    1.59
  -5  -2  -2    1.67    1.84
  -5  -2  -2    0.75    1.16
   5  -2   2    2.47    1.07
  -5   2  -2    2.49    0.79
  -5  -2   2    1.49    1.34
   5   2   2    2.04    0.90
   5  -2  -2    2.10    1.06
  -5  -2   2    2.24    0.93
  -5   2  -2    4.01    1.44
  -5  -2   2    3.01    1.52
  -5   2  -2    3.21    2.55
  -5   2  -2    2.40    0.99
   5  -2  -2    4.15    1.16
   5   2   2    3.07    0.91
   5   2   2    1.72    0.97
   5   2   2    2.51    1.50
  -5   2   3    1.78    1.67
  -5   2   3   -0.39    2.06
   5  -2   3    1.71    1.42
  -5  -2  -3    4.59    2.61
   5   2  -3   -1.51    1.44
   5   2  -3    1.98    1.24
   5  -2   3    1.65    1.28
   5  -2   3    3.15    1.38
   5  -2   3    2.89    2.11
  -5  -2  -3    0.28    1.21
   5  -2   3   -1.50    1.21
  -5  -2  -3    1.67    0.97
   5   2  -3    0.24    1.19
  -5   2   3   -0.74    1.21
  -5   2  -3    1.82    1.06
   5   2   3    2.79    2.05
   5   2   3    1.92    1.19
  -5  -2   3    0.97    1.50
  -5   2  -3   -0.51    2.57
  -5   2  -3    1.24    1.85
  -5  -2   3    0.92    1.17
   5   2   3    5.58    1.28
   5   2   3    1.01    1.31
  -5  -2   3    3.50    1.98
   5  -2  -3    0.51    1.24
   5  -2  -3    4.11    1.18
  -5   2  -3    2.57    0.82
  -5   2   4    3.03    2.84
   5  -2   4    2.82    2.60
   5   2  -4    3.29    1.27
   5   2  -4    6.33    2.17
  -5   2   4    5.21    1.86
   5  -2   4    4.16    1.74
  -5  -2  -4    6.21    1.23
   5   2  -4    5.75    1.68
   5   2   4    4.56    1.65
  -5  -2   4    6.07    2.69
  -5   2  -4    4.14    1.28
   5   2   4    5.45    1.57
  -5   2  -4    6.79    1.40
  -5  -2   4    3.73    1.43
   5   2   4    3.44    2.41
   5  -2  -4    4.55    1.50
  -5   2   5   -1.92    2.03
   5  -2   5    5.48    3.60
   5   2  -5    3.59    2.90
  -5   2   5    3.15    3.25
  -5  -2  -5    2.37    1.57
   5   2  -5    3.75    1.92
   5   2  -5    4.43    5.31
   5   2  -5    1.51    1.38
   5  -2   5    1.47    1.73
  -5   2  -5    1.77    1.54
  -5   2  -5    0.07    1.42
   5   2   5   -1.02    1.75
   5  -2  -5    3.83    1.49
   5   2   5    1.80    2.87
   5   2   5    2.79    2.39
   5  -2  -5    4.39    1.82
  -5  -2   5   -1.80    3.67
  -5  -2   5    3.81    2.26
  -5  -2  -6    0.96    1.85
   5  -2   6   -0.16    2.48
  -5   2   6   -0.10    4.26
   5   2  -6    6.67    4.20
  -5   2   6   -1.74    3.27
   5   2  -6   -1.46    1.85
   5   2  -6    1.40    2.26
   5  -2   6   -2.61    4.22
  -5   2  -6    3.10    2.27
  -5  -2   6    8.05    4.62
   5  -2  -6    0.57    1.68
  -5   2  -6    1.58    1.94
  -5   2  -6    3.55    2.05
  -5  -2   6    4.02    2.79
   5   2   6   -3.18    3.75
   5  -2  -6    0.56    2.26
   5   2   6    3.59    2.46
   6   2   0    0.12    0.97
   6  -2   0    0.02    1.35
   6   2   0    0.44    0.87
   6  -2   0    0.96    1.09
  -6  -2   0   -0.97    1.46
  -6   2   0    1.40    0.82
  -6   2   0    2.60    2.02
   6   2   0    2.30    0.85
  -6  -2   0    1.44    0.90
   6  -2   0    0.88    1.01
   6  -2   0   -0.01    0.88
  -6   2   0   -0.82    1.23
   6  -2   1   36.52    2.33
  -6  -2  -1   35.33    2.02
  -6   2   1   31.90    2.64
   6  -2   1   33.86    2.09
   6   2  -1   33.64    2.43
   6  -2   1   33.55    2.28
   6  -2   1   37.43    3.20
  -6   2   1   32.52    1.92
  -6   2   1   36.75    3.54
  -6  -2  -1   35.86    3.05
   6   2  -1   35.66    2.22
   6  -2  -1   36.76    2.22
  -6   2  -1   34.20    2.54
  -6   2  -1   43.02    3.79
  -6   2  -1   33.29    2.12
   6  -2  -1   30.96    2.31
  -6  -2   1   33.37    1.83
   6   2   1   33.77    1.63
   6   2   1   32.57    1.89
   6   2   1   36.40    2.21
  -6  -2   1   36.23    2.84
   6   2   1   34.13    2.46
  -6   2  -1   34.04    1.83
  -6  -2   1   31.35    1.95
  -6   2   2  164.53    5.58
  -6   2   2  167.49    6.03
   6   2  -2  160.12    5.96
   6  -2   2  166.82    7.17
   6   2  -2  183.59    5.83
   6  -2   2  167.56    6.03
   6  -2   2  159.22    5.45
   6  -2   2  171.38    5.63
  -6  -2  -2  166.29    6.57
   6  -2   2  169.64    5.23
  -6   2   2  170.91    6.88
  -6  -2  -2  156.51    5.41
  -6   2  -2  164.88    7.59
  -6  -2   2  163.09    6.25
   6   2   2  164.05    5.27
  -6   2  -2  167.15    5.65
  -6   2  -2  169.85    6.03
  -6  -2   2  167.05    5.39
   6  -2  -2  172.33    5.77
  -6   2  -2  169.35    5.10
  -6  -2   2  167.09    5.35
   6  -2  -2  163.80    5.88
   6   2   2  166.28    5.57
   6  -2   3   26.02    2.49
  -6  -2  -3   24.12    1.91
  -6   2   3   33.08    4.05
   6   2  -3   24.05    2.38
   6  -2   3   26.49    3.88
  -6   2   3   25.95    2.59
   6  -2   3   30.05    2.41
  -6   2  -3   28.34    2.10
   6   2   3   27.40    2.34
  -6   2  -3   24.37    1.82
   6  -2  -3   25.50    2.33
  -6  -2   3   26.30    3.26
   6   2   3   22.77    2.31
   6   2   3   28.92    3.50
  -6   2   4    1.93    1.82
   6   2  -4    1.20    1.29
  -6  -2  -4   -0.45    1.31
   6   2  -4   -1.47    1.42
   6  -2   4    0.15    1.95
   6  -2   4   -1.25    2.46
  -6   2   4   -1.11    2.64
  -6  -2   4   -2.37    2.45
   6   2   4    0.04    1.92
  -6  -2   4   -1.59    1.47
   6  -2  -4    0.04    1.19
   6   2   4    0.17    1.51
   6   2   4    1.32    2.57
  -6   2  -4    0.60    1.18
  -6   2  -4    0.67    1.31
   6  -2   5   23.70    3.56
   6   2  -5   22.24    3.17
  -6   2   5   23.16    3.28
   6  -2   5   20.91    4.52
  -6   2   5   23.37    4.80
   6   2  -5   21.46    2.71
  -6  -2  -5   20.35    2.38
  -6   2  -5   22.54    2.58
   6   2   5   19.33    2.89
  -6  -2   5   20.60    2.97
   6   2   5   17.57    3.93
  -6   2  -5   21.51    2.49
  -6  -2   5   19.62    4.84
   6  -2  -5   22.50    3.09
   6  -2  -5   19.69    2.60
  -6  -2  -6   70.36    3.97
   6  -2   6   63.24    7.77
   6   2  -6   57.50    4.75
   6  -2   6   68.37    5.47
  -6   2   6   71.15    7.74
   6   2  -6   68.82    4.61
  -6   2   6   75.98    5.95
   6  -2  -6   70.66    4.78
   6   2   6   77.02    7.76
  -6  -2   6   65.59    5.27
  -6  -2   6   65.82    7.54
   6   2   6   68.62    5.39
   6  -2  -6   74.56    4.61
  -6   2  -6   70.40    4.31
  -7  -2   0   20.31    2.64
   7  -2   0   17.05    2.12
  -7   2   0   19.28    2.38
  -7  -2   0   17.06    1.72
   7   2   0   15.40    1.76
   7  -2   0   18.25    2.02
   7  -2   0   13.05    1.88
   7   2   0   17.41    2.02
   7  -2   0   13.93    2.55
   7   2   0   17.47    1.82
  -7   2   0   15.04    1.56
  -7   2   0   17.61    3.20
   7   2  -1    4.38    1.40
   7  -2   1    2.40    1.39
   7  -2   1    2.59    1.57
  -7   2   1    6.52    2.93
  -7  -2  -1    5.39    1.29
   7  -2   1    4.30    1.44
  -7   2   1    3.25    1.11
  -7  -2  -1    5.33    2.29
  -7   2   1    2.20    1.63
   7   2  -1    2.64    1.59
   7  -2   1    4.54    2.20
   7  -2  -1    2.13    1.71
  -7   2  -1    3.40    0.98
   7   2   1    3.32    0.98
  -7   2  -1    1.97    1.43
  -7   2  -1    7.67    2.76
   7   2   1    4.48    1.24
  -7  -2   1    3.31    1.05
   7   2   1    1.39    1.53
   7  -2  -1    1.45    1.39
   7  -2  -1    3.10    1.55
   7   2   1    6.13    1.49
  -7  -2   1    7.05    2.28
   7  -2   2   25.89    2.24
   7  -2   2   24.54    2.45
  -7  -2  -2   26.82    3.35
   7  -2   2   25.75    3.61
  -7   2   2   21.44    1.99
   7   2  -2   24.43    2.53
  -7  -2   2   27.06    2.81
   7  -2  -2   21.64    2.27
  -7  -2   2   27.48    3.07
   7   2   2   23.29    2.84
   7   2   2   22.36    2.30
  -7   2  -2   20.37    1.48
  -7   2  -2   21.27    2.02
  -7  -2   2   24.19    2.06
   7   2   2   22.40    2.13
  -7  -2  -3    0.85    1.45
   7   2  -3    0.19    1.27
   7  -2   3    2.85    2.61
   7  -2   3   -1.06    1.69
   7  -2   3    2.44    1.48
  -7   2   3    0.14    1.62
  -7   2   3   -4.50    2.24
   7   2   3   -0.86    1.31
   7  -2  -3    0.63    1.41
  -7  -2   3    0.38    1.58
  -7  -2   3   -3.07    1.96
  -7   2  -3   -1.18    1.18
   7   2   3    0.53    2.24
  -7   2  -3    1.40    1.04
   7   2   3    2.53    1.68
   7   2  -4   20.55    2.74
   7   2  -4   15.22    2.36
  -7  -2  -4   18.33    2.18
  -7   2   4   16.27    4.22
   7  -2   4   11.96    3.40
   7  -2   4   20.38    2.83
  -7   2   4   18.43    2.69
  -7   2  -4   17.05    1.89
   7   2   4   11.74    2.21
  -7  -2   4   18.27    2.62
   7   2   4   12.98    3.41
  -7   2  -4   17.09    2.23
  -7  -2   4   21.04    3.93
   7  -2  -4   17.75    2.42
   7   2  -5    2.22    1.86
   7  -2   5    3.78    3.68
  -7   2   5    5.25    2.67
  -7  -2  -5    2.34    1.78
  -7   2   5    2.90    3.83
   7   2  -5   -1.57    2.16
   7  -2  -5   -1.66    2.06
   7   2   5   -2.02    3.48
  -7   2  -5    3.59    1.71
  -7  -2   5    6.23    3.89
  -7   2  -5    0.26    1.74
  -7  -2   5    1.37    2.43
   7  -2  -5    3.35    2.05
   7   2   5    4.45    2.30
  -7   2   6   12.02    5.45
   7  -2   6   23.28    4.22
  -7  -2  -6   17.48    2.72
   7   2  -6   10.99    2.99
  -7   2   6   16.17    4.09
   7   2  -6   19.32    3.17
   7  -2   6   23.94    5.88
  -7  -2   6   17.69    5.10
   7   2   6   20.79    5.82
   7  -2  -6   15.83    3.25
   7  -2  -6   26.51    3.47
   7   2   6   15.76    3.25
  -7  -2   6   15.20    3.54
  -7   2  -6   16.15    2.91
   8  -2   0  147.49    5.36
   8  -2   0  146.44    6.62
   8   2   0  156.68    5.08
   8   2   0  139.24    5.09
   8   2   0  144.45    5.64
   8  -2   0  146.41    5.78
  -8  -2   0  146.03    6.34
  -8   2   0  143.30    5.09
  -8  -2  -1    7.72    2.82
   8  -2   1    8.16    1.92
   8   2  -1   11.13    1.94
  -8   2   1    7.65    1.49
   8  -2   1    8.93    2.65
   8  -2   1   11.03    1.91
   8   2  -1    7.01    1.95
   8   2   1   10.17    1.59
  -8  -2   1    5.97    2.53
  -8  -2   1    9.49    1.63
   8  -2  -1    7.93    2.02
   8   2   1    8.13    1.39
   8   2   1   10.20    2.10
  -8   2  -1    7.50    1.27
   8  -2   2  114.38    6.23
   8  -2   2  114.18    5.08
   8  -2   2  122.94    4.56
  -8   2   2  118.03    4.73
  -8  -2   2  114.74    4.49
  -8   2  -2  118.65    4.94
   8   2   2  111.74    5.73
   8  -2  -2  121.09    5.27
   8   2   2  118.55    4.67
  -8   2  -2  119.65    4.14
  -8  -2   2  114.61    5.57
   8  -2   3    8.23    2.16
   8  -2   3    9.23    2.09
  -8   2   3   10.97    2.34
  -8   2   3    7.23    3.28
   8  -2   3    7.42    2.97
   8   2  -3    5.68    1.77
   8   2   3    4.50    2.38
  -8   2  -3    4.45    1.13
   8  -2  -3    5.54    1.77
  -8   2  -3    7.42    1.73
  -8  -2   3    5.05    1.67
   8   2   3    3.47    1.52
  -8  -2   3    6.31    2.65
   8  -2   4   89.78    7.12
   8   2  -4   85.78    5.00
  -8   2   4   90.08    5.12
   8  -2   4   87.62    5.15
  -8   2   4   80.03    7.20
   8   2  -4   92.41    4.78
  -8  -2  -4   91.70    4.41
  -8  -2   4   90.49    6.44
   8   2   4   97.00    4.94
   8   2   4   91.55    6.51
   8  -2  -4   91.68    4.68
  -8   2  -4   91.60    3.63
  -8   2  -4   84.59    4.38
  -8   2   5    3.58    3.02
   8  -2   5    3.51    3.86
   8   2  -5    8.54    2.74
  -8   2   5    7.14    4.23
   8  -2   5    3.84    2.61
   8   2  -5    8.01    2.34
  -8  -2  -5    4.72    2.17
   8   2   5    7.23    2.67
   8  -2  -5    3.52    2.33
  -8  -2   5    6.66    2.43
  -8   2  -5    2.46    2.17
   8  -2  -5    6.65    2.75
  -8   2  -5    6.36    1.67
  -8  -2   5    5.89    4.06
   8   2   5    4.56    4.10
   8  -2   6   53.80    7.55
   8  -2   6   59.88    6.00
  -8  -2  -6   60.01    4.21
  -8   2   6   54.12    7.74
  -8   2   6   52.94    5.80
   8   2  -6   51.60    5.05
   8   2  -6   59.42    4.75
  -8   2  -6   56.10    4.47
   8   2   6   58.72    7.75
   8   2   6   51.45    5.34
   8  -2  -6   54.96    4.71
   8  -2  -6   61.54    5.12
  -8  -2   6   57.48    7.56
   9   2   0   50.62    3.48
   9  -2   0   49.74    4.13
  -9   2   0   51.10    2.88
   9   2   0   49.68    2.94
   9  -2   0   55.49    3.66
   9   2   0   58.50    3.29
   9  -2   1    2.64    2.01
  -9   2   1    2.43    1.31
   9  -2   1    0.95    1.59
   9   2  -1    1.47    1.64
   9  -2   1    0.57    2.36
   9   2   1   -0.18    1.59
  -9   2  -1    0.42    1.18
   9  -2  -1   -1.21    1.39
  -9  -2   1   -0.77    1.57
   9   2   1    1.66    1.96
   9   2   1    1.52    1.35
   9  -2   2    2.44    1.95
   9   2  -2   -1.10    1.43
   9  -2   2    1.10    2.41
   9  -2   2   -1.78    1.58
  -9   2  -2    0.81    1.16
   9  -2  -2    2.16    1.54
   9   2   2    3.59    2.38
   9   2   2    2.44    1.56
  -9  -2   2    0.99    2.34
  -9  -2   2    3.58    1.85
   9  -2   3    5.06    2.82
   9  -2   3    1.28    1.90
   9  -2   3   -5.11    2.06
  -9   2   3    0.65    2.03
  -9   2   3    4.09    3.34
   9   2  -3    2.94    1.74
  -9  -2   3   -0.78    1.80
  -9  -2   3    1.63    2.75
  -9   2  -3   -1.66    1.59
   9   2   3    0.53    2.37
   9  -2  -3    1.59    1.64
   9   2   3   -1.52    1.57
  -9   2  -3    1.10    1.39
   9   2  -4   28.02    3.45
   9  -2   4   21.44    3.44
   9  -2   4   26.67    5.04
   9  -2   4   32.62    3.72
  -9   2   4   27.71    5.15
  -9   2   4   28.47    3.59
   9   2   4   25.31    3.40
   9   2   4   24.75    4.78
   9  -2  -4   25.53    3.47
  -9   2  -4   28.85    2.30
  -9   2  -4   27.13    3.07
  -9  -2   4   27.12    3.33
  -9  -2   4   20.43    4.46
  -9  -2  -5   -1.73    2.33
   9  -2   5   -2.36    4.40
   9   2  -5   -1.03    2.03
  -9   2   5    2.62    4.91
  -9   2   5   -2.55    2.81
   9   2  -5   -1.93    2.53
   9  -2   5   -0.81    2.83
   9   2   5   -5.12    3.72
  -9  -2   5    5.59    2.46
  -9  -2   5   -1.02    4.20
   9   2   5   -2.67    2.07
   9  -2  -5    0.64    2.23
  -9   2  -5    0.89    2.48
  10  -2   0    7.10    2.65
  10   2   0   -0.31    2.10
  10   2   0    5.16    1.46
  10   2   0    9.36    2.11
 -10   2   0   10.27    1.88
  10  -2   0    6.39    1.88
  10   2  -1    9.00    2.31
  10  -2   1    7.52    3.09
 -10   2   1    8.20    1.95
  10  -2   1    7.57    2.09
  10   2   1    8.56    1.68
  10  -2  -1    4.31    1.82
  10   2   1    7.85    2.54
 -10  -2   1    7.50    1.85
 -10   2  -1    5.52    1.49
  10   2   1    8.08    2.16
  10  -2   2    6.72    2.21
  10  -2   2    4.88    2.47
  10   2  -2    6.90    2.37
  10  -2   2    8.57    2.94
 -10  -2   2    4.18    2.84
 -10  -2   2    3.20    2.17
  10  -2  -2    5.90    2.25
 -10   2  -2    6.18    1.71
  10   2   2    6.30    1.84
  10   2   2    8.90    2.91
  10  -2   3   13.70    2.84
  10   2  -3    4.86    2.16
  10  -2   3    6.09    3.35
  10  -2   3    1.27    2.06
 -10   2   3    7.83    2.64
  10   2   3    2.80    3.13
  10   2   3    7.64    2.21
 -10   2  -3    9.52    1.85
 -10  -2   3    5.07    2.25
 -10   2  -3    5.77    1.96
  10  -2  -3    6.85    2.34
 -10  -2   3   10.32    3.43
  10   2  -4    6.62    2.46
 -10   2   4    7.76    3.24
  10  -2   4    4.02    2.73
  10  -2   4   12.76    3.22
  10  -2   4   10.80    4.71
 -10   2   4    3.27    4.10
 -10   2  -4    0.26    2.08
 -10  -2   4    4.87    4.01
 -10  -2   4   -0.28    2.52
  10  -2  -4    7.03    2.23
  10   2   4   10.32    4.30
  10   2   4    6.54    2.37
  10  -2   5    2.66    4.94
  10  -2   5    3.49    3.46
  10   2  -5    6.29    2.88
  10   2  -5    0.13    2.90
 -10   2   5    1.80    3.27
 -10   2   5   -0.53    4.94
 -10   2  -5    4.30    2.51
  10  -2  -5    4.18    2.37
  10   2   5    4.08    2.87
  10   2   5    7.02    5.11
 -10  -2   5    3.68    4.55
  11  -2   0   82.10    5.80
  11  -2   0   82.34    4.83
  11   2   0   83.48    4.37
 -11   2   0   83.42    4.17
  11  -2   1    5.63    3.20
  11  -2   1    5.27    2.17
  11   2  -1    6.34    2.28
 -11  -2   1    2.62    2.14
  11   2   1    6.65    2.63
  11   2   1    1.99    2.51
  11  -2  -1    5.25    2.72
 -11   2  -1    6.46    1.80
  11   2   1    3.22    1.95
  11  -2   2   15.59    3.84
  11   2  -2   11.08    2.82
  11  -2   2   10.54    2.64
 -11  -2   2   14.29    2.63
  11   2   2    7.94    3.27
  11   2   2   13.53    2.50
 -11  -2   2   12.79    3.68
  11   2   2   10.87    2.31
 -11   2  -2   11.35    1.96
  11  -2  -2   15.41    3.12
  11   2  -3    1.03    2.55
  11  -2   3    3.35    2.44
 -11   2   3    0.28    4.03
  11  -2   3   10.08    3.39
 -11   2   3    8.94    2.90
  11  -2   3    1.28    3.73
 -11  -2   3    7.78    3.84
  11   2   3   -4.23    2.97
 -11  -2   3    1.21    2.41
  11  -2  -3    3.78    2.45
 -11   2  -3    1.73    1.68
  11   2   3   -2.24    2.02
 -11   2   4   56.15    7.02
 -11   2   4   55.10    5.36
  11  -2   4   50.75    5.24
  11  -2   4   45.54    6.71
  11   2  -4   43.02    4.72
  11  -2  -4   56.75    4.75
 -11   2  -4   49.48    3.32
 -11  -2   4   52.57    6.18
  11   2   4   57.60    7.18
  11   2   4   47.27    4.55
 -11   2  -4   55.50    4.63
 -12   2   0   -0.88    1.74
  12  -2   0    3.18    2.16
  12  -2   0   -2.93    2.81
  12   2   0   -2.16    1.78
  12  -2   1   15.44    4.24
  12   2  -1   17.54    3.52
  12  -2   1   18.89    3.33
  12  -2  -1   16.56    3.40
  12   2   1   17.60    2.85
  12   2   1   25.98    3.96
 -12  -2   1   23.57    2.79
 -12   2  -1   22.15    2.73
  12   2  -2    7.26    2.81
  12  -2   2    1.00    3.96
  12  -2   2    7.23    2.71
 -12   2  -2    9.55    2.13
 -12  -2   2    2.00    2.96
  12   2   2   13.33    3.79
  12   2   2   11.49    2.52
 -12  -2   2   11.17    4.27
  12  -2  -2    7.16    2.70
 -12   2   3   19.03    5.22
  12  -2   3   19.36    5.24
  12   2  -3   14.59    3.60
 -12   2   3   18.26    3.49
  12  -2   3   20.29    3.57
 -12  -2   3   16.79    4.78
 -12   2  -3   21.65    2.55
  12   2   3   16.34    3.08
  12  -2  -3   20.20    3.71
  12   2   3   18.93    4.67
  13  -2   0   -1.09    3.10
  13  -2   0    4.09    3.30
  13   2   0    0.01    2.99
  13   2  -1    5.24    3.04
  13  -2   1    1.25    4.16
  13  -2   1    4.45    2.65
  13   2   1    5.30    3.43
  13   2   1    1.44    2.33
  13  -2  -1    3.22    3.25
 -13   2  -1   -0.24    2.11
  13   2  -2   -1.61    2.63
  13  -2   2    4.11    4.26
  13  -2   2   -1.80    2.67
  13  -2  -2    2.07    3.13
 -13   2  -2    2.06    2.17
  13   2   2   -5.91    2.30
 -13  -2   2    0.33    4.31
  13   2   2    0.87    3.92
   0   3   0    0.26    0.56
   0   3   0    0.25    0.27
   0  -3   0   -0.18    0.39
   0  -3   0   -0.05    0.30
   0   3   0   -0.26    0.34
   0  -3   0   -0.11    0.52
   0   3   0    0.03    0.35
   0  -3  -1   66.40    1.93
   0   3  -1   64.35    2.46
   0   3  -1   64.32    2.00
   0  -3   1   65.58    2.75
   0  -3  -1   67.94    2.15
   0   3   1   70.61    1.97
   0  -3   1   63.52    2.50
   0   3  -1   67.27    2.33
   0  -3   1   68.78    2.33
   0   3   1   67.57    2.12
   0  -3   1   62.59    2.02
   0   3  -1   67.71    2.81
   0   3  -1   66.32    2.29
   0  -3   2    0.98    0.73
   0   3   2   -1.28    0.92
   0   3  -2   -0.34    0.59
   0  -3  -2    0.07    0.42
   0   3   2   -0.24    0.54
   0   3  -2    2.19    1.31
   0   3   2   -0.05    0.41
   0   3  -2   -0.51    0.75
   0  -3  -2    4.15    1.45
   0  -3  -2   -0.32    0.53
   0  -3   2   -0.73    1.04
   0   3   2    0.47    0.70
   0  -3   2    0.07    0.72
   0   3  -2   -0.12    0.49
   0  -3   2   -0.12    0.61
   0  -3  -3   45.93    1.83
   0   3  -3   49.95    2.88
   0  -3  -3   48.16    2.17
   0  -3   3   44.77    3.46
   0  -3  -3   41.81    2.79
   0  -3   3   49.65    2.41
   0   3  -3   46.38    2.17
   0  -3  -3   47.70    2.03
   0   3  -3   42.52    2.30
   0  -3  -3   43.31    3.76
   0   3  -3   48.28    3.74
   0   3   3   45.32    3.39
   0   3   3   52.54    2.39
   0  -3   3   47.25    2.60
   0   3   3   42.40    2.65
   0  -3   3   45.69    2.57
   0  -3   4    0.46    1.72
   0  -3  -4   -1.05    0.96
   0  -3   4    2.15    1.99
   0   3  -4   -0.44    2.81
   0  -3   4    0.43    1.36
   0   3   4    1.41    1.91
   0  -3  -4    1.05    0.89
   0   3   4   -0.17    1.32
   0   3  -4    0.75    1.04
   0   3  -4   -0.50    0.99
   0  -3  -4   -3.13    1.98
   0  -3   4    0.73    1.46
   0  -3  -4   -1.53    0.91
   0   3   4    2.18    1.42
   0   3  -4   -0.08    1.44
   0  -3  -5   22.85    2.05
   0   3   5   24.30    4.16
   0  -3  -5   24.34    2.21
   0  -3   5   28.02    4.35
   0   3  -5   25.93    3.33
   0   3  -5   26.04    2.52
   0  -3   5   21.75    2.84
   0  -3  -5   25.30    2.46
   0   3  -5   24.23    2.31
   0   3   5   17.15    2.47
   0  -3  -6    2.55    1.68
   0  -3   6    2.12    3.62
   0  -3  -6    0.31    1.26
   0   3  -6   -0.86    1.32
   0   3   6    5.52    3.67
   0  -3   6   -1.04    2.21
   0   3   6   -0.49    2.37
   0   3  -6   -0.45    1.85
   0   3  -7   15.20    2.98
   0   3   7   14.66    3.78
   0  -3   7   14.34    5.75
   0  -3   7   18.64    4.40
   0  -3  -7   20.16    2.84
   0  -3  -7   20.93    2.85
   0   3  -7   17.60    3.01
   0   3   7   16.80    5.34
  -1  -3   0    3.23    0.49
  -1   3   0    3.45    0.45
   1  -3   0    3.20    0.63
  -1   3   0    2.57    0.67
   1  -3   0    3.36    0.88
  -1  -3   0    3.42    0.70
   1   3   0    2.92    0.44
  -1   3   0    2.93    0.55
  -1   3   0    3.03    0.92
   1   3   0    2.19    0.51
   1  -3   0    2.92    0.59
   1   3   0    2.31    0.52
  -1  -3  -1    8.07    0.70
   1   3  -1    8.98    1.16
   1  -3   1    7.72    0.66
   1   3  -1    6.76    0.66
   1  -3   1    8.22    1.30
  -1  -3  -1    7.07    0.59
   1  -3   1    8.74    0.90
  -1   3   1    7.07    0.74
  -1   3   1    7.18    0.72
   1   3  -1    7.04    0.76
   1   3  -1    7.17    0.82
   1  -3   1    7.90    0.88
   1  -3   1    8.32    1.02
   1  -3  -1    7.72    0.63
  -1   3  -1    7.25    0.75
  -1   3  -1    7.69    0.62
  -1  -3   1    7.64    0.71
   1  -3  -1    7.59    0.83
  -1   3  -1    7.06    0.86
   1  -3  -1    8.94    0.62
  -1   3  -1    8.94    1.41
  -1   3  -1    7.94    0.95
  -1  -3   1    8.98    1.13
   1   3   1    9.69    1.07
  -1  -3   1    7.42    0.79
   1   3   1    7.29    0.59
   1   3   1    8.28    0.79
  -1  -3   1    9.39    0.97
  -1   3   2  331.07    9.29
  -1  -3  -2  326.52    8.61
   1  -3   2  321.70    8.92
   1   3  -2  334.43    9.07
   1  -3   2  333.43    8.69
  -1   3   2  337.29   10.08
  -1  -3  -2  336.40    9.71
   1  -3   2  330.49    9.23
   1  -3   2  331.52   10.16
  -1  -3  -2  331.36    9.02
  -1   3   2  338.43    8.74
   1   3  -2  330.26    8.79
  -1   3   2  328.62    8.69
   1   3  -2  334.96    9.78
   1   3  -2  324.00    9.05
   1   3   2  354.34    8.68
   1  -3  -2  345.54    8.71
  -1  -3   2  314.09    9.73
  -1   3  -2  340.69    9.28
   1   3   2  331.64    9.13
   1  -3  -2  332.55    8.65
  -1  -3   2  332.24    9.02
   1   3   2  321.47    8.29
  -1  -3   2  339.13    9.10
  -1  -3   2  331.29    8.82
  -1   3  -2  325.99    8.66
  -1   3  -2  327.61    9.11
  -1   3  -2  338.05   10.13
   1   3   2  325.69    9.80
  -1   3  -2  321.52    8.94
  -1  -3  -3    6.52    2.32
   1  -3   3    6.54    1.42
   1  -3   3    5.69    1.10
  -1  -3  -3    7.30    0.87
  -1  -3  -3    5.10    0.95
   1   3  -3    5.11    1.99
  -1  -3  -3    6.65    0.78
  -1   3   3    5.59    1.16
   1  -3   3    5.90    1.41
   1   3  -3    5.84    1.38
   1   3  -3    6.10    0.97
  -1   3   3    8.08    1.51
  -1   3   3    5.18    1.74
   1  -3   3    2.71    1.92
   1   3  -3    5.03    1.13
  -1  -3  -3    5.44    1.34
  -1   3  -3    6.01    2.09
  -1  -3   3    5.18    1.81
  -1  -3   3    5.74    1.17
   1  -3  -3    8.04    1.19
  -1   3  -3    4.90    0.86
  -1   3  -3    5.67    1.05
  -1  -3   3    6.43    1.45
   1   3   3    5.95    1.78
   1   3   3    3.65    1.04
   1  -3  -3    5.48    0.94
   1   3   3    7.14    1.01
  -1   3  -3    5.64    1.41
   1  -3  -3    7.00    1.00
  -1   3  -3    6.18    1.25
   1  -3  -3    9.30    2.40
  -1  -3   3    4.22    1.14
   1   3   3    3.25    1.27
  -1   3   4   -0.61    0.96
   1  -3   4   -0.51    1.58
   1   3  -4    1.96    1.15
  -1   3   4   -0.65    1.39
  -1  -3  -4    0.44    0.77
  -1  -3  -4   -1.13    1.78
   1  -3   4   -0.68    1.17
   1  -3   4    2.05    1.52
  -1   3   4    2.53    1.83
   1   3  -4    1.08    0.99
   1   3  -4   -1.44    1.73
   1  -3   4    1.68    2.32
  -1  -3  -4    0.54    0.94
   1   3  -4    0.40    2.72
  -1  -3  -4    1.08    0.91
   1   3   4    1.31    1.13
  -1  -3   4    0.48    1.43
  -1   3  -4    2.84    2.98
   1  -3  -4    0.64    1.09
  -1  -3   4    0.25    1.29
   1  -3  -4    0.36    0.94
   1  -3  -4   -0.97    1.82
   1   3   4    1.28    1.37
   1  -3  -4    2.54    1.02
  -1  -3   4    0.29    1.21
   1   3   4    1.26    1.93
   1   3   4    2.27    1.43
  -1   3  -4    1.77    1.82
  -1   3  -4    1.70    1.34
  -1   3  -4    1.40    1.03
  -1  -3   4    0.84    1.83
  -1   3  -4    0.87    0.99
  -1   3   5    9.04    2.10
   1   3  -5    6.80    1.71
   1  -3   5    8.08    3.15
  -1   3   5    6.73    2.95
   1   3  -5    7.26    1.51
   1   3  -5    8.51    2.93
  -1  -3  -5    4.92    1.54
   1  -3   5    9.97    2.41
  -1  -3  -5    7.71    1.49
  -1  -3  -5    7.45    1.54
   1  -3  -5    7.85    1.58
   1   3   5    6.31    3.09
  -1   3  -5   11.58    3.14
  -1  -3   5    6.66    3.01
   1  -3  -5    6.77    1.87
   1   3   5   11.64    2.17
  -1   3  -5    6.23    1.56
   1   3   5    8.09    2.26
  -1  -3   5    6.71    2.09
  -1   3  -5    5.16    1.48
   1  -3  -5    8.38    1.51
   1   3  -6   76.33    4.20
   1   3  -6   78.46    6.45
  -1  -3  -6   73.54    4.09
  -1  -3  -6   79.38    3.87
  -1  -3  -6   76.38    3.97
   1   3  -6   75.80    4.30
   1  -3   6   79.26    5.78
   1  -3   6   70.90    7.05
  -1   3   6   82.29    7.13
   1   3   6   69.71    6.54
  -1  -3   6   73.33    5.36
   1  -3  -6   76.54    4.18
  -1   3  -6   74.80    4.22
   1  -3  -6   76.66    3.99
  -1   3  -6   73.82    4.23
  -1   3  -6   85.70    5.01
  -1  -3   6   72.07    7.14
   1   3   6   87.83    5.48
   1   3  -7    0.61    2.33
  -1  -3  -7    1.94    1.85
   1   3  -7    3.54    2.37
  -1  -3  -7    2.20    2.15
  -1   3   7    3.00    4.73
   1  -3   7    3.55    4.87
   1  -3   7   -1.39    2.87
  -1   3   7    5.12    3.55
   1  -3  -7    5.42    2.36
   1   3   7   10.20    5.25
  -1   3  -7   -1.91    3.13
   1  -3  -7   -0.72    1.83
  -1  -3   7   10.39    5.35
  -1   3  -7    4.06    2.23
  -1   3  -7    3.22    2.36
   1   3   7   -1.42    3.06
  -1  -3   7   -2.93    3.29
  -2   3   0   66.74    2.21
  -2   3   0   68.32    2.52
   2  -3   0   62.59    2.90
   2  -3   0   63.96    2.17
  -2   3   0   66.87    3.08
   2  -3   0   68.92    2.37
  -2   3   0   64.00    2.31
   2  -3   0   67.34    2.50
   2  -3   1    2.36    1.06
   2  -3   1    3.42    0.61
   2   3  -1    3.31    0.55
  -2   3   1    2.89    0.70
  -2   3   1    3.67    0.64
   2  -3   1    2.27    0.73
   2   3  -1    3.17    0.62
  -2   3   1    4.85    1.14
  -2  -3  -1    3.27    0.91
   2   3  -1    3.17    0.79
   2  -3   1    3.51    0.75
   2   3  -1    3.01    0.71
   2  -3   1    3.44    0.72
  -2  -3   1    3.06    0.52
   2   3   1    3.50    0.58
  -2   3  -1    2.63    0.61
  -2  -3   1    2.78    0.77
   2  -3  -1    3.11    0.64
  -2   3  -1    2.99    0.70
   2  -3  -1    3.28    0.60
   2  -3  -1    2.62    0.71
  -2  -3   1    1.86    0.70
   2   3   1    3.65    0.59
   2   3   1    2.67    0.76
  -2   3  -1    3.33    1.30
  -2   3  -1    4.39    1.01
   2   3   1    3.28    0.44
  -2  -3  -2   26.40    1.40
   2  -3   2   28.06    1.84
   2  -3   2   25.36    1.48
  -2  -3  -2   30.71    2.34
   2   3  -2   29.41    2.33
   2   3  -2   26.91    1.77
  -2   3   2   29.23    1.69
  -2   3   2   26.22    1.50
  -2   3   2   28.08    2.47
   2  -3   2   29.42    2.56
  -2   3   2   24.69    1.83
   2  -3   2   26.21    1.81
   2   3  -2   25.65    1.54
   2   3  -2   26.77    1.65
   2  -3   2   28.16    1.76
  -2  -3  -2   23.74    1.66
   2  -3  -2   28.27    1.57
  -2  -3   2   21.67    2.01
  -2   3  -2   29.58    2.01
   2   3   2   26.41    1.48
  -2   3  -2   27.38    1.66
  -2  -3   2   27.19    1.71
  -2  -3   2   28.22    1.92
  -2   3  -2   28.46    2.74
   2  -3  -2   29.38    1.51
   2   3   2   26.68    1.68
  -2   3  -2   26.56    1.60
   2   3   2   27.28    2.21
  -2   3  -2   25.81    1.42
   2   3  -3    1.45    0.88
   2  -3   3   -0.19    0.85
  -2  -3  -3    1.60    0.58
   2   3  -3    2.29    1.75
   2  -3   3    0.21    1.61
   2   3  -3    1.08    0.75
  -2   3   3   -1.42    1.44
  -2   3   3   -0.60    1.11
  -2  -3  -3   -1.10    1.81
  -2  -3  -3   -1.32    1.25
   2   3  -3    1.82    1.22
  -2  -3  -3   -0.11    0.61
  -2   3   3   -0.20    1.04
   2  -3   3   -0.20    1.18
   2  -3   3   -0.26    0.93
   2   3   3    0.98    0.89
  -2  -3   3    0.94    1.03
  -2   3  -3    3.19    2.31
  -2  -3   3   -2.24    1.20
   2  -3  -3    0.59    0.78
  -2   3  -3   -0.01    0.96
   2  -3  -3    0.03    0.68
   2   3   3   -0.12    0.70
  -2   3  -3    0.24    0.67
   2   3   3    0.88    0.78
   2  -3  -3    2.39    0.94
  -2  -3   3   -0.06    1.34
  -2   3  -3   -0.43    0.75
  -2  -3   3    1.27    1.04
   2   3   3    1.54    1.53
  -2   3  -3    1.57    1.28
  -2  -3  -4   32.14    2.13
   2   3  -4   42.97    4.72
  -2  -3  -4   35.04    1.72
   2   3  -4   34.30    2.49
  -2   3   4   37.88    3.93
  -2  -3  -4   34.22    1.79
   2  -3   4   37.00    4.61
  -2   3   4   33.35    2.85
  -2   3   4   32.10    2.79
   2   3  -4   32.11    2.25
   2  -3   4   36.55    2.88
   2  -3  -4   36.69    2.26
  -2   3  -4   33.18    2.30
  -2   3  -4   32.28    2.46
  -2   3  -4   35.02    4.44
   2   3   4   32.93    3.89
  -2   3  -4   28.89    3.37
  -2  -3   4   34.37    2.74
   2   3   4   33.65    2.13
   2   3   4   37.02    2.82
   2  -3  -4   31.40    2.17
  -2  -3   4   32.25    3.62
   2  -3  -4   35.59    2.29
  -2   3  -4   31.80    2.21
   2  -3   5    1.12    2.87
   2   3  -5    0.86    1.40
   2   3  -5    0.91    4.07
  -2  -3  -5    2.46    1.26
   2   3  -5   -0.51    1.24
  -2   3   5    1.12    1.86
   2   3  -5   -3.15    2.57
  -2  -3  -5    0.61    1.09
   2  -3   5    0.68    1.80
  -2  -3  -5   -0.63    1.10
  -2   3   5    2.27    2.75
   2  -3  -5   -0.37    1.08
  -2   3  -5   -0.25    2.50
   2   3   5    1.15    2.54
  -2   3  -5   -0.31    1.23
   2   3   5   -1.71    1.65
  -2  -3   5   -0.84    1.83
   2   3   5    0.43    1.73
   2  -3  -5    0.49    1.65
  -2   3  -5    2.34    1.60
  -2   3  -5    0.86    1.72
  -2  -3   5    2.30    2.94
   2  -3   6   12.38    2.89
  -2   3   6   14.03    4.86
  -2   3   6   13.13    3.45
  -2  -3  -6   13.81    2.25
   2   3  -6   11.18    2.45
  -2  -3  -6   11.81    2.01
   2   3  -6   11.26    2.10
   2  -3   6   10.51    4.38
  -2  -3  -6   13.57    2.18
   2   3  -6   15.35    4.20
   2   3   6   11.66    2.74
  -2  -3   6   14.43    3.28
   2   3   6   12.94    3.08
   2   3   6   14.39    4.16
  -2  -3   6    8.50    4.07
   2  -3  -6   13.83    2.29
  -2   3  -6   17.72    3.04
  -2   3  -6   11.83    2.11
  -2   3  -6   12.09    2.35
   2  -3  -6   12.78    2.24
  -2   3   7    0.85    3.33
  -2  -3  -7   -0.95    1.99
  -2   3   7   -1.73    4.72
   2  -3   7   -0.65    3.24
   2   3  -7    3.18    2.44
   2  -3   7   -1.90    4.62
  -2  -3  -7    1.98    2.15
   2   3  -7   -0.68    2.35
   2  -3  -7   -0.52    2.01
   2   3   7    1.23    4.52
  -2  -3   7    7.31    4.07
  -2  -3   7    0.57    5.45
   2   3   7   -2.11    2.83
  -2   3  -7    1.92    2.37
  -2   3  -7    1.73    2.11
  -2   3  -7    0.81    2.88
   2  -3  -7    0.77    2.57
   3  -3   0   30.77    1.58
  -3   3   0   27.59    1.48
  -3   3   0   28.05    2.48
  -3   3   0   29.57    1.44
  -3   3   0   30.72    1.82
   3  -3   0   29.24    1.49
   3  -3   0   29.18    1.72
   3  -3   0   27.19    2.22
   3   3  -1   84.52    3.10
  -3   3   1   93.67    3.82
  -3   3   1   87.47    3.07
  -3  -3  -1   92.11    3.11
   3  -3   1   90.19    3.39
   3   3  -1   87.02    2.73
   3  -3   1   82.15    3.97
   3  -3   1   90.43    3.10
   3  -3   1   90.19    3.09
   3   3  -1   86.49    3.06
  -3   3   1   88.32    3.32
  -3   3  -1   90.92    3.42
   3   3   1   86.63    2.74
   3  -3  -1   90.91    3.06
   3  -3  -1   92.58    3.04
   3  -3  -1   92.69    3.15
  -3   3  -1   87.30    3.03
  -3  -3   1   90.76    3.24
   3   3   1   90.74    2.76
  -3   3  -1   91.77    4.22
  -3   3  -1   86.34    3.03
   3   3   1   90.98    3.16
   3   3  -2   29.50    1.94
  -3  -3  -2   27.01    2.39
   3  -3   2   25.59    1.63
  -3  -3  -2   27.17    1.29
   3   3  -2   27.52    1.70
  -3   3   2   28.20    1.95
   3  -3   2   26.49    2.75
  -3   3   2   27.46    1.64
   3  -3   2   24.21    1.92
   3   3  -2   27.46    1.71
   3   3  -2   27.75    2.37
  -3  -3  -2   26.29    1.68
   3  -3   2   28.20    1.85
   3  -3   2   28.69    1.88
   3   3   2   30.19    1.36
  -3   3  -2   27.51    1.67
   3  -3  -2   30.94    1.69
   3   3   2   27.45    1.62
  -3  -3   2   28.13    2.24
  -3  -3   2   24.23    1.92
  -3   3  -2   27.58    1.65
  -3   3  -2   30.52    2.13
   3   3   2   25.83    2.27
  -3   3  -2   26.26    3.22
  -3  -3   2   29.42    1.64
   3   3   2   27.38    1.72
   3  -3  -2   27.22    1.73
   3  -3   3   52.33    2.61
   3   3  -3   56.14    3.85
   3   3  -3   56.63    3.02
  -3   3   3   51.76    3.04
  -3  -3  -3   53.08    2.06
  -3   3   3   49.58    3.87
  -3   3   3   58.30    2.90
   3   3  -3   55.83    2.95
   3   3  -3   53.99    2.64
  -3  -3  -3   53.67    2.45
  -3   3   3   51.70    2.52
  -3  -3  -3   53.72    2.86
  -3  -3  -3   52.70    3.93
   3  -3   3   54.31    2.89
   3  -3   3   51.60    3.92
   3  -3   3   54.03    3.07
   3   3   3   56.39    2.19
  -3  -3   3   51.16    2.73
  -3   3  -3   53.70    2.60
   3   3   3   55.21    2.58
  -3   3  -3   57.03    2.54
  -3   3  -3   57.22    2.67
   3  -3  -3   54.30    2.58
  -3  -3   3   57.20    3.00
  -3   3  -3   50.07    4.53
   3   3   3   47.51    3.71
   3  -3  -3   53.48    2.68
  -3  -3   3   56.76    3.71
  -3   3  -3   54.46    3.40
   3   3  -4    7.80    2.98
   3   3  -4    2.14    1.30
   3  -3   4    4.29    1.86
  -3   3   4    5.28    2.49
  -3  -3  -4    3.44    1.05
  -3  -3  -4    5.75    1.10
   3   3  -4    1.76    1.11
   3   3  -4    7.57    1.96
   3  -3   4    2.96    2.33
  -3   3   4    4.35    1.82
   3   3   4    4.56    1.39
  -3   3  -4    5.09    1.37
  -3   3  -4    4.36    1.24
   3  -3  -4    3.01    1.18
   3  -3  -4    4.97    1.26
   3   3   4    7.95    2.57
  -3  -3   4    7.61    2.58
  -3  -3   4    5.03    1.62
   3   3   4    4.01    1.47
  -3   3  -4    4.49    2.05
   3  -3  -4    4.91    1.66
  -3   3  -4    5.08    1.25
   3  -3   5   47.55    3.99
  -3   3   5   39.13    3.97
   3   3  -5   54.01    6.26
  -3   3   5   41.08    5.26
   3   3  -5   46.45    3.43
   3  -3   5   49.65    5.22
   3   3  -5   34.77    4.16
   3   3  -5   44.78    3.03
  -3  -3  -5   46.11    2.92
  -3  -3  -5   46.92    2.53
  -3   3  -5   45.54    3.37
  -3   3  -5   45.53    3.02
   3   3   5   50.12    3.24
  -3  -3   5   49.52    5.30
   3  -3  -5   51.14    3.06
  -3   3  -5   45.23    3.13
   3   3   5   43.03    5.00
   3  -3  -5   55.02    3.27
   3   3   5   45.80    3.73
  -3  -3   5   39.48    3.49
  -3   3   6   12.36    3.09
   3   3  -6   15.01    2.71
  -3  -3  -6   12.14    2.33
   3   3  -6   17.02    4.17
  -3  -3  -6   17.37    2.22
   3  -3   6    9.08    4.36
   3   3  -6   19.27    2.88
   3  -3   6   13.94    3.90
  -3   3   6   15.77    4.57
  -3   3  -6   21.02    2.87
  -3  -3   6   16.46    3.47
  -3  -3   6   15.09    4.88
   3   3   6   12.24    4.54
  -3   3  -6   15.10    2.49
   3  -3  -6   19.01    2.82
  -3   3  -6   17.72    3.00
   3  -3  -6   17.34    2.65
   3   3   6   20.10    3.50
   3   3   6   25.11    3.49
   3  -3   7   19.08    4.00
   3   3  -7   18.16    3.08
  -3   3   7   16.07    4.10
  -3  -3  -7   17.63    2.84
   3   3  -7   18.98    3.49
   3  -3   7   21.31    5.77
  -3   3   7   15.61    6.10
  -3  -3  -7   23.61    2.83
  -3  -3   7   19.77    4.22
  -3  -3   7   24.68    6.49
  -3   3  -7   14.70    3.12
   3  -3  -7   19.36    3.21
   3  -3  -7   18.18    3.02
   3   3   7   12.08    5.54
   3   3   7   18.94    4.21
  -3   3  -7   20.90    3.81
  -3   3  -7   21.75    3.31
  -4   3   0   17.57    1.72
   4  -3   0   16.14    1.35
   4  -3   0   15.54    1.46
   4   3   0   15.81    0.96
  -4   3   0   22.40    2.64
  -4  -3   0   19.31    1.25
   4  -3   0   16.28    2.03
   4  -3   0   18.61    1.56
  -4   3   0   14.97    1.30
  -4   3   0   15.66    1.26
  -4  -3  -1    7.28    1.22
   4  -3   1    4.13    1.10
  -4   3   1    5.20    1.00
   4  -3   1    5.15    1.07
  -4   3   1    7.10    1.36
   4  -3   1    6.44    1.69
   4   3  -1    4.91    1.00
   4   3  -1    5.03    0.77
   4  -3   1    4.94    1.07
  -4   3   1    4.71    1.68
   4  -3  -1    5.13    1.00
  -4   3  -1    4.83    0.89
   4   3   1    5.09    0.77
  -4   3  -1    3.69    1.78
  -4   3  -1    5.18    0.92
   4  -3  -1    6.66    1.10
   4   3   1    6.56    0.94
   4   3   1    5.00    1.04
  -4   3  -1    5.26    1.24
   4  -3  -1    6.71    1.18
  -4  -3  -2   50.60    2.33
   4  -3   2   48.35    2.48
   4  -3   2   50.04    3.46
  -4   3   2   48.74    3.18
   4   3  -2   49.95    2.52
   4   3  -2   50.62    2.40
   4  -3   2   49.32    2.32
   4   3  -2   52.04    2.69
  -4   3   2   53.80    2.74
  -4   3   2   47.60    2.29
   4  -3   2   52.20    2.51
   4   3  -2   49.88    3.07
   4  -3   2   44.38    2.64
  -4  -3  -2   51.85    3.28
   4   3   2   48.88    2.31
   4   3   2   48.66    2.31
  -4  -3   2   50.80    2.23
  -4  -3   2   48.11    2.76
   4  -3  -2   52.27    2.49
   4   3   2   45.52    2.93
  -4   3  -2   50.02    2.27
  -4   3  -2   48.24    4.21
   4  -3  -2   51.78    2.50
  -4   3  -2   50.18    2.32
  -4   3  -2   51.20    2.92
   4   3   2   51.23    1.98
  -4  -3   2   48.12    2.89
   4  -3   3    5.91    2.39
   4  -3   3    6.28    1.35
   4   3  -3    4.92    1.34
  -4  -3  -3    8.42    2.49
  -4  -3  -3    5.01    0.97
  -4   3   3    7.16    2.37
  -4   3   3    6.47    1.28
   4  -3   3    4.45    1.42
   4  -3   3    4.60    1.67
   4   3  -3    5.73    1.52
   4   3  -3    5.75    1.49
  -4  -3  -3    9.50    1.53
  -4   3   3    6.85    1.84
  -4   3   3    5.46    1.62
   4   3  -3    9.64    2.38
  -4   3  -3    6.26    1.26
  -4   3  -3    4.43    1.33
   4   3   3    3.72    2.19
   4  -3  -3    4.37    1.12
   4  -3  -3    3.37    1.40
   4   3   3    7.28    1.15
  -4   3  -3    3.30    2.59
  -4  -3   3    8.71    1.94
  -4  -3   3    7.11    2.00
  -4   3  -3   11.48    2.18
   4   3   3    6.49    1.35
   4   3   3    6.86    1.51
   4   3  -4   10.23    2.37
   4  -3   4    7.59    2.67
   4   3  -4    9.55    3.28
   4   3  -4   10.00    1.70
  -4   3   4   11.69    2.51
   4   3  -4    8.18    1.82
  -4   3   4    9.26    2.92
   4  -3   4    8.77    2.43
  -4  -3  -4    7.90    1.29
   4   3   4    8.24    2.63
  -4  -3   4    8.39    1.72
   4   3   4   10.69    1.67
  -4   3  -4   11.64    1.83
   4  -3  -4    9.69    1.94
  -4   3  -4    7.44    2.39
   4  -3  -4    9.68    1.68
  -4   3  -4    6.06    1.38
  -4  -3   4    5.15    2.81
   4   3   4   10.90    2.02
  -4   3  -4    8.13    1.56
   4   3  -5    1.50    2.79
  -4  -3  -5    5.98    1.52
   4   3  -5    4.83    1.90
   4  -3   5    4.58    3.11
  -4   3   5    5.95    2.67
  -4   3   5    4.85    3.47
   4   3  -5    3.75    4.50
   4  -3   5    3.24    1.98
  -4  -3  -5    5.02    1.30
   4   3  -5    6.96    1.72
   4   3   5    2.92    2.77
   4  -3  -5    5.73    1.51
   4   3   5    3.28    2.22
  -4   3  -5    4.60    1.86
  -4   3  -5    6.20    1.80
  -4  -3   5    1.91    1.84
   4  -3  -5    4.69    1.83
   4   3   5    2.54    1.90
  -4   3  -5    3.72    1.43
  -4  -3   5    8.76    3.74
  -4   3   6   23.70    5.28
   4  -3   6   22.59    4.18
   4   3  -6   17.90    3.01
  -4  -3  -6   19.15    2.20
   4   3  -6   21.17    4.07
   4   3  -6   19.43    2.95
   4  -3   6   17.65    5.27
  -4   3   6   16.13    3.55
  -4  -3  -6   19.64    2.52
  -4   3  -6   19.70    2.85
   4  -3  -6   23.59    3.09
  -4   3  -6   16.20    2.71
  -4  -3   6   21.93    3.40
   4  -3  -6   14.53    2.55
  -4   3  -6   22.12    2.82
   4   3   6   23.58    4.90
  -4  -3   6   13.30    4.52
   4   3   6   19.74    3.38
   4   3  -7    3.28    2.48
  -4   3   7    5.65    3.73
  -4  -3  -7    4.15    2.47
  -4  -3  -7    8.04    2.35
   4   3  -7    9.86    3.04
  -4   3   7    7.25    5.34
   4  -3   7    8.34    5.39
   4  -3   7    6.40    3.84
  -4  -3   7    9.90    5.87
   4  -3  -7    5.62    2.83
   4  -3  -7    4.26    2.30
   4   3   7    7.42    3.48
  -4   3  -7    0.29    2.26
  -4   3  -7    5.00    2.68
   4   3   7    4.47    4.94
  -4   3  -7    5.87    2.94
  -4  -3   7    2.38    3.75
  -5   3   0   10.04    1.24
   5  -3   0    9.26    1.35
  -5  -3   0   13.27    1.40
   5  -3   0   13.02    1.52
  -5   3   0    9.89    1.49
   5  -3   0    8.39    1.55
   5  -3   0   10.61    2.03
  -5   3   0   11.15    2.34
   5   3   0    9.77    1.09
   5   3   0    7.32    0.92
   5  -3   1   61.69    2.72
  -5   3   1   64.02    2.73
   5  -3   1   63.59    3.76
   5   3  -1   56.73    2.93
   5  -3   1   61.52    2.74
   5  -3   1   66.67    3.15
  -5   3   1   63.57    3.25
  -5   3   1   73.50    4.16
  -5  -3  -1   65.41    3.00
  -5   3  -1   70.56    3.27
  -5   3  -1   64.05    2.63
   5   3   1   68.02    2.91
   5  -3  -1   62.93    2.82
   5   3   1   64.14    2.39
   5   3   1   64.32    2.66
  -5  -3   1   62.23    2.78
  -5   3  -1   62.51    2.77
  -5   3  -1   56.69    4.18
   5  -3  -1   63.30    2.99
   5  -3  -1   65.89    2.89
   5  -3   2   49.16    2.48
   5   3  -2   52.37    2.54
   5  -3   2   50.10    2.63
  -5   3   2   54.24    2.98
   5  -3   2   45.39    2.54
   5   3  -2   44.79    2.59
   5  -3   2   46.41    2.87
  -5  -3  -2   49.09    3.43
  -5  -3  -2   52.99    2.42
  -5   3   2   47.74    3.57
  -5   3  -2   50.46    3.10
  -5   3  -2   46.50    4.53
   5  -3  -2   48.47    2.64
   5   3   2   50.39    2.23
  -5  -3   2   50.68    3.08
   5   3   2   40.19    2.38
  -5   3  -2   48.40    2.33
   5  -3  -2   48.23    2.55
   5   3   2   55.71    3.16
  -5  -3   2   46.49    2.27
  -5  -3   2   45.10    2.89
   5   3   2   50.37    2.55
   5  -3   3   49.74    2.90
   5   3  -3   47.41    3.08
  -5   3   3   47.46    3.24
   5   3  -3   45.57    2.76
  -5   3   3   41.28    4.43
   5   3  -3   54.71    3.05
  -5   3   3   51.51    3.52
   5  -3   3   47.61    4.19
  -5   3   3   49.58    2.72
  -5  -3  -3   48.77    2.26
  -5  -3  -3   47.36    4.46
   5  -3   3   51.79    3.28
   5   3   3   41.98    2.77
   5   3   3   50.67    2.92
  -5   3  -3   50.75    3.76
   5  -3  -3   51.98    2.81
  -5   3  -3   48.00    2.59
   5   3   3   52.25    2.47
  -5  -3   3   45.48    3.65
  -5   3  -3   51.63    2.54
   5   3   3   43.60    3.98
  -5  -3   3   52.22    2.89
   5   3  -4   12.69    2.09
   5  -3   4   13.78    3.33
  -5  -3  -4   14.12    1.67
   5   3  -4   13.88    3.83
   5  -3   4   11.97    2.32
  -5   3   4   11.16    2.53
   5   3  -4    9.17    2.44
   5   3  -4    9.49    1.71
  -5   3   4   10.60    3.05
   5   3   4   13.62    1.95
  -5  -3   4   11.98    2.90
  -5   3  -4   12.19    1.84
   5  -3  -4   11.49    1.85
  -5   3  -4   13.69    1.89
  -5  -3   4   15.25    2.36
   5   3   4   17.84    3.32
   5   3   4   11.97    2.07
   5  -3   5   14.78    4.24
   5   3  -5   26.95    3.05
  -5   3   5   21.24    4.26
   5   3  -5   21.76    2.64
  -5  -3  -5   21.20    2.34
   5   3  -5   31.38    6.12
   5   3  -5   17.87    3.23
   5  -3   5   21.79    3.21
   5   3   5   22.31    2.99
  -5  -3   5   24.18    3.34
  -5  -3   5   23.21    4.67
   5  -3  -5   21.80    2.78
   5  -3  -5   23.10    2.67
  -5   3  -5   24.48    2.77
   5   3   5   23.08    4.14
  -5   3  -5   27.18    2.89
   5   3   5   27.68    2.85
   5   3  -6   34.37    5.63
   5  -3   6   29.07    5.72
   5  -3   6   40.04    5.02
   5   3  -6   32.24    3.45
  -5   3   6   27.77    5.94
  -5   3   6   38.99    4.95
  -5  -3  -6   24.19    2.82
   5   3  -6   30.33    3.74
   5  -3  -6   29.86    3.34
   5  -3  -6   30.94    3.66
   5   3   6   36.93    5.89
   5   3   6   32.91    4.16
  -5   3  -6   37.12    3.48
  -5   3  -6   32.18    3.59
  -5   3  -6   33.86    3.49
  -5  -3   6   25.49    5.41
  -5  -3   6   31.65    3.89
   6  -3   0  175.70    6.31
   6  -3   0  188.78    5.94
   6   3   0  197.60    5.63
   6   3   0  183.00    5.43
  -6  -3   0  189.54    5.88
  -6   3   0  188.22    5.85
   6   3   0  184.15    5.63
   6  -3   0  206.05    7.43
  -6   3   0  185.62    7.64
   6  -3   0  178.13    5.92
  -6   3   0  197.67    6.46
   6  -3   1    4.92    2.13
  -6   3   1    5.36    1.81
  -6   3   1    8.27    2.61
   6  -3   1    5.70    1.37
  -6   3   1    2.85    1.03
  -6  -3  -1    2.60    1.71
   6   3  -1    3.65    1.29
   6  -3   1    4.32    1.24
   6  -3   1    1.50    1.26
   6   3   1    6.27    1.37
  -6  -3   1    5.06    1.64
   6  -3  -1    3.51    1.16
   6   3   1    4.24    1.33
   6   3   1    5.28    0.91
  -6   3  -1    5.01    2.60
  -6  -3   1    2.15    1.21
   6   3   1    4.95    0.90
  -6   3  -1    5.97    1.15
   6  -3  -1    2.45    1.28
  -6   3  -1    4.84    1.24
  -6   3  -1    5.24    1.78
   6  -3  -1    3.43    1.17
   6  -3   2  127.84    4.91
  -6   3   2  126.47    6.15
   6   3  -2  137.42    5.28
  -6   3   2  133.10    4.86
   6  -3   2  128.38    4.69
  -6   3   2  135.48    5.44
  -6  -3  -2  129.14    4.45
   6  -3   2  143.44    4.77
   6  -3   2  136.00    6.44
  -6  -3  -2  138.70    5.70
   6   3   2  136.05    4.48
   6   3   2  137.93    4.79
  -6   3  -2  133.22    4.48
  -6   3  -2  135.21    7.05
  -6  -3   2  130.07    4.46
   6   3   2  134.46    5.46
   6  -3  -2  143.96    5.16
  -6  -3   2  133.89    5.21
  -6   3  -2  134.43    4.86
   6  -3   3    4.72    1.80
  -6   3   3    3.78    1.59
   6  -3   3    2.68    1.54
  -6   3   3    5.01    1.29
   6   3  -3    1.85    1.31
   6   3  -3    5.05    1.41
   6  -3   3    4.03    2.28
  -6   3   3    1.19    2.62
   6   3   3    3.81    1.45
  -6   3  -3    1.91    1.16
   6   3   3    3.21    2.17
   6  -3  -3    4.21    1.23
  -6   3  -3    3.12    1.12
  -6  -3   3    5.37    2.30
   6   3   3    3.17    1.36
  -6  -3   3    1.79    1.15
   6   3  -4  103.10    5.25
  -6   3   4   90.20    6.76
   6   3  -4   96.47    4.70
  -6  -3  -4   98.37    3.83
   6   3  -4   88.27    4.40
   6  -3   4   85.65    6.42
   6  -3   4   95.92    5.07
  -6   3   4   92.23    5.09
   6   3   4   97.11    4.12
  -6   3  -4   92.91    3.79
   6   3   4   87.81    5.87
   6   3   4   92.20    4.66
  -6   3  -4   91.90    4.22
   6  -3  -4   96.82    4.42
  -6  -3   4   87.04    5.97
   6  -3   5    5.20    2.77
   6  -3   5   -2.77    3.46
  -6   3   5    4.35    2.46
   6   3  -5    5.47    3.57
   6   3  -5    3.75    2.11
   6   3  -5    1.60    1.69
  -6   3   5    1.03    3.37
  -6  -3  -5    1.75    1.49
   6   3   5    2.52    1.93
   6  -3  -5    1.21    1.75
   6  -3  -5    1.11    2.17
  -6  -3   5    3.84    2.31
   6   3   5   -0.27    3.72
   6   3   5    1.08    2.40
  -6  -3   5    4.13    3.65
  -6   3  -5    4.01    1.75
  -6   3  -5    2.03    1.84
   6   3  -6   43.97    4.02
  -6   3   6   45.27    6.57
  -6   3   6   56.04    5.35
   6  -3   6   48.45    5.14
  -6  -3  -6   42.97    3.45
   6   3  -6   57.76    7.48
   6   3  -6   43.84    4.23
   6  -3   6   67.90    7.94
  -6  -3   6   47.82    6.62
   6   3   6   45.90    4.87
   6  -3  -6   56.58    4.56
   6   3   6   49.61    7.04
   6  -3  -6   43.47    3.95
  -6   3  -6   43.36    3.60
  -6   3  -6   47.54    3.81
  -6  -3   6   42.91    4.89
  -7   3   0   13.10    3.49
   7  -3   0   16.38    2.27
   7  -3   0   17.46    2.88
   7   3   0   18.28    1.76
   7   3   0   17.41    1.79
   7  -3   0   16.72    1.99
   7  -3   0   12.35    1.93
  -7   3   0   15.18    2.18
   7   3   0   17.33    1.77
  -7  -3   0   20.79    2.15
   7  -3   1   20.64    2.44
   7   3  -1   15.46    2.23
  -7  -3  -1   19.67    2.20
  -7   3   1   16.64    1.81
   7  -3   1   19.29    2.15
   7  -3   1   19.79    2.92
   7   3  -1   18.63    2.08
  -7   3   1   19.62    2.30
  -7  -3  -1   18.87    1.76
   7   3   1   16.92    2.11
  -7   3  -1   13.21    2.03
   7  -3  -1   12.50    2.05
  -7   3  -1   16.61    2.03
   7   3   1   18.44    1.57
   7   3   1   15.58    1.71
  -7  -3   1   15.79    2.00
   7   3   1   19.01    2.29
   7  -3  -1   15.90    1.99
  -7   3  -1   17.37    1.58
  -7  -3   1   18.65    2.11
   7  -3  -1   18.48    2.25
  -7   3   2    1.72    1.07
   7  -3   2    1.26    1.51
  -7  -3  -2    2.88    2.46
   7  -3   2    2.73    2.26
   7   3  -2    1.53    1.39
   7  -3   2    3.63    1.57
  -7  -3   2    0.07    2.11
   7   3   2    1.00    1.08
   7  -3  -2    0.17    1.36
   7   3   2   -1.13    1.78
  -7  -3   2    4.50    1.86
  -7   3  -2    0.15    0.89
  -7   3  -2    1.82    1.27
  -7  -3   2    2.48    1.30
   7   3   2   -0.38    1.35
   7  -3   3    9.24    2.13
   7   3  -3   15.08    2.24
   7  -3   3   13.34    3.32
  -7   3   3   14.17    2.33
   7  -3   3   15.86    2.26
  -7   3  -3   10.19    1.54
  -7  -3   3   15.27    2.79
  -7   3  -3   11.92    1.95
   7  -3  -3   11.72    2.08
   7   3   3   12.74    2.82
   7   3   3   13.06    1.98
  -7  -3   3   13.73    2.07
   7   3   3    8.90    1.65
   7   3  -4    6.86    2.09
   7  -3   4    0.78    3.05
  -7   3   4   13.12    2.94
  -7  -3  -4    5.11    1.85
   7  -3   4    6.81    2.19
  -7   3   4   10.20    3.55
   7   3  -4    7.31    1.83
   7   3   4    4.75    1.82
  -7   3  -4   10.22    1.72
  -7   3  -4    4.83    1.63
  -7  -3   4    9.37    3.27
   7   3   4   12.51    3.24
   7  -3  -4    8.66    1.97
  -7  -3   4   12.39    2.55
   7   3   4    8.93    2.30
   7   3  -5    6.46    2.06
  -7   3   5    3.58    2.72
   7  -3   5    3.66    2.35
  -7   3   5    7.21    4.01
  -7  -3  -5    3.70    1.85
   7  -3   5    7.45    3.95
   7   3  -5    5.54    2.21
  -7  -3   5    3.65    2.39
  -7   3  -5    5.55    1.91
  -7   3  -5    2.55    1.90
   7  -3  -5    6.80    2.30
   7   3   5    5.89    2.46
   7   3   5    2.94    3.71
  -7  -3   5    8.50    4.06
   7  -3  -5    3.49    2.03
  -7  -3  -6    4.01    2.24
   7  -3   6   -0.59    2.88
  -7   3   6    6.35    5.28
  -7   3   6   -0.51    2.80
   7  -3   6    2.36    5.10
   7   3  -6    0.10    2.44
   7   3  -6   -0.59    2.35
  -7   3  -6   -0.75    2.05
  -7  -3   6    4.56    5.09
  -7   3  -6    5.07    2.50
  -7  -3   6   -3.14    2.80
   7   3   6    2.45    5.12
   7   3   6    4.53    2.95
   7  -3  -6    4.93    2.27
   7  -3  -6    0.30    2.65
   8   3   0    1.52    1.15
   8  -3   0    2.83    1.71
   8   3   0    0.17    1.42
  -8   3   0    1.71    1.14
   8  -3   0   -1.63    1.81
   8  -3   0    1.74    1.46
  -8  -3   0   -0.70    2.12
   8   3   0   -1.29    1.36
   8   3  -1   10.64    1.86
  -8  -3  -1   20.30    3.05
   8  -3   1   13.87    2.33
   8   3  -1   13.36    2.19
   8  -3   1    9.52    2.85
   8  -3   1    7.96    1.98
  -8   3   1   11.44    1.69
   8   3   1   11.06    1.54
   8  -3  -1   10.19    2.02
   8   3   1   12.77    1.64
   8   3   1    9.49    2.13
  -8   3  -1   14.27    1.85
  -8  -3   1   11.58    1.38
  -8  -3   1   13.40    2.76
   8   3   1    9.78    2.27
  -8   3   2    8.10    1.71
   8  -3   2    8.64    2.05
   8  -3   2    5.47    2.68
   8  -3   2   11.50    2.14
   8   3  -2    7.81    2.07
  -8  -3   2    7.30    1.67
   8  -3  -2    8.27    2.21
   8   3   2    7.62    1.35
  -8   3  -2    6.52    1.33
  -8   3  -2    4.29    1.49
   8   3   2    8.92    2.52
  -8  -3   2    9.92    2.40
   8   3   2    7.19    1.99
   8  -3   3   11.54    2.43
   8   3  -3    7.96    1.94
   8  -3   3    6.72    2.32
   8  -3   3    8.10    3.16
  -8   3   3   11.26    2.35
  -8  -3   3    7.32    1.96
   8  -3  -3    9.74    2.05
  -8   3  -3    9.97    1.52
  -8   3  -3   11.17    1.97
   8   3   3    9.17    2.79
  -8  -3   3   12.27    2.77
   8   3   3    9.87    1.86
   8  -3   4    4.77    2.28
   8   3  -4   -0.89    1.72
   8  -3   4    2.20    3.29
   8   3  -4   -0.34    1.80
   8  -3   4    3.58    2.87
  -8   3   4    1.39    2.19
  -8   3   4   -0.09    3.35
   8   3   4   -0.04    1.62
  -8  -3   4   -2.18    2.13
  -8  -3   4    3.14    3.21
   8  -3  -4    3.44    1.96
  -8   3  -4    0.44    1.48
  -8   3  -4    2.93    1.83
   8   3   4   -3.82    2.97
   8  -3   5    8.55    4.25
   8  -3   5    5.91    2.72
   8   3  -5    6.62    2.39
  -8  -3  -5    2.94    2.11
  -8   3   5   10.70    4.78
   8   3  -5    7.87    2.53
  -8   3   5    9.89    3.17
  -8  -3   5    7.72    4.47
  -8   3  -5    7.15    2.18
   8   3   5    6.56    2.25
   8  -3  -5    6.43    2.39
   8   3   5    9.75    4.18
  -8   3  -5    7.79    2.48
  -9   3   0  159.19    5.65
   9  -3   0  160.17    7.35
   9  -3   0  155.57    6.40
   9   3   0  170.25    5.74
   9   3   0  152.60    5.70
   9   3   0  155.53    5.59
   9  -3   1    7.00    2.68
  -9   3   1    2.82    1.26
   9  -3   1    9.13    2.16
   9   3  -1    3.88    1.75
   9   3   1    6.79    2.21
   9   3   1    5.35    1.56
  -9  -3   1    5.82    1.36
  -9   3  -1    4.60    1.38
   9  -3  -1    6.17    1.84
   9   3   1    3.58    1.34
   9  -3   2   13.26    2.41
  -9   3   2   12.77    1.96
   9   3  -2    9.24    2.37
   9  -3   2   13.48    3.15
   9  -3   2   17.06    2.43
   9   3   2   12.72    1.97
  -9  -3   2   13.48    1.83
   9  -3  -2   10.16    2.16
  -9   3  -2   12.97    2.31
  -9   3  -2   15.24    2.05
  -9  -3   2   11.82    2.82
   9   3   2   14.72    2.85
   9  -3   3    2.15    2.58
   9  -3   3    4.97    3.57
   9   3  -3    3.48    2.08
   9  -3   3    1.19    2.21
  -9   3   3    4.19    2.27
   9   3   3    4.23    1.68
  -9  -3   3   -1.91    2.52
  -9   3  -3   -2.82    1.37
   9   3   3    1.40    2.59
  -9  -3   3    1.28    1.96
   9  -3  -3    4.26    2.03
  -9   3  -3   -1.00    1.60
   9   3  -4  104.33    5.51
   9  -3   4  103.79    6.12
  -9   3   4  101.73    8.00
  -9   3   4  102.25    5.86
   9  -3   4   98.77    7.59
   9  -3   4  106.62    5.90
   9   3  -4   96.37    5.75
  -9  -3   4   83.65    6.71
  -9  -3   4   92.18    5.10
   9  -3  -4  102.52    5.37
   9   3   4  100.12    5.43
  -9   3  -4  108.17    5.19
  -9   3  -4  106.54    4.37
   9   3   4  115.62    7.05
   9   3  -5    4.65    2.62
   9  -3   5   -0.97    2.60
   9   3  -5    2.86    2.88
  -9   3   5    0.93    3.53
   9  -3   5   10.75    5.07
  -9   3   5    4.31    4.64
  -9   3  -5    6.41    2.12
   9   3   5    0.52    3.95
  -9  -3   5    4.35    4.75
  -9   3  -5   -2.90    2.11
   9  -3  -5    0.43    2.09
   9   3   5    2.03    2.69
  -9  -3   5   -0.02    2.94
 -10   3   0   11.66    1.86
  10  -3   0   12.23    2.40
  10  -3   0    8.20    2.80
  10   3   0   12.09    1.85
 -10   3   1    6.57    1.64
  10   3  -1    5.07    2.45
  10  -3   1    0.73    2.70
  10   3   1    6.20    2.44
  10   3   1    7.22    1.71
  10   3   1    7.48    2.07
 -10   3  -1    2.25    1.56
  10  -3   2    9.41    3.48
  10   3  -2   16.52    2.93
  10  -3   2   13.73    2.61
 -10   3   2   18.17    2.77
  10   3   2   12.82    2.88
 -10   3  -2   19.45    2.24
  10   3   2   17.79    2.36
  10  -3  -2   15.61    3.16
 -10  -3   2   16.39    3.08
 -10   3   3    4.01    2.48
  10   3  -3    8.88    2.49
  10  -3   3    1.68    3.25
  10  -3   3    4.36    2.48
  10   3   3    4.06    1.84
 -10  -3   3    6.93    2.35
 -10  -3   3    6.15    3.08
  10   3   3    8.21    3.43
 -10   3  -3    4.55    1.77
 -10   3  -3    6.30    2.29
  10  -3  -3    3.91    2.27
 -10   3   4   10.15    4.77
  10  -3   4    4.15    4.18
  10  -3   4   10.12    3.81
  10   3  -4    7.01    2.82
  10  -3   4    4.55    3.30
 -10   3   4    9.43    3.05
 -10  -3   4    4.56    4.09
  10  -3  -4    8.89    2.59
 -10  -3   4    3.64    2.44
 -10   3  -4   11.79    2.66
 -10   3  -4    7.66    1.91
  10   3   4    9.47    3.90
  10   3   4    5.04    2.30
 -11   3   0   11.13    2.03
  11   3   0    7.78    1.96
  11  -3   0   12.91    3.37
  11  -3   0   12.08    2.82
  11  -3   1   12.46    3.51
  11  -3   1    7.65    2.47
  11   3  -1   13.01    3.14
 -11   3   1   10.67    2.10
  11  -3  -1    7.90    2.57
  11   3   1    8.30    2.02
  11   3   1   13.13    2.86
 -11   3  -1   12.62    2.17
  11   3   1   13.59    2.91
  11  -3   2    1.18    2.35
  11  -3   2    2.97    3.41
  11   3  -2    3.30    2.45
  11  -3  -2    1.38    2.14
 -11   3  -2    1.72    1.69
 -11  -3   2   -2.18    2.71
 -11  -3   2    0.45    1.90
  11   3   2   -3.64    2.74
  11   3   2    3.56    1.95
  11   3  -3   14.67    3.32
 -11   3   3   13.11    3.44
  11  -3   3   16.62    3.32
  11  -3   3   11.94    4.62
 -11  -3   3   10.14    2.60
 -11   3  -3   11.60    2.07
 -11  -3   3   13.28    4.08
  11   3   3   14.05    2.86
  11  -3  -3    7.52    2.92
  11   3   3   13.98    3.88
  11   3  -4    3.18    2.60
 -11   3   4    5.20    3.50
  11  -3   4    8.57    4.76
 -11   3   4    8.05    5.23
  11  -3   4    4.59    3.14
  11  -3  -4    4.78    2.68
  11   3   4    7.20    2.72
 -11   3  -4    9.61    1.96
 -11   3  -4    7.80    2.98
 -11  -3   4   -2.08    4.42
  11   3   4    2.14    4.50
 -12   3   0    0.21    1.94
  12   3   0   -2.32    2.36
  12  -3   0    5.57    3.38
  12  -3   0    2.90    2.14
 -12   3   1   -0.72    2.00
  12  -3   1   -1.55    3.33
  12   3  -1   -4.69    2.56
  12  -3   1   -0.86    2.34
  12  -3  -1   -3.71    2.30
  12   3   1    0.14    2.02
  12   3   1    2.17    2.78
 -12   3  -1    2.73    1.82
  12   3  -2   -0.12    2.87
  12  -3   2    5.97    4.00
  12  -3   2    2.45    2.69
  12   3   2    1.71    3.38
 -12   3  -2   -1.60    2.00
  12  -3  -2   -0.06    2.51
 -12  -3   2    1.02    3.32
  12   3   2    3.58    2.26
  12   3  -3    1.71    2.63
 -12   3   3   -3.02    3.35
  12  -3   3   -3.89    2.78
  12  -3   3   -0.21    4.28
  12  -3  -3   -1.42    2.71
  12   3   3    2.39    3.81
  12   3   3   -0.02    2.15
 -12   3  -3   -2.59    1.95
 -12  -3   3    7.10    4.29
  13  -3   0   99.13    6.57
 -13   3   0   83.45    4.99
  13  -3   0   89.19    6.84
  13   3   0   89.95    6.53
  13  -3   1   10.39    3.98
  13   3  -1    4.59    3.45
  13  -3   1   -0.45    2.64
  13   3   1    0.15    3.11
  13  -3  -1    5.02    3.29
 -13   3  -1    1.21    2.24
  13   3   1    1.43    2.42
   0  -4   0  122.93    3.73
   0  -4   0  128.35    3.37
   0   4   0  118.36    3.57
   0   4   0  117.12    3.64
   0   4   0  116.62    3.32
   0   4   0  118.83    4.00
   0  -4   0  114.34    3.83
   0   4   1    0.07    0.46
   0  -4  -1   -0.42    0.49
   0   4  -1   -0.08    0.60
   0  -4   1    0.09    0.60
   0   4  -1    0.50    0.52
   0  -4   1    0.23    0.80
   0   4   1    0.17    0.34
   0  -4   1   -0.02    0.84
   0   4  -1   -1.02    0.89
   0   4  -1    0.15    0.33
   0  -4  -1    0.05    0.26
   0   4  -1    0.71    0.51
   0  -4   1   -0.38    0.40
   0   4  -2   40.63    2.10
   0  -4   2   44.14    2.22
   0   4  -2   44.26    3.05
   0  -4  -2   44.16    1.83
   0   4   2   42.99    2.92
   0   4  -2   39.28    2.23
   0   4  -2   42.66    2.27
   0  -4   2   43.73    1.91
   0   4  -2   42.31    1.81
   0   4   2   44.15    2.28
   0   4   2   43.46    1.74
   0  -4   2   42.16    2.17
   0  -4  -2   43.08    1.72
   0   4   2   45.24    1.84
   0  -4   2   39.78    2.90
   0   4  -3    0.01    0.89
   0   4  -3   -0.61    0.62
   0   4  -3   -0.49    1.18
   0   4   3    2.63    1.56
   0  -4  -3   -0.48    0.80
   0   4  -3   -4.15    1.91
   0  -4   3   -1.34    1.55
   0  -4   3   -0.44    1.17
   0  -4  -3   -0.02    0.50
   0   4   3   -0.60    0.99
   0   4   3   -0.29    0.97
   0  -4   3    1.18    0.98
   0  -4   3   -2.39    0.94
   0   4   3   -0.99    0.61
   0  -4  -3    0.87    0.74
   0  -4  -4   65.91    2.57
   0   4   4   63.16    4.95
   0  -4  -4   65.87    3.03
   0   4   4   65.77    3.41
   0  -4   4   69.53    3.77
   0  -4  -4   66.72    2.82
   0   4  -4   67.83    4.07
   0   4  -4   63.23    3.28
   0   4  -4   64.10    5.31
   0   4  -4   68.91    3.16
   0   4   4   63.73    3.80
   0  -4   4   65.40    4.71
   0   4  -5    0.36    1.42
   0  -4  -5    0.24    1.53
   0  -4  -5    1.13    1.21
   0   4   5   -1.86    1.86
   0   4  -5    0.80    2.77
   0   4  -5    0.63    1.31
   0   4   5    2.68    2.71
   0  -4   5   -5.06    1.95
   0  -4  -5   -0.83    1.13
   0  -4   5   -1.43    2.65
   0  -4   6   23.97    3.53
   0  -4  -6   23.00    2.73
   0  -4  -6   24.58    2.74
   0   4   6   20.78    4.89
   0   4  -6   25.32    2.75
   0   4   6   27.04    3.99
   0   4  -6   10.71    4.42
   0  -4   6   34.91    5.41
   0   4  -6   22.25    2.90
   0   4  -7   -5.54    3.12
   0   4   7    4.17    4.99
   0  -4   7   -3.46    5.00
   0  -4   7   -0.45    3.25
   0   4  -7    1.94    2.61
   0   4   7    0.51    3.46
   0  -4  -7    1.98    2.14
   0   4  -7    0.28    2.27
   0  -4  -7    1.51    2.22
  -1   4   0  131.55    4.03
   1   4   0  135.25    3.96
   1  -4   0  131.42    4.04
   1   4   0  131.31    3.66
  -1  -4   0  132.58    4.04
  -1   4   0  133.98    3.73
   1  -4   0  131.93    3.73
   1   4   0  126.96    3.96
  -1  -4   0  140.71    3.77
   1   4   0  131.63    3.70
   1  -4   0  136.92    4.09
   1  -4   0  136.88    4.59
  -1   4   0  129.80    4.10
  -1   4   1   11.97    1.43
  -1   4   1   12.16    0.98
   1   4  -1   11.23    1.39
   1   4  -1   10.81    1.03
   1   4  -1   11.80    1.22
   1  -4   1   11.82    0.77
  -1  -4  -1   11.57    1.03
   1  -4   1   11.41    1.24
   1  -4   1   11.22    1.14
   1   4  -1   11.11    0.81
   1   4  -1   10.73    0.94
  -1   4   1   11.08    0.79
   1  -4   1   13.74    1.84
   1  -4   1   11.61    1.09
   1  -4  -1   12.79    1.07
  -1   4  -1   12.08    1.19
  -1  -4   1   12.90    0.97
  -1   4  -1   15.62    1.96
   1   4   1   10.10    0.72
   1  -4  -1   12.19    0.74
   1   4   1   11.81    0.84
  -1  -4   1   11.58    0.94
  -1   4  -1   11.60    0.74
  -1   4  -1    8.81    1.06
  -1  -4   1   12.12    1.17
   1  -4  -1   11.28    0.69
  -1   4  -1   12.02    0.98
  -1  -4   1   12.40    1.43
   1   4   1   11.32    1.36
  -1   4   2   95.74    3.08
   1  -4   2  101.47    3.15
   1   4  -2   86.98    3.37
   1  -4   2   94.21    3.37
   1  -4   2   88.42    4.29
   1   4  -2   89.31    3.05
  -1   4   2   92.01    3.09
  -1   4   2   90.77    4.38
  -1  -4  -2   91.64    2.94
   1   4  -2   91.40    4.11
   1   4  -2   93.21    3.41
   1  -4   2   89.73    3.50
  -1  -4  -2   97.72    2.91
   1  -4  -2   98.44    3.21
  -1   4  -2   93.53    3.03
   1  -4  -2   94.12    2.98
   1   4   2   95.29    4.10
  -1   4  -2   87.61    3.50
  -1   4  -2   92.54    4.40
  -1   4  -2   93.21    3.66
  -1   4  -2   87.01    3.28
  -1  -4   2   95.05    3.20
   1   4   2   93.01    2.82
  -1  -4   2   91.51    3.50
   1   4   2   97.84    3.02
   1   4   2   92.64    3.49
  -1  -4   2   88.75    3.96
  -1   4   3   13.52    2.37
   1   4  -3   11.62    1.44
   1   4  -3   12.62    1.54
  -1  -4  -3   12.41    1.24
   1   4  -3   11.12    1.79
   1  -4   3   10.98    1.46
   1  -4   3   17.25    2.71
  -1  -4  -3   15.04    2.69
  -1   4   3   12.07    1.28
  -1  -4  -3   13.05    1.29
  -1   4   3   15.02    1.89
   1   4  -3   16.31    2.72
  -1   4   3   15.78    1.64
   1  -4   3   14.99    2.07
   1  -4   3   14.51    1.86
   1  -4  -3   12.59    1.20
   1   4   3   14.96    1.59
  -1  -4   3   14.12    1.72
  -1  -4   3   14.60    2.38
  -1  -4   3   15.14    1.96
  -1  -4   3   12.45    1.70
   1  -4  -3   14.35    1.55
  -1   4  -3   16.63    2.03
   1  -4  -3   12.03    1.30
   1   4   3   13.21    1.82
   1   4   3   15.38    2.40
  -1   4  -3   12.77    1.45
  -1   4  -3   14.13    1.74
  -1   4  -3   12.11    1.30
  -1   4  -3   10.58    2.70
   1   4  -4   67.90    5.44
  -1  -4  -4   59.41    2.27
   1   4  -4   58.98    3.21
  -1   4   4   64.88    3.92
   1   4  -4   64.08    3.85
  -1   4   4   55.94    4.63
   1   4  -4   59.72    2.93
  -1   4   4   56.75    3.22
  -1  -4  -4   60.50    2.49
   1  -4   4   54.65    3.47
   1  -4   4   46.61    4.59
  -1  -4  -4   59.50    2.84
   1   4   4   57.31    3.44
  -1   4  -4   54.82    2.84
   1   4   4   61.64    3.18
  -1  -4   4   56.21    4.61
  -1   4  -4   56.44    3.01
   1  -4  -4   62.28    2.61
   1  -4  -4   63.34    2.94
   1  -4  -4   56.30    2.86
  -1  -4   4   55.80    3.39
  -1   4  -4   59.85    3.45
   1   4   4   53.92    4.59
  -1   4  -4   56.29    3.91
  -1   4  -4   59.09    5.81
  -1  -4  -5    3.32    1.38
  -1  -4  -5    3.98    1.26
   1  -4   5    3.66    3.29
  -1   4   5    6.17    2.27
   1   4  -5    2.55    2.36
   1   4  -5    5.54    1.73
   1  -4   5    4.53    1.98
   1   4  -5    2.87    1.34
  -1  -4  -5    4.16    1.48
  -1   4  -5    6.01    1.91
  -1   4  -5    1.34    1.39
   1  -4  -5    7.22    1.51
  -1   4  -5    7.23    2.82
   1  -4  -5    1.84    1.35
  -1   4  -5    5.39    1.47
   1   4   5    2.07    1.37
   1  -4  -5    5.35    1.93
  -1  -4   5    5.52    3.19
   1   4   5    0.23    2.83
  -1  -4   5    4.86    1.98
  -1  -4  -6   24.62    2.68
  -1   4   6   33.54    4.09
   1  -4   6   33.64    5.58
   1   4  -6   31.93    3.05
  -1  -4  -6   27.86    2.92
   1   4  -6   28.45    4.57
   1   4  -6   31.62    3.28
  -1   4   6   43.37    5.95
   1  -4   6   34.53    4.56
  -1  -4  -6   34.83    3.16
  -1   4  -6   28.67    3.24
  -1   4  -6   33.37    3.71
   1  -4  -6   34.88    3.08
  -1  -4   6   33.00    5.62
  -1  -4   6   41.86    4.88
   1   4   6   29.26    3.86
  -1   4  -6   30.83    2.99
   1   4   6   35.10    5.58
   1  -4  -6   31.87    3.00
   1  -4   7   11.92    5.43
  -1  -4  -7    7.82    2.14
   1  -4   7    9.72    3.47
  -1   4   7    7.06    3.75
  -1   4   7    1.75    4.90
  -1  -4  -7    9.06    2.31
   1   4  -7    4.72    2.35
   1   4  -7    4.81    2.57
  -1  -4   7    9.99    4.27
   1  -4  -7    9.63    2.60
  -1   4  -7    6.80    2.59
   1  -4  -7    7.36    2.30
   1   4   7    3.05    4.47
  -1   4  -7    9.96    3.14
  -1   4  -7    2.52    2.65
  -1  -4   7    3.93    5.72
   1   4   7    3.28    3.12
   2  -4   0  213.23    6.89
   2  -4   0  223.98    5.83
   2   4   0  209.13    5.99
  -2   4   0  217.39    6.26
  -2   4   0  207.22    6.04
   2   4   0  213.83    5.82
   2  -4   0  204.76    6.21
  -2   4   0  218.08    7.02
  -2   4   0  213.49    5.82
   2  -4   0  220.67    6.11
  -2   4   1  100.34    4.05
   2  -4   1   97.20    3.48
  -2  -4  -1  103.54    3.06
   2  -4   1  103.01    3.32
   2   4  -1   96.95    3.34
   2   4  -1   97.71    3.39
  -2   4   1  104.63    3.16
   2  -4   1   97.99    4.29
   2  -4   1  104.50    2.99
   2   4  -1  100.22    3.17
   2  -4   1   98.61    3.58
  -2   4   1  100.92    3.33
   2   4  -1   94.88    2.98
   2  -4  -1  104.19    3.04
   2   4   1  100.24    2.96
  -2   4  -1   95.89    3.40
   2  -4  -1  104.18    3.42
   2  -4  -1   95.32    2.98
  -2   4  -1   99.43    3.30
   2   4   1   96.55    2.92
   2   4   1  100.46    3.42
  -2  -4   1  103.14    3.31
   2   4   1   99.78    3.05
  -2   4  -1   97.46    4.33
  -2   4  -1  105.97    3.72
   2  -4   2   14.77    1.75
  -2   4   2   11.98    1.18
   2  -4   2   12.91    1.56
   2  -4   2   12.44    1.21
  -2  -4  -2   18.71    2.08
   2   4  -2   12.29    1.23
  -2   4   2   14.57    1.36
   2   4  -2   13.26    1.43
  -2  -4  -2   13.57    1.13
   2  -4   2   15.51    1.55
   2   4  -2   14.47    1.40
   2  -4   2   13.57    2.22
   2   4  -2   19.84    2.26
  -2  -4   2   13.94    1.72
   2   4   2   14.51    1.37
   2   4   2   13.99    1.18
  -2   4  -2   12.89    1.32
  -2   4  -2   13.66    1.14
  -2  -4   2   17.56    2.10
  -2   4  -2   13.60    1.41
  -2  -4   2   11.09    1.24
  -2  -4   2   13.04    1.45
   2   4   2   13.66    1.89
  -2   4  -2   15.54    2.45
   2  -4  -2   12.56    1.36
   2  -4  -2   13.33    1.15
  -2   4  -2   14.64    1.84
   2  -4   3   49.91    2.87
  -2   4   3   58.76    3.22
  -2   4   3   51.55    2.43
   2  -4   3   51.99    3.04
  -2  -4  -3   54.96    2.42
  -2  -4  -3   48.58    4.09
   2   4  -3   55.04    2.54
  -2   4   3   60.77    2.78
   2  -4   3   53.26    4.06
   2   4  -3   59.96    3.04
   2   4  -3   54.59    3.92
  -2  -4  -3   56.43    3.00
   2  -4   3   57.55    2.61
  -2  -4   3   50.82    3.12
   2   4   3   56.22    2.55
   2  -4  -3   52.70    2.45
  -2  -4   3   52.20    2.71
  -2   4  -3   62.39    4.56
  -2  -4   3   52.44    3.61
   2  -4  -3   51.88    2.53
  -2  -4   3   54.70    2.80
  -2   4  -3   56.47    2.49
  -2   4  -3   54.27    3.33
  -2   4  -3   55.84    2.84
  -2   4  -3   44.22    2.60
   2   4  -4   59.91    3.07
  -2   4   4   68.29    4.10
  -2  -4  -4   60.65    2.85
   2   4  -4   67.12    5.26
   2   4  -4   57.16    3.31
  -2   4   4   65.00    3.61
  -2  -4  -4   62.49    2.30
  -2   4   4   57.79    4.87
   2   4  -4   63.38    3.93
   2  -4   4   58.34    4.99
  -2   4  -4   68.57    4.12
  -2   4  -4   61.86    3.49
  -2   4  -4   61.32    3.17
  -2   4  -4   60.95    5.66
   2   4   4   56.32    4.56
   2   4   4   59.49    3.61
  -2   4  -4   62.36    2.99
   2  -4  -4   58.88    2.94
   2   4   4   62.48    2.67
  -2  -4   4   59.92    3.49
   2  -4  -4   59.31    3.08
   2  -4  -4   58.79    2.79
  -2  -4   4   66.34    4.69
   2   4  -5   39.66    5.46
  -2   4   5   46.72    3.90
   2   4  -5   41.13    2.79
   2  -4   5   33.33    3.56
   2  -4   5   41.78    5.34
  -2   4   5   38.86    4.78
   2   4  -5   43.52    4.27
  -2  -4  -5   38.60    2.79
   2   4  -5   36.88    2.98
  -2  -4  -5   37.83    2.23
  -2   4  -5   36.80    3.23
  -2   4  -5   40.17    3.00
   2   4   5   34.13    3.49
  -2   4  -5   35.51    2.67
  -2   4  -5   43.11    4.95
  -2  -4   5   39.50    5.21
   2   4   5   37.61    4.76
   2  -4  -5   38.50    2.80
   2  -4  -5   41.41    2.73
   2   4   5   41.10    2.96
  -2  -4   5   38.78    3.47
   2   4  -6    1.79    2.04
  -2  -4  -6   -0.93    1.45
  -2   4   6    1.79    2.41
   2   4  -6    0.77    1.72
   2  -4   6    3.50    3.99
  -2   4   6    3.79    4.01
   2   4  -6    0.76    3.63
  -2  -4  -6    0.28    1.53
   2  -4   6    1.81    2.39
  -2   4  -6    1.34    1.64
   2   4   6   -4.77    3.25
   2   4   6    2.90    2.68
   2  -4  -6    2.82    1.80
   2  -4  -6   -0.01    1.58
  -2  -4   6   -6.05    3.77
  -2  -4   6    3.11    2.66
  -2   4  -6   -2.31    2.19
  -2   4  -6    0.13    1.75
   2   4  -7   21.54    3.28
  -2   4   7   12.42    3.61
  -2   4   7   18.95    6.05
  -2  -4  -7   19.88    2.65
   2   4  -7   25.94    3.76
   2  -4   7   14.20    3.75
  -2  -4  -7   18.41    2.99
   2  -4   7   19.58    5.96
   2  -4  -7   19.42    3.07
  -2   4  -7   17.77    3.84
  -2  -4   7   16.17    6.27
  -2  -4   7   20.07    4.52
   2  -4  -7   24.56    3.10
  -2   4  -7   17.74    3.15
   2   4   7   21.09    4.05
   2   4   7    7.61    5.25
  -2   4  -7   16.92    3.01
  -3   4   0  190.77    6.77
  -3   4   0  187.86    5.46
   3  -4   0  200.28    5.45
   3  -4   0  188.90    5.91
  -3   4   0  186.80    5.58
  -3   4   0  193.09    5.95
   3  -4   0  192.68    5.66
   3  -4   0  182.53    6.57
  -3   4   1    5.22    1.14
   3   4  -1    3.56    0.87
   3   4  -1    3.87    0.64
   3   4  -1    4.14    0.86
   3  -4   1    3.86    0.80
   3  -4   1    4.00    1.05
   3  -4   1    5.59    1.17
   3  -4   1    4.04    0.73
  -3   4   1    4.85    0.85
   3  -4   1    4.72    1.51
  -3   4   1    3.89    1.62
   3   4  -1    4.92    1.06
  -3  -4  -1    3.27    0.95
  -3   4  -1    3.10    0.98
  -3   4  -1    3.51    0.91
  -3   4  -1    6.39    1.92
   3  -4  -1    4.94    0.97
   3  -4  -1    4.73    0.85
  -3   4  -1    4.68    0.93
   3  -4  -1    5.12    0.87
   3   4   1    3.67    0.60
   3   4   1    4.28    0.65
   3   4   1    4.36    0.89
  -3  -4   1    3.60    1.01
   3  -4   2   20.48    1.85
  -3  -4  -2   18.85    1.60
   3  -4   2   21.54    1.51
  -3   4   2   22.43    1.57
   3  -4   2   21.14    1.86
   3  -4   2   20.75    1.74
   3   4  -2   22.39    1.58
   3   4  -2   20.54    1.52
  -3   4   2   21.96    1.75
  -3  -4  -2   19.53    2.36
   3   4  -2   22.05    2.28
   3   4  -2   19.31    1.69
   3  -4   2   20.75    2.84
   3  -4  -2   21.09    1.73
   3   4   2   22.74    1.11
  -3  -4   2   21.89    1.88
  -3  -4   2   21.24    2.16
   3   4   2   20.40    2.12
  -3   4  -2   18.18    1.50
  -3   4  -2   21.08    2.11
   3   4   2   20.01    1.46
   3   4   2   21.14    1.49
  -3  -4   2   19.08    1.35
   3  -4  -2   22.34    1.51
  -3   4  -2   20.80    1.65
  -3   4  -2   24.83    3.42
   3  -4   3    1.99    1.38
  -3   4   3    0.99    1.29
  -3  -4  -3    1.47    1.34
  -3  -4  -3    2.10    0.83
   3  -4   3    2.02    1.27
  -3  -4  -3    4.88    2.25
  -3   4   3    1.53    0.97
  -3   4   3    4.62    1.34
   3  -4   3    1.92    1.16
   3   4  -3    2.05    0.97
   3   4  -3    1.60    1.10
  -3  -4  -3    2.74    0.71
   3   4  -3    2.39    1.27
   3   4  -3    2.27    1.99
  -3   4   3    1.55    2.09
   3  -4   3    0.95    1.94
   3   4   3    2.51    0.83
  -3   4  -3    1.70    1.09
  -3  -4   3    3.90    1.66
   3   4   3    3.77    1.10
  -3   4  -3    0.18    0.93
  -3   4  -3    1.66    0.86
  -3   4  -3    2.75    2.63
  -3  -4   3    0.97    1.42
  -3   4  -3    3.80    1.63
   3  -4  -3    1.77    1.15
   3   4   3    2.79    1.90
   3  -4  -3    2.16    0.93
   3   4   3    0.73    0.83
  -3  -4  -4   94.94    3.15
  -3   4   4   98.42    4.87
   3  -4   4   94.98    6.26
   3   4  -4   96.84    6.15
   3  -4   4   94.20    4.69
   3   4  -4  101.75    4.83
  -3   4   4  104.40    6.28
   3   4  -4   92.51    4.07
  -3  -4  -4   92.65    3.86
   3  -4  -4   90.98    3.86
  -3   4  -4   93.82    3.94
   3   4   4   98.87    4.58
  -3   4  -4  105.02    4.34
  -3   4  -4   92.13    4.08
   3   4   4   93.43    5.47
  -3  -4   4   97.98    4.43
   3   4   4   98.53    3.53
  -3   4  -4   97.84    5.04
   3  -4  -4   96.44    3.90
  -3  -4   4   87.90    5.61
   3   4  -5    0.60    2.52
  -3   4   5   -0.30    3.14
   3   4  -5   -0.81    1.69
  -3   4   5   -1.07    1.89
   3  -4   5    3.25    3.29
   3   4  -5   11.89    4.90
  -3  -4  -5    0.75    1.29
   3  -4   5   -3.90    2.18
   3   4  -5   -1.75    1.30
  -3  -4  -5    1.10    1.07
  -3   4  -5   -0.11    1.32
  -3   4  -5    0.14    1.69
  -3   4  -5   -1.59    1.21
   3  -4  -5    0.69    1.32
  -3  -4   5   -1.27    1.82
   3   4   5    3.64    1.75
  -3  -4   5   -5.38    3.22
   3   4   5   -1.43    1.82
   3   4   5   -2.02    2.51
   3  -4  -5   -1.17    1.68
  -3  -4  -6   12.54    2.22
  -3   4   6    3.67    2.73
   3  -4   6    7.59    2.61
  -3  -4  -6   11.98    2.02
  -3   4   6   18.54    4.48
   3   4  -6   13.21    2.29
   3   4  -6    9.47    4.18
   3   4  -6    8.80    2.17
   3  -4   6    9.03    4.65
  -3  -4   6   13.15    4.52
   3   4   6   12.77    2.85
   3  -4  -6   10.28    2.13
   3  -4  -6   11.87    2.43
  -3   4  -6    7.73    2.14
  -3   4  -6   12.83    2.87
  -3   4  -6   11.36    2.09
   3   4   6   10.99    2.89
  -3  -4   6   17.13    3.18
   3   4   6    9.01    3.98
   3  -4   7   -3.60    4.74
   3   4  -7   -1.26    2.09
  -3  -4  -7    1.62    2.00
  -3   4   7    1.42    2.88
   3  -4   7   -0.14    2.96
  -3   4   7   -4.42    4.90
   3   4  -7   -3.32    2.50
  -3  -4  -7    3.46    2.19
   3  -4  -7    0.16    2.22
  -3  -4   7   -3.49    5.46
  -3   4  -7    1.72    2.34
   3  -4  -7    5.51    2.58
   3   4   7   -0.90    3.37
  -3   4  -7    3.26    2.95
  -3  -4   7    4.52    3.79
   3   4   7   -2.05    4.52
  -3   4  -7   -0.92    2.26
  -4   4   0   29.07    2.93
   4  -4   0   26.09    1.70
  -4   4   0   24.94    1.60
   4  -4   0   29.02    1.85
  -4   4   0   25.15    1.65
   4  -4   0   28.30    2.64
  -4   4   0   28.45    2.11
   4  -4   0   26.48    1.97
   4  -4   1    1.06    1.45
  -4  -4  -1    1.22    0.92
   4   4  -1    1.44    0.80
   4  -4   1   -0.17    0.91
   4  -4   1    2.11    1.07
  -4   4   1    1.81    1.75
   4   4  -1    1.50    0.56
  -4   4   1    1.68    0.74
   4  -4   1    1.18    0.93
  -4   4   1    0.58    1.10
  -4   4  -1    1.26    0.74
   4   4   1    0.87    0.85
   4  -4  -1    0.48    0.82
  -4   4  -1   -1.37    1.86
   4   4   1    1.31    0.61
   4  -4  -1    1.20    0.80
  -4  -4   1    1.17    0.78
   4  -4  -1    2.67    0.96
  -4   4  -1    1.15    1.16
  -4   4  -1    0.49    0.71
   4  -4   2    4.53    1.34
  -4   4   2    3.07    0.85
  -4  -4  -2    1.57    0.99
   4  -4   2    2.49    1.20
   4   4  -2    4.01    1.06
   4   4  -2    1.58    0.86
   4  -4   2    4.00    1.06
  -4  -4  -2    3.20    1.50
   4  -4   2    2.69    1.15
  -4   4   2    0.06    1.87
  -4   4   2    1.50    1.15
   4  -4   2    4.30    1.81
   4   4  -2    2.53    1.05
   4   4  -2    4.29    1.48
   4   4   2    4.02    1.37
  -4   4  -2    0.47    2.47
   4  -4  -2    3.51    0.97
  -4   4  -2    2.21    0.96
  -4   4  -2    0.72    1.04
   4  -4  -2    4.33    1.26
  -4  -4   2   -0.08    1.35
  -4  -4   2    2.91    1.28
   4   4   2    3.00    0.70
   4   4   2    3.27    0.84
   4   4   2    1.58    0.99
  -4  -4   2    1.73    0.91
  -4   4   3    0.55    0.96
   4  -4   3    2.01    1.18
  -4  -4  -3    1.22    0.81
   4  -4   3   -0.01    1.08
  -4   4   3   -2.08    1.57
  -4  -4  -3   -0.50    2.26
   4   4  -3    0.52    0.99
   4  -4   3    1.23    2.18
  -4  -4  -3    0.49    1.17
   4   4  -3    1.06    1.20
   4  -4   3    0.08    1.37
   4   4  -3    1.16    1.20
   4  -4   3    0.04    1.65
   4   4  -3    3.68    2.35
  -4   4   3   -2.48    2.00
  -4   4   3   -0.01    1.19
  -4  -4   3   -4.29    1.68
  -4  -4   3    0.70    1.18
  -4   4  -3    2.40    0.99
  -4   4  -3    0.05    1.77
   4  -4  -3   -0.70    0.86
  -4  -4   3   -0.27    1.67
   4  -4  -3    1.12    1.36
   4   4   3    0.38    0.99
  -4   4  -3    5.99    2.98
   4   4   3    0.53    0.88
   4   4   3    0.72    1.24
   4   4   3    1.63    1.73
  -4   4  -3    0.99    1.07
  -4   4   4    9.45    3.35
  -4  -4  -4    9.99    1.25
   4   4  -4    9.03    1.78
   4  -4   4   16.96    3.41
   4  -4   4    9.71    1.90
   4   4  -4    7.72    2.27
  -4   4   4    9.62    2.27
   4   4  -4   10.16    1.96
   4   4  -4   12.60    3.76
  -4   4  -4   14.06    3.01
  -4   4  -4   13.82    2.08
   4  -4  -4   12.41    1.83
  -4   4  -4    9.06    1.58
  -4  -4   4    9.77    2.78
   4   4   4    9.75    2.85
   4   4   4   10.75    1.93
   4   4   4   13.18    1.70
  -4  -4   4   14.00    2.21
  -4   4  -4   12.62    1.84
  -4   4   5    2.08    3.03
  -4  -4  -5    0.19    1.27
   4   4  -5   -0.17    1.79
   4   4  -5    1.03    1.48
   4  -4   5   -0.19    2.02
   4   4  -5   -1.02    2.40
   4  -4   5   -1.32    3.25
  -4   4   5    2.60    1.99
   4   4  -5    9.14    5.08
  -4  -4  -5    0.36    1.26
   4  -4  -5   -1.03    1.31
   4  -4  -5   -0.19    1.72
  -4  -4   5    3.04    3.75
  -4   4  -5   -2.83    1.27
   4   4   5   -1.15    1.82
  -4   4  -5    1.01    1.79
  -4  -4   5    0.79    1.97
  -4   4  -5   -1.55    1.54
   4   4   5    0.44    1.72
   4   4   5   -0.28    2.66
  -4  -4  -6   -2.58    1.70
  -4   4   6    5.77    4.35
   4   4  -6    0.10    2.19
  -4  -4  -6   -1.42    1.65
   4  -4   6    2.00    2.64
  -4   4   6   -2.41    2.48
   4   4  -6    3.96    4.20
   4  -4   6   -2.12    3.94
   4   4  -6    1.31    1.87
  -4  -4   6   -0.91    2.81
  -4   4  -6    2.07    1.84
   4  -4  -6   -1.15    1.95
  -4  -4   6   -0.33    4.38
   4   4   6   -1.44    3.72
   4   4   6   -6.70    3.00
  -4   4  -6    2.43    2.23
  -4   4  -6   -5.47    1.88
   4   4   6   -2.16    2.18
   4  -4  -6   -0.83    1.71
  -5   4   0   19.18    1.62
   5  -4   0   25.34    1.87
  -5   4   0   23.39    2.23
   5  -4   0   20.05    2.02
  -5   4   0   23.77    3.30
   5  -4   0   23.01    2.72
   5  -4   0   23.56    1.94
  -5   4   0   24.74    1.76
   5  -4   1   66.92    3.04
   5  -4   1   68.93    3.06
  -5   4   1   67.92    3.53
   5  -4   1   68.62    3.39
   5  -4   1   61.93    4.04
  -5   4   1   76.11    4.76
   5   4  -1   65.79    3.14
  -5  -4  -1   71.96    2.84
   5   4   1   67.02    2.41
   5  -4  -1   69.35    3.11
   5  -4  -1   69.16    2.95
   5   4   1   69.85    2.85
  -5   4  -1   69.20    2.87
   5  -4  -1   69.19    3.10
  -5   4  -1   65.40    2.92
  -5  -4   1   66.11    2.70
  -5  -4   1   69.69    2.68
  -5   4  -1   71.14    4.89
  -5   4  -1   68.13    3.46
   5  -4  -1   72.67    3.71
  -5   4   2  130.08    4.80
  -5  -4  -2  136.53    4.34
   5  -4   2  136.02    6.51
  -5   4   2  125.67    6.22
   5  -4   2  137.96    4.89
   5   4  -2  135.25    4.55
   5  -4   2  138.07    4.59
   5   4  -2  141.52    5.34
  -5   4   2  138.04    5.34
   5   4  -2  143.94    5.03
  -5  -4  -2  142.82    5.31
   5  -4   2  134.48    5.35
   5  -4   2  137.75    4.94
  -5   4  -2  137.36    4.69
  -5   4  -2  133.97    4.88
   5   4   2  139.72    4.67
  -5  -4   2  138.51    4.29
  -5  -4   2  134.44    5.27
   5   4   2  142.85    4.27
   5   4   2  135.13    5.19
  -5   4  -2  135.43    7.02
   5  -4  -2  140.63    4.81
  -5  -4   2  135.89    5.20
  -5   4  -2  140.60    5.48
   5  -4  -2  141.35    4.99
   5   4   2  145.09    4.68
  -5   4   3   61.48    3.75
   5  -4   3   63.28    4.95
   5  -4   3   61.65    3.58
  -5  -4  -3   49.22    4.41
  -5   4   3   59.68    3.59
   5  -4   3   61.44    3.39
   5   4  -3   64.53    4.49
  -5   4   3   56.53    4.55
   5   4  -3   55.55    3.10
  -5   4   3   61.31    3.11
   5   4  -3   53.18    3.39
   5   4  -3   61.40    3.27
   5   4   3   58.94    2.55
  -5  -4   3   55.70    3.97
  -5   4  -3   57.18    4.25
  -5  -4   3   56.34    2.97
   5   4   3   57.38    3.15
   5  -4  -3   59.13    3.10
  -5   4  -3   57.33    3.03
   5   4   3   58.64    4.16
  -5   4  -3   59.36    2.92
   5   4  -4    7.51    1.67
   5  -4   4    8.55    2.39
  -5  -4  -4   11.51    1.52
  -5   4   4    8.60    3.36
  -5   4   4    7.08    2.34
   5  -4   4   12.86    3.64
   5   4  -4   10.60    2.18
   5   4  -4   15.20    2.67
   5   4  -4   12.07    3.78
   5   4   4   11.07    2.10
  -5   4  -4   11.42    1.91
  -5   4  -4   10.95    1.80
   5  -4  -4    9.59    1.86
   5   4   4   10.93    1.72
   5   4   4   10.37    3.01
  -5  -4   4   10.64    2.91
   5   4  -5   37.09    6.15
  -5   4   5   32.21    3.85
   5  -4   5   28.97    3.92
   5  -4   5   23.62    4.96
  -5   4   5   19.66    4.73
   5   4  -5   29.90    3.05
   5   4  -5   42.36    4.63
   5   4  -5   32.30    3.20
  -5  -4  -5   29.04    2.34
  -5  -4   5   32.78    3.41
  -5   4  -5   33.71    2.95
   5  -4  -5   33.20    3.41
   5   4   5   30.40    5.01
   5  -4  -5   29.85    2.83
   5   4   5   36.17    3.62
  -5   4  -5   25.14    2.95
   5   4   5   35.55    3.25
  -5  -4   5   26.87    4.72
  -5   4   6   51.69    5.38
  -5   4   6   58.18    7.49
  -5  -4  -6   55.29    3.34
   5   4  -6   63.52    6.01
   5  -4   6   55.05    5.35
   5   4  -6   51.65    4.57
   5  -4   6   53.55    7.06
   5   4  -6   49.78    3.93
   5   4   6   57.21    7.05
   5   4   6   51.56    4.97
   5  -4  -6   56.51    4.01
  -5  -4   6   54.72    6.77
  -5   4  -6   59.26    4.39
   5   4   6   39.72    4.45
  -5   4  -6   58.12    4.16
  -5  -4   6   45.50    4.97
  -5   4  -6   59.55    4.21
   5  -4  -6   47.25    4.29
   6  -4   0    1.51    1.33
   6  -4   0   -2.20    1.10
  -6   4   0    0.05    1.38
  -6  -4   0    2.61    1.18
   6  -4   0    2.53    1.88
  -6   4   0    0.31    0.83
  -6   4   0    1.83    2.55
   6   4   0    1.04    0.70
   6  -4   1    7.21    2.26
  -6   4   1   10.69    3.19
   6  -4   1    8.61    1.60
  -6   4   1    7.77    1.28
  -6   4   1    4.64    1.87
   6  -4   1    4.63    1.36
   6   4  -1    6.89    1.52
   6  -4   1    9.65    1.62
  -6  -4  -1    5.40    1.47
  -6   4  -1   14.08    3.29
  -6  -4   1    5.76    1.24
  -6   4  -1    4.97    1.81
  -6  -4   1    7.41    1.59
   6   4   1    6.39    1.38
   6  -4  -1    7.31    1.56
  -6   4  -1    4.31    1.16
   6  -4  -1    4.42    1.31
  -6   4  -1    5.97    1.45
   6   4   1    5.28    1.06
   6   4   1    6.27    0.97
   6  -4  -1    4.53    1.78
   6  -4  -1    6.62    1.62
   6   4   1    4.08    1.40
   6  -4   2  152.06    7.18
  -6   4   2  156.49    5.59
   6   4  -2  159.33    5.94
   6  -4   2  181.32    6.43
  -6   4   2  164.58    6.37
  -6  -4  -2  170.72    6.17
   6  -4   2  170.44    5.70
   6  -4   2  161.73    5.43
  -6  -4  -2  154.30    4.93
  -6  -4   2  159.72    5.87
   6   4   2  157.46    5.28
  -6   4  -2  167.57    5.39
  -6  -4   2  169.44    5.03
   6   4   2  168.62    6.10
   6   4   2  162.46    5.12
  -6   4  -2  158.01    6.36
  -6   4  -2  163.46    5.70
   6  -4  -2  167.74    5.83
  -6  -4   2  160.52    4.87
   6   4  -3    6.97    1.64
  -6   4   3    7.75    1.55
   6  -4   3    6.47    2.04
   6  -4   3    8.22    2.07
   6   4  -3    5.21    1.57
   6  -4   3    7.88    3.14
  -6   4   3    4.84    1.82
   6   4  -3    6.80    1.82
   6   4   3    5.15    1.46
  -6   4  -3    8.01    1.61
   6  -4  -3    4.19    1.44
  -6  -4   3    3.54    1.45
   6   4   3    6.08    2.58
  -6  -4   3    8.32    2.39
   6   4   3    8.73    1.52
  -6   4  -3    4.06    1.31
   6   4  -4   -1.50    1.52
   6  -4   4   -1.36    2.83
   6   4  -4    1.56    2.15
  -6  -4  -4    0.31    1.29
  -6   4   4    0.24    2.79
   6   4  -4   -0.74    1.27
  -6   4   4    1.78    2.10
   6  -4   4   -1.19    1.80
  -6   4  -4   -0.03    1.30
   6  -4  -4    0.75    1.40
  -6   4  -4    0.58    1.66
  -6  -4   4    1.33    1.74
   6   4   4   -3.87    2.42
   6   4   4   -1.51    1.75
  -6  -4   4   -2.55    2.43
   6   4   4   -1.17    1.40
  -6   4   5   10.57    3.00
   6   4  -5   12.63    3.52
   6  -4   5    8.90    2.80
   6   4  -5    7.57    2.08
  -6   4   5   12.21    4.26
  -6  -4  -5    6.26    1.78
   6   4  -5    9.72    2.63
   6  -4   5   10.12    3.63
  -6   4  -5    4.28    1.91
  -6  -4   5    4.03    2.37
   6   4   5    8.34    2.37
  -6  -4   5    7.66    3.91
   6  -4  -5    3.07    2.01
   6  -4  -5   10.65    2.49
   6   4   5    1.81    3.40
  -6   4  -5    8.92    2.01
   6   4   5    6.77    2.68
   6   4  -6   65.91    4.90
   6   4  -6   58.83    4.52
   6  -4   6   65.56    8.21
  -6   4   6   69.54    8.35
   6  -4   6   57.02    5.69
  -6   4   6   59.25    5.85
  -6  -4  -6   72.28    3.68
  -6  -4   6   58.65    5.28
   6  -4  -6   71.98    4.55
  -6   4  -6   72.32    4.47
  -6  -4   6   70.34    7.72
   6   4   6   57.30    7.67
   6   4   6   67.45    5.33
  -6   4  -6   59.61    4.29
   6  -4  -6   60.02    4.78
   7  -4   0   57.60    3.34
   7  -4   0   58.02    4.36
   7  -4   0   59.44    3.59
  -7  -4   0   56.36    3.10
   7   4   0   60.47    2.54
  -7   4   0   56.16    2.88
  -7   4   0   62.68    3.86
   7   4   0   60.42    2.87
  -7  -4  -1    5.60    1.92
   7  -4   1    4.93    2.42
  -7   4   1    0.46    2.03
  -7   4   1    3.24    1.09
   7  -4   1    6.97    1.73
   7   4  -1    3.89    1.68
   7  -4   1    3.76    1.59
   7  -4  -1    1.32    1.88
   7   4   1    3.54    1.36
   7  -4  -1    3.09    1.63
  -7  -4   1    3.70    1.86
  -7   4  -1    5.52    1.37
   7   4   1    4.90    1.12
  -7   4  -1    3.04    1.39
   7   4   1    6.50    1.75
   7   4   1    4.27    1.17
  -7   4  -1    4.81    1.90
   7  -4   2   11.36    1.97
   7   4  -2    7.57    1.84
   7  -4   2   14.43    2.08
   7  -4   2    8.49    2.50
  -7  -4  -2   12.86    2.81
  -7   4   2   10.98    1.80
  -7  -4   2   10.74    2.44
  -7   4  -2    8.24    1.61
   7  -4  -2   11.35    1.87
   7   4   2   11.79    2.33
  -7  -4   2    9.05    1.97
  -7  -4   2   13.19    1.45
   7   4   2    8.25    1.46
  -7   4  -2   10.38    1.84
   7   4   2    7.57    1.70
   7   4  -3   -0.44    1.46
  -7   4   3    1.46    1.78
   7   4  -3    4.78    1.71
   7  -4   3   -0.16    1.79
   7  -4   3    4.64    2.72
   7  -4   3    4.24    2.21
  -7   4   3    1.32    1.33
  -7  -4   3    2.64    1.53
  -7   4  -3    2.77    1.39
   7   4   3    1.35    2.21
  -7  -4   3    0.24    2.01
   7   4   3    0.00    1.71
  -7   4  -3    2.65    1.42
   7  -4  -3    3.01    1.53
   7   4   3    0.93    1.27
   7  -4   4   26.15    4.77
   7  -4   4   34.90    3.82
   7   4  -4   30.49    2.95
   7   4  -4   36.96    3.47
  -7   4   4   35.26    4.12
  -7   4   4   25.56    4.80
   7   4   4   27.42    3.16
  -7  -4   4   26.35    3.22
  -7   4  -4   29.15    2.91
   7  -4  -4   34.09    3.03
   7   4   4   35.55    4.35
   7   4   4   33.24    3.23
  -7   4  -4   34.86    2.88
  -7  -4   4   37.62    4.72
   7   4  -5    1.74    2.29
   7  -4   5    5.52    4.14
  -7   4   5    3.72    3.85
   7   4  -5    5.43    2.24
  -7   4   5    1.34    3.10
   7   4  -5   -5.49    3.09
   7  -4   5    1.18    2.46
  -7  -4  -5    4.14    1.89
   7   4   5    1.23    3.69
  -7   4  -5    2.64    2.04
   7   4   5    0.05    2.33
  -7   4  -5    0.21    1.90
   7  -4  -5    2.98    2.05
  -7  -4   5    2.92    3.76
   7  -4   6    5.28    3.54
  -7  -4  -6    2.61    2.34
  -7   4   6   -1.31    3.18
   7   4  -6    4.64    2.55
  -7   4   6   -1.23    5.00
   7   4  -6    1.65    2.71
   7  -4   6   11.29    4.96
   7   4   6    3.72    4.87
  -7  -4   6    3.81    4.77
   7  -4  -6    4.54    2.35
  -7   4  -6    2.58    2.38
   7  -4  -6    5.56    3.00
  -7   4  -6   10.15    2.47
   7   4   6    3.55    2.62
   8  -4   0   19.90    2.73
   8  -4   0   13.57    2.95
  -8   4   0   17.27    2.13
   8   4   0   17.33    1.74
   8   4   0   18.58    2.18
  -8  -4   0   19.60    2.59
   8   4  -1   -1.22    1.77
   8  -4   1    1.40    1.71
  -8  -4  -1   -3.41    2.30
  -8   4   1   -0.35    1.10
   8  -4   1    1.69    2.20
   8   4  -1    2.45    1.62
   8  -4   1    2.46    1.82
   8   4   1    1.73    1.14
  -8   4  -1    0.22    1.10
   8   4   1   -0.10    1.77
  -8  -4   1    2.82    2.22
   8   4   1    1.83    1.30
   8  -4  -1    1.33    1.65
   8  -4  -1    0.64    1.78
   8   4   1    2.84    2.15
   8  -4   2    9.75    2.27
   8  -4   2    7.52    2.23
   8   4  -2    3.59    1.65
  -8   4   2    7.44    1.56
   8  -4   2    5.67    2.70
   8  -4  -2   11.74    2.15
   8   4   2    6.14    2.22
  -8  -4   2    6.26    2.15
   8   4   2    6.05    1.94
   8   4   2    5.48    1.33
  -8   4  -2    8.93    1.69
  -8  -4   2    8.14    1.49
  -8   4  -2    5.98    1.74
   8  -4   3    5.35    2.79
  -8   4   3   -0.31    1.28
   8  -4   3    2.96    2.06
   8   4  -3    1.45    1.64
  -8   4   3    4.56    2.13
   8  -4   3    0.50    2.45
  -8   4  -3    2.22    1.55
  -8  -4   3   -0.02    2.41
   8   4   3    0.93    1.43
   8  -4  -3    1.49    1.73
   8   4   3    2.02    2.11
  -8   4  -3    1.48    1.42
  -8  -4   3   -1.27    1.75
   8   4   3    1.47    2.20
  -8   4   4   23.81    4.95
   8  -4   4   20.01    4.69
   8   4  -4   14.95    2.48
   8  -4   4   24.81    3.77
  -8   4   4   19.13    3.75
   8   4  -4   16.70    2.97
  -8   4  -4   16.70    2.24
   8  -4  -4   15.34    2.38
  -8   4  -4   12.64    2.29
  -8  -4   4   14.67    3.76
   8   4   4   18.55    3.87
   8   4   4   13.83    2.49
  -8  -4   4   18.31    2.78
   8   4  -5    5.16    2.45
   8  -4   5   -0.17    2.92
   8  -4   5    3.02    4.36
   8   4  -5    0.63    2.07
  -8   4   5   -1.42    2.84
  -8   4   5    3.14    4.46
   8  -4  -5    4.60    2.13
   8   4   5    2.30    2.27
   8   4   5   -3.80    3.56
  -8   4  -5    5.84    2.10
  -8   4  -5    2.31    2.13
  -8  -4   5   -0.70    2.55
  -8  -4   5   -1.24    3.73
   9   4   0   15.36    1.80
   9   4   0   11.44    2.19
  -9  -4   0   13.73    2.93
   9  -4   0   12.36    2.24
   9  -4   0   15.27    2.97
  -9   4   0   13.78    1.95
  -9  -4  -1   29.32    3.94
   9  -4   1   26.92    4.10
   9   4  -1   31.69    3.32
  -9   4   1   32.92    2.60
   9  -4   1   31.67    3.31
   9  -4  -1   33.04    3.31
  -9  -4   1   22.94    3.45
   9   4   1   31.49    2.60
  -9   4  -1   27.89    2.39
   9   4   1   30.60    3.06
   9   4   1   27.51    2.26
   9   4  -2    6.23    2.28
   9  -4   2    6.45    2.36
   9  -4   2    2.07    2.81
  -9   4   2    4.91    1.53
   9  -4  -2    4.72    1.87
   9   4   2    5.59    1.53
   9   4   2    4.77    2.29
  -9  -4   2    6.56    2.27
  -9   4  -2    4.70    1.98
  -9   4  -2    4.55    1.46
   9   4  -3   22.04    3.07
  -9   4   3   26.58    3.74
   9  -4   3   20.57    2.97
   9  -4   3   21.43    4.07
  -9   4   3   23.83    2.68
   9   4   3   23.54    3.93
  -9  -4   3   21.19    3.40
  -9   4  -3   23.46    2.57
  -9   4  -3   24.32    2.72
  -9  -4   3   27.70    2.68
   9   4   3   26.03    2.95
   9  -4  -3   24.31    3.06
   9  -4   4    7.00    2.90
  -9   4   4   13.95    3.23
   9  -4   4    5.56    4.36
   9   4  -4    8.64    2.48
   9   4  -4    5.52    2.86
  -9   4   4    6.31    4.40
   9   4   4    9.32    3.40
  -9  -4   4    9.68    2.75
  -9   4  -4    7.80    2.26
  -9   4  -4    6.72    2.01
  -9  -4   4    7.53    3.58
   9  -4  -4    5.42    2.25
   9   4   4    6.49    2.46
  -9   4   5   21.78    5.63
   9   4  -5   17.88    3.72
  -9   4   5   19.30    4.47
   9  -4   5   24.30    4.19
   9  -4   5   24.64    6.52
   9   4  -5   21.48    3.50
  -9  -4   5   20.11    5.15
   9   4   5   17.64    3.33
   9   4   5   19.42    5.15
   9  -4  -5   19.89    3.12
  -9   4  -5   20.02    3.12
  -9   4  -5   20.73    2.64
  10  -4   0    1.21    2.03
  10  -4   0    3.01    2.53
  10   4   0    1.25    1.99
 -10   4   0    0.32    1.40
  10   4   0    0.82    1.27
  10  -4   1   20.67    3.93
 -10   4   1   19.78    2.55
  10  -4   1   18.87    2.95
  10   4  -1   17.40    2.92
  10  -4  -1   18.63    2.99
  10   4   1   25.01    2.93
 -10  -4   1   14.13    4.43
 -10   4  -1   18.15    2.33
  10   4   1   16.53    2.88
  10   4   1   22.69    2.25
 -10   4   2   31.18    2.94
  10  -4   2   25.84    4.64
  10   4  -2   26.15    3.61
  10  -4   2   27.44    3.79
  10  -4  -2   29.78    3.43
  10   4   2   27.86    3.53
 -10  -4   2   37.54    3.95
  10   4   2   30.15    2.89
 -10   4  -2   24.92    2.73
  10  -4   3   13.35    4.31
 -10   4   3   11.69    2.89
  10   4  -3   15.69    3.09
  10  -4   3   15.78    2.78
 -10   4  -3   15.01    2.21
 -10  -4   3   19.29    2.69
 -10   4  -3   19.13    2.98
  10   4   3   14.78    3.47
  10  -4  -3   20.58    2.92
 -10  -4   3   15.27    3.49
  10  -4   4    4.48    3.31
 -10   4   4    1.83    4.51
  10  -4   4   -0.83    4.08
  10   4  -4    2.47    2.91
  10   4  -4   -1.53    2.16
 -10   4   4   -1.15    3.10
 -10   4  -4   -0.49    1.87
  10  -4  -4    1.32    2.32
  10   4   4    3.04    3.89
 -10  -4   4    3.42    3.93
  10   4   4   -0.36    2.35
 -10   4  -4   -0.42    2.33
 -11   4   0   33.17    3.01
  11  -4   0   31.80    4.72
  11  -4   0   27.97    3.53
  11  -4   1   -2.03    3.07
  11   4  -1   -1.21    2.40
 -11   4   1   -1.09    1.70
  11  -4   1   -3.53    2.10
  11   4   1    7.12    2.51
  11   4   1    1.92    2.32
  11  -4  -1    1.20    2.48
  11   4   1    1.15    1.80
 -11  -4   1   -0.77    2.74
 -11   4  -1    0.42    1.58
  11  -4   2   43.60    5.78
  11   4  -2   39.16    4.46
  11  -4   2   41.75    4.48
 -11   4   2   34.78    3.38
  11  -4  -2   38.88    4.12
  11   4   2   44.55    4.77
 -11   4  -2   42.01    3.20
  11   4   2   40.39    3.33
 -11  -4   2   43.39    4.68
  11   4  -3   -0.60    2.56
  11  -4   3   -5.07    2.50
  11  -4   3    4.57    4.44
 -11   4   3    0.60    3.29
  11   4   3    0.39    2.29
 -11   4  -3    1.30    1.83
  11  -4  -3    3.31    2.47
  11   4   3    4.66    3.37
 -11  -4   3    1.52    3.22
 -11   4  -3   -1.34    2.54
  11  -4   4   27.94    4.63
  11  -4   4   17.27    5.43
 -11   4   4   25.41    4.94
  11   4  -4   25.13    4.06
  11   4  -4   24.40    3.84
 -11   4   4   24.05    6.16
 -11  -4   4   29.73    5.05
  11   4   4   28.88    5.33
 -11   4  -4   24.75    2.89
  11  -4  -4   20.22    3.63
 -11   4  -4   20.37    3.97
  11   4   4   23.57    3.28
 -12   4   0    5.18    1.94
  12  -4   0    7.76    3.68
  12  -4   0    5.42    2.68
  12   4   0    8.22    2.89
  12  -4   1    9.49    4.06
 -12   4   1   11.47    2.48
  12   4  -1   13.23    3.35
  12  -4   1   10.50    2.99
 -12  -4   1   11.54    3.48
  12   4   1    8.74    2.26
 -12   4  -1   14.41    2.51
  12  -4  -1    9.47    3.32
  12   4   1    9.36    2.81
  12  -4   2   18.63    5.29
  12  -4   2   21.97    3.76
  12   4  -2   14.97    3.54
 -12   4  -2   14.88    2.54
  12   4   2   18.33    3.90
  12  -4  -2   16.28    3.31
  12   4   2   14.77    2.78
 -12  -4   2   16.82    3.62
  12   4  -3   14.93    3.87
  12  -4   3   10.81    3.51
 -12   4   3   13.43    3.99
  12  -4   3   22.98    5.37
  12   4   3    8.52    2.79
  12  -4  -3   10.05    3.27
 -12   4  -3   13.77    2.60
  12   4   3   18.26    4.36
 -12  -4   3    3.73    3.80
  13  -4   0   -1.07    2.94
  13   4   0   -1.78    3.21
  13  -4   0    1.53    3.72
 -13   4   0    3.93    2.35
  13  -4   1   10.69    3.06
  13   4  -1    6.96    3.47
  13  -4   1   15.38    4.93
 -13   4   1   14.58    2.70
  13   4   1   16.69    3.35
 -13   4  -1   10.97    2.67
  13  -4  -1   14.08    3.52
  13   4   1    9.97    2.52
   0   5   0   -0.51    0.48
   0   5   0    0.04    0.44
   0  -5   0    1.05    0.84
   0  -5   0    0.56    0.54
   0  -5   0    0.21    0.83
   0   5   0   -0.24    0.57
   0   5   0   -0.80    0.91
   0   5  -1   25.35    1.56
   0   5  -1   24.53    1.46
   0   5  -1   25.96    1.72
   0   5  -1   25.04    1.06
   0  -5   1   26.99    2.16
   0  -5   1   25.38    1.88
   0  -5   1   26.84    1.60
   0   5   1   25.08    1.42
   0   5   1   26.69    1.83
   0  -5  -1   27.33    1.58
   0   5  -1   28.56    2.22
   0  -5   2    0.13    0.93
   0  -5  -2   -0.05    0.77
   0   5  -2   -0.79    1.48
   0   5  -2   -0.10    0.70
   0  -5   2   -0.13    0.75
   0   5   2   -1.21    1.19
   0  -5   2   -1.02    0.71
   0   5  -2   -0.48    0.80
   0   5   2   -0.53    0.64
   0  -5  -2   -0.88    0.44
   0  -5   2   -1.02    1.27
   0   5  -2   -2.27    0.93
   0   5  -2   -0.66    0.50
   0   5   2    0.57    0.63
   0   5   2    0.06    0.86
   0   5  -3   33.79    2.28
   0   5  -3   34.87    2.71
   0   5   3   29.86    3.30
   0   5  -3   36.29    3.71
   0   5   3   33.55    1.77
   0  -5   3   35.17    2.55
   0   5  -3   25.98    2.40
   0  -5  -3   34.07    1.97
   0  -5   3   34.72    2.40
   0  -5   3   38.15    2.26
   0  -5  -3   35.04    1.82
   0   5   3   35.81    2.11
   0   5  -3   31.82    1.86
   0  -5   3   31.45    3.54
   0   5  -4   -0.30    3.15
   0   5  -4   -0.01    1.05
   0   5   4   -1.36    1.51
   0   5   4    0.70    2.22
   0   5  -4    0.58    1.27
   0  -5   4    2.00    1.31
   0   5  -4   -0.29    1.80
   0  -5   4   -1.58    2.17
   0  -5  -4   -0.20    1.25
   0   5  -4   -0.48    1.26
   0  -5  -4    0.31    1.00
   0   5   4   -0.93    1.19
   0  -5  -4   -0.81    0.76
   0   5   5   13.62    2.49
   0   5  -5   19.12    2.52
   0  -5   5   24.21    4.49
   0  -5  -5   16.45    1.64
   0   5  -5   15.19    2.05
   0   5  -5   19.95    3.02
   0   5   5   12.90    3.42
   0  -5  -5   16.06    2.34
   0  -5   5   16.95    3.03
   0   5  -5   14.53    2.89
   0  -5  -5   20.65    2.31
   0   5  -6    0.53    1.52
   0  -5  -6    1.20    1.65
   0   5   6    1.02    3.95
   0   5   6    0.18    2.52
   0  -5  -6    0.30    1.59
   0   5  -6    1.33    2.08
   0   5  -6   -2.99    2.39
   0   5  -6   11.36    4.58
   0  -5   6    0.65    2.55
   0  -5   6    2.44    4.10
   0  -5  -7   23.53    3.08
   0   5  -7   24.74    3.73
   0   5  -7   22.13    3.30
   0   5  -7   24.82    4.13
   0   5   7   17.29    5.70
   0  -5   7   19.61    6.46
   0   5   7   33.87    5.54
   0  -5  -7   29.24    3.02
   0  -5   7   33.63    5.53
  -1  -5   0    3.82    0.78
  -1   5   0    7.28    1.13
   1  -5   0    5.55    1.31
  -1   5   0    4.13    1.41
   1   5   0    3.83    0.61
   1  -5   0    4.46    0.85
   1  -5   0    6.30    1.14
   1   5   0    5.24    0.72
   1   5   0    5.68    0.98
  -1   5   0    5.36    0.75
  -1  -5   0    3.59    0.92
   1  -5   0    6.45    0.86
  -1  -5   0    4.79    1.03
   1   5   0    4.53    1.05
  -1   5   0    5.14    0.95
   1  -5   1   12.48    1.49
   1   5  -1   14.72    1.13
   1  -5   1   12.77    1.32
   1   5  -1   14.94    1.43
  -1   5   1   13.42    1.13
   1  -5   1   14.19    0.89
  -1   5   1   16.96    2.00
  -1   5   1   14.21    0.89
   1  -5   1   15.49    1.34
  -1   5   1   12.90    0.82
   1  -5   1   13.36    1.81
   1   5  -1   15.36    1.21
   1   5  -1   13.99    0.90
   1   5  -1   14.22    1.74
  -1  -5  -1   15.89    1.25
  -1   5  -1   14.47    1.38
  -1   5  -1   15.75    2.15
  -1  -5   1   13.81    1.36
  -1  -5   1   13.56    1.11
  -1   5  -1   12.78    1.30
   1  -5  -1   14.52    0.73
   1   5   1   14.42    1.06
   1   5   1   15.71    0.84
  -1  -5   1   14.61    1.09
  -1  -5   1   12.95    1.61
  -1   5  -1   14.70    0.81
  -1   5  -1   12.32    1.12
   1  -5  -1   12.79    1.27
  -1   5   2   12.86    1.25
   1  -5   2   11.46    1.45
   1   5  -2    9.11    1.34
   1   5  -2    9.43    1.39
  -1   5   2   11.40    1.13
  -1  -5  -2   10.67    0.96
   1   5  -2   11.52    1.06
   1   5  -2    7.72    1.86
  -1  -5  -2   11.62    1.17
   1  -5   2   12.38    1.45
   1  -5   2   11.09    2.05
   1   5  -2   12.39    1.48
   1  -5   2   10.54    1.16
  -1   5  -2   10.01    1.21
   1   5   2   11.94    1.35
  -1   5  -2   13.23    2.35
   1   5   2   10.55    0.97
   1   5   2   10.59    1.85
  -1  -5   2   10.94    1.89
  -1   5  -2   10.53    1.44
   1  -5  -2    8.33    0.92
  -1  -5   2   14.34    1.71
  -1   5  -2   10.42    1.01
  -1  -5   2   10.97    1.29
  -1   5  -2   10.08    1.69
   1  -5  -2   14.94    1.54
   1   5   2   10.22    1.11
  -1   5   3    9.26    1.29
   1  -5   3    9.46    2.40
  -1  -5  -3   12.35    1.30
   1  -5   3    8.19    1.68
  -1   5   3   10.75    1.74
  -1  -5  -3   12.24    1.38
   1   5  -3   10.82    2.61
   1  -5   3   11.36    1.49
   1   5  -3    7.87    1.48
  -1   5   3    8.01    2.46
  -1   5   3   12.85    1.63
   1  -5   3   11.01    1.88
   1   5  -3   10.13    1.25
   1   5  -3   11.02    1.74
   1   5   3   15.10    2.69
  -1   5  -3    9.30    1.49
   1   5   3   10.27    1.09
  -1  -5   3    8.45    1.46
   1   5   3   10.75    1.79
  -1   5  -3   11.13    1.30
  -1  -5   3   14.12    1.67
  -1  -5   3   12.19    1.93
  -1   5  -3   11.84    1.86
   1   5   3   11.76    1.44
   1  -5  -3    9.86    1.18
  -1   5  -3   14.39    1.98
  -1  -5   3   11.65    2.48
   1  -5  -3   10.90    1.59
  -1   5  -3    6.62    2.62
  -1  -5  -4    3.27    1.19
   1  -5   4    7.67    3.15
  -1   5   4   -0.82    2.32
   1  -5   4    2.82    1.34
  -1   5   4    6.02    1.79
  -1   5   4    1.88    1.57
   1   5  -4    2.43    1.37
   1   5  -4    3.16    1.17
   1   5  -4    3.65    3.09
   1   5  -4    1.27    1.45
  -1  -5  -4    3.80    1.27
   1  -5  -4    6.95    1.64
   1   5   4    0.65    1.54
   1   5   4    3.86    1.61
   1  -5  -4    3.84    1.02
  -1   5  -4    3.30    1.20
  -1   5  -4    0.37    2.07
  -1   5  -4    2.12    1.62
  -1  -5   4    4.23    2.53
  -1   5  -4    3.07    1.42
  -1  -5   4    1.61    1.40
   1  -5  -4    1.97    1.12
  -1   5  -4   -3.84    3.27
   1   5   4    2.40    2.14
  -1  -5  -5    5.21    1.69
  -1   5   5    4.02    1.56
  -1   5   5   -0.97    2.55
   1   5  -5    3.29    1.41
   1  -5   5    4.05    1.94
   1  -5   5    9.82    3.46
   1   5  -5    7.98    2.67
  -1  -5  -5    5.76    1.53
   1   5  -5    2.00    1.61
   1   5  -5    1.94    4.11
  -1   5  -5    6.23    1.99
  -1  -5   5    2.25    3.14
  -1  -5   5    5.50    2.07
   1  -5  -5    4.05    1.48
  -1   5  -5    8.85    2.02
   1   5   5    8.98    2.17
   1   5   5    4.28    2.89
   1  -5  -5    6.81    1.60
  -1   5  -5    3.34    1.56
   1  -5  -5    1.83    1.68
  -1   5  -5    1.18    2.70
  -1  -5  -6    1.83    1.50
   1  -5   6    3.01    3.89
  -1   5   6   -0.56    2.11
  -1   5   6    5.82    3.73
   1  -5   6   -2.38    2.36
  -1  -5  -6    1.05    1.62
   1   5  -6    4.57    2.15
  -1  -5  -6    4.33    2.32
   1   5  -6   -1.19    1.61
   1   5  -6    7.58    3.89
   1   5   6    3.92    4.05
  -1  -5   6    1.89    4.45
   1  -5  -6   -2.35    1.72
   1   5   6    6.93    2.64
  -1   5  -6    3.03    1.96
   1  -5  -6    1.67    1.60
  -1   5  -6    3.08    1.68
  -1  -5   6    2.23    2.75
  -1   5  -6    3.81    2.36
  -1  -5  -7    1.21    1.96
   1   5  -7    2.91    2.34
   1  -5   7    7.83    3.22
  -1   5   7   -0.83    4.79
   1  -5   7   -6.82    5.42
  -1   5   7    7.75    3.64
  -1  -5  -7    4.85    2.27
   1   5  -7    4.19    2.49
  -1  -5   7    7.18    5.47
   1   5   7    4.03    3.54
   1   5   7    2.85    4.69
  -1  -5   7    2.50    3.81
  -1   5  -7    2.42    3.19
  -1   5  -7    6.20    2.58
  -1   5  -7   -1.60    2.47
   1  -5  -7    7.64    2.17
   1  -5  -7    6.47    2.21
   2   5   0  619.67   15.70
   2   5   0  629.05   16.21
  -2   5   0  658.73   17.47
   2  -5   0  661.82   16.39
  -2   5   0  623.58   16.27
   2  -5   0  636.40   17.22
  -2   5   0  638.77   15.93
   2  -5   0  618.30   16.39
  -2   5   0  653.52   16.51
   2   5   0  613.37   15.78
   2  -5   0  661.24   15.91
   2   5   0  637.44   15.86
   2   5  -1    5.55    0.81
  -2   5   1    4.93    0.82
   2  -5   1    3.14    1.48
   2  -5   1    5.25    0.99
  -2   5   1    5.06    0.97
  -2  -5  -1    6.27    1.00
   2   5  -1    4.06    1.04
  -2   5   1    5.76    1.18
   2   5  -1    4.00    0.71
   2  -5   1    4.80    1.18
   2  -5   1    4.92    0.73
   2  -5   1    4.01    1.01
  -2   5   1    4.76    1.60
   2   5  -1    4.34    1.06
   2   5  -1    5.18    0.99
   2   5   1    5.15    0.79
   2  -5  -1    5.37    1.10
   2   5   1    5.48    1.07
  -2  -5   1    4.82    1.06
   2   5   1    5.23    0.70
  -2  -5   1    6.09    0.96
  -2   5  -1    5.33    1.03
  -2   5  -1    7.17    1.30
  -2   5  -1    6.42    1.87
  -2   5  -1    4.91    0.95
   2  -5  -1    4.15    0.63
   2  -5  -1    6.25    0.85
   2   5  -2   96.42    3.56
   2  -5   2   99.70    3.93
  -2   5   2   95.91    3.53
   2  -5   2  102.18    3.76
   2  -5   2   92.06    4.84
   2  -5   2  101.91    3.28
  -2   5   2  104.51    3.43
   2   5  -2   99.30    3.79
   2   5  -2  106.58    4.41
   2  -5   2   97.92    3.98
   2   5  -2   99.97    3.42
   2  -5  -2  100.85    3.24
   2   5   2   99.37    4.28
  -2   5  -2   98.39    3.66
   2   5   2  101.06    3.25
  -2  -5   2   95.70    4.19
   2  -5  -2  101.37    3.64
  -2   5  -2   95.47    5.07
  -2   5  -2  103.41    4.18
  -2  -5   2  102.63    3.41
  -2  -5   2   95.68    3.91
  -2   5  -2   99.30    3.27
   2   5   2  102.08    2.99
  -2   5  -2   99.22    3.85
  -2  -5   2  101.37    3.58
   2  -5  -2  104.63    3.18
   2   5   2   99.94    3.60
  -2  -5  -3    2.82    2.36
   2   5  -3    0.00    1.16
   2  -5   3    0.94    1.79
   2  -5   3   -0.66    1.02
  -2   5   3   -0.80    1.15
  -2  -5  -3    2.65    0.86
   2   5  -3    2.64    2.15
   2  -5   3    0.48    1.32
  -2   5   3    0.19    0.75
  -2   5   3    1.41    1.76
   2  -5   3    3.89    1.47
   2   5  -3   -1.29    1.16
  -2   5   3    1.58    1.19
   2   5  -3   -0.70    0.78
  -2  -5   3   -0.34    1.30
  -2   5  -3    1.58    1.56
  -2   5  -3    3.30    1.28
   2   5   3   -0.17    0.97
  -2  -5   3    0.08    1.51
   2  -5  -3    1.66    0.77
  -2  -5   3   -0.27    1.70
  -2   5  -3    1.31    2.55
  -2   5  -3   -0.13    0.77
   2  -5  -3   -0.60    1.17
   2   5   3   -0.63    1.90
  -2   5  -3   -1.15    0.90
   2   5   3    2.09    1.08
   2  -5   4  290.80   11.43
  -2   5   4  292.95   11.27
   2   5  -4  294.43   11.00
  -2   5   4  300.46    9.82
  -2  -5  -4  296.35    8.60
   2   5  -4  297.89    8.84
   2   5  -4  294.35    9.63
   2   5  -4  289.64    9.25
   2  -5   4  297.42    9.65
  -2   5   4  300.63    9.04
   2   5   4  309.81   10.91
  -2   5  -4  292.11    9.04
  -2   5  -4  303.52    9.88
   2  -5  -4  294.04    8.76
   2   5   4  292.21    9.58
   2  -5  -4  294.04    8.23
   2   5   4  256.91    8.66
  -2  -5   4  277.98   10.60
  -2   5  -4  295.78    9.22
  -2   5  -4  280.95   11.27
  -2  -5   4  297.92    9.27
  -2   5  -4  294.45    8.71
   2  -5  -4  302.29    8.65
   2   5  -5   -3.41    4.65
  -2  -5  -5    0.22    1.02
   2  -5   5    2.76    3.49
   2   5  -5    0.60    2.52
   2   5  -5    1.18    1.55
   2  -5   5    0.13    1.79
  -2  -5  -5    0.61    1.30
  -2   5   5    3.31    2.64
   2   5  -5    2.06    1.37
  -2   5   5    1.65    1.88
  -2  -5   5    4.41    2.16
  -2  -5   5    1.88    3.53
  -2   5  -5    1.47    1.35
  -2   5  -5    2.04    3.02
  -2   5  -5    0.55    1.52
  -2   5  -5   -0.03    1.94
   2   5   5   -0.86    2.65
   2   5   5    1.64    1.26
   2  -5  -5    0.46    1.47
   2  -5  -5    0.67    1.31
  -2  -5  -6   31.29    2.40
  -2   5   6   27.67    4.89
   2   5  -6   34.65    3.21
   2   5  -6   37.95    3.72
  -2  -5  -6   32.51    3.21
   2  -5   6   38.82    4.70
   2   5  -6   36.95    4.94
   2  -5   6   30.35    5.75
  -2   5   6   37.96    4.47
  -2   5  -6   36.34    3.29
   2  -5  -6   32.33    3.14
   2   5   6   36.98    5.84
  -2   5  -6   38.71    3.48
  -2   5  -6   35.08    3.95
  -2  -5   6   34.86    4.12
   2   5   6   34.39    4.16
   2  -5  -6   39.65    3.06
  -2  -5   6   29.38    5.92
   2   5  -7   -4.81    2.18
  -2  -5  -7    1.49    2.34
  -2   5   7   -2.07    5.03
   2  -5   7   -8.50    5.35
  -2  -5  -7   -3.09    2.03
   2   5  -7    0.44    2.54
  -2   5   7   -1.81    3.88
   2  -5   7   -0.20    3.01
  -2   5  -7   -3.21    2.55
  -2   5  -7   -2.26    2.23
   2  -5  -7   -1.25    2.16
  -2  -5   7    0.88    5.63
   2   5   7   -1.76    2.98
  -2   5  -7   -0.73    3.32
   2   5   7    1.11    4.74
   2  -5  -7   -0.32    2.29
  -3   5   0   43.47    2.49
  -3   5   0   38.15    2.05
   3  -5   0   38.86    3.01
   3  -5   0   38.42    2.25
   3  -5   0   42.48    1.95
   3  -5   0   40.85    2.20
  -3   5   0   40.42    3.22
  -3   5   0   40.82    1.91
   3   5   0   40.70    1.89
   3   5   0   39.30    2.03
  -3   5   1   17.79    1.44
   3  -5   1   18.26    1.80
   3   5  -1   16.40    1.41
   3  -5   1   16.48    1.58
   3  -5   1   16.31    2.36
  -3   5   1   16.98    1.86
   3   5  -1   16.74    1.49
   3  -5   1   17.75    1.17
   3   5  -1   16.55    1.06
  -3   5   1   21.52    2.70
   3  -5   1   17.15    1.66
   3   5  -1   15.09    1.31
   3   5   1   15.96    1.13
   3  -5  -1   15.73    1.21
   3   5   1   17.77    1.43
   3  -5  -1   15.23    1.62
   3  -5  -1   16.73    1.29
  -3  -5   1   16.96    1.40
  -3   5  -1   15.02    1.48
   3   5   1   16.10    1.12
  -3   5  -1   20.84    2.89
  -3   5  -1   14.75    1.28
  -3   5  -1   14.65    1.83
   3   5  -2   10.52    1.35
   3  -5   2    9.91    1.20
  -3   5   2   10.92    1.29
   3  -5   2   11.79    1.79
   3  -5   2   11.26    1.60
   3   5  -2   10.46    1.77
   3  -5   2   11.28    2.36
   3  -5   2   10.65    1.69
  -3  -5  -2   12.42    1.98
   3   5  -2    9.13    1.23
  -3   5   2   13.53    1.53
   3   5  -2   12.12    1.66
  -3   5   2   11.29    2.11
   3   5   2   10.65    1.28
   3  -5  -2   10.37    1.20
  -3   5  -2   11.88    1.41
  -3   5  -2   10.65    1.53
  -3  -5   2    9.50    1.48
   3  -5  -2   12.03    1.52
   3   5   2   10.72    1.90
  -3  -5   2   11.54    1.76
  -3   5  -2   12.32    2.03
   3   5   2   11.44    1.20
   3  -5  -2   13.95    1.42
  -3  -5   2   10.41    1.23
  -3   5  -2   14.02    3.02
   3   5  -3   18.63    2.78
   3  -5   3   13.76    2.93
  -3   5   3   17.99    3.12
   3   5  -3   15.06    2.04
   3   5  -3   15.31    2.01
  -3  -5  -3   18.91    2.89
   3  -5   3   15.90    1.85
  -3   5   3   23.08    2.33
  -3   5   3   16.74    2.45
  -3   5   3   19.08    1.76
  -3  -5   3   17.45    1.99
   3   5   3   16.41    1.90
  -3   5  -3   17.40    1.99
  -3  -5   3   14.58    2.57
  -3   5  -3   17.02    1.62
   3   5   3   17.05    2.75
  -3   5  -3   18.83    2.73
  -3   5  -3   19.11    1.88
   3   5   3   15.68    1.86
  -3  -5   3   16.55    2.14
  -3   5  -3   22.59    3.85
   3  -5  -3   18.08    1.97
   3  -5  -3   14.93    1.50
  -3   5   4   18.02    2.20
  -3   5   4   14.17    2.75
  -3   5   4   19.19    3.49
   3   5  -4   15.25    2.14
   3   5  -4   15.06    3.38
   3   5  -4   13.19    2.44
   3  -5   4   16.07    3.73
   3   5  -4   15.29    2.31
  -3  -5  -4   15.34    1.83
   3  -5   4   18.76    2.99
  -3   5  -4   14.32    2.07
   3   5   4   10.28    2.95
  -3  -5   4   16.94    2.28
   3  -5  -4   14.92    1.76
   3  -5  -4   18.88    2.05
  -3   5  -4   20.03    2.06
  -3   5  -4   13.65    2.88
  -3  -5   4   11.49    2.96
  -3   5  -4   16.54    2.28
   3   5   4   10.69    1.95
   3   5  -5    7.45    4.91
  -3   5   5    4.32    3.43
   3   5  -5    7.26    1.98
   3  -5   5    3.67    2.76
   3  -5   5    3.64    3.54
  -3  -5  -5    6.97    1.72
  -3   5   5    3.47    1.97
  -3  -5  -5    9.11    1.32
   3   5  -5    8.33    2.70
   3   5  -5    6.66    1.69
   3  -5  -5    7.61    1.79
   3  -5  -5    9.32    1.94
   3   5   5    6.70    2.97
  -3   5  -5    8.09    2.03
   3   5   5    8.27    2.29
  -3   5  -5    7.64    1.89
  -3  -5   5   13.73    2.55
  -3   5  -5   11.21    1.98
  -3  -5   5    8.81    4.11
   3  -5   6    5.36    2.98
   3   5  -6    3.94    2.02
  -3  -5  -6    5.69    1.56
   3   5  -6    5.66    2.26
  -3   5   6    3.17    4.15
  -3   5   6    5.03    3.00
  -3  -5  -6   10.95    2.13
   3  -5   6    5.96    4.63
   3   5   6    5.93    2.78
  -3   5  -6    9.30    2.19
   3  -5  -6    6.42    1.95
   3  -5  -6    3.38    2.11
  -3  -5   6    8.06    3.01
   3   5   6    3.89    2.24
  -3  -5   6   13.37    4.79
  -3   5  -6    6.07    2.52
  -3   5  -6    4.01    1.84
   3   5   6    4.99    4.10
  -4   5   0    0.90    0.81
  -4   5   0    1.36    1.36
   4  -5   0    4.02    1.67
  -4   5   0   -1.00    1.93
   4  -5   0    2.48    1.04
   4  -5   0    2.67    1.18
   4  -5   0    2.58    0.96
  -4   5   0    2.27    0.86
   4  -5   1   26.73    2.18
   4  -5   1   31.11    2.24
  -4   5   1   30.74    2.44
   4   5  -1   30.45    2.10
  -4   5   1   27.92    3.39
   4  -5   1   25.13    2.86
  -4   5   1   29.80    1.89
   4   5  -1   30.33    1.91
   4  -5   1   26.55    1.93
  -4  -5   1   31.12    1.62
   4  -5  -1   29.85    2.27
   4   5   1   35.19    1.77
  -4   5  -1   33.79    3.73
   4   5   1   29.28    1.53
  -4   5  -1   31.85    1.88
  -4   5  -1   33.70    1.99
  -4   5  -1   32.97    2.48
   4  -5  -1   32.47    1.92
   4  -5  -1   31.51    1.83
   4  -5   2   15.50    1.63
   4  -5   2   13.71    1.92
   4  -5   2   16.63    2.69
  -4   5   2   15.76    1.94
   4   5  -2   11.56    1.40
   4   5  -2   15.83    2.12
   4  -5   2   14.81    1.92
  -4  -5  -2   14.62    2.23
   4   5  -2   11.02    1.39
  -4   5   2   16.55    2.79
   4  -5   2   17.30    1.96
  -4   5   2   15.50    1.74
  -4  -5   2   13.45    1.41
  -4  -5   2   14.64    1.93
   4  -5  -2   15.33    1.69
   4   5   2   13.68    1.46
   4  -5  -2   15.86    1.93
   4   5   2   15.25    2.08
  -4   5  -2   14.10    2.22
  -4   5  -2   12.69    1.61
  -4  -5   2   15.16    1.99
   4   5   2   16.39    1.56
  -4   5  -2   13.80    1.73
  -4   5  -2   16.56    3.44
   4  -5  -2   12.29    1.42
   4   5   2   14.54    1.16
   4  -5   3   25.62    2.60
   4   5  -3   24.94    2.13
  -4  -5  -3   26.49    3.19
   4  -5   3   26.22    2.94
   4  -5   3   24.58    2.22
   4   5  -3   20.90    3.14
  -4   5   3   25.69    2.82
   4   5  -3   22.18    2.18
   4   5  -3   20.23    2.36
  -4   5   3   20.05    2.42
   4  -5   3   21.54    3.57
  -4   5   3   28.04    3.90
  -4   5   3   20.14    1.96
  -4   5  -3   23.15    2.02
  -4  -5   3   23.38    2.78
   4   5   3   20.37    2.18
   4   5   3   25.60    3.23
  -4   5  -3   26.42    3.12
  -4  -5   3   23.16    3.08
  -4   5  -3   18.45    2.15
   4   5   3   22.85    2.24
   4  -5  -3   24.77    1.99
  -4   5  -3   29.15    4.31
  -4  -5   3   23.30    2.13
   4  -5   4    0.39    1.90
  -4   5   4    2.95    2.61
   4   5  -4   -0.35    1.34
  -4   5   4    0.59    1.19
   4  -5   4   -0.86    2.71
   4   5  -4    1.13    1.54
   4   5  -4    3.25    1.85
   4   5  -4   -1.54    3.22
  -4  -5  -4    0.98    0.89
  -4   5   4   -1.97    1.84
   4   5   4    0.03    1.33
  -4  -5   4   -1.71    2.37
  -4   5  -4   -1.53    1.51
   4  -5  -4    1.09    1.30
  -4   5  -4    1.77    1.34
   4   5   4    0.57    2.43
  -4   5  -4    0.63    1.20
  -4   5  -4    1.26    2.75
   4   5  -5   14.18    5.44
   4   5  -5    9.56    2.43
  -4   5   5   10.59    2.87
  -4   5   5   12.67    4.29
   4  -5   5    8.91    2.58
   4   5  -5   12.23    3.14
   4  -5   5    9.95    3.75
   4   5  -5    7.33    1.89
  -4   5  -5   11.22    1.87
  -4   5  -5    8.95    2.01
   4  -5  -5   12.49    2.22
   4   5   5   16.93    3.67
   4  -5  -5   10.49    1.96
  -4  -5   5   10.98    2.37
  -4   5  -5    9.95    2.41
   4   5   5    9.82    2.59
   4   5   5   14.33    2.15
  -4  -5   5   15.43    4.25
  -4  -5  -6    8.35    2.21
   4   5  -6    4.40    2.17
  -4   5   6    8.80    3.33
   4  -5   6    6.17    4.82
   4  -5   6    1.13    2.50
  -4  -5  -6    7.80    1.73
  -4   5   6    1.58    4.05
   4   5  -6    4.27    2.44
   4   5  -6   -4.32    3.72
  -4  -5   6    7.03    3.19
   4   5   6    8.07    4.19
  -4  -5   6    5.20    4.63
  -4   5  -6    3.79    2.26
   4  -5  -6    9.43    2.47
  -4   5  -6   11.48    2.71
  -4   5  -6    5.66    2.03
   4  -5  -6    6.47    2.02
   4   5   6   13.65    3.09
   4   5   6   14.53    3.02
   5  -5   0   43.03    2.35
  -5   5   0   36.62    2.20
   5  -5   0   38.05    2.47
   5  -5   0   38.74    2.68
   5  -5   0   30.27    3.02
  -5   5   0   43.31    4.19
  -5   5   0   36.90    2.20
  -5   5   0   36.63    2.83
  -5   5   1   22.79    2.63
   5  -5   1   17.48    1.96
  -5   5   1   17.43    1.75
   5  -5   1   18.03    2.09
   5  -5   1   17.00    2.75
   5  -5   1   21.64    2.21
  -5   5   1   22.15    3.60
   5   5  -1   17.37    1.80
   5   5   1   17.06    1.46
   5  -5  -1   22.11    2.16
  -5   5  -1   21.21    2.58
   5  -5  -1   19.68    2.46
  -5   5  -1   29.33    4.18
   5  -5  -1   20.27    1.79
  -5  -5   1   18.98    1.49
  -5   5  -1   18.25    1.65
   5  -5  -1   20.76    1.80
   5   5   1   18.69    1.53
   5   5  -2    0.56    0.96
   5  -5   2    3.33    1.19
  -5  -5  -2    1.36    1.58
   5  -5   2    0.31    2.01
   5  -5   2   -0.34    1.40
   5  -5   2   -0.39    1.28
  -5   5   2    1.89    0.99
  -5   5   2   -0.67    2.47
  -5   5   2    3.35    1.72
   5   5  -2    0.47    1.05
   5   5  -2    3.04    1.57
   5  -5   2    3.20    1.54
  -5   5  -2    0.68    1.83
   5   5   2    1.61    1.45
   5   5   2    0.77    0.98
  -5  -5   2    2.47    1.35
   5   5   2   -0.02    0.85
  -5   5  -2    2.60    3.15
   5  -5  -2    2.01    1.38
  -5   5  -2    1.32    1.09
  -5  -5   2   -2.46    1.56
   5  -5  -2   -0.26    0.91
   5   5   2    2.95    1.24
   5  -5  -2    2.01    1.64
  -5   5  -2    0.60    1.04
   5   5  -3   11.49    2.88
  -5   5   3   13.41    2.36
  -5   5   3   13.41    1.95
   5   5  -3   12.77    1.85
   5  -5   3   13.98    2.27
   5  -5   3   13.08    2.33
   5  -5   3   12.69    3.04
   5   5  -3   10.24    1.98
   5   5  -3   13.73    1.84
  -5   5  -3    9.17    1.72
  -5   5  -3   12.74    1.91
   5   5   3   12.47    1.40
  -5   5  -3   16.96    2.74
   5   5   3   10.33    2.38
   5   5   3   11.32    1.79
   5  -5  -3   12.85    1.89
  -5  -5   3    7.62    1.54
   5   5   3    7.84    1.63
  -5  -5   3    9.57    2.30
  -5   5   4   22.20    4.36
   5   5  -4   23.77    2.80
  -5   5   4   29.18    3.40
   5  -5   4   20.46    3.93
   5   5  -4   21.41    2.42
  -5   5   4   24.55    2.36
   5   5  -4   19.84    2.84
   5  -5   4   21.24    3.11
   5   5  -4   35.28    4.52
   5   5   4   23.80    2.86
   5   5   4   23.56    3.50
   5   5   4   26.01    2.19
   5  -5  -4   23.30    2.49
  -5  -5   4   23.72    3.70
  -5   5  -4   23.18    2.41
  -5   5  -4   22.79    2.57
  -5  -5   4   23.66    2.87
   5  -5   5   12.48    3.02
   5   5  -5   11.28    2.49
   5   5  -5    9.77    2.06
   5   5  -5   12.84    3.80
   5  -5   5    7.58    4.00
  -5  -5  -5    7.79    1.60
  -5   5   5    9.89    2.90
  -5   5   5    7.76    3.76
   5   5  -5   19.26    5.58
  -5   5  -5    5.68    2.18
  -5  -5   5    9.65    3.83
  -5  -5   5    6.20    2.54
   5   5   5    9.11    2.43
   5   5   5   11.59    2.33
   5   5   5    6.93    3.39
  -5   5  -5   13.76    2.38
   5  -5  -5   10.32    2.19
   5  -5  -5   11.32    2.44
   5   5  -6    1.57    2.04
  -5  -5  -6    1.98    1.82
   5  -5   6   -5.87    4.46
   5   5  -6   -1.27    2.48
   5  -5   6    0.85    3.18
  -5   5   6    3.75    4.45
   5   5  -6   -0.92    5.14
  -5   5   6   -1.12    2.84
   5  -5  -6   -3.88    2.38
   5   5   6   -1.96    4.38
   5   5   6    2.28    2.69
  -5   5  -6    2.90    2.49
   5  -5  -6   -4.74    1.84
   5   5   6    4.55    4.64
  -5   5  -6   -1.98    2.23
  -5  -5   6   -1.33    3.02
  -5  -5   6   -3.26    4.50
   6  -5   0   11.71    2.07
   6  -5   0   11.61    1.98
  -6   5   0    9.64    1.94
  -6   5   0   10.24    1.60
   6  -5   0    8.94    2.56
   6  -5   0   14.20    1.92
   6  -5   1   58.46    3.33
  -6   5   1   56.35    5.29
  -6  -5  -1   64.53    2.66
   6  -5   1   65.55    4.79
  -6   5   1   61.29    3.04
   6  -5   1   58.52    3.39
  -6   5   1   57.78    3.75
  -6   5  -1   61.48    3.08
  -6   5  -1   65.12    3.10
   6  -5  -1   63.69    3.12
  -6  -5   1   59.36    2.52
   6  -5  -1   66.15    4.12
  -6   5  -1   61.46    5.59
   6   5   1   65.00    2.42
   6   5   1   58.82    2.66
  -6  -5   1   58.90    2.69
  -6   5  -1   62.31    3.77
   6  -5  -1   61.04    3.11
   6  -5   2   17.12    2.23
   6   5  -2   17.74    2.13
   6   5  -2   16.83    2.15
  -6  -5  -2   16.66    2.47
   6  -5   2   20.32    2.26
   6  -5   2   12.78    2.93
  -6   5   2   19.37    2.33
   6   5  -2   19.53    1.86
  -6   5   2   20.10    3.25
   6  -5   2   18.70    2.49
   6  -5  -2   20.08    2.49
  -6   5  -2   17.04    1.94
   6  -5  -2   17.93    2.15
  -6   5  -2   18.60    2.22
   6   5   2   17.57    1.80
   6   5   2   20.46    2.39
  -6  -5   2   18.69    2.72
   6   5   2   20.54    1.77
  -6   5  -2   23.42    3.27
  -6   5   3   42.90    2.90
   6   5  -3   48.83    3.09
   6  -5   3   52.70    3.70
   6   5  -3   50.53    3.05
   6   5  -3   45.59    3.29
   6  -5   3   49.11    3.87
   6  -5   3   52.24    5.05
  -6   5  -3   47.04    2.98
  -6   5  -3   49.09    3.01
  -6  -5   3   45.81    2.93
   6   5   3   48.65    2.63
   6  -5  -3   47.29    2.96
   6   5   3   51.41    2.98
  -6  -5   3   48.50    3.88
   6   5   3   56.52    4.25
   6  -5   4   10.43    2.57
  -6   5   4   13.36    2.08
  -6   5   4   11.38    3.01
   6   5  -4    9.70    2.30
   6   5  -4   13.23    2.63
   6   5  -4   12.29    2.04
  -6   5   4   12.89    3.90
   6  -5   4   12.12    3.58
   6  -5  -4   15.89    2.21
  -6  -5   4   12.68    2.32
  -6  -5   4   16.39    3.31
   6   5   4   14.25    3.36
   6   5   4   14.62    2.01
  -6   5  -4   12.40    1.99
   6   5   4   12.96    2.23
  -6   5  -4   13.35    2.11
   6   5  -5   33.50    4.47
   6  -5   5   24.38    5.17
  -6   5   5   35.17    4.58
   6   5  -5   23.69    3.38
   6  -5   5   21.16    3.38
   6   5  -5   34.95    6.58
   6   5  -5   22.86    3.02
  -6   5   5   27.17    5.25
  -6  -5   5   24.85    4.73
   6   5   5   26.37    4.98
   6  -5  -5   26.86    3.08
   6   5   5   32.10    3.72
   6   5   5   29.66    3.01
   6  -5  -5   33.09    3.58
  -6   5  -5   24.10    3.14
  -6   5  -5   27.93    3.10
  -6  -5   5   28.63    3.87
   6   5  -6   15.91    3.02
  -6   5   6   17.28    5.61
   6  -5   6   11.94    5.11
  -6  -5  -6   16.93    2.37
   6   5  -6    9.17    3.08
  -6   5   6   18.67    4.55
   6  -5   6   14.33    3.95
  -6   5  -6   14.37    2.83
  -6  -5   6   13.28    3.17
  -6   5  -6   16.17    3.01
   6   5   6   15.66    3.57
   6  -5  -6   13.43    3.07
   6   5   6    9.07    5.17
  -6  -5   6    9.99    4.94
   6  -5  -6   15.87    2.87
  -7   5   0    4.62    2.08
  -7   5   0    1.86    1.18
   7  -5   0    2.75    1.49
   7  -5   0    0.48    2.01
   7  -5   1    1.57    1.78
  -7   5   1    5.52    1.40
  -7   5   1    2.25    2.03
   7   5  -1    7.82    1.67
   7  -5   1    6.34    2.82
  -7  -5  -1   10.17    1.72
   7  -5   1    5.12    1.92
   7   5   1    6.24    1.44
  -7  -5   1    7.15    1.73
   7  -5  -1    8.52    1.98
  -7   5  -1    7.39    1.57
  -7   5  -1    5.55    1.39
  -7   5  -1    4.28    2.37
   7   5   1    6.51    1.29
   7  -5  -1   11.07    2.47
  -7  -5  -2   29.50    3.09
   7  -5   2   26.43    3.89
   7   5  -2   21.92    2.82
   7  -5   2   29.24    3.13
   7  -5   2   25.31    2.95
  -7   5   2   28.68    2.41
   7   5   2   24.95    2.05
  -7   5  -2   28.89    2.38
  -7  -5   2   27.05    3.18
   7   5   2   24.34    2.99
  -7   5  -2   26.18    2.41
   7   5   2   29.29    2.41
   7  -5  -2   30.67    2.50
   7   5  -3    3.27    1.78
  -7   5   3    4.11    1.37
   7  -5   3    2.34    2.97
   7   5  -3    4.78    1.46
   7  -5   3    3.92    2.25
  -7   5  -3    3.49    1.74
  -7   5  -3    5.51    1.61
   7  -5  -3    3.86    1.56
  -7  -5   3    6.40    2.43
   7   5   3    4.39    2.50
   7   5   3    5.16    1.59
   7   5   3    8.30    1.86
  -7  -5   3    8.30    1.73
   7  -5   4   -0.97    3.38
   7  -5   4    2.01    2.42
  -7   5   4   -0.51    3.36
   7   5  -4    3.27    2.08
  -7   5   4    0.85    2.43
   7   5  -4    1.29    2.41
   7   5  -4    4.17    1.55
   7   5   4    3.61    2.97
  -7  -5   4    5.16    2.46
   7   5   4    5.70    2.13
  -7   5  -4    1.60    1.80
   7  -5  -4    2.77    1.62
  -7  -5   4    6.07    3.09
   7   5   4    0.72    1.70
  -7   5  -4    4.76    1.72
   7   5  -5    2.66    2.45
   7  -5   5    2.91    3.22
   7  -5   5   -0.47    4.00
  -7   5   5    9.21    4.77
   7   5  -5    6.98    3.87
   7   5  -5    1.07    2.05
  -7   5   5    4.16    3.03
  -7  -5   5    4.41    3.79
   7   5   5    2.36    2.29
  -7   5  -5    3.83    1.99
   7  -5  -5    3.64    1.93
  -7  -5   5    2.37    2.83
  -7   5  -5    7.13    2.33
   7   5   5    6.68    4.15
   7   5   5    7.94    2.84
  -7   5   6   10.80    5.60
  -7   5   6   11.09    3.93
   7  -5   6   16.86    4.53
   7   5  -6    8.09    3.12
   7  -5   6   17.31    5.37
   7   5  -6   10.11    2.81
  -7  -5   6   18.91    5.51
  -7   5  -6   11.57    3.04
   7   5   6   14.68    5.31
   7   5   6   11.49    3.70
   7  -5  -6   13.00    3.46
   7  -5  -6   12.63    2.69
  -8   5   0   14.36    1.88
   8  -5   0   11.94    2.46
   8   5   0   12.36    1.94
   8  -5   0   18.09    3.21
   8   5   0   13.89    1.59
  -8  -5   0   14.93    2.01
   8  -5   1   39.03    4.20
  -8  -5  -1   33.63    3.17
   8  -5   1   35.01    3.44
  -8   5   1   34.55    2.61
   8   5  -1   32.56    3.18
  -8   5  -1   32.70    2.52
  -8   5  -1   28.90    2.74
  -8  -5   1   34.32    2.61
   8  -5  -1   41.24    3.73
  -8  -5   1   33.37    3.28
   8   5   1   40.38    2.71
   8   5   1   34.88    3.32
   8   5   1   40.56    2.46
   8  -5  -1   34.79    3.11
   8   5   1   34.56    2.10
   8  -5   2    1.31    1.89
  -8   5   2    6.21    1.55
   8  -5   2    6.23    2.89
  -8  -5  -2    6.73    2.82
   8   5  -2    3.39    1.84
  -8   5  -2    4.75    1.50
   8   5   2    5.77    2.11
   8  -5  -2    7.37    1.83
   8   5   2    6.59    2.33
  -8  -5   2    7.59    2.83
   8   5   2    3.00    1.35
  -8   5  -2    3.17    1.52
   8  -5   3   27.31    3.90
   8  -5   3   28.65    4.67
  -8   5   3   25.68    3.17
   8   5  -3   24.83    3.17
   8   5  -3   26.57    3.08
  -8   5  -3   24.56    2.68
  -8   5  -3   21.71    2.65
  -8  -5   3   24.17    2.75
  -8  -5   3   23.56    3.11
   8   5   3   26.44    2.70
   8  -5  -3   27.42    3.15
   8   5   3   22.93    2.57
   8   5   3   23.07    3.70
   8   5  -4   11.13    2.13
   8  -5   4    3.01    3.65
   8   5  -4   12.03    2.78
  -8   5   4   13.18    3.47
   8  -5   4   16.46    3.38
  -8   5   4   10.52    4.56
  -8   5  -4   13.54    2.39
  -8   5  -4   14.29    2.40
   8   5   4    7.96    3.60
   8   5   4    9.23    2.34
   8  -5  -4   15.56    2.46
  -8  -5   4   16.03    3.54
  -8  -5   4   16.11    2.80
   8   5   4   11.83    2.78
   8  -5   5   35.28    4.54
  -8   5   5   31.03    6.14
  -8   5   5   28.93    4.26
   8   5  -5   33.23    3.96
   8   5  -5   29.02    4.06
   8  -5   5   31.92    5.70
   8  -5  -5   33.36    3.78
   8   5   5   29.89    3.77
  -8   5  -5   38.79    3.57
  -8  -5   5   31.16    5.52
   8   5   5   34.33    5.58
  -8   5  -5   31.51    3.62
  -9   5   0   17.29    2.41
   9  -5   0   18.47    2.89
   9   5   0   14.89    1.70
   9   5   0   17.94    2.43
   9  -5   0   15.25    3.32
  -9  -5   0   18.89    2.69
   9   5  -1    5.58    2.01
   9  -5   1    5.83    2.27
   9  -5   1    4.69    3.01
  -9  -5  -1    3.59    2.42
  -9   5   1    3.28    1.64
   9  -5  -1    3.13    2.07
  -9  -5   1    2.86    1.81
  -9  -5   1    3.30    2.72
  -9   5  -1    4.75    1.61
   9   5   1    1.60    1.75
   9   5   1    3.19    1.79
   9   5   1    4.38    1.31
  -9   5   2    0.50    1.44
   9   5  -2    1.33    1.85
   9  -5   2    2.78    2.06
   9  -5   2    7.46    3.00
   9   5   2   -0.95    1.93
   9  -5  -2   -0.42    1.73
   9   5   2    3.26    1.37
  -9   5  -2    3.35    1.45
  -9   5  -2    0.19    1.78
   9   5  -3    3.50    2.06
  -9   5   3    4.17    1.79
   9   5  -3    6.76    2.25
   9  -5   3    4.59    2.35
   9  -5   3    3.55    3.34
  -9   5  -3    2.58    1.80
  -9   5  -3    2.84    1.76
   9  -5  -3    4.48    2.10
  -9  -5   3   -0.25    2.78
   9   5   3    7.89    3.01
   9   5  -4   13.82    3.03
   9  -5   4    5.40    4.24
  -9   5   4   12.91    4.77
   9  -5   4   12.31    3.10
  -9   5   4    7.95    3.03
   9   5  -4    7.18    2.34
  -9   5  -4    5.98    2.43
   9   5   4    4.65    3.53
  -9  -5   4   11.91    3.93
   9   5   4   10.76    2.72
  -9  -5   4    9.54    2.56
  -9   5  -4   14.36    2.34
   9  -5  -4    9.91    2.40
   9   5  -5    1.07    2.80
  -9   5   5   -4.12    3.41
  -9   5   5   14.05    6.33
   9  -5   5   -0.76    3.96
   9  -5   5   -0.76    4.89
   9   5  -5    0.51    2.46
  -9  -5   5   10.00    5.10
  -9   5  -5    0.69    2.36
   9   5   5    0.35    2.49
   9  -5  -5    1.03    2.20
   9   5   5   -6.73    4.25
  -9   5  -5   -1.66    2.67
  10  -5   0   12.06    3.35
 -10  -5   0   11.56    3.25
  10  -5   0   13.24    2.55
 -10   5   0   14.22    2.16
  10  -5   1   12.03    3.30
 -10   5   1   13.37    2.26
  10   5  -1   16.81    2.96
  10  -5   1   21.71    3.56
  10  -5  -1   18.64    3.12
 -10  -5   1   15.41    2.61
  10   5   1   15.03    2.38
 -10   5  -1   17.45    2.52
  10   5   1   16.01    2.53
  10   5   1   15.06    1.93
  10  -5   2  103.84    7.32
  10   5  -2  108.27    5.83
  10  -5   2  106.91    5.90
 -10   5   2  108.99    5.13
  10   5   2  105.93    4.59
 -10   5  -2  103.46    5.49
  10  -5  -2  108.57    5.65
 -10   5  -2  103.78    4.69
  10   5   2  109.99    5.69
  10  -5   3   11.94    3.08
  10  -5   3   10.05    4.04
 -10   5   3   10.20    2.67
  10   5  -3   10.41    2.83
  10  -5  -3   14.01    2.80
  10   5   3   11.53    2.38
  10   5   3   10.89    3.28
 -10  -5   3   12.57    3.33
 -10   5  -3   11.45    2.50
 -10   5  -3   13.59    2.35
 -10   5   4    8.18    5.39
 -10   5   4    7.54    3.96
  10   5  -4    4.57    3.06
  10   5  -4    7.33    2.92
  10  -5   4    5.90    3.13
  10  -5   4   10.02    4.46
  10   5   4    7.33    2.47
  10   5   4   -0.68    3.97
 -10   5  -4    6.21    2.33
  10  -5  -4    3.52    2.69
 -10  -5   4    1.82    4.13
 -10   5  -4    6.39    2.32
 -11   5   0    5.08    1.93
  11  -5   0    1.48    3.16
  11   5   0    2.10    2.26
  11  -5   0    4.24    2.21
  11  -5   1   22.54    4.62
 -11   5   1   18.15    2.74
  11  -5   1   21.14    3.48
  11   5  -1   19.92    3.43
  11   5   1   21.39    2.87
  11   5   1   27.38    3.14
  11  -5  -1   21.78    3.54
 -11   5  -1   20.44    2.61
  11   5   1   25.15    2.79
 -11  -5   1   24.52    3.15
 -11   5   2   -2.24    2.06
  11  -5   2    0.17    3.58
  11   5  -2    3.06    2.44
  11  -5   2    5.00    2.58
  11  -5  -2   -1.75    2.34
  11   5   2    3.31    1.88
  11   5   2   -5.05    2.68
 -11   5  -2   -0.72    1.84
  11  -5   3   12.27    4.96
  11  -5   3   19.35    3.87
  11   5  -3   23.17    3.69
 -11   5  -3   21.14    2.82
 -11  -5   3   11.77    3.67
  11   5   3   16.16    2.98
  11  -5  -3   15.14    3.22
 -11   5  -3   15.28    3.35
  11   5   3   20.97    4.07
  12  -5   0   15.55    3.50
 -12   5   0   16.86    2.61
  12   5   0   11.63    3.28
  12  -5   0   22.98    4.57
  12  -5   0   19.84    3.66
  12  -5   1   11.01    3.03
 -12   5   1    8.24    2.69
  12   5  -1   11.48    3.62
  12  -5   1    8.93    4.11
  12   5   1   12.40    2.43
 -12  -5   1   11.01    2.99
  12  -5  -1    7.16    3.05
 -12   5  -1   12.40    2.51
  12  -5   2   34.99    6.07
 -12   5   2   44.44    4.15
  12   5  -2   47.65    5.27
  12  -5   2   38.75    4.90
 -12   5  -2   42.19    3.78
  12   5   2   39.66    3.79
  12   5   2   45.53    5.03
  12  -5  -2   42.42    4.88
 -13   5   0   -1.17    2.22
  13  -5   0   -1.29    3.20
  13  -5   0   11.91    3.88
  13   5   0    3.17    2.99
   0  -6   0  136.43    3.98
   0   6   0  135.58    4.31
   0   6   0  131.53    4.91
   0  -6   0  133.46    4.63
   0   6   0  134.89    3.90
   0   6   0  127.66    4.34
   0  -6   0  132.99    4.49
   0  -6  -1    1.30    0.90
   0   6  -1    0.99    0.79
   0  -6   1   -1.59    1.03
   0  -6   1    0.27    0.90
   0  -6   1    0.49    0.51
   0   6   1   -0.52    0.66
   0  -6   1   -0.08    0.75
   0   6  -1   -2.44    1.22
   0   6  -1   -0.10    0.41
   0  -6   1   -0.08    1.16
   0   6  -1    1.19    0.82
   0   6   1   -1.26    1.05
   0   6  -1    1.66    0.85
   0   6  -2   55.67    3.60
   0   6  -2   49.58    2.45
   0   6   2   49.02    3.43
   0  -6   2   51.49    2.68
   0  -6   2   49.29    3.37
   0   6  -2   48.50    2.00
   0   6   2   46.18    2.15
   0   6   2   52.86    2.06
   0  -6  -2   49.07    2.35
   0  -6   2   53.84    2.20
   0  -6   2   49.69    2.55
   0   6  -2   50.15    2.64
   0   6  -2   49.79    2.76
   0  -6  -2   49.16    1.86
   0  -6   3    0.63    1.08
   0   6  -3   -0.57    0.75
   0  -6   3   -2.66    1.69
   0  -6  -3    0.00    0.76
   0   6   3    0.07    0.79
   0   6  -3   -0.88    0.98
   0   6  -3    3.44    2.42
   0   6  -3   -0.97    1.08
   0  -6  -3    1.78    1.20
   0  -6   3   -0.28    1.59
   0  -6   3    0.79    1.09
   0   6   3   -0.08    1.86
   0   6   3    2.10    1.17
   0   6  -3    1.05    1.40
   0   6   3   -0.92    1.08
   0   6  -4   68.60    5.86
   0  -6  -4   59.60    3.02
   0  -6   4   58.11    3.56
   0  -6   4   61.01    4.97
   0   6  -4   58.83    3.09
   0   6   4   63.01    4.96
   0   6  -4   50.71    3.23
   0   6   4   64.76    3.90
   0   6  -4   63.13    3.76
   0   6  -4   64.88    4.14
   0  -6  -4   62.47    2.95
   0   6   4   61.24    2.81
   0   6   4   53.25    3.47
   0  -6   5   -1.12    2.97
   0   6   5    0.97    1.90
   0   6  -5   -0.18    1.37
   0  -6  -5    1.31    1.97
   0   6  -5   -0.08    1.63
   0   6   5    1.02    2.61
   0   6  -5    1.40    1.82
   0  -6  -5    0.36    1.35
   0   6  -5   -1.73    3.19
   0  -6   5    1.71    2.01
   0   6  -6   17.83    4.69
   0  -6   6   25.43    4.33
   0   6  -6   22.53    3.52
   0  -6  -6   21.32    2.62
   0   6  -6   17.60    2.86
   0   6   6   15.43    4.87
   0   6   6   23.21    3.87
   0   6  -6   19.36    2.72
   0  -6   6   23.59    5.41
   0  -6  -7   -0.21    2.06
   0   6   7   -1.90    3.89
   0   6   7   -3.50    4.69
   0   6  -7    0.95    2.38
   0  -6   7   -3.82    5.59
   0  -6   7   -2.42    3.94
   0   6  -7    4.78    2.74
   0   6  -7    1.97    3.28
  -1   6   0    3.80    0.73
   1   6   0    4.36    0.78
  -1   6   0    5.92    1.09
  -1  -6   0    5.21    0.95
   1   6   0    4.12    0.96
   1  -6   0    3.95    1.08
  -1  -6   0    5.66    1.19
  -1  -6   0    5.58    1.06
   1  -6   0    3.80    1.33
   1  -6   0    6.50    0.97
   1   6   0    4.82    1.21
  -1   6   0    4.29    0.99
   1   6   0    6.30    1.02
  -1   6   0    3.60    1.64
  -1   6   1   93.94    2.82
   1   6  -1   95.97    3.28
   1   6  -1   92.37    3.35
   1  -6   1   93.60    3.40
   1   6  -1   90.69    3.72
  -1  -6  -1   96.51    3.41
   1  -6   1   90.36    4.26
   1  -6   1   97.48    3.83
   1   6  -1   99.46    3.97
   1   6  -1   97.24    2.84
   1  -6   1   88.54    3.43
  -1   6   1  101.48    4.38
   1  -6   1   96.58    2.76
  -1   6   1  100.84    3.46
  -1  -6   1   98.19    3.05
  -1   6  -1   97.65    3.67
  -1   6  -1   92.34    3.31
  -1   6  -1   92.85    4.51
   1  -6  -1   94.67    3.49
  -1   6  -1   95.30    2.73
  -1  -6   1   91.68    3.76
  -1  -6   1   92.75    3.45
   1  -6  -1   96.48    2.85
   1   6   1   91.93    3.55
  -1  -6   1   97.72    3.15
   1   6   1   90.45    3.18
  -1   6  -1   95.92    3.68
   1   6  -2   32.81    1.63
   1  -6   2   32.47    1.70
   1   6  -2   32.08    2.35
   1  -6   2   34.22    3.01
   1  -6   2   30.27    2.23
   1  -6   2   32.63    2.16
  -1  -6  -2   29.85    1.48
   1   6  -2   28.68    1.94
   1   6  -2   34.09    3.04
  -1   6   2   31.32    1.69
  -1   6   2   33.15    1.87
  -1  -6  -2   34.37    1.91
   1   6  -2   31.92    2.14
   1   6   2   37.02    1.67
  -1   6  -2   31.13    1.96
  -1  -6   2   33.42    1.96
  -1  -6   2   31.65    1.85
   1  -6  -2   30.71    1.45
  -1   6  -2   29.05    2.11
  -1  -6   2   33.30    2.35
   1   6   2   30.88    2.77
   1   6   2   30.12    1.63
  -1   6  -2   33.86    2.40
  -1  -6   2   33.87    2.77
   1   6   2   29.94    2.04
   1  -6  -2   27.45    2.06
  -1   6  -2   31.02    3.43
  -1   6  -2   32.84    1.59
  -1   6   3   64.69    3.59
  -1   6   3   60.45    2.89
   1  -6   3   59.93    3.23
   1   6  -3   66.71    3.38
   1   6  -3   59.02    3.41
   1  -6   3   61.54    2.74
   1   6  -3   61.69    4.58
  -1  -6  -3   61.18    2.53
  -1  -6  -3   61.21    2.58
  -1   6   3   64.11    2.75
  -1   6   3   61.95    4.52
   1   6  -3   59.71    2.68
   1   6  -3   59.53    3.17
   1  -6   3   58.99    4.49
  -1   6  -3   57.80    3.04
  -1  -6   3   63.18    3.12
  -1   6  -3   64.06    3.44
   1   6   3   62.38    2.47
  -1   6  -3   58.24    3.60
   1  -6  -3   59.45    2.52
  -1  -6   3   67.49    4.41
  -1   6  -3   61.80    2.66
   1   6   3   67.23    2.82
  -1  -6   3   64.35    2.99
   1  -6  -3   64.39    2.98
   1   6   3   59.65    4.37
   1   6   3   64.51    3.32
  -1   6  -3   64.19    5.06
   1  -6   4    7.52    3.13
  -1   6   4    7.18    2.77
  -1  -6  -4    4.68    1.30
  -1   6   4    3.37    1.84
   1  -6   4    9.10    2.24
   1   6  -4    1.49    2.10
   1   6  -4    5.49    3.33
  -1   6   4    6.49    1.86
   1   6  -4    5.40    1.36
  -1   6   4    6.03    1.33
  -1  -6  -4    5.76    1.48
   1   6  -4    5.52    1.93
   1   6  -4    2.73    1.53
  -1  -6   4    7.39    2.75
   1   6   4    6.42    1.79
   1   6   4    3.47    1.55
  -1   6  -4    7.97    2.21
   1   6   4    2.00    2.11
  -1   6  -4    4.98    3.62
  -1   6  -4    5.34    1.70
  -1  -6   4    6.28    1.67
   1  -6  -4    4.18    1.72
  -1   6  -4    7.04    1.66
  -1   6  -4    2.17    1.26
   1  -6  -4    4.82    1.28
  -1   6   5   33.84    3.73
   1   6  -5   37.83    4.49
   1   6  -5   29.17    5.86
  -1  -6  -5   36.35    2.69
   1  -6   5   33.21    3.58
  -1   6   5   37.65    5.35
   1   6  -5   30.12    3.55
   1   6  -5   29.31    3.00
   1  -6   5   23.72    4.89
   1   6  -5   34.34    2.71
  -1  -6  -5   30.08    2.77
  -1   6  -5   36.12    4.14
   1   6   5   27.83    4.67
  -1  -6   5   38.61    5.25
  -1  -6   5   29.72    3.55
   1   6   5   31.12    3.51
  -1   6  -5   32.92    2.93
  -1   6  -5   29.90    2.73
   1  -6  -5   30.14    2.67
  -1   6  -5   33.72    4.00
   1   6  -6   27.49    5.59
  -1   6   6   19.68    4.84
   1  -6   6   12.36    3.40
  -1  -6  -6   16.86    2.66
   1   6  -6   20.31    3.76
  -1  -6  -6   19.08    2.47
   1   6  -6   17.13    2.71
  -1   6   6   16.95    3.22
   1  -6   6   15.50    4.90
   1   6  -6   18.76    2.96
  -1   6  -6   11.97    2.44
  -1  -6   6   15.74    3.22
  -1   6  -6   15.81    3.01
   1   6   6   13.46    3.43
  -1   6  -6   19.03    3.39
   1  -6  -6   18.47    2.56
  -1  -6   6   16.22    5.25
   1  -6  -6   18.42    2.18
   1   6   6   15.39    5.09
  -2   6   0   11.17    1.32
   2  -6   0   13.76    2.05
   2   6   0   14.69    1.38
   2   6   0   11.09    0.97
   2  -6   0   15.98    1.81
   2   6   0   11.09    0.98
   2  -6   0   11.83    1.42
   2   6   0   10.31    1.08
   2   6   0   13.89    1.38
  -2   6   0   15.51    1.82
  -2   6   0   12.91    1.06
  -2   6   0   16.00    2.41
   2  -6   0   10.97    1.23
   2  -6   1    0.40    0.75
   2   6  -1    1.31    0.99
  -2   6   1   -0.28    1.02
   2   6  -1   -0.02    0.73
  -2   6   1    3.37    1.67
   2   6  -1    0.53    0.64
   2   6  -1    0.27    1.03
  -2   6   1    1.11    0.61
  -2  -6  -1    1.02    0.88
  -2   6   1    1.50    0.83
   2  -6   1    0.58    0.56
   2  -6   1    1.21    1.20
   2  -6   1    1.11    0.97
   2  -6   1    0.97    1.39
   2   6  -1    0.16    0.52
  -2   6  -1    1.57    0.84
   2  -6  -1   -0.05    0.99
   2  -6  -1    1.16    0.49
   2  -6  -1    0.96    0.68
  -2  -6   1    0.22    1.09
  -2   6  -1    0.07    1.87
  -2  -6   1    1.89    0.87
  -2   6  -1    0.48    0.81
   2   6   1    0.96    0.58
   2   6   1    0.80    0.63
   2   6   1    0.23    0.78
   2   6   1   -0.20    0.99
  -2   6  -1    0.06    1.06
   2   6  -2    1.32    0.93
   2   6  -2    0.37    1.10
   2  -6   2    3.53    1.83
   2   6  -2    1.79    1.02
  -2   6   2    2.40    0.91
   2  -6   2    1.07    1.19
  -2  -6  -2    2.03    0.93
  -2   6   2    1.43    0.86
  -2   6   2    3.08    1.65
   2  -6   2    1.41    0.80
   2   6  -2    1.57    0.79
   2  -6   2    0.83    1.04
   2   6  -2    2.91    1.62
   2  -6   2    1.06    1.24
   2  -6  -2    1.48    0.67
  -2   6  -2    0.52    0.92
   2  -6  -2   -1.06    1.17
   2   6   2    1.88    0.81
  -2   6  -2    5.47    2.45
   2   6   2    1.71    0.65
  -2   6  -2    1.31    0.66
  -2  -6   2    0.72    1.03
   2  -6  -2    1.68    0.76
   2   6   2   -0.76    1.15
  -2   6  -2   -0.24    1.23
   2   6   2    0.26    0.89
  -2  -6   2   -1.18    1.33
  -2  -6   2   -0.66    1.28
  -2  -6   2    1.46    1.00
  -2   6  -2    0.54    0.88
  -2   6   3    0.37    1.28
   2  -6   3    1.38    1.28
   2   6  -3    2.43    1.20
  -2  -6  -3    0.89    0.82
   2  -6   3    1.38    2.00
  -2   6   3    0.70    1.81
   2  -6   3   -1.04    1.18
   2   6  -3    1.54    0.92
   2   6  -3    2.14    2.19
  -2   6   3    2.97    0.95
  -2   6   3   -0.04    1.26
   2   6  -3    2.11    1.34
   2   6   3   -1.10    1.10
  -2  -6   3    1.78    1.96
  -2   6  -3   -5.60    2.82
   2   6   3    1.48    1.08
  -2   6  -3    1.62    1.73
  -2  -6   3   -0.55    1.20
   2  -6  -3    1.67    1.39
  -2  -6   3    1.64    1.56
  -2   6  -3    1.18    1.38
   2  -6  -3    1.85    0.90
  -2   6  -3    1.58    1.08
  -2   6  -3    0.87    0.82
   2   6   3    1.78    1.78
   2   6  -4    4.98    1.91
  -2   6   4    7.90    2.08
   2  -6   4    3.04    2.74
  -2   6   4    2.58    1.29
   2   6  -4    2.93    1.38
   2  -6   4    2.19    1.72
  -2   6   4    4.67    1.92
  -2   6   4    1.54    2.37
  -2  -6  -4    3.19    1.11
   2   6  -4    2.59    1.44
   2   6  -4   -0.25    3.25
  -2  -6   4    2.77    2.56
  -2  -6   4    1.65    1.60
  -2   6  -4    2.33    1.28
  -2   6  -4    4.86    1.37
  -2   6  -4    5.21    2.37
   2   6   4    2.96    1.97
  -2   6  -4    3.11    1.71
   2  -6  -4    1.87    1.11
   2  -6  -4    3.04    1.18
   2   6   4    2.29    1.62
  -2   6  -4    1.02    4.36
   2   6   4    6.08    2.58
   2  -6  -4    2.29    1.79
  -2  -6  -5    0.64    1.31
   2  -6   5   -0.95    1.85
   2   6  -5    0.94    4.88
  -2   6   5    0.65    3.23
   2   6  -5   -0.47    1.66
   2  -6   5    3.17    3.51
  -2   6   5   -1.27    1.81
   2   6  -5    2.08    1.51
   2   6  -5    3.74    2.84
  -2   6  -5    1.86    2.02
  -2   6  -5    0.09    1.55
   2  -6  -5    2.81    1.45
   2  -6  -5    0.83    1.46
  -2   6  -5   -0.48    3.12
   2   6   5    0.56    2.79
  -2  -6   5   -0.52    2.07
   2   6   5    2.23    1.85
  -2   6  -5    0.61    1.48
  -2  -6   5    2.33    3.50
   2   6  -6    2.77    1.78
  -2   6   6    4.53    2.99
   2  -6   6    5.57    4.88
  -2   6   6   -0.42    4.19
   2   6  -6   -0.89    3.44
   2   6  -6   -0.18    2.07
   2  -6   6   -1.14    3.00
  -2  -6  -6   -0.86    1.80
  -2  -6   6    5.25    4.54
   2  -6  -6   -1.32    1.73
  -2   6  -6    2.13    1.85
  -2   6  -6    0.31    2.06
  -2  -6   6    1.06    2.84
   2  -6  -6    0.79    1.94
  -2   6  -6   -0.42    2.44
   2   6   6   -4.26    3.89
   2   6   6    3.16    2.64
   3  -6   0  136.25    5.70
  -3   6   0  141.69    5.10
   3   6   0  142.63    4.69
   3  -6   0  143.75    4.98
   3   6   0  132.60    4.29
  -3   6   0  146.32    6.23
  -3   6   0  134.89    4.65
   3  -6   0  143.34    4.42
   3  -6   0  140.63    4.86
  -3   6   0  137.20    4.40
   3   6   0  132.36    4.30
   3   6  -1   15.01    1.56
   3   6  -1   13.25    1.08
  -3   6   1   18.37    3.02
   3   6  -1   14.03    1.26
   3  -6   1   17.71    1.70
   3  -6   1   15.59    1.83
  -3   6   1   12.32    1.74
   3   6  -1   15.43    1.53
   3  -6   1   15.46    1.17
   3  -6   1   16.03    2.59
   3  -6   1   17.94    1.99
  -3   6   1   13.80    1.40
   3  -6  -1   14.54    1.34
  -3   6  -1   19.32    2.99
  -3   6  -1   13.81    1.46
   3  -6  -1   19.46    2.15
   3   6   1   14.83    1.29
   3   6   1   14.32    1.11
  -3   6  -1   18.23    2.12
  -3   6  -1   13.30    1.33
   3   6   1   13.55    1.51
   3  -6  -1   14.46    1.17
  -3  -6   1   16.00    1.54
   3   6  -2   87.89    3.30
   3   6  -2   83.04    3.29
   3  -6   2   89.89    3.05
  -3   6   2   90.90    3.53
   3   6  -2   87.18    4.02
   3  -6   2   81.98    4.90
  -3   6   2   91.20    3.45
   3  -6   2   81.43    3.80
   3  -6   2   91.11    3.73
  -3   6   2   90.70    4.97
   3  -6   2   89.21    4.00
   3   6  -2   76.48    3.64
   3  -6  -2   90.84    3.12
   3   6   2   86.24    3.97
   3   6   2   92.75    3.17
  -3  -6   2   89.72    3.09
  -3  -6   2   81.14    3.94
  -3  -6   2   85.44    3.65
  -3   6  -2   85.09    3.60
  -3   6  -2   94.01    4.23
   3   6   2   88.45    3.44
   3  -6  -2   91.02    3.14
  -3   6  -2   92.68    5.81
   3  -6  -2   84.67    3.67
   3  -6   3   14.28    1.75
  -3   6   3   15.65    2.42
   3   6  -3   11.16    2.76
   3   6  -3   14.40    2.01
   3   6  -3    9.32    1.68
  -3  -6  -3   14.71    3.02
  -3   6   3   12.89    2.93
  -3   6   3   19.33    2.25
   3  -6   3    8.91    2.93
   3  -6   3   12.04    1.84
  -3   6   3   13.56    1.75
   3   6  -3   12.71    1.65
  -3   6  -3   11.67    3.74
  -3   6  -3   12.33    1.99
   3   6   3   15.93    1.75
   3   6   3   16.13    2.73
   3  -6  -3   16.76    2.06
  -3  -6   3   15.39    1.92
  -3   6  -3   11.16    1.72
  -3   6  -3   13.38    1.58
  -3  -6   3   10.33    1.64
   3  -6  -3   11.70    1.48
  -3   6  -3    9.97    2.17
  -3  -6   3   14.23    2.59
   3   6   3   14.09    1.93
  -3  -6  -4   81.02    3.58
  -3   6   4   84.05    3.86
   3   6  -4   80.94    3.79
   3   6  -4   82.42    4.49
  -3   6   4   89.76    4.81
   3  -6   4   81.45    6.00
   3   6  -4   72.16    4.10
  -3   6   4   85.50    6.16
   3  -6   4   88.97    4.70
   3   6  -4   80.87    5.95
  -3  -6   4   80.23    5.51
  -3   6  -4   81.14    3.70
  -3   6  -4   81.52    4.29
  -3   6  -4   84.94    5.32
   3  -6  -4   82.37    3.52
   3  -6  -4   80.14    3.54
   3   6   4   77.23    4.16
  -3   6  -4   76.75    3.90
   3   6   4   72.89    5.25
  -3   6   5   12.48    3.09
   3  -6   5   14.70    4.49
   3   6  -5    9.03    2.32
  -3   6   5   17.10    4.18
   3   6  -5   18.48    5.34
   3  -6   5   17.42    3.44
   3   6  -5   14.25    3.00
  -3  -6  -5   14.34    2.15
   3   6  -5   12.56    2.17
   3   6   5   11.85    2.72
  -3   6  -5   12.64    2.28
   3  -6  -5   13.17    2.15
  -3   6  -5   16.98    2.38
  -3   6  -5   14.14    2.58
  -3  -6   5   14.28    4.24
   3  -6  -5   12.02    2.11
   3   6   5   11.49    3.54
  -3   6  -5    4.14    3.62
  -3  -6   5   14.42    2.80
   3   6  -6   40.12    3.62
   3   6  -6   42.24    4.14
   3  -6   6   27.22    5.67
  -3  -6  -6   37.44    3.44
  -3   6   6   50.00    5.13
   3   6  -6   52.50    6.11
  -3   6   6   39.21    6.29
   3  -6   6   40.72    4.83
   3  -6  -6   45.27    3.44
  -3   6  -6   38.73    3.77
   3  -6  -6   36.67    3.45
  -3  -6   6   35.56    6.04
  -3   6  -6   45.30    4.31
   3   6   6   38.09    4.58
  -3  -6   6   39.19    4.70
   3   6   6   39.90    6.13
  -3   6  -6   44.26    3.77
   4  -6   0   10.89    1.72
  -4   6   0    7.27    2.58
   4  -6   0   10.07    1.56
  -4   6   0    8.55    1.31
   4   6   0    8.66    1.28
   4   6   0   10.00    1.46
  -4   6   0    6.07    1.12
   4  -6   0    6.98    2.02
   4  -6   0   11.73    1.57
  -4   6   0    7.11    1.60
   4  -6   1    8.71    1.81
   4   6  -1    8.47    1.28
  -4   6   1    6.71    2.61
   4  -6   1    6.94    1.55
   4   6  -1    9.03    1.29
   4  -6   1    4.89    2.10
   4  -6   1    8.83    1.12
  -4   6   1    9.56    1.45
   4  -6   1    8.07    1.37
   4   6  -1    9.28    1.08
  -4   6   1    6.56    1.72
   4   6   1    9.10    1.16
  -4   6  -1    7.32    1.34
  -4   6  -1    7.87    1.93
   4   6   1    8.11    1.12
  -4   6  -1    6.36    1.24
   4  -6  -1    9.52    1.28
  -4   6  -1   10.70    2.99
   4  -6  -1    6.36    1.49
   4  -6  -1    9.07    1.36
  -4   6   2   21.53    2.10
   4  -6   2   27.77    2.71
   4  -6   2   20.53    2.32
   4   6  -2   22.16    1.71
   4  -6   2   22.97    1.87
   4   6  -2   19.94    2.39
  -4   6   2   20.58    2.52
   4   6  -2   22.74    1.81
  -4   6   2   25.13    3.43
   4   6  -2   22.34    2.34
   4  -6   2   22.66    3.41
   4  -6   2   18.86    2.20
  -4   6   2   20.93    2.01
   4   6   2   21.14    1.84
   4   6   2   21.59    1.82
  -4   6  -2   26.44    4.10
  -4  -6   2   24.48    2.37
  -4   6  -2   22.02    1.93
   4  -6  -2   21.12    2.30
  -4   6  -2   23.90    2.11
  -4  -6   2   20.64    2.42
   4   6   2   20.50    2.24
   4  -6  -2   22.29    1.88
  -4   6  -2   23.68    2.76
   4  -6  -2   22.02    1.69
   4   6  -3    9.63    1.86
   4  -6   3    8.12    1.73
  -4   6   3    7.49    3.03
  -4   6   3    7.69    2.06
   4   6  -3   12.23    2.78
  -4   6   3   12.11    1.73
   4  -6   3   10.73    3.01
  -4  -6  -3    4.28    2.66
   4   6  -3   11.30    1.75
   4   6  -3    9.74    1.74
   4  -6   3    6.20    2.41
   4  -6   3    8.88    2.11
   4   6   3   11.43    2.18
   4   6   3    6.58    1.47
  -4   6  -3   11.02    1.74
  -4  -6   3    7.70    1.53
  -4   6  -3    4.97    4.13
   4  -6  -3   12.23    1.64
  -4  -6   3   13.73    2.62
  -4   6  -3   12.12    1.76
   4   6   3   10.61    1.61
  -4   6  -3   13.43    2.70
  -4  -6   3   11.30    2.17
   4   6  -4    7.73    1.73
  -4   6   4    7.95    2.93
   4   6  -4    9.42    2.38
   4   6  -4   10.46    3.58
  -4   6   4    6.51    1.58
  -4   6   4    4.71    2.08
   4  -6   4    8.12    3.68
   4  -6   4    6.34    1.92
   4   6  -4    7.45    2.19
  -4   6  -4    6.36    2.00
  -4   6  -4    9.72    3.37
   4  -6  -4    6.15    1.54
  -4  -6   4    7.36    2.97
   4   6   4    3.83    2.48
  -4   6  -4    7.30    1.65
  -4   6  -4    7.28    1.79
  -4  -6   4    6.44    1.89
   4   6   4    7.99    1.87
   4  -6   5    1.05    2.48
   4   6  -5    4.96    5.20
   4   6  -5    3.40    1.55
   4   6  -5    0.41    1.95
   4  -6   5    4.46    3.58
  -4   6   5    8.53    2.62
   4   6  -5    2.82    2.90
  -4   6   5    5.13    3.79
   4   6   5    3.56    3.26
  -4   6  -5    1.12    1.85
  -4  -6   5    6.38    2.41
   4  -6  -5    3.41    2.11
  -4  -6   5    6.31    3.79
  -4   6  -5    3.68    2.15
  -4   6  -5    1.93    1.54
   4   6   5    4.33    2.06
   4  -6  -5    3.81    1.63
   4   6  -6    4.84    2.31
   4   6  -6    8.88    2.52
  -4   6   6    8.02    3.07
   4   6  -6    8.32    4.23
   4  -6   6    7.29    5.28
  -4   6   6   19.51    5.39
   4  -6   6    6.48    3.20
   4   6   6    0.56    4.19
  -4   6  -6    8.49    2.58
  -4  -6   6    8.11    5.01
   4   6   6    9.35    2.83
  -4   6  -6    9.40    2.36
  -4   6  -6   10.37    3.10
  -4  -6   6    6.55    3.20
   4  -6  -6    3.77    2.23
   4  -6  -6    3.83    2.32
   5  -6   0   28.76    2.47
  -5   6   0   34.36    4.28
   5  -6   0   30.40    3.43
  -5   6   0   28.55    1.97
  -5   6   0   23.97    2.05
  -5   6   0   23.02    2.78
   5  -6   0   27.78    2.37
   5  -6   0   28.44    2.19
   5  -6   1   16.31    2.20
  -5   6   1   16.20    1.72
   5  -6   1   10.40    2.92
   5   6  -1   13.03    1.64
   5   6  -1   14.69    1.98
   5  -6   1   16.57    2.26
  -5   6   1   22.19    3.69
  -5   6   1   19.30    2.75
   5  -6   1   15.49    1.92
   5   6   1   14.62    1.49
  -5   6  -1   15.48    1.90
   5  -6  -1   10.91    2.54
   5  -6  -1   14.95    1.62
  -5   6  -1   20.01    3.90
   5  -6  -1   14.11    2.12
  -5   6  -1   16.39    1.87
   5  -6  -1   17.67    2.08
  -5   6  -1   20.70    2.79
   5  -6   2   93.10    4.41
  -5   6   2   98.05    6.03
  -5   6   2  100.99    4.86
   5   6  -2   93.79    4.13
   5   6  -2   96.47    4.28
   5  -6   2  103.78    3.85
   5  -6   2   98.41    4.60
   5  -6   2  101.27    5.98
  -5   6   2   98.52    4.08
   5   6  -2  101.44    4.47
  -5  -6  -2  101.49    4.38
   5   6  -2   95.62    3.57
  -5   6  -2   91.11    6.50
  -5   6  -2   97.57    4.86
   5   6   2   99.96    3.29
  -5   6  -2  100.92    4.14
   5   6   2  105.21    3.89
  -5   6  -2  100.18    4.18
   5   6   2  103.73    4.27
   5  -6  -2  100.53    3.93
   5   6   2   98.54    3.67
   5  -6  -2   95.06    3.78
  -5   6   3   17.74    2.77
   5  -6   3   18.93    2.61
   5   6  -3   16.58    2.90
  -5   6   3   14.66    1.91
   5   6  -3   11.54    2.06
   5  -6   3   16.40    3.82
   5   6  -3   13.99    1.89
   5   6  -3   13.12    1.98
   5   6   3   13.08    2.62
   5  -6  -3   18.80    2.07
  -5   6  -3   18.74    2.98
  -5  -6   3   21.41    2.12
  -5   6  -3   16.89    2.00
   5  -6  -3   15.04    2.27
   5   6   3   19.58    2.09
  -5   6  -3   17.69    2.16
  -5  -6   3   14.67    2.69
  -5   6   4    9.70    2.51
   5   6  -4   20.91    4.38
   5  -6   4   13.38    2.84
   5   6  -4   17.00    2.51
  -5   6   4    8.06    3.46
  -5   6   4   14.44    2.14
   5   6  -4    9.41    2.50
   5  -6   4   15.13    4.01
   5   6  -4   16.24    2.24
   5   6   4   13.98    2.15
  -5  -6   4   18.99    2.58
   5  -6  -4   15.94    2.17
  -5  -6   4   14.49    3.21
   5   6   4   14.23    3.45
  -5   6  -4   13.00    2.20
  -5   6  -4   14.39    2.34
  -5   6   5   11.10    3.03
  -5   6   5    6.42    4.09
   5   6  -5   11.72    2.28
   5   6  -5   16.85    3.35
   5   6  -5    7.60    2.62
   5   6  -5    9.38    5.31
   5  -6   5   10.16    4.37
   5  -6   5    9.15    3.38
  -5  -6   5   11.14    2.87
   5  -6  -5   11.52    2.13
   5   6   5   14.16    3.90
  -5   6  -5   14.07    2.53
  -5  -6   5   11.11    4.35
   5   6   5   11.20    2.62
  -5   6  -5   10.10    2.39
   5  -6  -5   12.32    2.44
  -5   6   6   43.07    6.79
   5   6  -6   43.99    4.02
   5  -6   6   42.05    5.02
  -5   6   6   48.22    5.55
   5  -6   6   37.79    7.08
   5   6  -6   37.94    4.57
  -5   6  -6   41.54    4.35
   5  -6  -6   33.80    3.78
   5   6   6   33.29    6.05
  -5  -6   6   42.26    4.64
   5   6   6   35.65    4.45
  -5  -6   6   48.99    6.61
   5  -6  -6   43.84    4.10
  -5   6  -6   38.12    3.88
  -6   6   0    0.65    1.87
   6  -6   0    1.29    2.03
  -6   6   0   -0.08    0.89
   6  -6   0    2.87    1.27
  -6   6   0   -0.77    3.39
   6  -6   0    0.97    1.45
  -6   6   0    0.65    1.24
  -6   6   1   22.97    2.14
  -6   6   1   30.10    3.30
   6  -6   1   31.36    2.88
   6   6  -1   31.71    2.63
   6  -6   1   29.02    3.62
  -6   6  -1   23.26    2.11
  -6   6  -1   30.97    3.17
   6  -6  -1   27.99    3.15
  -6   6  -1   24.74    2.16
   6   6   1   29.18    1.97
   6  -6  -1   29.35    2.46
   6  -6  -1   23.10    2.15
  -6   6   2    3.95    2.71
   6  -6   2    2.54    2.58
   6   6  -2    0.88    1.49
  -6  -6  -2    0.39    2.11
   6  -6   2    1.50    1.62
   6   6  -2    3.28    1.20
   6   6  -2    0.72    1.25
   6  -6   2    2.77    1.44
  -6   6   2    2.51    1.16
  -6   6  -2    2.22    1.29
   6   6   2    1.53    1.48
   6  -6  -2    2.44    1.36
  -6  -6   2    0.57    1.59
   6   6   2    1.10    1.06
  -6   6  -2    1.99    1.17
   6  -6  -2    4.24    1.58
   6   6   2    4.13    1.61
   6   6   2    1.31    1.15
  -6   6  -2    3.09    2.21
   6   6  -3   15.09    2.36
  -6   6   3   18.20    2.35
   6   6  -3   20.18    2.30
   6  -6   3   17.05    3.20
   6   6  -3   15.97    2.12
   6  -6   3   15.09    3.88
   6   6   3   21.55    1.86
   6  -6  -3   18.95    2.14
  -6   6  -3   17.94    2.26
   6   6   3   15.89    2.89
  -6  -6   3   18.05    2.84
  -6   6  -3   13.82    2.05
  -6  -6   3   18.76    1.97
   6   6   3   19.00    2.14
  -6   6   4   -3.03    2.06
   6   6  -4    0.09    1.72
   6  -6   4    3.04    3.30
   6   6  -4    5.48    3.64
  -6   6   4    0.09    1.38
   6  -6   4   -1.28    2.43
   6   6  -4   -0.43    2.22
  -6   6   4    4.24    3.67
   6   6  -4   -0.94    1.49
  -6  -6   4   -2.39    2.06
  -6   6  -4    1.83    1.82
  -6  -6   4   -0.31    2.70
   6   6   4   -2.38    2.75
  -6   6  -4   -1.27    1.38
   6   6   4    0.07    1.66
   6  -6  -4    0.60    1.53
   6   6  -5   14.42    2.56
  -6   6   5   12.83    4.73
   6   6  -5   30.31    6.37
   6  -6   5   10.64    4.55
   6   6  -5   19.54    3.93
   6  -6   5    8.52    2.98
   6   6  -5   12.42    2.82
  -6   6   5   16.53    3.62
   6  -6  -5   20.22    2.84
  -6  -6   5   12.86    4.42
   6   6   5   10.27    2.75
   6   6   5   10.14    4.51
   6  -6  -5   17.84    2.95
  -6   6  -5   13.82    2.65
  -6   6  -5   10.51    2.35
  -6  -6   5   11.31    2.98
   6  -6   6   -6.03    4.51
   6   6  -6    2.39    2.79
   6  -6   6    6.21    3.36
  -6   6   6    7.12    3.97
  -6   6   6   -0.15    4.72
   6   6  -6    8.60    2.81
  -6   6  -6    0.27    2.35
   6   6   6   -5.17    4.80
   6  -6  -6   -0.39    2.28
   6  -6  -6    2.57    2.59
   6   6   6    1.66    2.82
  -6   6  -6    0.21    2.73
  -6  -6   6   -4.32    4.65
  -7   6   0  113.23    5.63
   7  -6   0  123.32    5.52
   7  -6   0  112.01    6.26
  -7   6   0  120.61    4.76
  -7   6   1    0.11    1.02
   7  -6   1    4.14    2.71
  -7   6   1    2.06    2.48
   7  -6   1   -1.09    1.80
   7   6  -1   -1.03    1.46
  -7   6  -1    0.54    1.21
  -7   6  -1    0.66    2.35
  -7   6  -1    2.22    1.26
   7  -6  -1   -2.61    1.51
   7  -6  -1    1.95    2.07
   7  -6   2   46.74    5.15
   7   6  -2   44.33    3.23
   7   6  -2   41.09    3.29
  -7  -6  -2   47.72    3.72
  -7   6   2   42.72    2.90
   7  -6   2   46.65    3.71
  -7   6  -2   42.92    2.93
   7   6   2   45.56    2.78
  -7  -6   2   46.49    3.38
  -7  -6   2   42.56    3.08
   7   6   2   48.14    2.52
   7  -6  -2   39.59    2.95
   7   6   2   43.89    3.37
  -7   6  -2   45.23    2.98
   7   6  -3    1.03    1.76
   7   6  -3   -0.68    1.47
   7  -6   3   -0.04    1.89
  -7   6   3    2.47    1.45
   7   6  -3    0.17    1.75
   7  -6   3   -2.34    2.67
   7   6   3    0.89    1.31
   7  -6  -3    3.45    1.61
   7   6   3    0.14    2.33
  -7   6  -3    1.19    1.32
  -7  -6   3   -2.68    2.08
   7   6   3    1.59    1.73
  -7   6  -3    1.94    1.69
   7  -6   4   65.14    5.31
   7   6  -4   71.63    4.18
   7  -6   4   68.93    6.67
   7   6  -4   70.78    4.60
  -7   6   4   58.28    4.83
  -7   6   4   66.45    4.04
  -7   6   4   63.39    6.55
   7   6  -4   73.13    4.68
  -7   6  -4   68.24    4.04
   7   6   4   69.06    5.41
  -7  -6   4   62.82    5.42
  -7   6  -4   65.86    4.04
   7   6   4   69.92    3.60
   7  -6  -4   66.03    3.91
  -7  -6   4   63.15    4.14
   7   6   4   67.17    4.16
   7   6  -5    1.64    2.70
  -7   6   5    1.22    3.23
   7   6  -5    3.77    2.32
  -7   6   5   -0.29    4.09
   7  -6   5   -3.17    2.61
   7   6  -5    5.63    3.57
   7  -6   5  -11.16    4.25
  -7  -6   5   -0.55    4.19
   7  -6  -5   -1.32    2.01
   7   6   5   -1.68    2.38
  -7   6  -5   -1.57    2.18
   7   6   5    3.22    4.08
  -7   6  -5    0.99    2.05
   7   6   5    0.71    2.44
  -7  -6   5   -1.77    2.71
   8  -6   0    7.56    2.76
   8  -6   0    7.50    2.26
   8   6  -1    3.37    1.98
  -8   6   1    3.16    1.45
   8  -6   1    4.92    2.70
   8  -6   1    3.47    1.82
  -8   6  -1    1.57    1.60
   8   6   1    1.48    1.52
  -8   6  -1    1.58    1.36
   8   6   1    1.93    1.29
   8  -6  -1    0.63    2.22
   8  -6  -1    2.36    1.63
   8  -6   2   16.95    2.73
   8  -6   2   16.98    3.66
  -8  -6  -2   12.47    2.85
   8   6  -2   17.02    2.60
  -8   6   2   13.93    2.06
  -8   6  -2   19.85    2.53
  -8  -6   2   18.37    2.94
   8   6   2   17.24    2.51
   8  -6  -2   17.11    2.60
   8   6   2   17.54    1.85
  -8   6  -2   13.40    2.14
   8   6   2   15.16    2.36
  -8  -6   2   18.88    2.55
   8  -6   3    2.27    2.93
   8   6  -3    2.19    1.84
   8   6  -3   -1.40    1.96
   8  -6   3    4.94    2.21
  -8   6   3    1.70    1.50
   8  -6  -3    2.54    1.77
  -8  -6   3    2.05    2.63
  -8   6  -3    0.86    1.63
   8   6   3    2.99    1.50
   8   6   3    0.61    2.54
  -8   6  -3    2.29    1.53
   8   6   3    5.39    2.23
   8   6  -4    4.73    2.07
  -8   6   4    2.98    1.96
  -8   6   4    2.41    3.03
  -8   6   4    5.44    3.99
   8  -6   4   14.74    4.47
   8  -6   4    5.22    2.83
   8   6  -4   -0.04    2.12
   8   6   4    2.34    3.21
   8   6   4    4.41    2.60
   8   6   4    3.84    2.20
  -8   6  -4    4.36    2.15
   8  -6  -4    2.40    2.11
  -8  -6   4    3.02    3.35
  -8  -6   4    7.97    2.45
  -8   6  -4    4.59    2.14
   8  -6   5   -0.52    4.73
  -8   6   5    3.30    3.52
   8  -6   5    0.76    3.60
   8   6  -5    0.23    2.45
  -8   6   5   -3.83    4.93
   8   6  -5    2.83    2.63
  -8  -6   5    2.47    4.54
  -8   6  -5    0.39    2.54
   8   6   5    3.87    4.29
  -8   6  -5    3.75    2.73
   8   6   5   -1.42    2.44
   8  -6  -5    0.43    2.28
   9  -6   0    0.07    2.41
   9   6   0    0.23    2.10
   9  -6   0   -0.10    1.87
  -9   6   0    1.02    1.66
   9  -6   1   57.38    4.43
   9   6  -1   57.35    4.06
  -9   6   1   49.75    3.46
   9  -6   1   52.58    5.29
   9   6   1   59.04    2.80
  -9   6  -1   54.03    3.44
   9   6   1   59.01    3.17
   9   6   1   68.80    3.41
   9  -6  -1   55.53    4.08
   9  -6   2   -1.14    2.95
   9  -6   2    0.94    2.15
  -9   6   2    0.82    1.53
   9   6  -2   -2.82    1.60
   9  -6  -2    3.87    2.07
  -9   6  -2    0.91    1.54
  -9  -6   2    2.52    2.23
  -9   6  -2    3.24    2.10
   9   6   2    0.42    1.25
   9   6   2    2.45    2.15
   9  -6   3   48.32    4.69
   9  -6   3   53.80    6.31
  -9   6   3   50.60    3.79
   9   6  -3   56.49    4.34
   9   6  -3   44.40    4.05
   9   6   3   47.87    3.34
   9   6   3   45.09    4.62
  -9  -6   3   46.32    4.47
  -9   6  -3   47.87    3.61
  -9   6  -3   47.07    3.76
   9  -6  -3   45.69    3.89
  -9   6   4    0.77    2.93
   9  -6   4    4.28    4.32
   9   6  -4   -0.32    2.43
   9   6  -4    1.07    2.39
  -9   6   4    6.42    4.68
   9  -6   4    4.08    2.88
   9   6   4    4.02    3.47
  -9   6  -4    3.39    2.37
   9   6   4   -0.70    2.06
  -9  -6   4    4.19    3.54
  -9   6  -4    2.35    2.29
  10   6   0    7.82    2.29
  10  -6   0   13.35    3.73
 -10   6   0    8.79    2.05
  10  -6   0   10.78    2.49
  10  -6   1    7.37    2.55
  10  -6   1    6.65    3.67
 -10   6   1    7.61    1.95
  10   6  -1    8.39    2.71
  10   6   1    7.65    1.71
 -10   6  -1   10.60    2.20
  10  -6  -1    5.94    2.50
  10   6   1    9.92    1.76
  10   6   1   11.83    2.41
  10   6  -2   -1.42    2.07
 -10   6   2   -2.65    1.53
  10  -6   2    0.83    2.35
  10  -6   2    0.30    3.44
 -10  -6   2    3.26    2.72
 -10   6  -2    0.34    1.63
  10   6   2    3.59    1.77
  10  -6  -2    1.33    2.24
  10   6   2    0.53    2.44
 -10   6  -2   -3.54    1.99
 -10   6   3    1.55    2.13
  10   6  -3    2.44    2.66
  10  -6   3    5.78    4.29
  10   6  -3    2.00    2.59
  10  -6   3    6.25    3.16
 -10   6  -3    3.18    2.35
  10  -6  -3    4.20    2.41
 -10  -6   3    4.71    3.50
 -10   6  -3    3.15    2.32
  10   6   3    9.90    3.36
  10   6   3    2.95    2.02
  10   6  -4   10.37    3.10
  10  -6   4   15.15    5.29
  10  -6   4    5.43    3.73
  10   6  -4    8.21    3.23
 -10   6   4    2.26    5.13
 -10   6   4    7.98    3.60
 -10   6  -4    9.83    2.58
  10   6   4    3.48    2.46
  10  -6  -4    8.61    2.70
 -10   6  -4    6.24    2.94
  10   6   4   11.42    4.61
 -10  -6   4    6.18    3.97
 -11   6   0   33.99    3.41
  11  -6   0   31.09    4.32
  11   6   0   28.76    3.81
  11  -6   0   39.03    4.45
  11  -6   0   39.91    5.57
 -11   6   1   -1.82    1.79
  11  -6   1    0.07    2.68
  11  -6   1   -3.29    3.46
  11   6  -1   -5.67    2.17
  11   6   1    2.58    2.72
  11  -6  -1    1.78    2.61
  11   6   1    0.25    1.60
 -11   6  -1    0.42    1.73
  11   6  -2   15.93    3.62
  11  -6   2   11.71    4.16
  11  -6   2   21.15    3.87
 -11   6   2   20.45    3.01
 -11   6  -2   17.10    2.78
  11   6   2   15.12    2.99
  11  -6  -2   18.54    3.20
 -11  -6   2   13.03    3.07
  11   6   2   16.01    2.44
  11  -6   3    5.48    5.04
  11  -6   3    4.31    3.66
  11   6  -3   -0.78    2.85
 -11   6   3   -2.47    2.09
  11   6  -3    1.46    2.98
  11   6   3    0.84    3.43
  11   6   3    1.80    2.36
 -11   6  -3    2.78    2.32
 -11   6  -3   -1.96    2.62
  11  -6  -3   -1.88    2.61
  12  -6   0   66.95    6.81
 -12   6   0   67.71    4.51
  12  -6   0   66.24    5.57
  12   6   0   67.91    5.58
  12   6  -1    2.60    2.86
  12  -6   1   -9.14    3.63
 -12   6   1    0.16    2.08
  12  -6   1    0.39    2.87
 -12   6  -1   -2.00    2.14
  12  -6  -1   -3.19    2.60
  12   6   1    0.69    1.88
 -12   6   2    0.82    2.23
  12  -6   2    1.31    3.06
  12  -6   2    4.21    4.72
  12   6  -2   -0.34    3.20
  12  -6  -2    4.65    2.88
  12   6   2    0.49    2.18
  12   6   2   -2.82    2.82
 -12   6  -2    2.26    2.42
   0   7   0    0.33    0.80
   0  -7   0    0.57    0.78
   0  -7   0   -0.56    1.07
   0   7   0   -0.86    0.59
   0   7   0    0.57    1.48
   0  -7   0   -0.50    1.15
   0   7   0    0.65    0.91
   0   7  -1  100.07    3.57
   0   7  -1  100.26    3.73
   0  -7  -1  103.52    3.90
   0   7   1   98.89    4.41
   0  -7   1   99.48    4.37
   0   7   1   93.66    3.56
   0   7  -1   99.46    3.96
   0  -7   1  101.22    3.75
   0  -7   1  101.65    3.62
   0  -7   1  102.79    4.21
   0   7  -1   99.95    4.66
   0  -7   2   -0.08    1.27
   0   7  -2    0.96    1.04
   0   7   2    1.15    0.86
   0   7  -2    0.09    1.23
   0  -7  -2    1.14    1.15
   0  -7   2    1.12    1.54
   0   7   2   -1.71    1.78
   0   7  -2    0.13    0.94
   0  -7   2    0.21    0.89
   0  -7  -2   -0.02    0.52
   0   7   2    1.61    0.78
   0   7  -2    2.47    1.91
   0   7  -2   -0.04    0.65
   0   7   3   72.52    2.95
   0   7   3   75.13    3.15
   0   7  -3   69.87    3.49
   0   7   3   73.23    4.71
   0   7  -3   61.38    3.88
   0   7  -3   72.80    2.97
   0  -7  -3   72.19    2.78
   0  -7  -3   77.79    3.30
   0  -7   3   75.17    4.84
   0   7   3   72.45    3.77
   0  -7   3   71.65    3.53
   0   7  -3   73.12    5.29
   0   7  -3   72.12    3.86
   0  -7   3   79.04    3.34
   0   7  -4   -0.48    1.51
   0   7   4    3.22    1.78
   0  -7   4    2.28    1.77
   0  -7  -4   -0.21    1.15
   0   7  -4   -5.75    2.07
   0  -7   4   -4.73    2.41
   0   7  -4    0.51    1.35
   0   7   4    0.14    2.53
   0   7   4    2.74    1.86
   0   7  -4    0.51    3.65
   0  -7  -4    4.72    1.73
   0   7   4   -0.63    1.05
   0   7  -4   -0.13    1.13
   0   7  -5   62.58    3.54
   0   7  -5   60.46    5.45
   0   7  -5   56.44    4.30
   0  -7   5   63.80    6.26
   0   7   5   61.86    4.52
   0  -7  -5   48.80    3.92
   0  -7  -5   58.83    3.29
   0   7  -5   54.82    3.66
   0   7   5   62.25    5.98
   0  -7   5   62.17    4.22
   0   7   6    0.09    2.29
   0   7   6   -1.49    4.12
   0  -7   6    1.76    4.64
   0   7  -6   -0.87    2.03
   0   7  -6    1.14    2.63
   0  -7  -6    0.63    1.76
   0  -7   6    4.33    3.32
   0   7  -6    8.65    4.11
   0   7  -6    2.28    2.02
   1   7   0   10.30    1.06
  -1  -7   0   11.52    1.33
   1  -7   0    9.74    1.55
  -1   7   0    8.16    1.31
  -1  -7   0   11.04    1.26
  -1   7   0   12.03    2.36
   1   7   0   13.07    1.83
   1  -7   0   13.05    1.30
  -1   7   0   11.85    1.55
   1   7   0   10.39    1.27
   1   7   0   13.77    1.67
  -1   7   0   11.32    1.08
   1  -7   0   10.09    1.77
  -1  -7   0   11.25    1.69
   1   7  -1   17.12    1.53
  -1   7   1   18.96    1.61
   1   7  -1   19.34    2.27
  -1   7   1   26.14    2.90
   1  -7   1   19.40    1.76
  -1   7   1   15.81    1.73
   1   7  -1   19.84    1.84
   1   7  -1   19.28    1.53
  -1  -7  -1   18.20    1.90
  -1   7   1   18.01    1.09
   1  -7   1   17.86    1.77
   1  -7   1   20.06    2.51
   1  -7   1   18.94    2.12
  -1  -7   1   19.08    1.37
  -1   7  -1   15.74    1.64
  -1  -7   1   18.14    1.52
   1   7   1   18.66    2.11
   1   7   1   19.60    1.52
  -1   7  -1   16.53    1.52
  -1  -7   1   17.78    1.91
  -1   7  -1   24.05    2.91
  -1   7  -1   16.64    1.88
  -1  -7   1   16.19    2.00
   1  -7  -1   21.26    2.00
   1  -7  -1   17.53    1.26
  -1   7   2   20.51    1.59
   1  -7   2   17.42    2.48
   1   7  -2   19.21    1.95
   1  -7   2   23.90    2.93
  -1  -7  -2   15.74    1.82
   1  -7   2   18.91    1.96
   1   7  -2   21.39    2.82
   1  -7   2   19.66    2.12
   1   7  -2   19.51    1.84
  -1   7   2   23.61    2.83
   1   7  -2   18.88    1.36
   1  -7   2   19.23    1.50
   1   7  -2   17.87    2.17
  -1   7   2   20.50    1.60
  -1   7  -2   17.63    2.09
   1  -7  -2   19.69    1.17
   1   7   2   15.89    1.43
  -1  -7   2   20.06    1.84
  -1   7  -2   22.18    2.29
  -1   7  -2   23.05    3.12
   1   7   2   21.87    1.43
  -1   7  -2   20.47    1.34
   1  -7  -2   20.53    2.04
   1   7   2   23.33    2.59
  -1  -7   2   20.82    2.24
  -1  -7   2   25.85    2.72
  -1   7  -2   16.71    1.93
  -1  -7   2   19.77    1.72
   1   7  -3   12.08    1.78
  -1  -7  -3   11.76    1.31
  -1   7   3   18.51    1.89
   1  -7   3   10.22    1.78
   1   7  -3   11.81    2.93
  -1   7   3    8.53    2.60
  -1  -7  -3   12.80    1.75
   1   7  -3   14.40    1.44
   1  -7   3    9.82    2.39
  -1   7   3   13.42    2.04
   1   7  -3   12.52    2.19
   1   7  -3   15.14    2.14
   1  -7   3   14.94    1.80
  -1   7   3   13.18    1.54
  -1   7  -3   12.93    1.47
  -1   7  -3   10.87    1.68
  -1   7  -3   14.04    3.20
   1   7   3   11.78    1.40
   1   7   3    6.26    2.29
   1   7   3   13.56    1.99
   1  -7  -3   19.50    2.14
   1  -7  -3   13.24    1.44
  -1   7  -3   15.73    2.38
  -1  -7   3   14.58    1.92
  -1   7  -3   11.88    1.95
   1   7   3   13.65    1.68
   1   7  -4    1.29    2.25
   1   7  -4    0.48    1.32
   1  -7   4   -1.97    2.82
  -1   7   4    3.54    1.38
   1   7  -4   -3.74    3.51
  -1   7   4    2.12    1.94
  -1   7   4    3.42    1.84
  -1  -7  -4    2.03    1.53
   1   7  -4    0.74    1.64
  -1   7   4    1.28    2.57
   1  -7   4    1.28    1.85
   1   7  -4    0.73    1.20
  -1  -7  -4    1.97    1.11
  -1   7  -4    1.85    1.68
   1   7   4    1.40    2.31
  -1  -7   4    2.62    1.52
   1   7   4    2.55    1.84
   1  -7  -4    3.53    1.96
   1   7   4    4.69    1.71
  -1   7  -4    5.02    3.95
  -1  -7   4   -2.86    2.68
  -1   7  -4   -0.80    1.33
   1   7   4    1.70    1.17
  -1   7  -4    2.57    1.26
   1  -7  -4    1.08    1.20
  -1   7  -4    2.03    2.21
   1   7  -5   12.81    2.33
   1   7  -5   13.33    2.14
  -1  -7  -5   15.52    2.36
  -1  -7  -5   10.11    1.84
   1   7  -5    6.36    2.52
   1   7  -5   14.19    2.93
  -1   7   5   12.80    3.78
   1  -7   5   12.35    2.76
   1   7  -5    6.06    5.37
  -1   7   5    8.48    2.30
   1  -7   5   12.28    4.25
  -1   7  -5   11.79    3.48
  -1  -7   5   12.21    4.62
  -1   7  -5   12.89    2.64
  -1   7  -5   11.66    2.35
   1  -7  -5    8.63    1.75
   1   7   5    7.24    2.28
   1   7   5    5.62    3.46
  -1  -7   5   16.26    2.95
  -1   7  -5   11.42    1.99
  -1   7   6    2.90    4.20
  -1  -7  -6    9.97    2.81
  -1   7   6    5.47    2.95
  -1  -7  -6    2.51    1.88
   1   7  -6    7.75    4.11
   1   7  -6    0.95    2.71
   1   7  -6    4.33    2.11
   1  -7   6    3.01    4.51
   1   7  -6    1.47    2.48
   1  -7   6    3.08    3.23
  -1  -7   6   -1.24    4.74
  -1   7  -6    3.65    2.09
  -1   7  -6    5.21    2.50
  -1  -7   6    9.84    3.14
   1   7   6    4.96    2.53
   1  -7  -6    3.84    2.06
   1   7   6    5.29    4.27
  -1   7  -6    3.12    2.83
  -1   7  -6    0.73    3.52
   2  -7   0   52.44    2.36
  -2   7   0   55.64    3.98
   2   7   0   53.02    2.17
   2   7   0   55.76    2.24
  -2   7   0   51.27    2.58
   2   7   0   54.38    2.56
   2   7   0   52.80    2.63
   2  -7   0   51.10    3.42
  -2   7   0   54.31    2.25
   2   7   0   52.61    1.96
   2  -7   0   55.08    3.00
  -2   7   0   60.84    3.11
  -2   7   1    0.63    0.62
   2  -7   1   -0.62    1.46
   2  -7   1    0.30    1.13
  -2   7   1    0.93    0.78
   2   7  -1    0.50    0.57
  -2   7   1    2.19    2.17
  -2   7   1    1.42    1.28
   2   7  -1    1.58    0.75
   2   7  -1   -0.09    0.94
   2   7  -1    0.32    1.20
   2  -7   1    1.62    1.66
   2   7  -1    0.62    0.89
   2  -7   1    0.62    0.59
   2  -7   1    1.69    1.13
  -2  -7  -1    0.44    1.18
  -2  -7   1    1.97    1.32
  -2   7  -1    0.07    0.77
   2  -7  -1    0.70    1.13
   2   7   1   -0.66    0.58
   2   7   1    0.85    0.76
  -2   7  -1    1.06    1.33
   2   7   1    0.48    1.16
  -2   7  -1    2.31    2.14
   2   7   1    1.25    1.10
   2  -7  -1    0.74    0.71
  -2   7  -1    1.03    0.89
   2  -7   2   50.59    3.07
   2   7  -2   49.99    3.35
   2   7  -2   55.88    3.32
  -2   7   2   45.80    3.87
  -2   7   2   54.12    2.43
  -2   7   2   45.12    2.52
  -2  -7  -2   53.14    2.57
   2  -7   2   44.12    3.18
   2   7  -2   49.29    2.25
   2  -7   2   53.94    2.25
   2  -7   2   47.68    2.98
   2   7  -2   50.61    2.61
   2   7  -2   53.79    2.94
   2  -7   2   53.65    3.97
   2   7   2   48.61    3.17
   2   7   2   56.61    2.83
  -2  -7   2   55.08    3.29
  -2   7  -2   47.53    4.66
   2  -7  -2   52.95    2.93
  -2   7  -2   50.21    3.02
   2   7   2   55.10    2.20
  -2   7  -2   51.26    2.78
   2  -7  -2   54.07    2.03
   2  -7  -2   52.14    2.02
  -2   7  -2   51.69    2.14
  -2  -7   2   47.41    3.07
  -2  -7   2   52.60    2.70
  -2   7  -2   49.86    3.28
   2   7   2   52.65    2.19
   2   7  -3   -4.76    2.25
   2   7  -3    0.73    1.39
  -2   7   3    0.11    1.08
   2  -7   3   -1.81    1.53
   2  -7   3   -1.04    2.30
  -2   7   3    2.82    1.49
   2  -7   3    0.10    1.26
  -2   7   3   -0.02    2.25
   2   7  -3   -0.28    1.09
   2   7  -3    0.18    1.32
  -2  -7  -3    2.67    1.29
   2   7  -3   -1.36    0.85
  -2   7   3   -1.06    1.41
   2   7   3   -0.24    1.22
   2   7   3    1.48    0.81
  -2   7  -3    1.01    0.90
  -2   7  -3    1.50    1.12
   2   7   3   -0.14    1.70
  -2   7  -3   -1.06    1.84
  -2   7  -3    7.65    3.39
   2   7   3    1.46    1.24
   2  -7  -3    1.14    1.83
   2  -7  -3    0.37    0.83
  -2  -7   3    0.01    1.25
  -2  -7   3   -0.89    1.93
  -2   7  -3    3.09    1.56
  -2  -7   3   -2.20    1.58
   2   7  -4   32.20    3.62
   2   7  -4   36.97    2.58
   2   7  -4   28.19    3.48
  -2   7   4   32.71    3.41
  -2   7   4   33.17    3.33
   2   7  -4   39.48    4.91
  -2   7   4   32.67    4.48
   2   7  -4   35.33    2.93
  -2  -7  -4   30.14    2.31
   2  -7   4   36.47    4.78
   2  -7   4   34.17    3.27
  -2   7   4   31.38    2.40
   2  -7  -4   33.01    2.04
  -2   7  -4   21.80    4.75
   2  -7  -4   31.59    2.36
  -2   7  -4   36.95    4.27
   2   7   4   33.91    2.02
  -2  -7   4   22.58    4.18
  -2   7  -4   31.67    2.63
   2   7   4   34.42    4.20
  -2  -7   4   36.86    4.48
  -2   7  -4   33.98    2.54
   2   7   4   32.32    3.05
  -2   7  -4   33.77    3.03
   2   7   4   29.67    3.02
   2  -7   5   -3.78    3.47
   2   7  -5    1.43    1.53
  -2   7   5   -5.09    2.22
   2   7  -5   -2.13    1.79
   2  -7   5    0.07    2.26
   2   7  -5   -1.76    2.89
  -2  -7  -5    0.47    1.34
   2   7  -5    1.37    5.08
  -2   7   5   -1.14    3.10
  -2   7  -5    5.33    3.39
  -2   7  -5   -1.22    1.66
  -2  -7   5   -1.37    3.89
   2  -7  -5   -0.01    1.46
  -2   7  -5    1.21    1.44
   2   7   5    1.64    2.06
  -2  -7   5    3.24    2.19
   2   7   5   -5.82    2.89
  -2   7  -5   -1.09    1.89
   2   7  -6   24.68    3.52
   2  -7   6   20.20    5.71
  -2  -7  -6   23.12    2.84
  -2   7   6   21.01    3.96
  -2   7   6   22.83    5.88
   2   7  -6   25.88    5.36
   2   7  -6   22.99    3.09
   2  -7   6   26.88    3.98
   2   7  -6   23.38    3.92
  -2  -7   6   34.12    6.00
  -2   7  -6   25.03    3.46
  -2   7  -6   27.54    3.71
   2  -7  -6   26.69    2.96
  -2   7  -6   20.54    2.88
  -2  -7   6   21.07    3.54
   2   7   6   26.95    5.64
   2   7   6   23.74    3.86
  -3   7   0    0.56    1.01
   3  -7   0    0.48    1.01
  -3   7   0    3.65    2.25
   3  -7   0    0.07    0.86
   3   7   0    0.70    0.77
   3  -7   0   -0.70    1.46
  -3   7   0    1.23    1.28
   3   7   0    0.58    0.95
   3  -7   0    0.84    1.23
   3   7   0   -0.42    0.69
  -3   7   0   -0.01    0.77
   3   7  -1   22.40    1.38
  -3   7   1   25.15    2.41
   3  -7   1   24.81    3.11
  -3   7   1   21.05    1.96
   3   7  -1   23.55    1.84
  -3   7   1   33.20    4.01
   3  -7   1   25.38    2.06
   3  -7   1   20.20    2.42
   3   7  -1   23.82    1.82
   3   7  -1   25.00    2.23
  -3   7   1   22.00    1.63
   3   7  -1   22.77    1.59
   3  -7   1   24.14    1.40
   3  -7   1   23.77    2.21
  -3  -7   1   20.86    1.83
   3  -7  -1   24.56    1.31
   3   7   1   23.08    1.87
   3   7   1   24.19    1.69
   3   7   1   21.02    1.62
   3  -7  -1   21.51    1.66
  -3   7  -1   21.16    2.49
  -3   7  -1   24.90    2.10
   3  -7  -1   21.34    2.19
   3   7   1   22.90    1.42
  -3   7  -1   20.24    1.67
   3   7   1   23.12    1.32
   3   7  -2   54.50    2.45
   3   7  -2   48.34    2.43
   3   7  -2   45.90    3.22
  -3   7   2   57.21    4.24
   3  -7   2   46.08    2.97
   3  -7   2   47.49    2.26
   3  -7   2   51.45    4.05
   3  -7   2   43.14    3.32
  -3   7   2   46.66    2.72
  -3  -7  -2   48.63    2.39
   3  -7   2   47.80    3.07
   3   7  -2   46.65    2.93
  -3   7   2   49.92    2.58
   3   7   2   51.01    3.14
   3  -7  -2   50.11    2.25
   3  -7  -2   47.52    3.04
   3  -7  -2   48.41    2.11
  -3   7  -2   51.92    3.32
  -3  -7   2   43.63    3.08
  -3   7  -2   47.11    2.80
   3   7   2   50.35    2.62
  -3  -7   2   46.40    2.86
  -3   7  -2   45.26    5.15
  -3  -7   2   51.10    2.25
   3   7   2   52.19    2.32
  -3   7  -2   47.44    2.86
   3   7   2   46.88    2.04
  -3   7   3   22.16    3.66
   3  -7   3   22.45    3.93
  -3   7   3   23.29    2.54
   3   7  -3   21.06    2.07
   3   7  -3   16.43    2.21
   3  -7   3   21.16    2.14
   3   7  -3   20.43    3.41
  -3   7   3   19.57    3.47
   3   7  -3   16.81    2.36
  -3   7   3   16.85    1.93
   3  -7   3   23.95    2.71
   3  -7  -3   19.98    1.79
  -3  -7   3   18.30    2.47
  -3   7  -3   29.74    3.52
   3   7   3   18.28    2.06
  -3  -7   3   19.02    3.01
  -3  -7   3   21.08    2.23
   3   7   3   24.43    3.29
  -3   7  -3   21.07    2.55
  -3   7  -3   22.36    1.85
   3  -7  -3   20.05    1.76
   3   7   3   19.70    2.00
  -3   7  -3   18.33    2.08
  -3   7  -3   23.28    4.38
  -3   7   4    1.01    2.09
  -3   7   4   -0.35    1.98
   3   7  -4    6.14    3.68
   3   7  -4   -1.34    1.17
   3  -7   4    1.93    1.86
   3  -7   4   -2.66    3.14
   3   7  -4   -1.81    1.36
  -3   7   4   -0.75    1.11
  -3   7   4   -0.39    2.60
   3   7  -4    0.36    1.97
  -3  -7   4    4.70    2.86
  -3   7  -4    2.40    1.72
  -3   7  -4   -1.21    2.86
   3   7   4   -0.19    1.45
   3  -7  -4   -0.30    1.11
  -3   7  -4    0.52    1.28
   3  -7  -4    1.59    1.35
   3   7   4    2.81    2.31
  -3   7  -4    0.36    1.31
  -3  -7   4    3.01    1.72
   3   7  -5    8.54    2.01
  -3   7   5    7.57    2.75
   3   7  -5    5.65    2.09
   3   7  -5   10.93    5.43
   3  -7   5   -0.07    2.54
  -3   7   5    9.59    3.73
   3   7  -5    8.63    3.34
   3  -7   5   12.29    4.33
  -3  -7  -5    8.55    1.87
   3  -7  -5    5.61    1.89
   3   7   5    7.06    3.34
  -3  -7   5    5.68    2.29
  -3   7  -5   11.73    4.31
  -3   7  -5    1.96    2.17
  -3   7  -5    8.48    2.00
  -3   7  -5    5.23    1.78
  -3  -7   5   15.25    4.08
   3   7   5    4.79    2.12
   3  -7  -5    6.70    1.83
   3  -7   6   12.26    3.90
  -3  -7  -6   14.78    2.31
   3   7  -6   18.15    2.81
  -3   7   6   12.71    3.17
   3   7  -6   15.29    3.06
  -3   7   6    6.81    4.77
   3  -7   6   12.39    5.37
   3   7   6   17.30    3.30
  -3   7  -6   12.73    2.74
  -3  -7   6    4.66    5.03
   3  -7  -6   15.78    2.62
  -3  -7   6   14.34    3.44
  -3   7  -6   13.75    3.21
   3  -7  -6   16.34    2.54
   3   7   6    9.84    4.29
  -4   7   0    2.10    2.63
   4  -7   0   -0.56    1.49
  -4   7   0    1.86    1.62
   4  -7   0    0.99    1.19
  -4   7   0    1.91    1.17
   4   7   0    1.93    0.93
   4  -7   0    2.95    1.88
   4  -7   0   -0.73    1.10
   4   7   0    1.73    0.98
  -4   7   0   -0.15    0.95
   4   7   0    0.11    1.09
   4  -7   1   69.79    3.32
   4  -7   1   75.40    2.69
   4   7  -1   72.18    3.26
  -4   7   1   80.96    4.07
   4   7  -1   71.14    3.62
   4   7  -1   69.25    2.98
   4  -7   1   61.28    3.63
  -4   7   1   73.01    3.35
   4   7  -1   70.85    2.67
  -4   7   1   67.43    5.24
   4  -7   1   70.59    4.61
   4  -7   1   69.85    3.65
   4  -7  -1   62.47    3.47
   4   7   1   69.86    2.85
   4  -7  -1   73.90    2.98
   4   7   1   67.03    2.49
   4  -7  -1   69.83    2.75
   4   7   1   70.95    2.73
   4   7   1   74.71    2.74
  -4   7  -1   73.14    4.05
  -4   7  -1   80.08    5.96
  -4   7  -1   72.16    3.26
  -4   7  -1   69.51    3.37
   4  -7   2   99.47    4.69
   4  -7   2   90.71    5.82
   4   7  -2  102.86    3.86
  -4   7   2  106.81    4.91
   4   7  -2  102.98    4.40
   4   7  -2  101.65    3.76
   4  -7   2  107.05    3.76
   4   7  -2  100.88    4.40
  -4   7   2  110.93    6.43
  -4   7   2   99.31    4.14
  -4   7  -2  106.39    5.03
   4   7   2  108.39    4.48
  -4   7  -2  101.72    4.19
  -4  -7   2  109.52    4.49
  -4   7  -2  104.68    4.36
   4   7   2  108.57    3.75
  -4   7  -2  107.63    6.86
   4   7   2  104.89    3.86
   4  -7  -2  111.97    3.85
   4  -7  -2   99.68    3.64
  -4   7   3   54.20    3.07
   4  -7   3   46.61    4.84
   4  -7   3   57.14    3.12
   4   7  -3   57.76    4.33
   4   7  -3   48.90    3.34
   4   7  -3   53.58    3.13
   4   7  -3   56.25    3.04
   4  -7   3   56.46    3.80
  -4   7   3   53.55    3.48
   4  -7  -3   47.39    2.69
  -4  -7   3   53.83    3.85
  -4  -7   3   53.72    2.91
   4   7   3   49.70    2.95
  -4   7  -3   53.44    3.01
   4   7   3   50.15    4.08
  -4   7  -3   51.42    3.32
   4  -7  -3   50.43    2.61
   4   7   3   49.13    2.94
  -4   7  -3   56.83    4.28
  -4  -7   3   43.85    3.94
   4   7  -4    0.73    2.11
   4   7  -4   -6.34    3.38
   4   7  -4    2.91    1.64
   4  -7   4    0.98    1.73
   4  -7   4    3.70    3.27
  -4   7   4   -0.18    1.93
   4   7  -4   -0.09    1.30
  -4   7   4    1.83    1.50
  -4   7   4    1.60    2.82
   4   7   4   -2.34    1.20
  -4  -7   4    4.46    2.76
  -4   7  -4    0.31    1.56
  -4  -7   4    0.43    1.82
  -4   7  -4    1.15    3.13
   4   7   4    0.06    2.50
  -4   7  -4    1.55    1.77
   4  -7  -4    4.46    1.41
  -4   7   5   38.20    4.35
   4  -7   5   45.26    6.11
   4  -7   5   34.42    4.14
  -4   7   5   40.82    5.85
   4   7  -5   31.25    6.31
   4   7  -5   39.99    4.82
   4   7  -5   36.29    3.70
   4   7  -5   37.17    3.14
   4  -7  -5   40.37    3.10
  -4  -7   5   40.50    4.13
  -4   7  -5   39.34    3.78
  -4   7  -5   36.07    3.19
  -4  -7   5   46.75    5.87
  -4   7  -5   33.74    3.39
   4   7   5   43.07    5.13
   4  -7  -5   40.76    3.42
   4   7   5   31.73    3.61
   4  -7   6   39.37    6.95
   4   7  -6   40.37    4.42
   4   7  -6   43.67    4.05
  -4   7   6   47.41    5.78
   4  -7   6   49.41    5.38
  -4   7   6   51.02    7.37
  -4  -7   6   48.98    6.75
  -4   7  -6   46.24    4.75
   4   7   6   49.05    7.04
   4  -7  -6   42.56    3.92
  -4  -7   6   45.89    4.85
  -4   7  -6   48.49    4.43
  -4   7  -6   43.27    3.99
   4  -7  -6   52.01    3.61
   4   7   6   47.81    4.82
   5  -7   0    2.60    1.95
   5   7   0    0.55    1.13
   5  -7   0    2.13    1.36
  -5   7   0    0.44    1.95
   5   7   0    0.46    1.17
  -5   7   0   -1.33    1.05
   5   7   0    2.01    1.15
   5  -7   0    3.02    1.51
  -5   7   0    0.30    3.31
  -5   7   0    0.29    1.00
   5  -7   1   -0.74    2.42
   5   7  -1   -0.69    1.34
  -5   7   1   -0.76    1.09
   5  -7   1   -0.03    1.35
   5  -7   1    0.27    1.47
   5   7  -1   -1.80    1.02
  -5   7   1   -1.83    1.78
   5  -7   1   -1.31    1.00
  -5   7   1    0.54    3.29
  -5   7  -1    0.65    1.17
   5  -7  -1   -1.14    1.83
   5   7   1    0.49    0.97
  -5   7  -1    5.86    3.74
  -5   7  -1   -1.17    1.85
   5  -7  -1   -1.34    1.22
  -5   7  -1   -0.45    1.13
  -5   7   2   34.08    3.52
   5   7  -2   31.65    2.70
  -5   7   2   32.02    2.47
   5  -7   2   33.43    3.17
   5   7  -2   37.14    2.59
   5   7  -2   32.45    2.76
   5  -7   2   37.41    4.31
   5   7  -2   33.62    2.11
   5  -7   2   34.33    2.37
   5  -7  -2   31.26    2.47
  -5   7  -2   33.78    2.60
   5   7   2   31.63    2.71
  -5   7  -2   30.88    2.45
  -5  -7   2   29.37    2.71
  -5   7  -2   36.93    3.56
   5   7   2   32.08    2.06
   5   7   2   32.89    2.45
   5  -7  -2   34.20    2.18
   5  -7   3   -0.82    2.80
  -5   7   3    0.92    1.15
   5  -7   3   -0.08    1.64
   5   7  -3   -0.58    2.85
  -5   7   3   -1.30    2.17
   5   7  -3    0.49    1.54
   5   7  -3    0.31    1.29
   5   7  -3    1.14    1.31
  -5  -7   3    2.53    1.38
   5   7   3   -0.98    2.11
  -5  -7   3    1.22    2.17
   5   7   3   -0.45    1.42
   5   7   3    1.93    1.24
   5  -7  -3   -1.23    1.61
  -5   7  -3    2.02    2.41
  -5   7  -3   -1.54    1.39
  -5   7  -3   -1.59    1.10
   5  -7  -3   -1.66    1.15
   5   7  -4   -2.03    3.70
   5  -7   4   -0.67    2.75
  -5   7   4   -0.12    1.37
   5  -7   4    7.99    3.78
   5   7  -4    1.92    1.61
   5   7  -4   -3.17    1.69
  -5   7   4    3.04    2.14
   5   7  -4   -0.64    1.94
  -5   7   4    0.21    2.95
  -5  -7   4   -3.49    1.68
  -5   7  -4   -0.74    1.78
  -5   7  -4   -3.45    1.38
  -5  -7   4   -2.08    2.71
   5  -7  -4   -2.24    2.17
   5   7   4    3.10    2.80
   5   7   4   -0.71    1.63
   5  -7  -4   -1.27    1.36
   5   7  -5    0.27    1.75
   5   7  -5    2.10    2.34
   5   7  -5    0.53    3.12
   5   7  -5   11.24    5.93
  -5   7   5    1.22    3.60
  -5   7   5   -2.38    2.88
   5  -7   5    2.36    3.20
   5  -7   5   -7.56    3.87
   5  -7  -5   -0.52    1.62
  -5  -7   5    1.08    2.70
   5   7   5   -0.80    2.06
  -5  -7   5    5.49    4.05
  -5   7  -5   -2.76    1.89
   5   7   5    1.68    3.49
  -5   7  -5    0.95    2.06
   5  -7  -5    3.49    2.16
  -5   7   6   18.29    5.69
   5  -7   6   15.27    5.41
  -5   7   6   23.85    4.75
   5  -7   6   14.57    3.66
   5   7  -6   21.07    3.15
   5   7  -6   19.49    3.70
   5   7   6   16.09    5.34
   5  -7  -6   24.03    3.22
  -5  -7   6   16.53    5.46
  -5   7  -6   22.92    3.71
  -5   7  -6   20.27    3.39
   5   7   6   17.02    3.63
   5  -7  -6   21.10    3.10
  -6   7   0  108.30    5.45
  -6   7   0  105.23    4.46
   6  -7   0  108.84    5.02
   6   7   0  108.78    4.55
   6  -7   0  105.58    5.99
  -6   7   0  105.70    4.48
   6  -7   1   12.10    3.21
  -6   7   1   17.68    2.06
   6  -7   1   19.53    2.60
  -6   7   1   27.06    3.52
   6   7  -1   22.18    2.47
   6   7  -1   21.57    2.47
  -6   7  -1   21.76    2.29
   6  -7  -1   21.32    3.09
   6   7   1   17.11    1.91
  -6   7  -1   19.79    2.32
   6  -7  -1   19.95    1.99
  -6   7  -1   23.72    3.04
   6  -7  -1   20.08    2.44
   6  -7   2   68.15    3.35
   6   7  -2   61.00    3.75
  -6   7   2   63.83    3.39
   6  -7   2   63.62    4.03
   6  -7   2   59.31    5.61
   6   7  -2   61.69    3.48
  -6   7   2   65.52    4.80
   6   7  -2   66.27    2.91
   6   7   2   67.57    2.86
  -6   7  -2   58.35    4.65
   6   7   2   62.80    3.39
  -6  -7   2   60.07    3.32
  -6   7  -2   68.83    3.53
   6   7   2   62.01    3.48
   6  -7  -2   68.02    3.55
  -6   7  -2   65.52    3.61
   6   7   2   62.26    2.90
  -6   7   3   13.54    2.18
   6   7  -3   11.95    2.29
   6   7  -3   10.00    1.96
   6   7  -3   10.24    1.90
   6  -7   3   10.33    2.80
   6  -7   3    9.37    3.22
  -6   7  -3   11.78    2.09
   6  -7  -3   13.31    1.91
  -6   7  -3    9.78    1.97
  -6  -7   3   15.65    2.77
   6   7   3   12.75    2.83
   6   7   3    9.70    1.89
  -6   7   4   73.00    4.08
   6   7  -4   72.72    4.51
  -6   7   4   61.50    6.51
   6   7  -4   73.10    4.05
   6  -7   4   70.17    7.04
   6   7  -4   82.50    7.03
   6   7  -4   75.02    4.70
  -6   7   4   66.36    5.09
   6  -7   4   60.67    5.19
  -6  -7   4   71.45    4.01
  -6  -7   4   69.27    5.58
  -6   7  -4   74.43    4.25
   6  -7  -4   70.44    3.92
   6   7   4   72.30    5.51
  -6   7  -4   72.19    4.11
   6   7   4   73.36    4.23
   6   7  -5   11.48    3.60
   6   7  -5   21.24    6.09
   6  -7   5   15.04    5.32
   6  -7   5   12.06    3.69
  -6   7   5   17.39    3.97
  -6   7   5   14.38    4.96
   6   7  -5   16.85    2.81
   6   7  -5   13.77    3.10
   6  -7  -5   14.45    2.62
   6   7   5   12.74    2.95
  -6  -7   5   15.29    2.98
  -6  -7   5    9.38    4.50
  -6   7  -5   15.63    2.98
   6   7   5   14.18    4.36
  -6   7  -5   15.04    2.78
   7   7   0   54.83    3.63
  -7   7   0   56.95    4.61
  -7   7   0   55.51    3.25
   7  -7   0   56.58    4.05
   7  -7   0   61.73    5.16
   7   7  -1    1.85    1.47
  -7   7   1   -0.31    1.18
  -7   7   1   -0.97    2.35
   7  -7   1    0.97    2.57
   7  -7   1   -0.93    2.08
  -7   7  -1    0.72    2.32
   7  -7  -1    3.82    1.64
   7   7   1    0.42    1.37
   7  -7  -1   -1.34    1.85
  -7   7  -1   -1.06    1.25
  -7   7  -1   -0.68    1.23
   7   7  -2    1.84    1.74
  -7   7   2    1.32    1.31
   7  -7   2   -0.95    2.87
   7  -7   2    0.85    2.03
   7   7  -2   -1.83    1.46
   7  -7  -2    1.95    1.51
  -7   7  -2   -0.58    1.57
   7   7   2   -1.09    1.80
  -7   7  -2    0.12    1.33
   7   7   2    2.30    1.71
   7   7   2    1.21    1.09
  -7  -7   2   -0.34    1.78
  -7  -7   2    0.74    1.94
   7  -7   3   -0.28    2.17
   7   7  -3    1.10    1.81
   7   7  -3   -0.75    1.69
   7  -7   3   -3.16    2.84
   7   7  -3    1.08    1.64
  -7   7   3    1.26    1.38
   7   7   3    1.20    1.43
  -7  -7   3    5.90    2.57
  -7   7  -3    0.61    1.61
   7   7   3    1.05    1.75
   7  -7  -3   -0.46    1.56
   7   7   3   -1.31    2.37
  -7   7  -3   -1.41    1.67
   7  -7   4   28.30    3.91
   7   7  -4   33.82    3.42
  -7   7   4   32.70    3.36
   7   7  -4   38.93    3.85
   7   7  -4   37.55    3.88
  -7   7   4   29.18    5.20
  -7   7   4   32.51    4.54
   7  -7   4   37.28    6.13
   7   7   4   38.27    4.61
  -7   7  -4   40.60    3.73
  -7  -7   4   36.10    4.62
  -7  -7   4   40.85    3.36
   7  -7  -4   35.58    3.24
   7   7   4   40.67    3.55
  -7   7  -4   38.07    3.49
   7   7   4   27.30    3.17
   7  -7   5   -9.32    4.41
   7   7  -5    1.79    2.67
   7   7  -5   -6.65    3.09
  -7   7   5   -0.30    4.66
   7   7  -5    0.74    2.19
   7  -7   5   -1.01    3.35
  -7   7   5    3.71    3.26
   7  -7  -5    3.20    2.18
  -7   7  -5    0.23    2.44
  -7  -7   5   -0.87    4.29
   7   7   5    0.18    2.47
   7   7   5    4.14    4.41
  -7   7  -5   -1.00    2.42
   8  -7   0    3.21    2.59
   8  -7   0   -1.73    1.75
   8   7   0    0.69    1.79
  -8   7   0    0.44    1.38
   8  -7   1   51.36    5.19
   8  -7   1   55.04    4.16
   8   7  -1   47.08    3.63
  -8   7   1   47.92    3.15
  -8   7  -1   47.73    3.43
  -8   7  -1   49.68    3.20
   8  -7  -1   44.06    4.31
   8  -7  -1   49.04    3.58
   8   7  -2   39.10    3.42
   8  -7   2   50.78    5.73
  -8   7   2   39.36    3.08
   8   7  -2   42.35    3.46
  -8  -7  -2   42.23    3.48
   8  -7   2   33.48    4.01
   8   7   2   39.54    3.20
  -8  -7   2   38.23    3.18
   8  -7  -2   42.01    3.29
  -8   7  -2   37.75    3.09
   8   7   2   39.14    2.45
  -8  -7   2   36.42    3.76
   8   7   2   44.05    3.31
  -8   7  -2   38.88    3.04
   8   7  -3   44.44    3.46
   8  -7   3   39.88    4.50
   8  -7   3   38.11    5.71
   8   7  -3   38.01    3.71
  -8   7   3   38.61    3.27
   8   7   3   42.83    3.32
   8   7   3   37.90    3.00
   8  -7  -3   43.09    3.41
  -8   7  -3   44.29    3.57
   8   7   3   39.12    4.41
  -8   7  -3   44.34    3.44
   8  -7   4   -1.80    2.50
  -8   7   4   -2.20    2.82
   8  -7   4   -0.24    3.96
   8   7  -4   -4.30    2.27
   8   7  -4    1.25    2.24
  -8   7   4    2.24    1.96
  -8   7   4   -0.30    3.63
  -8   7  -4   -2.25    1.89
  -8  -7   4    1.21    3.42
   8  -7  -4    1.83    1.98
   8   7   4    2.15    3.52
  -8   7  -4   -1.98    2.15
   8   7   4    2.30    2.33
   8   7   4   -3.65    2.03
   8  -7   5   33.48    4.81
  -8   7   5   19.08    6.09
   8  -7   5   24.24    6.04
   8   7  -5   28.79    4.18
   8   7  -5   24.86    3.62
  -8   7   5   24.43    4.53
  -8  -7   5   34.31    5.69
   8  -7  -5   35.76    3.83
  -8   7  -5   27.58    3.60
   8   7   5   28.88    4.09
   8   7   5   32.30    5.79
  -8   7  -5   25.70    3.70
  -9   7   0    2.05    1.49
   9   7   0    1.56    1.95
   9  -7   0    7.18    2.43
   9  -7   0    5.88    3.00
   9  -7   1   10.57    3.05
   9  -7   1    8.04    3.48
  -9   7   1    9.20    1.83
   9   7  -1   12.38    2.70
  -9   7  -1    8.31    2.46
   9   7   1   10.75    2.23
   9  -7  -1   11.17    2.49
  -9   7  -1   11.61    2.09
   9  -7   2   25.37    3.54
   9   7  -2   23.39    3.14
   9   7  -2   19.30    2.88
  -9   7   2   24.55    2.80
   9  -7   2   21.76    4.60
   9   7   2   20.29    2.77
  -9   7  -2   24.93    2.87
  -9  -7   2   21.63    2.92
  -9   7  -2   21.83    2.91
   9  -7  -2   21.29    2.94
   9   7   2   23.43    2.29
  -9   7   3    4.79    1.85
   9  -7   3    2.56    2.70
   9   7  -3    5.90    2.21
   9   7  -3   10.58    2.84
   9  -7   3   11.54    4.44
  -9   7  -3    8.81    2.36
  -9  -7   3    7.77    3.70
   9   7   3    8.34    2.03
   9  -7  -3    7.92    2.32
   9   7   3    9.34    2.98
  -9   7  -3   10.21    2.48
   9   7  -4    4.36    2.99
   9  -7   4    3.69    4.29
   9   7  -4   -1.44    2.21
  -9   7   4    0.69    4.11
  -9   7   4    4.37    2.44
   9  -7   4    0.86    3.26
  -9   7   4    5.75    3.75
   9   7   4    3.86    3.86
  -9   7  -4    3.22    2.42
  -9   7  -4   -2.92    2.27
   9  -7  -4    4.17    2.49
   9   7   4    3.18    2.42
  -9  -7   4    1.21    3.65
  10   7   0   34.22    3.92
  10  -7   0   38.02    4.12
 -10   7   0   37.61    3.23
  10  -7   0   31.28    3.97
  10  -7   0   40.01    5.34
 -10   7   1    5.28    2.19
  10  -7   1   -0.90    2.18
  10  -7   1   -0.02    3.48
  10   7  -1    0.30    2.26
  10   7   1    7.17    2.58
  10  -7  -1    5.23    2.52
 -10   7  -1    3.89    1.81
 -10   7   2   26.49    3.27
  10   7  -2   19.31    3.11
  10  -7   2   21.28    3.70
  10  -7   2   21.42    5.12
 -10   7  -2   20.32    2.80
 -10   7  -2   24.17    3.72
  10  -7  -2   20.88    3.25
  10   7   2   18.75    2.32
  10   7   2   21.80    2.76
  10   7  -3    2.93    2.73
 -10   7   3    2.70    1.95
  10  -7   3    0.20    4.04
  10   7  -3    1.06    2.66
  10  -7   3    2.22    2.98
  10   7   3   -1.00    2.03
  10   7   3    1.36    3.05
  10  -7  -3    5.08    2.65
 -10   7  -3    3.24    2.04
 -10   7  -3    4.94    2.36
 -10  -7   3    1.04    3.12
  11   7   0    6.62    2.97
 -11   7   0   16.35    2.85
  11  -7   0   15.91    3.10
  11  -7   0   12.15    4.06
  11   7  -1    5.75    2.88
  11  -7   1    4.97    3.80
 -11   7   1    1.44    2.07
  11  -7   1    2.33    2.91
  11  -7  -1    3.05    2.68
 -11   7  -1    4.75    2.21
  11   7   1    7.98    2.93
  11   7  -2   -0.23    2.83
  11  -7   2   -2.14    4.28
 -11   7   2    0.48    2.11
  11  -7   2    4.89    3.28
  11   7   2    6.49    1.99
  11  -7  -2    5.83    2.72
 -11   7  -2   -0.71    2.18
  11   7   2    6.22    2.42
  11  -7   3    2.81    3.82
 -11   7   3    4.78    2.38
  11  -7   3   -2.65    4.58
  11   7  -3   -2.50    3.08
  11   7  -3   -0.58    3.09
  11   7   3   -1.93    3.40
  11  -7  -3    3.50    3.04
 -11   7  -3   -1.83    2.61
  11   7   3    1.02    2.14
 -11   7  -3    1.98    2.33
  12  -7   0   20.71    4.85
  12  -7   0   16.48    3.68
  12   7   0   12.72    3.73
 -12   7   0   19.07    3.02
 -12   7   1   -1.66    2.13
  12  -7   1   -1.82    2.91
  12  -7   1   -0.96    4.40
  12   7  -1   -5.39    2.95
  12   7   1    0.36    1.95
 -12   7  -1    1.37    2.21
  12  -7  -1    7.64    3.14
   0   8   0    3.81    0.87
   0  -8   0    5.50    1.69
   0   8   0    4.62    1.15
   0   8   0    2.23    1.14
   0  -8   0    4.98    1.19
   0   8   0    5.09    1.95
   0  -8   0    4.49    1.48
   0   8  -1    1.36    1.29
   0  -8   1   -0.55    1.66
   0   8  -1    3.40    2.05
   0   8  -1    2.24    1.12
   0   8   1    1.85    1.05
   0  -8  -1    0.54    1.30
   0   8   1   -0.61    0.54
   0   8   1   -0.18    0.81
   0  -8   1    0.63    1.26
   0  -8   1    1.36    1.50
   0   8   1   -1.28    1.83
   0  -8   1   -0.56    0.98
   0   8  -1   -0.03    0.86
   0   8  -2    4.69    2.43
   0  -8   2    4.91    1.14
   0   8  -2    3.66    0.80
   0   8  -2    4.84    1.43
   0  -8  -2    7.57    1.62
   0  -8   2    4.02    1.83
   0   8  -2    5.83    1.62
   0   8  -2    4.56    1.42
   0  -8  -2    5.01    0.73
   0   8   2    6.02    1.18
   0   8   2    7.90    1.95
   0  -8   2    6.26    2.23
   0   8   3    0.18    0.94
   0   8  -3    0.72    1.27
   0   8  -3   -0.86    0.85
   0   8   3   -0.91    1.35
   0   8  -3   -2.95    2.79
   0  -8  -3    0.36    1.52
   0   8   3    1.15    2.43
   0  -8   3   -0.94    2.02
   0   8  -3    2.24    1.52
   0   8  -3   -2.63    1.86
   0  -8   3   -2.16    1.34
   0   8   3   -0.04    1.14
   0  -8  -3    0.92    0.84
   0  -8   3   -0.94    1.49
   0  -8  -4    1.67    1.94
   0   8  -4    0.98    1.32
   0   8  -4    6.11    4.24
   0   8  -4   -0.81    1.74
   0  -8  -4   -1.11    1.11
   0   8   4   -1.05    2.39
   0  -8   4    0.91    3.01
   0  -8   4    0.57    1.71
   0   8  -4    0.41    2.56
   0   8   4    2.60    1.90
   0   8   4    0.70    1.18
   0   8  -4    0.72    1.45
   0   8   4    0.96    1.93
   0   8  -5    1.90    2.01
   0   8   5   -1.51    1.97
   0  -8  -5    0.31    1.46
   0   8  -5    0.15    1.60
   0   8   5   -2.79    3.09
   0  -8   5   -3.22    2.14
   0  -8   5   -0.95    3.40
   0   8  -5   -0.88    3.27
   0  -8  -5    0.77    2.59
   0   8  -5    0.79    2.31
   0   8  -6    3.07    2.53
   0   8   6    6.52    3.25
   0   8  -6   10.88    2.97
   0  -8  -6    1.78    1.98
   0  -8   6   -0.56    4.87
   0  -8   6   -0.29    2.74
   0   8   6   10.95    5.06
   0   8  -6    2.72    2.10
   1  -8   0    0.40    1.24
   1  -8   0    2.40    1.38
  -1   8   0    0.67    1.14
   1  -8   0    0.16    1.02
   1   8   0    2.25    0.81
   1   8   0    1.08    0.81
  -1  -8   0    3.42    1.54
  -1   8   0   -0.71    1.86
   1   8   0    2.17    1.65
  -1  -8   0    0.02    1.06
  -1   8   0    1.73    0.83
  -1   8   0    0.69    1.05
   1   8   0    0.49    0.89
  -1  -8   0    1.33    1.10
  -1   8   1   38.60    1.68
  -1   8   1   42.60    3.67
   1   8  -1   39.22    2.82
  -1   8   1   36.71    2.24
   1  -8   1   39.96    3.24
   1  -8   1   35.68    2.38
   1   8  -1   34.31    3.13
   1  -8   1   32.97    2.90
  -1  -8  -1   38.89    2.70
  -1   8   1   42.69    2.61
   1   8  -1   33.40    2.05
   1   8  -1   38.74    2.21
   1  -8  -1   32.33    2.69
  -1   8  -1   38.09    2.57
   1  -8  -1   38.88    1.79
  -1  -8   1   36.71    2.05
  -1  -8   1   34.43    2.82
  -1   8  -1   38.13    2.11
  -1   8  -1   47.47    3.95
  -1  -8   1   39.30    2.57
   1   8   1   33.58    3.00
  -1   8  -1   37.72    2.71
   1   8   1   37.95    2.16
   1  -8   2   49.28    3.22
  -1   8   2   57.79    4.20
   1  -8   2   51.99    3.07
   1  -8   2   57.56    2.41
   1   8  -2   64.01    4.30
   1  -8   2   49.12    4.06
   1   8  -2   53.31    2.96
   1   8  -2   52.01    3.27
   1   8  -2   56.02    2.91
  -1  -8  -2   58.79    3.01
   1   8  -2   57.28    2.27
  -1   8   2   58.71    2.80
  -1   8   2   61.40    2.41
  -1  -8   2   56.78    2.63
   1  -8  -2   55.36    3.17
   1   8   2   56.16    2.55
   1   8   2   55.56    4.07
   1   8   2   59.36    2.24
   1   8   2   58.84    3.46
  -1   8  -2   57.70    4.75
  -1  -8   2   55.73    2.86
  -1   8  -2   56.53    3.29
   1  -8  -2   55.11    1.97
  -1  -8   2   53.71    3.80
  -1   8  -2   55.98    2.22
  -1   8  -2   51.97    2.88
  -1  -8   2   52.85    3.42
  -1   8  -2   57.70    3.46
   1  -8   3   24.54    2.40
  -1   8   3   27.05    3.72
  -1   8   3   31.92    2.32
  -1  -8  -3   28.13    1.81
   1   8  -3   28.97    1.99
   1   8  -3   33.43    4.00
   1  -8   3   35.63    4.39
   1  -8   3   28.71    2.87
   1   8  -3   25.29    2.89
   1   8  -3   29.51    2.77
  -1  -8  -3   26.02    2.52
   1   8  -3   26.56    2.46
  -1   8   3   25.38    2.72
  -1   8   3   25.20    2.28
   1   8   3   26.42    2.62
  -1  -8   3   32.13    3.78
   1  -8  -3   27.02    1.72
  -1   8  -3   26.80    1.93
  -1   8  -3   35.46    3.52
  -1   8  -3   29.52    4.38
  -1   8  -3   23.23    2.56
   1  -8  -3   27.87    2.72
   1   8   3   27.57    1.93
   1   8   3   31.73    3.86
  -1  -8   3   28.74    2.57
   1   8   3   28.50    2.24
  -1  -8   3   31.90    2.70
  -1   8  -3   28.90    2.49
  -1   8   4    2.82    1.90
   1   8  -4    2.91    1.34
  -1   8   4    5.56    2.19
  -1  -8  -4   -0.55    1.69
   1   8  -4    1.62    1.94
   1  -8   4   -0.63    1.82
   1   8  -4    1.48    2.28
  -1   8   4    1.67    1.22
  -1  -8  -4    1.13    1.25
   1   8  -4   -4.97    3.90
  -1   8   4    4.23    2.59
   1   8  -4    2.65    1.51
   1  -8   4    3.84    3.72
  -1   8  -4   -1.97    2.45
   1   8   4    0.17    1.14
  -1   8  -4    3.53    1.46
   1  -8  -4    2.34    1.34
   1   8   4    1.52    1.99
  -1  -8   4    2.70    1.74
   1   8   4    1.96    1.75
  -1   8  -4    3.56    1.69
  -1  -8   4   -0.70    2.87
   1   8   4    3.33    2.80
   1  -8  -4    0.74    2.23
  -1   8  -4    9.04    4.67
  -1   8  -4    1.74    1.84
  -1   8   5   34.51    5.49
  -1  -8  -5   30.16    2.76
   1  -8   5   31.81    3.81
   1   8  -5   32.30    3.05
  -1   8   5   33.74    4.07
   1   8  -5   33.65    3.74
  -1  -8  -5   37.80    3.42
   1   8  -5   31.39    3.38
   1  -8   5   29.57    5.33
   1   8  -5   29.11    6.74
  -1  -8   5   35.34    5.62
  -1  -8   5   29.75    3.55
   1  -8  -5   29.39    2.76
  -1   8  -5   31.24    3.62
   1   8   5   28.15    3.49
  -1   8  -5   30.51    3.26
  -1   8  -5   29.53    4.15
   1   8   5   30.53    4.78
  -1   8  -5   37.85    3.00
   1   8  -6   22.96    3.89
  -1   8   6   21.56    5.70
   1   8  -6   20.32    2.80
  -1   8   6   18.39    3.58
   1   8  -6   23.00    3.47
   1  -8   6   22.44    6.25
   1  -8   6   26.01    4.23
  -1  -8  -6   29.88    3.09
   1   8   6   28.60    4.45
  -1   8  -6   21.04    3.40
  -1   8  -6   18.23    2.82
   1   8   6   17.62    5.59
  -1   8  -6   25.70    3.99
  -1  -8   6   19.41    3.55
  -1  -8   6   25.14    6.05
   1  -8  -6   25.08    3.07
  -2   8   0   10.50    1.95
   2   8   0    9.78    1.22
   2   8   0    9.04    1.73
   2  -8   0    6.77    1.96
  -2   8   0   13.65    2.98
   2  -8   0   11.76    1.39
  -2   8   0    8.81    1.52
   2   8   0    8.71    1.21
   2  -8   0    8.95    1.91
  -2   8   0    9.36    1.25
   2   8   0   10.04    1.57
  -2  -8  -1   -0.30    1.31
  -2   8   1    3.28    2.48
   2   8  -1    2.86    1.36
  -2   8   1    0.03    1.08
   2  -8   1    0.85    1.17
   2  -8   1   -0.22    1.20
   2   8  -1    0.95    0.82
   2  -8   1    2.63    1.91
   2   8  -1    0.23    0.68
  -2   8   1    0.21    0.70
   2  -8   1   -0.07    1.67
   2   8  -1   -1.90    1.42
   2   8  -1    0.87    0.83
  -2   8   1   -0.40    1.27
  -2  -8   1   -0.57    1.40
   2  -8  -1    0.52    0.89
  -2   8  -1    0.65    1.55
  -2   8  -1    0.96    0.91
  -2   8  -1    2.31    2.62
   2  -8  -1   -1.54    1.50
   2   8   1   -1.28    0.88
   2   8   1    0.42    1.35
  -2   8  -1    0.70    1.24
  -2  -8   1    2.69    1.49
   2   8  -2    0.80    1.15
   2  -8   2    1.21    0.97
   2  -8   2   -0.52    1.86
  -2   8   2   -0.94    0.94
  -2   8   2    1.68    1.04
   2   8  -2   -0.58    2.01
   2   8  -2    2.35    0.92
   2  -8   2   -1.03    1.39
   2  -8   2    0.50    1.47
   2   8  -2    2.10    1.19
   2   8  -2   -0.11    1.46
  -2   8   2   -3.36    2.27
  -2  -8  -2    2.38    1.35
   2   8   2    1.73    1.80
   2  -8  -2    1.22    0.63
  -2  -8   2    0.68    1.22
  -2  -8   2    2.53    1.24
  -2  -8   2    0.61    1.73
  -2   8  -2    2.98    2.91
  -2  -8   2    0.27    1.77
   2  -8  -2    1.24    0.83
   2   8   2    0.32    0.84
  -2   8  -2   -0.39    1.75
  -2   8  -2   -0.20    1.02
   2   8   2    0.05    0.89
   2  -8  -2    3.62    1.64
   2   8   2    2.57    1.30
  -2   8  -2    0.33    1.24
   2   8  -3   -1.15    1.10
  -2   8   3    3.92    2.85
  -2   8   3   -1.87    1.45
   2  -8   3    0.35    1.47
   2   8  -3   -0.04    1.51
   2   8  -3   -0.04    2.62
   2  -8   3    0.47    2.48
   2   8  -3    1.35    1.37
  -2   8   3    2.88    2.39
   2   8  -3    0.74    1.44
  -2   8   3   -0.68    1.04
  -2  -8  -3    0.43    1.45
   2  -8   3    0.19    1.56
  -2  -8   3    4.20    1.81
  -2   8  -3    0.02    1.39
   2   8   3    2.42    1.45
  -2  -8   3    1.25    1.60
  -2  -8   3   -0.14    2.27
   2  -8  -3    0.83    1.62
  -2   8  -3   -3.22    2.00
   2   8   3   -0.16    0.95
  -2   8  -3   -0.67    1.26
   2   8   3    0.12    2.17
  -2   8  -3   -0.04    3.74
   2  -8  -3   -0.92    0.83
   2   8   3   -2.00    1.22
  -2   8  -3    0.03    0.95
   2   8  -4    9.19    1.82
  -2  -8  -4    8.93    1.52
  -2   8   4    7.82    3.39
   2  -8   4    4.22    3.40
   2   8  -4   10.24    2.60
   2  -8   4    7.37    2.16
  -2   8   4    6.67    1.70
  -2   8   4   10.91    2.59
   2   8  -4    7.78    2.34
   2   8  -4    5.70    1.88
  -2   8   4   11.02    2.35
  -2  -8  -4   10.09    1.86
   2   8  -4   12.13    4.14
  -2   8  -4    8.43    2.15
   2   8   4    8.14    2.09
  -2  -8   4    9.64    3.29
  -2  -8   4    8.26    2.64
   2  -8  -4    7.98    1.62
  -2   8  -4   11.38    2.03
   2   8   4    6.65    2.88
   2   8   4    8.32    2.27
  -2   8  -4    8.66    1.66
  -2   8  -4    6.47    2.95
   2   8  -5    0.32    1.54
   2   8  -5    3.13    3.18
   2   8  -5   -0.39    2.21
  -2   8   5   -0.41    1.68
  -2  -8  -5    1.02    1.49
  -2   8   5   -2.00    3.49
   2   8  -5    3.91    5.57
  -2   8   5    0.63    2.36
   2   8  -5    1.45    1.98
   2  -8   5   -0.76    4.22
  -2  -8   5    2.72    4.57
   2   8   5   -1.16    2.01
  -2   8  -5    1.17    2.10
  -2  -8   5    2.68    2.46
   2  -8  -5    1.24    1.65
  -2   8  -5   -1.05    1.53
   2   8   5   -1.27    3.05
  -2   8  -5   -1.41    1.73
  -2   8  -5   -0.26    3.66
   2   8  -6    3.46    2.75
  -2   8   6   -0.27    2.95
   2   8  -6    2.52    2.24
   2  -8   6    0.17    3.50
   2  -8   6    9.42    5.28
  -2  -8  -6    5.82    2.20
  -2   8   6   -4.01    4.46
   2   8  -6    1.89    2.92
  -2  -8   6   -3.08    2.85
   2   8   6   -0.02    4.48
  -2   8  -6    1.11    2.97
  -2   8  -6    0.04    1.96
  -2   8  -6   -0.27    2.38
   2   8   6    2.57    2.32
   2  -8  -6   -1.48    1.80
  -2  -8   6   -3.58    5.10
  -3   8   0   24.07    3.74
  -3   8   0   19.77    2.38
   3   8   0   17.02    1.64
   3   8   0   13.30    1.62
   3  -8   0   17.73    1.61
   3   8   0   14.91    1.77
   3   8   0   14.72    1.36
   3  -8   0   19.68    2.49
   3  -8   0   21.84    3.09
  -3   8   0   15.10    1.52
  -3   8   0   18.80    1.95
   3   8  -1   33.32    1.76
  -3   8   1   32.16    1.99
   3   8  -1   31.91    2.74
  -3   8   1   38.77    4.33
  -3   8   1   28.82    2.82
  -3   8   1   34.66    2.45
   3   8  -1   35.50    1.80
   3  -8   1   32.40    1.60
   3   8  -1   34.37    2.23
   3   8  -1   26.14    2.27
   3  -8   1   36.20    2.54
   3  -8   1   31.80    3.51
   3  -8   1   35.13    2.70
   3   8   1   37.75    2.35
  -3   8  -1   35.79    2.26
   3   8   1   31.48    2.23
   3  -8  -1   36.12    2.04
   3   8   1   35.50    1.72
   3   8   1   34.43    2.11
  -3   8  -1   37.96    4.77
  -3  -8   1   32.32    2.28
  -3   8  -1   31.52    2.37
   3  -8  -1   26.92    2.68
  -3   8  -1   31.96    3.03
   3  -8   2  139.66    6.85
  -3   8   2  143.14    4.69
   3  -8   2  137.66    4.40
   3  -8   2  140.67    5.60
  -3   8   2  144.02    5.69
   3   8  -2  142.12    4.65
  -3  -8  -2  136.28    4.82
   3   8  -2  141.08    5.26
  -3   8   2  140.13    6.98
   3   8  -2  136.01    5.59
  -3   8   2  135.94    5.07
   3   8  -2  135.61    5.74
   3   8  -2  140.77    4.76
   3  -8  -2  145.28    4.41
  -3   8  -2  141.07    5.86
  -3   8  -2  141.10    7.57
  -3   8  -2  136.47    5.13
  -3  -8   2  133.50    5.36
   3   8   2  147.96    4.43
   3   8   2  142.27    5.65
   3  -8  -2  140.06    4.24
   3   8   2  142.93    4.90
  -3   8  -2  137.20    5.41
  -3  -8   2  140.07    5.09
   3   8   2  135.83    4.40
   3  -8   3   27.02    3.19
   3   8  -3   23.28    2.60
   3   8  -3   26.18    3.68
   3   8  -3   24.93    2.83
   3   8  -3   25.69    2.31
  -3   8   3   27.77    2.71
   3  -8   3   29.94    4.38
  -3   8   3   37.34    4.60
   3  -8   3   29.30    2.48
   3   8  -3   27.09    2.60
  -3   8   3   21.70    2.31
   3  -8  -3   24.23    1.92
   3   8   3   24.62    2.30
   3   8   3   28.22    3.52
  -3   8  -3   29.82    3.56
  -3   8  -3   21.93    2.55
  -3   8  -3   31.47    5.17
   3   8   3   20.62    2.25
  -3   8  -3   22.08    2.37
  -3  -8   3   21.39    2.67
  -3  -8   3   27.06    3.44
  -3  -8   3   28.15    2.99
   3  -8  -3   24.18    1.88
   3   8  -4   12.47    2.67
  -3   8   4   10.62    2.76
   3   8  -4    9.77    2.05
  -3   8   4   10.84    1.85
   3   8  -4    6.20    2.08
  -3   8   4    8.29    2.35
   3   8  -4   11.49    1.92
   3  -8   4    5.14    3.96
  -3   8   4   11.97    3.27
   3   8  -4   15.24    4.17
   3  -8   4   13.89    2.62
  -3  -8   4    8.96    2.24
  -3   8  -4    8.38    2.05
   3   8   4    8.94    3.18
   3   8   4   10.31    2.23
  -3   8  -4    8.27    3.33
  -3  -8   4   13.16    3.63
   3  -8  -4   13.06    1.90
   3  -8  -4   13.55    1.81
  -3   8  -4   10.12    2.25
   3  -8  -4   13.44    1.75
  -3   8  -4   10.65    1.67
  -3   8   5   18.50    2.66
   3  -8   5   14.82    5.08
  -3   8   5   17.45    3.48
   3   8  -5   18.12    2.57
   3   8  -5   19.60    3.17
   3   8  -5    5.86    5.69
  -3   8   5   14.46    4.59
   3  -8   5   15.08    3.48
   3   8  -5   17.72    4.06
   3  -8  -5   17.51    2.24
   3   8   5   19.65    3.38
  -3   8  -5   16.58    2.42
  -3   8  -5   12.05    4.49
  -3  -8   5   14.32    4.41
  -3   8  -5   15.28    3.04
   3   8   5   16.56    4.40
  -3   8  -5   16.25    2.68
   3   8  -6   60.37    5.21
   3  -8   6   71.39    8.76
   3   8  -6   58.71    5.81
   3  -8   6   53.91    6.04
  -3   8   6   69.73    8.48
   3   8  -6   61.19    4.60
  -3   8   6   56.97    6.08
   3  -8  -6   60.12    3.74
   3   8   6   65.37    7.80
  -3   8  -6   65.67    5.28
  -3  -8   6   59.07    7.38
   3   8   6   59.30    5.52
  -3  -8   6   57.87    4.91
  -3   8  -6   63.00    4.42
   3  -8  -6   64.25    4.27
  -3   8  -6   71.36    4.95
   4   8   0   55.52    2.97
  -4   8   0   53.21    3.04
   4  -8   0   54.58    4.18
   4  -8   0   51.36    2.74
  -4   8   0   51.10    3.61
   4  -8   0   59.02    3.33
  -4   8   0   62.04    5.40
   4   8   0   55.27    2.64
   4   8   0   53.48    2.66
  -4   8   0   57.47    2.74
   4  -8   0   57.70    2.52
   4  -8   1   18.64    3.21
  -4   8   1   15.35    3.84
   4  -8   1   13.67    2.29
  -4   8   1   14.42    1.81
   4  -8   1   22.41    2.51
   4  -8   1   16.81    1.54
   4   8  -1   15.08    1.69
   4   8  -1   16.39    2.34
  -4   8   1   21.80    3.10
   4   8  -1   13.20    1.61
   4   8  -1   16.23    1.91
   4   8   1   15.10    1.76
  -4   8  -1   19.86    1.94
   4  -8  -1   13.18    1.39
   4   8   1   16.03    1.62
  -4   8  -1   23.28    2.90
   4   8   1   15.27    1.62
  -4   8  -1   17.45    2.15
   4   8   1   13.48    1.45
  -4   8  -1   23.94    4.13
   4  -8  -1   16.53    1.95
   4  -8   2   75.09    5.45
   4   8  -2   73.32    3.18
   4   8  -2   83.15    3.96
   4  -8   2   79.39    3.17
   4   8  -2   87.78    4.02
  -4   8   2   80.95    6.22
  -4   8   2   83.11    4.60
   4   8  -2   85.25    4.46
   4  -8   2   76.36    4.15
   4   8  -2   78.46    3.32
  -4   8   2   79.15    3.73
  -4   8  -2   75.16    3.66
  -4   8  -2   85.70    7.17
  -4   8  -2   80.75    3.94
   4   8   2   77.71    2.92
   4  -8  -2   75.93    3.00
  -4   8  -2   81.94    4.72
   4   8   2   80.79    3.28
   4  -8  -2   80.70    3.34
   4   8   2   81.05    3.40
  -4   8   3   11.27    2.02
   4  -8   3   11.93    3.32
   4   8  -3   13.97    2.11
   4   8  -3   12.48    1.71
   4  -8   3   12.35    2.00
   4   8  -3    5.38    2.86
   4   8  -3    7.78    1.69
  -4   8   3   12.84    2.46
   4  -8   3   10.18    2.16
   4   8   3    9.83    1.78
   4   8   3   15.34    1.98
  -4   8  -3    9.94    1.83
  -4  -8   3    8.91    2.70
  -4  -8   3    8.06    2.42
  -4   8  -3   10.63    2.10
   4  -8  -3   14.35    1.66
   4   8   3   13.31    3.09
   4  -8  -3   14.77    1.97
  -4  -8   3   15.53    1.93
  -4   8  -3    8.93    3.14
  -4   8   4   20.81    4.44
   4  -8   4   27.91    3.99
  -4   8   4   26.47    2.59
   4   8  -4   30.05    3.30
  -4   8   4   25.89    3.45
   4   8  -4   27.45    4.39
   4   8  -4   23.81    2.69
   4  -8   4   31.57    5.21
   4   8  -4   31.43    3.54
   4  -8  -4   32.22    2.74
  -4   8  -4   24.05    2.90
   4   8   4   35.97    4.45
   4  -8  -4   28.97    2.50
  -4  -8   4   32.25    3.40
   4   8   4   29.11    2.88
  -4   8  -4   36.39    4.59
  -4  -8   4   31.60    4.29
  -4   8  -4   26.43    3.18
   4   8  -5    3.07    2.16
   4   8  -5   12.75    5.84
   4   8  -5    5.73    2.22
  -4   8   5    4.71    2.06
   4  -8   5    7.87    2.96
  -4   8   5    8.24    4.16
   4   8  -5    3.37    2.96
  -4   8   5    8.21    3.05
   4  -8   5   -1.86    4.29
  -4  -8   5    3.11    4.04
   4   8   5    4.58    2.45
  -4   8  -5    5.78    2.44
   4  -8  -5    7.04    2.07
  -4  -8   5    4.31    2.57
  -4   8  -5    8.65    2.49
   4  -8  -5    6.28    1.94
  -4   8  -5    7.82    2.08
   4  -8  -5    4.15    2.43
   4   8   5    6.53    3.95
  -4   8   6   30.83    4.79
   4   8  -6   28.90    4.23
   4  -8   6   18.34    6.49
   4  -8   6   28.62    4.32
  -4   8   6   27.80    6.21
   4   8  -6   26.28    3.48
  -4   8  -6   21.42    4.02
  -4   8  -6   27.89    3.97
  -4  -8   6   31.82    5.91
  -4   8  -6   31.28    3.47
   4  -8  -6   34.01    3.50
   4   8   6   30.79    4.24
   4  -8  -6   30.99    3.47
   4   8   6   26.77    6.17
  -5   8   0    7.34    3.92
   5  -8   0    5.62    2.55
   5   8   0    4.55    1.46
   5   8   0    4.28    1.26
   5   8   0    4.29    1.49
  -5   8   0    3.99    1.31
  -5   8   0    2.20    1.24
   5  -8   0    4.23    1.57
  -5   8   0    7.77    2.36
   5  -8   0    4.89    1.57
  -5   8   1   81.40    6.85
   5   8  -1   91.51    4.13
   5   8  -1   85.38    3.66
  -5   8   1   94.15    4.94
  -5   8   1   86.17    3.99
   5  -8   1   89.23    3.34
   5  -8   1   87.37    5.94
   5   8  -1   82.27    4.26
   5  -8   1   80.64    4.47
   5   8   1   86.96    3.52
  -5   8  -1   81.81    5.00
  -5   8  -1   85.30    3.81
   5  -8  -1   91.57    3.75
  -5   8  -1   85.93    7.14
   5  -8  -1   84.26    3.35
   5   8   1   86.30    3.42
  -5   8  -1   90.63    4.13
   5  -8   2    8.03    1.59
   5   8  -2    6.08    1.54
   5  -8   2    5.01    2.05
  -5   8   2    6.33    1.48
   5   8  -2    6.79    1.84
  -5   8   2    6.48    2.75
   5   8  -2    4.79    1.27
   5  -8   2    3.93    2.77
   5   8  -2    7.26    1.99
   5   8   2    3.65    1.68
  -5   8  -2    5.35    1.57
   5   8   2    5.06    1.25
  -5   8  -2    2.85    1.52
   5  -8  -2    5.45    1.36
   5  -8  -2   10.07    1.89
   5   8   2    3.76    1.53
  -5   8  -2    6.04    2.62
  -5  -8   2    5.88    1.71
  -5   8   3   60.75    4.91
   5   8  -3   58.34    3.45
  -5   8   3   54.69    3.40
   5   8  -3   58.34    4.61
   5   8  -3   58.03    3.36
  -5   8   3   56.61    4.26
   5  -8   3   59.36    4.34
   5  -8   3   60.12    5.80
   5   8  -3   54.35    3.73
  -5   8  -3   53.97    5.03
   5   8   3   56.35    4.41
  -5  -8   3   58.68    4.41
   5  -8  -3   65.76    3.31
  -5   8  -3   57.29    3.36
   5   8   3   60.31    3.33
   5  -8  -3   62.58    3.25
  -5   8  -3   58.07    3.68
   5   8  -4    3.87    1.94
  -5   8   4    1.30    1.53
   5  -8   4    4.66    2.48
   5   8  -4    1.57    2.06
   5   8  -4   10.99    4.36
  -5   8   4    3.43    3.36
   5  -8   4    3.94    3.89
   5   8  -4    3.03    2.17
  -5   8   4    3.56    2.60
   5   8   4    4.44    1.85
   5  -8  -4    5.51    1.84
   5  -8  -4    5.85    2.29
   5   8   4    0.92    2.61
  -5   8  -4    6.40    2.19
  -5   8  -4    2.34    1.98
  -5  -8   4    7.25    2.22
  -5  -8   4    5.09    3.18
   5   8  -5   43.64    3.80
   5   8  -5   45.28    5.02
   5   8  -5   51.13    7.29
   5  -8   5   35.82    6.34
  -5   8   5   45.17    5.09
  -5   8   5   39.72    3.61
   5   8  -5   36.03    4.29
  -5   8   5   45.99    6.86
   5  -8   5   40.82    5.04
  -5   8  -5   43.30    4.08
   5  -8  -5   41.44    3.39
   5  -8  -5   39.45    3.68
  -5   8  -5   41.06    3.81
   5   8   5   37.29    3.98
  -5  -8   5   38.94    4.15
  -5  -8   5   43.97    5.91
   5   8   5   43.49    5.65
   6   8   0   13.75    2.03
   6  -8   0   18.63    3.25
   6  -8   0   19.08    2.67
   6   8   0   10.07    1.98
  -6   8   0   10.16    2.54
  -6   8   0   12.76    2.18
   6   8   0   15.43    2.13
  -6   8   0   13.29    1.93
   6  -8   1    1.95    1.85
   6  -8   1   -0.72    2.72
   6   8  -1    1.71    1.61
   6   8  -1    4.16    1.69
  -6   8   1    6.42    2.48
   6  -8   1   -0.10    1.39
   6  -8  -1    2.17    1.32
   6  -8  -1    2.90    2.20
   6   8   1    1.56    1.32
  -6   8  -1    1.72    1.44
  -6   8  -1    3.11    2.31
  -6   8  -1    0.73    1.26
   6  -8   2    4.99    3.21
   6  -8   2    8.19    1.87
   6   8  -2    6.96    2.02
  -6   8   2    5.12    1.43
   6  -8   2    7.68    2.05
   6   8  -2    5.69    1.37
  -6   8   2    6.87    3.13
   6   8  -2    5.19    1.62
  -6   8  -2    7.93    1.84
   6   8   2    4.52    1.96
   6  -8  -2    2.13    1.96
   6   8   2    4.31    1.46
  -6   8  -2    7.83    3.47
   6   8   2    5.54    1.26
   6   8   2    5.54    1.87
  -6   8  -2    5.79    1.61
   6  -8  -2    7.75    1.60
  -6   8   3    2.02    1.50
   6   8  -3    0.84    1.75
   6  -8   3   -2.22    2.37
   6  -8   3    1.65    3.38
   6   8  -3    1.97    2.76
   6   8  -3    0.92    1.57
   6   8  -3    2.03    1.94
  -6   8  -3    2.78    1.44
   6   8   3    1.43    2.42
   6   8   3    1.30    1.42
  -6  -8   3    3.92    3.12
   6  -8  -3    1.50    1.46
  -6   8  -3    3.11    1.84
  -6   8   4    7.22    2.90
   6   8  -4    3.29    2.41
  -6   8   4    4.36    3.99
   6   8  -4    9.05    2.15
   6  -8   4    9.56    2.84
   6  -8   4   -0.14    3.91
   6   8  -4    9.84    2.52
   6   8  -4   16.23    4.59
  -6   8   4    5.95    1.81
  -6  -8   4    9.89    2.31
  -6  -8   4    9.01    3.59
   6   8   4    4.29    3.33
  -6   8  -4    7.15    2.07
   6  -8  -4   11.81    2.17
   6   8   4    5.70    2.11
  -6   8  -4    9.52    2.38
   6  -8   5    9.22    5.07
  -6   8   5    2.76    2.32
   6  -8   5    5.56    3.46
  -6   8   5   -2.98    4.48
   6   8  -5    3.12    2.76
   6   8  -5    3.09    2.28
   6   8  -5   -3.31    3.16
  -6   8   5    1.06    3.19
  -6   8  -5    3.78    2.53
   6   8   5    5.58    4.17
  -6  -8   5    5.20    4.33
   6   8   5   -0.13    2.30
   6  -8  -5    1.17    2.02
  -6   8  -5   -1.72    2.10
   7   8   0   30.65    2.88
  -7   8   0   28.04    2.65
   7  -8   0   35.03    4.58
   7   8   0   25.94    3.12
  -7   8   0   31.77    2.96
   7  -8   0   34.45    3.45
   7   8  -1   16.62    2.55
   7   8  -1   17.04    2.43
   7  -8   1   22.10    3.45
  -7   8   1   18.61    2.36
   7  -8   1   17.79    3.79
   7  -8  -1   16.05    3.31
  -7   8  -1   19.73    2.46
   7   8   1   21.59    2.26
  -7   8  -1   17.03    2.42
   7  -8  -1   18.84    2.52
  -7   8   2   14.22    2.22
   7   8  -2   15.93    2.46
   7   8  -2   13.06    2.24
   7  -8   2   20.95    4.36
   7  -8   2   17.89    3.41
   7   8   2   16.32    2.16
  -7   8  -2   11.75    2.21
   7  -8  -2   13.53    2.27
   7   8   2   13.99    2.23
  -7   8  -2   14.43    2.22
   7  -8   3   19.07    3.34
   7   8  -3   23.42    2.77
   7   8  -3   16.89    2.34
  -7   8   3   24.45    3.16
   7   8  -3   19.92    2.99
   7  -8   3   19.56    4.46
  -7   8  -3   22.96    2.80
   7   8   3   21.76    3.34
   7   8   3   23.28    2.61
  -7   8  -3   15.13    2.66
   7  -8  -3   21.16    2.57
   7  -8   4   30.66    4.59
   7   8  -4   23.80    3.02
   7   8  -4   24.18    3.54
  -7   8   4   28.03    3.65
   7   8  -4   22.81    3.36
  -7   8   4   29.88    4.46
   7  -8   4   32.29    5.80
  -7   8   4   23.79    4.91
  -7  -8   4   23.32    4.19
  -7   8  -4   31.92    3.41
   7   8   4   22.14    3.06
  -7   8  -4   28.54    3.41
   7  -8  -4   24.60    2.98
   7   8   4   27.30    4.53
   7   8  -5    6.08    3.37
   7   8  -5   14.44    2.94
   7  -8   5    8.93    5.31
  -7   8   5    1.67    3.66
   7  -8   5   10.77    4.44
  -7   8   5   10.68    5.11
  -7  -8   5   10.44    4.85
   7   8   5    6.36    2.81
   7   8   5    6.96    4.63
   7  -8  -5   12.96    2.69
  -7   8  -5   11.42    2.88
  -7   8  -5    8.79    3.00
   8   8   0    6.62    2.24
  -8   8   0    7.25    1.79
   8  -8   0    9.29    3.51
   8  -8   0    9.40    2.47
   8  -8   1    2.06    2.44
   8  -8   1   -4.51    2.93
   8   8  -1    2.27    1.70
  -8   8   1    1.96    1.66
   8   8  -1    5.78    2.04
  -8   8  -1   -2.25    1.48
   8   8   1    4.46    1.68
  -8   8  -1    1.10    1.72
   8  -8  -1   -1.42    1.64
   8   8  -2    3.65    2.15
   8  -8   2    7.20    2.84
   8   8  -2    4.64    2.27
  -8   8   2    5.45    2.09
   8  -8   2   -1.31    3.41
  -8   8  -2    5.74    1.89
   8   8   2    7.36    1.82
   8   8   2    8.14    2.20
  -8   8  -2    6.14    1.98
   8  -8  -2    5.43    2.03
  -8   8   3    1.92    1.86
   8   8  -3   -1.64    1.80
   8  -8   3    3.66    2.64
   8   8  -3    1.03    2.20
   8  -8   3   -5.31    3.49
  -8   8  -3    0.55    2.01
  -8   8  -3    0.62    2.05
   8   8   3   -0.89    2.09
   8   8   3   -0.08    2.65
   8   8   3   -2.15    1.61
   8  -8  -3    0.44    1.94
  -8  -8   3    0.79    2.83
  -8   8   4    5.29    4.50
  -8   8   4    0.50    2.79
   8   8  -4   10.74    3.15
   8   8  -4    6.51    2.86
  -8   8   4    8.28    2.77
   8  -8   4   -0.37    4.54
   8  -8   4    5.59    3.51
   8   8  -4    2.83    2.42
   8   8   4    2.99    3.47
   8   8   4    4.87    2.40
  -8  -8   4    5.88    3.58
  -8   8  -4    5.46    2.88
   8  -8  -4    6.50    2.33
  -8   8  -4    7.41    2.54
   9  -8   0    5.27    2.35
   9  -8   0    0.32    3.45
   9  -8   0    3.40    2.66
   9   8   0    8.11    2.37
  -9   8   0    4.05    1.84
   9  -8   1   11.28    2.87
   9  -8   1    9.54    3.81
  -9   8   1   11.87    2.54
   9   8  -1   13.51    2.50
  -9   8  -1   11.47    2.60
   9   8   1   16.35    2.56
  -9   8  -1    9.74    2.50
   9   8   1   12.74    2.30
   9  -8  -1   13.99    2.76
   9  -8   2    6.37    3.05
  -9   8   2    6.89    2.22
   9   8  -2    5.79    2.22
   9   8  -2    8.54    2.65
   9  -8   2    9.56    4.22
   9  -8  -2    4.04    2.38
  -9   8  -2    2.18    2.16
  -9   8  -2    4.89    2.07
   9   8  -3   10.48    2.97
   9  -8   3   14.88    4.35
  -9   8   3   15.68    3.08
   9   8  -3   12.56    2.77
   9  -8   3   11.39    5.05
  -9  -8   3   13.27    3.05
  -9   8  -3   12.47    2.61
   9   8   3   14.17    2.93
  -9   8  -3   12.83    2.92
   9  -8  -3   11.07    2.59
   9   8   3   15.02    3.34
   9   8   3   11.00    1.99
   9  -8   4    5.61    4.97
  -9   8   4    5.11    3.60
  -9   8   4    0.02    4.22
   9   8  -4    1.45    2.63
  -9   8   4    0.59    2.26
   9   8  -4    5.08    3.20
   9  -8   4    3.64    4.17
   9   8   4    1.10    3.85
   9  -8  -4    4.63    2.58
  -9   8  -4    3.01    2.47
  -9   8  -4    1.23    2.63
   9   8   4    0.48    2.30
  10   8   0    1.43    2.31
  10  -8   0    4.01    3.75
  10  -8   0    0.62    2.47
 -10   8   0    1.99    1.96
 -10   8   1    2.48    2.02
  10   8  -1    4.01    2.49
  10  -8   1    2.69    3.68
  10  -8   1   -0.18    2.65
  10   8   1   -0.09    2.36
  10  -8  -1   -2.54    2.32
  10   8   1    3.80    2.50
 -10   8  -1    1.58    1.89
  10  -8   2   -2.98    4.02
  10  -8   2    0.14    2.85
 -10   8   2    0.73    2.05
  10   8  -2    1.59    2.55
  10   8  -2    2.85    2.51
 -10   8  -2    3.42    2.46
  10  -8  -2   -0.36    2.43
 -10   8  -2    0.01    2.33
  10   8  -3   -1.91    2.83
  10  -8   3    4.74    5.16
 -10   8   3    2.90    2.38
  10  -8   3    6.35    3.57
 -10   8  -3   -0.62    2.34
  10  -8  -3   -3.47    2.34
  10   8   3    1.93    2.30
 -10   8  -3    4.92    2.82
  10   8   3    1.36    2.86
  11   8   0  149.12    7.50
  11  -8   0  140.40    7.18
 -11   8   0  152.41    6.58
  11  -8   0  156.70    9.27
 -11   8   1   -0.74    2.03
  11  -8   1    3.76    4.29
  11  -8   1   -1.76    3.06
  11   8  -1   -1.04    2.65
  11  -8  -1    3.53    2.94
 -11   8  -1    1.00    2.37
  11  -8   2   29.95    5.04
  11  -8   2   16.77    5.42
  11   8  -2   21.63    3.85
 -11   8   2   23.67    3.35
  11   8  -2   16.57    3.51
 -11   8  -2   21.12    3.86
  11  -8  -2   21.87    3.70
 -11   8  -2   27.43    3.59
   0  -9   0   -0.39    1.15
   0   9   0   -0.93    0.74
   0   9   0   -0.81    1.16
   0  -9   0    0.19    1.39
   0   9   0    0.45    2.29
   0  -9   0    0.61    1.93
   0   9   0    0.23    1.19
   0  -9   1  256.03    7.66
   0   9   1  261.84    6.91
   0   9   1  262.63    9.24
   0  -9  -1  264.02    8.22
   0  -9   1  255.99    8.77
   0   9   1  273.11    8.02
   0   9  -1  262.21    8.03
   0   9  -1  249.95    8.30
   0   9  -1  260.23    7.66
   0   9   1  256.33    7.95
   0  -9   1  262.57    7.86
   0   9  -1  261.95    9.26
   0  -9  -1  264.70    7.03
   0   9  -2   -1.32    2.55
   0   9  -2   -0.89    0.75
   0   9   2   -0.27    2.04
   0  -9  -2    0.93    1.78
   0  -9   2   -1.09    1.96
   0  -9   2   -0.57    1.14
   0   9   2   -1.38    1.11
   0   9  -2   -0.55    1.26
   0   9  -2   -0.86    1.33
   0   9  -2    1.82    1.14
   0  -9   2   -0.44    1.27
   0   9   3  185.98    6.09
   0   9  -3  184.56    6.63
   0  -9   3  180.27    6.06
   0   9   3  196.01    5.82
   0   9  -3  193.56    5.78
   0  -9  -3  174.73    5.39
   0   9   3  192.67    8.25
   0   9  -3  192.95    8.80
   0   9   3  185.44    7.00
   0  -9   3  181.71    8.12
   0   9  -3  187.09    7.08
   0   9  -3  188.71    7.19
   0  -9  -3  185.06    6.46
   0   9  -4    1.83    1.40
   0   9   4   -1.21    1.33
   0  -9   4    5.84    3.34
   0   9   4   -0.45    1.98
   0   9  -4    0.50    1.65
   0   9  -4    1.47    2.51
   0  -9  -4   -3.27    2.05
   0   9   4   -1.98    1.77
   0   9  -4   -1.42    1.79
   0  -9  -4    1.11    1.30
   0   9  -4   -6.77    4.26
   0   9   4   -0.66    2.73
   0  -9   4    2.31    2.11
   0   9  -5  113.17    4.98
   0  -9   5  108.76    8.30
   0   9   5  104.91    4.64
   0  -9  -5  115.47    4.66
   0   9  -5  120.41    6.13
   0   9  -5  105.06    6.92
   0   9   5  114.28    6.27
   0   9   5  109.45    8.03
   0   9  -5  110.27    5.52
   0  -9   5  103.49    5.72
   0  -9   6    0.73    5.55
   0   9  -6    0.37    2.32
   0  -9   6   -0.30    2.97
   0  -9  -6    2.19    2.05
   0   9  -6    5.52    2.41
   0   9  -6   -5.56    2.82
   0   9   6   -1.64    2.78
   0   9   6   -5.82    4.33
   1  -9   0   97.11    4.75
   1   9   0  114.13    4.46
  -1  -9   0  103.99    4.10
  -1   9   0  112.72    5.81
  -1  -9   0  107.97    4.77
   1  -9   0  108.55    3.86
   1   9   0  111.09    3.73
  -1  -9   0  114.85    3.96
   1  -9   0  103.32    4.87
  -1   9   0  111.26    4.55
  -1   9   0  110.89    3.76
   1   9   0  104.01    4.03
   1   9   0  111.97    4.89
  -1   9   0  105.76    4.40
   1   9  -1    3.63    1.11
  -1  -9  -1    2.73    1.84
   1  -9   1    6.04    2.31
  -1   9   1    3.35    1.70
  -1   9   1    1.35    1.31
   1   9  -1    2.39    1.32
  -1   9   1    3.15    0.90
  -1   9   1    3.29    2.47
   1   9  -1    4.00    2.10
   1   9  -1    3.94    1.26
   1  -9   1    3.41    1.57
  -1  -9   1    3.02    1.87
   1   9   1    4.13    2.26
   1   9   1    3.73    1.21
  -1   9  -1    5.51    2.66
   1  -9  -1    4.33    1.10
   1  -9  -1    3.46    1.78
  -1   9  -1    4.64    1.48
   1   9   1    4.98    1.29
  -1  -9   1    3.18    1.66
  -1   9  -1    3.15    1.57
  -1   9  -1    3.28    1.12
  -1  -9  -2    2.92    1.64
   1   9  -2    1.44    1.42
   1   9  -2    2.01    1.26
   1   9  -2    0.42    2.56
   1  -9   2    2.05    2.19
   1   9  -2    0.80    0.80
   1  -9   2    2.63    1.11
  -1   9   2    5.70    2.78
   1  -9   2    2.87    1.56
   1   9  -2   -0.94    1.38
  -1   9   2    3.23    1.33
   1   9   2    1.03    2.02
  -1   9  -2    1.33    1.35
   1  -9  -2    3.16    1.90
  -1   9  -2    3.73    0.82
  -1  -9   2    1.70    1.39
  -1   9  -2   -0.11    1.67
  -1   9  -2    0.72    3.05
   1   9   2    2.74    2.23
  -1   9  -2    1.82    1.37
  -1  -9   2    0.89    1.99
   1   9   2    2.31    1.03
  -1  -9   2    3.61    1.32
   1  -9   3    2.41    1.59
  -1  -9  -3    2.18    1.91
   1  -9   3    0.32    2.69
  -1   9   3    2.21    1.60
   1   9  -3    1.61    1.76
   1   9  -3    2.20    1.03
   1   9  -3    2.84    1.57
  -1   9   3    1.74    1.29
  -1   9   3    1.44    2.81
   1   9  -3    2.03    1.85
   1  -9   3    2.20    1.78
  -1   9   3    0.57    2.57
   1   9  -3   -3.85    3.04
  -1   9  -3    1.17    1.50
   1  -9  -3    0.02    1.87
   1   9   3    2.87    1.07
  -1   9  -3    0.65    1.08
  -1   9  -3    1.53    1.38
   1   9   3    2.17    2.53
  -1   9  -3    4.60    2.60
   1  -9  -3    1.55    0.91
  -1   9  -3   -1.19    3.75
  -1  -9   3   -0.96    2.50
  -1  -9   3    5.01    1.79
   1   9   3    0.75    1.40
   1   9   3    3.26    1.64
  -1  -9   3    2.15    1.73
   1   9  -4   66.27    3.98
   1  -9   4   69.42    4.46
  -1  -9  -4   68.46    3.24
   1   9  -4   70.42    3.57
  -1   9   4   76.23    4.82
   1  -9   4   71.41    6.72
  -1   9   4   69.80    4.23
   1   9  -4   58.68    7.24
  -1   9   4   66.88    3.46
   1   9  -4   69.43    4.38
   1   9  -4   75.65    5.13
  -1   9   4   65.11    5.67
  -1  -9  -4   71.42    3.92
  -1   9  -4   73.07    5.35
   1   9   4   72.10    5.71
  -1   9  -4   69.07    4.34
   1   9   4   65.10    4.01
   1   9   4   69.98    4.35
  -1   9  -4   70.90    8.09
   1   9   4   71.50    3.21
  -1   9  -4   64.56    3.98
   1  -9  -4   71.05    3.26
  -1   9  -4   64.53    3.36
  -1  -9   4   60.29    6.02
  -1  -9  -5    3.87    2.61
  -1  -9  -5    2.53    1.65
  -1   9   5    4.20    2.51
   1  -9   5   -2.62    2.32
   1   9  -5    6.20    6.64
  -1   9   5    8.88    4.06
   1   9  -5   -2.40    3.18
  -1   9   5   -1.34    1.72
   1  -9   5    1.86    4.41
   1   9  -5   -0.58    1.68
   1   9  -5   -0.65    2.28
   1   9  -5    3.07    2.14
  -1  -9   5   -2.79    4.39
  -1   9  -5   -2.24    3.56
   1  -9  -5    2.92    1.65
   1   9   5    2.16    3.44
  -1  -9   5   -3.53    2.33
   1   9   5    1.06    2.16
  -1   9  -5    0.97    2.02
  -1   9  -5    2.65    2.50
  -1   9  -5   -1.36    1.69
  -1   9   6   -0.22    2.79
  -1   9   6    2.41    4.76
   1   9  -6   -0.93    2.41
   1  -9   6   -1.71    3.55
   1  -9   6   -2.74    5.10
  -1  -9  -6   -0.01    2.12
   1   9  -6    0.98    2.98
   1   9  -6    1.37    2.37
   1   9   6    0.96    2.90
  -1  -9   6   -3.14    3.08
   1   9   6   10.07    5.14
   1  -9  -6    3.11    2.11
  -1   9  -6    2.09    2.50
  -1   9  -6    3.60    2.99
  -1   9  -6    0.78    2.37
  -1  -9   6    8.16    5.42
   2  -9   0   42.02    3.58
   2   9   0   44.10    2.86
  -2   9   0   42.52    2.70
  -2   9   0   50.95    4.91
   2   9   0   40.56    2.26
  -2   9   0   37.42    3.18
   2   9   0   39.38    2.99
  -2   9   0   43.51    2.19
   2  -9   0   43.18    2.57
   2   9   0   41.96    2.16
   2  -9   1    1.01    1.57
   2   9  -1   -0.26    1.38
  -2  -9  -1    1.58    1.65
  -2   9   1    1.90    1.23
   2   9  -1    2.56    1.08
   2  -9   1    2.72    2.26
   2   9  -1    0.81    1.11
  -2   9   1    0.92    0.88
   2   9  -1    3.39    1.87
   2  -9   1    3.48    1.37
  -2   9   1    1.91    2.82
  -2   9   1    2.43    1.63
  -2   9  -1    1.38    2.78
  -2  -9   1    5.97    1.69
   2  -9  -1    1.80    1.09
  -2   9  -1    0.55    1.94
   2   9   1    1.78    1.77
   2   9   1    1.81    1.00
  -2   9  -1    1.00    1.26
  -2  -9   1    1.47    1.68
  -2   9  -1    3.04    1.36
  -2   9   2    8.61    3.22
  -2   9   2   11.63    1.76
   2  -9   2   14.19    1.46
   2   9  -2   10.17    1.33
   2  -9   2    7.73    2.66
   2   9  -2   10.59    1.74
  -2  -9  -2   14.57    2.24
  -2   9   2    9.38    2.25
   2   9  -2   11.45    2.13
   2   9  -2   10.70    2.72
   2   9  -2    9.48    1.78
   2  -9   2   11.59    2.03
  -2   9  -2   12.77    1.82
   2   9   2    8.11    2.28
   2  -9  -2   11.10    1.32
   2   9   2   13.65    1.32
  -2  -9   2   17.07    1.85
  -2  -9   2   11.80    1.85
  -2  -9   2   14.55    2.55
  -2   9  -2   13.41    3.72
  -2   9  -2    9.73    2.17
   2   9   2   11.75    1.58
  -2   9  -2   11.75    2.03
   2   9   2   10.21    2.45
   2  -9   3    6.88    1.71
  -2   9   3    2.43    3.37
   2   9  -3    5.41    1.87
  -2   9   3    5.55    1.94
   2   9  -3    2.91    1.60
  -2  -9  -3    2.88    1.83
  -2   9   3    0.94    2.43
   2   9  -3    6.84    1.33
   2  -9   3    5.91    1.96
  -2   9   3    4.25    1.52
   2  -9   3    3.87    3.03
   2   9  -3    3.11    1.78
   2   9  -3    9.59    3.17
  -2   9  -3    2.80    1.14
   2   9   3    5.67    2.45
  -2   9  -3    5.50    2.43
   2   9   3    3.66    1.50
  -2   9  -3    3.54    1.72
   2   9   3    4.02    1.17
   2  -9  -3    4.51    1.10
  -2   9  -3   -0.87    4.08
  -2  -9   3    3.35    1.92
  -2  -9   3    5.24    1.85
  -2   9  -3    4.25    1.57
   2   9   3    4.02    1.66
  -2  -9   3    0.35    2.37
  -2   9   4   32.22    2.71
  -2   9   4   40.54    3.73
  -2   9   4   43.60    5.38
  -2  -9  -4   32.26    3.21
   2   9  -4   31.27    2.79
   2   9  -4   26.66    3.09
   2   9  -4   27.54    3.44
  -2   9   4   33.25    3.69
   2   9  -4   38.25    3.92
   2  -9   4   33.20    3.69
   2   9  -4   19.26    4.64
   2  -9   4   30.79    4.95
  -2   9  -4   42.23    4.55
   2   9   4   32.87    4.40
  -2   9  -4   30.09    2.67
  -2  -9   4   28.79    3.13
   2   9   4   34.91    3.46
   2  -9  -4   29.20    2.49
   2   9   4   30.81    3.19
  -2  -9   4   33.53    4.85
  -2   9  -4   32.63    3.46
   2   9   4   34.59    2.40
  -2   9  -4   31.47    2.95
   2   9  -5   -0.99    2.88
  -2  -9  -5    4.93    1.83
  -2  -9  -5    2.37    2.34
   2  -9   5   -2.06    2.38
   2   9  -5   -1.11    2.23
   2   9  -5    0.58    2.31
  -2   9   5    1.17    1.84
  -2   9   5    2.85    2.57
   2  -9   5    1.54    4.03
  -2   9   5    2.75    3.64
   2   9  -5    3.20    6.01
   2   9  -5    3.21    1.80
   2  -9  -5    3.92    1.65
  -2   9  -5    2.01    1.78
  -2  -9   5   -3.00    4.04
   2   9   5    2.78    3.75
  -2   9  -5    7.79    4.33
  -2   9  -5    0.65    2.27
   2   9   5    2.56    2.33
  -2   9  -5    2.01    2.18
   2  -9   6   -3.02    5.44
   2   9  -6    4.40    2.52
   2  -9   6    3.07    3.39
   2   9  -6    8.13    3.16
  -2  -9  -6    5.02    2.38
  -2   9   6    6.71    4.94
   2   9  -6    0.78    3.07
  -2   9   6    3.65    3.04
  -2   9  -6   10.31    3.08
   2   9   6    3.99    4.89
  -2   9  -6    1.97    2.68
   2   9   6    3.68    2.65
  -2   9  -6    3.43    2.37
  -2  -9   6    1.10    5.21
   2  -9  -6    3.64    2.34
  -3   9   0   75.91    3.16
   3   9   0   81.07    3.78
   3  -9   0   74.40    4.47
   3   9   0   72.67    3.19
   3   9   0   73.48    3.02
  -3   9   0   75.46    3.69
   3   9   0   74.72    2.74
   3  -9   0   77.32    3.42
  -3   9   0   74.69    5.91
  -3   9   0   84.93    4.34
   3   9   0   77.78    2.91
   3   9  -1   12.10    1.86
  -3   9   1   13.26    2.54
  -3   9   1   11.99    1.58
  -3   9   1    9.18    1.80
   3  -9   1   11.51    1.93
   3   9  -1    9.84    1.23
   3  -9   1   13.72    2.98
   3  -9   1    9.86    1.67
   3   9  -1    9.94    1.60
   3   9  -1   10.96    1.35
   3   9  -1   12.36    2.23
  -3   9   1   15.68    3.69
  -3   9  -1    7.16    3.63
  -3   9  -1   13.08    2.34
   3  -9  -1   12.41    1.66
  -3  -9   1   11.56    1.68
  -3   9  -1    8.15    1.74
   3   9   1   11.19    1.50
   3   9   1   12.60    1.93
  -3   9  -1   12.49    1.84
   3   9   1   10.94    1.32
   3   9   1    9.29    1.74
  -3   9   2   18.73    2.24
   3   9  -2   22.52    1.88
  -3   9   2   29.26    4.32
   3  -9   2   21.25    3.70
   3   9  -2   21.77    2.86
   3  -9   2   21.32    1.93
   3   9  -2   22.97    2.48
  -3  -9  -2   27.26    2.73
  -3   9   2   29.74    3.51
   3  -9   2   17.79    2.30
   3   9  -2   26.05    3.22
   3   9  -2   20.06    2.06
   3   9   2   25.38    1.85
  -3   9  -2   32.47    3.60
  -3  -9   2   25.99    2.98
  -3  -9   2   26.88    2.69
   3   9   2   24.67    1.98
   3  -9  -2   23.21    1.43
  -3   9  -2   24.79    2.49
  -3   9  -2   19.46    2.19
  -3   9  -2   25.45    4.70
   3   9   2   22.43    2.16
   3   9   2   20.85    2.83
   3   9   2   21.28    2.49
   3  -9  -2   20.61    2.02
  -3   9   3   13.79    4.39
   3  -9   3   13.22    1.94
   3   9  -3    9.85    2.08
  -3   9   3   12.11    1.92
   3  -9   3   14.36    2.58
   3   9  -3    9.31    1.77
   3   9  -3   11.54    2.13
  -3  -9  -3   16.57    2.23
   3   9  -3   11.57    3.37
   3   9  -3    9.34    2.19
   3  -9   3   14.21    3.88
  -3   9   3   12.81    2.23
   3   9   3   10.65    2.56
   3   9   3   11.00    2.00
  -3   9  -3   13.10    5.25
  -3  -9   3   12.79    2.59
   3  -9  -3   13.11    1.52
  -3   9  -3   14.15    2.41
  -3  -9   3   11.76    1.99
   3  -9  -3   14.63    1.61
  -3   9  -3    9.76    2.01
  -3   9  -3   15.74    2.89
   3   9   3   13.64    1.98
  -3  -9   3   12.55    2.92
  -3   9   4   40.69    5.45
   3   9  -4   51.16    4.18
   3   9  -4   46.91    4.20
   3   9  -4   54.13    3.80
  -3   9   4   47.09    4.41
   3   9  -4   48.32    3.26
   3   9  -4   48.09    5.49
   3  -9   4   35.87    4.08
   3  -9   4   49.62    6.07
  -3   9   4   41.91    4.16
  -3   9   4   39.32    3.24
   3  -9  -4   46.19    2.87
   3   9   4   48.25    3.63
  -3   9  -4   57.65    5.86
  -3  -9   4   47.75    5.19
  -3   9  -4   50.74    3.97
   3   9   4   50.46    5.17
  -3  -9   4   48.54    3.78
  -3   9  -4   44.71    3.32
  -3   9  -4   46.72    3.11
   3  -9   5    5.87    4.74
  -3   9   5    2.75    1.93
   3   9  -5    4.14    1.88
   3   9  -5   -0.95    2.73
  -3   9   5    6.62    3.06
  -3   9   5    4.69    3.90
   3   9  -5    7.22    5.76
   3  -9   5    0.88    2.99
   3   9  -5    5.02    3.61
   3   9  -5   -1.08    2.41
  -3   9  -5    4.89    2.64
  -3   9  -5    4.97    1.88
   3   9   5    3.55    3.86
  -3   9  -5    0.36    4.46
   3  -9  -5    4.02    1.88
  -3  -9   5    1.45    2.55
  -3   9  -5    4.77    2.14
   3   9   5    4.35    2.30
  -3  -9   5    7.43    4.21
   3  -9   6    7.03    4.18
  -3   9   6    8.58    3.47
   3   9  -6    7.74    3.28
  -3   9   6   17.03    5.55
   3   9  -6    8.88    2.62
   3  -9   6   16.16    6.18
   3   9  -6    9.63    3.54
  -3   9  -6    9.59    3.63
   3  -9  -6   10.76    2.70
  -3   9  -6   10.25    2.98
   3   9   6    5.16    4.79
   3   9   6   10.81    3.35
  -3   9  -6    8.28    2.61
  -3  -9   6    7.95    6.07
   4  -9   0   10.73    1.98
  -4   9   0    9.92    1.83
   4   9   0   10.33    1.57
   4   9   0   11.14    1.54
   4   9   0   10.40    1.93
  -4   9   0   13.93    2.67
  -4   9   0   14.26    4.02
  -4   9   0   11.69    1.74
   4  -9   0   10.47    2.69
  -4   9   1   17.29    1.93
   4  -9   1   14.13    3.43
  -4   9   1   21.68    3.27
   4  -9   1   18.69    2.43
  -4   9   1   14.52    2.03
  -4   9   1   25.23    4.31
   4   9  -1   14.60    1.85
   4   9  -1   15.90    1.70
   4  -9   1   16.50    1.59
   4   9  -1   16.37    2.49
   4   9  -1   15.34    2.16
  -4   9  -1   18.62    2.08
  -4   9  -1   17.61    2.15
  -4   9  -1   21.19    3.04
   4   9   1   17.17    1.56
   4   9   1   15.41    1.77
   4   9   1   16.24    1.88
   4   9   1   15.22    1.91
   4  -9  -1   20.44    2.22
  -4   9  -1   16.37    4.52
   4   9   1   15.83    1.87
   4  -9   2   16.91    1.73
  -4   9   2   16.39    2.23
   4   9  -2   15.18    1.70
   4  -9   2    9.36    3.43
   4  -9   2   15.19    2.43
  -4   9   2   18.16    4.55
   4   9  -2   11.58    2.14
   4   9  -2   14.79    1.71
   4   9  -2   13.27    2.43
   4   9  -2    9.63    2.07
  -4   9   2   17.24    2.97
   4   9   2   14.26    1.65
  -4   9  -2   15.78    2.24
   4   9   2   16.47    1.87
   4  -9  -2   17.59    2.00
   4  -9  -2   13.89    1.55
  -4  -9   2   12.25    2.35
   4   9   2   16.38    1.73
  -4   9  -2   14.83    2.17
  -4   9  -2   14.12    2.56
  -4   9  -2   14.94    4.63
   4   9   2   11.26    2.28
   4   9  -3   17.02    2.23
   4  -9   3   19.49    2.27
   4   9  -3   16.75    2.39
   4  -9   3   15.68    4.02
  -4   9   3   20.10    2.68
   4   9  -3   14.92    2.55
   4  -9   3   16.22    2.91
   4   9  -3   14.51    1.97
  -4   9   3   16.91    2.31
   4   9  -3   19.14    3.43
  -4  -9   3   16.75    2.97
  -4  -9   3   19.37    2.22
   4   9   3   25.19    2.74
  -4   9  -3   15.47    2.35
  -4   9  -3   17.29    2.60
   4  -9  -3   15.31    1.71
   4  -9  -3   17.35    2.13
  -4   9  -3   17.83    3.96
   4   9   3   15.69    3.03
   4   9  -4    6.11    2.49
  -4   9   4    4.91    1.81
   4   9  -4    6.02    2.18
   4  -9   4    0.56    3.80
   4   9  -4    6.64    2.71
   4   9  -4    5.33    1.76
   4   9  -4    2.89    4.09
   4  -9   4    7.64    2.66
  -4   9   4    1.52    3.61
  -4   9   4    5.69    2.58
   4   9   4    2.68    2.95
  -4   9  -4    5.64    4.31
  -4   9  -4    8.18    2.39
  -4  -9   4    4.10    2.13
  -4   9  -4    4.17    1.76
  -4  -9   4    3.24    3.13
   4  -9  -4    5.31    1.64
   4  -9  -4    6.19    2.01
   4   9   4    3.62    1.93
  -4   9   5   14.87    2.70
  -4   9   5   13.02    3.19
   4  -9   5    5.38    4.97
   4   9  -5   15.22    6.18
   4   9  -5   13.48    3.22
   4  -9   5   12.42    3.63
  -4   9   5   15.62    4.76
   4   9  -5   14.33    3.50
   4   9  -5   15.59    3.78
   4   9  -5   15.50    2.60
   4   9   5    8.77    4.22
   4  -9  -5   14.31    2.26
   4  -9  -5    7.60    2.23
  -4  -9   5   10.94    4.84
  -4   9  -5   13.98    3.08
   4  -9  -5   17.28    2.48
  -4  -9   5   11.18    2.85
  -4   9  -5   17.99    3.09
   4   9   5   10.25    2.63
  -5   9   0   15.11    4.79
  -5   9   0   16.90    2.19
   5  -9   0   20.48    1.89
   5   9   0   23.50    2.23
   5  -9   0   20.41    3.28
  -5   9   0   20.91    2.15
   5   9   0   19.62    2.06
   5   9   0   19.95    2.47
  -5   9   0   14.40    2.67
   5  -9   1   -1.48    2.51
  -5   9   1   -0.47    1.10
   5  -9   1    2.08    1.80
  -5   9   1   -1.25    2.69
   5   9  -1    2.88    1.78
   5  -9   1   -1.19    1.19
   5   9  -1   -0.53    1.09
   5   9  -1   -2.17    1.33
   5  -9  -1   -0.76    1.82
  -5   9  -1   -0.12    1.19
   5   9   1    0.18    1.19
   5   9   1    1.71    1.35
  -5   9  -1    0.11    2.57
  -5   9  -1    0.39    1.33
   5  -9  -1    2.07    1.11
   5  -9   2   -1.42    1.45
   5   9  -2    1.75    1.84
   5  -9   2   -1.76    1.88
  -5   9   2   -1.66    1.33
  -5   9   2    2.44    2.75
   5   9  -2   -0.55    1.73
   5   9  -2    1.42    1.63
   5   9  -2    0.35    1.04
   5   9  -2    3.81    1.55
   5  -9   2    4.25    3.22
   5   9   2   -3.19    1.86
   5   9   2    1.42    1.19
  -5   9  -2    0.30    1.32
  -5   9  -2    1.24    1.45
  -5  -9   2   -0.47    1.85
   5  -9  -2    3.40    1.81
   5   9   2    1.97    1.52
   5  -9  -2    0.06    1.08
  -5   9  -2   -0.33    2.45
   5   9   2    0.68    1.07
   5   9  -3    2.09    1.93
   5   9  -3    1.46    1.63
   5   9  -3    1.46    1.64
  -5   9   3    3.97    3.38
   5  -9   3    0.55    2.25
   5   9  -3    4.35    2.87
   5  -9   3   -3.64    3.19
  -5   9   3    0.15    1.44
   5  -9  -3    2.25    1.45
  -5   9  -3   -0.02    1.65
   5   9   3    0.53    2.10
  -5   9  -3    0.72    1.40
   5  -9  -3    0.48    2.00
   5   9   3   -0.76    2.36
  -5   9  -3   11.90    4.00
   5   9   3    1.18    1.38
  -5  -9   3   -1.76    2.51
   5   9  -4   11.90    2.78
  -5   9   4   12.04    2.22
   5  -9   4   11.55    4.29
   5   9  -4    7.64    2.57
  -5   9   4    3.39    3.69
  -5   9   4   12.55    2.90
   5  -9   4   15.57    3.65
   5   9  -4   10.89    2.26
   5   9  -4   13.24    4.54
   5   9   4   13.35    2.62
   5  -9  -4   13.35    2.12
  -5  -9   4   12.10    3.70
   5   9   4    9.57    3.33
  -5  -9   4   12.80    2.45
  -5   9  -4   13.79    2.58
   5  -9  -4   14.60    2.47
  -5   9  -4   12.26    2.47
  -5   9   5   -0.44    1.98
   5  -9   5    2.77    3.74
   5   9  -5    0.99    3.08
  -5   9   5    0.56    3.27
   5   9  -5   -1.69    2.79
   5  -9   5    3.15    4.90
   5   9  -5   -0.39    2.01
  -5   9   5    2.09    4.49
   5  -9  -5    0.12    1.96
  -5  -9   5    2.59    4.65
   5   9   5    6.45    4.18
   5   9   5   -3.79    2.48
   5  -9  -5    0.21    2.30
  -5   9  -5   -1.92    2.19
  -5   9  -5   -2.72    2.46
   6   9   0   22.97    2.64
   6   9   0   28.46    2.75
   6  -9   0   32.05    4.37
   6   9   0   25.02    2.85
  -6   9   0   27.47    3.50
  -6   9   0   29.23    2.65
  -6   9   0   28.29    2.62
   6  -9   0   24.40    2.41
   6   9  -1    2.90    1.83
  -6   9   1   -1.78    2.72
   6  -9   1    0.77    2.76
   6  -9   1    2.03    2.27
   6   9  -1    6.20    1.72
   6   9  -1    8.46    2.22
  -6   9   1    1.20    1.47
   6  -9   1    2.56    1.53
   6   9   1    2.07    1.41
  -6   9  -1    7.46    1.86
  -6   9  -1    7.62    3.05
   6   9   1    5.59    1.60
  -6   9  -1    3.51    1.74
   6  -9  -1    3.82    1.46
   6  -9   2   13.05    3.76
  -6   9   2   15.12    3.40
  -6   9   2   12.13    2.01
   6  -9   2   16.21    2.21
   6   9  -2   11.94    1.63
   6   9  -2   16.08    2.27
   6  -9   2   13.74    3.16
   6   9  -2   14.79    2.51
   6  -9  -2   15.23    1.96
  -6   9  -2   15.78    2.52
  -6   9  -2   21.78    3.77
   6   9   2   15.23    1.81
   6   9   2   13.83    2.23
  -6   9  -2   15.24    2.59
   6   9   2   16.32    2.29
   6  -9   3    6.78    2.95
   6  -9   3    3.01    3.39
  -6   9   3    2.45    1.89
   6   9  -3    3.20    1.77
   6   9  -3    5.00    3.03
   6   9  -3    4.80    2.11
   6   9  -3    7.19    1.84
  -6   9  -3   -0.10    1.82
   6   9   3    3.64    1.66
   6   9   3   -2.13    2.45
   6  -9  -3    5.25    1.74
  -6   9  -3    3.44    1.75
   6   9  -4   16.60    4.92
   6   9  -4   20.14    3.07
   6   9  -4   13.34    2.45
   6  -9   4   16.68    3.43
  -6   9   4   22.11    5.28
  -6   9   4   21.34    3.10
   6   9  -4   17.86    3.38
  -6   9   4   18.56    3.92
   6  -9   4   14.03    4.83
  -6   9  -4   15.02    3.15
   6   9   4   12.65    3.73
  -6   9  -4   20.66    3.18
  -6  -9   4   17.38    4.11
   6   9   4   15.68    2.68
   6  -9  -4   16.28    2.46
  -6   9   5   -0.16    4.66
   6   9  -5    6.28    4.56
   6  -9   5    2.68    3.74
   6   9  -5    6.49    3.09
   6   9  -5    4.36    2.56
  -6   9   5    6.24    2.52
  -6   9   5    6.70    3.64
   6  -9   5   10.24    5.76
  -6   9  -5    6.25    3.00
   6  -9  -5    3.76    2.26
   6   9   5    6.55    2.79
  -6  -9   5    8.80    4.75
   6   9   5    5.80    4.28
  -6   9  -5    6.55    2.58
   7   9   0   -4.07    1.57
   7   9   0    3.08    1.84
   7   9   0   -3.39    1.55
  -7   9   0    1.82    1.56
   7  -9   0    3.10    2.92
   7  -9   0   -2.29    1.65
  -7   9   0   -0.87    1.40
   7   9  -1   31.32    3.03
   7  -9   1   29.80    4.94
  -7   9   1   28.79    2.81
   7  -9   1   30.97    3.87
   7   9  -1   29.13    3.17
   7  -9   1   29.77    3.01
   7   9   1   30.47    2.94
   7  -9  -1   27.18    2.99
   7   9   1   33.52    2.67
  -7   9  -1   35.05    3.08
  -7   9  -1   25.38    2.83
   7  -9   2    9.99    3.95
   7   9  -2   10.09    2.21
   7  -9   2   16.14    3.29
  -7   9   2   10.66    2.29
   7   9  -2    7.82    2.19
  -7   9  -2   10.84    2.25
   7   9   2   11.76    2.06
   7  -9  -2    6.65    1.89
  -7   9  -2    6.93    2.17
   7   9  -3   24.08    2.91
   7  -9   3   21.75    5.18
   7   9  -3   25.29    3.26
   7   9  -3   26.09    3.14
  -7   9   3   25.78    3.06
   7  -9   3   23.00    3.46
  -7   9  -3   23.32    2.89
  -7  -9   3   32.93    3.60
   7  -9  -3   28.46    2.92
  -7   9  -3   26.83    3.45
   7   9   3   24.78    3.53
   7   9   3   27.51    2.84
  -7   9   4    0.30    3.95
  -7   9   4   -1.43    2.15
   7   9  -4   -1.22    2.17
   7  -9   4    3.63    3.25
  -7   9   4    3.20    3.17
   7   9  -4    2.79    2.68
   7   9  -4   -0.86    2.76
   7  -9   4   -4.14    4.51
   7   9   4   -4.10    3.29
  -7   9  -4    3.58    2.14
   7   9   4    1.26    2.29
   7  -9  -4    1.45    2.14
  -7  -9   4    1.76    3.74
  -7   9  -4    3.18    2.27
   8   9   0   15.53    2.54
   8  -9   0   17.17    2.60
  -8   9   0   10.68    1.99
   8  -9   0   16.39    4.12
   8   9   0   13.67    2.53
  -8   9   1   32.12    3.05
   8   9  -1   33.48    3.48
   8   9  -1   35.37    3.70
   8  -9   1   34.81    5.14
   8  -9   1   37.75    4.25
   8   9   1   37.12    3.04
   8  -9  -1   41.33    3.33
  -8   9  -1   35.05    3.21
  -8   9  -1   32.25    3.19
   8   9  -2   79.10    4.85
   8  -9   2   57.94    7.12
   8  -9   2   83.32    6.02
  -8   9   2   80.86    4.55
   8   9  -2   76.84    4.49
   8   9   2   75.91    4.21
  -8   9  -2   67.95    4.47
  -8   9  -2   79.73    4.59
   8  -9  -2   78.68    4.34
   8  -9   3   24.34    5.71
   8   9  -3   32.52    3.28
  -8   9   3   28.06    3.35
   8   9  -3   30.46    3.55
   8  -9   3   35.52    4.75
   8   9  -3   30.56    4.08
   8  -9  -3   28.35    3.24
  -8  -9   3   27.06    3.42
   8   9   3   26.99    3.49
   8   9   3   32.70    3.14
  -8   9  -3   28.25    3.63
  -8   9  -3   33.09    3.74
   8   9  -4    9.37    3.16
  -8   9   4    3.39    3.25
   8   9  -4    5.18    2.53
   8  -9   4    3.55    4.67
  -8   9   4    6.14    2.92
  -8   9   4    2.98    4.42
   8  -9   4    8.04    3.70
   8   9  -4   13.23    3.26
   8   9   4    7.58    2.68
   8  -9  -4   11.26    2.61
  -8   9  -4    7.40    2.59
  -8   9  -4    8.39    2.88
   8   9   4    6.44    3.75
   9  -9   0    0.50    2.25
   9   9   0    2.76    2.44
   9   9   0   -1.82    2.32
   9  -9   0    1.51    3.40
  -9   9   0    0.21    1.70
   9   9  -1    2.16    2.36
   9  -9   1    0.31    3.66
   9  -9   1    3.50    2.81
   9   9  -1    3.06    2.16
  -9   9   1    2.14    2.07
  -9   9  -1    3.92    1.99
   9  -9  -1    3.84    2.32
   9   9   1    2.97    2.18
  -9   9  -1   -1.10    1.94
  -9   9   2   22.47    3.03
   9  -9   2   25.13    5.39
   9  -9   2   24.11    4.57
   9   9  -2   24.17    3.33
  -9   9  -2   28.17    3.45
   9  -9  -2   26.97    3.16
  -9   9  -2   25.82    3.43
  -9   9   3   -0.44    2.00
   9  -9   3    8.36    4.86
   9   9  -3    2.58    2.94
   9   9  -3    1.25    2.34
   9  -9   3   -1.24    3.15
   9   9   3   -0.29    1.81
  -9   9  -3    2.10    2.44
   9   9   3    0.60    2.84
  -9   9  -3    3.31    2.61
   9  -9  -3   -1.07    2.41
  10  -9   0    9.22    4.48
 -10   9   0    7.93    2.66
  10   9   0    1.79    2.72
  10  -9   0    6.58    2.84
  10   9  -1    8.08    3.01
  10   9  -1    7.09    2.71
  10  -9   1   11.59    4.36
 -10   9   1   13.71    2.78
  10  -9   1    6.59    3.25
  10   9   1   14.49    3.89
 -10   9  -1   12.32    2.52
  10  -9  -1   12.69    3.03
  10   9   1   14.71    2.91
 -10   9   2    9.05    2.39
  10   9  -2   12.35    3.13
  10  -9   2   14.47    5.20
  10   9  -2   14.86    3.62
  10  -9   2   15.95    3.99
  10  -9  -2   12.10    2.87
 -10   9  -2   14.43    3.11
 -10   9  -2    8.62    3.04
  11  -9   0   -0.27    3.02
  11  -9   0   -0.53    4.10
 -11   9   0    3.52    2.48
  11   9   0    6.17    3.29
  11   9  -1   -2.07    2.90
 -11   9   1    5.10    2.38
  11  -9   1    3.45    4.56
  11   9  -1    5.72    3.02
  11  -9   1    1.84    3.09
 -11   9  -1    0.71    2.57
  11   9   1   -2.28    2.56
  11  -9  -1    4.09    2.97
   0  10   0  141.17    5.26
   0 -10   0  135.16    4.67
   0  10   0  141.34    4.48
   0  10   0  134.65    6.69
   0  10   0  130.99    5.16
   0 -10   0  127.38    5.31
   0  10   1   -0.70    2.55
   0  10   1    2.12    1.43
   0 -10  -1   -0.14    1.99
   0  10  -1   -1.51    1.35
   0  10  -1    0.31    2.71
   0 -10  -1    3.19    1.16
   0 -10   1    2.66    1.69
   0  10   1    0.27    1.14
   0  10  -1   -1.81    1.37
   0  10  -1    0.86    1.29
   0 -10   1    1.42    2.08
   0  10  -2   80.79    5.81
   0  10  -2   72.97    3.75
   0  10   2   81.17    5.23
   0  10  -2   79.37    4.22
   0  10   2   75.01    3.58
   0 -10   2   74.30    3.07
   0 -10   2   68.25    4.86
   0 -10  -2   73.06    4.25
   0  10  -2   76.11    4.07
   0  10  -2   81.25    2.77
   0 -10   2   75.38    3.94
   0  10  -3    1.51    1.73
   0 -10   3   -3.04    1.70
   0  10   3    0.03    1.74
   0  10  -3    0.24    2.13
   0  10   3   -0.26    2.41
   0  10  -3    4.60    3.95
   0  10   3   -0.70    1.49
   0 -10  -3   -0.71    1.96
   0  10  -3    1.80    1.80
   0  10   3    1.50    1.20
   0 -10  -3   -0.46    0.91
   0  10  -3    0.35    1.14
   0  10   3   -3.37    3.04
   0 -10   3   -0.99    2.82
   0  10   4   85.76    6.36
   0  10   4   77.11    3.83
   0  10  -4   79.99    4.40
   0  10  -4   77.07    3.74
   0  10   4   78.00    4.30
   0  10  -4   77.32    5.68
   0 -10   4   68.73    4.81
   0  10   4   77.37    5.00
   0  10  -4   89.71    8.36
   0 -10  -4   80.35    3.44
   0 -10   4   71.29    6.46
   0  10  -4   73.81    4.81
   0 -10   5    2.71    4.53
   0  10   5   -1.30    1.83
   0  10  -5    0.28    1.96
   0  10  -5   -1.43    3.78
   0  10   5   -1.47    2.80
   0 -10  -5   -0.75    1.63
   0 -10   5   -2.97    2.67
   0  10   5    0.68    4.05
   0  10  -5    0.25    2.73
   0  10  -5   -0.11    2.30
   1  10   0    2.90    1.42
   1  10   0    0.35    1.16
  -1  10   0    2.05    1.37
  -1  10   0    5.34    2.85
   1 -10   0    4.49    1.48
   1 -10   0    3.32    1.94
   1  10   0   -0.80    2.22
  -1 -10   0    2.29    1.51
   1  10   0    2.02    1.05
  -1  10   0    1.41    1.59
  -1  10   0    0.76    1.03
   1 -10   1   18.92    2.33
  -1  10   1   18.84    2.31
  -1  10   1   13.64    1.41
   1  10  -1   16.05    2.97
  -1 -10  -1   19.77    2.65
   1  10  -1   15.65    2.04
  -1  10   1   22.72    2.61
   1  10  -1   17.74    2.06
   1  10  -1   18.32    2.42
  -1  10   1   22.21    3.75
   1 -10   1   16.26    2.98
  -1  10  -1   17.18    2.06
   1  10   1   16.20    2.19
   1  10   1   11.39    2.70
  -1  10  -1   12.81    2.01
   1  10   1   18.06    2.19
  -1 -10   1   16.86    2.32
   1 -10  -1   16.16    1.80
  -1 -10   1   17.68    2.55
  -1  10  -1   14.91    2.34
  -1  10  -1   22.06    3.74
  -1  10   2    7.43    3.12
   1  10  -2    3.05    2.95
   1  10  -2    1.87    1.72
   1  10  -2    3.98    1.49
  -1 -10  -2    3.19    2.27
  -1  10   2    2.21    1.83
   1 -10   2    4.22    1.26
   1 -10   2    4.44    2.48
  -1  10   2    2.98    1.45
   1  10  -2    4.57    0.99
   1  10  -2    3.06    1.58
  -1  10  -2    2.41    1.48
  -1  10  -2    3.88    0.98
   1  10   2    5.00    2.52
   1  10   2    4.17    1.56
  -1  10  -2    2.81    3.46
  -1 -10   2    7.07    2.29
  -1  10  -2    6.15    1.69
  -1  10  -2    6.48    2.38
  -1 -10   2    5.18    1.78
  -1 -10   2    3.54    1.43
   1  10   2    0.23    2.58
  -1  10   3   18.58    3.60
  -1  10   3   19.55    2.15
   1  10  -3   17.37    4.31
   1  10  -3   18.69    1.88
  -1 -10  -3   25.97    2.96
  -1  10   3   21.60    4.32
   1  10  -3   18.81    2.51
   1  10  -3   19.32    2.73
   1 -10   3   19.22    2.63
   1 -10   3   20.62    2.25
   1 -10   3   18.76    4.01
  -1  10   3   14.92    2.08
   1  10  -3   13.17    2.48
  -1 -10   3   19.68    3.54
   1  10   3   16.46    3.20
  -1  10  -3   21.08    3.25
   1 -10  -3   16.00    1.56
  -1  10  -3   24.49    5.05
  -1  10  -3   16.27    1.84
  -1 -10   3   15.95    2.42
   1  10   3   18.89    1.93
  -1  10  -3   14.22    2.57
   1  10   3   20.16    3.40
  -1  10  -3   19.33    2.34
  -1 -10   3   19.89    2.81
   1  10   3   19.75    2.32
   1  10   3   20.39    2.80
   1 -10   4   -0.06    3.88
  -1  10   4   -1.82    2.09
  -1  10   4    0.64    1.63
   1 -10   4    0.84    2.37
   1  10  -4   -1.61    1.60
  -1  10   4    3.01    2.56
   1  10  -4    0.58    1.60
   1  10  -4   -0.69    2.13
  -1  10   4    6.75    3.26
   1  10  -4    4.51    4.96
  -1 -10  -4    0.46    2.60
   1  10  -4   -2.48    2.74
   1  10   4   -0.05    2.17
   1 -10  -4    0.87    1.33
   1  10   4    0.04    3.09
  -1  10  -4   -1.75    1.86
  -1 -10   4    1.12    2.29
  -1  10  -4   -0.09    1.47
  -1  10  -4    0.59    1.88
  -1 -10   4    2.95    3.81
   1  10   4   -0.88    2.31
   1  10   4    0.00    1.55
  -1  10  -4   -0.92    3.16
  -1  10  -4   -0.01    5.84
   1  10  -5    7.91    2.10
   1  10  -5    3.68    6.39
  -1 -10  -5   11.56    1.98
   1 -10   5    9.01    5.06
  -1 -10  -5    5.78    3.29
   1  10  -5    5.42    2.78
   1 -10   5    9.00    3.11
  -1  10   5   11.49    4.30
  -1  10   5    8.71    3.12
  -1  10   5    9.78    2.29
   1  10  -5    7.37    3.90
   1  10  -5    8.10    2.45
  -1 -10   5   11.04    4.95
   1  10   5   15.60    4.48
   1 -10  -5   12.86    2.10
  -1  10  -5    3.72    4.10
  -1  10  -5    8.12    2.31
  -1  10  -5   10.76    2.98
  -1 -10   5    9.59    3.04
   1  10   5    8.51    2.07
   1  10   5   13.05    3.00
  -1  10  -5   10.56    2.60
  -2  10   0   22.65    4.05
  -2  10   0   13.03    1.56
   2  10   0   16.02    1.89
   2  10   0   11.30    2.23
   2 -10   0   14.86    2.71
  -2  10   0   14.56    2.16
   2  10   0   15.48    1.67
   2  10   0   15.17    2.13
   2 -10   0   15.45    2.03
  -2  10   0    8.49    2.14
   2 -10   1   20.99    2.38
  -2 -10  -1   22.94    2.84
   2  10  -1   19.54    2.24
   2  10  -1   16.73    2.57
   2 -10   1   20.60    2.45
   2  10  -1   19.02    2.42
  -2  10   1   18.56    2.21
  -2  10   1   20.30    2.65
   2 -10   1   26.35    3.52
  -2  10   1   24.77    4.15
  -2  10   1   17.08    1.71
   2  10  -1   18.10    1.85
   2  10   1   21.23    2.80
  -2 -10   1   21.76    2.74
  -2 -10   1   20.42    2.37
  -2  10  -1   23.65    3.08
   2  10   1   16.23    1.89
   2  10   1   21.59    2.27
  -2  10  -1   19.12    2.21
   2 -10  -1   19.07    2.08
  -2  10  -1   17.29    2.03
  -2  10  -1   22.60    4.19
   2  10  -2    0.97    1.06
   2 -10   2    1.47    1.17
  -2 -10  -2   -2.06    2.03
   2  10  -2    1.82    1.53
   2  10  -2    3.63    1.51
   2  10  -2   -0.22    1.51
   2  10  -2    0.15    2.52
   2 -10   2   -0.34    2.73
  -2  10   2    4.78    3.52
  -2  10   2   -0.23    1.39
  -2  10   2    4.61    2.25
   2 -10   2   -0.95    1.72
  -2 -10   2    2.79    2.06
  -2 -10   2    3.03    1.66
   2  10   2    0.26    1.32
  -2  10  -2   -1.00    3.80
  -2  10  -2    4.96    1.70
   2  10   2    2.46    2.48
  -2 -10   2    1.72    1.42
  -2  10  -2    2.53    2.17
   2  10   2    2.82    2.30
  -2  10  -2   -0.19    1.47
  -2  10   3   22.49    2.56
  -2  10   3   21.88    3.66
   2 -10   3   15.55    3.78
   2  10  -3   25.25    3.12
   2  10  -3   19.34    3.69
   2  10  -3   20.35    2.88
  -2  10   3   27.15    4.79
   2 -10   3   21.56    2.91
   2 -10   3   25.76    2.71
  -2  10   3   22.25    2.43
   2  10  -3   20.03    2.62
  -2 -10  -3   23.06    2.74
   2  10  -3   23.15    2.12
  -2 -10   3   27.84    3.72
   2 -10  -3   22.13    1.67
   2  10   3   21.38    2.74
  -2  10  -3   21.16    5.16
  -2  10  -3   20.74    1.96
  -2  10  -3   23.66    3.15
  -2 -10   3   21.70    2.74
  -2  10  -3   17.75    2.69
   2  10   3   23.57    2.48
  -2 -10   3   23.41    2.75
   2  10   3   19.70    2.04
  -2  10  -3   18.49    2.31
   2  10   3   18.44    3.33
   2  10  -4    4.78    1.96
  -2  10   4    6.39    2.47
   2  10  -4    5.25    2.77
   2  10  -4    4.79    4.71
  -2 -10  -4    6.13    2.48
   2  10  -4    6.76    1.76
  -2  10   4    0.92    3.59
  -2  10   4    4.69    2.83
  -2  10   4    5.01    1.75
   2 -10   4    6.33    2.62
   2 -10   4    2.18    3.72
   2  10  -4    3.42    2.20
   2  10   4    4.22    2.44
  -2  10  -4    8.48    3.54
  -2  10  -4    6.77    2.10
  -2 -10   4   12.39    3.74
   2  10   4    4.32    1.49
   2  10   4    5.58    2.15
   2 -10  -4    6.81    1.58
  -2  10  -4    4.16    1.56
  -2  10  -4    5.57    2.38
   2  10   4    5.23    3.17
  -2 -10   4    4.23    2.62
   2  10  -5   12.08    2.95
  -2  10   5   10.34    3.72
   2  10  -5    8.44    3.14
  -2  10   5    2.21    4.05
  -2  10   5    8.57    2.27
   2 -10   5   18.97    3.82
   2  10  -5    9.85    6.35
   2  10  -5   13.28    3.78
   2  10  -5    6.58    2.25
   2 -10   5    5.43    4.88
  -2 -10   5   10.41    2.89
  -2  10  -5    9.22    4.62
   2 -10  -5   10.86    1.96
  -2  10  -5   13.73    3.41
   2  10   5   13.50    4.47
  -2  10  -5    7.22    2.71
   2  10   5    5.00    2.48
  -2 -10   5   17.73    5.08
  -2  10  -5    9.38    2.15
  -3  10   0   64.74    6.30
  -3  10   0   70.08    4.44
   3  10   0   62.83    3.59
   3 -10   0   66.05    4.74
   3 -10   0   67.58    3.43
   3  10   0   66.50    3.37
   3  10   0   68.66    3.03
  -3  10   0   66.80    3.67
  -3  10   0   71.36    3.26
   3  10   0   70.28    2.87
  -3  10   1   32.78    2.77
   3  10  -1   32.78    2.12
   3  10  -1   34.04    3.13
   3  10  -1   35.11    2.63
   3  10  -1   42.74    2.99
   3 -10   1   39.18    4.41
  -3  10   1   45.45    5.36
  -3  10   1   36.55    2.22
   3  10  -1   36.77    1.96
  -3  10   1   37.28    3.68
   3 -10   1   36.03    3.02
   3  10   1   34.13    2.14
   3  10   1   37.96    2.97
  -3  10  -1   43.07    5.67
  -3 -10   1   31.17    2.57
  -3  10  -1   34.75    2.42
   3 -10  -1   32.11    2.54
   3  10   1   36.32    1.86
   3  10   1   32.24    3.16
   3  10   1   33.25    2.73
  -3  10  -1   35.34    2.87
  -3  10  -1   34.32    3.91
  -3  10   2   18.98    2.80
   3  10  -2   19.48    2.88
   3  10  -2   12.46    2.70
   3 -10   2   16.37    1.81
  -3 -10  -2   18.87    2.82
   3 -10   2   16.49    2.62
   3  10  -2   16.49    2.26
   3  10  -2   17.24    1.98
   3  10  -2   16.29    1.86
  -3  10   2   19.99    4.68
   3 -10   2   15.52    3.88
  -3  10   2   18.55    2.38
   3 -10  -2   19.13    1.88
   3  10   2   18.32    1.92
   3  10   2   22.36    2.66
   3  10   2   15.64    1.87
  -3  10  -2   24.62    5.01
   3  10   2   15.86    2.84
  -3 -10   2   17.77    2.62
  -3  10  -2   17.94    2.28
  -3  10  -2   16.10    2.73
   3  10   2   16.94    2.09
  -3  10  -2   14.75    2.23
   3  10  -3   22.12    3.38
   3  10  -3   26.28    2.44
   3  10  -3   28.06    2.94
   3 -10   3   21.48    4.64
   3  10  -3   23.54    2.79
   3 -10   3   26.35    2.82
  -3 -10  -3   27.09    3.17
   3  10  -3   23.19    4.26
  -3  10   3   22.81    2.58
  -3  10   3   26.55    3.15
   3 -10   3   30.07    3.47
  -3  10  -3   24.92    3.06
  -3  10  -3   22.99    3.53
  -3 -10   3   25.97    3.67
  -3  10  -3   19.66    2.59
   3  10   3   24.88    2.65
   3 -10  -3   24.82    1.91
   3  10   3   28.45    3.71
  -3 -10   3   23.11    3.22
   3  10   3   22.30    2.11
  -3 -10   3   24.30    2.87
   3  10  -4   42.63    4.29
  -3  10   4   45.16    3.32
   3 -10   4   44.82    4.37
   3 -10   4   45.48    6.10
  -3  10   4   44.49    4.46
   3  10  -4   41.14    3.83
   3  10  -4   43.75    3.25
   3  10  -4   46.91    5.78
  -3  10   4   45.58    6.15
   3  10  -4   43.41    4.38
  -3  10   4   47.12    4.53
  -3  10  -4   51.31    5.33
   3  10   4   42.69    3.80
   3 -10  -4   45.02    2.96
  -3 -10   4   45.42    4.08
  -3  10  -4   43.10    4.11
  -3  10  -4   45.15    3.69
   3  10   4   47.68    5.52
  -3 -10   4   53.77    5.64
  -3  10   5   13.81    3.92
   3 -10   5   15.85    3.84
  -3  10   5   19.41    2.76
   3 -10   5   16.19    5.43
   3  10  -5   17.71    3.38
   3  10  -5   19.36    4.14
   3  10  -5   15.03    2.46
   3  10  -5   12.05    3.58
  -3  10  -5   19.36    2.70
  -3 -10   5   21.58    5.42
   3 -10  -5   20.45    2.49
  -3  10  -5   24.21    3.71
  -3  10  -5   17.92    3.07
   3  10   5   15.58    3.36
   3  10   5   21.05    5.05
  -4  10   0   20.80    2.46
  -4  10   0   19.04    4.91
   4  10   0   21.14    2.47
   4  10   0   23.02    2.10
   4 -10   0   21.37    2.57
   4 -10   0   18.84    3.53
   4  10   0   15.68    1.81
  -4  10   0   22.03    2.25
  -4  10   0   20.79    2.92
   4  10  -1   -1.60    1.68
   4  10  -1   -0.95    1.40
  -4  10   1   -0.55    2.17
   4  10  -1    0.96    1.45
   4  10  -1   -0.82    1.07
   4 -10   1    0.65    3.00
  -4  10   1   -0.40    1.21
   4 -10   1   -1.74    1.61
  -4  10   1   -0.21    1.27
  -4  10   1    4.10    4.33
   4 -10   1    1.36    1.00
   4  10   1   -0.37    1.40
   4  10   1   -0.54    1.36
   4 -10  -1   -2.46    1.66
   4  10   1   -1.26    1.11
  -4  10  -1    2.23    4.66
  -4  10  -1    1.44    2.59
  -4  10  -1    1.34    1.39
  -4  10  -1    2.35    1.33
   4  10   1   -0.57    1.44
   4  10   1    0.60    1.04
   4  10  -2   21.17    2.74
   4  10  -2   22.87    2.15
  -4  10   2   24.99    3.74
   4 -10   2   25.40    4.30
  -4  10   2   23.68    2.49
   4  10  -2   16.06    2.93
   4 -10   2   25.61    3.21
   4  10  -2   25.79    3.14
   4 -10   2   19.41    2.27
   4  10  -2   18.86    2.15
  -4  10  -2   19.51    2.31
   4  10   2   24.30    2.33
   4  10   2   19.24    2.27
   4 -10  -2   20.70    1.63
   4  10   2   21.78    2.35
  -4  10  -2   22.78    3.75
   4 -10  -2   25.04    2.51
  -4  10  -2   18.44    2.69
   4  10   2   23.46    2.75
   4  10   2   21.11    2.14
  -4 -10   2   22.00    2.60
  -4  10   3   -0.49    1.50
   4 -10   3    4.22    2.20
   4 -10   3   -0.96    3.54
   4  10  -3    1.71    1.87
   4 -10   3    3.29    2.10
   4  10  -3    2.63    1.57
   4  10  -3   -5.76    2.89
   4  10  -3   -0.56    2.11
  -4  10   3    0.84    3.25
   4  10  -3   -2.01    1.61
  -4  10  -3    4.03    1.78
  -4 -10   3   -2.31    2.61
  -4  10  -3    6.92    3.66
   4  10   3   -2.00    1.85
   4 -10  -3    0.94    1.74
   4  10   3    2.82    2.64
   4 -10  -3    1.49    1.23
  -4  10  -3    1.46    1.98
   4  10   3   -1.64    1.57
   4  10  -4   21.32    3.48
   4 -10   4   22.87    3.65
  -4  10   4   20.82    3.59
  -4  10   4   20.37    5.02
   4  10  -4   19.01    2.94
   4  10  -4   19.61    2.46
   4  10  -4   30.31    5.15
   4 -10   4   20.12    5.28
   4  10  -4   15.05    2.85
  -4  10   4   23.49    2.81
   4 -10  -4   22.32    2.31
  -4  10  -4   16.45    2.98
  -4 -10   4   24.14    2.97
  -4  10  -4   27.36    5.73
  -4  10  -4   20.02    3.11
  -4 -10   4   17.03    3.88
   4 -10  -4   23.93    2.43
   4  10   4   21.13    4.14
   4  10   4   19.86    2.92
   4  10  -5    2.26    3.78
  -4  10   5   -4.32    2.75
   4  10  -5   -0.33    2.90
   4 -10   5   -0.27    3.74
  -4  10   5   -6.16    4.80
   4  10  -5   -1.93    2.20
   4  10  -5    6.44    3.16
  -4  10   5   -0.81    2.10
   4 -10   5    0.67    5.10
  -4  10  -5    0.20    2.46
   4  10   5   -0.31    3.98
  -4 -10   5   -2.83    4.72
   4 -10  -5    0.21    1.76
   4  10   5   -0.28    2.30
  -4  10  -5   -1.23    2.61
  -5  10   0    4.13    2.57
   5  10   0    1.99    1.28
   5 -10   0    1.76    2.64
  -5  10   0    2.11    1.45
   5  10   0    1.80    1.40
  -5  10   0    3.37    1.42
   5 -10   0    2.43    1.23
   5  10   0    2.77    1.69
   5 -10   1   42.29    5.29
   5  10  -1   27.71    2.78
   5 -10   1   28.61    3.47
  -5  10   1   32.05    3.75
   5  10  -1   30.46    3.17
  -5  10   1   31.41    2.67
   5 -10   1   31.31    2.32
   5  10  -1   29.23    2.49
   5  10   1   25.46    2.12
   5  10   1   21.13    2.60
  -5  10  -1   28.36    2.93
  -5  10  -1   34.08    4.43
  -5  10  -1   30.48    2.60
   5  10  -2   32.83    3.34
  -5  10   2   42.03    4.64
  -5  10   2   39.25    3.05
   5 -10   2   34.33    5.12
   5  10  -2   35.96    2.77
   5  10  -2   33.59    2.49
   5 -10   2   32.84    3.85
   5 -10   2   37.05    2.75
   5  10  -2   29.72    3.06
   5  10  -2   34.82    4.03
   5 -10  -2   34.83    3.20
   5  10   2   38.77    2.51
   5  10   2   33.13    2.46
  -5  10  -2   42.85    4.68
  -5  10  -2   35.21    2.92
   5  10   2   36.32    2.94
  -5 -10   2   39.47    3.08
   5  10   2   32.50    3.16
   5 -10  -2   30.37    2.25
   5  10   2   33.71    2.72
  -5  10  -2   40.12    3.36
   5 -10   3   31.22    5.11
   5  10  -3   25.96    2.95
  -5  10   3   34.55    5.21
   5  10  -3   26.50    2.96
   5  10  -3   28.28    3.81
  -5  10   3   22.66    2.78
   5  10  -3   28.21    3.47
   5 -10   3   28.53    3.66
   5  10  -3   26.03    3.61
  -5  10  -3   29.10    3.36
   5  10   3   25.35    3.45
  -5  10  -3   17.14    3.83
   5 -10  -3   22.95    2.29
   5  10   3   26.34    2.69
  -5  10  -3   24.91    2.79
   5 -10  -3   28.82    2.81
  -5  10   4    3.69    2.60
   5  10  -4    4.36    2.68
   5  10  -4    9.20    4.59
   5 -10   4   -2.21    4.05
   5  10  -4   -0.54    2.32
   5  10  -4    0.59    1.95
  -5  10   4   -2.58    3.71
   5 -10   4    2.12    3.09
  -5  10   4    2.92    1.88
   5  10  -4   -2.26    2.56
   5 -10  -4    3.22    2.32
   5  10   4    1.71    3.22
   5 -10  -4    2.05    1.78
  -5  10  -4   -0.53    1.86
  -5 -10   4    2.50    3.65
   5  10   4    4.40    1.89
  -5  10  -4    1.15    2.15
  -5  10   5   11.32    2.76
   5  10  -5   12.17    3.17
  -5  10   5   12.79    5.63
   5  10  -5   10.69    2.69
  -5  10   5   23.79    4.68
   5 -10   5   16.26    4.60
   5 -10   5   22.17    6.44
   5  10  -5    9.64    3.67
   5  10   5   16.84    5.10
   5 -10  -5   16.47    3.08
   5 -10  -5   20.01    2.61
   5  10   5   15.70    3.53
  -5 -10   5    8.13    4.96
  -5  10  -5   18.75    3.23
  -5  10  -5   16.87    3.29
   6 -10   0    9.50    3.47
   6  10   0   16.59    2.62
   6 -10   0   10.65    1.95
   6  10   0   13.08    2.13
  -6  10   0   22.99    4.21
  -6  10   0   11.34    1.96
   6  10   0   10.52    2.00
  -6  10   0   13.59    2.04
   6  10  -1    8.17    1.91
   6  10  -1    6.02    2.03
   6 -10   1    7.98    3.46
   6 -10   1   10.76    1.84
  -6  10   1    7.15    1.86
   6 -10   1    6.19    2.63
  -6  10   1    7.77    3.34
   6  10  -1    9.55    2.25
   6  10   1    9.92    1.79
   6 -10  -1    9.70    1.68
  -6  10  -1    7.59    2.07
   6  10   1    7.28    2.10
  -6  10  -1    9.52    2.07
  -6  10  -1   14.16    3.78
   6  10  -2   14.87    2.12
  -6  10   2   13.20    3.51
   6 -10   2   18.12    2.48
   6 -10   2   23.42    3.71
   6  10  -2   16.46    2.88
  -6  10   2   12.77    2.22
   6 -10   2   17.29    4.33
   6  10  -2   18.45    2.61
   6  10   2   16.68    2.46
   6  10   2   16.01    2.33
  -6  10  -2   14.46    2.28
  -6  10  -2   16.99    3.68
   6  10   2   16.06    1.96
   6  10   2   18.50    2.19
  -6  10  -2   17.65    2.87
   6 -10  -2   17.71    2.08
   6  10  -3    2.91    2.77
   6  10  -3    8.24    2.05
   6 -10   3    7.71    4.24
   6  10  -3    7.33    1.99
   6  10  -3    5.00    3.13
   6 -10   3    2.30    2.66
   6  10  -3   10.21    2.99
  -6  10   3    7.96    2.54
  -6  10  -3    6.17    2.10
  -6  10  -3    5.06    2.36
   6  10   3    6.70    1.95
   6 -10  -3    2.42    1.74
   6  10   3   10.41    2.78
  -6 -10   3    8.34    3.00
  -6  10   4    9.29    4.82
  -6  10   4    9.60    2.41
   6 -10   4    9.59    4.96
   6  10  -4    7.67    3.12
   6 -10   4   12.25    3.75
   6  10  -4   17.03    3.20
   6  10  -4    4.70    4.20
   6  10  -4   11.95    2.61
  -6  10   4    7.03    3.16
   6  10   4    9.16    3.62
   6  10   4   13.57    2.65
   6 -10  -4   10.40    2.15
  -6 -10   4   14.49    4.14
  -6  10  -4   11.87    2.81
  -6  10  -4    7.13    2.55
  -7  10   0    9.14    2.07
   7  10   0    7.15    2.11
   7  10   0   10.22    2.49
   7  10   0    9.85    2.31
   7 -10   0   13.02    4.10
   7 -10   0   15.74    2.43
  -7  10   0   10.78    2.19
   7  10  -1    0.94    1.77
   7  10  -1    2.15    2.27
  -7  10   1   -0.81    1.55
   7  10  -1   -0.83    2.05
   7 -10   1   -4.65    3.50
   7 -10   1   -1.52    2.46
   7 -10   1    0.63    2.06
   7  10   1   -1.79    1.80
  -7  10  -1   -1.66    1.74
   7 -10  -1    2.00    1.64
  -7  10  -1    1.97    1.68
   7  10   1   -1.10    1.72
   7  10  -2    0.76    2.27
  -7  10   2    0.36    1.95
   7  10  -2   -0.94    2.44
   7 -10   2    2.66    3.25
   7  10  -2   -1.22    1.69
   7 -10   2   -2.50    3.69
   7 -10  -2    0.29    1.83
  -7  10  -2   -0.90    1.99
  -7  10  -2    3.58    1.88
   7  10   2    1.10    2.04
   7  10  -3   -5.30    2.15
   7  10  -3    0.58    1.90
   7 -10   3   -3.53    2.75
  -7  10   3    0.51    1.91
   7 -10   3   -5.13    4.02
   7  10  -3    1.29    2.10
   7 -10  -3    3.85    1.88
   7  10   3    0.93    2.68
  -7  10  -3    0.44    2.16
   7  10   3    0.64    1.79
  -7 -10   3    3.03    2.87
  -7  10  -3   -1.66    2.02
  -7  10   4    9.58    4.82
   7  10  -4   13.32    3.60
  -7  10   4   11.52    2.84
   7 -10   4    8.94    4.00
   7  10  -4    6.50    2.51
   7 -10   4    5.88    5.24
   7  10  -4    4.75    3.06
  -7  10  -4    8.59    2.63
   7  10   4    7.41    2.52
   7 -10  -4   13.05    2.49
  -7  10  -4    8.63    2.90
   7  10   4    7.18    3.89
   8  10   0    6.64    2.25
   8  10   0    7.86    2.48
   8  10   0    8.20    2.48
   8 -10   0    5.03    2.32
  -8  10   0   11.32    2.34
   8 -10   0    5.16    4.01
   8  10  -1   27.19    3.32
   8  10  -1   27.15    3.77
   8  10  -1   29.15    3.36
  -8  10   1   29.51    3.25
   8 -10   1   27.24    5.22
   8 -10   1   31.56    4.57
   8  10   1   31.07    3.26
   8  10   1   29.26    3.15
   8 -10  -1   26.16    3.18
  -8  10  -1   28.71    3.42
  -8  10  -1   27.76    3.19
   8 -10   2   19.95    5.14
   8  10  -2   31.92    3.78
  -8  10   2   27.25    3.40
   8  10  -2   26.33    3.61
   8 -10   2   22.19    3.93
   8 -10  -2   21.07    2.70
   8  10   2   19.67    2.87
   8  10   2   23.62    2.75
  -8  10  -2   23.33    3.27
  -8  10  -2   25.34    3.26
   8  10  -3   20.64    3.61
   8 -10   3   19.68    3.96
   8  10  -3   25.02    3.07
   8 -10   3   15.17    5.46
   8  10  -3   20.22    2.98
  -8  10   3   19.12    3.10
   8 -10  -3   28.54    3.08
  -8  10  -3   20.81    3.36
   8  10   3   22.47    3.26
   8  10   3   20.55    2.70
  -8  10  -3   23.41    3.69
   9  10   0    6.21    2.70
   9 -10   0    5.32    2.59
   9  10   0   12.14    3.08
  -9  10   0    7.45    2.12
   9  10   0    3.44    2.51
   9 -10   0    3.83    4.12
   9 -10   1   30.15    4.26
  -9  10   1   31.68    3.63
   9  10  -1   37.67    3.99
   9 -10   1   30.83    5.89
   9  10  -1   37.86    4.47
   9  10  -1   44.71    4.12
   9  10   1   33.31    3.64
   9  10   1   38.46    4.03
  -9  10  -1   40.62    4.13
   9 -10  -1   41.95    3.82
  -9  10  -1   33.51    3.79
   9  10  -2    1.30    2.37
   9 -10   2    5.89    3.65
   9  10  -2    3.48    2.65
  -9  10   2    3.40    2.40
   9 -10   2    3.34    4.62
   9 -10  -2    5.13    2.50
  -9  10  -2    7.05    2.77
  -9  10  -2    2.57    2.46
   9 -10   3   37.02    5.63
   9 -10   3   33.73    6.25
   9  10  -3   31.02    4.16
  -9  10   3   32.43    4.16
   9  10  -3   27.30    3.54
  -9  10  -3   32.60    4.47
   9  10   3   36.18    4.06
   9 -10  -3   32.27    3.74
   9  10   3   28.53    3.34
  -9  10  -3   36.10    4.39
 -10  10   0   19.72    3.29
  10  10   0   17.30    3.30
  10  10   0   23.21    3.49
  10 -10   0   25.43    3.84
  10 -10   0   28.06    5.68
  10  10   0   24.28    4.00
  10 -10   1   15.84    4.20
  10  10  -1    9.50    3.11
  10 -10   1    8.92    4.67
  10  10  -1   11.23    3.23
  10  10   1   11.93    2.78
  10  10   1    2.22    3.09
 -10  10  -1   10.37    2.86
  10 -10  -1   11.27    2.99
  10  10  -2    3.20    3.07
  10 -10   2    2.64    4.99
  10 -10   2    8.29    4.07
 -10  10   2    5.69    2.70
  10  10  -2    5.70    3.23
 -10  10  -2   10.41    3.27
  10 -10  -2    9.37    2.88
 -10  10  -2    4.07    2.41
   0  11   0   -0.71    2.84
   0 -11   0   -0.05    1.66
   0  11   0    2.89    1.15
   0  11   0   -2.29    1.31
   0  11   0   -0.91    1.65
   0 -11   0   -0.45    1.61
   0 -11   1   10.21    2.55
   0  11   1    7.91    2.02
   0  11  -1    8.98    1.88
   0  11  -1    9.32    1.93
   0 -11  -1   10.69    1.72
   0 -11   1    9.95    2.33
   0  11   1   11.98    3.34
   0  11  -1    6.33    1.69
   0  11   1   10.97    1.33
   0  11   1    6.86    1.89
   0  11  -1    7.74    3.29
   0  11  -2    2.49    1.80
   0  11   2   -0.61    1.65
   0 -11   2    1.30    1.91
   0  11   2    2.83    1.57
   0  11  -2    0.69    1.47
   0  11   2    0.25    3.29
   0  11  -2   -0.12    1.85
   0 -11   2   -0.61    2.62
   0  11  -2   -7.59    3.55
   0  11  -3   13.66    2.77
   0  11  -3   11.13    2.85
   0 -11   3    9.16    2.56
   0  11  -3    6.61    2.06
   0  11  -3   13.49    1.61
   0 -11   3    6.22    3.47
   0 -11   3    8.33    2.20
   0  11  -3   11.91    4.56
   0  11   3   10.54    3.37
   0  11   3   12.63    2.14
   0  11   3   18.30    4.28
   0  11   4    0.27    2.32
   0  11   4   -6.65    4.22
   0  11  -4   -1.68    1.93
   0  11  -4   -0.16    2.07
   0  11  -4   -4.97    3.40
   0  11   4   -0.93    1.59
   0  11  -4    2.69    1.69
   0 -11   4    2.74    4.00
   0  11   4   -3.39    3.30
   0 -11  -4    1.72    1.47
   0  11   4   -3.30    2.18
   0  11  -4    0.21    5.59
   0  11  -5    4.92    2.91
   0 -11  -5    2.79    1.80
   0 -11   5    3.92    2.97
   0 -11   5    4.84    4.83
   0  11  -5    5.92    2.18
   0  11   5    6.13    4.75
   0  11  -5    3.58    2.88
   0  11   5    4.23    3.17
   0  11   5    6.33    2.31
   1  11   0   10.90    3.13
   1  11   0    9.96    1.95
  -1  11   0    8.61    1.35
   1 -11   0    8.63    2.22
  -1  11   0    6.94    1.73
  -1 -11   0    8.90    1.96
   1  11   0    6.48    1.74
  -1  11   0    8.08    2.31
   1 -11   0    7.62    1.97
  -1  11   0    9.31    3.67
   1  11   0    9.26    1.47
   1  11  -1   43.26    2.81
  -1  11   1   40.30    3.49
  -1  11   1   37.52    2.15
  -1  11   1   40.99    3.00
   1  11  -1   36.81    3.14
   1  11  -1   36.78    2.91
   1 -11   1   40.63    4.10
  -1  11   1   42.56    4.94
   1  11  -1   42.08    4.67
  -1 -11   1   44.75    3.61
   1  11   1   38.70    2.90
  -1  11  -1   38.90    3.12
  -1  11  -1   38.65    3.51
  -1 -11   1   38.94    3.50
  -1  11  -1   40.49    4.88
   1  11   1   38.46    2.94
   1  11   1   43.26    4.60
   1 -11  -1   42.06    2.64
  -1  11  -1   37.12    2.66
   1  11  -2    3.60    3.36
  -1  11   2    8.60    2.42
   1  11  -2    6.19    1.82
   1  11  -2    5.22    1.78
  -1  11   2    7.24    1.89
  -1  11   2    9.38    3.93
   1  11  -2    5.85    2.16
   1 -11   2    3.61    2.88
  -1  11  -2    8.14    4.35
  -1  11  -2    7.39    1.81
   1  11   2    8.04    2.81
  -1 -11   2    5.76    2.01
   1  11   2    3.93    3.07
  -1  11  -2    9.27    2.51
   1  11   2    6.04    1.67
  -1 -11   2    4.51    2.64
  -1 -11   2    8.78    1.68
  -1  11  -2    2.83    1.63
  -1  11   3   30.05    2.73
   1 -11   3   33.21    3.07
   1  11  -3   39.93    5.24
  -1  11   3   36.16    5.35
   1  11  -3   39.26    3.76
   1 -11   3   29.80    4.64
   1  11  -3   32.88    2.27
   1  11  -3   29.31    3.26
  -1  11   3   31.76    4.69
   1  11  -3   31.57    2.96
   1 -11   3   30.53    3.47
   1  11   3   40.29    4.72
  -1  11  -3   29.91    2.28
  -1 -11   3   28.80    3.22
   1  11   3   30.79    3.37
   1  11   3   32.47    4.30
  -1  11  -3   29.47    3.31
   1  11   3   34.99    2.78
  -1 -11   3   29.31    3.48
  -1  11  -3   34.36    5.94
  -1  11  -3   35.66    3.98
  -1  11  -3   31.32    3.03
  -1 -11   3   33.61    4.45
  -1  11   4    7.72    3.69
  -1  11   4    7.86    2.08
   1  11  -4    9.02    2.19
   1  11  -4    9.93    3.27
   1  11  -4    5.10    2.80
  -1  11   4    8.22    2.53
  -1  11   4   10.98    2.69
   1 -11   4    7.76    2.99
   1 -11   4    0.34    4.14
   1  11  -4   10.63    5.85
   1  11  -4   11.38    2.00
  -1  11   4   11.69    5.11
  -1  11  -4   11.05    3.45
   1  11   4    5.97    2.39
   1  11   4    8.54    2.62
  -1 -11   4   11.37    4.49
  -1  11  -4    9.86    1.89
  -1  11  -4    8.95    2.50
   1  11   4   10.77    2.04
   1  11   4   13.85    4.12
   1 -11  -4    9.13    1.59
  -1  11  -4   13.35    2.84
  -1 -11   4   14.71    3.25
  -1  11  -4    7.74    6.63
  -1  11   5   24.88    4.25
   1  11  -5   27.75    4.05
  -1  11   5   23.70    3.06
   1  11  -5   27.58    3.12
   1 -11   5    9.10    5.20
   1 -11   5   21.23    3.79
  -1  11   5   33.96    6.15
   1  11  -5   26.57    4.06
   1  11   5   26.62    3.94
   1  11   5   27.65    2.98
  -1  11  -5   23.14    3.73
  -1  11  -5   21.89    2.68
   1  11   5   25.99    5.68
  -1 -11   5   13.54    5.72
  -1  11  -5   22.94    3.48
   1 -11  -5   25.07    2.68
  -2  11   0   67.61    3.82
   2  11   0   67.69    4.20
  -2  11   0   86.90    6.76
   2  11   0   76.28    3.14
  -2  11   0   73.63    4.59
   2 -11   0   64.11    4.66
   2  11   0   70.33    3.34
   2  11   0   69.56    3.82
   2 -11   0   63.65    3.68
   2  11  -1    7.44    1.95
  -2  11   1    6.75    3.94
   2  11  -1    3.21    2.35
  -2  11   1    6.07    1.63
   2  11  -1    5.50    1.53
   2  11  -1    3.13    1.54
  -2  11   1    5.21    2.47
   2 -11   1    5.41    1.80
   2 -11   1    3.05    2.68
  -2  11   1    6.36    1.29
   2  11   1    4.86    1.51
  -2  11  -1   -0.73    2.46
  -2  11  -1    5.25    1.67
  -2 -11   1    1.91    1.88
   2  11   1    0.74    1.47
   2  11   1    2.33    2.31
  -2  11  -1   10.13    4.00
   2 -11  -1    5.96    1.73
  -2 -11   1    3.55    2.34
  -2  11  -1    3.16    1.59
   2 -11   2    5.58    3.00
   2  11  -2    3.44    1.58
  -2  11   2    2.49    4.07
   2  11  -2    2.42    1.68
  -2 -11  -2   10.10    2.76
   2  11  -2    5.58    2.99
   2  11  -2    2.44    1.70
   2 -11   2    3.09    2.17
  -2  11   2    5.09    1.75
   2  11  -2    2.42    1.12
  -2 -11   2    7.07    2.42
   2  11   2    4.99    1.77
   2  11   2    3.40    2.45
  -2  11  -2    3.80    1.75
  -2  11  -2    2.54    1.72
  -2  11  -2    7.10    4.44
   2  11   2    2.52    2.61
  -2 -11   2    3.46    1.58
  -2  11  -2    4.98    2.57
  -2  11   3    4.63    3.16
   2  11  -3    3.84    1.88
   2  11  -3    6.35    2.32
   2 -11   3    4.78    3.98
  -2  11   3    7.37    2.06
   2  11  -3    3.76    2.11
   2  11  -3    3.87    1.45
   2  11  -3    4.04    3.61
   2 -11   3    4.88    1.95
  -2 -11  -3    3.51    2.87
  -2  11   3    6.88    1.96
   2 -11   3    3.17    2.19
  -2  11   3    8.21    5.27
  -2  11  -3    3.10    5.49
   2  11   3    4.08    2.92
  -2 -11   3    4.93    3.34
   2  11   3    3.28    1.70
   2  11   3    3.89    1.64
   2  11   3    6.58    3.22
  -2 -11   3    5.61    2.32
   2  11   3    5.17    2.03
  -2  11  -3    3.65    1.76
  -2  11  -3    2.23    3.09
  -2 -11   3    7.24    2.58
  -2  11  -3    3.90    2.12
   2  11  -4   50.06    5.07
   2 -11   4   56.55    4.63
  -2  11   4   53.95    4.76
   2  11  -4   52.44    4.75
   2  11  -4   54.19    3.46
   2  11  -4   56.77    6.68
   2  11  -4   56.60    4.24
   2 -11   4   52.09    6.55
  -2  11   4   52.17    3.62
  -2 -11  -4   52.33    4.68
  -2  11   4   57.66    6.76
  -2  11   4   52.28    4.73
  -2  11  -4   66.79    6.27
   2  11   4   58.75    4.50
   2  11   4   55.44    5.90
  -2  11  -4   53.09    3.36
  -2 -11   4   55.10    4.68
  -2 -11   4   49.21    5.89
  -2  11  -4   47.84    4.45
   2  11   4   50.99    4.16
   2  11   4   53.10    3.34
  -2  11  -4   55.91    4.04
  -2  11   5    2.62    3.02
   2  11  -5    3.54    2.22
   2  11  -5   -1.64    2.74
  -2  11   5   -8.62    4.24
   2 -11   5   10.63    5.69
  -2  11   5    5.64    2.24
   2 -11   5    3.50    3.66
   2  11  -5    1.00    2.69
  -2  11  -5    3.24    2.97
   2 -11  -5    2.23    1.80
  -2 -11   5   -3.48    4.74
   2  11   5    1.89    2.24
   2  11   5   -1.37    4.40
  -2  11  -5    4.23    2.20
   2  11   5    2.40    2.53
  -2  11  -5    2.27    2.46
   3  11   0   31.58    2.26
  -3  11   0   37.34    5.76
   3  11   0   33.78    2.33
   3 -11   0   29.10    3.06
   3 -11   0   36.13    4.16
   3  11   0   32.26    3.11
   3  11   0   37.39    3.11
  -3  11   0   30.49    2.45
  -3  11   0   39.89    3.94
  -3  11   0   30.34    2.90
   3  11  -1   20.59    2.76
  -3  11   1   31.35    5.20
  -3  11   1   28.60    3.66
   3 -11   1   19.53    3.62
   3 -11   1   20.20    2.78
  -3  11   1   22.56    2.02
   3  11  -1   19.24    2.04
   3  11  -1   25.94    2.45
  -3  11   1   20.16    2.47
   3  11  -1   22.27    2.99
  -3  11  -1   28.14    3.55
   3  11   1   20.06    2.40
   3  11   1   23.02    2.21
   3 -11  -1   23.12    2.45
   3  11   1   20.38    2.69
   3  11   1   18.67    2.54
  -3  11  -1   17.75    2.41
  -3  11  -1   22.39    2.35
  -3  11  -1   19.99    4.87
  -3 -11   1   19.60    2.20
   3 -11   2    3.83    2.33
   3  11  -2    7.99    1.43
   3  11  -2    8.21    2.37
   3  11  -2    9.86    2.08
  -3  11   2    6.89    2.83
   3 -11   2    7.08    3.56
  -3  11   2    7.28    1.91
  -3  11   2    4.26    5.14
   3  11  -2   10.49    1.87
  -3 -11  -2   10.63    2.96
   3  11  -2    7.78    2.62
  -3  11  -2    8.64    3.32
  -3  11  -2    6.07    1.83
  -3  11  -2    7.16    2.06
   3  11   2    7.01    1.91
   3  11   2    9.93    2.66
   3  11   2    6.45    2.41
  -3 -11   2    9.45    2.98
   3 -11  -2   10.32    1.90
   3  11   2    6.81    1.71
  -3  11  -2    1.88    5.28
   3  11  -3   16.12    4.30
   3 -11   3   21.04    3.15
   3  11  -3   12.37    2.93
  -3  11   3   16.01    2.22
   3  11  -3   19.37    2.61
   3 -11   3   19.64    2.45
  -3  11   3   19.96    3.35
  -3 -11  -3   17.91    2.82
   3 -11   3   14.86    4.07
   3  11  -3   15.54    2.42
   3  11  -3   15.30    2.10
   3  11   3   12.64    3.40
   3  11   3   16.25    2.48
   3  11   3   19.28    2.17
  -3  11  -3   15.32    2.48
   3  11   3   13.63    3.27
  -3 -11   3   19.54    3.25
  -3  11  -3   15.52    3.02
  -3 -11   3   12.30    3.75
  -3  11  -3   17.76    3.52
   3  11   3   18.61    2.20
  -3  11   4   21.84    3.44
   3  11  -4   24.36    5.20
  -3  11   4   25.27    3.81
   3 -11   4   17.00    5.16
  -3  11   4   17.26    2.67
   3  11  -4   25.95    2.94
   3  11  -4   19.09    3.29
  -3  11   4   12.16    4.48
   3  11  -4   20.73    3.73
  -3 -11  -4   21.18    3.01
   3  11  -4   15.45    3.37
   3 -11   4   17.52    3.46
   3  11   4   22.79    2.45
  -3 -11   4   15.35    2.78
  -3 -11   4   17.70    4.50
  -3  11  -4   18.64    3.05
  -3  11  -4   18.32    3.13
   3  11   4   20.08    4.31
  -3  11  -4   22.36    4.73
   3 -11  -4   20.04    2.17
   3  11   4   16.35    2.96
   3  11  -5   11.74    2.45
   3  11  -5   10.05    3.03
   3 -11   5   15.95    4.12
  -3  11   5   10.70    2.62
   3  11  -5   12.66    3.60
  -3  11   5    1.18    4.96
  -3  11   5   10.39    3.37
   3 -11   5   13.94    5.92
   3 -11  -5   15.30    2.29
   3  11   5   16.02    5.18
  -3  11  -5   11.03    3.28
  -3  11  -5   11.54    3.00
  -3 -11   5   16.99    5.43
   3  11   5    8.74    3.33
   4 -11   0    1.57    2.98
  -4  11   0   -0.06    1.35
  -4  11   0    1.47    2.55
   4  11   0    1.30    1.32
   4  11   0    1.32    2.03
  -4  11   0    0.18    1.35
  -4  11   0   -9.43    4.76
   4  11   0    0.67    1.13
  -4  11   1   24.23    3.76
   4  11  -1   13.40    2.28
   4  11  -1   16.20    1.79
   4 -11   1   15.05    2.80
   4  11  -1   17.79    2.76
   4  11  -1   12.38    1.63
  -4  11   1   14.85    2.27
  -4  11   1   11.35    5.21
   4  11  -1   15.42    2.07
   4 -11   1    7.49    3.83
  -4  11   1   20.86    2.45
  -4  11  -1   13.68    5.76
   4  11   1   13.54    2.08
   4 -11  -1   18.73    2.43
   4  11   1   17.96    2.29
   4  11   1   14.73    2.34
  -4  11  -1   18.87    3.77
  -4  11  -1   13.87    2.05
  -4  11  -1   13.26    2.17
   4  11  -2    2.68    1.56
   4 -11   2    0.44    1.59
  -4  11   2    0.41    1.54
   4  11  -2   -1.59    1.30
   4  11  -2    3.58    2.19
  -4  11   2    7.71    3.34
   4  11  -2    4.52    2.37
   4 -11   2   -0.30    3.53
   4 -11   2    2.32    2.42
   4  11  -2    2.71    1.71
   4  11   2    0.11    2.06
   4  11   2   -2.83    2.15
  -4  11  -2   -1.46    1.73
  -4 -11   2    2.58    2.39
  -4  11  -2    2.79    1.61
  -4  11  -2   -3.51    3.11
   4 -11  -2   -0.67    1.97
   4  11   2    1.66    1.35
   4  11   2   -0.26    1.47
   4  11   2   -0.92    1.61
   4  11  -3   11.48    2.29
   4  11  -3   13.43    3.65
   4 -11   3   13.87    4.26
  -4  11   3    7.84    1.98
   4  11  -3   13.49    2.78
   4  11  -3   12.60    2.09
   4  11  -3   10.64    2.82
   4 -11   3   13.17    2.84
  -4  11   3   21.30    4.15
   4 -11   3   12.59    2.38
   4 -11  -3   12.78    2.18
   4  11   3   10.21    3.03
   4 -11  -3   14.04    1.68
   4  11   3   10.77    1.76
  -4  11  -3   11.38    2.36
  -4 -11   3   13.61    3.43
  -4  11  -3   11.29    2.43
   4  11   3    7.93    2.10
  -4  11  -3    9.87    3.45
   4  11   3   12.34    2.34
   4  11   3   10.75    2.87
   4  11  -4   -0.92    2.32
   4 -11   4   -6.80    4.30
   4  11  -4   -1.12    2.39
  -4  11   4   -3.39    3.99
   4 -11   4    6.16    3.21
   4  11  -4   -2.36    4.36
  -4  11   4    0.84    1.99
   4  11  -4   -3.46    1.92
   4  11  -4    3.30    2.78
  -4  11   4   -1.30    2.33
  -4  11   4    2.77    3.41
   4 -11  -4    2.37    1.56
  -4  11  -4   -4.36    4.77
  -4  11  -4    0.08    2.11
  -4 -11   4   -1.28    2.45
  -4  11  -4   -0.86    2.55
   4  11   4    0.46    2.13
   4  11   4    2.27    3.70
  -4 -11   4   -9.24    3.77
  -4  11   5    6.64    2.72
   4  11  -5    6.17    3.36
   4  11  -5    4.30    2.32
   4 -11   5    9.73    6.23
  -4  11   5    5.19    5.12
   4 -11   5   10.98    4.18
   4  11  -5    4.43    3.41
  -4  11   5    4.09    3.10
   4  11   5    9.86    2.93
  -4  11  -5    6.38    2.99
   4 -11  -5    6.26    2.25
   4  11   5    5.94    4.59
  -4 -11   5    8.10    5.12
  -4  11  -5    7.34    3.02
  -5  11   0   42.25    3.12
   5  11   0   43.41    2.82
  -5  11   0   47.68    5.09
   5  11   0   44.58    3.45
   5 -11   0   44.42    5.31
  -5  11   0   43.09    3.33
   5  11   0   45.50    3.20
   5 -11   1   -0.85    1.93
   5  11  -1    2.85    1.38
  -5  11   1   -0.32    1.51
   5 -11   1    1.31    1.33
   5  11  -1    3.14    1.88
   5 -11   1    3.08    3.69
  -5  11   1    3.61    3.67
   5  11  -1    0.53    1.96
   5  11   1    2.19    1.66
   5  11   1    1.41    1.56
   5  11   1    0.94    1.70
  -5  11  -1    1.95    1.76
  -5  11  -1   -0.60    2.97
  -5  11  -1    0.57    1.82
   5  11  -2   58.99    4.42
   5  11  -2   59.77    3.38
  -5  11   2   51.01    5.57
   5 -11   2   51.68    4.72
   5  11  -2   54.88    3.91
  -5  11   2   62.11    3.82
   5 -11   2   54.44    3.14
   5  11  -2   55.34    3.22
   5  11  -2   53.64    3.76
   5 -11   2   49.14    6.23
   5  11   2   55.81    3.81
   5  11   2   59.78    3.47
  -5  11  -2   59.41    3.69
   5  11   2   55.93    3.23
   5  11   2   56.70    3.64
  -5  11  -2   51.93    4.10
   5 -11  -2   55.39    3.80
   5 -11  -2   58.26    2.66
  -5  11  -2   52.63    6.20
   5  11   2   57.20    3.17
   5  11  -3    0.72    1.83
   5 -11   3   -2.99    2.64
   5  11  -3    0.96    1.82
   5  11  -3   -6.99    3.20
   5 -11   3   -2.01    4.08
  -5  11   3    0.48    1.83
   5  11  -3   -0.75    2.45
   5  11  -3   -2.45    2.26
  -5  11   3    4.31    4.89
  -5  11  -3    1.87    3.95
   5  11   3    1.56    2.86
  -5  11  -3   -0.68    2.08
  -5  11  -3   -1.25    1.76
   5  11   3    1.34    2.53
   5 -11  -3    3.06    1.35
  -5 -11   3   -0.99    3.33
   5 -11  -3    3.42    2.40
   5  11   3   -1.04    1.80
   5  11   3    2.30    2.44
   5  11  -4   26.56    3.05
   5  11  -4   28.05    6.64
   5 -11   4   34.19    4.68
   5  11  -4   28.76    4.66
   5  11  -4   29.52    3.65
  -5  11   4   30.06    4.42
  -5  11   4   29.28    3.50
   5  11  -4   27.92    4.10
  -5  11   4   23.47    5.60
   5 -11   4   24.34    6.16
   5  11   4   21.98    4.20
  -5  11  -4   34.57    3.96
   5 -11  -4   29.41    2.82
  -5  11  -4   23.92    3.65
   5  11   4   23.98    3.38
  -5 -11   4   21.04    4.47
   6 -11   0    0.41    1.60
   6  11   0    6.98    1.81
   6 -11   0    3.78    1.55
   6  11   0    1.59    1.78
  -6  11   0    6.54    3.96
   6  11   0    1.14    2.14
   6 -11   0    0.52    3.38
  -6  11   0    0.69    1.72
  -6  11   0    4.25    2.00
   6  11  -1   28.18    3.15
  -6  11   1   24.02    2.96
  -6  11   1   31.53    5.02
   6 -11   1   26.85    4.59
   6 -11   1   19.63    3.15
   6  11  -1   21.75    3.24
   6 -11   1   28.29    2.46
   6  11  -1   28.24    2.80
  -6  11  -1   32.17    5.19
   6  11   1   15.75    2.61
  -6  11  -1   24.76    2.97
  -6  11  -1   24.04    3.00
   6  11   1   23.75    2.43
   6 -11  -1   22.66    2.40
   6  11   1   20.57    2.63
   6 -11   2    6.15    2.74
  -6  11   2   -6.03    4.37
  -6  11   2    1.66    1.73
   6 -11   2    2.67    4.15
   6  11  -2    6.34    2.59
   6  11  -2    1.92    1.83
   6  11  -2    5.59    2.41
   6 -11   2    4.83    2.13
  -6  11  -2    1.21    4.20
   6  11   2    5.42    2.38
  -6  11  -2    6.20    2.05
  -6  11  -2    0.96    2.11
   6 -11  -2    4.10    1.48
   6  11   2    2.27    1.76
   6  11  -3   17.35    3.62
   6  11  -3   14.30    2.44
   6  11  -3   24.81    3.64
   6  11  -3   19.48    3.35
  -6  11   3   26.26    3.45
   6  11  -3   17.63    2.81
   6 -11   3   21.05    3.76
   6 -11   3   23.07    5.40
   6  11   3   19.71    2.82
   6 -11  -3   21.80    2.52
  -6 -11   3   13.28    3.16
  -6  11  -3   24.15    3.34
   6  11   3   17.14    2.44
   6  11   3   19.75    3.17
  -6  11  -3   21.41    3.49
   6 -11   4    6.34    3.87
  -6  11   4    3.88    2.26
   6  11  -4   -2.23    2.93
   6  11  -4    2.82    2.69
   6  11  -4    2.80    3.16
   6  11  -4    1.84    2.41
  -6  11   4   -1.32    4.37
   6 -11   4    1.61    4.99
  -6  11  -4    5.35    2.90
  -6  11  -4    0.64    2.63
   6 -11  -4    2.11    1.82
   6  11   4    0.59    3.58
   6  11   4    3.07    2.34
   7  11   0    3.56    2.12
   7  11   0    6.05    1.98
  -7  11   0    3.16    2.01
   7 -11   0    3.36    1.95
   7  11   0    1.74    2.18
  -7  11   0    2.44    1.91
   7 -11   0    0.44    3.33
   7 -11   1   17.00    2.47
  -7  11   1   13.68    2.44
   7 -11   1   18.45    3.78
   7 -11   1    5.84    4.10
   7  11  -1   16.76    2.86
   7  11  -1   12.05    3.00
   7  11  -1    9.15    2.37
   7  11   1   12.99    2.31
  -7  11  -1   11.55    2.50
   7  11   1   14.27    2.38
   7 -11  -1   18.61    2.25
  -7  11  -1   13.67    2.58
   7  11   1    9.52    2.50
   7  11  -2    0.73    2.73
   7  11  -2    1.03    1.96
   7  11  -2    0.62    2.39
   7 -11   2   -1.98    2.87
  -7  11   2   -0.65    1.87
   7 -11   2   -1.55    4.41
   7 -11  -2    1.51    1.83
  -7  11  -2   -0.26    2.18
  -7  11  -2    2.36    2.11
   7  11  -3   19.36    3.94
   7 -11   3   15.99    4.04
   7  11  -3   12.19    3.26
  -7  11   3   14.67    2.78
   7  11  -3   15.47    2.76
   7  11  -3   16.46    2.63
   7 -11   3   12.63    5.30
  -7  11  -3   16.33    3.34
   7  11   3   14.98    2.45
   7  11   3   17.79    3.21
  -7  11  -3   15.21    3.03
   7  11   3   14.43    2.45
   7 -11  -3   16.73    2.35
   8 -11   0    2.34    3.96
   8 -11   0    4.61    2.36
   8  11   0   -1.82    2.43
   8  11   0   -0.64    2.39
  -8  11   0    4.10    2.27
   8  11   0   -0.62    2.16
   8 -11   1   62.46    5.54
   8  11  -1   61.51    4.34
   8 -11   1   61.77    6.81
   8  11  -1   54.26    4.46
   8  11  -1   57.58    4.95
  -8  11   1   65.74    4.51
  -8  11  -1   66.25    4.56
   8  11   1   61.29    3.97
  -8  11  -1   61.23    4.37
   8  11   1   62.58    4.07
   8  11   1   52.63    4.54
   8 -11  -1   65.84    3.98
   8  11  -2   -0.73    2.27
  -8  11   2   -2.92    2.02
   8  11  -2   -0.79    2.57
   8 -11   2   -3.28    3.53
   8  11  -2    2.08    2.99
   8 -11   2   -2.52    4.43
  -8  11  -2    0.52    2.31
   8  11   2    0.83    2.02
   8 -11  -2   -4.50    2.06
  -8  11  -2    3.08    2.37
   8  11  -3   51.01    5.01
   8  11  -3   48.98    3.94
   8 -11   3   51.10    7.24
   8  11  -3   43.97    4.16
  -8  11   3   44.33    4.27
   8 -11   3   54.51    6.06
   8  11  -3   48.76    5.76
   8  11   3   48.15    3.69
   8 -11  -3   43.80    3.80
  -8  11  -3   48.02    4.69
   8  11   3   43.37    4.10
  -8  11  -3   43.58    4.55
   9 -11   0   10.83    4.52
  -9  11   0   13.89    3.12
   9 -11   0    8.60    2.94
   9  11   0   15.63    3.15
   9  11   0   14.15    3.15
   9  11   0   15.87    3.38
   9  11  -1    1.58    2.59
  -9  11   1    3.43    2.20
   9  11  -1    0.61    3.00
   9 -11   1    6.24    3.42
   9  11  -1    1.94    2.92
   9 -11   1    1.72    4.47
  -9  11  -1    4.12    2.24
   9  11   1    2.69    2.50
  -9  11  -1    5.82    2.58
   9  11   1    4.36    2.75
   9  11   1   -1.84    2.33
   9 -11  -1    1.67    2.25
  -9  11   2   25.03    3.75
   9 -11   2   33.13    5.47
   9  11  -2   20.51    3.43
   9  11  -2   28.33    4.56
   9  11  -2   21.90    3.72
   9 -11   2   26.98    6.38
   9 -11  -2   27.35    3.28
  -9  11  -2   25.72    3.92
   9  11   2   24.37    3.17
  -9  11  -2   26.76    3.93
   0  12   0    2.01    1.89
   0 -12   0    0.26    2.10
   0  12   0    2.82    1.87
   0  12   0   -1.18    1.38
   0  12   0    5.24    3.52
   0 -12   1   -0.38    2.36
   0  12  -1    0.54    1.49
   0  12   1    1.31    1.60
   0 -12  -1   -0.39    1.70
   0  12  -1    1.87    1.52
   0  12  -1    3.24    3.54
   0  12   1    2.14    2.01
   0  12   1    6.28    3.56
   0  12  -1    3.06    1.93
   0  12   2   57.52    6.53
   0  12  -2   68.41    3.80
   0  12   2   71.76    4.36
   0  12  -2   71.87    7.07
   0  12   2   67.12    3.89
   0 -12   2   59.95    5.32
   0  12  -2   65.63    4.45
   0 -12   2   63.86    4.12
   0  12  -2   68.71    4.42
   0  12   3   -0.76    2.99
   0  12  -3   -1.79    2.32
   0  12  -3    1.08    2.82
   0 -12   3   -4.67    2.17
   0  12   3    0.67    4.53
   0  12   3    0.77    1.67
   0  12  -3    0.19    1.91
   0  12  -3    0.74    5.23
   0 -12   3    2.58    3.44
   0  12  -3    0.02    1.31
   0 -12   3   -3.67    2.49
   0  12   4    2.40    3.75
   0  12   4    0.40    1.90
   0  12   4    6.81    2.77
   0  12  -4   11.25    6.41
   0  12   4    5.36    5.64
   0  12  -4   -0.66    1.70
   0  12   4   -0.30    2.31
   0  12  -4    2.11    2.30
   0  12  -4    0.69    2.35
   0  12  -4    4.78    3.52
   0 -12   4   -4.23    2.87
   0 -12   4   -0.94    4.19
   0  12  -5    0.69    2.97
   0  12  -5   -1.81    2.69
   0  12   5    0.12    4.56
   0 -12   5    5.50    5.06
   0  12   5    0.65    2.20
   0  12   5    0.74    3.05
   0  12  -5    0.68    2.26
   0 -12  -5   -0.09    1.73
   1  12   0    3.57    1.31
   1 -12   0    8.37    2.31
   1 -12   0    7.17    2.35
  -1  12   0    4.13    1.59
  -1  12   0    8.29    4.11
  -1  12   0    6.61    2.26
   1  12   0    3.90    1.78
   1  12   0    2.80    3.22
   1  12   0    3.05    1.85
  -1  12   0    4.34    1.84
  -1 -12   0    4.30    2.18
   1  12  -1   11.79    2.19
  -1  12   1   11.34    1.68
  -1  12   1   13.06    4.16
   1  12  -1   11.29    1.95
   1 -12   1    8.36    2.98
  -1  12   1   10.59    1.98
  -1  12   1   10.63    2.71
   1  12  -1    5.72    3.48
   1  12   1   11.69    2.28
   1  12   1   13.51    3.56
  -1 -12   1    9.35    2.53
   1  12   1   10.06    2.21
  -1  12  -1    9.19    2.37
  -1  12  -1    8.99    4.21
   1 -12  -1   11.47    2.04
  -1  12  -1   10.71    1.94
  -1  12  -1   12.61    2.31
   1  12  -2    4.74    2.07
   1  12  -2    2.30    1.96
  -1  12   2    4.48    1.83
   1 -12   2    2.28    2.34
   1  12  -2   -1.73    3.70
   1  12  -2    1.73    1.86
  -1  12   2    0.46    2.71
  -1  12   2    1.60    4.51
   1 -12   2    3.75    3.33
   1  12   2    3.77    1.97
   1  12   2   -1.30    3.63
  -1  12  -2    4.35    1.79
  -1 -12   2    2.45    2.85
  -1  12  -2    1.22    1.96
  -1  12  -2   -2.36    4.73
  -1 -12   2    1.84    1.95
   1  12   2    1.26    1.71
  -1  12  -2    3.91    2.50
   1  12   2   -1.22    2.72
   1  12  -3    8.40    2.79
   1  12  -3    3.29    2.41
  -1  12   3    6.73    1.99
  -1  12   3    8.43    4.99
   1  12  -3    5.57    2.09
  -1  12   3    2.44    3.26
   1  12  -3    6.92    1.58
   1 -12   3   10.25    2.36
   1  12  -3   -2.81    4.46
   1 -12   3   11.73    3.97
   1  12   3    4.68    3.48
   1  12   3    7.96    2.01
  -1  12  -3    6.01    5.94
  -1 -12   3   10.26    3.40
  -1  12  -3    5.82    3.32
   1  12   3    0.40    3.94
  -1 -12   3    8.71    3.12
  -1  12  -3    5.73    1.54
  -1  12  -3    6.68    2.35
  -1  12  -3    4.40    2.50
   1  12   3    7.13    2.35
  -1 -12   3    8.74    2.49
   1  12  -4    4.03    3.36
  -1  12   4    9.40    2.88
   1  12  -4    3.02    1.87
  -1  12   4    1.71    2.46
  -1  12   4    0.45    1.96
   1 -12   4   -0.23    4.53
  -1  12   4   -0.31    4.07
   1  12  -4    2.42    2.46
   1  12  -4    4.98    5.72
   1 -12   4    4.37    3.13
   1  12  -4    4.61    2.66
   1  12   4   -0.16    3.52
   1 -12  -4    0.79    1.41
   1  12   4    0.81    2.47
  -1 -12   4    7.07    3.00
   1  12   4    4.79    1.93
  -1  12  -4    0.94    2.23
   1  12   4    3.71    4.77
  -1 -12   4    3.15    4.53
  -1  12  -4   -0.56    1.71
  -1  12  -4    2.73    3.75
   1  12   4    1.15    2.35
  -1  12  -4    4.71    3.04
   2 -12   0    0.79    2.41
   2  12   0    2.01    1.63
   2  12   0    5.62    1.74
  -2  12   0    1.84    4.38
   2  12   0    2.18    2.49
   2  12   0    3.24    1.40
  -2  12   0    4.53    2.68
   2 -12   0    2.72    2.08
  -2  12   0    3.99    1.67
  -2  12   0    3.13    1.56
  -2  12   1   55.24    6.18
  -2  12   1   37.39    3.20
  -2  12   1   40.90    4.47
   2  12  -1   45.48    3.00
   2  12  -1   44.02    3.02
   2  12  -1   52.50    4.63
   2 -12   1   41.78    5.02
  -2  12   1   41.53    2.64
   2  12  -1   41.16    3.57
  -2  12  -1   42.78    3.41
   2  12   1   45.52    3.17
  -2 -12   1   40.14    3.58
   2  12   1   43.63    3.36
  -2  12  -1   40.56    4.48
   2 -12  -1   40.56    3.11
  -2  12  -1   62.82    7.42
   2  12   1   38.03    4.52
  -2  12  -1   42.16    3.01
   2  12  -2   18.79    3.03
   2  12  -2   18.28    2.53
  -2  12   2   18.49    3.85
   2  12  -2   16.46    3.75
  -2  12   2   18.12    5.53
  -2  12   2   15.91    2.31
   2  12  -2   16.33    2.35
   2 -12   2   17.92    3.98
   2 -12   2   13.87    3.07
  -2  12  -2   19.47    5.78
   2  12   2   11.23    3.10
   2  12   2   15.55    2.43
  -2 -12   2   22.97    3.52
   2  12   2    7.61    3.67
  -2  12  -2   17.79    2.87
  -2  12  -2   20.95    3.76
  -2  12  -2   17.31    2.35
   2  12   2   17.70    2.40
  -2  12   3   27.68    3.07
  -2  12   3   39.12    6.48
   2  12  -3   29.97    3.35
   2 -12   3   34.75    5.68
   2  12  -3   37.65    2.67
   2 -12   3   37.02    4.00
   2  12  -3   34.66    5.20
  -2  12   3   44.62    5.69
   2  12  -3   34.82    3.97
  -2  12   3   47.21    4.94
   2  12  -3   37.85    4.02
   2 -12   3   35.32    3.27
  -2  12  -3   26.51    3.89
  -2 -12   3   37.62    4.09
   2  12   3   40.37    4.83
   2  12   3   29.87    2.95
  -2  12  -3   34.30    3.87
  -2  12  -3   42.35    7.16
  -2  12  -3   35.27    3.25
   2  12   3   32.98    3.48
  -2 -12   3   41.55    4.79
  -2 -12   3   30.98    3.73
   2  12   3   34.24    4.39
   2  12  -4    5.85    1.97
  -2  12   4    2.13    1.90
   2  12  -4   -1.38    2.53
   2  12  -4    2.33    2.32
   2 -12   4   -4.74    2.81
   2  12  -4   -3.03    3.24
  -2  12   4    3.82    2.66
  -2  12   4   -4.86    3.94
   2 -12   4    4.33    4.87
  -2  12  -4   -0.23    2.37
   2  12   4    1.55    3.84
  -2 -12   4    8.42    4.42
  -2  12  -4    7.42    2.75
   2 -12  -4    1.27    1.44
   2  12   4    6.36    2.75
  -2  12  -4    7.24    7.66
   2  12   4    4.92    1.82
   2  12   4    3.59    3.54
   3  12   0    4.77    1.83
  -3  12   0   13.59    3.01
  -3  12   0    7.64    1.79
  -3  12   0    5.11    1.82
   3  12   0    5.41    1.77
   3  12   0    2.73    2.30
  -3  12   0   12.17    5.01
   3  12   0    3.78    1.53
   3 -12   0    8.00    3.11
   3 -12   1    1.74    1.97
   3  12  -1   -0.99    2.41
  -3  12   1   -0.30    4.96
   3  12  -1    1.53    1.39
   3  12  -1    3.50    1.70
  -3  12   1    1.56    1.52
   3  12  -1    0.86    1.88
   3 -12   1    4.53    3.33
  -3  12   1    2.28    1.41
  -3  12   1    0.49    2.73
   3  12   1    1.39    1.52
   3 -12  -1   -1.53    2.01
  -3  12  -1   -6.86    5.43
  -3  12  -1   -2.73    2.88
  -3  12  -1    2.09    1.52
   3  12   1   -0.78    1.68
   3  12   1    0.57    2.29
  -3  12  -1   -0.22    1.72
   3  12   1   -2.48    2.41
   3 -12   2   -0.38    2.26
  -3  12   2    0.84    1.60
   3 -12   2   -7.84    3.56
  -3  12   2   11.12    5.82
  -3  12   2    2.53    3.19
   3  12  -2    1.18    1.75
   3  12  -2    1.42    1.96
   3  12  -2    0.53    2.82
   3  12  -2   -0.52    1.31
   3  12  -2   -1.31    1.78
  -3  12  -2    2.71    2.91
   3  12   2   -2.76    3.01
   3  12   2    4.09    2.61
   3  12   2   -1.37    1.77
   3 -12  -2    1.43    1.91
   3  12   2   -0.08    1.56
  -3  12  -2   -0.91    1.73
  -3  12  -2   -5.98    5.97
  -3  12  -2   -0.69    1.69
  -3 -12  -3    3.43    3.41
   3 -12   3    1.36    2.14
   3  12  -3   -0.33    1.68
  -3  12   3    0.52    1.85
   3  12  -3    2.21    2.11
   3  12  -3    0.50    2.30
   3 -12   3    3.26    4.36
   3  12  -3    1.05    4.21
   3  12  -3    2.16    2.38
   3 -12   3   -0.03    2.48
  -3  12   3    6.04    3.43
   3  12   3   -2.66    1.92
   3  12   3   -0.17    2.73
  -3  12  -3    2.61    2.42
   3  12   3    0.24    1.72
  -3  12  -3    0.67    2.14
   3  12   3    8.11    3.72
   3  12   3   -0.23    2.19
  -3 -12   3   -0.46    3.26
  -3  12  -3    5.67    3.72
  -3 -12   3    1.14    3.02
   3  12  -4    3.30    2.06
   3 -12   4    1.61    3.11
  -3  12   4    2.85    2.57
   3  12  -4    1.35    2.59
   3  12  -4    2.68    3.10
  -3  12   4    6.76    4.44
   3  12  -4   -1.29    2.90
   3 -12   4    7.84    4.90
  -3  12   4    3.98    2.12
   3 -12  -4    1.94    1.61
  -3  12  -4    4.08    2.97
   3  12   4    3.97    2.55
  -3  12  -4    5.69    2.40
   3  12   4    4.67    3.84
   3  12   4    7.30    2.21
  -3 -12   4   -0.06    4.09
  -4  12   0   16.34    2.24
  -4  12   0   13.10    2.48
   4  12   0    8.69    1.99
   4  12   0   11.56    2.52
   4  12   0   10.21    1.80
   4 -12   0   13.86    3.92
  -4  12   0    7.62    3.12
  -4  12   1    8.60    3.22
  -4  12   1    6.95    1.84
   4  12  -1    5.19    1.53
   4  12  -1    6.55    2.12
   4 -12   1    4.29    3.52
  -4  12   1    6.10    1.88
   4 -12   1    5.64    2.22
   4  12  -1    6.30    2.02
   4  12  -1    6.27    2.10
  -4  12  -1   11.95    3.31
  -4  12  -1    6.23    2.23
   4  12   1    6.39    2.04
   4 -12  -1    8.34    2.53
   4  12   1    5.45    1.69
   4  12   1    6.56    2.14
  -4  12  -1    6.22    1.85
   4  12   1    8.06    2.14
   4  12  -2   37.16    3.46
  -4  12   2   44.55    5.32
   4  12  -2   35.69    2.71
  -4  12   2   35.54    3.31
   4  12  -2   33.79    3.10
   4 -12   2   41.77    6.15
   4  12  -2   36.30    4.05
   4  12  -2   43.71    4.08
   4 -12   2   39.94    4.07
  -4  12  -2   36.88    4.79
   4  12   2   33.24    2.86
   4  12   2   37.61    4.14
   4  12   2   36.99    3.95
   4  12   2   34.78    3.15
  -4 -12   2   30.94    3.85
  -4  12  -2   31.03    3.11
   4 -12  -2   33.06    3.40
  -4  12  -2   36.46    3.53
   4  12  -3    4.28    2.41
   4 -12   3    3.60    3.23
  -4  12   3    2.51    2.03
   4  12  -3   -0.34    3.64
   4  12  -3    0.96    2.42
   4  12  -3    2.68    1.76
  -4  12   3    0.09    4.38
   4 -12   3    0.16    4.33
   4  12  -3    3.72    2.54
   4 -12   3   -1.82    2.16
   4  12   3    2.54    1.96
   4 -12  -3    2.95    1.97
   4  12   3    4.76    3.32
   4  12   3    6.44    3.21
   4  12   3    5.69    2.27
  -4  12  -3    3.42    2.42
  -4  12  -3   -0.15    3.62
   4  12   3   -1.65    1.93
  -4  12  -3    7.42    2.49
  -4 -12   3    8.27    3.43
   4  12  -4   11.20    3.13
   4 -12   4    8.09    3.73
   4  12  -4    6.01    3.04
   4 -12   4    9.88    5.05
  -4  12   4    5.66    4.91
   4  12  -4   10.39    2.48
  -4  12   4    9.17    2.56
   4  12  -4   11.32    3.21
  -4  12   4    5.82    2.99
  -4  12  -4    7.78    2.83
   4  12   4    6.69    2.49
  -4 -12   4   11.31    4.27
   4  12   4    9.16    4.11
  -4  12  -4    6.72    3.12
   4 -12  -4    5.39    1.99
   5  12   0    1.60    1.50
  -5  12   0    0.51    1.75
  -5  12   0   -0.80    1.72
   5  12   0    0.31    1.97
   5  12   0    2.57    1.76
  -5  12   0   -1.01    3.32
   5 -12   0    0.95    3.28
   5  12  -1   15.93    2.81
  -5  12   1   17.67    4.16
   5  12  -1   15.46    2.37
   5 -12   1   19.35    2.98
   5  12  -1   11.92    1.89
   5 -12   1   16.64    4.42
  -5  12   1   18.68    3.04
   5  12   1   20.36    2.15
  -5  12  -1   16.53    2.57
   5  12   1   13.87    2.41
   5  12   1   14.57    2.13
  -5  12  -1    8.21    2.38
  -5  12  -1   11.90    4.42
   5  12  -2   34.44    3.17
   5 -12   2   29.86    2.90
  -5  12   2   28.28    3.19
   5  12  -2   32.58    3.23
   5  12  -2   31.80    3.96
  -5  12   2   47.67    5.89
   5 -12   2   34.80    4.41
   5 -12   2   39.60    5.91
   5  12  -2   37.07    3.62
   5  12  -2   31.03    3.39
  -5  12  -2   30.69    3.81
   5  12   2   30.19    3.46
   5  12   2   32.08    3.64
  -5  12  -2   33.77    4.83
   5  12   2   26.59    3.14
  -5  12  -2   28.05    3.11
   5  12   2   31.21    3.28
   5  12   2   29.31    2.84
   5  12  -3   19.56    3.91
  -5  12   3   19.76    3.37
   5  12  -3   17.00    4.18
   5  12  -3   11.88    2.91
   5  12  -3   13.94    2.69
  -5  12   3   20.74    5.65
   5  12  -3   17.76    2.57
   5 -12   3   17.79    5.40
   5 -12   3   21.08    3.91
   5  12   3   16.22    2.90
   5 -12  -3   14.27    1.83
  -5 -12   3   16.48    3.25
   5  12   3   17.54    3.33
   5  12   3   15.51    3.60
  -5  12  -3   13.59    2.85
   5  12   3   10.69    2.47
  -5  12  -3   16.21    3.02
  -5  12  -3   23.05    5.77
   5  12  -4    3.37    2.38
  -5  12   4   -4.70    4.75
   5  12  -4   -2.82    2.79
   5  12  -4    1.05    2.87
  -5  12   4    0.94    2.39
   5  12  -4   -3.80    2.84
   5 -12   4   -4.03    5.16
   5 -12   4   -0.06    3.61
  -5  12  -4    0.66    2.51
  -5  12  -4    1.45    2.66
   5  12   4   -2.15    2.05
   5  12   4    0.22    3.54
   5 -12  -4    2.35    1.76
   6  12   0    2.17    1.81
  -6  12   0    0.98    2.12
   6  12   0    1.17    2.14
   6  12   0    3.29    1.99
  -6  12   0   -5.70    4.20
   6 -12   0    6.38    3.90
  -6  12   0   -0.67    1.74
  -6  12   1   59.14    7.02
   6  12  -1   77.61    4.56
   6  12  -1   72.17    4.92
   6 -12   1   74.53    3.44
   6 -12   1   62.70    7.13
   6  12  -1   70.22    3.98
   6 -12   1   73.68    5.26
  -6  12   1   72.31    4.58
   6  12   1   70.42    4.13
   6  12   1   78.24    4.01
   6  12   1   73.93    4.11
  -6  12  -1   79.20    4.52
  -6  12  -1   76.68    4.80
  -6  12  -1   67.13    6.93
   6  12   1   82.84    3.74
   6 -12   2   20.37    2.38
   6 -12   2   26.51    5.32
   6  12  -2   26.41    4.11
  -6  12   2   16.40    2.84
   6  12  -2   17.99    2.41
   6 -12   2   19.05    3.60
   6  12  -2   23.00    3.15
   6  12   2   23.19    2.84
   6  12   2   23.06    2.90
  -6  12  -2   26.19    3.42
  -6  12  -2    2.71    7.29
  -6  12  -2   16.06    2.92
   6  12  -3   62.51    5.78
   6  12  -3   71.71    4.35
  -6  12   3   64.10    4.63
   6  12  -3   60.31    5.03
   6  12  -3   62.69    4.37
   6 -12   3   59.83    7.98
   6 -12   3   56.02    5.79
   6  12  -3   61.14    5.04
   6  12   3   61.46    4.63
   6  12   3   68.70    4.15
   6 -12  -3   61.81    3.53
  -6  12  -3   63.15    4.97
   6  12   3   62.20    5.15
  -6  12  -3   66.40    4.89
  -7  12   0    3.52    2.04
  -7  12   0    0.03    2.41
   7 -12   0    1.14    1.86
   7  12   0    5.21    2.21
   7 -12   0   -0.65    3.87
   7 -12   0   -0.70    1.86
   7  12   0   -0.73    2.32
   7  12   0    3.28    2.15
   7  12  -1    8.24    2.49
   7 -12   1    9.38    3.38
  -7  12   1   10.23    2.47
   7 -12   1    5.30    2.17
   7  12  -1   10.82    2.96
   7 -12   1    5.07    4.46
   7  12  -1    8.95    3.03
   7  12   1    9.80    2.51
   7 -12  -1    9.23    2.01
  -7  12  -1   14.52    2.71
   7  12   1   12.19    2.59
  -7  12  -1   11.46    2.84
   7  12  -2    6.77    3.12
  -7  12   2    7.78    2.33
   7  12  -2    3.95    2.30
   7  12  -2    5.86    2.82
   7 -12   2    6.09    3.61
   7 -12   2   12.82    5.29
  -7  12  -2    4.06    2.41
  -7  12  -2    8.93    2.60
   7 -12  -2    6.62    2.00
  -7  12   3    7.38    2.34
   7  12  -3   14.27    2.90
   7  12  -3    0.25    3.23
   7 -12   3    4.53    4.04
   7 -12   3   11.74    5.84
   7  12  -3   12.90    3.84
   7  12  -3    6.18    2.71
  -7  12  -3    6.50    3.01
  -7  12  -3    9.96    3.00
   7 -12  -3    9.48    2.13
   7  12   3    1.97    2.95
   7  12   3    3.26    2.56
   7  12   3    8.16    2.48
   8 -12   0   47.31    6.37
   8  12   0   40.87    3.99
   8  12   0   35.47    4.00
   8 -12   0   41.65    3.62
   8  12   0   45.96    4.51
  -8  12   0   46.14    4.32
   8 -12   1    0.97    2.77
   8  12  -1    0.60    2.82
   8  12  -1    2.99    2.38
   8  12  -1   -1.98    2.66
  -8  12   1    5.16    2.60
   8 -12   1   -1.83    4.21
   8 -12  -1    1.99    2.19
   8  12   1    3.03    2.41
   8  12   1   -0.31    2.45
  -8  12  -1    5.34    2.62
  -8  12  -1    4.14    2.86
   8  12   1    4.53    2.42
   8 -12   2    9.49    3.25
   8  12  -2   10.72    2.83
   8  12  -2   10.55    3.34
   8  12  -2   14.13    3.74
  -8  12   2    6.12    2.68
   8 -12   2    7.36    5.32
  -8  12  -2    6.90    3.09
   8 -12  -2   12.28    2.28
  -8  12  -2   12.54    3.15
   9 -12   0   23.98    5.32
   9  12   0   28.02    3.61
  -9  12   0   26.90    3.91
   9  12   0   22.66    3.59
   9  12   0   21.59    3.64
   9 -12   0   27.11    3.29
   0  13   0    0.53    1.74
   0 -13   0    5.43    2.75
   0  13   0    1.22    1.71
   0  13   0    0.30    4.16
   0  13   0    3.52    2.24
   0  13   1   24.18    2.96
   0  13  -1   22.44    4.81
   0  13   1   30.80    3.67
   0 -13   1   24.66    3.62
   0  13   1   30.34    4.98
   0  13  -1   25.40    3.32
   0  13  -1   27.46    3.46
   0  13  -1   22.60    2.66
   0  13   2   -0.37    4.79
   0  13  -2    1.24    2.47
   0 -13   2   -0.33    3.23
   0  13  -2   -1.84    1.75
   0  13   2    4.24    2.72
   0  13  -2    1.21    2.04
   0  13   2    3.72    2.16
   0 -13   2    0.13    2.42
   0  13  -2    1.96    5.17
   0  13   3   22.61    4.50
   0  13   3   22.99    3.56
   0 -13   3   21.13    3.23
   0  13   3   30.43    5.87
   0  13   3   26.07    3.06
   0 -13   3   20.35    4.96
   0  13  -3   16.76    3.66
   0  13  -3   18.57    3.15
   0  13  -3   15.96    6.07
   0  13  -3   19.90    2.91
   0  13  -4    2.23    1.97
   0 -13   4   -3.89    4.80
   0  13   4    5.51    4.51
   0  13  -4   -4.89    2.91
   0  13   4    4.74    2.89
   0  13   4   -1.21    2.04
   0  13  -4    6.06    2.74
   1  13   0    6.49    1.86
  -1  13   0    7.34    2.06
  -1 -13   0    5.30    2.80
   1  13   0   17.44    4.11
  -1  13   0    6.39    1.76
   1 -13   0    5.75    2.56
  -1  13   0    5.76    2.62
  -1  13   0    1.89    4.73
   1  13   0    3.02    1.93
   1  13   0    6.28    2.20
  -1  13   1   24.11    2.33
   1  13  -1   28.82    3.39
   1  13  -1   27.07    3.05
   1  13  -1   25.60    2.84
  -1  13   1   30.68    3.18
  -1  13   1   29.09    5.03
   1 -13   1   28.45    4.11
  -1  13   1   28.98    3.59
   1  13  -1   27.64    4.74
  -1 -13   1   29.40    3.56
  -1  13  -1   28.94    3.61
  -1  13  -1   19.68    2.97
   1  13   1   30.59    3.22
  -1  13  -1   25.64    2.86
   1 -13  -1   31.58    3.06
  -1  13  -1   25.32    5.58
   1  13   1   33.63    4.97
   1  13   1   30.53    3.44
   1  13  -2   39.35    5.57
  -1  13   2   29.49    3.21
   1  13  -2   34.07    3.90
   1 -13   2   32.25    3.60
  -1  13   2   29.98    6.07
   1  13  -2   32.45    3.31
  -1  13   2   33.51    4.08
   1  13  -2   27.13    3.32
   1 -13   2   31.43    5.00
   1  13   2   32.86    3.79
  -1  13  -2   27.32    6.36
   1  13   2   45.65    5.45
  -1  13  -2   27.08    3.01
  -1  13  -2   25.73    3.51
   1  13   2   33.93    3.22
   1  13   2   32.19    4.33
  -1 -13   2   39.79    4.97
  -1  13  -2   43.19    4.73
   1 -13   3   21.81    3.61
  -1  13   3   24.22    4.87
   1  13  -3   21.48    3.63
   1  13  -3   21.46    5.67
  -1  13   3   23.07    4.25
   1  13  -3   18.67    1.95
  -1  13   3   19.79    2.77
   1  13  -3   18.64    3.09
   1 -13   3   25.86    5.09
   1  13  -3   20.17    3.46
  -1  13   3   26.88    6.55
   1 -13   3   23.07    2.50
   1  13   3   15.59    2.46
  -1  13  -3   16.33    3.04
   1  13   3   18.96    3.32
   1  13   3   28.21    5.22
  -1  13  -3   24.22    6.87
   1  13   3   16.40    4.43
  -1 -13   3   14.53    4.26
  -1 -13   3   24.63    3.18
  -1 -13   3   23.26    2.87
  -1  13  -3   14.67    4.07
  -1  13  -3   21.45    2.96
   1  13  -4   -0.39    2.99
  -1  13   4    2.77    3.05
  -1  13   4    4.17    2.30
  -1  13   4    2.93    4.65
   1  13  -4    2.95    2.15
   1 -13   4    5.10    4.68
   1  13  -4    4.98    2.78
  -1  13  -4    3.39    2.09
  -1 -13   4    3.92    4.79
   1  13   4    1.06    2.92
   1  13   4    9.27    4.39
  -1  13  -4    1.13    3.04
  -1  13  -4    1.40    2.57
   1  13   4    4.01    2.12
   2  13   0    1.63    1.81
   2  13   0    2.03    1.71
  -2  13   0    5.37    5.27
   2  13   0   -4.58    3.02
  -2  13   0    0.24    1.49
   2  13   0   -2.38    1.97
  -2  13   0   -0.65    2.80
   2 -13   0    0.76    2.61
  -2  13   0    1.83    1.78
   2  13  -1   34.37    3.58
  -2  13   1   29.19    2.45
  -2  13   1   35.09    6.27
   2 -13   1   31.33    4.79
   2  13  -1   30.90    3.10
   2  13  -1   35.74    3.28
  -2  13   1   33.63    3.94
  -2  13   1   29.28    3.15
   2  13  -1   28.97    4.30
   2  13   1   31.28    3.22
  -2 -13   1   28.72    3.52
   2  13   1   26.07    3.01
   2 -13  -1   35.15    3.15
  -2  13  -1   27.22    2.94
  -2  13  -1   32.20    6.38
   2  13   1   37.37    4.49
  -2  13  -1   29.66    3.36
  -2  13  -1   31.59    3.88
   2  13  -2    3.02    1.95
   2  13  -2    1.17    2.07
  -2  13   2    0.59    2.00
  -2  13   2    5.52    3.26
   2 -13   2    3.13    4.12
   2  13  -2    9.16    4.04
  -2  13   2   -0.48    5.54
   2  13  -2    4.19    2.67
  -2  13  -2    6.58    3.26
   2  13   2    1.04    2.13
  -2  13  -2   -7.67    6.07
   2  13   2   -2.24    3.89
  -2  13  -2    2.43    2.13
   2  13   2    2.76    1.99
  -2  13  -2    1.15    2.09
   2  13   2    4.78    2.84
  -2 -13   2   -1.28    2.99
   2 -13   3   28.56    4.04
   2 -13   3   17.86    5.26
  -2  13   3   33.84    4.56
   2  13  -3   27.76    3.53
   2  13  -3   15.77    4.84
  -2  13   3   22.48    2.95
  -2  13   3   28.70    5.24
   2  13  -3   21.29    3.83
   2  13  -3   27.32    2.54
   2  13  -3   24.84    3.08
  -2  13  -3   23.23    3.39
   2  13   3   22.73    2.73
  -2 -13   3   16.01    3.07
   2  13   3   24.07    4.46
   2  13   3   25.09    4.84
  -2 -13   3   27.20    4.56
  -2  13  -3   31.50    4.52
   2  13   3   19.26    3.15
  -2  13  -3   28.32    4.05
   2 -13   4    2.55    4.76
  -2  13   4   -4.04    2.17
   2  13  -4    4.97    2.80
   2 -13   4    2.84    3.21
   2  13  -4   -1.68    2.14
   2  13  -4   -0.31    2.65
  -2  13   4    0.54    2.81
  -2  13   4   -1.67    4.38
  -2  13  -4   -1.17    2.32
   2  13   4    1.45    2.75
   2  13   4   -1.86    4.21
  -2 -13   4   -6.66    4.59
   2  13   4    0.21    2.10
  -2  13  -4    0.11    2.87
  -3  13   0    2.30    1.95
   3  13   0    0.15    2.57
  -3  13   0    2.02    1.75
   3 -13   0    6.27    3.46
  -3  13   0   -0.04    6.27
   3  13   0    2.03    1.95
   3  13   0    1.95    1.80
   3  13   0    5.71    1.91
  -3  13   0    9.73    3.19
   3  13  -1   48.94    3.41
   3  13  -1   50.77    3.29
   3 -13   1   46.73    5.95
  -3  13   1   50.26    3.74
  -3  13   1   42.81    5.16
  -3  13   1   42.97    3.26
   3  13  -1   48.81    4.24
   3  13  -1   43.59    4.70
  -3  13   1   69.17    7.79
  -3  13  -1   54.50    7.42
  -3  13  -1   53.75    5.54
   3  13   1   47.12    3.48
  -3  13  -1   51.91    3.48
   3  13   1   49.12    3.70
   3  13   1   56.67    4.61
  -3  13  -1   52.60    4.09
   3  13   1   54.83    4.36
   3 -13  -1   50.58    4.09
   3  13  -2    2.83    3.16
   3 -13   2   -4.37    3.98
   3  13  -2   -2.00    2.11
   3  13  -2   -2.93    1.91
  -3  13   2    1.09    1.80
  -3  13   2   -0.38    3.55
   3 -13   2   -1.20    2.56
   3  13  -2   -2.44    1.99
   3  13   2    1.41    2.93
  -3  13  -2   -4.32    2.00
   3 -13  -2    2.55    2.21
   3  13   2   -0.29    3.37
   3  13   2    0.83    1.98
   3  13   2    2.37    1.96
  -3  13  -2    3.64    3.50
  -3  13  -2   -2.77    1.99
   3  13  -3   40.32    4.26
   3  13  -3   36.84    3.95
  -3  13   3   36.23    3.71
   3  13  -3   40.04    3.07
   3  13  -3   30.69    5.49
   3 -13   3   40.63    4.66
   3 -13   3   38.81    6.14
   3  13  -3   36.73    4.97
  -3 -13   3   39.10    4.95
   3  13   3   40.69    4.05
  -3  13  -3   40.32    3.83
  -3  13  -3   31.78    8.17
  -3  13  -3   42.00    4.28
   3  13   3   32.63    3.32
   3  13   3   45.85    5.34
   3  13   3   44.33    5.18
   3 -13   4    0.98    5.40
  -3  13   4    2.90    2.45
   3 -13   4    3.75    3.30
   3  13  -4    2.36    2.24
  -3  13   4    1.58    3.18
   3  13  -4    5.89    3.00
  -3  13   4    2.22    4.51
   3  13  -4    1.54    3.08
  -3 -13   4    6.18    4.31
  -3  13  -4    2.53    2.55
   3  13   4    3.29    2.78
  -3  13  -4    3.74    2.98
   3  13   4    7.94    4.02
   3  13   4    2.90    2.16
  -4  13   0    6.41    1.98
   4  13   0    7.15    2.06
   4  13   0    5.41    2.24
   4  13   0    3.37    2.24
   4 -13   0    2.51    3.35
  -4  13   0    1.75    3.54
   4  13   0    3.94    1.89
  -4  13   0    5.63    2.19
   4  13   0    5.99    2.07
  -4  13   1    0.65    1.94
   4  13  -1   -2.88    2.24
   4 -13   1   -1.36    3.79
   4  13  -1    3.01    2.01
   4  13  -1   -4.47    2.22
  -4  13   1   -4.72    3.26
  -4  13   1    1.44    1.94
   4  13  -1    3.57    1.70
   4  13   1    2.17    1.88
   4  13   1    6.25    2.35
  -4  13  -1   -1.86    3.49
  -4  13  -1    0.97    1.95
   4  13   1    2.73    2.20
  -4  13  -1    1.23    2.07
   4  13   1   -1.99    1.97
   4  13  -2   22.37    3.64
   4  13  -2   18.77    2.93
  -4  13   2   17.04    2.81
   4  13  -2   19.82    3.46
   4 -13   2   15.46    4.67
   4  13  -2   20.41    2.42
   4  13  -2   16.63    2.63
  -4  13   2   27.53    5.08
   4 -13   2   18.25    3.46
   4  13   2   20.84    2.71
  -4  13  -2   22.60    3.02
  -4  13  -2   20.55    4.44
   4  13   2   19.21    3.49
  -4 -13   2   17.08    2.89
   4 -13  -2   24.14    2.80
   4  13   2   16.66    2.89
   4  13   2   22.90    2.73
  -4  13  -2   11.74    2.83
   4  13   2   21.88    2.67
   4 -13   3    2.23    3.17
  -4  13   3    2.63    2.24
   4  13  -3    1.28    1.88
   4  13  -3    3.62    3.87
   4  13  -3   -1.12    2.28
   4  13  -3    3.09    2.62
   4  13  -3   -1.42    2.87
   4 -13   3    4.54    4.91
   4  13   3    3.03    2.37
  -4  13  -3    5.43    2.36
   4  13   3   -0.89    1.93
   4  13   3    7.15    3.54
   4  13   3    2.03    3.55
  -4  13  -3    0.15    2.45
  -5  13   0    9.19    2.46
   5  13   0   14.31    2.44
  -5  13   0   13.37    4.39
  -5  13   0   12.18    2.23
   5 -13   0   12.63    3.86
   5  13   0    4.57    2.67
   5  13  -1   25.77    3.00
   5  13  -1   29.23    3.71
   5  13  -1   26.77    2.65
  -5  13   1   33.40    5.28
   5 -13   1   22.95    5.10
  -5  13   1   25.46    3.24
  -5  13  -1   27.55    3.29
   5  13   1   24.38    3.03
  -5  13  -1   21.42    3.33
  -5  13  -1   29.16    4.62
   5 -13   2   58.16    7.27
   5  13  -2   38.88    3.46
   5  13  -2   45.06    3.45
   5 -13   2   42.24    5.14
  -5  13   2   41.72    3.94
   5  13  -2   36.24    3.94
   5  13  -2   41.43    3.95
   5  13  -2   42.10    4.56
  -5  13   2   34.22    6.82
   5  13   2   40.27    3.67
  -5  13  -2   39.74    6.65
   5  13   2   36.83    3.51
  -5  13  -2   36.30    3.84
  -5  13  -2   36.80    4.10
   5  13   2   35.37    3.55
   5  13   2   42.14    3.19
   5  13   2   39.85    3.25
   5  13  -3   23.82    4.33
   5  13  -3   21.66    3.58
   5 -13   3   16.39    6.00
   5  13  -3   21.86    2.75
  -5  13   3   21.22    3.47
   5  13  -3   18.28    4.55
   5 -13   3   31.24    4.70
   5  13  -3   23.95    3.40
  -5  13  -3   22.28    3.74
   5  13   3   21.99    2.86
   5  13   3   20.27    2.99
  -5  13  -3   23.98    3.33
   5  13   3   21.51    3.75
   5  13   3   22.14    4.25
   6  13   0    5.87    1.97
   6  13   0    3.05    2.10
  -6  13   0    2.24    2.19
   6  13   0    4.91    2.54
   6 -13   0    5.93    3.87
  -6  13   0   -0.25    4.57
  -6  13   0    0.26    2.09
   6  13  -1   -0.20    2.20
  -6  13   1    4.46    2.10
   6 -13   1    5.63    4.69
   6  13  -1    4.51    2.15
  -6  13   1    1.45    5.87
   6  13  -1    5.02    2.61
   6  13   1    0.32    2.25
   6  13   1    1.33    1.98
  -6  13  -1    3.40    2.06
  -6  13  -1    8.88    6.07
  -6  13  -1    5.60    2.87
   6  13   1   -0.86    1.94
   6  13  -2   11.07    2.92
  -6  13   2    2.63    2.42
   6 -13   2    6.10    5.27
   6 -13   2    9.57    3.52
   6  13  -2    4.58    3.10
   6  13  -2    5.89    2.43
   6  13   2    5.38    2.45
  -6  13  -2    6.42    2.54
  -6  13  -2    6.00    2.62
   7 -13   0    6.67    4.75
  -7  13   0   10.01    2.62
  -7  13   0   10.59    2.94
   7  13   0   11.50    2.70
   7  13   0    6.59    2.54
   7  13   0    8.67    3.07
  -7  13   1   22.40    3.64
   7  13  -1   18.76    2.67
   7 -13   1   20.36    5.39
   7  13  -1   27.73    3.50
   7  13  -1   19.16    3.76
   7  13   1   16.91    2.80
  -7  13  -1   25.64    3.36
   7  13   1   21.89    3.05
  -7  13  -1   22.95    3.61
   7  13   1   21.69    3.22
   7 -13   2    3.95    5.47
   7  13  -2    3.92    3.00
  -7  13   2    4.80    2.67
   7 -13   2    3.27    4.32
   7  13  -2    2.48    2.35
   7  13  -2    3.03    3.35
   7  13   2    0.97    2.36
  -7  13  -2    3.17    2.64
  -7  13  -2    0.45    2.79
   8  13   0    8.21    3.20
  -8  13   0    4.99    2.87
   8 -13   0    9.19    2.76
   8  13   0    6.75    3.10
   8  13   0    5.29    2.56
   8 -13   0    6.71    4.65
   0  14   0   13.36    2.79
   0 -14   0   10.50    3.32
   0  14   0    8.98    2.98
   0  14   0    8.68    4.82
   0  14   0   17.58    2.31
   0  14  -1    1.42    2.61
   0  14  -1   -3.39    4.67
   0  14  -1    0.83    2.13
   0  14   1   -5.19    4.58
   0  14  -1   -1.10    1.97
   0  14   1    0.75    2.07
   0  14   1   -5.06    2.51
   0 -14   1    1.32    3.16
   0  14   2    8.06    5.17
   0  14   2   12.84    2.63
   0  14  -2    8.66    3.28
   0 -14   2   13.15    4.06
   0  14   2   15.90    3.29
   0  14  -2   16.36    3.45
   0  14  -2   12.05    2.65
   0  14  -2   13.97    5.74
   0 -14   3   -0.42    4.89
   0  14  -3   -0.83    2.51
   0  14  -3    4.98    2.96
   0  14   3    0.45    3.96
   0  14   3   -0.22    2.39
  -1  14   0   49.30    4.07
   1  14   0   44.56    3.97
  -1  14   0   49.55    3.07
  -1 -14   0   53.22    4.59
   1  14   0   47.81    3.30
   1  14   0   40.64    4.05
   1  14   0   42.33    5.81
  -1  14   0   39.14    4.80
  -1  14   0   50.52    6.83
  -1  14   1    0.30    3.05
  -1  14   1    5.77    5.64
  -1  14   1    1.65    2.05
   1  14  -1    2.16    2.10
   1  14  -1    1.76    2.40
   1 -14   1    3.35    3.58
  -1  14   1    2.71    1.68
   1  14  -1    2.12    1.90
   1  14  -1    9.38    4.75
   1 -14  -1   -3.18    2.40
   1  14   1    7.34    4.93
  -1  14  -1    4.30    2.05
  -1 -14   1   -3.25    2.63
   1  14   1    3.56    2.20
  -1  14  -1    2.81    2.46
  -1  14  -1   -2.21    2.83
   1  14   1    1.19    2.48
  -1  14  -1   -7.16    5.50
   1  14  -2   -3.31    1.97
   1  14  -2    0.52    2.62
   1  14  -2   -1.26    2.39
   1  14  -2    5.83    4.81
   1 -14   2    3.07    4.15
  -1  14   2   -2.50    5.38
  -1  14   2   -3.69    3.09
  -1  14   2   -0.41    1.91
  -1  14  -2    1.94    2.50
  -1 -14   2    1.17    3.49
   1  14   2    2.56    3.63
   1  14   2   -3.57    4.55
  -1  14  -2   -4.13    3.26
  -1  14  -2    3.01    2.42
  -1  14  -2   -4.28    5.85
   1  14   2    2.08    2.25
   1  14   2    5.11    2.71
  -1  14   3    3.22    4.48
  -1  14   3   -0.50    2.14
   1 -14   3    0.30    4.81
   1  14  -3    0.25    2.86
   1  14  -3   -2.92    3.14
   1  14  -3    1.90    2.42
  -1  14  -3    2.60    2.36
   1  14   3    1.72    2.86
   1  14   3    1.90    2.71
  -1  14  -3    1.14    3.01
   1  14   3   -0.32    2.20
   1  14   3   -0.91    4.28
  -1 -14   3   -1.36    4.50
   2  14   0    5.20    1.82
   2  14   0    3.91    3.72
  -2  14   0    1.50    2.23
   2  14   0   -0.34    2.17
   2  14   0   -1.69    2.16
  -2  14   0   -2.57    6.15
  -2  14   0    5.62    3.46
  -2  14   0    0.19    1.89
   2  14  -1   80.02    5.24
   2  14  -1   78.35    4.82
  -2  14   1   80.78    4.88
   2 -14   1   84.48    6.44
   2  14  -1   86.45    6.67
  -2  14   1   84.05    6.36
  -2  14   1   85.76    4.07
   2  14  -1   87.23    4.43
  -2  14   1   82.94    8.48
  -2  14  -1  100.78    9.45
  -2  14  -1   89.18    6.27
   2 -14  -1   73.42    4.68
  -2  14  -1   88.47    5.21
  -2  14  -1   88.80    4.44
   2  14   1   82.83    4.76
   2  14   1   72.51    6.47
   2  14   1   83.69    4.84
   2  14  -2    4.44    4.40
   2  14  -2   -0.90    2.33
  -2  14   2    2.83    6.70
   2  14  -2    2.49    2.45
   2 -14   2   -1.80    2.42
   2  14  -2    0.15    2.59
   2 -14   2    5.63    4.60
  -2  14   2   -0.96    2.16
  -2  14   2   -1.40    3.41
  -2  14  -2   -0.35    2.08
   2  14   2    3.84    2.29
  -2  14  -2  -10.67    7.40
   2  14   2    0.38    2.55
  -2 -14   2    4.72    3.38
   2  14   2   -0.36    3.31
  -2  14  -2   -0.98    2.37
   2  14   2   -2.03    4.13
  -2  14  -2   -4.05    3.27
  -2  14   3   61.84    7.05
  -2  14   3   69.68    4.67
   2 -14   3   70.70    7.57
   2  14  -3   67.45    5.28
   2  14  -3   77.11    5.83
   2  14  -3   75.53    4.91
  -2 -14   3   75.40    6.74
  -2  14  -3   73.82    5.48
   2  14   3   58.17    4.33
   2  14   3   69.16    6.68
   2  14   3   66.22    4.84
   2  14   3   69.50    5.12
  -2  14  -3   77.15    5.08
  -3  14   0    9.62    7.56
   3  14   0    8.14    2.71
   3 -14   0    3.86    3.71
  -3  14   0    3.97    2.44
   3  14   0   14.15    2.58
   3  14   0    5.33    3.22
   3  14   0    8.63    2.08
  -3  14   0   11.23    3.88
  -3  14   0    8.73    2.18
   3  14  -1    4.11    2.17
  -3  14   1   -2.77    6.63
   3 -14   1    0.01    3.83
   3  14  -1    0.07    2.11
  -3  14   1    2.52    2.22
   3  14  -1   -0.17    3.28
  -3  14   1    1.76    3.66
  -3  14   1    2.57    2.12
   3  14  -1    4.73    2.67
  -3  14  -1    1.95    2.31
   3  14   1    1.73    2.21
   3  14   1    3.08    2.25
  -3  14  -1    5.35    3.74
  -3  14  -1   -2.37    1.83
   3  14   1   -3.36    2.76
  -3  14  -1    2.12    6.95
   3 -14  -1   -2.29    2.53
   3  14   1   -1.73    3.32
   3 -14   2   10.34    4.78
   3 -14   2    3.52    3.00
   3  14  -2   13.45    2.87
   3  14  -2    9.59    3.09
  -3  14   2    6.18    2.31
   3  14  -2    7.79    2.57
   3  14  -2    8.03    3.64
  -3  14  -2    9.74    2.78
  -3  14  -2    8.15    2.80
   3  14   2    2.30    3.34
   3  14   2    8.04    3.70
   3  14   2    9.18    2.68
   3  14   2    7.53    2.73
   3  14  -3    6.32    3.29
   3 -14   3    3.28    4.44
   3  14  -3    0.14    2.47
   3  14  -3    3.19    2.19
   3 -14   3    6.58    5.21
   3  14  -3    2.51    2.89
  -3  14   3    2.95    2.36
  -3  14  -3   -0.68    2.81
  -3  14  -3    2.19    2.80
   3  14   3   -2.93    2.43
   3  14   3   -3.23    3.43
   3  14   3    0.27    2.25
  -4  14   0   22.58    3.22
   4  14   0   24.60    2.87
   4 -14   0   18.99    4.19
   4  14   0   27.73    3.52
   4  14   0   18.82    2.44
  -4  14   0   18.53    2.85
  -4  14   0   26.55    4.59
   4  14   0   23.62    2.81
   4  14   0   19.64    2.83
   4  14  -1   -0.17    2.61
   4  14  -1    1.84    2.62
   4 -14   1    3.89    4.25
  -4  14   1   -1.05    2.17
   4  14  -1    1.47    1.98
   4  14  -1    1.55    2.05
  -4  14   1    3.21    2.42
   4  14   1    4.40    2.64
   4  14   1    4.31    2.58
   4  14   1    1.32    2.79
  -4  14  -1    0.89    2.24
   4  14   1   -0.71    2.15
  -4  14  -1    3.02    2.24
   4  14  -2   12.15    3.70
   4 -14   2   27.21    4.27
   4  14  -2   21.23    3.80
   4  14  -2   20.80    3.33
   4  14  -2   17.32    3.00
  -4  14   2   20.48    3.65
   4 -14   2   15.16    5.13
  -4  14  -2   18.54    3.58
   4  14   2   15.16    3.19
   4  14   2   21.91    3.11
   4  14   2   18.57    2.92
   4  14   2   13.51    3.48
  -4  14  -2   21.61    3.29
   4  14   2   21.60    3.09
  -5  14   0   -0.13    2.57
   5  14   0    0.77    2.37
  -5  14   0    5.31    2.31
   5  14   0    0.69    2.14
   5 -14   0    2.58    3.65
   5  14  -1    9.07    3.20
   5 -14   1   10.54    4.53
  -5  14   1    9.66    2.60
   5  14  -1    9.34    2.71
  -5  14  -1    7.90    2.89
  -5  14  -1   11.40    2.91
   5  14   1   14.56    2.97
   5  14  -2    1.33    2.19
   5 -14   2    1.21    3.61
  -5  14   2    0.16    2.21
   5  14  -2   -1.08    2.28
   5 -14   2   -4.42    4.54
   5  14  -2   -0.95    3.12
   5  14  -2    0.37    2.61
   5  14   2    1.00    2.35
  -5  14  -2    4.47    2.61
   5  14   2    0.53    2.62
   5  14   2    1.17    2.81
  -5  14  -2    0.90    2.49
   5  14   2    4.43    2.24
  -6  14   0   22.40    3.27
   6  14   0   22.33    3.68
  -6  14   0   20.69    3.52
   6  14   0   23.88    3.26
   6 -14   0   17.70    4.95
   6 -14   1    8.77    4.96
   6  14  -1   12.26    3.40
   6  14  -1   10.82    2.32
  -6  14   1   12.68    2.81
   6  14  -1    8.27    3.07
  -6  14  -1   10.26    3.12
   6  14   1    9.81    2.83
  -6  14  -1   12.49    3.31
   6  14   1    9.93    2.32
   0  15   0    2.46    1.92
   0  15   0    2.24    3.09
   0  15   0    2.37    2.36
   0  15   1    2.17    3.12
   0  15  -1    2.68    2.88
   0  15  -1    0.34    2.99
   0  15   1    9.26    2.58
   0  15  -1    6.95    2.21
   0 -15   1    8.88    3.51
   0  15  -2   -1.89    2.22
   0  15   2    1.21    2.62
   0 -15   2    4.18    4.43
   0  15  -2   -2.06    2.88
   1  15   0   36.66    4.26
  -1  15   0   44.65    4.35
  -1  15   0   42.98    5.30
   1  15   0   40.08    4.81
   1  15   0   43.40    3.38
  -1  15   0   44.36    3.48
   1  15   0   43.65    7.24
   1 -15   1   11.28    4.00
  -1  15   1   14.16    2.42
  -1  15   1   10.03    3.82
   1  15  -1   13.05    3.17
   1  15  -1   10.54    2.56
   1  15  -1   10.59    3.35
  -1  15   1   12.52    2.86
   1  15   1   16.02    3.05
  -1  15  -1   20.83    2.94
  -1  15  -1   14.97    3.26
   1  15   1    8.97    3.32
  -1  15  -1   15.01    4.03
  -1  15   2    9.62    2.89
   1 -15   2    6.89    4.82
   1  15  -2    4.12    3.19
   1  15  -2    8.36    2.99
   1  15  -2    7.45    2.81
  -1  15  -2    5.64    2.53
  -1  15  -2    9.56    3.34
  -1 -15   2   13.73    4.01
   1  15   2    9.19    2.91
   1  15   2    5.81    4.22
   1  15   2    3.23    2.99
   2  15   0    1.39    2.09
   2  15   0    5.73    2.93
  -2  15   0    2.25    2.77
   2  15   0    1.79    2.46
  -2  15   0    6.60    2.21
   2  15   0    7.07    4.11
  -2  15   1   -1.99    2.19
   2 -15   1    4.62    4.09
  -2  15   1    1.57    2.53
   2  15  -1    0.47    2.62
   2  15  -1    4.95    3.03
   2  15  -1    0.27    2.39
  -2  15  -1   -0.67    2.12
  -2  15  -1    1.78    2.67
   2  15   1   -4.06    2.44
   2  15   1   -2.99    2.69
  -2  15   2   17.49    3.36
   2 -15   2   11.65    5.36
   2  15  -2   10.63    2.99
   2  15  -2    8.54    3.55
   2  15  -2   12.50    2.97
   2  15   2   18.21    3.18
   2  15   2   12.10    3.13
  -2  15  -2   12.01    3.41
  -2  15  -2   14.56    2.88
   2  15   2    6.09    4.01
   3  15   0    6.13    2.58
   3  15   0    1.84    3.53
  -3  15   0    0.86    2.18
  -3  15   0    3.67    2.64
   3  15   0   -1.23    2.73
   3  15   0    4.24    2.15
  -3  15   1   26.34    3.67
  -3  15   1   25.03    3.09
   3 -15   1   25.98    4.96
   3  15  -1   23.17    3.32
   3  15  -1   24.22    3.15
   3  15  -1   20.67    3.98
   3  15  -1   23.44    3.97
   3  15   1   18.92    3.79
   3  15   1   21.28    3.29
  -3  15  -1   20.51    3.66
   3  15   1   22.14    3.51
   3  15   1   24.29    3.79
  -3  15  -1   24.50    3.28
   3 -15   2    0.30    4.70
  -3  15   2    1.76    2.84
   3  15  -2    2.92    2.92
   3  15  -2    2.81    2.70
   3  15  -2   10.88    3.80
   3  15   2    2.20    2.77
  -3  15  -2    3.68    2.59
  -3  15  -2    2.68    2.57
   3  15   2    3.13    3.56
   3  15   2    2.94    2.81
   4  15   0    6.65    2.98
  -4  15   0    9.44    2.63
  -4  15   0    7.54    3.18
   4  15   0    7.28    2.91
   4  15   0    9.01    2.61
   4  15   0    6.26    2.35
   4  15  -1    2.97    2.33
  -4  15   1    9.15    2.97
   4 -15   1    7.41    4.86
   4  15  -1    9.37    2.82
   4  15  -1    7.04    2.90
   4  15  -1    9.95    3.34
  -4  15  -1    1.75    2.90
   4  15   1    8.01    2.62
   4  15   1   10.37    3.06
   4  15   1    3.15    2.91
  -4  15  -1    9.73    2.65
   4  15   1    7.09    3.05
   0  16   0   51.88    5.07
   0  16   0   46.82    3.65
   0   0   0    0.00    0.00
;
_shelx_hkl_checksum              62484
loop_
_space_group_symop_operation_xyz
'x, y, z'
'-x, -y, z+1/2'
'x+1/2, -y+1/2, z'
'-x+1/2, y+1/2, z+1/2'
loop_
_atom_site_label
_atom_site_type_symbol
_atom_site_fract_x
_atom_site_fract_y
_atom_site_fract_z
_atom_site_U_iso_or_equiv
_atom_site_adp_type
_atom_site_occupancy
_atom_site_site_symmetry_order
_atom_site_calc_flag
_atom_site_refinement_flags_posn
_atom_site_refinement_flags_adp
_atom_site_refinement_flags_occupancy
_atom_site_disorder_assembly
_atom_site_disorder_group
K1 K 0.015(2) 0.6540(17) 0.024(7) 0.0199(10) Uani 0.124(6) 1 d . . P . .
K2 K 0.2015(3) 0.2821(2) 0.504(2) 0.0199(10) Uani 0.876(6) 1 d . . P . .
K3 K 0.4781(3) 0.1380(2) 0.021(2) 0.0365(17) Uani 1 1 d . . . . .
Ba1 Ba 0.11374(7) 0.03761(5) 0.0054(8) 0.0123(3) Uani 1 1 d . . . . .
P1 P 0.2475(3) 0.4790(2) -0.0019(18) 0.0084(5) Uani 1 1 d . . . . .
P2 P 0.3281(3) 0.3413(2) 0.001(2) 0.0084(5) Uani 1 1 d . . . . .
S1 S 0.0787(12) 0.8405(9) 0.2649(12) 0.0195(14) Uani 1 1 d . . . . .
S2 S 0.1269(3) 0.0685(2) 0.5210(12) 0.0084(5) Uani 1 1 d . . . . .
S3 S 0.1607(14) 0.4862(10) 0.7575(14) 0.0247(16) Uani 1 1 d . . . . .
S4 S 0.1629(12) 0.4817(8) 0.2584(12) 0.0084(5) Uani 1 1 d . . . . .
S5 S 0.2085(3) 0.2459(2) 0.004(2) 0.0174(9) Uani 1 1 d . . . . .
S6 S 0.4230(11) 0.3376(8) 0.2513(10) 0.0084(5) Uani 1 1 d . . . . .
loop_
_atom_site_aniso_label
_atom_site_aniso_U_11
_atom_site_aniso_U_22
_atom_site_aniso_U_33
_atom_site_aniso_U_23
_atom_site_aniso_U_13
_atom_site_aniso_U_12
K1 0.035(2) 0.0179(18) 0.0067(17) -0.001(6) 0.004(7) -0.0161(16)
K2 0.035(2) 0.0179(18) 0.0067(17) -0.001(6) 0.004(7) -0.0161(16)
K3 0.018(2) 0.0188(19) 0.072(5) 0.020(5) -0.004(6) 0.0025(16)
Ba1 0.0139(5) 0.0120(4) 0.0108(4) -0.0011(13) 0.0006(17) 0.0000(4)
P1 0.0106(11) 0.0098(9) 0.0047(11) 0.0012(19) 0.001(2) -0.0013(8)
P2 0.0106(11) 0.0098(9) 0.0047(11) 0.0012(19) 0.001(2) -0.0013(8)
S1 0.024(3) 0.024(3) 0.010(2) -0.002(3) -0.009(3) -0.004(2)
S2 0.0106(11) 0.0098(9) 0.0047(11) 0.0012(19) 0.001(2) -0.0013(8)
S3 0.022(3) 0.035(4) 0.018(3) 0.009(3) -0.009(3) -0.001(3)
S4 0.0106(11) 0.0098(9) 0.0047(11) 0.0012(19) 0.001(2) -0.0013(8)
S5 0.020(2) 0.0115(17) 0.020(2) 0.000(8) -0.003(7) -0.0078(15)
S6 0.0106(11) 0.0098(9) 0.0047(11) 0.0012(19) 0.001(2) -0.0013(8)
loop_
_atom_type_symbol
_atom_type_description
_atom_type_scat_dispersion_real
_atom_type_scat_dispersion_imag
_atom_type_scat_source
P P 0.1023 0.0942 'International Tables Vol C Tables 4.2.6.8 and 6.1.1.4'
S S 0.1246 0.1234 'International Tables Vol C Tables 4.2.6.8 and 6.1.1.4'
K K 0.2009 0.2494 'International Tables Vol C Tables 4.2.6.8 and 6.1.1.4'
Ba Ba -0.3244 2.2819 'International Tables Vol C Tables 4.2.6.8 and 6.1.1.4'
loop_
_geom_angle_atom_site_label_1
_geom_angle_atom_site_label_2
_geom_angle_atom_site_label_3
_geom_angle
_geom_angle_site_symmetry_1
_geom_angle_site_symmetry_3
_geom_angle_publ_flag
K2 K1 S1 89.1(8) 2_564 . ?
K2 K1 S6 86.1(8) 2_564 4_554 ?
S1 K1 S6 64.1(4) . 4_554 ?
K2 K1 S3 67.1(7) 2_564 2_564 ?
S1 K1 S3 114.7(13) . 2_564 ?
S6 K1 S3 153.1(10) 4_554 2_564 ?
K2 K1 K3 95.5(11) 2_564 4 ?
S1 K1 K3 63.1(8) . 4 ?
S6 K1 K3 127.2(9) 4_554 4 ?
S3 K1 K3 60.4(7) 2_564 4 ?
K2 K1 K3 89.9(11) 2_564 4_554 ?
S1 K1 K3 123.5(9) . 4_554 ?
S6 K1 K3 59.4(7) 4_554 4_554 ?
S3 K1 K3 116.5(9) 2_564 4_554 ?
K3 K1 K3 171.7(9) 4 4_554 ?
K2 K1 S4 63.8(7) 2_564 2_564 ?
S1 K1 S4 152.7(10) . 2_564 ?
S6 K1 S4 107.9(12) 4_554 2_564 ?
S3 K1 S4 59.7(4) 2_564 2_564 ?
K3 K1 S4 120.0(9) 4 2_564 ?
K3 K1 S4 57.1(7) 4_554 2_564 ?
K2 K1 S4 138.9(11) 2_564 . ?
S1 K1 S4 103.5(11) . . ?
S6 K1 S4 134.7(9) 4_554 . ?
S3 K1 S4 72.2(7) 2_564 . ?
K3 K1 S4 58.7(7) 4 . ?
K3 K1 S4 113.3(9) 4_554 . ?
S4 K1 S4 99.7(6) 2_564 . ?
K2 K1 S3 133.1(13) 2_564 1_554 ?
S1 K1 S3 134.8(9) . 1_554 ?
S6 K1 S3 98.2(10) 4_554 1_554 ?
S3 K1 S3 99.2(7) 2_564 1_554 ?
K3 K1 S3 116.9(9) 4 1_554 ?
K3 K1 S3 55.1(7) 4_554 1_554 ?
S4 K1 S3 70.5(7) 2_564 1_554 ?
S4 K1 S3 58.2(4) . 1_554 ?
K2 K1 P1 157.1(9) 2_564 . ?
S1 K1 P1 112.7(9) . . ?
S6 K1 P1 109.0(9) 4_554 . ?
S3 K1 P1 96.3(7) 2_564 . ?
K3 K1 P1 88.9(8) 4 . ?
K3 K1 P1 83.7(8) 4_554 . ?
S4 K1 P1 94.6(7) 2_564 . ?
S4 K1 P1 32.2(4) . . ?
S3 K1 P1 30.5(4) 1_554 . ?
K2 K1 K2 132.9(8) 2_564 4_554 ?
S1 K1 K2 54.3(5) . 4_554 ?
S6 K1 K2 53.4(4) 4_554 4_554 ?
S3 K1 K2 150.1(13) 2_564 4_554 ?
K3 K1 K2 92.5(8) 4 4_554 ?
K3 K1 K2 88.5(8) 4_554 4_554 ?
S4 K1 K2 143.9(12) 2_564 4_554 ?
S4 K1 K2 83.3(7) . 4_554 ?
S3 K1 K2 81.3(6) 1_554 4_554 ?
P1 K1 K2 69.0(5) . 4_554 ?
K2 K1 K3 102.9(6) 2_564 3_455 ?
S1 K1 K3 148.5(13) . 3_455 ?
S6 K1 K3 144.5(12) 4_554 3_455 ?
S3 K1 K3 48.3(4) 2_564 3_455 ?
K3 K1 K3 86.6(7) 4 3_455 ?
K3 K1 K3 86.0(7) 4_554 3_455 ?
S4 K1 K3 50.6(4) 2_564 3_455 ?
S4 K1 K3 49.3(4) . 3_455 ?
S3 K1 K3 50.8(4) 1_554 3_455 ?
P1 K1 K3 54.9(3) . 3_455 ?
K2 K1 K3 123.9(7) 4_554 3_455 ?
K1 K2 S2 92.3(5) 2_565 . ?
K1 K2 S6 136.3(8) 2_565 . ?
S2 K2 S6 119.0(3) . . ?
K1 K2 S1 131.1(8) 2_565 4_545 ?
S2 K2 S1 117.0(3) . 4_545 ?
S6 K2 S1 62.97(10) . 4_545 ?
K1 K2 S4 67.1(7) 2_565 . ?
S2 K2 S4 142.9(4) . . ?
S6 K2 S4 69.8(4) . . ?
S1 K2 S4 99.3(3) 4_545 . ?
K1 K2 S5 91.4(9) 2_565 1_556 ?
S2 K2 S5 80.0(2) . 1_556 ?
S6 K2 S5 121.7(3) . 1_556 ?
S1 K2 S5 59.7(3) 4_545 1_556 ?
S4 K2 S5 128.6(3) . 1_556 ?
K1 K2 S5 97.0(9) 2_565 . ?
S2 K2 S5 84.1(3) . . ?
S6 K2 S5 60.4(3) . . ?
S1 K2 S5 122.7(3) 4_545 . ?
S4 K2 S5 69.1(3) . . ?
S5 K2 S5 162.24(16) 1_556 . ?
K1 K2 S3 63.9(7) 2_565 . ?
S2 K2 S3 139.2(4) . . ?
S6 K2 S3 99.9(3) . . ?
S1 K2 S3 68.9(4) 4_545 . ?
S4 K2 S3 59.71(10) . . ?
S5 K2 S3 68.9(3) 1_556 . ?
S5 K2 S3 128.9(3) . . ?
K1 K2 P2 105.7(9) 2_565 1_556 ?
S2 K2 P2 107.4(3) . 1_556 ?
S6 K2 P2 93.7(2) . 1_556 ?
S1 K2 P2 31.1(2) 4_545 1_556 ?
S4 K2 P2 107.8(3) . 1_556 ?
S5 K2 P2 31.77(16) 1_556 1_556 ?
S5 K2 P2 153.83(18) . 1_556 ?
S3 K2 P2 55.0(3) . 1_556 ?
K1 K2 P2 110.8(9) 2_565 . ?
S2 K2 P2 111.1(3) . . ?
S6 K2 P2 32.4(2) . . ?
S1 K2 P2 94.8(2) 4_545 . ?
S4 K2 P2 55.1(3) . . ?
S5 K2 P2 154.07(19) 1_556 . ?
S5 K2 P2 31.52(16) . . ?
S3 K2 P2 108.2(3) . . ?
P2 K2 P2 124.62(13) 1_556 . ?
K1 K2 K1 170.0(9) 2_565 4_545 ?
S2 K2 K1 78.8(4) . 4_545 ?
S6 K2 K1 53.4(6) . 4_545 ?
S1 K2 K1 51.8(5) 4_545 4_545 ?
S4 K2 K1 122.8(6) . 4_545 ?
S5 K2 K1 82.6(7) 1_556 4_545 ?
S5 K2 K1 86.6(7) . 4_545 ?
S3 K2 K1 120.6(6) . 4_545 ?
P2 K2 K1 73.2(6) 1_556 4_545 ?
P2 K2 K1 77.0(6) . 4_545 ?
K1 K2 Ba1 102.7(5) 2_565 4 ?
S2 K2 Ba1 164.72(15) . 4 ?
S6 K2 Ba1 50.5(2) . 4 ?
S1 K2 Ba1 50.1(2) 4_545 4 ?
S4 K2 Ba1 49.3(2) . 4 ?
S5 K2 Ba1 96.5(2) 1_556 4 ?
S5 K2 Ba1 96.8(2) . 4 ?
S3 K2 Ba1 49.4(3) . 4 ?
P2 K2 Ba1 65.92(14) 1_556 4 ?
P2 K2 Ba1 66.41(14) . 4 ?
K1 K2 Ba1 86.0(4) 4_545 4 ?
S3 K3 S4 76.5(4) 4_544 3 ?
S3 K3 S5 145.4(5) 4_544 3 ?
S4 K3 S5 71.7(3) 3 3 ?
S3 K3 S6 104.1(5) 4_544 . ?
S4 K3 S6 111.3(5) 3 . ?
S5 K3 S6 75.8(3) 3 . ?
S3 K3 S4 62.06(12) 4_544 4_544 ?
S4 K3 S4 105.5(3) 3 4_544 ?
S5 K3 S4 140.2(5) 3 4_544 ?
S6 K3 S4 136.0(4) . 4_544 ?
S3 K3 K1 124.0(6) 4_544 4_544 ?
S4 K3 K1 120.5(5) 3 4_544 ?
S5 K3 K1 84.7(6) 3 4_544 ?
S6 K3 K1 114.4(5) . 4_544 ?
S4 K3 K1 62.0(6) 4_544 4_544 ?
S3 K3 S3 105.0(3) 4_544 3_554 ?
S4 K3 S3 61.24(11) 3 3_554 ?
S5 K3 S3 71.1(3) 3 3_554 ?
S6 K3 S3 146.8(4) . 3_554 ?
S4 K3 S3 73.2(3) 4_544 3_554 ?
K1 K3 S3 59.5(5) 4_544 3_554 ?
S3 K3 K1 63.9(6) 4_544 4_545 ?
S4 K3 K1 61.8(5) 3 4_545 ?
S5 K3 K1 88.8(6) 3 4_545 ?
S6 K3 K1 58.7(5) . 4_545 ?
S4 K3 K1 126.0(6) 4_544 4_545 ?
K1 K3 K1 171.7(9) 4_544 4_545 ?
S3 K3 K1 123.0(5) 3_554 4_545 ?
S3 K3 S1 135.8(4) 4_544 4_544 ?
S4 K3 S1 145.9(3) 3 4_544 ?
S5 K3 S1 74.3(3) 3 4_544 ?
S6 K3 S1 57.92(10) . 4_544 ?
S4 K3 S1 101.2(4) 4_544 4_544 ?
K1 K3 S1 56.5(5) 4_544 4_544 ?
S3 K3 S1 108.4(5) 3_554 4_544 ?
K1 K3 S1 116.6(5) 4_545 4_544 ?
S3 K3 P2 108.1(4) 4_544 . ?
S4 K3 P2 146.5(4) 3 . ?
S5 K3 P2 91.73(12) 3 . ?
S6 K3 P2 35.2(3) . . ?
S4 K3 P2 105.6(3) 4_544 . ?
K1 K3 P2 85.3(5) 4_544 . ?
S3 K3 P2 141.4(5) 3_554 . ?
K1 K3 P2 89.7(5) 4_545 . ?
S1 K3 P2 33.1(3) 4_544 . ?
S3 K3 S5 79.7(3) 4_544 . ?
S4 K3 S5 150.1(5) 3 . ?
S5 K3 S5 124.36(11) 3 . ?
S6 K3 S5 57.8(3) . . ?
S4 K3 S5 78.3(3) 4_544 . ?
K1 K3 S5 87.9(5) 4_544 . ?
S3 K3 S5 144.0(5) 3_554 . ?
K1 K3 S5 91.5(5) 4_545 . ?
S1 K3 S5 56.3(3) 4_544 . ?
P2 K3 S5 32.65(8) . . ?
S3 K3 P1 100.8(4) 4_544 3 ?
S4 K3 P1 33.2(3) 3 3 ?
S5 K3 P1 57.33(10) 3 3 ?
S6 K3 P1 126.1(3) . 3 ?
S4 K3 P1 97.9(3) 4_544 3 ?
K1 K3 P1 88.1(5) 4_544 3 ?
S3 K3 P1 31.4(3) 3_554 3 ?
K1 K3 P1 92.8(5) 4_545 3 ?
S1 K3 P1 122.7(4) 4_544 3 ?
P2 K3 P1 148.85(15) . 3 ?
S5 K3 P1 175.4(5) . 3 ?
S5 Ba1 S2 81.6(3) . 1_554 ?
S5 Ba1 S4 85.6(3) . 4_544 ?
S2 Ba1 S4 59.5(2) 1_554 4_544 ?
S5 Ba1 S2 138.53(9) . 2_554 ?
S2 Ba1 S2 97.82(14) 1_554 2_554 ?
S4 Ba1 S2 129.9(2) 4_544 2_554 ?
S5 Ba1 S3 84.6(3) . 4_544 ?
S2 Ba1 S3 119.6(3) 1_554 4_544 ?
S4 Ba1 S3 60.98(9) 4_544 4_544 ?
S2 Ba1 S3 128.4(3) 2_554 4_544 ?
S5 Ba1 S1 146.5(3) . 1_545 ?
S2 Ba1 S1 129.5(2) 1_554 1_545 ?
S4 Ba1 S1 99.5(3) 4_544 1_545 ?
S2 Ba1 S1 58.9(3) 2_554 1_545 ?
S3 Ba1 S1 69.7(3) 4_544 1_545 ?
S5 Ba1 S1 76.6(3) . 2_564 ?
S2 Ba1 S1 59.1(2) 1_554 2_564 ?
S4 Ba1 S1 117.8(3) 4_544 2_564 ?
S2 Ba1 S1 68.2(3) 2_554 2_564 ?
S3 Ba1 S1 161.2(3) 4_544 2_564 ?
S1 Ba1 S1 126.94(17) 1_545 2_564 ?
S5 Ba1 S6 147.0(3) . 4_544 ?
S2 Ba1 S6 67.49(18) 1_554 4_544 ?
S4 Ba1 S6 69.4(3) 4_544 4_544 ?
S2 Ba1 S6 60.5(2) 2_554 4_544 ?
S3 Ba1 S6 100.5(3) 4_544 4_544 ?
S1 Ba1 S6 62.07(8) 1_545 4_544 ?
S1 Ba1 S6 95.9(3) 2_564 4_544 ?
S5 Ba1 S6 76.1(3) . 3_455 ?
S2 Ba1 S6 116.65(18) 1_554 3_455 ?
S4 Ba1 S6 161.7(3) 4_544 3_455 ?
S2 Ba1 S6 67.1(2) 2_554 3_455 ?
S3 Ba1 S6 116.2(3) 4_544 3_455 ?
S1 Ba1 S6 95.8(3) 1_545 3_455 ?
S1 Ba1 S6 58.31(8) 2_564 3_455 ?
S6 Ba1 S6 127.35(14) 4_544 3_455 ?
S5 Ba1 S2 82.5(3) . . ?
S2 Ba1 S2 164.08(11) 1_554 . ?
S4 Ba1 S2 119.5(2) 4_544 . ?
S2 Ba1 S2 93.85(15) 2_554 . ?
S3 Ba1 S2 58.9(2) 4_544 . ?
S1 Ba1 S2 66.1(2) 1_545 . ?
S1 Ba1 S2 116.5(2) 2_564 . ?
S6 Ba1 S2 128.14(18) 4_544 . ?
S6 Ba1 S2 58.59(18) 3_455 . ?
S5 Ba1 K2 126.93(9) . 4_544 ?
S2 Ba1 K2 94.9(2) 1_554 4_544 ?
S4 Ba1 K2 49.9(2) 4_544 4_544 ?
S2 Ba1 K2 94.52(8) 2_554 4_544 ?
S3 Ba1 K2 51.4(3) 4_544 4_544 ?
S1 Ba1 K2 49.6(3) 1_545 4_544 ?
S1 Ba1 K2 144.3(3) 2_564 4_544 ?
S6 Ba1 K2 49.2(2) 4_544 4_544 ?
S6 Ba1 K2 144.6(3) 3_455 4_544 ?
S2 Ba1 K2 94.91(19) . 4_544 ?
S5 Ba1 Ba1 116.8(2) . 2 ?
S2 Ba1 Ba1 143.38(7) 1_554 2 ?
S4 Ba1 Ba1 146.3(2) 4_544 2 ?
S2 Ba1 Ba1 46.90(12) 2_554 2 ?
S3 Ba1 Ba1 94.6(2) 4_544 2 ?
S1 Ba1 Ba1 47.8(2) 1_545 2 ?
S1 Ba1 Ba1 92.9(2) 2_564 2 ?
S6 Ba1 Ba1 95.41(19) 4_544 2 ?
S6 Ba1 Ba1 47.98(19) 3_455 2 ?
S2 Ba1 Ba1 46.95(6) . 2 ?
K2 Ba1 Ba1 97.16(15) 4_544 2 ?
S3 P1 S2 116.7(7) 1_554 4_554 ?
S3 P1 S4 116.0(2) 1_554 . ?
S2 P1 S4 108.2(6) 4_554 . ?
S3 P1 P2 107.5(6) 1_554 . ?
S2 P1 P2 103.0(2) 4_554 . ?
S4 P1 P2 103.7(6) . . ?
S3 P1 K3 64.6(5) 1_554 3_455 ?
S2 P1 K3 165.5(3) 4_554 3_455 ?
S4 P1 K3 61.3(5) . 3_455 ?
P2 P1 K3 89.71(14) . 3_455 ?
S3 P1 K1 65.9(8) 1_554 . ?
S2 P1 K1 98.7(4) 4_554 . ?
S4 P1 K1 64.3(8) . . ?
P2 P1 K1 157.7(4) . . ?
K3 P1 K1 68.1(4) 3_455 . ?
S1 P2 S5 115.4(7) 4_544 . ?
S1 P2 S6 109.7(2) 4_544 . ?
S5 P2 S6 113.0(7) . . ?
S1 P2 P1 105.0(6) 4_544 . ?
S5 P2 P1 106.4(2) . . ?
S6 P2 P1 106.6(6) . . ?
S1 P2 K3 73.4(5) 4_544 . ?
S5 P2 K3 79.27(15) . . ?
S6 P2 K3 69.1(4) . . ?
P1 P2 K3 174.1(3) . . ?
S1 P2 K2 61.3(5) 4_544 1_554 ?
S5 P2 K2 63.6(5) . 1_554 ?
S6 P2 K2 162.6(4) . 1_554 ?
P1 P2 K2 90.5(4) . 1_554 ?
K3 P2 K2 93.7(3) . 1_554 ?
S1 P2 K2 162.9(5) 4_544 . ?
S5 P2 K2 62.9(5) . . ?
S6 P2 K2 59.7(4) . . ?
P1 P2 K2 91.4(4) . . ?
K3 P2 K2 89.7(3) . . ?
K2 P2 K2 124.62(13) 1_554 . ?
P2 S1 K1 123.8(8) 4 . ?
P2 S1 K2 87.6(6) 4 4_554 ?
K1 S1 K2 73.9(6) . 4_554 ?
P2 S1 Ba1 110.1(5) 4 1_565 ?
K1 S1 Ba1 117.8(8) . 1_565 ?
K2 S1 Ba1 80.3(3) 4_554 1_565 ?
P2 S1 Ba1 90.8(4) 4 2_565 ?
K1 S1 Ba1 120.2(7) . 2_565 ?
K2 S1 Ba1 163.1(5) 4_554 2_565 ?
Ba1 S1 Ba1 84.5(3) 1_565 2_565 ?
P2 S1 K3 73.5(4) 4 4 ?
K1 S1 K3 60.3(7) . 4 ?
K2 S1 K3 102.5(4) 4_554 4 ?
Ba1 S1 K3 175.6(5) 1_565 4 ?
Ba1 S1 K3 93.1(3) 2_565 4 ?
P1 S2 K2 112.84(18) 4_545 . ?
P1 S2 Ba1 91.6(4) 4_545 1_556 ?
K2 S2 Ba1 100.3(3) . 1_556 ?
P1 S2 Ba1 112.76(16) 4_545 2 ?
K2 S2 Ba1 133.75(13) . 2 ?
Ba1 S2 Ba1 85.79(13) 1_556 2 ?
P1 S2 Ba1 83.0(4) 4_545 . ?
K2 S2 Ba1 95.6(3) . . ?
Ba1 S2 Ba1 164.08(11) 1_556 . ?
Ba1 S2 Ba1 82.53(12) 2 . ?
P1 S3 K3 138.3(7) 1_556 4 ?
P1 S3 Ba1 89.0(6) 1_556 4 ?
K3 S3 Ba1 92.1(4) 4 4 ?
P1 S3 K1 135.6(9) 1_556 2_565 ?
K3 S3 K1 80.2(7) 4 2_565 ?
Ba1 S3 K1 115.3(8) 4 2_565 ?
P1 S3 K3 84.0(5) 1_556 3_456 ?
K3 S3 K3 105.6(5) 4 3_456 ?
Ba1 S3 K3 159.9(5) 4 3_456 ?
K1 S3 K3 60.1(7) 2_565 3_456 ?
P1 S3 K2 107.0(6) 1_556 . ?
K3 S3 K2 114.2(5) 4 . ?
Ba1 S3 K2 79.2(3) 4 . ?
K1 S3 K2 49.1(6) 2_565 . ?
K3 S3 K2 84.8(4) 3_456 . ?
P1 S3 K1 83.5(8) 1_556 1_556 ?
K3 S3 K1 61.0(7) 4 1_556 ?
Ba1 S3 K1 122.5(6) 4 1_556 ?
K1 S3 K1 109.0(6) 2_565 1_556 ?
K3 S3 K1 75.6(6) 3_456 1_556 ?
K2 S3 K1 156.8(7) . 1_556 ?
P1 S4 K3 85.5(5) . 3_455 ?
P1 S4 Ba1 91.0(5) . 4 ?
K3 S4 Ba1 161.9(4) 3_455 4 ?
P1 S4 K3 137.1(5) . 4 ?
K3 S4 K3 104.6(4) 3_455 4 ?
Ba1 S4 K3 90.0(3) 4 4 ?
P1 S4 K2 109.8(5) . . ?
K3 S4 K2 83.8(4) 3_455 . ?
Ba1 S4 K2 80.8(3) 4 . ?
K3 S4 K2 112.7(4) 4 . ?
P1 S4 K1 139.7(8) . 2_565 ?
K3 S4 K1 61.1(7) 3_455 2_565 ?
Ba1 S4 K1 113.6(7) 4 2_565 ?
K3 S4 K1 76.9(6) 4 2_565 ?
K2 S4 K1 49.0(5) . 2_565 ?
P1 S4 K1 83.6(8) . . ?
K3 S4 K1 77.6(6) 3_455 . ?
Ba1 S4 K1 119.7(6) 4 . ?
K3 S4 K1 59.3(7) 4 . ?
K2 S4 K1 156.2(7) . . ?
K1 S4 K1 108.1(5) 2_565 . ?
P2 S5 Ba1 154.30(19) . . ?
P2 S5 K3 106.53(17) . 3_455 ?
Ba1 S5 K3 99.16(11) . 3_455 ?
P2 S5 K2 84.6(6) . 1_554 ?
Ba1 S5 K2 97.8(3) . 1_554 ?
K3 S5 K2 86.3(3) 3_455 1_554 ?
P2 S5 K2 85.6(6) . . ?
Ba1 S5 K2 97.4(3) . . ?
K3 S5 K2 82.3(3) 3_455 . ?
K2 S5 K2 162.24(16) 1_554 . ?
P2 S5 K3 68.08(15) . . ?
Ba1 S5 K3 86.25(10) . . ?
K3 S5 K3 173.3(4) 3_455 . ?
K2 S5 K3 96.8(3) 1_554 . ?
K2 S5 K3 93.2(3) . . ?
P2 S6 K1 127.6(8) . 4_545 ?
P2 S6 K2 87.9(5) . . ?
K1 S6 K2 73.2(6) 4_545 . ?
P2 S6 K3 75.7(4) . . ?
K1 S6 K3 61.8(7) 4_545 . ?
K2 S6 K3 101.6(3) . . ?
P2 S6 Ba1 108.7(5) . 4 ?
K1 S6 Ba1 115.2(7) 4_545 4 ?
K2 S6 Ba1 80.3(3) . 4 ?
K3 S6 Ba1 175.3(4) . 4 ?
P2 S6 Ba1 88.6(3) . 3 ?
K1 S6 Ba1 122.3(6) 4_545 3 ?
K2 S6 Ba1 161.8(4) . 3 ?
K3 S6 Ba1 94.9(3) . 3 ?
Ba1 S6 Ba1 83.8(3) 4 3 ?
loop_
_geom_bond_atom_site_label_1
_geom_bond_atom_site_label_2
_geom_bond_distance
_geom_bond_site_symmetry_2
_geom_bond_publ_flag
K1 K2 2.83(3) 2_564 ?
K1 S1 3.25(3) . ?
K1 S6 3.33(3) 4_554 ?
K1 S3 3.36(3) 2_564 ?
K1 K3 3.38(4) 4 ?
K1 K3 3.43(4) 4_554 ?
K1 S4 3.45(3) 2_564 ?
K1 S4 3.47(4) . ?
K1 S3 3.52(4) 1_554 ?
K1 P1 3.83(3) . ?
K1 K2 3.97(3) 4_554 ?
K1 K3 4.24(2) 3_455 ?
K2 K1 2.83(3) 2_565 ?
K2 S2 3.220(5) . ?
K2 S6 3.329(14) . ?
K2 S1 3.352(17) 4_545 ?
K2 S4 3.362(14) . ?
K2 S5 3.437(18) 1_556 ?
K2 S5 3.439(18) . ?
K2 S3 3.450(16) . ?
K2 P2 3.820(18) 1_556 ?
K2 P2 3.852(17) . ?
K2 K1 3.97(3) 4_545 ?
K2 Ba1 4.337(3) 4 ?
K3 S3 3.213(16) 4_544 ?
K3 S4 3.288(16) 3 ?
K3 S5 3.307(5) 3 ?
K3 S6 3.349(14) . ?
K3 S4 3.362(15) 4_544 ?
K3 K1 3.38(4) 4_544 ?
K3 S3 3.393(18) 3_554 ?
K3 K1 3.43(4) 4_545 ?
K3 S1 3.472(15) 4_544 ?
K3 P2 3.474(5) . ?
K3 S5 3.679(5) . ?
K3 P1 3.736(5) 3 ?
Ba1 S5 3.226(3) . ?
Ba1 S2 3.325(7) 1_554 ?
Ba1 S4 3.330(14) 4_544 ?
Ba1 S2 3.347(4) 2_554 ?
Ba1 S3 3.355(16) 4_544 ?
Ba1 S1 3.374(13) 1_545 ?
Ba1 S1 3.379(14) 2_564 ?
Ba1 S6 3.394(11) 4_544 ?
Ba1 S6 3.404(12) 3_455 ?
Ba1 S2 3.535(7) . ?
Ba1 K2 4.337(3) 4_544 ?
Ba1 Ba1 4.5413(12) 2 ?
P1 S3 1.958(17) 1_554 ?
P1 S2 2.026(5) 4_554 ?
P1 S4 2.054(16) . ?
P1 P2 2.223(4) . ?
P1 K3 3.736(5) 3_455 ?
P2 S1 1.976(16) 4_544 ?
P2 S5 2.020(5) . ?
P2 S6 2.066(15) . ?
P2 K2 3.820(18) 1_554 ?
S1 P2 1.976(16) 4 ?
S1 K2 3.352(17) 4_554 ?
S1 Ba1 3.375(13) 1_565 ?
S1 Ba1 3.379(14) 2_565 ?
S1 K3 3.472(15) 4 ?
S2 P1 2.026(5) 4_545 ?
S2 Ba1 3.325(7) 1_556 ?
S2 Ba1 3.347(4) 2 ?
S3 P1 1.958(17) 1_556 ?
S3 K3 3.213(16) 4 ?
S3 Ba1 3.355(16) 4 ?
S3 K1 3.36(3) 2_565 ?
S3 K3 3.393(18) 3_456 ?
S3 K1 3.52(4) 1_556 ?
S4 K3 3.288(16) 3_455 ?
S4 Ba1 3.330(14) 4 ?
S4 K3 3.362(15) 4 ?
S4 K1 3.45(3) 2_565 ?
S5 K3 3.307(5) 3_455 ?
S5 K2 3.437(18) 1_554 ?
S6 K1 3.33(3) 4_545 ?
S6 Ba1 3.394(11) 4 ?
S6 Ba1 3.404(12) 3 ?
