#------------------------------------------------------------------------------
#$Date: 2022-04-06 01:22:52 +0300 (Wed, 06 Apr 2022) $
#$Revision: 274360 $
#$URL: file:///home/coder/svn-repositories/cod/cif/1/56/67/1566750.cif $
#------------------------------------------------------------------------------
#
# This file is available in the Crystallography Open Database (COD),
# http://www.crystallography.net/
#
# All data on this site have been placed in the public domain by the
# contributors.
#
data_1566750
loop_
_publ_author_name
'Peng, Hang'
'Qi, Jun-Chao'
'Song, Xian-Jiang'
'Xiong, Ren-Gen'
'Liao, Wei-Qiang'
_publ_section_title
;
 An Unprecedented Azobenzene-Based Organic Single-Component Ferroelectric
;
_journal_name_full               'Chemical Science'
_journal_paper_doi               10.1039/D2SC00689H
_journal_year                    2022
_chemical_formula_moiety         'C12 H6 F5 N3'
_chemical_formula_sum            'C12 H6 F5 N3'
_chemical_formula_weight         287.20
_space_group_crystal_system      monoclinic
_space_group_IT_number           4
_space_group_name_Hall           'P 2yb'
_space_group_name_H-M_alt        'P 1 21 1'
_atom_sites_solution_hydrogens   mixed
_atom_sites_solution_primary     direct
_audit_creation_date             2021-11-13
_audit_creation_method
;
Olex2 1.3
(compiled 2020.11.12 svn.r5f609507 for OlexSys, GUI svn.r6408)
;
_audit_update_record
;
2022-01-25 deposited with the CCDC.	2022-04-05 downloaded from the CCDC.
;
_cell_angle_alpha                90
_cell_angle_beta                 92.008(3)
_cell_angle_gamma                90
_cell_formula_units_Z            2
_cell_length_a                   3.76719(12)
_cell_length_b                   6.2632(2)
_cell_length_c                   24.1516(7)
_cell_measurement_reflns_used    2232
_cell_measurement_temperature    298(17)
_cell_measurement_theta_max      75.8620
_cell_measurement_theta_min      3.5740
_cell_volume                     569.50(3)
_computing_cell_refinement       'CrysAlisPro 1.171.41.108a (Rigaku OD, 2021)'
_computing_data_collection       'CrysAlisPro 1.171.41.108a (Rigaku OD, 2021)'
_computing_data_reduction        'CrysAlisPro 1.171.41.108a (Rigaku OD, 2021)'
_computing_molecular_graphics    'Olex2 1.3 (Dolomanov et al., 2009)'
_computing_publication_material  'Olex2 1.3 (Dolomanov et al., 2009)'
_computing_structure_refinement  'SHELXL 2017/1 (Sheldrick, 2015)'
_computing_structure_solution    'SHELXS  (Sheldrick, 2008)'
_diffrn_ambient_environment      air
_diffrn_ambient_temperature      297.96(17)
_diffrn_detector                 'Hybrid Pixel Array Detector'
_diffrn_detector_area_resol_mean 10.0000
_diffrn_detector_type            HyPix
_diffrn_measured_fraction_theta_full 0.985
_diffrn_measured_fraction_theta_max 0.933
_diffrn_measurement_details
;
List of Runs (angles in degrees, time in seconds):

  # Type    Start    End  Width  t~exp~   \w     \q     \k     \f   Frames
#--------------------------------------------------------------------------
  1  \w     24.00 111.00   0.50    0.80    --   45.15  72.00 -81.00  174
  2  \w     84.00 171.00   0.50    0.80    --  107.00  72.00 -81.00  174
  3  \w    131.00 157.00   0.50    0.80    --  107.00  15.00-150.00   52
  4  \w     83.00 125.00   0.50    0.80    --  107.00  15.00-150.00   84
  5  \w     38.00 105.00   0.50    0.80    --  107.00 -94.00   0.00  134
  6  \w    -21.00   4.00   0.50    0.80    --  -45.15  72.00 -81.00   50
  7  \w    -22.00  33.00   0.50    0.80    --  -45.15  19.00 -90.00  110
  8  \w    -20.00   5.00   0.50    0.80    --   45.15 -72.00 148.00   50
  9  \w     11.00  48.00   0.50    0.80    --   45.15 -72.00 148.00   74
 10  \w     42.00  85.00   0.50    0.80    --  107.00 -72.00 148.00   86
 11  \w     34.00  59.00   0.50    0.80    --  107.00 -61.00   0.00   50
 12  \w     42.00  67.00   0.50    0.80    --  107.00 -61.00-180.00   50
 13  \w    -89.00 -34.00   0.50    0.80    -- -102.00  72.00 -81.00  110
 14  \w    -62.00 -28.00   0.50    0.80    -- -102.00  61.00 -90.00   68
 15  \w    -69.00 -31.00   0.50    0.80    -- -102.00  61.00   0.00   76
 16  \w    -68.00 -29.00   0.50    0.80    -- -102.00  61.00 120.00   78
 17  \w   -151.00-126.00   0.50    0.80    -- -102.00 -72.00 148.00   50
 18  \w   -173.00-129.00   0.50    0.80    -- -102.00 -45.00-150.00   88
 19  \w   -113.00 -88.00   0.50    0.80    -- -102.00 -45.00-150.00   50
;
_diffrn_measurement_device       'four-circle diffractometer'
_diffrn_measurement_device_type  'XtaLAB Synergy R, DW system, HyPix'
_diffrn_measurement_method       '\w scans'
_diffrn_orient_matrix_type
'CrysAlisPro convention (1999,Acta A55,543-557)'
_diffrn_orient_matrix_UB_11      0.0641814000
_diffrn_orient_matrix_UB_12      0.1662481000
_diffrn_orient_matrix_UB_13      0.0463100000
_diffrn_orient_matrix_UB_21      0.2850799000
_diffrn_orient_matrix_UB_22      0.1084277000
_diffrn_orient_matrix_UB_23      -0.0344727000
_diffrn_orient_matrix_UB_31      -0.2862742000
_diffrn_orient_matrix_UB_32      0.1454129000
_diffrn_orient_matrix_UB_33      -0.0272166000
_diffrn_radiation_monochromator  mirror
_diffrn_radiation_probe          x-ray
_diffrn_radiation_type           'Cu K\a'
_diffrn_radiation_wavelength     1.54184
_diffrn_reflns_av_R_equivalents  0.0115
_diffrn_reflns_av_unetI/netI     0.0071
_diffrn_reflns_Laue_measured_fraction_full 0.985
_diffrn_reflns_Laue_measured_fraction_max 0.933
_diffrn_reflns_limit_h_max       4
_diffrn_reflns_limit_h_min       -4
_diffrn_reflns_limit_k_max       7
_diffrn_reflns_limit_k_min       -4
_diffrn_reflns_limit_l_max       29
_diffrn_reflns_limit_l_min       -30
_diffrn_reflns_number            2826
_diffrn_reflns_point_group_measured_fraction_full 0.741
_diffrn_reflns_point_group_measured_fraction_max 0.689
_diffrn_reflns_theta_full        67.684
_diffrn_reflns_theta_max         76.045
_diffrn_reflns_theta_min         1.830
_diffrn_source                   'Rotating-anode X-ray tube'
_diffrn_source_type              'Rigaku (Cu) X-ray Source'
_exptl_absorpt_coefficient_mu    1.437
_exptl_absorpt_correction_T_max  1.00000
_exptl_absorpt_correction_T_min  0.69192
_exptl_absorpt_correction_type   multi-scan
_exptl_absorpt_process_details
;
CrysAlisPro 1.171.41.108a (Rigaku Oxford Diffraction, 2021)
Empirical absorption correction using spherical harmonics,
implemented in SCALE3 ABSPACK scaling algorithm.
;
_exptl_crystal_colour            yellow
_exptl_crystal_colour_primary    yellow
_exptl_crystal_density_diffrn    1.675
_exptl_crystal_description       block
_exptl_crystal_F_000             288
_refine_diff_density_max         0.275
_refine_diff_density_min         -0.248
_refine_diff_density_rms         0.072
_refine_ls_abs_structure_details
;
 Flack x determined using 390 quotients [(I+)-(I-)]/[(I+)+(I-)]
 (Parsons, Flack and Wagner, Acta Cryst. B69 (2013) 249-259).
;
_refine_ls_abs_structure_Flack   0.35(15)
_refine_ls_extinction_method     none
_refine_ls_goodness_of_fit_ref   1.124
_refine_ls_hydrogen_treatment    constr
_refine_ls_matrix_type           full
_refine_ls_number_parameters     182
_refine_ls_number_reflns         1645
_refine_ls_number_restraints     8
_refine_ls_restrained_S_all      1.176
_refine_ls_R_factor_all          0.0574
_refine_ls_R_factor_gt           0.0539
_refine_ls_shift/su_max          0.000
_refine_ls_shift/su_mean         0.000
_refine_ls_structure_factor_coef Fsqd
_refine_ls_weighting_details
'w=1/[\s^2^(Fo^2^)+(0.0932P)^2^+0.1617P] where P=(Fo^2^+2Fc^2^)/3'
_refine_ls_weighting_scheme      calc
_refine_ls_wR_factor_gt          0.1505
_refine_ls_wR_factor_ref         0.1575
_reflns_Friedel_coverage         0.349
_reflns_Friedel_fraction_full    0.442
_reflns_Friedel_fraction_max     0.394
_reflns_number_gt                1503
_reflns_number_total             1645
_reflns_threshold_expression     'I > 2\s(I)'
_cod_data_source_file            d2sc00689h2.cif
_cod_data_source_block           P21
_cod_database_code               1566750
_shelx_shelxl_version_number     2017/1
_chemical_oxdiff_formula         'C H N F'
_shelx_space_group_comment
;
The symmetry employed for this shelxl refinement is uniquely defined
by the following loop, which should always be used as a source of
symmetry information in preference to the above space-group names.
They are only intended as comments.
;
_reflns_odcompleteness_completeness 98.59
_reflns_odcompleteness_iscentric 1
_reflns_odcompleteness_theta     66.97
_olex2_refinement_description
;
1. Fixed Uiso
 At 1.2 times of:
  All C(H) groups, All N(H,H) groups
2. Restrained distances
 N3-C12
 1.48 with sigma of 0.01
3. Uiso/Uaniso restraints and constraints
F1 \\sim C2: within 2A with sigma of 0.01 and sigma for terminal atoms of 0.01
within 2A
4.a Rotating group:
 N3(H3A,H3B)
4.b Aromatic/amide H refined with riding coordinates:
 C11(H11), C5(H5), C9(H9), C3(H3)
;
_shelx_res_file
;
TITL SJK-246-F-OUDANBEN-298K-2_auto in P21 #4
    sjk-246-f-oudanben-298k-2_auto.res
    created by SHELXL-2017/1 at 16:46:32 on 13-Nov-2021
REM reset to P21 #4
CELL 1.54184 3.767186 6.263233 24.151585 90 92.0078 90
ZERR 2 0.00012 0.00021 0.000747 0 0.0027 0
LATT -1
SYMM -X,0.5+Y,-Z
SFAC C H F N
UNIT 24 12 10 6
DFIX 1.48 0.01 N3 C12
SIMU 0.01 0.01 2 F1 C2

L.S. 20
PLAN  5
TEMP 25
CONF
HTAB N3 N2
BOND
MORE -1
BOND $H
fmap 2 53
acta
REM <olex2.extras>
REM <HklSrc "%.\\SJK-246-F-OUDANBEN-298K-2_auto.hkl">
REM </olex2.extras>

WGHT    0.093200    0.161700
FVAR      17.49417
F3    3   -0.868072   -0.779291   -0.358001    11.00000    0.07961    0.05283 =
         0.05987    0.00633    0.00302   -0.01234
F4    3   -1.129160   -1.368589   -0.142308    11.00000    0.08335    0.04729 =
         0.05905    0.00258   -0.00676   -0.01242
C1    1   -1.091290   -1.093222   -0.322335    11.00000    0.03454    0.04247 =
         0.04362   -0.00250    0.00051    0.00707
C12   1   -0.742559   -0.854786   -0.166597    11.00000    0.04200    0.05671 =
         0.05116    0.00161   -0.00124    0.00086
F5    3   -0.618328   -0.876195   -0.017745    11.00000    0.08949    0.09144 =
         0.04297   -0.01306   -0.01291   -0.00456
N3    4   -0.662458   -0.710648   -0.207293    11.00000    0.07275    0.04202 =
         0.03239    0.00209   -0.00351   -0.01007
AFIX   7
H3A   2   -0.821119   -0.717258   -0.233893    11.00000   -1.20000
H3B   2   -0.661448   -0.583568   -0.193453    11.00000   -1.20000
AFIX   0
N1    4   -1.030770   -1.130023   -0.229441    11.00000    0.04406    0.03910 =
         0.04724    0.00142   -0.00050    0.00143
F2    3   -1.386531   -1.264298   -0.481838    11.00000    0.09131    0.09943 =
         0.04154   -0.01358   -0.01041   -0.00259
C11   1   -0.649333   -0.793358   -0.111941    11.00000    0.05004    0.05647 =
         0.05450   -0.01472   -0.00277   -0.00378
AFIX  43
H11   2   -0.548606   -0.660472   -0.104416    11.00000   -1.20000
AFIX   0
N2    4   -0.976053   -1.014270   -0.271196    11.00000    0.05603    0.05702 =
         0.03434   -0.00325   -0.00286    0.00613
C5    1   -1.125015   -1.012588   -0.421145    11.00000    0.04904    0.06466 =
         0.04644    0.00709    0.00480    0.00832
AFIX  43
H5    2   -1.084896   -0.918412   -0.450033    11.00000   -1.20000
AFIX   0
F1    3   -1.329810   -1.427178   -0.293327    11.00000    0.10668    0.06513 =
         0.07641    0.00761    0.00005   -0.02400
C4    1   -1.283669   -1.211096   -0.429345    11.00000    0.05215    0.05897 =
         0.03978   -0.00605   -0.00179    0.00771
C9    1   -0.872440   -1.125619   -0.078716    11.00000    0.05868    0.05558 =
         0.03855    0.00598   -0.00668    0.00206
AFIX  43
H9    2   -0.915985   -1.216408   -0.049250    11.00000   -1.20000
AFIX   0
C6    1   -1.033309   -0.967354   -0.367472    11.00000    0.04130    0.03881 =
         0.05275   -0.00434   -0.00223    0.00565
C7    1   -0.906532   -1.042708   -0.178507    11.00000    0.04520    0.04713 =
         0.03662    0.00117   -0.00311    0.00342
C8    1   -0.969327   -1.180281   -0.132454    11.00000    0.04931    0.05033 =
         0.04399    0.00811    0.00199   -0.00141
C2    1   -1.261269   -1.298906   -0.334071    11.00000    0.05148    0.04029 =
         0.04074    0.00157    0.00244    0.00205
C3    1   -1.357863   -1.351464   -0.388012    11.00000    0.05147    0.04809 =
         0.05198   -0.00223   -0.00431   -0.00151
AFIX  43
H3    2   -1.471450   -1.480150   -0.396087    11.00000   -1.20000
AFIX   0
C10   1   -0.710682   -0.933608   -0.070574    11.00000    0.05121    0.07718 =
         0.03779   -0.00840   -0.00815    0.00544
HKLF 4




REM  SJK-246-F-OUDANBEN-298K-2_auto in P21 #4
REM R1 =  0.0539 for    1503 Fo > 4sig(Fo)  and  0.0574 for all    1645 data
REM    182 parameters refined using      8 restraints

END

WGHT      0.0932      0.1617

REM Highest difference peak  0.275,  deepest hole -0.248,  1-sigma level  0.072
Q1    1  -1.2951 -1.4033 -0.2416  11.00000  0.05    0.27
Q2    1  -0.7316 -0.7390 -0.2586  11.00000  0.05    0.27
Q3    1  -0.7882 -0.7868 -0.3119  11.00000  0.05    0.22
Q4    1  -1.5187 -1.2702 -0.5422  11.00000  0.05    0.22
Q5    1  -0.6588 -0.8983  0.0599  11.00000  0.05    0.22
;
_shelx_res_checksum              70019
_shelx_hkl_file
;
   0   0  -1-2.88858 5.53239   1
   0   0  -2 128970. 377.446   1
   0   0  -3 24.9712 19.0284   1
   0   0  -4 250507. 722.794   1
   0   0  -5-23.1560 29.7021   1
   0   0  -6 100932. 380.468   1
   0   0  -7 54.0329 13.3645   8
   0   0  -7-21.2579 38.3008   1
   0   0  -8 25681.1 171.202   8
   0   0  -9 47.9363 15.6553   8
   0   0 -10 1885.67 50.6657   8
   0   0 -11 23.7201 15.4846   8
   0   0 -12 1458.54 50.7804   8
   0   0 -13 74.3070 20.7837   8
   0   0 -14 202029. 792.792   8
   0   0 -15 285.748 31.4485   8
   0   0 -16 1314.08 58.2211   8
   0   0 -16 1219.56 56.1838   2
   0   0 -17 16.1820 21.7537   2
   0   0 -17 8.02201 19.5092   8
   0   0 -18 15534.6 203.823   8
   0   0 -18 15776.6 208.710   2
   0   0 -19 23.3567 25.8273   2
   0   0 -20 108463. 622.898   2
   0   0 -21 4.55585 27.2127   2
   0   0 -22 6627.45 139.573   2
   0   0 -22 6800.85 147.918   9
   0   0 -23 45.0081 25.4527   2
   0   0 -24 6538.72 132.608   2
   0   0 -25 3.79311 21.0195   2
   0   0 -26 5327.72 111.636   2
   0   0 -27 9.53296 18.9369   2
   0   0 -28 1951.94 55.7586   2
   0   0 -29 5.86578 12.4502   2
   0   0  29 0.20769 11.4670   4
   0   0 -30 338.264 18.4420   2
   0  -1   0 51.3164 6.10030   7
   0   1  -1 475281. 1163.09   8
   0   1  -2 85757.3 262.203   8
   0  -1  -2 85378.8 260.323   8
   0  -1  -3 119351. 381.694   8
   0   1  -3 119436. 382.041   8
   0   1  -4 8310.37 65.5722   8
   0  -1  -4 8344.48 65.0600   8
   0   1  -5 107186. 357.047   8
   0  -1  -5 104312. 354.758   8
   0   1  -6 531297. 1423.04   8
   0   1  -7 4111.78 60.9439   8
   0  -1  -7 4176.36 61.3737   8
   0  -1  -8 20020.0 148.661   8
   0   1  -8 20382.4 150.390   8
   0   1  -9 207.062 19.3480   8
   0  -1  -9 218.566 19.5215   8
   0   1 -10 6785.88 94.2345   8
   0  -1 -10 6908.59 93.9396   8
   0  -1 -11 162970. 620.032   8
   0   1 -11 160434. 623.680   8
   0   1 -12 643851. 1848.82   8
   0  -1 -12 629418. 1839.42   8
   0  -1 -13 73388.8 398.623   8
   0   1 -13 72902.0 401.844   8
   0  -1 -14 47918.5 321.593   8
   0   1 -14 48832.7 327.293   8
   0   1 -15 5375.81 108.594   8
   0  -1 -15 5935.80 113.036   8
   0  -1 -16 1510.08 60.6636   8
   0   1 -16 1484.15 61.2890   8
   0  -1 -16 1494.36 60.6389   2
   0   1 -16 1476.01 61.1699   2
   0   1 -17 41864.1 334.283   8
   0   1 -17 41760.4 336.604   2
   0  -1 -17 41464.1 333.155   2
   0  -1 -17 41635.6 327.417   8
   0   1 -18 12453.1 185.308   2
   0  -1 -18 12621.5 185.423   2
   0   1 -19 95405.5 564.241   2
   0  -1 -19 93943.6 559.475   2
   0   1 -20 225748. 969.916   2
   0  -1 -20 226071. 969.082   2
   0   1 -21 72148.2 490.768   2
   0  -1 -21 73503.6 498.356   9
   0   1 -21 72664.9 502.401   9
   0  -1 -21 72195.8 486.028   2
   0  -1 -22 2069.37 77.4183   2
   0  -1 -22 2124.24 80.6538   9
   0   1 -22 2147.89 79.2422   2
   0  -1 -23 6107.60 128.481   2
   0   1 -23 6090.07 128.687   2
   0   1 -24 11451.3 172.175   2
   0  -1 -24 11655.2 173.043   2
   0  -1 -25 1829.94 68.0447   2
   0   1 -25 1831.63 68.4779   2
   0   1 -26 3057.60 81.4125   2
   0  -1 -26 2855.35 78.1569   2
   0  -1 -27 696.587 38.0575   2
   0   1 -27 647.010 36.8523   2
   0  -1 -28 1461.79 44.5186   2
   0   1 -28 1421.27 44.0446   2
   0   1  29 8.84486 11.6474   4
   0  -1 -29 13.0285 11.2389   2
   0   1 -29 16.6043 11.0975   2
   0  -2   0 373986. 993.820   7
   0  -2  -1 24012.6 118.325   7
   0  -2   1 23990.6 121.452   7
   0  -2  -2 192045. 559.699   7
   0  -2   2 193540. 559.602   7
   0  -2  -3 254513. 709.652   7
   0   2  -3 253167. 658.007   9
   0  -2  -3 253298. 649.490   9
   0   2  -5 302.875 13.9089   8
   0  -2  -5 267.441 12.8068   8
   0   2  -6 311384. 869.974   8
   0  -2  -6 310005. 865.482   8
   0   2  -7 324904. 933.308   8
   0  -2  -7 330057. 927.546   8
   0   2  -8 211682. 675.235   8
   0  -2  -8 215882. 669.747   8
   0  -2  -9 290109. 873.340   8
   0   2  -9 282040. 879.209   8
   0   2 -10 10600.8 117.014   8
   0  -2 -10 11518.0 118.823   8
   0  -2 -11 81627.3 380.927   8
   0   2 -11 80671.2 384.640   8
   0  -2 -12 24265.4 196.729   8
   0   2 -12 24110.9 200.915   8
   0  -2 -13 33647.7 244.783   8
   0   2 -13 33580.4 249.474   8
   0  -2 -14 4129.89 86.4545   8
   0   2 -14 4091.98 88.1876   8
   0   2  14 3844.93 92.4583  18
   0   2  15 1327.27 56.4802  18
   0   2 -16 14691.6 184.139   2
   0  -2 -16 14461.3 182.698   2
   0  -2 -17 1881.09 68.9379   2
   0   2 -17 1831.47 68.5556   2
   0   2 -18 1817.09 69.3649   2
   0  -2 -18 1742.85 66.8361   2
   0  -2 -19 2936.03 89.2284   9
   0   2 -19 2827.42 89.1949   9
   0  -2 -19 2762.83 83.6118   2
   0   2 -19 2713.35 84.0514   2
   0  -2 -20 14722.6 190.076   2
   0   2 -20 15365.0 205.819   9
   0   2 -20 14745.3 192.368   2
   0  -2 -20 15265.4 198.752   9
   0   2 -21 1381.40 62.1766   2
   0  -2 -21 1368.67 61.8423   2
   0  -2 -22 40618.1 325.639   2
   0   2 -22 40042.7 326.795   2
   0   2 -23 12108.6 169.453   2
   0  -2 -23 11948.0 167.929   2
   0  -2 -24 1623.82 60.3935   2
   0   2 -24 1676.30 61.5949   2
   0  -2 -25 11463.7 145.355   2
   0   2 -25 11686.6 146.543   2
   0   2  26 6839.51 114.958   4
   0  -2 -26 7181.60 102.573   2
   0  -2 -27 653.322 29.4851   2
   0   2  27 572.426 34.2516   4
   0  -2 -28 103.856 11.5129  10
   0   2  28 105.343 16.4698   4
   0   2  29 11.0907 9.72595   4
   0  -3   0 17.7525 11.6338   7
   0  -3   1 327604. 912.432   7
   0  -3  -1 328947. 917.861   7
   0  -3  -2 53845.8 236.102   7
   0  -3   2 54379.8 233.759   7
   0  -3   3 91017.4 333.744   7
   0  -3  -3 91925.4 343.320   7
   0  -3   4 35844.5 183.426   7
   0  -3   5 79380.1 316.372   7
   0  -3   6 1016.60 31.7094   7
   0   3  -7 20679.3 116.353   9
   0   3  -8 7666.98 75.7749   9
   0   3  -9 24669.0 156.971   9
   0   3 -10 42874.4 230.252   9
   0   3 -11 968.621 34.7449   9
   0   3 -12 3451.48 103.788   5
   0   3 -12 3336.30 67.2233   9
   0   3 -13 47436.3 286.919   9
   0   3 -13 46356.6 394.637   5
   0   3  14 60715.1 427.286  18
   0   3 -14 61942.4 353.140   9
   0   3 -14 60607.0 469.175   5
   0   3 -15 2107.73 63.0663   9
   0   3  15 2031.22 77.5719  18
   0   3  16 20067.2 243.554  18
   0   3  17 12255.3 189.166  18
   0   3  18 18532.8 231.988  18
   0   3  19 15869.7 211.374  18
   0   3  20 664.058 46.0005  18
   0   3  21 3012.86 81.2208  18
   0   3  22 4606.73 108.013   4
   0   3 -22 4921.58 108.442  16
   0   3 -23 147.156 25.8012  16
   0   3  23 154.774 27.6686   4
   0   3  23 137.908 23.2810  18
   0   3 -24 867.511 42.2387  16
   0   3  24 913.321 46.9454   4
   0   3  25 1028.19 44.4507   4
   0   3  26 2918.52 66.9545   4
   0   3  27 439.025 25.7408   4
   0   3  28 587.765 25.2055   4
   0   4   0 4144.42 94.6200  16
   0   4  -1 176084. 728.451  16
   0   4  -2 477.179 36.7407  16
   0   4  -3 2435.81 71.3776  16
   0   4  -4 24116.3 225.450  16
   0   4  -5 49.7880 30.1010  11
   0   4  -5 77.2631 22.4439  16
   0   4  -6 40296.7 339.275  11
   0   4  -6 42731.6 316.131  16
   0   4   7 29309.2 249.244   4
   0   4  -7 30469.2 300.205  11
   0   4  -7 29798.9 289.221   5
   0   4  -7 30058.3 263.921  16
   0   4  -8 3730.86 105.791   5
   0   4  -8 3660.46 106.422  11
   0   4  -9 482.937 47.4908   5
   0   4   9 460.523 35.1752   4
   0   4  10 7319.42 127.844   4
   0   4 -10 7297.59 150.332   5
   0   4 -11 24195.4 283.099   5
   0   4  11 23714.8 235.146   4
   0   4  12 26326.7 250.051   4
   0   4 -12 27565.8 314.282   5
   0   4  13 111436. 627.709  18
   0   4 -13 111085. 677.396   5
   0   4  14 49908.5 405.132  18
   0   4 -14 49289.4 370.014  16
   0   4  15 224.100 33.6674   4
   0   4 -15 212.579 35.9423  16
   0   4  15 253.606 45.1723  18
   0   4  16 3483.53 109.225  18
   0   4 -16 3396.37 96.0000  16
   0   4  16 3142.63 91.2571   4
   0   4  17 7813.44 140.204   4
   0   4  17 8256.05 160.931  18
   0   4 -17 7885.14 144.338  16
   0   4  18 5657.30 129.802  18
   0   4 -18 5658.20 121.593  16
   0   4  18 5432.70 115.811   4
   0   4  19 21563.0 232.916   4
   0   4 -19 21964.2 234.600  16
   0   4 -20 1740.20 66.7687  16
   0   4  20 1643.48 65.3324   4
   0   4 -21 129.033 26.1029  16
   0   4  21 46.3547 22.9988   4
   0   4  21 81.7211 23.0941  18
   0   4  22 1031.64 48.0821   4
   0   4  22 995.160 46.5741  18
   0   4 -22 1103.72 49.7249  16
   0   4 -23 425.493 30.9320  16
   0   4  23 358.330 27.7519  18
   0   4  23 393.397 31.0009   4
   0   4  24 1879.97 55.6739   4
   0   4  24 1551.38 43.2326  18
   0   4  25 232.100 22.4522   4
   0   4  26 105.436 14.8095   4
   0   5   0-28.5799 30.9360   5
   0   5  -1 11201.2 166.790   5
   0   5   2 2732.29 81.7487  18
   0   5  -2 2668.67 96.8095  11
   0   5  -2 2657.00 86.8811   5
   0   5  -2 2691.08 91.3292  16
   0   5   3 25992.8 256.126  18
   0   5  -3 26074.9 272.128   5
   0   5  -3 25819.3 289.779  11
   0   5  -4 2712.02 102.496  11
   0   5  -4 2705.90 94.2987  16
   0   5  -4 3008.95 99.4083   5
   0   5   4 2764.66 87.5968  18
   0   5   5 18059.6 219.558   4
   0   5   5 18244.2 223.722  18
   0   5  -5 17656.7 234.394   5
   0   5  -5 17289.5 243.978  11
   0   5  -5 18590.8 235.080  16
   0   5  -6 36430.2 345.339   5
   0   5   6 36988.5 322.086   4
   0   5  -6 37823.4 375.011  11
   0   5   6 36395.7 327.331  18
   0   5  -6 37953.4 344.109  16
   0   5   7 61908.0 443.346  18
   0   5  -7 62297.1 449.428  16
   0   5  -7 61283.8 465.775   5
   0   5   8 50511.1 385.618   4
   0   5   8 50175.1 399.220  18
   0   5  -8 49179.5 438.500  11
   0   5  -8 50096.1 397.164  16
   0   5  -9 22086.1 257.426  16
   0   5   9 22551.1 265.723  18
   0   5   9 22990.8 256.061   4
   0   5  10 6026.46 134.630   4
   0   5  10 5767.99 139.409  18
   0   5  11 1205.42 69.4811  18
   0   5  11 1150.50 65.9690   4
   0   5 -11 1073.94 74.0473   5
   0   5  12 28896.5 296.263   4
   0   5  12 27596.9 302.517  18
   0   5  13 56418.6 422.026   4
   0   5 -13 51802.0 445.746   5
   0   5  14 1706.70 74.7648   4
   0   5  15 61.2735 29.3798   4
   0   5  15 59.2930 35.9524  18
   0   5 -15 108.235 33.7015  16
   0   5  16 22922.3 254.638  18
   0   5 -16 24044.7 254.372  16
   0   5 -17 2341.00 77.8566  16
   0   5  17 2536.95 82.7611   4
   0   5 -18 428.692 37.5769  16
   0   5  18 379.838 35.2495  18
   0   5  18 487.482 40.9199   4
   0   5 -19 4720.13 99.4338  16
   0   5  19 4276.94 92.3574  18
   0   5 -20 15.8862 19.4598  16
   0   5  20 17.4513 20.2240   4
   0   5  20 40.8213 19.9693  18
   0   5  21 1204.15 46.1002   4
   0   5 -21 1133.33 44.5059  16
   0   5  21 1070.48 42.8492  18
   0   5  22 23.0612 14.9906   4
   0   5  22 13.3069 13.7123  18
   0   6   0 261.821 50.7246  11
   0   6   1 5922.57 145.428  11
   0   6  -1 6317.66 155.334  11
   0   6   2 103.902 44.1802  11
   0   6  -2 52.2500 48.0716  11
   0   6  -3 31265.3 343.370  11
   0   6  -4 5569.89 150.536  11
   0   6  -5 19822.6 275.290  11
   0   6   6 3358.16 93.9270  18
   0   6  -6 3279.31 102.843   5
   0   6   7 35810.1 308.340  18
   0   6  -7 35060.8 326.289   5
   0   6   8 5345.06 119.617  18
   0   6  -8 5133.25 126.001   5
   0   6  -9 5151.12 124.128   5
   0   6   9 5361.37 118.350  18
   0   6  -9 5337.80 129.883  16
   0   6  10 1295.44 62.2977  18
   0   6 -10 1323.18 68.7490   5
   0   6 -10 1402.39 68.5270  16
   0   6  11 442.436 39.5726  18
   0   6  12 29.7031 23.2258  18
   0   6  13 1123.46 51.0707  18
   0   6  14 206.660 27.6662  18
   0   6  15 1521.14 54.7312  18
   0   6 -16 226.961 28.4370  16
   0   6  16 236.259 27.3308  18
   0   6  19 0.44115 11.9860  18
   0   7   0-39.0911 38.0994  11
   0   7  -1 753.233 57.6174  11
   0   7   1 787.111 57.9429  11
   0   7   2 31.5992 34.8363  11
   0   7  -2 28.9789 35.3413  11
   0   7   3 10213.6 161.924  11
   0   7   4 398.753 46.3865  11
   0   7   5 6108.02 122.321  11
   0   7   6 351.475 40.4228  11
   0   7   7 841.576 49.4222  11
   0   7   8 1916.06 64.9950  11
   0   7   9 1577.52 57.4292  11
   0   7  10 109.444 26.0615  11
   0   7  11 149.968 25.0126  11
   0   7  12 2527.53 59.3394  11
   0   7  13 525.773 28.3187  11
   1   0 -29-1.79484 11.3933   2
   1   0 -28 3546.40 70.3092   2
   1   0 -27 10.6729 16.0841   2
   1   0 -26 77.7921 22.2683   2
   1   0 -25 5.68034 22.0695   2
   1   0 -24 3752.89 103.289   2
   1   0 -23 94.8059 36.0506   2
   1   0 -22 211633. 932.296   2
   1   0 -21 249.479 48.7005   2
   1   0 -21 179.257 38.8968   8
   1   0 -20 168238. 814.758   8
   1   0 -20 167004. 812.105   2
   1   0 -19 64.8156 28.3577   8
   1   0 -19 23.0162 33.5262   2
   1   0 -18 56346.0 422.953   8
   1   0 -18 61195.3 473.981   2
   1   0 -17 33.1080 25.3573   8
   1   0 -17 17.6111 39.8802   2
   1   0 -16-19.3026 65.7882   1
   1   0 -16 57.8146 53.6003   2
   1   0 -15-42.7156 74.8755   1
   1   0 -15-53.3227 66.9826   2
   1   0 -14 3867.72 139.743   1
   1   0 -12 86774.6 522.598   1
   1   0 -11 8.99408 70.6496   1
   1   0 -10 117680. 533.758   1
   1   0  -9 130.473 48.5512   1
   1   0  -8 88962.6 377.641   1
   1   0  -7 139.490 38.7680   1
   1   0  -6 573788. 1525.64   1
   1   0  -5 371.688 31.8059   1
   1   0  -4 478161. 1267.91   1
   1   0  -3 132.663 29.0746   1
  -1   0   1 102.747 12.3361   6
  -1   0  -1 39.4309 10.2774   6
  -1   0  -1 95.6098 11.4019   7
  -1   0  -2 95826.9 317.060   7
  -1   0  -3 115.129 11.6281   9
  -1   0  -3 60.0145 10.0404   7
  -1   0  -4 159443. 472.120   7
  -1   0  -4 159881. 510.720   9
  -1   0  -5 15.1882 8.01768   9
  -1   0  -5 156.062 11.4219   7
  -1   0  -6 298940. 878.680   9
  -1   0  -7 12.6246 9.52881   9
  -1   0  -8 28004.5 189.434   9
  -1   0  -9 49.4632 14.8156   9
  -1   0 -10 703129. 1972.46   9
  -1   0 -11 100.017 22.5770   9
  -1   0 -12 247546. 890.824   9
  -1   0 -13 55.4219 18.7550   9
  -1   0 -14 122648. 593.576   9
  -1   0 -14 122375. 548.065  13
  -1   0 -15 13.9071 18.3248   2
  -1   0 -15 18.8606 17.0083   9
  -1   0 -16 29575.3 284.083   9
  -1   0 -16 28700.8 276.273   2
  -1   0 -17 379.000 36.6221   2
  -1   0 -17 211.208 29.6751   9
  -1   0 -18 16221.7 217.187   9
  -1   0 -18 15898.3 213.928   2
  -1   0 -19-4.98843 23.1521   2
  -1   0 -19 23.3482 19.1152   9
  -1   0 -20 27863.2 294.839   2
  -1   0 -20 27415.9 292.861   9
  -1   0 -21 8.96660 19.3551   9
  -1   0 -21 3.73754 23.5265   2
  -1   0 -22 39761.2 346.646   2
  -1   0 -23 41.4442 25.1218   2
  -1   0 -24 7285.88 135.721   2
  -1   0 -25 9.87085 19.9445   2
  -1   0 -26 7689.10 121.720   2
  -1   0 -27 14.0675 15.9876  10
  -1   0 -28 43.6683 14.5503  10
  -1   0 -29 14.6835 9.93146  10
   1  -1 -29 101.260 12.8819   2
   1   1 -29 106.000 13.5195   2
   1  -1 -28 1444.41 43.2407   2
   1   1 -28 1455.05 43.3861   2
   1  -1 -27 2504.72 62.1432   2
   1   1 -27 2474.84 62.0306   2
   1   1 -26 1599.13 55.1574   2
   1  -1 -26 1553.51 53.9027   2
   1   1 -25 1133.60 53.3414   2
   1  -1 -25 1001.76 50.9598   2
   1   1 -24 2887.65 87.3198   2
   1  -1 -24 2900.79 86.5265   2
   1  -1 -23 1229.57 62.3901   2
   1   1 -23 1398.53 66.6657   2
   1  -1 -22 35162.1 321.737   2
   1   1 -22 35753.8 326.045   2
   1   1 -21 52857.8 408.382   8
   1   1 -21 53984.8 414.818   2
   1  -1 -21 53558.5 409.131   2
   1  -1 -21 53547.4 404.435   8
   1  -1 -20 3129.77 100.001   2
   1   1 -20 3000.77 100.339   2
   1  -1 -20 3237.41 101.123   8
   1   1 -20 3187.27 102.236   8
   1   1 -19 6564.16 145.813   2
   1  -1 -19 6663.14 138.628   8
   1   1 -19 6677.20 140.593   8
   1  -1 -19 6426.55 143.501   2
   1  -1 -18 2955.12 92.1242   8
   1   1 -18 2890.78 92.6220   8
   1  -1 -18 3060.47 101.680   2
   1   1 -18 3065.52 105.227   2
   1   1 -17 2189.00 94.5231   2
   1  -1 -17 1950.57 83.5259   2
   1   1 -17 1741.40 71.4502   8
  -1   1  17 1990.02 68.6698  18
   1  -1 -17 1927.83 73.8820   8
   1  -1 -16 77728.0 563.093   2
   1  -1 -16 78972.1 502.432   1
  -1   1  15 158.462 26.6581  18
   1   1 -15 124.224 60.2976   2
   1   1 -15 75.8708 65.9797   1
   1  -1 -15 105.781 63.7925   1
   1  -1 -15 110.020 59.3371   2
  -1   1  14 3512.33 84.7504  18
   1  -1 -14 3369.07 126.884   1
   1   1 -14 3197.32 126.188   1
   1   1 -13 16851.2 264.763   1
   1  -1 -13 18703.7 267.662   1
   1   1 -12 2287.55 117.787   1
   1  -1 -12 2367.56 116.557   1
   1  -1 -11 24805.7 261.570   1
   1   1 -11 24462.4 252.795   1
   1   1 -10 245198. 898.809   1
   1  -1 -10 244519. 908.766   1
   1   1  -9 330076. 1062.39   1
   1  -1  -9 316319. 1047.33   1
   1   1  -8 337.808 47.8443   1
   1  -1  -8 269.145 45.9884   1
   1   1  -7 1984.87 59.5590   1
   1  -1  -7 1528.02 54.9834   1
   1   1  -6 214807. 670.152   1
   1  -1  -6 217932. 673.687   1
   1  -1  -5 32505.9 169.678   1
   1   1  -5 33047.2 174.113   1
   1   1  -4 41592.0 189.848   1
   1  -1  -4 42082.6 189.100   1
   1   1  -3 8740.87 77.2388   1
   1  -1  -3 8922.56 77.0043   1
   1  -1  -2 999999. 2519.35   1
   1   1  -2 999647. 2525.66   1
  -1   1  -1 110861. 302.972   7
  -1   1  -1 111649. 371.448   6
  -1   1  -2 534806. 1314.19   7
  -1   1  -4 31605.7 167.405   9
  -1  -1  -4 32563.7 168.577   9
  -1  -1  -5 82279.6 323.755   9
  -1   1  -5 79874.8 323.063   9
  -1   1  -6 105858. 394.928   9
  -1  -1  -6 106526. 391.053   9
  -1  -1  -6 106685. 378.004   7
  -1  -1  -7 60156.8 260.579   7
  -1   1  -7 60353.5 282.317   9
  -1  -1  -8 45265.5 246.684   9
  -1   1  -8 44466.1 246.853   9
  -1  -1  -9 28278.4 198.260   9
  -1   1  -9 27797.7 200.190   9
  -1  -1 -10 272373. 895.271   9
  -1   1 -10 269987. 900.995   9
  -1  -1 -11 46864.3 296.436   9
  -1   1 -11 46290.5 294.361   9
  -1   1 -12 2557.69 68.8953   9
  -1  -1 -12 2343.10 66.0819   9
  -1   1 -13 74733.2 423.802   9
  -1  -1 -13 74836.4 421.775   9
  -1   1 -13 74716.0 395.876  13
  -1  -1 -14 56885.6 372.489   9
  -1   1 -14 56785.8 375.666   9
  -1  -1 -15 11097.7 161.209   2
  -1  -1 -15 11081.5 161.245   9
  -1   1 -15 11286.6 166.270   9
  -1   1 -15 11036.5 160.384   2
  -1  -1 -16 38445.4 318.893   9
  -1   1 -16 38022.1 319.555   9
  -1  -1 -16 37438.0 315.938   2
  -1   1 -16 37920.4 316.386   2
  -1   1 -17 5779.88 125.764   9
  -1  -1 -17 5682.71 122.084   9
  -1  -1 -17 5590.74 123.081   2
  -1   1 -17 5680.76 123.940   2
  -1   1 -18 10117.6 168.369   2
  -1  -1 -18 9820.03 164.951   9
  -1   1 -18 9843.55 166.744   9
  -1  -1 -18 9551.40 165.914   2
  -1   1 -19 61472.2 443.998   2
  -1   1 -19 61070.3 441.690   9
  -1  -1 -19 60582.5 439.611   2
  -1  -1 -20 276.091 33.9120   9
  -1   1 -20 264.826 38.1534   2
  -1   1 -20 230.581 32.4951   9
  -1  -1 -20 193.092 35.2202   2
  -1   1 -21 19285.2 236.441   2
  -1  -1 -21 18513.8 233.680   2
  -1  -1 -22 10759.1 167.534   2
  -1   1 -22 10780.9 168.069   2
   1   1  23 19.5834 21.1000   4
  -1   1 -23 62.5900 24.4462   2
   1   1  24 574.388 38.9812   4
  -1  -1 -24 643.176 42.9505   2
  -1   1 -24 639.098 42.6307   2
  -1  -1 -25 667.888 40.9906   2
   1   1  25 579.675 35.0678   4
  -1   1 -25 666.481 41.2835   2
  -1   1 -26 4725.79 88.6982  10
  -1  -1 -26 4780.10 86.9199  10
  -1   1 -27 776.119 35.2099  10
  -1  -1 -27 747.905 34.3416  10
  -1   1 -28 203.712 18.9745  10
  -1  -1 -28 200.617 17.8295  10
  -1   1 -29 367.314 17.5908  10
   1   2 -28 1301.11 37.7676  16
  -1   2  27 653.317 33.0481   4
   1  -2 -27 852.035 30.9881   2
   1  -2 -26 4355.91 76.8752   2
   1   2 -25 2013.39 58.3760   2
   1  -2 -25 1988.27 57.1916   2
   1   2 -24 5993.82 108.156   2
   1  -2 -24 5924.38 106.687   2
   1   2 -23 3316.97 87.7437   2
   1  -2 -23 3329.90 87.0075   2
   1   2 -22 363.272 36.9070   2
   1  -2 -22 411.867 37.3823   2
   1  -2 -21 1259.56 60.8309   2
  -1   2  21 1081.87 55.7910  18
   1   2 -21 1150.66 59.3440   2
  -1   2  20 101.963 28.2449  18
   1   2 -20 91.2381 27.5806   2
   1  -2 -20 87.4298 26.5425   2
   1   2 -20 198.149 29.5473   8
   1  -2 -20 172.809 26.7948   8
   1   2 -19 221.181 34.1338   2
   1  -2 -19 199.375 32.9178   2
  -1   2  19 275.859 35.1734  18
   1   2 -19 245.888 31.0790   8
   1  -2 -19 267.598 30.6938   8
   1   2 -18 9421.20 162.798   8
   1  -2 -18 9388.46 158.736   8
   1   2 -18 8573.58 152.062   2
   1  -2 -18 9266.04 154.957   2
  -1   2  18 8153.12 151.888  18
   1  -2 -17 14017.2 191.581   2
   1   2 -17 14232.7 199.000   2
  -1   2  17 13899.9 197.202  18
   1   2 -17 13716.7 188.804   8
   1  -2 -16 16192.1 199.553   8
   1   2 -16 16680.8 223.767   2
   1  -2 -16 16458.4 214.837   2
   1   2 -16 16059.1 203.251   8
   1  -2 -15 3461.53 88.4894   8
  -1   2  15 2486.01 82.1675  18
   1   2 -15 3210.05 88.7035   8
   1  -2 -15 3841.12 102.983   2
   1   2 -15 2661.71 95.6499   2
  -1   2  14 114.881 28.9656  18
   1  -2 -14 171.163 40.2982   2
   1   2 -14-26.0297 61.0800   1
   1   2 -14 7.37535 41.4993   2
   1   2 -13 139563. 681.883   1
   1  -2 -13 143756. 682.654   1
  -1   2  12 99782.8 501.963  18
   1  -2 -12 98590.0 569.065   1
   1   2 -12 99792.3 585.839   1
   1  -2 -11 84644.8 518.461   1
   1   2 -11 87693.9 526.789   1
   1   2 -10 136046. 655.675   1
   1  -2 -10 133109. 655.131   1
   1  -2  -9 31256.2 267.804   1
   1   2  -9 32452.9 266.911   1
   1   2  -8 2603.40 85.3611   1
   1  -2  -8 2430.64 81.4409   1
   1   2  -7 32347.9 217.430   1
   1  -2  -7 28808.5 222.590   1
   1  -2  -6 5146.41 84.9303   1
   1   2  -6 6103.17 86.6983   1
   1  -2  -5 25266.6 166.841   1
   1   2  -5 27134.8 163.365   1
   1   2  -4 113186. 380.860   1
   1  -2  -4 109705. 391.892   1
  -1   2   3 171245. 535.324   6
   1   2  -3 171505. 516.642   1
   1  -2  -3 169514. 520.295   1
  -1  -2   3 169460. 541.590   6
   1   2  -2 1730.45 37.8308   1
   1  -2  -2 1814.26 37.2847   1
  -1  -2   2 1712.50 35.2036   6
  -1  -2   1 167.188 13.8465   6
   1  -2  -1 448.869 26.0088   1
   1   2  -1 90.8000 21.2717   1
  -1   2   1 670.312 22.2200   6
   1   2   0 463705. 1227.60   1
  -1  -2   0 461781. 1315.51   7
   1  -2   0 463772. 1219.77   1
  -1  -2  -1 317102. 954.201   7
   1  -2   1 315254. 876.100   1
  -1  -2  -2 724.222 30.1100   7
  -1  -2  -3 22640.8 162.117   7
  -1  -2  -4 55713.8 265.763   7
  -1  -2  -5 57409.4 274.947   7
  -1   2  -5 56654.6 255.217   9
  -1  -2  -6 59525.0 264.850   9
  -1  -2  -6 59524.7 282.088   7
  -1   2  -7 25631.2 171.051   9
  -1  -2  -7 26232.1 168.996   9
  -1  -2  -7 25815.2 175.668   7
  -1  -2  -8 525.938 25.6783   9
  -1   2  -8 531.248 25.4252   9
  -1  -2  -8 482.313 26.5367   7
  -1  -2  -9 6790.88 89.4883   9
  -1   2  -9 6532.32 89.3484   9
  -1   2 -10 4511.63 78.7191   9
  -1  -2 -10 4548.12 77.7517   9
  -1  -2 -11 9802.91 120.321   9
  -1   2 -11 9757.17 121.643   9
  -1   2 -12 17377.8 173.548   9
   1   2  12 17274.3 205.352  19
  -1  -2 -12 16867.6 167.805   9
   1   2  13 6829.14 121.562   4
  -1  -2 -13 6702.69 108.767   9
  -1   2 -13 6640.89 142.912   5
   1   2  13 6802.54 133.150  19
   1   2  14 68608.0 422.584   4
  -1  -2 -14 68489.3 398.171   2
  -1   2 -14 68564.6 393.948   2
  -1  -2 -14 67975.9 389.664   9
  -1   2 -14 67638.1 399.891   9
  -1   2 -14 67259.3 485.402   5
   1   2  14 67061.5 438.349  19
  -1   2 -15 6.60328 36.9124   5
  -1  -2 -15 92.0714 22.3621   2
  -1  -2 -15 20.8838 14.9926   9
  -1   2 -15 44.6336 18.8200   2
   1   2  15 133.420 27.6469   4
  -1   2 -16 15363.4 186.455   2
  -1   2 -16 15438.6 188.809   9
  -1  -2 -16 15290.5 184.079   9
   1   2  16 15653.4 201.598   4
  -1  -2 -16 14924.3 188.532   2
  -1  -2 -17 164.452 24.5655   9
  -1  -2 -17 181.779 27.7611   2
  -1   2 -17 156.966 24.3733   9
   1   2  17 162.782 30.7785   4
  -1   2 -17 182.698 27.6070   2
  -1   2 -18 3136.53 87.6827   2
  -1  -2 -18 3007.04 86.3872   2
  -1  -2 -18 3058.97 87.0032   9
  -1   2 -18 3135.52 90.1248   9
   1   2  18 3300.52 97.3436   4
  -1  -2 -19 124984. 610.054   2
  -1  -2 -19 124788. 617.991   9
  -1   2 -19 125914. 633.193   9
   1   2  19 126915. 658.364   4
  -1   2 -19 124609. 589.018  16
  -1   2 -19 126343. 613.251   2
  -1   2 -20 157062. 712.251   2
  -1  -2 -20 156459. 714.308   2
   1   2  21 409.577 43.3842   4
  -1  -2 -21 466.214 40.1282   2
  -1   2 -21 478.670 40.2393   2
  -1  -2 -22 407.513 35.2203   2
   1   2  22 377.482 37.8712   4
   1   2  23 541.127 38.8785   4
  -1  -2 -23 582.312 38.5554   2
   1   2  24 161.167 25.3405   4
  -1   2 -24 194.137 24.3380  10
  -1  -2 -24 190.591 22.8946  10
  -1   2 -25 628.889 33.6678  10
   1   2  25 554.849 34.8677   4
  -1  -2 -25 671.253 33.2461  10
  -1  -2 -26 1447.66 41.7905  10
   1   2  26 1286.00 46.3265   4
  -1  -2 -27 709.570 24.6537  10
   1   2  27 689.674 31.1974   4
   1   3 -27 102.687 14.4038  16
  -1   3  27 86.8048 12.6528   4
  -1   3  26 1245.42 38.6406   4
  -1   3  25 13.3118 15.9187   4
  -1   3  24 72.4139 20.7339   4
   1   3 -24 83.6635 24.5672  16
  -1   3  23 16453.8 180.046   4
  -1   3  22 3551.02 91.5982  18
  -1   3  21 2806.96 86.4640  18
  -1   3  20 8380.53 152.152  18
  -1   3  19 14444.9 208.704  18
  -1   3  18 636.498 51.4859  18
  -1   3  17 7895.99 156.702  18
  -1   3  16 3106.22 100.042  18
  -1   3  15 8897.12 163.135  18
  -1   3  14 424.745 41.0891  18
   1   3 -14 56.0817 18.8300   8
   1   3 -13 1324.58 50.5271   8
  -1   3  13 1465.50 65.7722  18
   1   3 -12 12370.0 149.049   8
  -1   3  12 14346.1 192.448  18
   1   3 -11 1728.92 54.4385   8
  -1   3  11 2562.03 83.5543  18
   1   3 -10 1902.74 54.3785   8
   1   3  -9 52736.2 308.963   1
  -1   3   8 4411.35 103.302  18
   1   3  -8 3320.49 87.1202   1
   1   3  -7 16782.5 173.547   1
   1   3  -6 60763.6 328.799   1
  -1   3   6 60090.7 265.382   6
  -1   3   5 5746.55 65.1457   6
   1   3  -5 5861.89 93.6515   1
   1   3  -4 101038. 396.646   1
  -1  -3   4 100675. 460.468   7
  -1  -3   3 8010.76 113.167   7
  -1  -3   2 29936.3 214.643   7
  -1  -3   1 498.018 33.2073   7
  -1  -3   0 121507. 494.739   7
  -1  -3  -1 186500. 674.981   7
  -1  -3  -2 9555.33 113.272   7
  -1  -3  -3 46299.9 260.986   7
   1   3   3 44224.3 191.360   1
  -1  -3  -4 110929. 459.932   7
  -1  -3  -5 4583.53 80.4052   7
  -1  -3  -6 4150.23 76.0277   7
  -1  -3  -7 179850. 657.362   7
   1   3   8 206653. 878.983  19
   1   3   9 223.563 46.7728  19
  -1   3  -9 238.522 27.5854  16
   1   3   9 235.878 30.1628   4
  -1   3 -10 22438.0 175.695   9
   1   3  10 22217.0 225.702   4
  -1   3 -10 21877.3 207.256  16
  -1   3 -11 29326.8 210.726   9
   1   3  11 29140.2 264.157   4
  -1   3 -11 29399.8 243.882  16
  -1   3 -12 70040.3 362.828   9
  -1   3 -12 69896.1 404.024  16
   1   3  13 113832. 626.316  19
  -1   3 -13 113180. 500.870   9
  -1   3 -14 1789.19 56.5337   9
   1   3  14 1795.09 70.3814   4
  -1   3 -14 1716.91 62.4860  16
  -1   3 -15 15122.3 182.056  16
   1   3  15 14720.9 198.650   4
   1   3  16 4521.10 111.876   4
  -1   3 -16 4572.88 100.580  16
  -1   3 -17 6028.37 116.737  16
   1   3  17 5914.09 127.173   4
  -1   3 -18 4966.57 94.1972  10
   1   3  18 4985.38 122.163   4
  -1   3 -18 5108.65 106.613  16
   1   3  19 111.875 30.3467  18
  -1   3 -19 118.898 21.8891  10
   1   3  19 87.1308 29.9486   4
   1   3  20 1732.77 72.6095   4
   1   3  20 1599.49 64.7573  18
   1   3  21 1650.41 61.2426  18
   1   3  21 1903.47 71.4867   4
   1   3  22 1151.13 55.0454   4
   1   3  23 1211.62 54.3252   4
   1   3  24 203.655 27.6022   4
   1   3  25 5835.87 100.405   4
   1   3  26 1936.94 52.0090   4
   1   4 -24 178.910 20.6333  16
   1   4 -23 4135.78 81.5111  16
   1   4 -22 662.017 38.9629  16
  -1   4  22 527.687 27.7535  15
  -1   4  21 1773.99 65.6662  18
   1   4 -21 1822.71 62.7489  16
   1   4 -20 115.764 27.6967  16
  -1   4  20 108.605 22.1074   4
  -1   4  20 119.259 31.0074  18
   1   4 -19 7462.70 132.825  16
  -1   4  19 7032.22 116.655   4
  -1   4  19 7185.02 141.338  18
   1   4 -18 352.245 38.6444  16
  -1   4  18 417.933 34.9746   4
  -1   4  18 345.651 43.3132  18
   1   4 -17 5685.41 121.877  16
  -1   4  17 5720.73 136.137  18
  -1   4  17 5692.36 110.183   4
   1   4 -16 29408.1 281.934  16
  -1   4  16 28871.2 254.382   4
  -1   4  15 1430.06 57.9204   4
   1   4 -15 1367.78 64.1272  16
  -1   4  14 6798.01 119.319   4
   1   4 -14 6761.87 132.538  16
   1   4 -13 81.5537 26.8209  16
  -1   4  13 165.636 24.9293   4
  -1   4  12 5051.27 99.5492   4
   1   4 -12 4890.41 111.018  16
   1   4 -11 25916.9 253.446  16
  -1   4  11 25670.7 274.522  18
   1   4 -10 9020.08 145.044  16
  -1   4  10 8987.32 161.121  18
  -1   4   9 34429.4 314.697  18
   1   4  -9 33691.7 282.497  16
  -1  -4   9 33582.5 274.903   7
   1   4  -8 66914.8 410.252  16
  -1  -4   8 66461.8 393.049   7
  -1  -4   7 22053.8 208.553   7
   1   4  -7 22282.5 258.796  11
  -1   4   7 23981.3 248.894  18
   1   4  -7 23475.1 229.549  16
   1   4  -6 15960.8 214.764  11
   1   4  -6 16546.9 209.545   3
  -1   4   6 16848.1 203.962  18
  -1  -4   6 16234.8 178.067   7
   1   4  -6 16342.1 188.719  16
   1   4  -5 73041.7 451.131   3
  -1   4   5 72613.2 437.212  18
   1   4  -5 71409.2 417.261  16
   1   4  -5 69862.3 460.130  11
  -1  -4   5 74391.0 407.067   7
   1   4  -4 10121.6 162.612  11
  -1   4   4 9548.93 142.890  18
   1   4  -4 9903.38 157.132   3
   1   4  -4 9335.08 139.347  16
  -1  -4   4 9426.56 129.490   7
   1   4  -3 135758. 626.659   3
   1   4  -3 136140. 601.823  16
   1   4  -2 5718.09 115.716   3
  -1  -4   2 5551.76 98.9229   7
   1   4  -2 5485.94 106.237  16
  -1   4   1 36352.1 296.496   5
   1   4  -1 37367.5 295.281   3
   1   4  -1 38643.4 286.835  16
  -1  -4   1 38536.6 264.786   7
   1   4  -1 39568.0 335.857  19
  -1   4   0 3480.39 92.7629   5
  -1  -4   0 3551.53 75.1110   7
   1   4   0 3536.14 85.9709  16
  -1  -4  -1 820.688 38.7763   7
  -1   4  -1 739.169 48.0670   5
  -1  -4  -2 22154.6 194.356   7
  -1   4  -2 20505.5 232.577   5
   1   4   3 33985.5 311.385   4
  -1   4  -3 32059.6 297.327   5
  -1   4  -3 34261.3 296.846  11
  -1   4  -3 34085.7 292.707  16
  -1  -4  -3 32746.9 236.388   7
  -1   4  -4 4416.35 110.657   5
  -1   4  -4 5207.71 117.785  11
   1   4   4 4979.87 118.567   4
  -1   4  -4 5091.76 110.968  16
  -1  -4  -4 4837.56 87.8769   7
   1   4   4 5688.77 134.181  19
  -1   4  -5 406.951 41.1487   5
  -1  -4  -5 481.932 30.9543   7
   1   4   5 470.817 44.0548   4
  -1   4  -5 446.358 43.6447  11
  -1   4  -5 506.530 40.5383  16
   1   4   5 482.417 53.3588  19
  -1   4  -6 2219.18 83.3991  11
  -1  -4  -6 2067.06 60.9271   7
  -1   4  -6 2102.54 72.7891  16
   1   4   6 2119.24 80.6893   4
   1   4   6 2118.16 92.9741  19
  -1   4  -6 1897.68 79.6249   5
   1   4   7 356.851 41.0085   4
   1   4   7 451.424 57.0652  19
  -1   4  -7 291.949 41.5242  11
  -1   4  -7 335.866 35.5554  16
  -1   4  -7 319.136 44.1368   5
  -1   4  -8 2199.49 91.4919   5
  -1   4  -8 2046.68 72.6902  16
  -1   4  -8 2167.10 86.9785  11
   1   4   8 2166.38 93.5558  19
  -1   4  -9 2867.34 85.9168  16
  -1   4  -9 2890.26 105.183   5
   1   4  10 1159.11 74.4637  19
  -1   4 -10 1176.61 59.0613  16
  -1   4 -10 1266.94 76.1675   5
  -1   4 -11 74316.9 544.617   5
  -1   4 -11 72476.4 456.900  16
  -1   4 -12 43476.7 411.297   5
   1   4  12 42191.1 379.116   4
   1   4  13 63469.8 471.823   4
  -1   4 -13 64598.7 522.078   5
  -1   4 -13 64387.3 430.829  16
  -1   4 -14 15130.1 200.279  16
   1   4  14 15880.3 226.775   4
  -1   4 -14 15309.6 253.579   5
   1   4  15 13387.6 208.743   4
  -1   4 -15 12828.2 232.216   5
  -1   4 -15 13194.4 184.110  16
   1   4  16 34535.6 339.339   4
  -1   4 -16 34676.7 383.814   5
  -1   4 -17 1098.83 53.9248  16
   1   4  17 1201.10 64.9552   4
   1   4  17 1068.73 62.6876  18
   1   4  18 1374.51 64.0501  18
   1   4  18 1825.81 78.3985   4
   1   4  19 1392.36 62.2431  18
   1   4  19 1523.78 70.5347   4
   1   4  20 328.923 38.8390   4
   1   4  20 280.562 32.4173  18
   1   4  21 1572.33 55.6128  18
   1   4  21 2054.32 74.4794   4
   1   4  22 238.611 31.6896   4
   1   4  22 187.582 20.5227  18
   1   4  23 1577.91 55.3574   4
   1   4  24 67.0293 18.2283   4
   1   4  25 3695.35 60.8884   4
   1   5 -22 1631.55 43.8735  16
  -1   5  21 634.976 27.0041  15
   1   5 -21 684.395 33.7880  16
  -1   5  20 340.090 29.9532  18
  -1   5  20 320.040 24.0925  15
   1   5 -20 348.946 28.5326  16
   1   5 -19 1026.73 47.2686  16
  -1   5  19 945.542 47.7823  18
   1   5 -18 1670.27 62.2683  16
  -1   5  18 1637.13 64.4547  18
  -1   5  17 14718.3 191.028  18
   1   5 -17 15092.9 187.285  16
   1   5 -16 1137.92 58.3573  16
   1   5 -15 16429.2 207.239  16
  -1   5  14 45361.3 380.996  18
   1   5 -14 45022.8 355.847  16
  -1   5  13 18939.7 244.707  18
   1   5 -13 18543.7 228.244  16
  -1   5  12 8623.90 164.594  18
   1   5 -12 8551.41 155.416  16
  -1   5  11 130.094 35.1650  18
   1   5 -11 89.1881 31.0245  16
  -1   5  10 15254.7 217.354  18
   1   5 -10 15440.2 207.997  16
  -1   5   9 54256.4 419.718  18
   1   5  -9 53241.2 396.375  16
  -1   5   8 29977.6 304.226  18
   1   5  -8 29919.4 293.164  16
  -1   5   7 16737.9 221.481  18
   1   5  -7 16097.8 212.057  16
  -1   5   6 20668.4 238.543   5
   1   5  -6 20693.3 269.825  11
   1   5  -6 21076.6 244.245  16
  -1   5   6 20898.8 243.120  18
  -1   5   5 38501.9 336.232   5
   1   5  -5 38728.2 367.811  11
  -1   5   5 38722.2 331.804  18
   1   5  -5 38360.3 331.651  16
  -1   5   4 21666.8 238.141  18
  -1   5   4 21557.6 252.374   5
   1   5  -4 22110.5 274.100  11
   1   5  -4 21929.8 246.764  16
  -1   5   3 33392.6 316.865   5
   1   5  -3 34372.5 337.502  11
   1   5  -3 35198.3 324.731   3
  -1   5   3 33354.4 291.973  18
   1   5  -3 34633.9 314.092  16
  -1   5   2 2857.71 96.1213   5
   1   5  -2 3049.79 104.743  11
   1   5  -2 3151.00 102.284   3
   1   5  -2 2892.30 91.3389  16
  -1   5   1 74.3242 35.5714   5
   1   5  -1 11.5994 43.3797  11
   1   5  -1 84.9989 40.0096   3
  -1   5   0 874.535 64.6358   5
   1   5   0 871.662 60.8004  11
   1   5   0 893.437 60.7570   3
   1   5   1 28683.1 287.304  11
  -1   5  -1 28308.1 305.553  11
   1   5   1 29004.5 282.532   3
  -1   5  -2 1125.71 68.5862   5
  -1   5  -2 1323.28 72.7071  11
   1   5   2 1169.84 66.7864   3
  -1   5  -3 429.152 50.7107  11
  -1   5  -3 305.070 45.0029   5
  -1   5  -4 883.181 66.6780  11
  -1   5  -4 722.497 58.7548   5
  -1   5  -5 8855.05 179.842  11
  -1   5  -5 7905.15 170.151   5
  -1   5  -6 9581.97 191.716   5
  -1   5  -6 9645.87 188.417  11
  -1   5  -7 5398.92 143.331  11
   1   5   7 4978.93 135.036   4
  -1   5  -7 5174.67 144.833   5
  -1   5  -8 32.7149 43.1820   5
  -1   5  -8 116.353 34.7538  16
   1   5   8 16.0207 31.6734   4
   1   5   9 11102.2 197.113   4
  -1   5  -9 10684.9 183.258  16
  -1   5  -9 11324.6 212.540   5
  -1   5 -10 91.0473 45.9939   5
  -1   5 -10 82.2689 30.2706  16
  -1   5 -11 49.9942 43.1707   5
   1   5  11 31.0856 30.4144   4
  -1   5 -11 80.8077 30.0740  16
   1   5  12 2784.14 100.896   4
  -1   5 -12 2711.25 109.367   5
  -1   5 -12 2590.74 89.1570  16
   1   5  13 475.694 49.0886   4
  -1   5 -13 500.130 43.5409  16
  -1   5 -13 552.595 61.3487   5
   1   5  14 4062.69 116.000   4
   1   5  14 3776.68 106.707  18
  -1   5 -14 3788.41 100.675  16
  -1   5 -14 4059.39 128.179   5
   1   5  15 8372.04 149.767  18
  -1   5 -15 8236.75 142.729  16
   1   5  16 3709.67 97.2203  18
   1   5  17 832.974 50.5983  18
   1   5  18 5250.71 104.541  18
   1   5  19 1574.36 55.1785  18
   1   5  20 714.056 34.0577  18
   1   5  21 224.177 24.4214   4
   1   5  21 176.903 17.7712  18
  -1   6  18 7.29658 11.4635  15
   1   6 -17 2820.45 63.0613  16
  -1   6  17 2715.12 56.8302  15
  -1   6  16 508.673 28.4076   5
   1   6 -16 439.133 31.3033  16
  -1   6  16 439.897 29.1790  15
   1   6 -15 3127.98 76.0218  16
  -1   6  15 3105.93 75.0983  18
  -1   6  14 2519.25 65.0770   5
   1   6 -14 2337.26 70.1987  16
  -1   6  14 2445.92 70.6636  18
  -1   6  13 12021.6 158.000  18
   1   6 -13 11912.9 160.570  16
  -1   6  12 941.605 49.1762  18
   1   6 -12 926.788 51.5157  16
  -1   6  12 977.332 48.4496   5
  -1   6  11 3537.05 87.1018   5
   1   6 -11 3318.94 91.2139  16
  -1   6  11 3264.19 87.0206  18
  -1   6  10 546.468 42.1993   5
  -1   6  10 539.719 41.2468  18
   1   6 -10 531.303 44.5113  16
  -1   6   9 432.455 39.4094   5
   1   6  -9 403.538 40.0094  16
  -1   6   8 114.589 30.9667   5
  -1   6   7 631.756 49.4382   5
  -1   6   6 213.918 37.1919   5
  -1   6   5 5031.72 123.309   5
  -1   6   4 851.333 56.8158   5
   1   6  -3 364.837 50.5539  11
  -1   6   3 403.642 51.7711  11
  -1   6   3 391.917 44.7721   5
  -1   6   2 538.056 48.5283   5
   1   6  -2 483.621 53.9795  11
  -1   6   2 425.229 53.8307  11
   1   6  -1 314.295 48.6961  11
  -1   6   1 322.273 53.5205  11
   1   6  -1 336.146 48.9939   3
  -1   6   1 357.164 48.9762   5
   1   6   0 4894.21 119.329   3
   1   6   0 4683.52 124.897  11
  -1   6   0 4799.84 132.313  11
  -1   6   0 4405.00 123.286   5
   1   6   1 5152.67 128.410  11
  -1   6  -1 5411.66 141.307  11
   1   6   1 5420.02 126.426   3
  -1   6  -2 256.419 54.1140  11
   1   6   2 187.263 46.0611  11
  -1   6  -2 226.345 58.4860   5
   1   6   2 220.726 48.8017   3
  -1   6  -3 60750.5 483.232  11
   1   6   3 62066.3 421.297   3
  -1   6  -3 60423.5 472.990   5
   1   6   3 61323.6 442.898  11
  -1   6  -4 3286.76 114.766  11
   1   6   4 3205.12 100.947  11
   1   6   4 3360.04 99.7888   3
  -1   6  -4 3017.58 110.133   5
  -1   6  -5 6047.20 149.742  11
   1   6   5 5757.67 124.951   3
   1   6   5 5501.64 124.266  11
   1   6   5 5795.56 120.447  18
  -1   6  -5 5790.06 145.065   5
   1   6   6 12980.0 182.135  18
   1   6   6 12415.5 176.914   3
   1   6   6 12199.3 179.622  11
  -1   6  -6 13094.6 216.020   5
   1   6   7 50830.6 363.421   3
   1   6   7 51016.0 370.576  11
   1   6   7 50315.8 365.050  18
   1   6   8 3906.80 101.429   3
   1   6   8 3767.62 98.8576  18
  -1   6  -8 3859.60 118.162   5
   1   6   9 4905.48 108.056  18
   1   6   9 5183.06 111.671   3
  -1   6  -9 5232.91 133.213   5
  -1   6 -10 7.99817 38.5694   5
   1   6  10 86.8088 28.3677  18
   1   6  10 20.0360 33.1234   3
   1   6  11 829.945 49.3410  18
   1   6  11 855.079 51.0087   3
  -1   6 -11 781.278 59.8507   5
   1   6  12 532.749 40.8385  18
   1   6  12 543.937 42.9583   3
  -1   6 -12 517.700 51.1718   5
   1   6  13 35.6080 23.7886  18
  -1   6 -13 32.2551 35.0810   5
   1   6  14 5824.38 104.460  18
   1   6  14 6144.34 103.276   3
   1   6  15 1963.36 58.3063   3
   1   6  16 892.728 39.5349   3
   1   6  17 768.689 33.5829   3
   1   6  17 610.975 27.4021  18
   1   6  18 870.689 29.6222   3
  -1   7  12 742.126 31.0809  11
  -1   7  11 463.182 30.0343  11
  -1   7  10 707.515 38.0503  11
  -1   7   9 1313.04 49.5885  11
  -1   7   8 2549.02 69.3574  11
  -1   7   8 2130.80 53.1986   5
  -1   7   7 1302.02 55.1805  11
  -1   7   7 1189.22 44.2329   5
  -1   7   6 211.818 35.4309  11
  -1   7   6 144.508 25.9980   5
  -1   7   5 11976.5 144.274   5
  -1   7   5 13054.0 165.305  11
  -1   7   4 397.205 41.4772  11
  -1   7   4 343.017 34.3157   5
  -1   7   3 3093.01 88.3344  11
  -1   7   3 2804.11 75.6931   5
  -1   7   2 297.193 40.5962  11
  -1   7   2 294.642 35.2345   5
  -1   7   1 353.412 42.0297  11
  -1   7   1 353.124 36.7920   5
  -1   7   0 38.8621 29.2243   5
  -1   7   0 36.6385 32.0386  11
  -1   7  -1 766.862 53.2302  11
  -1   7  -1 772.180 48.4905   5
  -1   7  -2 1023.43 53.2091   5
   1   7   3 4468.13 92.6806  11
  -1   7  -3 4106.36 93.3375   5
   1   7   4 530.653 38.2921  11
  -1   7  -4 529.995 41.8790   5
   1   7   5 89.5269 25.6422  11
  -1   7  -5 172.462 32.7314   5
   1   7   6 4100.03 78.5910  11
  -1   7  -6 4106.16 89.9484   5
  -1   7  -7 7530.16 116.968   5
  -1   7  -8 29.6865 24.8535   5
   2   0 -28 2452.53 41.1468   2
  -2   0  27 5.05522 11.5897  17
   2   0 -27 22.1866 12.7473   2
   2   0 -26 313.905 25.5789   2
   2   0 -25 3.67443 19.2940   2
   2   0 -24 10783.7 149.553   2
   2   0 -23 194.460 36.1920   2
   2   0 -22 88893.2 530.518   2
   2   0 -21 78.8011 41.6894   2
   2   0 -20 5711.37 153.349   2
   2   0 -19-60.0732 70.6742   2
   2   0 -18 9557.97 209.734   1
   2   0 -18 11233.4 285.067   2
   2   0 -17 21.4578 91.8492   1
   2   0 -17-18.7375 89.6504   2
   2   0 -16 26502.9 463.660   2
   2   0 -16 23238.3 357.775   1
   2   0 -15 49.6567 97.2749   2
   2   0 -14 178.297 106.130   2
   2   0 -14 8.40217 86.7213   1
   2   0 -13 127.954 98.6188   2
   2   0 -13 105.703 75.2596   1
   2   0 -12 19294.2 228.285   1
  -2   0  11 88.1518 24.2967  15
   2   0 -11 440.037 67.4494   1
  -2   0  10 201608. 763.127  15
   2   0 -10 201910. 789.730   1
   2   0  -9 688.613 65.4408   1
   2   0  -8 130731. 529.565   1
   2   0  -7 231.040 46.8404   1
   2   0  -6 1030.62 52.5504   1
  -2   0   5 63.6674 23.3219   6
   2   0  -4 923.424 46.0868   1
  -2   0   4 1164.25 49.1249   6
   2   0  -3 96.2090 41.0682   1
  -2   0   3 25.8120 17.6015   6
  -2   0   2 41559.9 280.305   6
   2   0  -2 42585.8 256.603   1
   2   0  -1-2.14363 31.0618   1
  -2   0   1 42.0740 19.4300   7
  -2   0   1 16.1566 16.7048   6
  -2   0   0 55.3859 17.2013   7
  -2   0   0 154.293 22.3584   6
  -2   0  -1 381.535 28.5386   7
  -2   0  -2 181408. 606.617   7
  -2   0  -3 54.6574 16.6952   7
  -2   0  -4 32761.1 190.433   7
  -2   0  -5 111.001 15.3217   7
  -2   0  -6 3472.09 58.0880   7
  -2   0  -7 94.1091 21.4855  13
  -2   0  -8 48534.4 292.183  13
  -2   0  -8 48671.0 296.972  14
  -2   0  -9 131.029 31.3383  14
  -2   0  -9 236.554 31.5225  13
  -2   0 -10 284294. 1019.12  10
  -2   0 -10 283398. 982.192  14
  -2   0 -10 285000. 978.887  13
  -2   0 -11 70.3952 31.6367  13
  -2   0 -11 27.7772 24.6520  10
  -2   0 -11 52.9824 29.1872  14
  -2   0 -12 18357.5 209.027  10
  -2   0 -12 19044.8 197.614  13
  -2   0 -13 98.4510 32.2386  13
  -2   0 -13 217.152 29.8117  10
  -2   0 -14 10826.6 165.368  10
  -2   0 -14 10861.9 154.763  13
  -2   0 -15 47.4523 34.4100  13
  -2   0 -15 34.4957 21.8016   9
  -2   0 -15 19.8350 23.2192  10
  -2   0 -16 26407.1 264.345  13
  -2   0 -16 25358.9 265.995  10
  -2   0 -17 69.8449 26.4382  10
  -2   0 -18 66.5659 26.7112  10
  -2   0 -19 28.0280 25.9076  10
  -2   0 -20 46629.3 370.516  10
  -2   0 -21 40.6952 28.7625  10
  -2   0 -22 1461.71 62.3776  10
  -2   0 -23 27.0000 21.0552  10
  -2   0 -24 1386.31 52.1320  10
  -2   0 -25 12.5542 15.4105  10
  -2   0 -26 260.042 21.0512  10
  -2   0 -27-0.16780 9.19867  10
  -2  -1  27 816.528 28.5082  17
  -2   1  27 799.329 27.5294  17
   2  -1 -27 908.533 28.2354   2
   2   1 -27 897.720 28.4054   2
  -2   1  26 130.876 17.7606  17
   2  -1 -26 168.884 19.2913   2
   2   1 -26 184.388 19.6916   2
   2   1 -25 606.012 34.9601   2
   2  -1 -25 566.316 33.6500   2
   2  -1 -24 135.238 25.7403   2
   2   1 -24 122.743 25.1935   2
   2  -1 -23 17203.0 192.529   2
   2   1 -23 17469.9 196.110   2
   2  -1 -22 39996.7 324.248   2
   2   1 -22 40737.8 328.178   2
   2  -1 -21 9156.30 160.379   2
   2   1 -21 9361.27 168.648   2
   2  -1 -20 96.8306 37.6466   2
   2   1 -20 70.8352 37.1738   2
   2  -1 -19 925.442 75.5168   2
   2   1 -19 1018.56 85.8343   2
   2   1 -18 8204.51 230.828   2
   2   1 -18 6535.15 167.073   1
   2  -1 -18 6673.74 164.953   1
   2  -1 -18 8335.03 227.649   2
   2  -1 -17 2155.64 147.410   2
   2   1 -17 2110.77 150.070   2
   2  -1 -17 1965.32 120.004   1
   2   1 -17 1943.05 126.136   1
   2  -1 -16 186.369 93.8018   2
   2   1 -16 256.094 102.724   2
   2  -1 -16 39.2228 98.0191   1
   2   1 -16-112.560 107.660   1
   2  -1 -15 3886.98 164.761   1
   2   1 -15 3807.87 170.513   1
   2  -1 -15 4746.12 215.984   2
   2   1 -15 4646.82 216.625   2
  -2   1  15 5304.34 107.211  15
   2  -1 -14 1061.15 104.376   1
  -2   1  14 1424.37 58.9552  15
   2   1 -14 1072.16 109.146   1
   2  -1 -14 1224.33 136.044   2
   2   1 -14 1300.32 145.368   2
   2  -1 -13 8989.85 186.794   1
   2   1 -13 8955.76 183.739   1
  -2   1  13 8977.25 142.319  15
   2  -1 -13 9194.28 282.028   2
   2   1 -13 9448.12 286.998   2
   2  -1 -12 20230.9 245.339   1
   2   1 -12 20825.2 251.844   1
   2  -1 -11 39736.0 315.486   1
   2   1 -11 39093.4 312.425   1
  -2   1  11 38803.4 301.481  15
  -2   1  10 77877.2 441.469  15
   2   1 -10 77747.8 430.791   1
   2  -1  -9 408.694 54.2865   1
  -2   1   9 306.617 31.9732  15
   2  -1  -8 3469.79 87.7701   1
  -2   1   8 3796.02 88.0485  15
   2   1  -7 18209.8 172.465   1
  -2   1   7 17776.4 187.382  15
  -2  -1   6 2793.13 74.5299   6
  -2   1   6 2856.66 76.1588   6
   2  -1  -6 2767.18 72.4057   1
   2   1  -6 2649.20 71.9038   1
   2  -1  -5 3065.69 71.6099   1
   2   1  -5 3046.66 73.8215   1
   2  -1  -4 13742.9 138.975   1
   2   1  -4 13112.5 137.309   1
  -2   1   4 13778.9 161.503   6
  -2  -1   4 12690.7 153.107   6
   2  -1  -3 342760. 1052.35   1
  -2  -1   3 340815. 1116.63   6
   2   1  -3 342885. 1055.84   1
   2  -1  -2 364902. 1098.48   1
  -2  -1   2 361019. 1167.62   7
   2   1  -2 362066. 1102.01   1
  -2   1   2 361810. 1163.34   6
  -2  -1   2 359818. 1158.57   6
  -2   1   1 250790. 868.922   6
   2  -1  -1 250997. 817.536   1
   2   1  -1 248676. 819.089   1
  -2  -1   1 249773. 868.529   7
  -2   1   1 246691. 760.441   7
  -2  -1   1 248025. 861.915   6
   2  -1   0 135584. 528.377   1
   2   1   0 136635. 533.605   1
   2   1   1 12392.6 148.341   1
  -2  -1  -1 13514.9 146.313   7
   2  -1   1 14243.3 155.968   1
  -2   1  -1 11522.4 93.9054   7
  -2  -1  -2 5960.14 92.8625   7
  -2   1  -2 4860.17 52.7383   7
  -2  -1  -3 18841.1 171.437   7
  -2  -1  -4 103623. 442.452   7
  -2  -1  -5 743.675 33.6728   7
  -2  -1  -6 16800.7 153.030   7
  -2  -1  -6 15250.5 156.992  14
  -2  -1  -7 147.477 18.3867   7
  -2  -1  -7 225.655 24.6399  13
  -2   1  -7 211.005 24.1237  13
  -2  -1  -8 247.868 22.7804   7
  -2  -1  -8 216.190 28.7750  14
  -2   1  -8 308.227 28.6487  14
  -2  -1  -8 283.640 26.5668  13
  -2   1  -8 308.192 27.7209  13
  -2  -1  -9 44468.2 302.321  10
  -2   1  -9 45422.1 312.138  10
  -2  -1  -9 44719.0 291.931  14
  -2   1  -9 44628.8 286.867  14
  -2  -1  -9 45665.8 289.471  13
  -2   1  -9 46015.4 292.052  13
  -2  -1 -10 126595. 555.075  13
  -2  -1 -10 124765. 582.777  10
  -2   1 -10 125838. 588.491  10
  -2  -1 -10 124163. 557.523  14
  -2   1 -10 124370. 558.579  14
  -2  -1 -11 965.130 49.4775  10
  -2   1 -11 924.973 49.0429  10
  -2  -1 -11 956.127 50.7021  14
  -2  -1 -11 958.311 51.1446  13
  -2   1 -11 937.819 51.1712  13
  -2  -1 -12 7191.45 129.988  10
  -2   1 -12 6908.82 128.470  10
  -2  -1 -12 6511.65 121.758  14
   2   1  12 6703.26 160.710  19
  -2   1 -12 7277.98 125.781  13
  -2   1 -13 106.442 32.1064  13
  -2  -1 -13 75.6449 24.3297  10
  -2   1 -13 80.1342 24.5153  10
  -2  -1 -13 147.008 34.5246  13
  -2   1 -14 6862.93 131.758  10
  -2  -1 -14 7110.70 134.035  10
  -2  -1 -14 6851.22 121.682  13
  -2  -1 -15 5102.67 111.040  13
  -2   1 -15 4904.80 110.695  13
  -2  -1 -15 5083.32 114.968  10
  -2   1 -15 4941.50 114.458  10
  -2  -1 -16 634.362 45.3780  10
  -2   1 -16 617.736 45.4002  10
  -2  -1 -17 175.606 31.3154  10
  -2   1 -17 180.070 31.4099  10
  -2  -1 -18 191.820 32.2858  10
  -2   1 -18 142.638 30.4122  10
  -2  -1 -19 3995.07 104.613  10
  -2   1 -19 4038.79 106.685  10
  -2  -1 -20 16536.9 206.404  10
  -2   1 -20 16653.5 210.875  10
  -2  -1 -21 6293.69 122.833  10
  -2   1 -21 6281.72 124.380  10
  -2  -1 -22 11675.5 156.286  10
  -2   1 -22 11727.8 159.423  10
  -2   1 -23 106.960 23.2775  10
  -2  -1 -23 46.0782 20.6934  10
  -2   1 -24 1160.14 46.2981  10
  -2  -1 -24 1113.10 44.4141  10
  -2  -1 -25 40.9684 16.0084  10
  -2   1 -25 56.9560 16.6814  10
  -2  -1 -26 829.911 29.3345  10
  -2   1 -26 920.017 31.6845  10
   2   2 -26 1465.63 38.4937  16
   2  -2 -25 13.3866 11.1107   2
  -2  -2  25 9.73351 10.8582  17
  -2  -2  24 194.851 21.1237  17
   2  -2 -24 279.694 23.6099   2
   2  -2 -23 124.051 22.0913   2
   2   2 -23 136.821 23.5502   2
   2  -2 -22 1679.92 58.2393   2
   2   2 -22 1764.01 60.1107   2
   2  -2 -21 104.458 25.7536   2
   2   2 -21 109.629 26.4305   2
   2  -2 -20 6920.71 130.540   2
   2   2 -20 6608.19 131.814   2
   2  -2 -19 6949.68 139.873   2
   2   2 -19 7189.65 148.229   2
   2  -2 -18 83.7412 35.2205   2
  -2   2  18 76.6603 24.0015  15
   2   2 -18 65.1790 37.7202   2
   2  -2 -17 3217.63 123.238   2
   2   2 -17 3419.27 144.227   2
   2  -2 -17 2942.11 105.005   1
   2  -2 -16 13208.8 227.463   1
   2   2 -16 13244.9 235.620   1
   2  -2 -15 10724.2 282.052   2
   2   2 -15 10529.7 291.930   2
   2  -2 -15 9750.12 213.448   1
   2   2 -15 9614.42 223.959   1
   2  -2 -14 4847.80 197.980   2
   2   2 -14 4653.83 202.055   2
   2  -2 -14 4218.38 159.005   1
   2   2 -14 4019.14 167.482   1
   2  -2 -13 10910.6 218.833   1
   2   2 -13 10464.3 219.950   1
  -2   2  13 12286.0 175.944  15
   2  -2 -13 12013.9 296.491   2
   2   2 -13 11556.9 297.563   2
   2   2 -12 108.660 82.4463   1
  -2   2  12 209.960 30.6071  15
   2   2 -12 245.638 99.6202   2
   2  -2 -12 39.9827 73.3522   1
   2  -2 -12 143.374 90.1834   2
   2  -2 -11 464.141 76.4777   1
   2   2 -11 498.848 81.3127   1
   2  -2 -11 637.619 105.791   2
   2   2 -11 606.736 116.550   2
  -2   2  11 509.618 41.2395  15
  -2   2  10 7526.76 135.199  15
   2   2 -10 7598.77 148.476   1
  -2   2   9 40972.4 319.811  15
   2  -2  -9 40081.8 299.561   1
   2   2  -9 39932.8 298.577   1
  -2   2   9 40595.2 302.457  17
  -2   2   9 40818.7 308.453   6
  -2  -2   8 16804.9 189.883   6
   2  -2  -8 16867.2 182.835   1
   2   2  -8 16638.3 181.734   1
  -2   2   8 16515.2 182.716  17
  -2   2   8 16748.8 197.378  15
  -2   2   7 2442.09 66.6708  17
   2   2  -7 615.738 58.6791   1
  -2  -2   7 1840.09 58.1349  17
  -2   2   7 508.569 40.2179  15
  -2  -2   7 3263.03 80.9172   6
   2  -2  -7 556.121 53.6329   1
  -2   2   7 1852.84 63.5304   6
  -2  -2   6 15627.3 165.189  17
  -2   2   6 15950.6 169.427  17
   2  -2  -6 15604.3 152.678   1
   2   2  -6 18396.9 169.258   1
  -2   2   6 17275.1 195.798  15
  -2   2   6 18449.8 191.392   6
  -2  -2   6 17205.2 182.526   6
   2  -2  -5 12824.3 137.470   1
  -2  -2   5 13454.7 157.411   6
   2   2  -5 12706.9 139.514   1
  -2   2   5 13547.5 160.627   6
  -2   2   4 2253.09 64.6854   6
  -2  -2   4 1695.39 55.9394   6
   2  -2  -4 2454.09 69.3368   1
   2   2  -4 1786.54 63.3660   1
   2  -2  -3 167799. 593.838   1
   2   2  -3 167018. 606.473   1
  -2   2   3 163990. 705.365  15
  -2  -2   3 164843. 653.235   6
  -2   2   2 500833. 1551.26  15
   2  -2  -2 500397. 1424.86   1
   2   2  -2 501760. 1433.83   1
  -2   2   2 499957. 1481.70   6
   2  -2  -1 43338.7 258.518   1
   2   2  -1 43579.5 261.129   1
   2  -2   0 146640. 549.834   1
   2   2   0 145657. 560.163   1
   2  -2   1 18168.7 162.266   1
   2   2   1 18175.1 168.050   1
   2   2   2 89495.7 414.008   1
   2  -2   2 89063.6 402.976   1
  -2  -2  -3 72147.7 403.693   7
   2  -2   3 75696.5 380.648   1
  -2  -2  -4 6651.14 105.316   7
  -2  -2  -5 17970.6 173.179  14
  -2  -2  -5 17977.1 161.568  13
  -2  -2  -6 93.0089 20.9441   7
  -2  -2  -6 90.8478 21.8164  14
  -2  -2  -7 221.727 24.7395   7
  -2  -2  -7 180.099 26.2085  14
  -2  -2  -7 249.285 25.1865  13
  -2   2  -7 235.313 24.4370  13
   2   2   8 17788.3 211.997   4
  -2  -2  -8 19099.0 188.966  10
  -2   2  -8 18729.2 188.297  10
  -2  -2  -8 17726.6 174.437   7
  -2  -2  -8 18769.7 182.541  14
  -2   2  -8 19582.6 227.751   5
  -2  -2  -8 19304.1 178.198  13
  -2   2  -8 19087.7 178.660  13
  -2  -2  -9 18680.2 191.369  10
   2   2   9 18390.3 221.663   4
  -2   2  -9 18583.6 191.527  10
  -2  -2  -9 18488.4 185.276   7
  -2  -2  -9 18583.3 185.644  14
  -2   2  -9 18988.3 228.708   5
  -2  -2  -9 19186.8 182.798  13
  -2   2  -9 19016.1 183.150  13
  -2  -2 -10 448.642 34.4589  10
  -2   2 -10 395.824 33.2951  10
   2   2  10 539.925 44.0523   4
  -2  -2 -10 458.822 38.3168  14
  -2   2 -10 460.764 45.4611   5
  -2  -2 -10 455.761 37.8833  13
  -2   2 -10 408.501 37.6313  13
  -2  -2 -11 47870.0 329.499  10
   2   2  11 48325.0 384.336   4
  -2  -2 -11 48156.0 328.963  14
  -2   2 -11 48035.2 391.341   5
  -2  -2 -11 48968.1 316.501  13
  -2   2 -11 48239.6 317.539  13
  -2  -2 -12 26390.0 240.935  10
  -2   2 -12 26193.6 243.500  10
   2   2  12 26777.1 281.425   4
   2   2  12 27166.7 334.162  19
  -2   2 -12 26808.6 296.966   5
  -2  -2 -12 26771.4 242.447  14
  -2  -2 -12 27049.0 232.752  13
  -2   2 -12 26777.9 234.132  13
  -2  -2 -13 24695.1 222.865  13
  -2   2 -13 24238.0 224.793  13
  -2  -2 -13 24470.0 235.080  10
  -2   2 -13 23918.8 235.099  10
   2   2  13 23857.0 269.347   4
   2   2  13 23217.8 282.909  19
  -2   2 -13 24629.3 288.304   5
  -2  -2 -14 769.092 53.2001  13
  -2   2 -14 745.120 53.2614  13
  -2  -2 -14 586.823 41.2334  10
  -2   2 -14 566.372 40.8281  10
   2   2  14 570.197 48.4899   4
  -2   2 -14 622.719 60.4763   5
   2   2  14 525.755 53.7277  19
  -2  -2 -15 26393.3 246.748  10
  -2   2 -15 26001.2 250.180  10
   2   2  15 24147.7 275.344   4
   2   2  15 23862.3 270.034  19
  -2  -2 -16 8168.95 136.437  10
  -2   2 -16 8141.26 139.801  10
   2   2  16 7710.65 153.710   4
   2   2  16 7734.30 147.809  19
  -2  -2 -17 60120.1 388.661  10
  -2   2 -17 59613.7 394.014  10
  -2  -2 -18 30924.7 266.247  10
  -2   2 -18 30229.0 270.338  10
  -2  -2 -19 7790.61 129.303  10
  -2   2 -19 7992.49 134.251  10
  -2  -2 -20 2545.95 72.7752  10
  -2   2 -20 2549.76 75.3061  10
  -2  -2 -21 976.977 44.8251  10
  -2   2 -21 971.180 46.9065  10
  -2  -2 -22 371.877 28.8281  10
  -2   2 -22 414.363 31.1327  10
  -2  -2 -23 1669.26 47.8009  10
  -2  -2 -24 277.802 19.9196  10
   2   3 -24 2759.63 54.3114  16
   2   3 -23 155.941 19.4198  16
   2   3 -22 1391.02 48.5327  16
   2   3 -21 6188.13 106.371  16
  -2   3  20 978.937 43.8762  15
  -2   3  19 462.417 36.3839  15
  -2   3  18 4479.68 101.982  15
  -2   3  17 3257.01 92.5923  15
  -2   3  16 8470.69 149.570  15
  -2   3  15 3696.90 101.128  15
   2   3 -15 2930.86 96.0977   2
  -2   3  14 22184.0 249.084  15
  -2   3  14 22051.8 208.338  17
  -2   3  13 10504.5 141.838  17
  -2   3  13 11604.6 181.519  15
  -2   3  12 25020.8 269.688  15
  -2   3  11 5339.82 125.040  15
  -2   3  10 7582.37 147.412  15
  -2  -3   9 28812.6 296.719   7
  -2   3   9 27838.3 283.741  15
   2   3  -8 26444.3 256.769   1
  -2  -3   8 26271.4 278.486   7
  -2   3   8 25564.1 269.470  15
  -2  -3   7 298.396 37.7752   7
  -2   3   7 292.797 26.5004   6
  -2  -3   6 147.997 33.5306   7
  -2   3   6 149.712 20.1897   6
   2   3  -5 9639.03 127.961   1
  -2   3   5 9898.26 158.792  15
   2   3  -4 17971.0 221.221   3
   2   3  -4 19564.3 173.090   1
  -2  -3   4 19587.7 219.292   7
  -2   3   4 18520.5 215.543  15
   2   3  -3 52918.3 388.961   3
  -2   3   3 53644.5 374.331  15
   2   3  -3 53382.1 282.817   1
   2   3  -2 6535.79 99.1155   1
   2   3  -2 5137.53 118.476   3
  -2   3   2 5528.87 116.826  15
  -2  -3   2 6369.28 125.752   7
  -2   3   1 17869.7 206.589   5
  -2   3   1 17417.8 204.437  15
  -2  -3   1 18446.8 204.943   7
   2   3  -1 15975.9 199.792   3
   2   3  -1 16569.7 147.743   1
  -2   3   0 1966.31 72.0808   5
   2   3   0 1842.42 72.4717   3
  -2  -3   0 2062.54 69.1988   7
  -2   3   0 1996.46 69.0868  15
  -2   3  -1 76.5775 23.1282  15
  -2   3  -1 31.9186 28.2834   5
  -2  -3  -1 36.1508 24.0546   7
   2   3   1 18.4260 34.2720   3
  -2   3  -2 5244.65 118.600   5
   2   3   2 5182.06 85.2210   1
  -2   3  -2 5073.15 101.838  15
  -2  -3  -2 5415.97 107.101   7
  -2   3  -3 52746.8 385.922   5
  -2  -3  -3 53486.3 345.361   7
  -2   3  -3 51824.9 331.360  15
  -2  -3  -3 50746.2 306.389  14
   2   3   3 50065.8 283.162   1
  -2   3  -4 23089.6 251.731   5
   2   3   4 22579.4 183.304   1
  -2  -3  -4 23529.1 218.183   7
  -2  -3  -4 22318.1 193.649  14
   2   3   5 1679.79 57.4179   1
  -2  -3  -5 1830.08 63.5127   7
  -2  -3  -5 1780.58 56.2448  14
  -2   3  -5 1926.96 77.3370   5
   2   3   6 8690.46 165.630   4
   2   3   6 9260.77 126.429   1
  -2  -3  -6 8602.85 119.090  14
  -2   3  -6 9085.20 166.691   5
   2   3   7 5316.31 131.055   4
  -2  -3  -7 4973.61 92.4042  14
  -2   3  -7 5362.30 133.603   5
   2   3   8 5479.33 133.642   4
   2   3   8 5606.80 177.434  19
  -2  -3  -8 5612.64 100.870  14
  -2   3  -8 5701.55 139.733   5
   2   3   9 2936.40 101.965   4
   2   3   9 3276.15 144.865  19
  -2  -3  -9 3042.66 75.5100  14
  -2   3  -9 3283.37 110.974   5
  -2  -3 -10 65776.0 381.923  14
  -2   3 -10 66113.7 495.239   5
   2   3  11 124104. 706.638   4
  -2   3 -11 125679. 718.964   5
   2   3  12 19164.7 257.044   4
  -2   3 -12 18031.3 188.372  10
   2   3  12 17350.9 248.317  19
  -2   3 -12 18666.3 264.469   5
  -2   3 -13 326.162 31.9650  10
   2   3  13 323.786 46.8435   4
   2   3  13 328.440 59.6811  19
  -2   3 -13 405.198 59.7292   5
  -2   3 -14 56939.6 355.422  10
   2   3  14 57180.0 454.991   4
  -2   3 -14 57272.1 478.028   5
   2   3  15 2202.95 93.0332  19
   2   3  15 2373.55 93.4715   4
  -2   3 -15 2390.14 69.2223  10
  -2   3 -15 2471.33 104.666   5
   2   3  16 4293.03 121.464   4
   2   3  17 9253.50 169.580   4
   2   3  18 29771.5 296.504   4
   2   3  19 27636.5 273.034   4
   2   3  20 8066.49 135.256   4
   2   3  21 1068.16 48.0954   4
   2   4 -22 19.8316 11.7218  16
   2   4 -21 516.613 28.2228  16
  -2   4  21 478.337 23.9426  15
   2   4 -20 183.659 22.4845  16
  -2   4  20 190.771 21.0503  15
   2   4 -19 522.761 33.8188  16
  -2   4  19 562.415 35.1508  15
   2   4 -18 104.798 22.1163  16
  -2   4  18 123.074 25.7358  15
   2   4 -17 1924.56 63.5366  16
  -2   4  17 1911.31 67.1034  15
   2   4 -16 13.4053 19.2569  16
  -2   4  16 7.20910 22.8806  15
   2   4 -15 857.908 46.1145  16
  -2   4  15 903.977 53.1339  15
   2   4 -14 858.519 46.5036  16
  -2   4  14 1098.16 59.6265  15
   2   4 -13 2918.71 82.0309  16
  -2   4  13 3074.29 97.0564  15
   2   4 -12 182.083 28.2132  16
  -2   4  12 170.982 38.4218  15
   2   4 -11 20149.6 216.091  16
  -2   4  11 21139.9 256.098  15
  -2  -4  10 34120.5 315.443   7
   2   4 -10 34291.0 284.126  16
  -2  -4   9 86659.2 524.826   7
  -2  -4   8 4190.95 110.829   7
  -2  -4   7 8077.56 153.891   7
  -2   4   7 7673.91 152.553  15
  -2  -4   6 70477.4 468.643   7
  -2   4   6 69713.4 474.570  15
  -2   4   5 3991.22 108.830  15
  -2  -4   5 3981.50 104.044   7
  -2   4   4 39573.9 345.071   5
  -2  -4   4 39322.8 323.429   7
   2   4  -4 38888.4 360.019   3
  -2   4   4 39706.4 338.106  15
  -2   4   3 1277.03 68.5811   5
   2   4  -3 1349.25 75.6614   3
  -2  -4   3 1156.62 58.5685   7
  -2   4   3 1223.64 61.2478  15
  -2   4   2 876.670 60.0387   5
   2   4  -2 628.646 58.3609   3
  -2  -4   2 915.614 54.1630   7
  -2   4   2 723.886 49.2821  15
  -2   4   1 4734.14 121.022   5
   2   4  -1 4565.29 123.284   3
  -2  -4   1 4691.03 107.323   7
  -2   4   0 383.698 48.1483   5
   2   4   0 245.853 44.5177   3
  -2  -4   0 267.144 32.0171   7
  -2   4   0 287.336 34.1869  15
  -2   4  -1 2129.82 88.0614   5
   2   4   1 1828.11 80.4620   3
  -2  -4  -1 1865.93 66.4324   7
  -2   4  -1 2058.80 71.3400  15
  -2   4  -2 2269.46 90.8268   5
   2   4   2 2461.30 123.029  19
  -2  -4  -2 2262.46 73.1671   7
  -2   4  -2 2204.88 70.0342  15
  -2   4  -3 584.718 53.5587   5
   2   4   3 686.170 83.6920  19
   2   4   3 504.272 50.3118   3
  -2  -4  -3 562.902 40.9456   7
   2   4   4 3991.33 110.686   3
  -2  -4  -4 3934.39 93.3525   7
  -2   4  -4 3931.97 118.600   5
   2   4   5 5273.69 165.718  19
  -2   4  -5 5069.76 136.383   5
  -2  -4  -6 6072.32 115.474   7
  -2   4  -6 6929.01 161.785   5
  -2  -4  -7 21275.6 222.678   7
  -2   4  -7 23421.8 301.741   5
  -2   4  -8 33780.1 365.676   5
   2   4   9 343.429 62.3475  19
  -2   4  -9 352.224 58.0291   5
   2   4  10 2583.37 107.310   4
   2   4  10 2749.02 111.938  19
  -2   4 -10 2964.05 114.184   5
   2   4  11 7102.30 167.636   4
   2   4  11 7176.02 167.433  19
  -2   4 -11 7373.25 170.855   5
   2   4  12 368.033 49.6792   4
   2   4  12 285.117 52.9764  19
   2   4  13 818.564 63.6854  19
  -2   4 -13 968.380 72.2806   5
   2   4  14 567.118 51.9833   4
  -2   4 -14 660.466 62.1842   5
   2   4  15 3209.57 104.464   4
  -2   4 -15 3430.94 115.674   5
   2   4  16 769.131 55.4996   4
   2   4  17 330.532 39.0001   4
   2   4  18 318.745 32.2106  18
   2   4  19 1871.79 55.2016  18
   2   4  20 170.964 20.6751  18
  -2   5  20 16.1864 11.9816   5
  -2   5  19 124.012 19.3956   5
  -2   5  19 96.8525 14.3873  15
  -2   5  18 77.2424 20.9601   5
  -2   5  18 63.4832 16.8338  15
  -2   5  17 1166.74 45.6961   5
  -2   5  17 1016.00 42.9154  15
  -2   5  16 10012.7 130.233   5
  -2   5  16 9322.45 129.339  15
  -2   5  15 857.663 45.7369   5
   2   5 -15 724.136 37.8169  16
  -2   5  15 780.803 44.4276  15
  -2   5  14 3047.77 81.0983   5
  -2   5  14 3013.17 84.1429  15
  -2   5  13 763.286 47.3084   5
   2   5 -13 640.904 38.3297  16
  -2   5  13 745.211 48.0288  15
  -2   5  12 756.942 48.7342   5
   2   5 -12 562.040 37.3966  16
  -2   5  11 984.350 56.5286   5
  -2   5  10 1184.33 62.2261   5
  -2   5  10 1088.95 58.8217  15
  -2   5   9 3983.83 109.654   5
  -2   5   9 3601.24 100.330  15
  -2   5   8 803.035 57.3258   5
  -2   5   8 726.165 51.2135  15
  -2   5   7 1526.79 74.4205   5
  -2   5   7 1362.52 65.1910  15
  -2   5   6 3113.99 102.674   5
  -2   5   6 2945.25 91.2758  15
  -2   5   5 433.154 42.9893  15
  -2   5   4 13246.4 187.402  11
  -2   5   4 12290.7 184.908  15
  -2   5   3 16486.0 209.615  11
  -2   5   3 14838.0 196.971  15
  -2   5   2 4351.48 113.552  11
  -2   5   2 3955.77 100.798  15
  -2   5   1 1930.31 70.1781  15
   2   5  -1 1797.38 78.8424  19
  -2   5   0 5420.08 127.621  11
   2   5   0 4516.72 120.425  19
   2   5   1 8493.43 165.305  19
   2   5   2 12543.7 205.607  19
   2   5   2 13236.8 207.392   3
   2   5   3 21717.5 273.324  19
   2   5   3 22260.2 264.932   3
   2   5   4 875.262 68.4828   3
   2   5   4 872.330 74.5276  19
   2   5   5 7479.57 163.104  19
   2   5   5 7901.23 155.717   3
   2   5   6 4893.40 134.381  19
   2   5   6 4982.13 124.864   3
   2   5   7 599.124 61.0244  19
   2   5   7 667.300 56.6304   3
   2   5   8 1155.36 71.0174  19
   2   5   8 1287.09 69.4574   3
  -2   5  -8 1342.25 81.2260   5
  -2   5  -9 204.510 46.9166   5
   2   5   9 162.716 40.3191   3
   2   5  10 2236.61 82.7865   3
  -2   5 -10 2311.83 96.3210   5
   2   5  11 999.345 59.7282   3
  -2   5 -11 1084.74 71.4119   5
   2   5  12 1371.69 65.4144   3
  -2   5 -12 1383.81 76.5932   5
   2   5  13 2102.65 74.1133   3
  -2   5 -13 2083.69 86.6111   5
   2   5  14 10110.3 146.689   3
  -2   5 -14 10063.0 173.772   5
   2   5  15 469.988 40.6772   3
   2   5  16 3605.07 78.1382  18
   2   5  16 4240.67 86.3358   3
   2   5  17 628.261 34.0131  18
   2   5  17 714.013 38.9629   3
   2   5  18 169.538 18.8754  18
   2   5  18 252.485 25.6847   3
  -2   6  15 19822.1 143.741   5
  -2   6  14 1600.41 47.1745   5
  -2   6  13 5238.55 89.2295   5
  -2   6  13 4528.70 76.6612  15
  -2   6  12 29.5321 22.7638   5
  -2   6  12 40.7919 17.7559  15
  -2   6  11 3.11812 23.2896   5
  -2   6  11 3.62517 17.2912  15
  -2   6  10 133.673 29.1242   5
  -2   6  10 100.249 22.2629  15
  -2   6   9 81.5176 28.4597   5
  -2   6   9 53.7817 21.7689  15
  -2   6   8 1986.92 71.0121   5
  -2   6   8 1737.89 58.6920  15
  -2   6   7 3058.43 89.1364   5
  -2   6   6 5827.28 121.814   5
  -2   6   5 6468.39 130.550   5
  -2   6   4 62.5954 34.1988   5
  -2   6   3 2580.77 86.6300   5
  -2   6   2 425.086 47.8551   5
  -2   6   1 955.518 62.0557   5
  -2   6   0 178.702 41.4138   5
   2   6   1 306.318 46.0582   3
  -2   6  -1 310.347 48.3771   5
   2   6   2 281.250 46.1471   3
  -2   6  -2 290.384 47.6409   5
   2   6   3 373.792 47.8424   3
  -2   6  -3 421.425 51.6530   5
  -2   6  -4 1711.08 79.8527   5
  -2   6  -5 6645.41 144.059   5
  -2   6  -6 2360.69 89.0397   5
  -2   6  -7 58.2018 35.7380   5
  -2   6  -8 240.739 41.5338   5
   2   6  10 115.439 23.3947  18
   2   6  11 343.143 27.7165  18
   2   6  11 444.071 37.8926   3
   2   6  12 2286.78 55.7958  18
   2   6  12 3136.84 71.4502   3
   2   6  13 28.0209 16.4018  18
   2   6  13 30.9862 21.9898   3
   2   6  14 1030.20 37.0289   3
  -2   7   5 1281.49 41.0969   5
  -2   7   4 2274.84 55.1044   5
  -2   7   3 10.4102 18.3114   5
  -2   7   2 68.2098 22.1387   5
  -2   7   1 1077.30 43.0946   5
  -2   7   0 1520.31 50.6056   5
  -2   7  -1 1853.61 54.8135   5
  -2   7  -2 4286.20 80.7456   5
  -2   7  -3 333.083 30.5577   5
  -2   7  -4 475.226 32.3108   5
   3   0 -24 2292.47 43.5333   2
  -3   0  23 13.3831 11.6026  17
   3   0 -23 8.18626 13.8904   2
  -3   0  22 619.601 31.6528  17
   3   0 -22 560.120 32.5763   2
  -3   0  21 8.67018 16.0093  17
   3   0 -21 8.32959 21.4265   2
   3   0 -20 187.604 36.6927   2
  -3   0  20 181.805 24.9313  17
  -3   0  19 7.65177 18.0551  17
  -3   0  18 385.380 35.5227  17
   3   0 -18 246.246 75.9347   2
  -3   0  17 0.54993 21.2701  17
   3   0 -17-16.5026 89.5950   2
  -3   0  16 338.878 37.3750  17
   3   0 -16 270.873 102.473   2
  -3   0  15-7.89265 23.5507  17
   3   0 -15 106.658 100.254   2
   3   0 -14 1830.89 161.107   2
  -3   0  14 1735.81 75.3974  17
   3   0 -13 492.162 134.466   2
  -3   0  13 104.018 31.9096  17
   3   0 -12 71773.8 494.179   1
  -3   0  12 73529.0 490.402  17
  -3   0  11 142.507 33.9677  17
  -3   0  11 125.587 34.7412   6
   3   0 -10 3627.07 114.828   1
  -3   0  10 3261.42 108.410   6
  -3   0   9 7.29890 22.5123  17
  -3   0   9 13.2991 23.4684   6
  -3   0   8 6655.41 137.206   7
   3   0  -8 6987.85 142.658   1
  -3   0   8 6580.87 138.868  17
  -3   0   7 57.5138 25.9758  17
  -3   0   7 12.9182 22.9226   7
  -3   0   7 41.4985 24.8058   6
  -3   0   6 4466.21 120.269   6
  -3   0   6 4118.00 103.155   7
  -3   0   6 4170.12 111.265  17
   3   0  -6 4189.77 109.214   1
  -3   0   5 7.45727 22.8542  17
   3   0  -5 26.2690 46.7248   1
  -3   0   5-6.42148 21.3606   7
  -3   0   5 32.6509 24.1695   6
   3   0  -4 1421.91 71.4789   1
  -3   0   4 1614.53 60.8131   7
   3   0  -3 274.928 52.1573   1
  -3   0   3 48.6868 23.3651   7
   3   0  -2 8067.62 133.456   1
   3   0  -1 5410.39 118.048   1
  -3   0   0 63938.6 403.946  12
   3   0   0 65358.3 406.081   1
  -3   0  -1 117.782 34.3885  12
  -3   0  -1 149.249 31.2562  13
  -3   0  -2 1689.49 65.7886  12
  -3   0  -2 1501.72 61.6862  13
   3   0   2 1630.61 73.2255   1
  -3   0  -3 70.1377 30.2056  12
   3   0   3-5.63867 43.1464   1
  -3   0  -4 22228.8 236.383  10
   3   0   4 20133.0 225.992   1
  -3   0  -4 22536.9 230.806  14
  -3   0  -4 20503.6 216.675  13
  -3   0  -5 100.499 29.6537  13
  -3   0  -5 44.3485 26.4859  10
   3   0   5-21.7757 44.5670   1
  -3   0  -5 1.47591 28.5613  14
  -3   0  -6 1683.18 68.1980  10
  -3   0  -6 1899.00 69.7204  14
  -3   0  -6 1790.34 68.6483  13
  -3   0  -7 67.9920 29.9963  13
  -3   0  -7 51.3046 26.7225  10
   3   0   7-10.2037 46.8503   1
  -3   0  -7 60.3587 29.9411  14
  -3   0  -8 8614.77 149.514  12
  -3   0  -8 8629.95 153.244  10
  -3   0  -8 8781.06 145.166  14
  -3   0  -8 8541.52 143.415  13
  -3   0  -9 21.8110 27.5971  12
  -3   0  -9 32.3585 27.5988  10
  -3   0  -9 37.1431 34.2573  14
  -3   0  -9 73.7473 32.3765  13
  -3   0 -10 14889.8 199.604  12
  -3   0 -10 15061.8 208.770  10
  -3   0 -10 14857.9 192.150  14
  -3   0 -10 15372.3 196.912  13
  -3   0 -11 13.7449 37.8221  13
  -3   0 -11 36.1128 31.8270  12
  -3   0 -11 39.0495 28.3759  10
  -3   0 -11 65.6077 35.8553  14
  -3   0 -12 9478.45 158.395  12
  -3   0 -12 9839.34 169.819  10
  -3   0 -13 44.3638 37.0973  13
  -3   0 -13 2.13623 26.9142  12
  -3   0 -13 3.60921 25.7083  10
  -3   0 -14 647.270 47.2923  12
  -3   0 -14 615.971 48.9007  10
  -3   0 -14 684.324 51.1731  13
  -3   0 -15 57.3699 35.0846  13
  -3   0 -15 5.36074 25.7907  12
  -3   0 -15 18.2076 25.6144  10
  -3   0 -16 3095.10 91.6270  13
  -3   0 -16 2924.18 81.9158  12
  -3   0 -16 2957.98 89.8266  10
  -3   0 -17 14.7707 24.3967  12
  -3   0 -17 43.5426 27.9153  10
  -3   0 -18 19507.2 185.855  12
  -3   0 -18 19803.0 212.029  10
  -3   0 -19 46.1590 24.6157  10
  -3   0 -20 4734.51 89.6199  10
  -3   0 -21 11.3067 15.9157  10
  -3   0 -22 2697.61 54.1772  10
   3  -1 -23 9347.09 92.9787   2
   3   1 -23 9264.03 94.0017   2
  -3  -1  23 9525.83 97.5276  17
  -3   1  23 9246.57 95.9532  17
  -3  -1  22 777.407 33.0607  17
   3  -1 -22 792.136 33.8391   2
   3   1 -22 757.222 33.9076   2
  -3   1  22 798.653 33.3588  17
   3  -1 -21 736.876 38.0205   2
   3   1 -21 699.761 38.4626   2
  -3  -1  21 752.250 35.9663  17
  -3   1  21 727.629 35.8311  17
   3  -1 -20 7505.62 124.124   2
   3   1 -20 7328.18 123.367   2
  -3  -1  20 7864.24 116.141  17
  -3   1  20 7958.76 117.397  17
   3  -1 -19 608.890 53.0336   2
   3   1 -19 617.282 53.9397   2
  -3  -1  19 653.563 39.2328  17
  -3   1  19 643.270 39.7535  17
   3  -1 -18 1339.12 94.6028   2
   3   1 -18 1331.37 97.5807   2
  -3  -1  18 1607.30 60.8059  17
  -3   1  18 1594.52 60.9021  17
  -3  -1  17 46.6754 21.8928  17
  -3   1  17 7.45856 19.8106  17
   3  -1 -17-39.6923 72.0554   2
   3   1 -17-47.8002 75.9973   2
   3  -1 -16 1867.80 140.720   2
   3   1 -16 2061.40 149.182   2
  -3  -1  16 2147.12 74.5861  17
  -3   1  16 2230.47 76.4767  17
   3  -1 -15 1035.16 124.549   2
   3   1 -15 968.883 126.391   2
  -3  -1  15 1257.76 59.6073  17
  -3   1  15 1147.10 57.7151  17
  -3   1  14 233.062 31.3725  17
  -3  -1  14 76.2063 25.3770  17
   3  -1 -14 139.064 101.681   2
   3   1 -14 170.558 106.185   2
  -3   1  14 71.1215 27.1546  15
   3  -1 -13 5194.06 230.632   2
   3   1 -13 5186.39 234.400   2
  -3  -1  13 5030.98 118.459  17
  -3   1  13 5015.70 119.756  17
  -3   1  13 5433.70 121.090  15
  -3  -1  12 2242.89 80.9573  17
  -3   1  12 2355.13 83.4728  17
  -3   1  12 2511.32 85.6317  15
   3  -1 -11 2244.93 100.985   1
   3   1 -11 2343.92 105.021   1
  -3  -1  11 2218.75 80.6811  17
  -3   1  11 2280.91 82.5939  17
  -3   1  11 2522.79 94.1997   6
  -3  -1  11 2402.28 91.6900   6
  -3   1  11 2397.07 84.9160  15
   3  -1 -10 3772.67 113.859   1
   3   1 -10 3698.12 114.038   1
  -3  -1  10 3639.37 103.207  17
  -3   1  10 3685.71 105.027  17
  -3   1  10 4003.12 117.451   6
  -3  -1  10 3926.84 115.088   6
  -3   1  10 3901.64 107.878  15
   3  -1  -9 6634.07 138.641   1
   3   1  -9 6601.31 141.224   1
  -3  -1   9 6815.85 149.446   7
  -3  -1   9 6283.01 134.831  17
  -3   1   9 6725.72 139.503  17
  -3   1   9 7012.86 153.733   6
  -3  -1   9 6993.84 152.736   6
  -3   1   9 6943.03 143.518  15
   3  -1  -8 14881.6 197.631   1
   3   1  -8 15285.0 203.257   1
  -3  -1   8 15547.0 221.703   7
  -3  -1   8 15264.4 210.031  17
  -3   1   8 15098.8 211.211  17
  -3   1   8 16481.6 232.278   6
  -3  -1   8 16087.2 229.022   6
  -3   1   8 15721.0 217.208  15
  -3  -1   7 684.283 53.4033   7
  -3  -1   7 621.239 48.4590  17
  -3   1   7 687.357 50.5071  17
   3  -1  -7 633.144 65.0509   1
   3   1  -7 589.001 62.4419   1
  -3   1   7 709.883 52.9940   6
  -3  -1   7 627.359 50.3317   6
  -3   1   7 544.791 48.9843  15
  -3  -1   6 1345.92 65.1889  17
  -3  -1   6 1289.06 66.5953   7
  -3   1   6 1207.93 62.7625  17
   3  -1  -6 1094.19 67.0941   1
   3   1  -6 1057.56 71.1121   1
  -3   1   6 1312.38 67.3903  15
  -3   1   6 1304.79 66.3780   6
  -3  -1   6 1202.34 63.2752   6
   3   1  -5 261.049 58.1248   1
  -3  -1   5 373.073 40.9948   7
  -3  -1   5 374.453 38.8274  17
  -3   1   5 404.668 40.8492  17
  -3   1   5 422.031 44.6576  15
   3  -1  -5 333.494 56.1637   1
  -3  -1   4 7980.99 146.000   7
  -3   1   4 8216.29 157.437  15
   3  -1  -4 7962.83 137.111   1
   3   1  -4 7931.63 139.763   1
   3  -1  -3 11293.7 159.000   1
   3   1  -3 11212.5 161.031   1
  -3   1   3 9647.03 173.127  15
  -3  -1   3 9914.01 164.835   7
   3  -1  -2 40151.1 299.124   1
   3   1  -2 40545.6 304.533   1
  -3  -1   2 39886.1 321.294   7
  -3  -1   1 22175.2 222.975  12
   3  -1  -1 21378.3 214.686   1
   3   1  -1 21788.3 218.954   1
  -3  -1   0 340.177 37.4659  12
   3  -1   0 681.997 55.8846   1
   3   1   0 724.522 59.3966   1
  -3  -1   0 420.078 38.3374   7
  -3  -1  -1 958.052 53.1940  12
  -3  -1  -1 1969.96 66.0124   7
   3  -1   1 1517.78 71.3756   1
   3   1   1 1506.10 71.5694   1
  -3   1  -1 2105.65 75.3114  14
  -3   1  -1 2215.38 74.6898  13
  -3  -1  -1 1811.07 66.4589  13
  -3  -1  -2 20979.2 222.708  12
  -3  -1  -2 19573.7 198.523   7
  -3   1  -2 21096.8 215.308  14
   3  -1   2 21694.9 225.652   1
   3   1   2 21703.7 228.610   1
  -3   1  -2 20358.4 217.252  13
  -3  -1  -2 20431.7 215.170  13
   3  -1   3 2790.19 88.4810   1
  -3   1  -3 2980.90 85.2478  12
  -3  -1  -3 2866.01 83.7334  12
   3   1   3 2938.07 91.8541   1
  -3  -1  -3 2724.94 74.0345   7
  -3  -1  -3 2896.82 87.3739  14
  -3   1  -3 2868.77 81.6890  14
  -3   1  -3 2542.42 76.3769  13
  -3  -1  -3 2526.47 75.0045  13
  -3   1  -4 2016.73 71.7040  12
  -3  -1  -4 1874.92 70.4379  12
   3  -1   4 1821.79 74.5170   1
   3   1   4 1798.56 76.3737   1
  -3  -1  -4 1705.56 57.0427   7
  -3  -1  -4 1827.63 71.4850  14
  -3   1  -4 1884.60 66.5025  14
  -3   1  -4 1803.65 68.4845  13
  -3  -1  -4 1789.27 67.5106  13
  -3   1  -5 447.329 39.6446  12
  -3  -1  -5 435.367 40.8603  12
  -3  -1  -5 442.534 39.8900  10
  -3   1  -5 513.718 42.0113  10
   3  -1   5 381.869 48.3004   1
   3   1   5 369.426 49.8521   1
  -3  -1  -5 435.893 32.1688   7
  -3  -1  -5 422.048 42.4965  14
  -3   1  -5 424.775 38.9567  14
  -3  -1  -5 460.893 40.6469  13
  -3   1  -5 459.908 41.4650  13
  -3   1  -6 1482.84 63.1717  12
  -3  -1  -6 1425.36 65.0681  12
  -3  -1  -6 1488.82 64.9760  10
  -3   1  -6 1421.47 63.6060  10
   3  -1   6 1218.46 67.8806   1
   3   1   6 1270.23 70.7425   1
  -3  -1  -6 1254.41 49.0283   7
  -3  -1  -6 1464.61 65.8436  14
  -3   1  -6 1497.44 61.0081  14
  -3  -1  -6 1397.15 60.6321  13
  -3   1  -6 1411.41 61.9580  13
  -3   1  -7 15747.2 195.168  12
  -3  -1  -7 15111.2 200.012  12
  -3  -1  -7 15375.0 198.525  10
  -3   1  -7 14987.8 196.689  10
  -3  -1  -7 15480.4 193.713  14
  -3   1  -7 15656.7 184.487  14
   3   1   7 14500.3 205.836   1
  -3  -1  -7 15159.1 187.201  13
  -3   1  -7 15184.7 188.582  13
  -3   1  -8 17945.4 208.960  12
  -3  -1  -8 17333.9 216.344  12
  -3  -1  -8 17478.6 214.501  10
  -3   1  -8 17396.2 215.029  10
  -3  -1  -8 17847.1 208.454  14
  -3   1  -8 17846.6 200.465  14
  -3  -1  -8 17530.5 201.913  13
  -3   1  -8 17667.6 204.341  13
  -3   1  -9 31508.3 280.103  12
  -3  -1  -9 31145.5 297.213  12
  -3  -1  -9 32347.3 296.465  10
  -3   1  -9 32373.3 300.060  10
  -3  -1  -9 33420.5 294.011  14
  -3   1  -9 32467.4 276.463  14
  -3  -1  -9 32585.3 283.144  13
  -3   1  -9 32098.1 284.304  13
  -3   1 -10 1614.18 66.8276  12
  -3  -1 -10 1772.00 75.2517  12
  -3  -1 -10 1657.49 71.1649  10
  -3   1 -10 1621.51 70.7081  10
  -3  -1 -10 1805.89 74.0588  14
  -3   1 -10 1796.07 69.7198  14
  -3  -1 -10 1592.64 70.8016  13
  -3   1 -10 1620.03 71.6759  13
  -3   1 -11 8261.30 139.564  12
  -3  -1 -11 8457.33 152.496  10
  -3   1 -11 8273.70 151.532  10
  -3  -1 -11 8575.15 148.237  14
  -3  -1 -11 8282.96 143.969  13
  -3   1 -11 8350.98 145.879  13
  -3   1 -12 11611.3 162.878  12
  -3  -1 -12 12134.1 182.598  10
  -3   1 -12 12197.3 183.785  10
  -3  -1 -12 12344.5 175.899  14
  -3  -1 -12 11685.2 168.104  13
  -3   1 -12 12081.1 170.973  13
  -3  -1 -13 21.5893 36.2947  13
  -3   1 -13 37.7801 37.6587  13
  -3   1 -13 25.9109 25.5780  12
  -3  -1 -13 37.1435 27.9707  10
  -3   1 -14 719.648 51.5236  13
  -3   1 -14 711.889 43.7798  12
  -3  -1 -14 731.145 49.2789  10
  -3   1 -14 669.715 48.8441  10
  -3  -1 -14 727.508 51.4012  13
  -3  -1 -15 195.959 40.9681  13
  -3   1 -15 277.868 44.6812  13
  -3   1 -15 169.705 28.4455  12
  -3  -1 -15 196.782 35.3952  12
  -3  -1 -15 178.192 32.0188  10
  -3  -1 -16 7328.52 132.484  12
  -3  -1 -16 7374.18 134.128  10
  -3   1 -16 7254.42 135.171  10
  -3  -1 -17 472.577 40.1503  12
  -3  -1 -17 475.379 39.3777  10
  -3   1 -17 446.920 39.8422  10
  -3  -1 -18 557.176 39.6136  12
  -3  -1 -18 563.149 39.1673  10
  -3   1 -18 569.699 39.8711  10
  -3  -1 -19 8790.10 121.519  12
  -3  -1 -19 8910.23 123.522  10
  -3   1 -19 8894.33 126.256  10
  -3  -1 -20 2083.33 55.3972  12
  -3  -1 -20 2107.29 56.2060  10
  -3   1 -20 2099.76 57.4502  10
  -3  -1 -21 1209.76 38.5950  10
  -3   1 -21 1246.12 40.3078  10
  -3  -1 -22 22.7561 10.4469  10
  -3   1 -22 22.8398 11.0783  10
   3  -2 -21 1094.57 32.5301   2
  -3  -2  21 1129.22 34.3816  17
   3  -2 -20 1204.25 39.4356   2
  -3  -2  20 1281.38 41.4128  17
   3  -2 -19 201.079 24.5599   2
  -3  -2  19 188.348 21.8661  17
   3  -2 -18 1733.98 61.7521   2
   3   2 -18 1716.74 67.5114   2
  -3  -2  17 2145.51 64.5413  17
  -3   2  17 2193.68 65.8706  17
  -3   2  17 2201.08 65.1900  15
  -3  -2  16 17.0394 17.5258  17
  -3   2  16 15.8107 17.9707  17
   3  -2 -16-54.0101 54.8392   2
   3   2 -16-46.3258 66.2233   2
  -3   2  16 26.1439 21.6714  15
  -3  -2  15 65.9472 21.4141  17
  -3   2  15 63.7135 21.4734  17
   3  -2 -15-3.43619 68.1485   2
   3   2 -15-24.6423 81.2121   2
  -3   2  15 100.174 26.8748  15
   3  -2 -14 1238.40 117.919   2
   3   2 -14 1226.48 127.762   2
  -3  -2  14 1662.58 63.5920  17
  -3   2  14 1643.48 63.7705  17
  -3   2  14 1730.51 70.4048  15
   3  -2 -13 779.682 108.745   2
   3   2 -13 731.790 121.251   2
  -3  -2  13 917.297 49.9864  17
  -3   2  13 990.795 52.8472  17
  -3   2  13 1057.73 58.9683  15
   3  -2 -12 363.019 101.031   2
   3   2 -12 401.190 114.178   2
  -3  -2  12 324.092 34.2785  17
  -3   2  12 351.907 35.3170  17
  -3   2  12 353.718 42.0018  15
   3  -2 -11 2272.30 162.063   2
   3   2 -11 2086.37 171.584   2
  -3  -2  11 2121.02 75.1444  17
  -3   2  11 2235.41 79.2298  17
  -3   2  11 2352.80 87.9068  15
  -3  -2  10 4849.40 112.563  17
  -3   2  10 4934.21 115.925  17
  -3   2  10 5166.08 128.608  15
  -3  -2   9 14606.5 196.391  17
  -3   2   9 14881.2 201.744  17
   3  -2  -8 1141.23 73.5673   1
   3   2  -8 1316.06 83.4445   1
  -3  -2   8 1025.97 65.7016   7
  -3  -2   8 1115.76 57.3400  17
  -3   2   8 1150.72 59.2123  17
  -3   2   8 1079.80 66.7230  15
  -3   2   8 1082.29 56.8779   6
   3  -2  -7 4553.34 114.296   1
   3   2  -7 4360.75 115.027   1
  -3  -2   7 4905.13 125.166   7
  -3   2   7 5171.68 131.413  15
   3  -2  -6 3397.90 101.602   1
   3   2  -6 3481.73 108.984   1
  -3  -2   6 3644.20 108.094   7
  -3   2   6 3812.86 113.894  15
   3  -2  -5 10341.3 148.315   1
   3   2  -5 10894.9 158.626   1
   3  -2  -4 18217.5 198.629   1
   3   2  -4 19249.5 213.813   1
  -3  -2   3 101289. 578.263   7
  -3   2   3 101188. 596.119  15
   3  -2  -3 99484.1 491.892   1
  -3  -2   2 60313.9 421.587   7
  -3   2   2 59469.9 438.228  15
   3   2  -2 59389.5 372.992   1
   3  -2  -1 2810.03 90.0619   1
  -3  -2   1 2962.73 81.2099  12
  -3   2   1 3008.70 98.4560  15
  -3   2   1 2536.74 75.8354  13
  -3  -2   1 2612.88 76.2979  13
  -3  -2   0 1777.45 64.0499  12
   3  -2   0 1549.52 72.7258   1
   3   2   0 2123.30 78.5884   1
  -3  -2   0 2281.13 82.4388   7
  -3   2   0 2116.54 83.9116  15
  -3   2   0 1922.55 68.5412  13
  -3  -2   0 1856.20 65.5388  13
  -3  -2  -1 4917.26 103.751  12
   3  -2   1 4894.84 101.703   1
   3   2   1 4855.09 104.855   1
  -3  -2  -1 5005.84 110.665   7
  -3   2  -1 4459.72 95.3442  13
  -3  -2  -1 4455.39 94.5140  13
  -3  -2  -2 1494.42 60.6088  12
   3  -2   2 1707.38 68.0103   1
   3   2   2 1609.07 70.5845   1
  -3  -2  -2 1460.02 60.7835   7
  -3  -2  -2 1407.34 65.0043  14
  -3   2  -2 1398.38 57.7904  13
  -3  -2  -2 1380.64 57.2916  13
  -3  -2  -3 965.503 51.3990  12
   3  -2   3 1088.12 59.2369   1
  -3  -2  -3 1064.95 53.1628   7
   3   2   3 976.596 60.3600   1
  -3  -2  -3 1072.23 59.6235  14
  -3   2  -3 1030.45 52.9085  13
  -3  -2  -3 1099.18 54.5849  13
  -3  -2  -4 7115.03 128.979  12
  -3  -2  -4 6941.02 126.991   7
   3  -2   4 6698.99 124.877   1
  -3  -2  -4 7255.87 134.662  14
  -3   2  -4 6873.81 111.849  14
   3   2   4 6648.40 128.117   1
  -3  -2  -4 6999.86 121.674  13
  -3   2  -4 7008.57 122.659  13
  -3  -2  -5 47.8911 25.4252  13
  -3   2  -5 91.0912 27.1804  13
   3   2   5-3.03809 39.4106   1
  -3  -2  -5-6.07095 24.9667  12
   3  -2   5 28.4517 34.5403   1
  -3  -2  -5-34.6655 33.5264  14
  -3   2  -5 17.3619 22.3137  14
   3  -2   6 256.916 41.3200   1
  -3  -2  -6 299.607 36.0162  12
   3   2   6 273.788 46.3371   1
  -3  -2  -6 277.285 29.4072   7
  -3  -2  -6 209.608 37.0206  14
  -3   2  -6 319.634 31.7772  14
  -3  -2  -6 343.611 35.4468  13
  -3   2  -6 310.352 34.8260  13
  -3  -2  -7 30.5992 27.1010  12
   3  -2   7 99.6326 39.1758   1
  -3  -2  -7 73.0789 22.9645   7
   3   2   7 27.8263 39.8190   1
  -3  -2  -7-8.84995 32.0488  14
  -3  -2  -7 122.478 30.6162  13
  -3   2  -7 97.3680 30.0558  13
  -3  -2  -8 20173.1 231.771  12
  -3  -2  -8 20479.3 221.507  10
  -3   2  -8 20017.4 221.821  10
  -3  -2  -8 20752.0 222.641  14
  -3  -2  -8 20312.5 212.681  13
  -3   2  -8 19797.2 212.735  13
  -3  -2  -9 6748.29 135.406  12
  -3  -2  -9 6914.21 128.247  10
  -3   2  -9 6776.78 129.083  10
  -3  -2  -9 7267.65 134.448  14
  -3  -2  -9 6824.66 125.469  13
  -3   2  -9 6741.57 126.490  13
  -3  -2 -10 77559.3 481.578  12
  -3  -2 -10 77851.2 456.948  10
  -3  -2 -10 79212.0 458.520  14
  -3  -2 -10 79391.5 447.752  13
  -3   2 -10 77523.9 448.561  13
  -3  -2 -11 44120.5 353.314  12
  -3  -2 -11 44898.1 330.524  10
  -3   2 -11 43693.2 332.827  10
   3   2  11 41408.8 440.686  19
  -3  -2 -11 46181.4 341.803  14
  -3  -2 -11 43040.6 312.521  13
  -3   2 -11 42761.0 310.439  13
  -3  -2 -12 4127.32 97.2751  10
  -3   2 -12 4028.84 98.0355  10
   3   2  12 3761.64 126.436  19
  -3  -2 -12 3995.07 93.5858  13
  -3   2 -12 4106.68 95.7842  13
  -3  -2 -13 15775.6 176.476  13
  -3   2 -13 16161.3 183.216  13
  -3  -2 -13 16494.2 188.091  10
  -3   2 -13 16162.8 191.202  10
  -3  -2 -14 4281.53 96.5722  13
  -3  -2 -14 4058.87 91.7127  10
  -3   2 -14 3988.01 93.4302  10
  -3  -2 -15 370.420 40.5279  12
  -3  -2 -15 448.504 34.5876  10
  -3   2 -15 482.829 37.0200  10
   3   2  15 371.598 39.6270  19
  -3  -2 -16 1470.24 60.8406  12
  -3  -2 -16 1545.78 53.2164  10
  -3   2 -16 1472.75 54.4515  10
  -3  -2 -17 1442.39 57.4372  12
  -3  -2 -17 1394.63 48.7264  10
  -3   2 -17 1396.12 50.1616  10
  -3  -2 -18 7.22202 22.7910  12
  -3  -2 -18 22.3349 16.1348  10
  -3  -2 -21 557.646 25.1295  12
  -3   3  18 1379.14 44.5393  15
  -3   3  17 319.845 27.7988  15
  -3   3  16 221.210 28.0081  15
  -3   3  15 2979.86 81.5611  15
  -3   3  14 7973.31 138.809  15
  -3   3  13 229.439 36.2448  15
  -3   3  12 7499.27 145.747  15
  -3   3  11 33414.8 318.066  15
  -3   3  10 23849.6 240.722   5
  -3   3  10 24704.3 276.475  15
  -3   3   9 17984.7 214.369   5
  -3   3   9 17507.0 236.781  15
  -3   3   8 7182.10 138.038   5
  -3   3   8 6960.93 150.323  15
  -3   3   7 15157.7 200.113   5
  -3   3   6 26259.4 266.803   5
  -3   3   5 1410.00 69.6448   5
  -3   3   5 1510.81 76.8438  15
  -3   3   4 15017.8 206.696   5
  -3   3   4 14169.6 213.369  15
  -3   3   3 36032.6 323.495   5
  -3   3   3 34182.0 334.290  15
  -3   3   2 48233.3 378.121   5
  -3   3   2 47525.8 390.806  15
  -3   3   1 1037.75 66.1774   5
  -3   3   1 1040.93 62.7353  15
  -3   3   0 2193.46 81.4812  15
  -3  -3   0 2104.06 72.1788  14
  -3   3   0 2232.05 82.1333   5
  -3   3  -1 31.8361 31.2999   5
  -3   3  -1 62.7256 29.7689  15
  -3  -3  -1 0.94285 26.7796  14
  -3  -3  -2 45.1278 22.0444  12
  -3   3  -2 43.0863 32.7632   5
   3   3   2 31.1473 34.6887   3
  -3  -3  -3 2255.61 68.4423  12
  -3  -3  -3 2170.80 73.0538  14
  -3  -3  -4 130.583 25.9945  12
  -3   3  -4 128.431 36.8075   5
   3   3   4 108.608 36.1012   3
  -3  -3  -4 95.5207 29.4267  14
  -3  -3  -5 1071.43 50.9118  12
  -3  -3  -5 1175.25 54.9319  14
  -3  -3  -6 353.604 35.3093  12
   3   3   6 268.946 40.9165   3
  -3  -3  -6 343.452 37.2995  14
  -3  -3  -7 2542.18 77.2028  12
  -3  -3  -7 2628.26 77.6876  14
  -3  -3  -8 56.6612 26.5684  12
   3   3   8 52.5046 32.2468   3
  -3  -3  -8 93.0095 29.7199  14
  -3  -3  -9 3783.90 94.5089  12
   3   3   9 4027.29 153.188  19
  -3  -3  -9 4152.31 94.6526  14
  -3  -3 -10 13725.1 176.967  12
   3   3  10 12897.3 232.470  19
  -3  -3 -11 339.756 38.1257  12
   3   3  11 364.026 54.6552  19
  -3  -3 -12 1489.95 61.0147  12
   3   3  12 1233.72 70.7444  19
  -3  -3 -13 37.2118 26.5651  12
   3   3  13 11.3403 37.1861  19
  -3  -3 -14 4486.79 94.3019  12
   3   3  14 3672.39 95.9638  19
  -3  -3 -15 387.448 34.7814  12
  -3  -3 -16 6958.94 106.509  12
  -3  -3 -17 19940.3 172.331  12
  -3  -3 -18 12199.9 122.149  12
  -3  -3 -19 22.7666 15.8570  12
  -3   4  17 10.7355 12.5542  15
  -3   4  16 475.040 28.5604  15
  -3   4  15 3749.75 77.8555  15
  -3   4  14 5100.05 96.9769  15
  -3   4  13 783.687 44.9034  15
  -3   4  12 42.7185 24.7956   5
  -3   4  12 41.7396 25.3128  15
  -3   4  11 2951.13 81.2099   5
  -3   4  11 2674.19 81.9850  15
  -3   4  10 4315.51 99.3681   5
  -3   4   9 234.754 35.9693   5
  -3   4   8 3207.50 91.7385   5
  -3   4   8 3017.25 92.8593  15
  -3   4   7 159.411 36.0608   5
  -3   4   7 184.251 36.4318  15
  -3   4   6 4500.01 112.281   5
  -3   4   6 4077.56 107.765  15
  -3   4   5 3.00520 31.5598   5
  -3   4   5 23.2975 27.6440  15
  -3  -4   5-12.1163 22.2282  14
  -3   4   4 20.3593 31.1434   5
  -3   4   4 30.8026 28.9359  15
  -3   4   3 372.267 45.1661   5
  -3   4   3 422.672 42.1140  15
  -3   4   2 391.077 50.4739   5
  -3   4   2 231.841 35.7341  15
  -3   4   1 6095.22 122.509  15
  -3   4   1 6561.05 140.427   5
  -3   4   0 6169.23 120.889  15
  -3   4   0 7036.84 150.067   5
   3   4   1 12630.5 254.530  19
  -3   4  -1 14054.8 210.611   5
   3   4   2 1431.09 114.161  19
  -3   4  -2 1216.97 74.4593   5
   3   4   3 6903.33 192.607  19
   3   4   3 6647.60 141.682   3
  -3   4  -3 6948.55 151.085   5
   3   4   4 2776.42 130.484  19
   3   4   4 2566.18 91.1855   3
  -3   4  -4 2549.13 95.9454   5
   3   4   5 16935.0 216.277   3
   3   4   6 1776.07 75.5094   3
   3   4   7 1162.86 74.5344  19
   3   4   7 1305.31 66.3951   3
   3   4   8 266.275 49.2065  19
   3   4   8 220.193 39.6915   3
  -3  -4  -9 250.139 24.8804  12
   3   4   9 233.335 46.4933  19
   3   4   9 198.134 36.5997   3
  -3  -4 -10 303.119 25.5450  12
   3   4  10 268.820 44.8704  19
   3   4  10 227.125 35.7145   3
  -3  -4 -11 262.121 24.3839  12
   3   4  11 240.788 41.5426  19
   3   4  11 257.778 35.3222   3
  -3  -4 -12 3470.06 65.6225  12
   3   4  12 3184.22 77.0248   3
  -3  -4 -13 1211.05 39.1470  12
   3   4  13 1060.06 45.5842   3
  -3  -4 -14 9162.91 95.9556  12
  -3  -4 -15 64.4432 14.8706  12
  -3   5  11 189.707 22.5431  15
  -3   5  10 181.092 25.6512   5
  -3   5  10 166.025 22.8229  15
  -3   5   9 400.497 33.5785   5
  -3   5   9 380.620 29.6670  15
  -3   5   8 1682.07 58.9220   5
  -3   5   8 1514.23 52.3630  15
  -3   5   7 2667.34 74.6692   5
  -3   5   7 2452.48 66.1847  15
  -3   5   6 10999.0 149.884   5
  -3   5   6 9981.72 131.575  15
  -3   5   5 996.471 52.5813   5
  -3   5   4 3479.43 90.9552   5
  -3   5   3 12.4535 29.1794   5
  -3   5   2 32.6737 30.1284   5
  -3   5   1 32.6589 32.5130   5
  -3   5   0 553.928 49.1439   5
  -3   5  -1 522.118 48.1916   5
   3   5   2 1098.73 58.0275  19
  -3   5  -2 1232.65 63.2607   5
   3   5   3 1500.85 66.0475  19
   3   5   4 759.858 52.6577  19
   3   5   5 688.180 49.0045  19
   3   5   6 3148.53 85.1745  19
   4   0 -17 2.75623 12.3720   2
   4   0 -16 343.664 33.7883   2
   4   0 -15-36.8482 44.4460   2
   4   0 -14 2126.51 111.391   2
   4   0 -13 40.9478 63.6475   2
   4   0 -12 85.1005 73.2928   2
   4   0 -11 148.869 83.1730   2
   4   0 -10 595.928 107.255   2
  -4   0   8 275.231 31.3930  13
  -4   0   6 134.824 29.6443  13
  -4   0   4 2112.21 72.3679  14
  -4   0   4 2004.48 69.9072  13
  -4   0   3 1357.26 65.6156  14
  -4   0   3 917.998 55.8245  13
  -4   0   2 27654.4 253.325  14
  -4   0   2 27198.2 248.318  13
  -4   0   1 368.412 44.3044  14
  -4   0   1 264.989 44.5205  13
  -4   0   0 2037.79 71.4329  14
  -4   0   0 2063.14 73.5864  13
  -4   0  -1 84.1301 35.2501  13
  -4   0  -1 80.4585 33.0881  14
  -4   0  -2 3637.98 89.7863  14
  -4   0  -2 3677.55 93.0046  13
  -4   0  -3-16.8670 30.7901  13
  -4   0  -3-18.5250 28.7773  14
  -4   0  -4 40.7502 29.0695  13
  -4   0  -4 7.20039 28.2371  14
  -4   0  -5 25.2059 28.8539  13
  -4   0  -5-15.4029 28.6910  14
  -4   0  -6 1746.04 62.1327  14
  -4   0  -6 1766.05 67.5949  13
  -4   0  -7-31.8151 33.5617  13
  -4   0  -7 47.4396 29.3031  14
  -4   0  -8 502.448 43.2480  13
  -4   0  -9 72.3469 33.3679  13
  -4   0 -10 14300.6 157.392  13
  -4   0 -11 111.420 30.0235  13
  -4   0 -12 271.376 31.6013  13
   4  -1 -16 25.9642 15.4473   2
   4   1 -16 26.3285 16.7764   2
   4  -1 -15 447.254 43.5050   2
   4   1 -15 379.936 42.8281   2
  -4   1  15 693.224 27.2435  13
  -4  -1  15 599.224 25.9497  13
   4  -1 -14 260.834 54.9084   2
   4   1 -14 189.987 54.5447   2
  -4   1  14 392.858 24.1204  13
  -4  -1  14 371.630 23.1124  13
   4  -1 -13 3501.42 126.915   2
   4   1 -13 3310.93 128.808   2
   4  -1 -12 908.196 90.6566   2
   4   1 -12 841.718 88.8602   2
  -4  -1  12 1049.62 39.7929  13
   4  -1 -11 1700.47 115.454   2
   4   1 -11 1601.16 114.814   2
  -4   1  11 1853.99 53.3686  13
  -4  -1  11 1847.20 53.0672  13
   4  -1 -10 4691.03 179.222   2
   4   1 -10 4539.28 180.482   2
  -4   1  10 4853.15 88.3459  13
  -4  -1  10 4775.81 87.2527  13
  -4   1   9 23.0041 20.8620  13
  -4  -1   9 18.3064 20.9846  13
   4  -1  -9 300.912 93.2016   2
   4   1  -9 413.755 102.634   2
  -4   1   8 91.8288 25.2331  13
  -4  -1   8 88.2567 24.3495  13
  -4   1   7 200.150 29.3257  13
  -4  -1   7 208.116 29.5477  13
  -4   1   6 1110.41 52.3448  13
  -4  -1   6 1068.53 51.3079  13
  -4   1   5 468.566 38.3302  13
  -4  -1   5 501.169 39.0139  13
  -4   1   4 4.90161 25.7524  13
  -4  -1   4 6.08334 25.8055  13
  -4   1   3 2850.96 79.6857  13
  -4  -1   3 2785.30 78.1910  13
  -4   1   2 197.574 36.5610  13
  -4  -1   2 202.105 37.3349  13
  -4   1   1 4948.85 106.013  13
  -4  -1   1 4920.22 104.855  13
  -4  -1   0 2093.67 71.8839  13
  -4   1   0 2011.75 70.8457  13
  -4  -1  -1 7.42572 28.5161  13
  -4   1  -1 13.6424 28.8027  13
  -4  -1  -2 958.855 51.3120  13
  -4   1  -2 945.537 50.9571  13
  -4  -1  -3 25.3884 27.3121  13
  -4   1  -3 24.7354 27.1365  13
  -4  -1  -4 418.942 37.7881  13
  -4   1  -4 407.910 38.0004  13
  -4  -1  -5 232.234 37.8519  13
  -4   1  -5 222.442 37.1765  13
  -4  -1  -6 646.580 47.1297  13
  -4   1  -6 676.715 47.6917  13
  -4  -1  -7 6034.66 108.853  13
  -4   1  -7 5978.84 108.920  13
  -4  -1  -8 7217.58 115.792  13
  -4   1  -8 7381.25 117.578  13
  -4  -1  -9 14130.9 151.462  13
  -4   1  -9 14329.0 152.627  13
  -4  -1 -10 12867.8 139.531  13
  -4   1 -10 12856.4 139.323  13
  -4  -1 -11 590.408 37.1038  13
  -4   1 -11 553.391 37.4500  13
  -4  -1 -12 6417.14 93.7046  13
   4  -2 -12 5886.67 116.461   2
  -4  -2  12 8336.22 83.0881  13
   4  -2 -11 5256.02 130.311   2
  -4  -2  11 7143.89 82.5671  13
   4  -2 -10 1021.73 78.7209   2
  -4  -2  10 1357.60 40.0854  13
  -4  -2   9 16.9770 17.7668  13
   4  -2  -9 82.3397 61.7949   2
   4  -2  -8 3579.69 146.587   2
  -4  -2   8 4571.41 77.6080  13
   4  -2  -7 4094.23 161.641   2
  -4  -2   7 5207.64 85.1749  13
  -4  -2   6 1850.49 62.6301  14
  -4  -2   6 1705.34 53.3703  13
  -4  -2   5 5056.57 99.9264  14
  -4  -2   5 4693.25 86.1428  13
  -4  -2   4 1411.38 58.2134  14
  -4  -2   4 1267.00 50.0375  13
  -4  -2   3 799.470 47.5201  14
  -4  -2   3 745.209 40.7744  13
  -4  -2   2 218.718 34.7479  14
  -4  -2   2 190.794 27.8907  13
  -4  -2   1 27.9971 23.3558  13
  -4  -2   1 20.5659 28.7641  14
  -4  -2   0 255.935 34.2962  14
  -4  -2   0 305.347 31.0013  13
  -4  -2  -1-6.43134 22.7532  13
  -4  -2  -1-31.9890 29.4703  14
  -4  -2  -2 17.5631 22.7580  13
  -4  -2  -2-2.76776 27.5207  14
  -4  -2  -3 146.340 29.5486  13
  -4  -2  -3 202.863 32.7627  14
  -4  -2  -4-11.0767 26.9196  13
  -4  -2  -4-12.8443 26.9081  14
  -4  -2  -5 70.5523 26.9862  13
  -4  -2  -5 148.507 31.3949  14
   4   2   6 466.287 64.8128  19
  -4  -2  -6 526.100 39.1581  14
  -4  -2  -6 427.367 34.5721  13
   4   2   7 3340.68 114.993  19
  -4  -2  -7 3301.39 68.6730  13
   4   2   8 15824.6 199.649  19
  -4  -2  -8 16554.9 144.094  13
  -4  -2  -9 3866.62 67.7344  13
   4   2   9 3307.07 80.9710  19
   4   2  10 292.969 30.9169  19
  -4  -3  10 129.753 17.7167  14
  -4  -3   9 320.394 23.7657  14
  -4  -3   8 3838.54 66.2625  14
  -4  -3   7 23.4533 21.1736  14
  -4  -3   6 41.3409 23.2270  14
  -4  -3   5 7033.80 97.1546  14
  -4  -3   4 18843.1 161.735  14
  -4  -3   3 5505.71 88.7823  14
  -4  -3   2 2973.82 67.0393  14
  -4  -3   1 5559.43 88.6239  14
  -4  -3   0 895.482 43.0650  14
  -4  -3  -1 4095.84 76.5358  14
   4   3   2 172.060 59.7324  19
  -4  -3  -2-17.3962 25.4550  14
   4   3   3 508.748 62.0592  19
  -4  -3  -3 360.202 31.6554  14
   4   3   4 2472.38 95.0838  19
  -4  -3  -4 2110.72 55.5458  14
   4   3   5 360.866 47.5754  19
  -4  -3  -5 239.559 27.5670  14
   4   3   6 309.318 38.6490  19
   4   3   7 698.111 42.5297  19
   4   3   8 260.893 31.7160  19
   0   0   0    0.00    0.00   0

TITL SJK-246-F-OUDANBEN-298K-2_auto in P2(1)/c
REM P2(1)/c (#14 in standard setting)
CELL 1.54184   3.767186   6.263233  24.151585  90.0000  92.0078  90.0000
ZERR   11.00   0.000120   0.000210   0.000747   0.0000   0.0027   0.0000
LATT  1
SYMM -x, y+1/2,-z+1/2
SFAC C H N F
UNIT 11.00 11.00 11.00 11.00
REM  CrysAlisPro recorded range (K): Min=297.8; max=298.1; aver:298.0
TEMP 25
TREF
HKLF 4
END
;
_shelx_hkl_checksum              18748
_olex2_submission_special_instructions 'No special instructions were received'
_oxdiff_exptl_absorpt_empirical_details
;
Empirical correction (ABSPACK) includes:
- Absorption correction using spherical harmonics
- Frame scaling
;
_oxdiff_exptl_absorpt_empirical_full_max 2.729
_oxdiff_exptl_absorpt_empirical_full_min 0.663
loop_
_space_group_symop_operation_xyz
'x, y, z'
'-x, y+1/2, -z'
loop_
_atom_site_label
_atom_site_type_symbol
_atom_site_fract_x
_atom_site_fract_y
_atom_site_fract_z
_atom_site_U_iso_or_equiv
_atom_site_adp_type
_atom_site_occupancy
_atom_site_site_symmetry_order
_atom_site_calc_flag
_atom_site_refinement_flags_posn
_atom_site_refinement_flags_adp
_atom_site_refinement_flags_occupancy
_atom_site_disorder_assembly
_atom_site_disorder_group
F3 F -0.8681(6) -0.7793(6) -0.35800(10) 0.0641(8) Uani 1 1 d . . . . .
F4 F -1.1292(6) -1.3686(6) -0.14231(9) 0.0634(8) Uani 1 1 d . . . . .
C1 C -1.0913(8) -1.0932(9) -0.32233(13) 0.0402(11) Uani 1 1 d . . . . .
C12 C -0.7426(9) -0.8548(11) -0.16660(15) 0.0500(12) Uani 1 1 d D . . . .
F5 F -0.6183(6) -0.8762(8) -0.01774(7) 0.0750(11) Uani 1 1 d . . . . .
N3 N -0.6625(8) -0.7106(6) -0.20729(10) 0.0492(9) Uani 1 1 d D . . . .
H3A H -0.821119 -0.717258 -0.233893 0.059 Uiso 1 1 d R U . . .
H3B H -0.661448 -0.583568 -0.193453 0.059 Uiso 1 1 d R U . . .
N1 N -1.0308(7) -1.1300(7) -0.22944(11) 0.0435(9) Uani 1 1 d . . . . .
F2 F -1.3865(6) -1.2643(8) -0.48184(7) 0.0777(12) Uani 1 1 d . . . . .
C11 C -0.6493(9) -0.7934(11) -0.11194(14) 0.0538(12) Uani 1 1 d . . . . .
H11 H -0.548606 -0.660472 -0.104416 0.065 Uiso 1 1 calc R U . . .
N2 N -0.9761(7) -1.0143(8) -0.27120(11) 0.0492(11) Uani 1 1 d . . . . .
C5 C -1.1250(9) -1.0126(11) -0.42115(15) 0.0533(14) Uani 1 1 d . . . . .
H5 H -1.084896 -0.918412 -0.450033 0.064 Uiso 1 1 calc R U . . .
F1 F -1.3298(8) -1.4272(6) -0.29333(10) 0.0828(11) Uani 1 1 d . U . . .
C4 C -1.2837(9) -1.2111(11) -0.42935(14) 0.0504(14) Uani 1 1 d . . . . .
C9 C -0.8724(9) -1.1256(10) -0.07872(15) 0.0511(13) Uani 1 1 d . . . . .
H9 H -0.915985 -1.216408 -0.049250 0.061 Uiso 1 1 calc R U . . .
C6 C -1.0333(9) -0.9674(10) -0.36747(16) 0.0444(11) Uani 1 1 d . . . . .
C7 C -0.9065(9) -1.0427(10) -0.17851(13) 0.0431(12) Uani 1 1 d . . . . .
C8 C -0.9693(9) -1.1803(10) -0.13245(15) 0.0479(14) Uani 1 1 d . . . . .
C2 C -1.2613(9) -1.2989(9) -0.33407(13) 0.0442(10) Uani 1 1 d . U . . .
C3 C -1.3579(9) -1.3515(10) -0.38801(13) 0.0507(11) Uani 1 1 d . . . . .
H3 H -1.471450 -1.480150 -0.396087 0.061 Uiso 1 1 calc R U . . .
C10 C -0.7107(9) -0.9336(12) -0.07057(14) 0.0556(18) Uani 1 1 d . . . . .
loop_
_atom_site_aniso_label
_atom_site_aniso_U_11
_atom_site_aniso_U_22
_atom_site_aniso_U_33
_atom_site_aniso_U_23
_atom_site_aniso_U_13
_atom_site_aniso_U_12
F3 0.0796(16) 0.053(2) 0.0599(13) 0.0063(18) 0.0030(12) -0.012(2)
F4 0.0833(17) 0.0473(18) 0.0590(13) 0.0026(18) -0.0068(13) -0.012(2)
C1 0.0345(15) 0.042(3) 0.0436(17) -0.003(2) 0.0005(13) 0.007(2)
C12 0.0420(19) 0.057(3) 0.0512(19) 0.002(3) -0.0012(15) 0.001(3)
F5 0.0895(16) 0.091(3) 0.0430(10) -0.013(2) -0.0129(10) -0.005(3)
N3 0.0728(18) 0.042(2) 0.0324(11) 0.0021(18) -0.0035(12) -0.010(2)
N1 0.0441(15) 0.039(2) 0.0472(15) 0.0014(19) -0.0005(11) 0.001(2)
F2 0.0913(16) 0.099(3) 0.0415(10) -0.014(2) -0.0104(10) -0.003(3)
C11 0.0500(18) 0.056(3) 0.0545(19) -0.015(3) -0.0028(15) -0.004(3)
N2 0.0560(17) 0.057(3) 0.0343(13) -0.003(2) -0.0029(11) 0.006(2)
C5 0.0490(19) 0.065(4) 0.0464(18) 0.007(3) 0.0048(15) 0.008(3)
F1 0.1067(19) 0.065(3) 0.0764(15) 0.008(2) 0.0001(15) -0.024(2)
C4 0.052(2) 0.059(4) 0.0398(17) -0.006(3) -0.0018(14) 0.008(3)
C9 0.059(2) 0.056(4) 0.0386(17) 0.006(3) -0.0067(15) 0.002(3)
C6 0.0413(17) 0.039(3) 0.0528(19) -0.004(3) -0.0022(15) 0.006(2)
C7 0.0452(17) 0.047(3) 0.0366(16) 0.001(2) -0.0031(13) 0.003(2)
C8 0.049(2) 0.050(4) 0.0440(18) 0.008(3) 0.0020(15) -0.001(3)
C2 0.051(2) 0.040(3) 0.0407(15) 0.002(2) 0.0024(14) 0.002(2)
C3 0.0515(19) 0.048(3) 0.0520(18) -0.002(3) -0.0043(15) -0.002(3)
C10 0.051(2) 0.077(5) 0.0378(16) -0.008(3) -0.0081(14) 0.005(3)
loop_
_atom_type_symbol
_atom_type_description
_atom_type_scat_dispersion_real
_atom_type_scat_dispersion_imag
_atom_type_scat_source
C C 0.0181 0.0091 'International Tables Vol C Tables 4.2.6.8 and 6.1.1.4'
H H 0.0000 0.0000 'International Tables Vol C Tables 4.2.6.8 and 6.1.1.4'
F F 0.0727 0.0534 'International Tables Vol C Tables 4.2.6.8 and 6.1.1.4'
N N 0.0311 0.0180 'International Tables Vol C Tables 4.2.6.8 and 6.1.1.4'
loop_
_geom_angle_atom_site_label_1
_geom_angle_atom_site_label_2
_geom_angle_atom_site_label_3
_geom_angle
_geom_angle_site_symmetry_1
_geom_angle_site_symmetry_3
_geom_angle_publ_flag
N2 C1 C2 127.5(4) . . ?
C6 C1 N2 116.8(5) . . ?
C6 C1 C2 115.7(3) . . ?
N3 C12 C11 115.9(5) . . ?
C7 C12 N3 121.9(4) . . ?
C7 C12 C11 122.2(5) . . ?
C12 N3 H3A 109.7 . . ?
C12 N3 H3B 109.1 . . ?
H3A N3 H3B 109.0 . . ?
N2 N1 C7 114.5(3) . . ?
C12 C11 H11 121.0 . . ?
C10 C11 C12 118.1(5) . . ?
C10 C11 H11 121.0 . . ?
N1 N2 C1 116.8(4) . . ?
C4 C5 H5 122.7 . . ?
C6 C5 H5 122.7 . . ?
C6 C5 C4 114.6(5) . . ?
F2 C4 C5 117.4(4) . . ?
F2 C4 C3 117.8(5) . . ?
C3 C4 C5 124.7(4) . . ?
C8 C9 H9 121.4 . . ?
C10 C9 H9 121.4 . . ?
C10 C9 C8 117.3(5) . . ?
F3 C6 C1 117.0(4) . . ?
F3 C6 C5 116.4(5) . . ?
C5 C6 C1 126.6(5) . . ?
C12 C7 N1 131.0(4) . . ?
C12 C7 C8 116.3(4) . . ?
N1 C7 C8 112.6(5) . . ?
F4 C8 C9 119.2(4) . . ?
F4 C8 C7 118.4(4) . . ?
C9 C8 C7 122.4(5) . . ?
F1 C2 C1 119.6(3) . . ?
F1 C2 C3 120.9(5) . . ?
C3 C2 C1 119.5(4) . . ?
C4 C3 C2 118.8(5) . . ?
C4 C3 H3 120.6 . . ?
C2 C3 H3 120.6 . . ?
F5 C10 C9 117.9(5) . . ?
C11 C10 F5 118.4(5) . . ?
C11 C10 C9 123.6(4) . . ?
loop_
_geom_bond_atom_site_label_1
_geom_bond_atom_site_label_2
_geom_bond_distance
_geom_bond_site_symmetry_2
_geom_bond_publ_flag
F3 C6 1.348(7) . ?
F4 C8 1.342(7) . ?
C1 N2 1.386(4) . ?
C1 C6 1.369(7) . ?
C1 C2 1.462(7) . ?
C12 N3 1.376(5) . ?
C12 C11 1.408(5) . ?
C12 C7 1.355(8) . ?
F5 C10 1.359(4) . ?
N3 H3A 0.8630 . ?
N3 H3B 0.8632 . ?
N1 N2 1.265(3) . ?
N1 C7 1.411(5) . ?
F2 C4 1.354(4) . ?
C11 H11 0.9300 . ?
C11 C10 1.356(7) . ?
C5 H5 0.9300 . ?
C5 C4 1.391(10) . ?
C5 C6 1.360(5) . ?
F1 C2 1.303(5) . ?
C4 C3 1.366(7) . ?
C9 H9 0.9300 . ?
C9 C8 1.379(5) . ?
C9 C10 1.359(9) . ?
C7 C8 1.433(7) . ?
C2 C3 1.380(5) . ?
C3 H3 0.9300 . ?
loop_
_geom_hbond_atom_site_label_D
_geom_hbond_atom_site_label_H
_geom_hbond_atom_site_label_A
_geom_hbond_distance_DH
_geom_hbond_distance_HA
_geom_hbond_distance_DA
_geom_hbond_angle_DHA
_geom_hbond_site_symmetry_A
_geom_hbond_publ_flag
N3 H3A N2 0.86 2.14 2.696(6) 121.8 . yes
loop_
_geom_torsion_atom_site_label_1
_geom_torsion_atom_site_label_2
_geom_torsion_atom_site_label_3
_geom_torsion_atom_site_label_4
_geom_torsion
_geom_torsion_site_symmetry_1
_geom_torsion_site_symmetry_2
_geom_torsion_site_symmetry_3
_geom_torsion_site_symmetry_4
_geom_torsion_publ_flag
C1 C2 C3 C4 1.6(6) . . . . ?
C12 C11 C10 F5 179.4(4) . . . . ?
C12 C11 C10 C9 -3.3(7) . . . . ?
C12 C7 C8 F4 -179.6(4) . . . . ?
C12 C7 C8 C9 0.6(6) . . . . ?
N3 C12 C11 C10 -177.5(4) . . . . ?
N3 C12 C7 N1 -1.2(7) . . . . ?
N3 C12 C7 C8 178.9(4) . . . . ?
N1 C7 C8 F4 0.5(6) . . . . ?
N1 C7 C8 C9 -179.4(4) . . . . ?
F2 C4 C3 C2 -178.8(4) . . . . ?
C11 C12 C7 N1 177.7(4) . . . . ?
C11 C12 C7 C8 -2.2(7) . . . . ?
N2 C1 C6 F3 0.4(5) . . . . ?
N2 C1 C6 C5 -179.7(4) . . . . ?
N2 C1 C2 F1 2.4(6) . . . . ?
N2 C1 C2 C3 -179.8(4) . . . . ?
N2 N1 C7 C12 1.0(6) . . . . ?
N2 N1 C7 C8 -179.2(3) . . . . ?
C5 C4 C3 C2 -2.1(7) . . . . ?
F1 C2 C3 C4 179.4(4) . . . . ?
C4 C5 C6 F3 177.9(4) . . . . ?
C4 C5 C6 C1 -2.0(6) . . . . ?
C6 C1 N2 N1 179.7(3) . . . . ?
C6 C1 C2 F1 -179.2(4) . . . . ?
C6 C1 C2 C3 -1.4(6) . . . . ?
C6 C5 C4 F2 179.0(4) . . . . ?
C6 C5 C4 C3 2.2(6) . . . . ?
C7 C12 C11 C10 3.5(7) . . . . ?
C7 N1 N2 C1 179.7(4) . . . . ?
C8 C9 C10 F5 179.1(4) . . . . ?
C8 C9 C10 C11 1.7(7) . . . . ?
C2 C1 N2 N1 -1.9(5) . . . . ?
C2 C1 C6 F3 -178.2(3) . . . . ?
C2 C1 C6 C5 1.7(6) . . . . ?
C10 C9 C8 F4 179.9(4) . . . . ?
C10 C9 C8 C7 -0.3(7) . . . . ?
