#------------------------------------------------------------------------------
#$Date: 2022-04-14 01:14:49 +0300 (Thu, 14 Apr 2022) $
#$Revision: 274513 $
#$URL: file:///home/coder/svn-repositories/cod/cif/1/56/67/1566793.cif $
#------------------------------------------------------------------------------
#
# This file is available in the Crystallography Open Database (COD),
# http://www.crystallography.net/
#
# All data on this site have been placed in the public domain by the
# contributors.
#
data_1566793
loop_
_publ_author_name
'Yan, Qiaolin'
'Duan, Meng'
'Chen, Cien'
'Deng, Zhiqin'
'Wu, Mandi'
'Yu, Peiyuan'
'He, Ming-Liang'
'Zhu, Guangyu'
'Houk, Kendall N.'
'Sun, Jianwei'
_publ_section_title
;
 Organocatalytic Discrimination of Non-Directing Aryl and Heteroaryl
 Groups: Enantioselective Synthesis of Bioactive Indole-Containing
 Triarylmethanes
;
_journal_name_full               'Chemical Science'
_journal_paper_doi               10.1039/D2SC00636G
_journal_year                    2022
_chemical_absolute_configuration ad
_chemical_formula_moiety         'C20 H17 N S'
_chemical_formula_sum            'C20 H17 N S'
_chemical_formula_weight         303.40
_chemical_name_systematic
(S)-3-Methyl-2-(phenyl(thiophen-3-yl)methyl)-1H-indole
_space_group_crystal_system      triclinic
_space_group_IT_number           1
_space_group_name_Hall           'P 1'
_space_group_name_H-M_alt        'P 1'
_atom_sites_solution_hydrogens   geom
_atom_sites_solution_primary     dual
_audit_creation_date             2021-10-15
_audit_creation_method
;
Olex2 1.5-alpha
(compiled 2021.10.07 svn.r9718050b for OlexSys, GUI svn.r6410)
;
_audit_update_record
;
2021-10-20 deposited with the CCDC.	2022-04-13 downloaded from the CCDC.
;
_cell_angle_alpha                103.482(4)
_cell_angle_beta                 103.756(4)
_cell_angle_gamma                102.858(4)
_cell_formula_units_Z            2
_cell_length_a                   8.4366(4)
_cell_length_b                   8.5299(4)
_cell_length_c                   11.8199(6)
_cell_measurement_reflns_used    4268
_cell_measurement_temperature    100.01(10)
_cell_measurement_theta_max      76.1110
_cell_measurement_theta_min      4.0170
_cell_volume                     767.86(7)
_computing_cell_refinement       'CrysAlisPro 1.171.41.93a (Rigaku OD, 2020)'
_computing_data_collection       'CrysAlisPro 1.171.41.93a (Rigaku OD, 2020)'
_computing_data_reduction        'CrysAlisPro 1.171.41.93a (Rigaku OD, 2020)'
_computing_molecular_graphics    'Olex2 1.5-alpha (Dolomanov et al., 2009)'
_computing_publication_material  'Olex2 1.5-alpha (Dolomanov et al., 2009)'
_computing_structure_refinement  'SHELXL 2014/7 (Sheldrick, 2015)'
_computing_structure_solution    'SHELXT  (Sheldrick, 2015)'
_diffrn_ambient_environment      N~2~
_diffrn_ambient_temperature      100.01(10)
_diffrn_detector                 'CCD plate'
_diffrn_detector_area_resol_mean 5.1788
_diffrn_detector_type            Atlas
_diffrn_measured_fraction_theta_full 0.969
_diffrn_measured_fraction_theta_max 0.943
_diffrn_measurement_details
;
List of Runs (angles in degrees, time in seconds):

  # Type    Start    End  Width  t~exp~   \w     \q     \k     \f   Frames
#--------------------------------------------------------------------------
  1  \w    120.00 170.00   1.00    2.50    --  113.00  77.00  60.00   50
  2  \w     10.00 105.00   1.00    1.00    --   39.95  57.00 -60.00   95
  3  \w     -7.00  64.00   1.00    1.00    --   39.95 -37.00  30.00   71
  4  \w     12.00  74.00   1.00    1.00    --   39.95 -77.00 -30.00   62
  5  \w     19.00 103.00   1.00    1.00    --   39.95  37.00-150.00   84
  6  \w    -34.00  -8.00   1.00    1.00    --   39.95 -37.00  30.00   26
  7  \w     68.00 109.00   1.00    2.50    --  113.00-111.00-120.00   41
  8  \w     34.00  91.00   1.00    2.50    --  113.00 -77.00 150.00   57
  9  \w     36.00  66.00   1.00    2.50    --  113.00-111.00-120.00   30
 10  \w     88.00 178.00   1.00    2.50    --  113.00  45.00  30.00   90
 11  \w     38.00 109.00   1.00    2.50    --  113.00-111.00  60.00   71
 12  \w     51.00 107.00   1.00    2.50    --  113.00 -94.00  90.00   56
 13  \w     38.00 146.00   1.00    2.50    --  113.00 -77.00-120.00  108
 14  \w     86.00 178.00   1.00    2.50    --  113.00  45.00 -30.00   92
 15  \w     38.00 138.00   1.00    2.50    --  113.00 -30.00   0.00  100
;
_diffrn_measurement_device       'kappa diffractometer'
_diffrn_measurement_device_type  'SuperNova, Dual, Cu at zero, Atlas'
_diffrn_measurement_method       '\w scans'
_diffrn_orient_matrix_type
'CrysAlisPro convention (1999,Acta A55,543-557)'
_diffrn_orient_matrix_UB_11      0.1082845000
_diffrn_orient_matrix_UB_12      -0.0200404000
_diffrn_orient_matrix_UB_13      0.1176353000
_diffrn_orient_matrix_UB_21      0.1126399000
_diffrn_orient_matrix_UB_22      0.1835208000
_diffrn_orient_matrix_UB_23      0.0350928000
_diffrn_orient_matrix_UB_31      -0.1194999000
_diffrn_orient_matrix_UB_32      0.0606891000
_diffrn_orient_matrix_UB_33      0.0688781000
_diffrn_radiation_monochromator  mirror
_diffrn_radiation_probe          x-ray
_diffrn_radiation_type           CuK\a
_diffrn_radiation_wavelength     1.54184
_diffrn_reflns_av_R_equivalents  0.0274
_diffrn_reflns_av_unetI/netI     0.0261
_diffrn_reflns_Laue_measured_fraction_full 0.969
_diffrn_reflns_Laue_measured_fraction_max 0.943
_diffrn_reflns_limit_h_max       7
_diffrn_reflns_limit_h_min       -10
_diffrn_reflns_limit_k_max       10
_diffrn_reflns_limit_k_min       -9
_diffrn_reflns_limit_l_max       14
_diffrn_reflns_limit_l_min       -14
_diffrn_reflns_number            4569
_diffrn_reflns_point_group_measured_fraction_full 0.546
_diffrn_reflns_point_group_measured_fraction_max 0.528
_diffrn_reflns_theta_full        67.684
_diffrn_reflns_theta_max         76.202
_diffrn_reflns_theta_min         4.039
_diffrn_source                   'micro-focus sealed X-ray tube'
_diffrn_source_current           0.80
_diffrn_source_power             0.040
_diffrn_source_target            Cu
_diffrn_source_type              'SuperNova (Cu) X-ray Source'
_diffrn_source_voltage           50
_exptl_absorpt_coefficient_mu    1.811
_exptl_absorpt_correction_T_max  1.00000
_exptl_absorpt_correction_T_min  0.50162
_exptl_absorpt_correction_type   multi-scan
_exptl_absorpt_process_details
;
CrysAlisPro 1.171.41.93a (Rigaku Oxford Diffraction, 2020)
Empirical absorption correction using spherical harmonics,
implemented in SCALE3 ABSPACK scaling algorithm.
;
_exptl_crystal_colour            colourless
_exptl_crystal_colour_primary    colourless
_exptl_crystal_density_diffrn    1.312
_exptl_crystal_description       block
_exptl_crystal_F_000             320
_exptl_crystal_recrystallization_method
'Re-crystallisation from solvent: hexane and ethyl acetate'
_exptl_crystal_size_max          0.4
_exptl_crystal_size_mid          0.35
_exptl_crystal_size_min          0.15
_refine_diff_density_max         0.480
_refine_diff_density_min         -0.316
_refine_diff_density_rms         0.051
_refine_ls_abs_structure_details
;
 Classical Flack method preferred over Parsons because s.u. lower.
;
_refine_ls_abs_structure_Flack   0.016(17)
_refine_ls_extinction_method     none
_refine_ls_goodness_of_fit_ref   1.042
_refine_ls_hydrogen_treatment    constr
_refine_ls_matrix_type           full
_refine_ls_number_parameters     444
_refine_ls_number_reflns         3400
_refine_ls_number_restraints     132
_refine_ls_restrained_S_all      1.031
_refine_ls_R_factor_all          0.0371
_refine_ls_R_factor_gt           0.0367
_refine_ls_shift/su_max          0.000
_refine_ls_shift/su_mean         0.000
_refine_ls_structure_factor_coef Fsqd
_refine_ls_weighting_details
'w=1/[\s^2^(Fo^2^)+(0.0636P)^2^+0.3778P] where P=(Fo^2^+2Fc^2^)/3'
_refine_ls_weighting_scheme      calc
_refine_ls_wR_factor_gt          0.0964
_refine_ls_wR_factor_ref         0.0966
_reflns_Friedel_coverage         0.119
_reflns_Friedel_fraction_full    0.123
_reflns_Friedel_fraction_max     0.112
_reflns_number_gt                3388
_reflns_number_total             3400
_reflns_threshold_expression     'I > 2\s(I)'
_cod_data_source_file            d2sc00636g2.cif
_cod_data_source_block           qyan2cult
_cod_original_cell_volume        767.85(7)
_cod_database_code               1566793
_shelx_shelxl_version_number     2014/7
_chemical_oxdiff_formula         'C20 H18 O4'
_shelx_space_group_comment
;
The symmetry employed for this shelxl refinement is uniquely defined
by the following loop, which should always be used as a source of
symmetry information in preference to the above space-group names.
They are only intended as comments.
;
_shelx_estimated_absorpt_t_max   0.773
_shelx_estimated_absorpt_t_min   0.531
_olex2_refinement_description
;
1. Fixed Uiso
 At 1.2 times of:
  All C(H) groups, All C(H,H) groups, All N(H) groups
 At 1.5 times of:
  All C(H,H,H) groups
2. Restrained distances
 C9-C6 \\sim C9-C7 \\sim C7-C8
 with sigma of 0.02
 C5-C4 \\sim C4-C3 \\sim C3-C2
 with sigma of 0.02
 S2-C6 \\sim S2-C8
 with sigma of 0.02
 S1-C5 \\sim S1-C2
 with sigma of 0.02
 C9-C1 \\sim C3-C1
 with sigma of 0.02
3. Uiso/Uaniso restraints and constraints
Uanis(S1) \\sim Ueq, Uanis(C2) \\sim Ueq, Uanis(C3) \\sim Ueq, Uanis(C4) \\sim
Ueq, Uanis(C5) \\sim Ueq: with sigma of 0.003 and sigma for terminal atoms of
0.005
Uanis(S2) \\sim Ueq, Uanis(C9) \\sim Ueq, Uanis(C8) \\sim Ueq, Uanis(C6) \\sim
Ueq, Uanis(C7) \\sim Ueq: with sigma of 0.003 and sigma for terminal atoms of
0.005
4. Rigid body (RIGU) restrains
 S2, C6, C7, C8, C9
 with sigma for 1-2 distances of 0.001 and sigma for 1-3 distances of 0.001
 S1, C2, C3, C4, C5
 with sigma for 1-2 distances of 0.001 and sigma for 1-3 distances of 0.001
5. Others
 Fixed Sof: S1(0.77) S2(0.23) H1A(0.77) H1B(0.23) C2(0.77) H2(0.77) C3(0.77)
 C4(0.77) H4(0.77) C5(0.77) H5(0.77) C6(0.23) H6(0.23) C7(0.23) H7(0.23)
 C8(0.23) H8(0.23) C9(0.23)
6.a Ternary CH refined with riding coordinates:
 C1(H1A), C1(H1B), C1A(H1AB)
6.b Aromatic/amide H refined with riding coordinates:
 N1(H1), C2(H2), C4(H4), C5(H5), C6(H6), C7(H7), C8(H8), C14(H14), C15(H15),
 C16(H16), C17(H17), C22(H22), C23(H23), C24(H24), C25(H25), C26(H26),
 N1A(H1AA), C2A(H2A), C4A(H4A), C5A(H5A), C14A(H14A), C15A(H15A), C16A(H16A),
 C17A(H17A), C22A(H22A), C23A(H23A), C24A(H24A), C25A(H25A), C26A(H26A)
6.c Idealised Me refined as rotating group:
 C19(H19A,H19B,H19C), C19A(H19D,H19E,H19F)
;
_shelx_res_file
;
    qyan2cult.res created by SHELXL-2014/7

TITL qyan2CuLT in P1
REM P1 (#1 in standard setting)
CELL 1.54184 8.436644 8.529857 11.819855 103.4817 103.7562 102.8576
ZERR 2 0.000405 0.000383 0.000619 0.0041 0.0043 0.004
LATT -1
SFAC C H N S
UNIT 40 34 2 2
SADI C9 C6 C9 C7 C7 C8
RIGU 0.001 0.001 S2 C6 > C9
ISOR 0.003 0.005 S1 C2 C3 C4 C5
SADI C5 C4 C4 C3 C3 C2
RIGU 0.001 0.001 S1 C2 > C5
SADI S2 C6 S2 C8
ISOR 0.003 0.005 S2 C9 C8 C6 C7
SADI S1 C5 S1 C2
SADI C9 C1 C3 C1

L.S. 10
PLAN  1
SIZE 0.15 0.35 0.4
TEMP -173.14(10)
CONF
BOND $H
list 4
MORE -1
fmap 2
acta
OMIT 1 2 -2
REM <olex2.extras>
REM <HklSrc "%.\\qyan2CuLT.hkl">
REM </olex2.extras>

WGHT    0.063600    0.377800
FVAR      20.69760
PART 1
S1    4    0.320511    0.312941    0.370530    10.77000    0.02299    0.01521 =
         0.01517    0.00338    0.00006    0.00932
PART 2
S2    4    0.283722    0.454999    0.488134    10.23000    0.01639    0.01661 =
         0.02129    0.00814    0.00568    0.00384
PART 0
N1    3    0.727502    0.532961    0.874001    11.00000    0.01185    0.00788 =
         0.01913    0.00275    0.00807    0.00048
AFIX  43
H1    2    0.640888    0.477157    0.892190    11.00000   -1.20000
AFIX   0
C1    1    0.671525    0.315914    0.670903    11.00000    0.00999    0.00671 =
         0.01766    0.00336    0.00616    0.00277
PART 1
AFIX  13
H1A   2    0.752079    0.282314    0.626887    10.77000   -1.20000
AFIX  13
PART 2
H1B   2    0.749953    0.282455    0.624747    10.23000   -1.20000
AFIX   0
PART 1
C2    1    0.489785    0.267241    0.453061    10.77000    0.02275    0.01850 =
         0.01754    0.00534    0.00410    0.01163
AFIX  43
H2    2    0.550153    0.198129    0.417604    10.77000   -1.20000
AFIX   0
C3    1    0.529146    0.341445    0.576484    10.77000    0.00994    0.00660 =
         0.01696    0.00506    0.00449   -0.00041
C4    1    0.427197    0.448068    0.603032    10.77000    0.01667    0.01332 =
         0.02091    0.00457    0.00678    0.00638
AFIX  43
H4    2    0.442041    0.516295    0.682996    10.77000   -1.20000
AFIX   0
C5    1    0.305537    0.442249    0.501534    10.77000    0.01992    0.01596 =
         0.02199    0.00433    0.00531    0.00710
AFIX  43
H5    2    0.222923    0.501772    0.502662    10.77000   -1.20000
AFIX   0
PART 2
C6    1    0.426346    0.448738    0.610224    10.23000    0.01855    0.01825 =
         0.02062    0.00694    0.00585    0.00648
AFIX  43
H6    2    0.438829    0.510103    0.691585    10.23000   -1.20000
AFIX   0
C7    1    0.465433    0.248627    0.457833    10.23000    0.01759    0.01591 =
         0.02009    0.00727    0.00638    0.00398
AFIX  43
H7    2    0.502610    0.158062    0.420763    10.23000   -1.20000
AFIX   0
C8    1    0.341180    0.310205    0.399657    10.23000    0.01870    0.01795 =
         0.02162    0.00804    0.00630    0.00449
AFIX  43
H8    2    0.291279    0.271545    0.313414    10.23000   -1.20000
AFIX   0
C9    1    0.525924    0.343799    0.580664    10.23000    0.01786    0.01721 =
         0.02020    0.00686    0.00574    0.00527
PART 0
C11   1    0.772353    0.479378    0.769179    11.00000    0.01053    0.00932 =
         0.01641    0.00489    0.00452    0.00376
C12   1    0.910860    0.599858    0.769853    11.00000    0.01074    0.00860 =
         0.02003    0.00563    0.00561    0.00287
C13   1    0.954706    0.736106    0.880759    11.00000    0.00990    0.00932 =
         0.01867    0.00539    0.00355    0.00396
C14   1    1.084734    0.890509    0.933971    11.00000    0.01137    0.01050 =
         0.02438    0.00700    0.00551    0.00135
AFIX  43
H14   2    1.163459    0.925225    0.892593    11.00000   -1.20000
AFIX   0
C15   1    1.096146    0.991344    1.047949    11.00000    0.01601    0.01097 =
         0.02353    0.00348    0.00034    0.00256
AFIX  43
H15   2    1.181232    1.097576    1.083535    11.00000   -1.20000
AFIX   0
C16   1    0.983665    0.938563    1.111456    11.00000    0.01985    0.01171 =
         0.01877    0.00252    0.00153    0.00661
AFIX  43
H16   2    0.996451    1.008420    1.190447    11.00000   -1.20000
AFIX   0
C17   1    0.853727    0.786041    1.061227    11.00000    0.01731    0.01228 =
         0.01899    0.00716    0.00703    0.00523
AFIX  43
H17   2    0.777479    0.750480    1.104101    11.00000   -1.20000
AFIX   0
C18   1    0.840661    0.687958    0.945188    11.00000    0.01111    0.00821 =
         0.01882    0.00598    0.00307    0.00272
C19   1    1.004062    0.589156    0.676361    11.00000    0.01664    0.01210 =
         0.02431    0.00605    0.01134    0.00169
AFIX 137
H19A  2    1.005286    0.685138    0.644032    11.00000   -1.50000
H19B  2    0.946238    0.483758    0.609551    11.00000   -1.50000
H19C  2    1.121610    0.591574    0.714363    11.00000   -1.50000
AFIX   0
C21   1    0.609884    0.171149    0.721312    11.00000    0.01194    0.00580 =
         0.01837    0.00213    0.00950    0.00347
C22   1    0.454322    0.046847    0.659398    11.00000    0.01277    0.01038 =
         0.02056    0.00356    0.00533    0.00116
AFIX  43
H22   2    0.381335    0.054660    0.587448    11.00000   -1.20000
AFIX   0
C23   1    0.405565   -0.089959    0.703467    11.00000    0.01939    0.00898 =
         0.03337    0.00408    0.01152   -0.00298
AFIX  43
H23   2    0.299592   -0.174514    0.660922    11.00000   -1.20000
AFIX   0
C24   1    0.509152   -0.102427    0.806889    11.00000    0.03040    0.00815 =
         0.03236    0.00824    0.02019    0.00505
AFIX  43
H24   2    0.474330   -0.194259    0.836905    11.00000   -1.20000
AFIX   0
C25   1    0.666793    0.020323    0.868661    11.00000    0.02387    0.01561 =
         0.01993    0.00887    0.00834    0.01070
AFIX  43
H25   2    0.740103    0.010924    0.939820    11.00000   -1.20000
AFIX   0
C26   1    0.715583    0.155758    0.825588    11.00000    0.01489    0.01080 =
         0.02192    0.00349    0.00821    0.00445
AFIX  43
H26   2    0.822487    0.239018    0.867817    11.00000   -1.20000
AFIX   0

S1A   4   -0.098030    0.465568    0.284589    11.00000    0.01521    0.02468 =
         0.03453    0.01248    0.00889    0.00386
N1A   3    0.515962    0.760652    0.392939    11.00000    0.01000    0.01157 =
         0.01859    0.00558    0.00501    0.00196
AFIX  43
H1AA  2    0.455010    0.681548    0.414631    11.00000   -1.20000
AFIX   0
C1A   1    0.300638    0.694539    0.187243    11.00000    0.01163    0.00908 =
         0.01642    0.00272    0.00352    0.00318
AFIX  13
H1AB  2    0.263502    0.771062    0.140925    11.00000   -1.20000
AFIX   0
C2A   1    0.050589    0.476116    0.206113    11.00000    0.01286    0.01491 =
         0.02375    0.00735    0.00355    0.00400
AFIX  43
H2A   2    0.056138    0.383054    0.146320    11.00000   -1.20000
AFIX   0
C3A   1    0.159517    0.636357    0.241390    11.00000    0.01068    0.01320 =
         0.01615    0.00504    0.00350    0.00619
C4A   1    0.119984    0.749431    0.333041    11.00000    0.01699    0.01583 =
         0.01617    0.00397    0.00298    0.00824
AFIX  43
H4A   2    0.182428    0.865513    0.368185    11.00000   -1.20000
AFIX   0
C5A   1   -0.016584    0.674457    0.365401    11.00000    0.02205    0.02702 =
         0.01909    0.00823    0.00792    0.01796
AFIX  43
H5A   2   -0.059965    0.731123    0.424756    11.00000   -1.20000
AFIX   0
C11A  1    0.466022    0.798428    0.284887    11.00000    0.01032    0.00908 =
         0.01632    0.00141    0.00517    0.00445
C12A  1    0.590901    0.927340    0.281313    11.00000    0.01457    0.00779 =
         0.01689    0.00219    0.00670    0.00513
C13A  1    0.728346    0.973207    0.391953    11.00000    0.01388    0.00714 =
         0.01762    0.00349    0.00848    0.00525
C14A  1    0.891129    1.091778    0.440893    11.00000    0.01640    0.00916 =
         0.02304    0.00359    0.00943    0.00350
AFIX  43
H14A  2    0.929717    1.163928    0.396512    11.00000   -1.20000
AFIX   0
C15A  1    0.994282    1.102679    0.553555    11.00000    0.01244    0.01002 =
         0.02502    0.00095    0.00575    0.00079
AFIX  43
H15A  2    1.104758    1.182082    0.586326    11.00000   -1.20000
AFIX   0
C16A  1    0.937904    0.997197    0.621130    11.00000    0.01464    0.01434 =
         0.01656    0.00228    0.00229    0.00512
AFIX  43
H16A  2    1.010761    1.007749    0.699097    11.00000   -1.20000
AFIX   0
C17A  1    0.778162    0.878592    0.575661    11.00000    0.01566    0.01265 =
         0.01849    0.00330    0.00768    0.00404
AFIX  43
H17A  2    0.739882    0.808155    0.621222    11.00000   -1.20000
AFIX   0
C18A  1    0.676597    0.866745    0.461342    11.00000    0.01148    0.00745 =
         0.01904    0.00232    0.00814    0.00335
C19A  1    0.583534    1.010596    0.181630    11.00000    0.01844    0.01435 =
         0.02105    0.00926    0.00731    0.00488
AFIX 137
H19D  2    0.566165    1.121202    0.209710    11.00000   -1.50000
H19E  2    0.488647    0.939835    0.108860    11.00000   -1.50000
H19F  2    0.691000    1.024888    0.161502    11.00000   -1.50000
AFIX   0
C21A  1    0.324019    0.550464    0.095363    11.00000    0.01343    0.00785 =
         0.01920    0.00422    0.00846    0.00362
C22A  1    0.455692    0.479194    0.124804    11.00000    0.01326    0.01468 =
         0.01816    0.00542    0.00601    0.00494
AFIX  43
H22A  2    0.534780    0.520438    0.204746    11.00000   -1.20000
AFIX   0
C23A  1    0.471817    0.346536    0.036612    11.00000    0.01833    0.01401 =
         0.03146    0.01032    0.01483    0.00962
AFIX  43
H23A  2    0.561087    0.297443    0.057198    11.00000   -1.20000
AFIX   0
C24A  1    0.358452    0.287558   -0.079607    11.00000    0.02630    0.01183 =
         0.02798    0.00079    0.01994    0.00004
AFIX  43
H24A  2    0.370217    0.198421   -0.139298    11.00000   -1.20000
AFIX   0
C25A  1    0.228860    0.356919   -0.109435    11.00000    0.03236    0.01721 =
         0.01526    0.00052    0.00060   -0.00210
AFIX  43
H25A  2    0.150552    0.315405   -0.189665    11.00000   -1.20000
AFIX   0
C26A  1    0.211345    0.488310   -0.022484    11.00000    0.02275    0.01529 =
         0.02246    0.00383    0.00204    0.00809
AFIX  43
H26A  2    0.121170    0.535908   -0.044151    11.00000   -1.20000
AFIX   0
HKLF 4

REM  qyan2CuLT in P1
REM R1 =  0.0367 for    3388 Fo > 4sig(Fo)  and  0.0371 for all    3400 data
REM    444 parameters refined using    132 restraints

END

WGHT      0.0636      0.3778

REM Highest difference peak  0.480,  deepest hole -0.316,  1-sigma level  0.051
Q1    1   0.3150  0.3342 -0.1233  11.00000  0.05    0.48
;
_shelx_res_checksum              15010
_shelx_hkl_file
;
 -10  -1   4 64008.1 888.557  13
 -10  -1   5 16665.7 401.245  13
 -10  -1   6 5298.21 202.973  13
 -10   0   2 33765.1 613.909  13
 -10   0   3 7567.00 295.242  13
 -10   0   3 6788.08 251.776   7
 -10   0   4 104690. 1278.79   7
 -10   0   4 109832. 1352.31  13
 -10   0   5 57563.3 868.999  13
 -10   0   5 55307.2 833.079   7
 -10   0   6 24142.3 474.177   7
 -10   0   6 25233.7 491.800  13
 -10   1   0 26958.6 562.071   7
 -10   1   1 3529.62 233.610   7
 -10   1   2 23017.9 473.706  13
 -10   1   2 23598.8 659.955   7
 -10   1   3 3252.88 175.695  13
 -10   1   3 3499.39 262.265   7
 -10   1   4 19700.9 609.894   7
 -10   1   4 19380.2 437.731  13
 -10   1   5 52139.8 978.787   7
 -10   1   5 45697.9 678.332  13
 -10   1   6 14982.9 469.434   7
 -10   1   7 18875.3 468.381   7
 -10   2  -1 16345.4 465.481   7
 -10   2   0 32744.3 805.759   7
 -10   2   1 35327.4 907.950   7
 -10   2   2 687.802 134.506   7
 -10   2   3 40732.2 1015.90   7
 -10   2   4 82709.3 1438.46   7
 -10   2   5 79574.6 1337.10   7
 -10   2   6 65227.2 1105.85   7
 -10   2   7 1957.39 156.841   7
 -10   3  -1 14629.1 481.792   7
 -10   3   0 10808.7 463.681   7
 -10   3   1 33729.6 887.296   7
 -10   3   2 7323.90 418.589   7
 -10   3   3 901.579 153.847   7
 -10   3   4 10540.5 455.352   7
 -10   3   5 10326.3 421.126   7
 -10   3   6 23064.1 563.343   7
 -10   3   7 35972.9 629.005   7
 -10   4  -1 51561.8 859.076   7
 -10   4   0 39104.8 814.392   7
 -10   4   0 33810.6 683.732   8
 -10   4   1 115438. 1616.25   8
 -10   4   1 133492. 1727.53   7
 -10   4   2 8089.76 380.485   8
 -10   4   2 9275.77 403.294   7
 -10   4   3 23412.5 631.644   8
 -10   4   3 24136.8 623.640   7
 -10   4   4 14891.9 457.101   7
 -10   4   5 6619.06 269.671   7
 -10   4   6 4056.30 174.150   7
 -10   5   0 94772.6 1197.56   8
 -10   5   1 8953.67 337.548   8
 -10   5   2 66945.0 1029.02   8
 -10   5   3 16157.9 421.811   8
  -9  -3   3 30641.3 640.092  13
  -9  -3   4 37135.0 740.450  13
  -9  -3   5 23530.6 576.943  13
  -9  -3   6 98226.1 1295.43  13
  -9  -3   7 7816.79 292.553  13
  -9  -3   8 20485.5 432.841  13
  -9  -2   0 5665.37 282.750  13
  -9  -2   1 81074.0 1377.78  13
  -9  -2   2 9886.77 475.593  13
  -9  -2   3 7210.82 425.277  13
  -9  -2   4 23745.0 769.350  13
  -9  -2   5 36973.0 943.529  13
  -9  -2   6 51076.8 1058.33  13
  -9  -2   7 31608.7 763.718  13
  -9  -2   8 43174.3 825.987  13
  -9  -2   9 28487.7 572.041  13
  -9  -1  -1 16513.1 558.984  13
  -9  -1   0 30772.9 897.497  13
  -9  -1   1 24543.1 861.108  13
  -9  -1   2 5748.42 315.934   7
  -9  -1   2 5888.86 434.554  13
  -9  -1   3 85937.9 1421.72   7
  -9  -1   3 82602.5 1701.80  13
  -9  -1   4 25384.4 723.393   7
  -9  -1   4 25177.4 875.228  13
  -9  -1   5 14820.6 637.397  13
  -9  -1   5 13985.0 510.621   7
  -9  -1   6 20871.4 607.194   7
  -9  -1   6 21101.0 706.686  13
  -9  -1   7 32227.6 705.586   7
  -9  -1   7 32228.6 826.091  13
  -9  -1   8 76660.4 1228.94  13
  -9  -1   8 72832.8 1038.24   7
  -9  -1   9 18147.6 487.191  13
  -9  -1  10 106973. 1215.52  13
  -9   0  -2 15612.6 448.849   9
  -9   0  -1 28060.6 796.024   9
  -9   0   0 31578.9 956.111   9
  -9   0   1 6792.79 479.819  13
  -9   0   1 6965.36 480.252   9
  -9   0   2 73845.7 1671.32  13
  -9   0   3 5118.24 413.410   7
  -9   0   3 5309.77 422.443  13
  -9   0   4 4411.34 366.814  13
  -9   0   4 3681.18 342.029   7
  -9   0   5 9665.21 519.130   7
  -9   0   5 9309.16 494.037  13
  -9   0   6 95427.0 1593.17  13
  -9   0   6 94292.6 1645.55   7
  -9   0   7 54522.6 1080.30  13
  -9   0   7 54366.2 1126.60   7
  -9   0   8 52661.1 1019.96   7
  -9   0   8 53837.5 978.894  13
  -9   0   9 29983.3 620.443  13
  -9   0   9 30805.0 660.202   7
  -9   0  10 22666.1 431.744  13
  -9   1  -3 48570.8 980.874   9
  -9   1  -3 44443.9 746.848  13
  -9   1  -2 17057.3 690.791   9
  -9   1  -1 53080.9 1412.00   9
  -9   1   0 15083.4 781.815   9
  -9   1   0 14583.3 646.352  13
  -9   1   1 18586.4 887.834   9
  -9   1   1 19162.4 775.072  13
  -9   1   2 107388. 2285.83   9
  -9   1   2 107720. 1944.68  13
  -9   1   3 41124.6 1093.53  13
  -9   1   3 40115.0 1290.48   7
  -9   1   4 51721.5 1427.93   7
  -9   1   4 55040.2 1228.09  13
  -9   1   5 6428.51 463.777   7
  -9   1   5 6955.09 390.841  13
  -9   1   6 7962.32 476.540   7
  -9   1   6 7965.80 383.167  13
  -9   1   7 19102.5 694.533   7
  -9   1   7 19799.6 569.395  13
  -9   1   8 150416. 1736.76  13
  -9   1   8 149720. 2009.54   7
  -9   1   9 3915.73 180.647  13
  -9   1   9 4152.91 254.078   7
  -9   2  -4 1606.19 166.844   9
  -9   2  -3 15290.2 651.964   9
  -9   2  -2 15945.1 780.122   9
  -9   2  -1 21048.9 959.202   9
  -9   2  -1 20197.1 613.074   8
  -9   2   0 60908.8 1315.16   8
  -9   2   0 65209.4 1789.76   9
  -9   2   1 72234.9 1558.07   8
  -9   2   1 80672.8 1994.32   9
  -9   2   2 61305.8 1491.45   8
  -9   2   2 68655.0 1841.78   9
  -9   2   3 26172.2 960.967   8
  -9   2   3 28326.8 1100.27   7
  -9   2   4 14012.0 742.598   7
  -9   2   4 14209.2 690.600   8
  -9   2   5 11993.5 639.784   7
  -9   2   5 12484.5 593.048   8
  -9   2   6 13809.3 624.651   7
  -9   2   7 34755.0 922.686   7
  -9   2   8 8436.02 400.983   7
  -9   2   9 14016.3 453.842   7
  -9   3  -4 1557.60 185.829   9
  -9   3  -3 2257.08 275.349   9
  -9   3  -2 54938.6 1492.38   9
  -9   3  -2 58913.2 1006.69   8
  -9   3  -1 63626.0 1267.02   8
  -9   3  -1 68508.3 1804.10   9
  -9   3   0 14511.4 640.358   8
  -9   3   0 16225.4 858.781   9
  -9   3   1 46793.9 1263.13   8
  -9   3   1 52714.9 1566.92   9
  -9   3   2 54398.0 1388.91   8
  -9   3   3 64951.1 1637.39   7
  -9   3   3 61288.9 1472.09   8
  -9   3   4 110651. 2085.27   7
  -9   3   4 111356. 1951.20   8
  -9   3   5 5451.61 398.767   7
  -9   3   5 5225.65 354.993   8
  -9   3   6 151583. 2186.82   7
  -9   3   7 17801.4 592.820   7
  -9   3   8 4431.08 263.475   7
  -9   4  -4 819.685 131.027   9
  -9   4  -3 39803.5 1055.66   9
  -9   4  -3 42455.0 645.770   8
  -9   4  -2 27728.8 698.328   8
  -9   4  -2 27621.4 960.350   9
  -9   4  -1 3186.09 350.499   9
  -9   4  -1 2907.06 265.412   8
  -9   4   0 33429.8 996.225   8
  -9   4   0 38827.9 1225.56   9
  -9   4   1 92769.5 1805.91   8
  -9   4   2 21981.8 865.721   7
  -9   4   2 20374.1 793.552   8
  -9   4   3 28976.2 953.497   7
  -9   4   3 26981.2 881.894   8
  -9   4   4 80075.7 1483.46   8
  -9   4   4 80422.5 1551.70   7
  -9   4   5 30470.6 822.259   7
  -9   4   5 30507.2 747.158   8
  -9   4   6 18913.1 582.667   7
  -9   4   7 20263.3 529.713   7
  -9   5  -3 18623.7 561.466   9
  -9   5  -3 18257.0 434.825   8
  -9   5  -2 8449.71 433.817   9
  -9   5  -2 7738.44 360.715   8
  -9   5  -1 11052.6 496.904   8
  -9   5   0 1587.87 213.619   8
  -9   5   0 2208.87 240.546   7
  -9   5   1 35308.9 1006.07   8
  -9   5   1 41117.7 1015.30   7
  -9   5   2 142.102 91.8903   8
  -9   5   2 95.3008 76.3310   7
  -9   5   3 14386.6 518.218   7
  -9   5   3 13225.7 541.034   8
  -9   5   4 21540.7 610.233   8
  -9   5   4 22792.2 608.506   7
  -9   5   5 102397. 1310.30   7
  -9   5   5 92644.5 1852.44  12
  -9   5   6 6182.50 223.808   7
  -9   6  -3 49207.5 717.655   8
  -9   6  -2 30788.1 692.313   8
  -9   6  -1 10996.3 463.318   8
  -9   6   0 4086.67 299.483   8
  -9   6   1 15999.7 581.115   8
  -9   6   2 39270.7 878.602   8
  -9   6   3 28636.9 650.250   8
  -9   6   4 4446.35 365.587  12
  -9   6   5 20011.9 684.401  12
  -9   7  -2 72657.1 968.342   8
  -9   7  -1 47788.3 824.632   8
  -9   7   0 26062.9 602.198   8
  -9   7   1 13833.9 411.587   8
  -9   7   2 2561.46 143.789   8
  -8  -4   1 18538.2 429.759  13
  -8  -4   2 24438.4 624.199  13
  -8  -4   3 18823.4 578.462  13
  -8  -4   4 13364.0 506.131  13
  -8  -4   5 24971.3 684.456  13
  -8  -4   6 8661.75 387.129  13
  -8  -4   7 14488.4 471.140  13
  -8  -4   8 44218.8 795.040  13
  -8  -4   9 56297.3 819.578  13
  -8  -3  -1 19902.4 577.121  10
  -8  -3  -1 18906.5 571.750  13
  -8  -3   0 29121.3 865.853  13
  -8  -3   0 29561.5 842.190  10
  -8  -3   1 18265.0 728.081  10
  -8  -3   1 17736.0 738.242  13
  -8  -3   2 19359.8 767.999  10
  -8  -3   2 18864.0 801.879  13
  -8  -3   3 3977.52 374.622  13
  -8  -3   4 19011.6 809.266  13
  -8  -3   5 2624.34 294.550  13
  -8  -3   6 11562.5 569.681  13
  -8  -3   7 33298.9 918.355  13
  -8  -3   8 72703.9 1313.57  13
  -8  -3   9 17210.0 540.450  13
  -8  -3  10 49593.8 860.603  13
  -8  -3  11 50666.0 739.273  13
  -8  -2  -2 16922.8 574.893  10
  -8  -2  -1 86375.0 1611.87  10
  -8  -2   0 34813.2 1065.91  10
  -8  -2   1 25591.5 943.182  10
  -8  -2   2 71037.9 1631.08  10
  -8  -2   3 26115.0 1096.43  13
  -8  -2   3 27843.7 981.670  10
  -8  -2   4 9058.64 618.165  13
  -8  -2   5 20486.2 890.322  13
  -8  -2   6 8218.06 532.965  13
  -8  -2   7 104139. 1867.31  13
  -8  -2   8 14358.4 597.271  13
  -8  -2   9 28213.5 772.174  13
  -8  -2  10 19414.8 571.134  13
  -8  -2  11 2555.73 177.270  13
  -8  -1  -3 8376.59 374.608  10
  -8  -1  -2 70042.8 1410.45  10
  -8  -1  -2 66975.7 1314.13   9
  -8  -1  -1 56285.4 1362.63  10
  -8  -1  -1 52942.5 1338.33   9
  -8  -1   0 63972.2 1563.48   9
  -8  -1   0 68727.3 1566.62  10
  -8  -1   1 78898.9 1818.26   9
  -8  -1   2 45381.3 1347.16   9
  -8  -1   3 214876. 3513.32  13
  -8  -1   4 40233.0 1331.99  13
  -8  -1   4 39305.6 1165.30   7
  -8  -1   5 50245.6 1419.84  13
  -8  -1   5 52666.2 1322.36   7
  -8  -1   6 58845.6 1337.73   7
  -8  -1   6 56525.6 1435.03  13
  -8  -1   7 81526.0 1642.60  13
  -8  -1   7 81883.9 1520.06   7
  -8  -1   8 45103.1 1106.08  13
  -8  -1   8 44083.4 1013.24   7
  -8  -1   9 10354.4 438.986   7
  -8  -1   9 9915.88 464.244  13
  -8  -1  10 111350. 1587.84  13
  -8  -1  11 16905.6 477.924  13
  -8  -1  12 1056.63 96.7618  13
  -8   0  -4 66932.8 1313.70   9
  -8   0  -3 8335.83 537.250   9
  -8   0  -2 61831.8 1678.33   9
  -8   0  -1 100793. 2319.89   9
  -8   0   0 7773.83 632.120   9
  -8   0   1 72174.5 1957.87   9
  -8   0   2 19900.9 865.164   8
  -8   0   2 20188.6 991.075   9
  -8   0   3 21060.2 919.731   8
  -8   0   3 22811.6 1034.55   9
  -8   0   3 21531.4 973.527  13
  -8   0   4 37340.6 1235.41  13
  -8   0   5 10193.7 615.764   7
  -8   0   5 11018.5 630.163  13
  -8   0   6 56374.8 1355.78  13
  -8   0   6 57700.8 1445.27   7
  -8   0   7 56842.6 1341.21   7
  -8   0   7 56760.4 1283.24  13
  -8   0   8 35659.3 934.433  13
  -8   0   8 33059.8 940.333   7
  -8   0   9 4387.17 316.348   7
  -8   0   9 4407.06 298.548  13
  -8   0  10 26379.2 664.874  13
  -8   0  11 4923.79 241.773  13
  -8   1  -5 789.296 158.149   9
  -8   1  -4 39565.6 1278.50   9
  -8   1  -3 33967.6 1322.36   9
  -8   1  -2 77746.6 2176.31   9
  -8   1  -1 25254.1 808.920   8
  -8   1  -1 25888.9 1258.41   9
  -8   1   0 33127.8 1408.03   9
  -8   1   0 30156.2 983.290   8
  -8   1   1 19025.9 840.102   8
  -8   1   1 19050.8 1047.81   9
  -8   1   2 16584.2 805.352   8
  -8   1   2 17029.0 954.022   9
  -8   1   3 57552.6 1534.64   8
  -8   1   3 57156.5 1484.65  13
  -8   1   3 56115.6 1702.07   9
  -8   1   4 248949. 3371.51  13
  -8   1   4 253001. 3559.64   8
  -8   1   5 71283.6 1516.81  13
  -8   1   5 68301.9 1730.57   7
  -8   1   6 83764.5 1805.21   7
  -8   1   6 83379.5 1536.69  13
  -8   1   7 22917.5 715.387  13
  -8   1   7 22165.7 837.614   7
  -8   1   8 99035.9 1778.82   7
  -8   1   8 103653. 1566.29  13
  -8   1   9 58164.3 1215.74   7
  -8   1   9 57366.9 1036.52  13
  -8   1  10 9174.99 348.599  13
  -8   1  11 44648.4 667.230  13
  -8   2  -6 3461.32 272.626   9
  -8   2  -5 13484.7 700.950   9
  -8   2  -4 24602.2 1105.36   9
  -8   2  -3 13081.6 879.035   9
  -8   2  -2 107792. 1733.27   8
  -8   2  -2 107012. 2672.91   9
  -8   2  -1 78815.9 2296.94   9
  -8   2  -1 76399.7 1567.18   8
  -8   2   0 12369.5 650.088   8
  -8   2   0 12493.9 867.353   9
  -8   2   1 20635.8 1098.53   9
  -8   2   1 19513.1 862.018   8
  -8   2   2 40973.2 1112.83  13
  -8   2   2 38977.4 1460.51   9
  -8   2   2 37767.8 1216.94   8
  -8   2   3 32407.3 935.763  13
  -8   2   3 30201.1 1227.14   9
  -8   2   3 29320.6 1064.08   8
  -8   2   4 119498. 2421.88   7
  -8   2   4 118805. 2201.98   8
  -8   2   5 39410.7 1269.38   7
  -8   2   5 38646.8 1353.34  12
  -8   2   5 41657.2 1156.61   8
  -8   2   6 101435. 1752.20   8
  -8   2   6 100087. 2142.44  12
  -8   2   6 96422.8 1953.04   7
  -8   2   7 17941.6 733.341   7
  -8   2   7 16111.5 951.726  11
  -8   2   8 103917. 2371.30  11
  -8   2   8 110682. 1827.66   7
  -8   2   9 8675.54 428.014   7
  -8   2   9 9280.30 613.824  11
  -8   3  -6 9574.79 498.343   9
  -8   3  -5 22375.4 948.018   9
  -8   3  -4 16069.1 913.206   9
  -8   3  -3 25325.1 1225.40   9
  -8   3  -3 28702.9 747.741   8
  -8   3  -2 17258.0 1033.65   9
  -8   3  -2 15748.5 641.294   8
  -8   3  -1 183577. 2790.32   8
  -8   3  -1 200155. 3686.56   9
  -8   3   0 22847.4 1152.34   9
  -8   3   0 21681.9 910.894   8
  -8   3   1 83050.4 1899.28   8
  -8   3   1 90769.9 2289.41   9
  -8   3   2 128889. 2417.22   8
  -8   3   2 129204. 2658.48   9
  -8   3   3 84479.3 1822.83   8
  -8   3   3 78352.5 2070.08  12
  -8   3   4 4668.09 430.364   7
  -8   3   4 5481.79 421.976   8
  -8   3   4 5238.07 533.404  12
  -8   3   5 5301.93 510.211  12
  -8   3   5 5692.85 397.075   8
  -8   3   5 5416.22 439.198   7
  -8   3   6 110250. 1965.23   7
  -8   3   6 106425. 2252.95  12
  -8   3   7 14291.9 704.197  12
  -8   3   7 13297.1 585.643   7
  -8   3   8 17676.5 617.387   7
  -8   3   8 17515.8 970.108  11
  -8   3   9 24531.5 1019.22  11
  -8   3  10 51190.4 1229.45  11
  -8   4  -6 4495.28 319.547   9
  -8   4  -5 37679.3 1169.83   9
  -8   4  -4 23739.4 992.747  14
  -8   4  -4 22877.9 1015.85   9
  -8   4  -4 26179.8 601.137   8
  -8   4  -3 103098. 1646.69   8
  -8   4  -3 96751.6 2144.86  14
  -8   4  -3 96931.4 2328.04   9
  -8   4  -2 180543. 3303.25   9
  -8   4  -2 176852. 2605.00   8
  -8   4  -1 9684.44 711.634   9
  -8   4  -1 8728.26 560.259   8
  -8   4   0 15749.3 789.796   8
  -8   4   0 17415.1 926.613   9
  -8   4   1 6487.63 548.685   9
  -8   4   1 5824.64 484.258   8
  -8   4   1 7126.57 608.034  12
  -8   4   2 11650.2 707.772   9
  -8   4   2 10605.1 732.178  12
  -8   4   2 11259.7 655.549   8
  -8   4   3 25769.1 940.022   8
  -8   4   3 23453.3 1114.63  12
  -8   4   3 25522.3 981.982   7
  -8   4   4 13169.1 603.510   8
  -8   4   4 11564.7 787.742  12
  -8   4   4 13370.2 658.352   7
  -8   4   5 3428.44 276.664   8
  -8   4   5 3418.52 308.346   7
  -8   4   5 3050.77 502.113  11
  -8   4   5 3831.30 457.643  12
  -8   4   6 18336.7 1132.20  11
  -8   4   6 17841.3 903.130  12
  -8   4   6 18148.2 652.498   7
  -8   4   7 21933.1 661.338   7
  -8   4   7 20554.8 1137.91  11
  -8   4   8 43759.0 1536.74  11
  -8   4   8 56352.4 1179.73  12
  -8   4   9 43333.1 1305.88  11
  -8   5  -6 19663.5 510.161   9
  -8   5  -5 13830.5 580.490   9
  -8   5  -4 18466.4 548.164   8
  -8   5  -4 17316.7 736.885   9
  -8   5  -4 16836.4 735.100  14
  -8   5  -3 7892.37 439.761   8
  -8   5  -3 7713.24 533.302   9
  -8   5  -3 8091.47 513.621  14
  -8   5  -2 1420.50 225.084   8
  -8   5  -2 1248.92 232.189   9
  -8   5  -1 72524.3 1707.13   8
  -8   5  -1 79352.8 1809.76   9
  -8   5   0 132659. 2373.16   9
  -8   5   0 116135. 2279.81   8
  -8   5   1 12466.6 758.238  12
  -8   5   1 11300.5 658.200   8
  -8   5   2 110282. 1946.82   7
  -8   5   2 104788. 2368.87  12
  -8   5   2 105795. 2036.21   8
  -8   5   3 3016.24 299.417   8
  -8   5   3 3406.23 303.799   7
  -8   5   3 2885.62 408.801  12
  -8   5   4 37104.8 921.768   7
  -8   5   4 37104.8 925.190   8
  -8   5   5 76413.5 1987.99  12
  -8   5   5 87006.8 1371.66   7
  -8   5   6 17017.5 496.764   7
  -8   5   6 17025.1 844.364  12
  -8   5   6 17109.1 1053.21  11
  -8   5   7 11135.2 587.495  12
  -8   5   7 10069.0 752.905  11
  -8   5   8 37639.0 1260.06  11
  -8   5   8 40275.3 861.183  12
  -8   6  -5 60506.0 752.843   8
  -8   6  -4 24912.4 642.595   8
  -8   6  -3 9924.88 489.396   8
  -8   6  -2 1831.21 243.566   8
  -8   6  -1 1495.32 237.162   8
  -8   6   0 75724.6 1689.53   8
  -8   6   1 19448.6 887.552  12
  -8   6   1 18934.4 794.765   8
  -8   6   2 37419.6 1295.63  12
  -8   6   2 36985.3 1039.01   8
  -8   6   3 76200.2 1956.69  12
  -8   6   3 82596.0 1412.64   8
  -8   6   4 2626.49 365.218  12
  -8   6   5 30483.9 1116.61  12
  -8   6   6 78672.4 1645.01  12
  -8   6   7 24695.1 714.200  12
  -8   7  -4 21840.0 545.523   8
  -8   7  -3 11131.8 474.433   8
  -8   7  -2 17942.6 672.745   8
  -8   7  -1 13383.1 601.905   8
  -8   7   0 30331.3 904.861   8
  -8   7   1 6102.09 441.465  12
  -8   7   1 5540.89 357.958   8
  -8   7   2 59555.7 1081.26   8
  -8   7   2 59439.8 1459.77  12
  -8   7   3 15338.5 727.687  12
  -8   7   4 41077.2 1149.98  12
  -8   7   5 5137.31 364.361  12
  -8   7   6 18197.2 549.184  12
  -8   8  -3 44997.7 786.312   8
  -8   8  -2 31243.8 719.903   8
  -8   8  -1 7184.45 342.095   8
  -8   8   0 11018.2 396.500   8
  -8   8   1 15940.5 408.054   8
  -8   8   2 9209.43 402.160  12
  -8   8   3 7663.87 353.684  12
  -8   8   4 2513.82 179.348  12
  -7  -6   5 8356.51 290.884   1
  -7  -6   6 28415.0 603.847   1
  -7  -6   7 4795.16 238.057   1
  -7  -5   0 12905.9 487.409  10
  -7  -5   1 3550.07 308.440  10
  -7  -5   2 59679.1 931.307  13
  -7  -5   2 60212.8 1406.50  10
  -7  -5   3 13708.6 456.434  13
  -7  -5   3 11187.0 431.121   1
  -7  -5   4 43173.9 874.132  13
  -7  -5   4 38437.7 946.037   1
  -7  -5   5 2034.90 184.145  13
  -7  -5   5 1489.06 193.073   1
  -7  -5   6 598.736 145.507   1
  -7  -5   6 777.414 122.995  13
  -7  -5   7 32679.2 902.326   1
  -7  -5   7 36091.5 740.804  13
  -7  -5   8 21425.4 680.709   1
  -7  -5   8 21811.3 514.022  13
  -7  -5   9 11728.3 315.597  13
  -7  -4  -2 8602.79 425.439  10
  -7  -4  -2 8576.71 289.498  13
  -7  -4  -1 813.610 175.340  10
  -7  -4   0 4143.00 403.638  10
  -7  -4   1 1155.91 247.743  10
  -7  -4   1 1148.05 201.862  13
  -7  -4   2 35723.2 1136.50  13
  -7  -4   2 37541.2 1323.46  10
  -7  -4   3 50633.9 1192.37   1
  -7  -4   3 53248.9 1593.61  10
  -7  -4   3 52911.9 1404.07  13
  -7  -4   4 14509.8 808.230  10
  -7  -4   4 14935.9 715.882  13
  -7  -4   4 14230.6 655.688   1
  -7  -4   5 3688.96 350.430  13
  -7  -4   5 3138.85 313.692   1
  -7  -4   6 17197.1 698.694  13
  -7  -4   6 15075.3 682.281   1
  -7  -4   7 5710.20 421.378   1
  -7  -4   7 6174.14 392.155  13
  -7  -4   8 38930.9 1075.20   1
  -7  -4   8 41403.0 984.130  13
  -7  -4   9 30429.2 771.077  13
  -7  -4  10 6107.42 300.392  13
  -7  -4  11 5232.68 239.590  13
  -7  -3  -4 1071.71 135.752  10
  -7  -3  -3 4841.83 380.369  10
  -7  -3  -2 6442.62 509.425  10
  -7  -3  -1 1227.04 261.680  10
  -7  -3   0 10617.1 750.115  10
  -7  -3   1 55703.1 1766.33  10
  -7  -3   2 132064. 2731.53  10
  -7  -3   3 42024.4 1446.42  10
  -7  -3   4 17861.3 908.344  10
  -7  -3   4 16416.7 858.561  13
  -7  -3   4 16849.2 723.123   1
  -7  -3   5 308478. 3884.09   1
  -7  -3   5 313858. 4166.04  13
  -7  -3   6 5255.58 419.041   1
  -7  -3   6 5476.13 452.881  13
  -7  -3   7 64495.9 1498.40   1
  -7  -3   7 64629.8 1482.18  13
  -7  -3   8 5739.73 408.011  13
  -7  -3   8 5436.49 420.263   1
  -7  -3   9 49215.0 1127.50  13
  -7  -3  10 12587.7 504.498  13
  -7  -3  11 4572.58 271.436  13
  -7  -3  12 19368.8 480.746  13
  -7  -2  -5 7097.10 347.464  10
  -7  -2  -4 7752.52 494.505  10
  -7  -2  -3 52700.8 1547.79  10
  -7  -2  -2 59047.5 1787.39  10
  -7  -2  -1 46968.2 1638.42  10
  -7  -2   0 140486. 2951.71  10
  -7  -2   1 24230.1 1126.55  10
  -7  -2   2 2269.49 349.211  10
  -7  -2   3 69944.0 1806.33  10
  -7  -2   4 31777.5 1138.65  10
  -7  -2   4 30072.7 1181.38  13
  -7  -2   5 6742.30 439.988   1
  -7  -2   5 2535.57 337.554  13
  -7  -2   6 27156.3 941.639   1
  -7  -2   6 26170.5 1008.67  13
  -7  -2   7 20391.6 822.079   1
  -7  -2   7 23299.5 737.394   7
  -7  -2   7 21540.4 862.907  13
  -7  -2   8 276912. 3087.57   7
  -7  -2   8 261404. 3388.18  13
  -7  -2   9 45969.8 1142.47  13
  -7  -2   9 45328.2 983.837   7
  -7  -2  10 8568.25 445.290  13
  -7  -2  11 48417.7 998.100  13
  -7  -2  12 10599.3 389.925  13
  -7  -2  13 8638.31 283.388  13
  -7  -1  -6 4788.45 250.083  10
  -7  -1  -5 23632.2 650.793   9
  -7  -1  -5 24917.9 846.922  10
  -7  -1  -4 32146.1 1035.53   9
  -7  -1  -4 31858.7 1166.74  10
  -7  -1  -3 21900.6 1040.22  10
  -7  -1  -3 20193.0 919.556   9
  -7  -1  -2 88566.2 2137.96   9
  -7  -1  -2 89594.2 2257.28  10
  -7  -1  -1 123860. 2699.19  10
  -7  -1  -1 116643. 2557.13   9
  -7  -1   0 158534. 3023.77  10
  -7  -1   0 155949. 3002.83   9
  -7  -1   1 66619.3 1777.16  10
  -7  -1   1 67071.0 1813.04   9
  -7  -1   2 54339.0 1474.93  10
  -7  -1   2 55045.6 1569.17   9
  -7  -1   3 10755.5 592.953  10
  -7  -1   3 9987.77 622.493   9
  -7  -1   4 49564.6 1473.62  13
  -7  -1   5 86384.0 1805.15   7
  -7  -1   5 83825.7 1881.75  13
  -7  -1   6 25964.9 967.319  13
  -7  -1   6 27518.7 949.210   7
  -7  -1   7 17262.5 696.640   7
  -7  -1   7 16768.0 717.759  13
  -7  -1   8 97707.6 1807.59  13
  -7  -1   8 97555.4 1727.43   7
  -7  -1   9 63934.3 1341.65  13
  -7  -1   9 63522.4 1295.19   7
  -7  -1  10 32215.3 878.928  13
  -7  -1  11 5423.80 321.186  13
  -7  -1  12 27821.9 665.930  13
  -7  -1  13 3045.89 169.686  13
  -7   0  -6 38047.4 1009.86   9
  -7   0  -6 41972.3 964.578  10
  -7   0  -5 5029.61 423.872  10
  -7   0  -4 22933.0 1020.85  10
  -7   0  -3 16812.1 914.101  10
  -7   0  -2 20345.9 982.713  10
  -7   0  -1 139823. 2122.87   8
  -7   0  -1 139389. 3006.15   9
  -7   0   0 73783.1 1582.37   8
  -7   0   0 78458.6 2150.02   9
  -7   0   1 95348.4 1901.36   8
  -7   0   1 96403.2 2305.89   9
  -7   0   2 183383. 3208.70   9
  -7   0   2 171958. 2766.36   8
  -7   0   3 1229.54 243.650   9
  -7   0   3 1551.90 249.665   8
  -7   0   4 40847.1 1253.98  13
  -7   0   4 43546.5 1361.22   9
  -7   0   4 43778.6 1255.18   8
  -7   0   5 7073.66 510.240   7
  -7   0   5 6459.18 474.407   8
  -7   0   5 7013.73 482.689  13
  -7   0   6 53537.2 1314.55  13
  -7   0   6 51516.3 1366.76   7
  -7   0   7 46716.9 1161.81  13
  -7   0   7 45436.8 1215.61   7
  -7   0   8 72734.2 1441.00  13
  -7   0   8 73390.8 1518.09   7
  -7   0   9 51050.0 1139.37  13
  -7   0   9 50859.6 1205.71   7
  -7   0  10 25886.3 754.659  13
  -7   0  10 27797.4 816.214   7
  -7   0  11 54858.5 1047.38  13
  -7   0  12 36693.2 737.788  13
  -7   1  -7 7097.56 419.744   9
  -7   1  -4 46322.7 1712.76  14
  -7   1  -3 122788. 2972.82  14
  -7   1  -2 39004.3 1610.96  14
  -7   1  -2 42404.9 1020.53   8
  -7   1  -1 20217.4 767.934   8
  -7   1   0 99838.0 1914.30   8
  -7   1   0 104041. 2530.12   9
  -7   1   1 58788.5 1809.44   9
  -7   1   1 53842.8 1391.30   8
  -7   1   2 99809.3 2283.16   9
  -7   1   2 99640.2 1978.20   8
  -7   1   3 25771.2 1065.41   9
  -7   1   3 28544.6 992.031   8
  -7   1   4 69902.5 1764.32   9
  -7   1   4 70186.7 1737.06  12
  -7   1   4 68926.1 1522.52  13
  -7   1   5 25556.6 987.489   7
  -7   1   5 26244.0 1097.60  11
  -7   1   5 30050.6 1065.01  12
  -7   1   5 28181.9 884.869  13
  -7   1   5 29592.6 969.786   8
  -7   1   6 13061.5 574.516  13
  -7   1   6 13383.2 793.657  11
  -7   1   6 13321.1 687.433   7
  -7   1   6 14162.1 624.678   8
  -7   1   7 3695.89 342.620   7
  -7   1   7 3729.73 297.985  13
  -7   1   7 3490.10 433.222  11
  -7   1   8 34264.0 883.366  13
  -7   1   8 31548.6 1255.63  11
  -7   1   8 34525.8 1017.72   7
  -7   1   9 3344.55 402.803  11
  -7   1   9 3604.91 311.531   7
  -7   1   9 3650.00 274.587  13
  -7   1  10 8522.40 391.329  13
  -7   1  11 9599.04 382.044  13
  -7   1  12 58985.5 842.525  13
  -7   2  -8 16492.0 540.243   9
  -7   2  -6 13035.4 769.236  14
  -7   2  -5 22842.5 1143.02  14
  -7   2  -4 62264.2 2026.89  14
  -7   2  -3 71738.0 2202.90  14
  -7   2  -3 79217.5 1387.59   8
  -7   2  -2 7624.62 688.072  14
  -7   2  -2 7317.41 456.180   8
  -7   2  -1 141427. 2978.86  14
  -7   2  -1 135520. 2985.83   9
  -7   2   0 2951.79 424.908   9
  -7   2   0 2829.87 317.044   8
  -7   2   1 47362.9 1323.82   8
  -7   2   1 46984.4 1557.67   9
  -7   2   2 77507.4 1944.09   9
  -7   2   2 82267.7 1781.35   8
  -7   2   2 78141.5 1878.33  12
  -7   2   3 35919.8 1115.75   8
  -7   2   3 33581.7 1224.62  12
  -7   2   3 33151.8 1193.36   9
  -7   2   4 155776. 2875.54  12
  -7   2   4 160757. 3185.75  11
  -7   2   5 119267. 2766.44  11
  -7   2   5 120153. 2214.71   7
  -7   2   5 119764. 2469.71  12
  -7   2   6 78857.9 1666.87   7
  -7   2   6 81282.0 1441.57   8
  -7   2   6 78092.1 1898.53  12
  -7   2   7 17658.3 1049.44  11
  -7   2   7 20111.8 782.016   7
  -7   2   8 45390.3 1145.00   7
  -7   2   8 46857.5 943.119  13
  -7   2   9 4621.87 338.520   7
  -7   2   9 3914.87 489.284  11
  -7   2   9 4533.52 271.765  13
  -7   2  10 9179.75 650.043  11
  -7   2  11 11805.5 618.056  11
  -7   3  -8 79242.2 1416.41   9
  -7   3  -7 50739.6 1371.42  14
  -7   3  -6 30654.0 1226.52  14
  -7   3  -5 8962.95 716.927  14
  -7   3  -4 197782. 3738.79  14
  -7   3  -3 17846.7 1029.65  14
  -7   3  -3 12763.4 593.872   8
  -7   3  -2 3102.12 426.549  14
  -7   3  -2 2762.66 310.208   8
  -7   3  -1 58396.7 1862.58   9
  -7   3  -1 55288.0 1682.29  14
  -7   3   0 72320.4 1727.61   8
  -7   3   0 75627.6 2055.14   9
  -7   3   0 76718.7 1767.79  14
  -7   3   1 102054. 2178.10  12
  -7   3   1 102436. 2087.40   8
  -7   3   1 103137. 2325.06   9
  -7   3   2 137017. 2663.53  12
  -7   3   2 143937. 2456.48   8
  -7   3   2 135088. 2620.47   9
  -7   3   3 96349.2 1875.81   8
  -7   3   3 89869.3 1983.76   9
  -7   3   3 87833.4 2144.13  12
  -7   3   3 97845.5 2538.18  11
  -7   3   4 20613.3 782.310   8
  -7   3   4 19760.3 851.125   7
  -7   3   4 20926.4 1155.09  11
  -7   3   4 19092.0 968.450  12
  -7   3   5 77042.5 1647.17   7
  -7   3   5 77394.7 1446.58   8
  -7   3   5 76998.0 2315.20  11
  -7   3   5 71884.7 1936.35  12
  -7   3   6 149702. 3402.19  11
  -7   3   6 153633. 2913.05  12
  -7   3   6 151732. 2333.54   7
  -7   3   7 10194.4 863.566  11
  -7   3   7 12291.5 733.300  12
  -7   3   7 10587.0 531.670   7
  -7   3   8 22090.2 1232.78  11
  -7   3   8 25621.1 787.168   7
  -7   3   9 3572.27 478.207  11
  -7   3  10 562.609 201.948  11
  -7   3  11 22811.1 824.084  11
  -7   4  -8 8441.28 409.836   9
  -7   4  -8 8619.44 429.837  14
  -7   4  -7 21763.0 894.496  14
  -7   4  -6 47390.9 1510.84  14
  -7   4  -5 48884.9 1653.24  14
  -7   4  -4 22836.2 1141.35  14
  -7   4  -4 25909.1 802.932   8
  -7   4  -3 15694.4 698.556   8
  -7   4  -3 13899.6 904.537   9
  -7   4  -3 15115.1 895.037  14
  -7   4  -2 35993.6 1166.72   8
  -7   4  -2 36904.2 1448.96   9
  -7   4  -2 39051.4 1391.06  14
  -7   4  -1 15266.0 790.042   8
  -7   4  -1 16879.7 938.131   9
  -7   4   0 38347.1 1268.05  12
  -7   4   0 36103.1 1325.03   9
  -7   4   0 34586.3 1214.46   8
  -7   4   1 45712.3 1425.35   9
  -7   4   1 49287.9 1543.91  12
  -7   4   1 46968.1 1397.65   8
  -7   4   2 39808.9 1413.96  12
  -7   4   2 41662.6 1255.43   8
  -7   4   2 39134.4 1254.63   9
  -7   4   3 103000. 2412.21  12
  -7   4   3 114828. 2071.34   8
  -7   4   3 112234. 2866.25  11
  -7   4   3 106574. 2079.64   7
  -7   4   4 158590. 3540.19  11
  -7   4   4 158016. 2329.91   8
  -7   4   4 152242. 2396.48   7
  -7   4   5 7254.26 754.804  11
  -7   4   5 5939.10 585.721  12
  -7   4   5 6890.04 436.429   7
  -7   4   6 51579.2 1671.70  12
  -7   4   6 49810.8 1140.26   7
  -7   4   6 50618.6 1984.01  11
  -7   4   7 68976.6 2298.60  11
  -7   4   7 70682.3 1315.75   7
  -7   4   8 5269.57 433.065  12
  -7   4   8 4049.35 538.087  11
  -7   4   9 55901.2 1778.18  11
  -7   4  10 44826.9 1350.61  11
  -7   4  11 56057.4 1109.73  11
  -7   5  -8 21602.2 653.919  14
  -7   5  -7 15486.7 706.528  14
  -7   5  -7 15380.9 620.754   9
  -7   5  -6 24540.3 941.696   9
  -7   5  -6 24541.3 1011.14  14
  -7   5  -5 2181.83 317.172   9
  -7   5  -5 2216.89 208.505   8
  -7   5  -5 1939.62 317.001  14
  -7   5  -4 19736.6 967.758   9
  -7   5  -4 19277.8 961.386  14
  -7   5  -4 21869.8 775.983   8
  -7   5  -3 32593.2 1083.92   8
  -7   5  -3 31499.2 1192.75  14
  -7   5  -3 31771.9 1246.16   9
  -7   5  -2 13259.2 736.097   8
  -7   5  -2 13314.0 770.341   9
  -7   5  -1 57951.4 1595.89   9
  -7   5  -1 55239.1 1598.83   8
  -7   5   0 43914.3 1395.16  12
  -7   5   0 39507.7 1319.05   8
  -7   5   0 42306.6 1254.80   9
  -7   5   1 54801.4 1384.43   9
  -7   5   1 53792.7 1650.59  12
  -7   5   1 54302.6 1514.47   8
  -7   5   2 46789.9 1593.70  12
  -7   5   2 47543.5 1320.03   8
  -7   5   2 46883.7 1173.97   7
  -7   5   3 26415.2 806.661   7
  -7   5   3 25799.3 1219.60  12
  -7   5   3 28832.9 1478.77  11
  -7   5   3 26750.4 907.746   8
  -7   5   4 30782.4 850.560   8
  -7   5   4 31493.3 836.189   7
  -7   5   5 45289.8 1882.03  11
  -7   5   5 42785.2 939.691   7
  -7   5   6 33735.1 1360.87  12
  -7   5   6 35702.2 1644.62  11
  -7   5   7 20053.5 1177.85  11
  -7   5   7 21990.9 984.602  12
  -7   5   8 133449. 2153.15  12
  -7   5   8 114959. 2687.58  11
  -7   5   9 11125.7 397.805  12
  -7   5   9 10037.5 649.587  11
  -7   5  10 10321.9 473.238  11
  -7   6  -7 1565.10 193.046  14
  -7   6  -6 18444.8 744.534  14
  -7   6  -5 48808.4 1034.50   8
  -7   6  -5 45191.6 1269.04  14
  -7   6  -4 106447. 1909.04   8
  -7   6  -4 103049. 1985.68  14
  -7   6  -3 60798.3 1559.03   8
  -7   6  -2 17562.1 860.292   8
  -7   6  -1 24781.9 933.571  12
  -7   6  -1 22685.4 992.636   8
  -7   6   0 132065. 2510.12  12
  -7   6   0 123699. 2455.40   8
  -7   6   1 68224.1 1854.07  12
  -7   6   1 69462.9 1687.23   8
  -7   6   2 24259.1 1127.23  12
  -7   6   2 24940.9 888.627   8
  -7   6   3 33911.7 936.226   8
  -7   6   3 31235.7 1321.83  12
  -7   6   4 589.425 295.631  11
  -7   6   4 107.701 157.604  12
  -7   6   5 3420.36 449.570  12
  -7   6   5 6139.04 653.787  11
  -7   6   6 71205.2 2121.60  11
  -7   6   6 70450.9 1839.54  12
  -7   6   7 55015.5 1397.87  12
  -7   6   7 50136.7 1613.57  11
  -7   6   8 57428.5 1111.96  12
  -7   6   8 52992.9 1407.33  11
  -7   6   9 31654.2 774.804  11
  -7   7  -6 11002.7 319.304   8
  -7   7  -5 168250. 2143.74   8
  -7   7  -4 17915.3 711.434   8
  -7   7  -3 3682.19 360.248   8
  -7   7  -2 5761.07 472.036   8
  -7   7  -1 9494.78 607.497   8
  -7   7  -1 10163.7 545.834  12
  -7   7   0 24076.3 930.209  12
  -7   7   0 21007.7 874.662   8
  -7   7   1 9598.83 538.445   8
  -7   7   1 9926.62 645.929  12
  -7   7   2 61236.2 1697.56  12
  -7   7   2 61072.4 1248.10   8
  -7   7   3 14958.5 842.375  12
  -7   7   4 35574.7 1284.56  12
  -7   7   5 108985. 2188.06  12
  -7   7   6 91292.3 1771.17  12
  -7   7   7 33058.6 791.984  12
  -7   8  -5 4904.96 260.709   8
  -7   8  -4 23857.8 717.780   8
  -7   8  -3 19090.5 710.927   8
  -7   8  -2 77978.0 1580.61   8
  -7   8  -1 11839.8 574.785   8
  -7   8   0 181777. 2372.37  12
  -7   8   0 166968. 2329.11   8
  -7   8   1 12338.6 587.442  12
  -7   8   1 11400.9 450.874   8
  -7   8   2 19478.8 770.611  12
  -7   8   3 5383.99 404.586  12
  -7   8   4 19647.2 724.709  12
  -7   8   5 27175.5 730.557  12
  -7   9  -4 9175.06 309.142   8
  -7   9  -3 11146.6 388.192   8
  -7   9  -2 15308.9 470.414   8
  -7   9  -1 41309.5 761.215   8
  -7   9   0 15378.7 352.698   8
  -6  -7   4 15831.2 474.657   1
  -6  -7   5 9484.57 388.960   1
  -6  -7   6 27332.2 678.435   1
  -6  -7   7 34390.1 738.490   1
  -6  -7   8 68322.5 1015.36   1
  -6  -6   0 3192.44 251.026  10
  -6  -6   1 2413.73 199.347   1
  -6  -6   1 2784.76 280.523  10
  -6  -6   2 18360.5 776.083  10
  -6  -6   2 15463.2 596.712   1
  -6  -6   3 629.760 159.798   1
  -6  -6   4 64051.8 1472.42   1
  -6  -6   5 16937.7 741.053   1
  -6  -6   6 96500.8 1843.36   1
  -6  -6   7 19276.0 754.064   1
  -6  -6   8 27216.0 846.669   1
  -6  -6   9 24047.1 717.089   1
  -6  -5  -3 57592.0 949.041  10
  -6  -5  -2 13981.4 598.341  10
  -6  -5  -1 7402.59 522.130  10
  -6  -5   0 12484.9 527.491   1
  -6  -5   0 12621.0 760.671  10
  -6  -5   1 33584.5 940.925  13
  -6  -5   1 30173.1 972.128   1
  -6  -5   1 31348.6 1261.30  10
  -6  -5   2 13459.9 689.342   1
  -6  -5   2 14905.8 649.787  13
  -6  -5   2 13789.2 857.120  10
  -6  -5   3 10051.7 631.061   1
  -6  -5   3 10892.8 563.735  13
  -6  -5   3 10496.5 741.110  10
  -6  -5   4 7401.31 558.258   1
  -6  -5   4 8626.81 496.790  13
  -6  -5   4 8306.95 641.644  10
  -6  -5   5 35331.1 1232.50   1
  -6  -5   5 38542.0 1020.26  13
  -6  -5   6 45287.1 1061.83  13
  -6  -5   6 43534.0 1355.33   1
  -6  -5   7 28560.2 1041.49   1
  -6  -5   7 29745.5 807.968  13
  -6  -5   8 18355.5 796.638   1
  -6  -5   8 18858.5 607.180  13
  -6  -5   9 18761.9 753.164   1
  -6  -5   9 19082.8 566.449  13
  -6  -5  10 5668.01 272.595  13
  -6  -5  11 79497.4 990.788  13
  -6  -4  -4 8896.47 464.600  10
  -6  -4  -3 92688.4 1993.18  10
  -6  -4  -2 35573.3 1367.70  10
  -6  -4  -1 17701.2 1034.88  10
  -6  -4   0 71028.8 2169.22  10
  -6  -4   1 52728.6 1450.05   1
  -6  -4   1 52239.5 1819.76  10
  -6  -4   2 9464.31 763.894  10
  -6  -4   2 9226.48 617.801   1
  -6  -4   3 74570.7 2077.29  10
  -6  -4   3 76123.3 1834.45   1
  -6  -4   4 9055.62 595.713  13
  -6  -4   4 9595.21 712.271  10
  -6  -4   4 9337.58 629.207   1
  -6  -4   5 1671.77 260.403  13
  -6  -4   5 1247.66 266.565  10
  -6  -4   6 48016.4 1280.04  13
  -6  -4   6 47372.1 1430.83   1
  -6  -4   7 121033. 2328.28   1
  -6  -4   7 117338. 1985.99  13
  -6  -4   8 14274.7 610.594  13
  -6  -4   8 13607.3 718.133   1
  -6  -4   9 56151.2 1195.55  13
  -6  -4   9 55237.8 1420.41   1
  -6  -4  10 50236.1 1063.89  13
  -6  -4  11 60074.1 1069.92  13
  -6  -4  12 7751.53 315.880  13
  -6  -3  -6 10886.1 391.921  10
  -6  -3  -5 31676.4 1004.37  10
  -6  -3  -4 3865.82 434.525  10
  -6  -3  -3 33356.5 1420.33  10
  -6  -3  -2 27401.3 1358.82  10
  -6  -3  -1 43349.5 1750.02  10
  -6  -3   0 110695. 2777.62  10
  -6  -3   1 73012.3 2169.39  10
  -6  -3   2 94199.3 1896.97   1
  -6  -3   2 91554.8 2332.59  10
  -6  -3   3 24942.3 951.923   1
  -6  -3   3 22811.5 1070.73  10
  -6  -3   4 17479.6 820.543   1
  -6  -3   4 17911.6 901.169  10
  -6  -3   4 16201.1 823.718  13
  -6  -3   5 268867. 3836.53  10
  -6  -3   5 262994. 3715.35  13
  -6  -3   5 271163. 3747.65   1
  -6  -3   6 143832. 2469.02  13
  -6  -3   6 142840. 2521.10   1
  -6  -3   7 13734.2 717.719   1
  -6  -3   7 13190.7 650.460  13
  -6  -3   8 32939.6 1121.23   1
  -6  -3   8 33013.8 998.590  13
  -6  -3   9 25518.0 957.346   1
  -6  -3   9 26002.9 847.007  13
  -6  -3  10 7057.06 413.901  13
  -6  -3  11 82103.2 1414.40  13
  -6  -3  12 8951.56 391.766  13
  -6  -3  13 22902.2 556.814  13
  -6  -2  -7 21384.0 575.697  10
  -6  -2  -6 3439.53 346.047  10
  -6  -2  -5 17689.3 961.079  10
  -6  -2  -4 1125.05 300.703  10
  -6  -2  -3 45386.8 1805.22  10
  -6  -2  -2 19387.5 1179.40  10
  -6  -2  -1 27655.8 1365.52  10
  -6  -2   0 211766. 3835.87  10
  -6  -2   1 176067. 3289.63  10
  -6  -2   2 209258. 3445.45  10
  -6  -2   3 346893. 4498.04  10
  -6  -2   4 43488.3 1143.24   1
  -6  -2   4 39649.9 1208.22  10
  -6  -2   5 33530.7 1130.63  13
  -6  -2   5 34780.0 1087.16  10
  -6  -2   5 35171.5 1040.83   1
  -6  -2   6 46468.3 1246.68   1
  -6  -2   6 44773.7 1251.27  13
  -6  -2   7 112525. 2005.47  13
  -6  -2   7 114480. 2144.14   1
  -6  -2   8 13215.9 677.046   1
  -6  -2   8 11809.5 587.949  13
  -6  -2   8 12279.7 523.582   7
  -6  -2   9 14210.2 571.625   7
  -6  -2   9 13452.0 614.387  13
  -6  -2  10 15267.9 624.692  13
  -6  -2  11 50330.4 1119.05  13
  -6  -2  12 47187.5 993.818  13
  -6  -2  13 34275.6 741.832  13
  -6  -1  -7 5715.69 287.738   9
  -6  -1  -7 6662.96 449.323  10
  -6  -1  -6 10794.4 709.667  10
  -6  -1  -5 14503.3 926.218  10
  -6  -1  -4 15436.9 1001.53  10
  -6  -1  -3 99282.5 2603.12  10
  -6  -1  -2 12074.2 869.835  10
  -6  -1  -1 47978.0 1663.42  10
  -6  -1   0 20941.6 1005.43  10
  -6  -1   0 19997.4 904.002   9
  -6  -1   0 19386.8 695.822   8
  -6  -1   1 13795.6 619.024   8
  -6  -1   1 14181.0 726.278   9
  -6  -1   2 68327.9 1463.94   8
  -6  -1   4 98106.8 1840.19   8
  -6  -1   5 40961.8 1186.06  13
  -6  -1   5 40806.7 1059.92   7
  -6  -1   6 44008.8 1087.43   7
  -6  -1   6 42939.8 1101.25   1
  -6  -1   6 44161.3 1183.66  13
  -6  -1   7 56092.7 1340.10   1
  -6  -1   7 52963.9 1227.39   7
  -6  -1   7 53119.1 1255.45  13
  -6  -1   8 39840.0 1060.97  13
  -6  -1   8 40676.7 1062.85   7
  -6  -1   9 57796.8 1278.40  13
  -6  -1   9 58899.9 1260.29   7
  -6  -1  10 1505.20 204.338  13
  -6  -1  11 3325.10 277.885  13
  -6  -1  12 30917.5 811.230  13
  -6  -1  13 18729.7 552.710  13
  -6   0  -8 71247.2 1333.05  10
  -6   0  -7 20433.6 880.939  10
  -6   0  -6 12523.2 788.658  10
  -6   0  -5 2890.50 405.908  10
  -6   0  -5 2684.86 393.457  14
  -6   0  -4 12017.5 827.938  10
  -6   0  -4 13164.4 901.522  14
  -6   0  -3 26916.7 1310.63  14
  -6   0  -3 29937.8 1283.60  10
  -6   0  -2 137267. 3030.66  14
  -6   0  -2 148326. 2771.75  10
  -6   0  -1 28279.4 797.471   8
  -6   0  -1 31581.6 1329.77  14
  -6   0   6 116831. 1983.40   7
  -6   0   6 116688. 1894.54  13
  -6   0   7 318848. 3711.06   7
  -6   0   7 318718. 3614.29  13
  -6   0   8 5624.67 363.988  13
  -6   0   8 5857.29 396.424   7
  -6   0   9 65013.2 1378.58   7
  -6   0   9 64809.7 1305.87  13
  -6   0  10 42016.6 1019.22  13
  -6   0  11 3731.90 286.442  13
  -6   0  12 8916.87 410.582  13
  -6   0  13 7269.32 303.452  13
  -6   1  -8 11435.4 541.715  10
  -6   1  -7 52601.3 1452.43  10
  -6   1  -7 58366.5 1544.33  14
  -6   1  -6 29935.6 1196.18  10
  -6   1  -6 34497.7 1359.35  14
  -6   1  -5 25848.6 1262.59  14
  -6   1  -5 25884.2 1148.22  10
  -6   1  -4 69084.1 2134.99  14
  -6   1  -4 74055.6 1897.16  10
  -6   1  -3 428855. 5901.35  14
  -6   1  -2 27373.9 766.104   8
  -6   1  -2 26541.8 1219.00  14
  -6   1   6 90409.4 1452.27  13
  -6   1   6 95252.4 1766.83   7
  -6   1   7 157773. 2088.18  13
  -6   1   7 158840. 2321.58   7
  -6   1   8 10177.1 524.677   7
  -6   1   8 11010.7 490.128  13
  -6   1   9 67074.0 1280.05  13
  -6   1   9 68392.8 1411.30   7
  -6   1  10 71207.8 1322.40  13
  -6   1  10 75826.3 2077.76  11
  -6   1  11 8267.45 605.715  11
  -6   1  11 6829.60 366.343  13
  -6   1  12 2303.66 258.723  11
  -6   1  12 1954.40 176.262  13
  -6   1  13 9619.46 289.563  13
  -6   2  -8 25822.0 928.829  14
  -6   2  -7 4703.91 479.447  14
  -6   2  -6 10987.0 810.879  14
  -6   2  -5 14884.4 976.262  14
  -6   2  -4 8850.13 744.694  14
  -6   2  -3 178667. 3455.43  14
  -6   2  -3 188191. 2400.25   8
  -6   2  -2 258034. 3136.37   8
  -6   2  -2 273351. 4138.28  14
  -6   2   5 19427.1 737.829   7
  -6   2   6 121248. 2689.09  11
  -6   2   6 126252. 2059.69   7
  -6   2   7 61076.1 2012.23  11
  -6   2   7 69452.1 1400.28   7
  -6   2   8 33914.6 802.817  13
  -6   2   8 32358.5 924.049   7
  -6   2   9 32560.1 802.844  13
  -6   2   9 32397.1 917.215   7
  -6   2   9 30117.8 1439.82  11
  -6   2  10 64105.6 1993.29  11
  -6   2  10 62047.2 1163.66  13
  -6   2  11 55666.2 972.917  13
  -6   2  11 67335.1 1801.32  11
  -6   2  12 47275.8 1199.24  11
  -6   3  -9 92121.6 1569.31  14
  -6   3  -8 9061.90 597.316  14
  -6   3  -7 21427.8 1077.75  14
  -6   3  -6 10865.3 824.027  14
  -6   3  -5 50707.6 1834.89  14
  -6   3  -4 1170.65 295.230  14
  -6   3  -3 52918.8 1243.57   8
  -6   3  -3 51126.4 1722.54  14
  -6   3  -2 82166.2 1660.11   8
  -6   3  -2 83883.8 2030.68  14
  -6   3   4 6521.76 421.544   7
  -6   3   4 6854.70 535.873  12
  -6   3   4 7139.16 617.197  11
  -6   3   5 19330.0 1068.15  11
  -6   3   5 18840.2 926.701  12
  -6   3   5 18155.1 702.683   7
  -6   3   6 201838. 2657.96   7
  -6   3   6 203178. 3884.63  11
  -6   3   7 66112.7 2211.19  11
  -6   3   7 65940.1 1334.86   7
  -6   3   8 13333.9 557.861   7
  -6   3   8 12931.4 998.466  11
  -6   3   9 7128.50 713.026  11
  -6   3  10 36786.4 1512.12  11
  -6   3  11 23213.1 1003.64  11
  -6   3  12 6963.67 402.742  11
  -6   4  -9 31384.8 923.305  14
  -6   4  -8 19099.6 897.439  14
  -6   4  -7 9151.54 710.541  14
  -6   4  -6 28853.0 1336.11  14
  -6   4  -5 661.545 241.251  14
  -6   4  -4 2048.49 362.359  14
  -6   4  -4 1951.67 245.314   8
  -6   4  -3 18513.4 791.190   8
  -6   4  -3 17065.5 945.298  14
  -6   4  -2 54160.3 1530.25  14
  -6   4  -2 55986.9 1327.07  12
  -6   4  -1 1456.30 239.411   8
  -6   4  -1 1683.72 250.380  12
  -6   4  -1 1408.35 248.358   9
  -6   4   0 200344. 3029.74   8
  -6   4   0 210663. 3063.51  12
  -6   4   1 242078. 3268.29   8
  -6   4   1 236677. 3479.54  12
  -6   4   1 232621. 3924.99  11
  -6   4   2 69678.8 1513.82   8
  -6   4   2 66775.3 1758.37  12
  -6   4   2 66494.4 1951.51  11
  -6   4   3 173864. 3098.36  12
  -6   4   3 183565. 2473.73   8
  -6   4   3 181110. 3470.17  11
  -6   4   4 164505. 2142.88   8
  -6   4   4 163774. 3383.69  11
  -6   4   5 168759. 3557.49  11
  -6   4   5 158523. 3124.11  12
  -6   4   5 164770. 2225.50   7
  -6   4   6 17544.7 631.007   7
  -6   4   6 18291.1 998.053  12
  -6   4   6 18949.9 1174.09  11
  -6   4   7 37132.7 908.622   7
  -6   4   7 37561.6 1707.75  11
  -6   4   8 19040.3 1193.97  11
  -6   4   8 25840.1 1057.49  12
  -6   4   9 915.819 291.269  11
  -6   4   9 1349.37 212.163  12
  -6   4  10 25284.8 1129.95  11
  -6   4  11 14649.9 675.286  11
  -6   5  -9 22290.3 590.818   9
  -6   5  -9 23932.9 793.386  14
  -6   5  -8 29148.1 1091.12  14
  -6   5  -7 98682.7 2317.77  14
  -6   5  -6 38317.6 1504.95  14
  -6   5  -5 82191.6 1607.22   8
  -6   5  -5 74693.8 2124.03  14
  -6   5  -4 25003.8 1181.95  14
  -6   5  -4 27449.0 975.705   8
  -6   5  -3 11094.7 675.193   9
  -6   5  -3 12121.8 683.284   8
  -6   5  -3 12301.1 743.360  14
  -6   5  -2 98707.7 2098.05   8
  -6   5  -2 102024. 1855.37  12
  -6   5  -1 24698.1 938.529  12
  -6   5  -1 21447.2 937.271   8
  -6   5   0 30990.8 1099.47   8
  -6   5   0 32463.3 1154.94  12
  -6   5   1 197002. 3290.96  12
  -6   5   1 197356. 3750.92  11
  -6   5   1 196930. 3010.02   8
  -6   5   2 865.863 185.799   8
  -6   5   2 557.729 200.865  12
  -6   5   2 771.739 267.844  11
  -6   5   3 166558. 2364.98   8
  -6   5   3 170438. 3563.22  11
  -6   5   4 242581. 4182.19  12
  -6   5   4 273928. 4723.78  11
  -6   5   5 237331. 4139.89  12
  -6   5   5 267270. 4754.41  11
  -6   5   6 2578.47 410.074  12
  -6   5   6 2775.78 490.482  11
  -6   5   7 51555.4 1655.16  12
  -6   5   7 44029.2 1812.29  11
  -6   5   8 1033.14 289.585  11
  -6   5   8 1286.44 252.032  12
  -6   5   9 15209.0 883.756  11
  -6   5   9 18761.9 678.446  12
  -6   5  10 9422.47 557.792  11
  -6   6  -9 116385. 1723.55  14
  -6   6  -8 110643. 2033.40  14
  -6   6  -7 2260.64 315.966  14
  -6   6  -6 20844.4 1002.41  14
  -6   6  -6 22099.0 715.212   8
  -6   6  -5 36285.2 1080.56   8
  -6   6  -5 33655.3 1282.84  14
  -6   6  -4 14836.5 800.381  14
  -6   6  -4 15707.5 772.871   8
  -6   6  -3 47388.9 1444.85   8
  -6   6  -2 10319.8 555.002  12
  -6   6  -2 9613.63 655.788   8
  -6   6  -1 2755.87 352.552   8
  -6   6  -1 3326.40 370.910  12
  -6   6   0 3295.34 370.811   8
  -6   6   0 3729.32 407.410  12
  -6   6   1 27594.6 1166.19  12
  -6   6   1 26197.3 985.259   8
  -6   6   2 101488. 1903.83   8
  -6   6   2 101845. 2428.40  12
  -6   6   2 106363. 2720.65  11
  -6   6   3 46562.4 1687.54  12
  -6   6   3 49288.9 1838.14  11
  -6   6   4 21162.5 1158.19  12
  -6   6   4 24654.2 1329.25  11
  -6   6   5 14216.0 942.509  12
  -6   6   5 17079.8 1096.39  11
  -6   6   6 42724.1 1686.19  11
  -6   6   6 42375.2 1539.62  12
  -6   6   7 16954.8 867.950  12
  -6   6   7 14600.9 919.325  11
  -6   6   8 25087.5 861.177  12
  -6   6   8 22261.5 996.980  11
  -6   6   9 3337.00 201.453  12
  -6   6   9 3336.04 299.315  11
  -6   7  -8 59424.2 1167.88  14
  -6   7  -7 8248.70 301.177   8
  -6   7  -7 7981.72 474.667  14
  -6   7  -6 190602. 2825.13  14
  -6   7  -6 194559. 2469.64   8
  -6   7  -5 18627.9 771.277   8
  -6   7  -4 18123.0 834.850   8
  -6   7  -3 13777.1 768.973   8
  -6   7  -2 94546.9 2131.63   8
  -6   7  -1 44498.1 1411.99   8
  -6   7  -1 50384.9 1338.13  12
  -6   7   0 4193.36 404.264   8
  -6   7   0 4223.83 425.591  12
  -6   7   1 5660.34 524.845  12
  -6   7   1 5469.98 422.997   8
  -6   7   2 4250.96 330.049   8
  -6   7   2 4012.93 468.523  12
  -6   7   3 18598.7 1045.25  11
  -6   7   3 15727.2 943.624  12
  -6   7   4 132642. 2861.02  12
  -6   7   4 158059. 3089.69  11
  -6   7   5 100510. 2304.10  11
  -6   7   5 90574.1 2228.02  12
  -6   7   6 61172.0 1629.82  12
  -6   7   6 60782.1 1600.90  11
  -6   7   7 17255.9 696.598  12
  -6   7   7 17419.2 707.939  11
  -6   7   8 21740.6 536.514  12
  -6   8  -7 51084.0 716.078   8
  -6   8  -6 40778.1 891.675   8
  -6   8  -5 36525.3 1007.83   8
  -6   8  -4 82999.1 1744.10   8
  -6   8  -3 56771.2 1486.93   8
  -6   8  -2 3233.77 353.427   8
  -6   8  -1 49717.0 1341.92   8
  -6   8   0 34365.9 1021.65   8
  -6   8   0 37886.9 1108.48  12
  -6   8   1 8632.29 438.478   8
  -6   8   1 9217.01 582.104  12
  -6   8   2 22344.9 952.873  12
  -6   8   3 42318.8 1326.63  12
  -6   8   4 8346.89 555.686  12
  -6   8   5 37845.0 1078.69  12
  -6   8   6 54412.4 1064.48  12
  -6   9  -6 7574.93 271.719   8
  -6   9  -5 35426.1 804.600   8
  -6   9  -4 58348.6 1182.28   8
  -6   9  -3 7316.50 424.264   8
  -6   9  -2 112306. 1782.98   8
  -6   9  -1 31807.7 806.775   8
  -6   9   0 20156.9 538.267   8
  -6   9   1 11914.2 433.358  12
  -6   9   2 24128.4 655.406  12
  -6   9   3 13940.1 469.467  12
  -5  -8   4 32335.4 681.582   1
  -5  -8   5 8827.16 350.810   1
  -5  -8   6 27964.1 634.015   1
  -5  -8   7 23608.0 539.177   1
  -5  -7   0 62142.8 994.301   1
  -5  -7   1 26483.5 762.626   1
  -5  -7   2 31082.8 950.900   1
  -5  -7   3 11724.4 619.349   1
  -5  -7   4 32167.1 1063.70   1
  -5  -7   5 76872.1 1691.59   1
  -5  -7   6 2253.91 278.862   1
  -5  -7   7 24563.0 839.624   1
  -5  -7   8 126375. 1934.23   1
  -5  -7   9 14878.7 527.278   1
  -5  -6  -2 22552.2 695.268  10
  -5  -6  -2 20197.8 495.520   1
  -5  -6  -1 6005.53 384.388   1
  -5  -6  -1 6267.14 453.417  10
  -5  -6   0 22859.1 958.353  10
  -5  -6   0 23286.9 906.383   1
  -5  -6   1 28796.3 1151.47  10
  -5  -6   1 26641.9 1055.53   1
  -5  -6   2 22465.9 1041.57  10
  -5  -6   2 21060.7 995.199   1
  -5  -6   3 24036.4 1074.50   1
  -5  -6   3 26064.5 1142.93  10
  -5  -6   4 21178.3 1002.72   1
  -5  -6   5 22581.6 1015.29   1
  -5  -6   6 19135.0 916.194   1
  -5  -6   7 3258.49 371.530   1
  -5  -6   8 61153.9 1498.59   1
  -5  -6   9 5471.62 406.259   1
  -5  -6  10 3058.47 271.530   1
  -5  -5  -4 119494. 1875.88  10
  -5  -5  -3 4814.82 439.692  10
  -5  -5  -2 1178.26 260.324  10
  -5  -5  -1 22159.0 1153.51  10
  -5  -5   0 16663.5 1012.08  10
  -5  -5   1 6182.44 633.060  10
  -5  -5   1 5228.56 513.662   1
  -5  -5   2 73814.1 2016.29   1
  -5  -5   2 73911.2 2137.76  10
  -5  -5   3 17686.0 959.870   1
  -5  -5   3 16852.3 975.261  10
  -5  -5   4 200930. 3558.89  10
  -5  -5   4 204110. 3470.03   1
  -5  -5   5 59341.0 1713.14   1
  -5  -5   5 66852.3 1863.43  10
  -5  -5   6 211967. 3477.37   1
  -5  -5   6 221009. 2754.51  13
  -5  -5   7 27825.2 1112.19   1
  -5  -5   7 30215.3 848.009  13
  -5  -5   8 42139.8 977.881  13
  -5  -5   8 39112.8 1262.40   1
  -5  -5   9 4766.65 415.882   1
  -5  -5   9 5329.91 326.454  13
  -5  -5  10 27955.9 716.793  13
  -5  -5  10 27782.6 918.539   1
  -5  -5  11 7420.29 328.510  13
  -5  -5  12 872.250 97.6108  13
  -5  -4  -6 1914.14 189.323  10
  -5  -4  -5 49128.4 1363.89  10
  -5  -4  -4 12532.8 808.485  10
  -5  -4  -3 19106.6 1111.04  10
  -5  -4  -2 5812.29 648.793  10
  -5  -4  -1 12531.1 944.653  10
  -5  -4   0 37689.4 1603.17  10
  -5  -4   1 96139.1 2541.30  10
  -5  -4   2 112868. 2398.65   1
  -5  -4   2 110456. 2604.76  10
  -5  -4   3 255567. 4092.01  10
  -5  -4   3 270062. 3977.61   1
  -5  -4   4 236828. 3574.28   1
  -5  -4   4 229480. 3243.84  13
  -5  -4   4 234647. 3712.78  10
  -5  -4   5 239794. 3251.71  13
  -5  -4   5 236696. 3534.86   1
  -5  -4   5 236695. 3652.23  10
  -5  -4   6 125385. 2108.32  13
  -5  -4   6 126121. 2446.12   1
  -5  -4   7 117376. 1955.70  13
  -5  -4   7 115911. 2264.62   1
  -5  -4   8 1528.94 202.693  13
  -5  -4   8 1491.31 260.214   1
  -5  -4   9 21580.8 724.629  13
  -5  -4   9 21244.1 891.511   1
  -5  -4  10 9202.07 558.224   1
  -5  -4  10 8667.02 445.240  13
  -5  -4  11 13726.7 534.448  13
  -5  -4  12 3124.98 238.590  13
  -5  -4  13 24877.5 588.776  13
  -5  -3  -7 9330.50 464.189  10
  -5  -3  -6 25299.5 1069.39  10
  -5  -3  -5 44309.3 1656.76  10
  -5  -3  -4 7774.70 752.365  10
  -5  -3  -3 73432.1 2414.31  10
  -5  -3  -2 2701.62 476.367  10
  -5  -3  -1 245394. 4451.49  10
  -5  -3   0 103337. 2595.39  10
  -5  -3   1 253227. 4146.28  10
  -5  -3   2 185007. 3219.48  10
  -5  -3   3 9314.09 625.741  10
  -5  -3   4 32312.7 1109.46  10
  -5  -3   5 88468.3 1742.96  13
  -5  -3   5 88330.4 1854.25  10
  -5  -3   5 90205.6 1810.52   1
  -5  -3   6 110611. 1945.36  13
  -5  -3   6 113313. 2101.48   1
  -5  -3   7 51091.4 1222.81  13
  -5  -3   7 52267.0 1381.04   1
  -5  -3   8 13440.8 597.594  13
  -5  -3   8 13747.8 693.697   1
  -5  -3   9 116036. 2149.95   1
  -5  -3   9 110864. 1855.28  13
  -5  -3  10 51575.3 1184.60  13
  -5  -3  11 6801.50 404.071  13
  -5  -3  12 526.743 122.790  13
  -5  -3  13 17726.1 567.144  13
  -5  -3  14 25114.2 537.971  13
  -5  -2  -8 203.010 100.191  10
  -5  -2  -7 7187.71 562.663  10
  -5  -2  -6 28767.5 1320.36  10
  -5  -2  -5 35287.1 1558.23  10
  -5  -2  -4 25104.0 1339.76  10
  -5  -2  -3 38539.0 1621.28  10
  -5  -2  -2 29951.8 1382.22  10
  -5  -2  -1 34933.7 1413.35  10
  -5  -2   7 83363.6 1560.19  13
  -5  -2   7 88643.4 1713.13   1
  -5  -2   8 38337.9 1115.96   1
  -5  -2   8 36706.9 975.966  13
  -5  -2   8 37055.9 876.592   7
  -5  -2   9 161016. 2315.49  13
  -5  -2   9 165001. 2220.64   7
  -5  -2  10 2776.17 272.570  13
  -5  -2  11 32780.7 913.939  13
  -5  -2  12 11048.3 505.064  13
  -5  -2  13 305.886 102.692  13
  -5  -2  14 34527.5 698.095  13
  -5  -1  -9 13275.1 512.541  10
  -5  -1  -8 10149.0 617.029  10
  -5  -1  -7 5961.49 569.473  10
  -5  -1  -6 21065.7 1178.73  10
  -5  -1  -5 74148.0 2316.34  10
  -5  -1  -4 80366.4 2135.79  14
  -5  -1  -4 75916.5 2273.13  10
  -5  -1  -3 30788.5 1354.54  10
  -5  -1  -3 32479.0 1319.87  14
  -5  -1   6 5087.93 496.891   4
  -5  -1   7 66051.5 1978.47   4
  -5  -1   8 11104.4 508.386  13
  -5  -1   8 9724.39 785.992   4
  -5  -1   9 264396. 3129.14  13
  -5  -1   9 267419. 3150.09   7
  -5  -1  10 18396.8 679.393  13
  -5  -1  11 58890.3 1275.23  13
  -5  -1  12 15413.9 614.699  13
  -5  -1  13 34844.7 855.557  13
  -5  -1  14 67523.7 1043.98  13
  -5   0  -9 29299.4 937.531  10
  -5   0  -8 69721.5 1851.68  10
  -5   0  -7 963.075 271.074  10
  -5   0  -7 1372.02 248.770  14
  -5   0  -6 42134.2 1657.85  10
  -5   0  -6 48276.1 1563.75  14
  -5   0  -5 139961. 3118.87  10
  -5   0  -5 152512. 3039.67  14
  -5   0  -4 51101.6 1702.36  14
  -5   0  -4 52387.1 1737.19  10
  -5   0  -3 10985.9 743.440  14
  -5   0   5 38338.3 1336.72   4
  -5   0   6 45457.1 1629.59   4
  -5   0   7 51335.6 1882.77   4
  -5   0   8 3049.51 254.943  13
  -5   0   8 2938.50 264.909   7
  -5   0   8 2968.13 468.625   4
  -5   0   9 20795.3 687.794  13
  -5   0   9 20478.7 718.719   7
  -5   0  10 36658.3 954.961  13
  -5   0  10 41704.2 1420.38  11
  -5   0  11 4908.86 349.508  13
  -5   0  11 5829.56 515.400  11
  -5   0  12 13418.2 555.544  13
  -5   0  13 29790.0 746.730  13
  -5   0  14 12619.6 357.049  13
  -5   1 -10 182158. 2171.58  10
  -5   1  -9 1277.90 227.945  10
  -5   1  -8 36811.2 1367.10  10
  -5   1  -8 40126.6 1231.77  14
  -5   1  -7 90484.8 2170.72  14
  -5   1  -7 82533.6 2250.21  10
  -5   1  -6 12715.2 847.085  14
  -5   1  -6 8586.60 720.048  10
  -5   1  -5 145474. 2934.54  10
  -5   1  -5 141620. 3008.32  14
  -5   1  -4 10920.3 764.284  14
  -5   1   5 59431.9 1831.04   4
  -5   1   6 21779.4 1213.52   4
  -5   1   7 26268.2 1423.51   4
  -5   1   8 19411.1 1250.51   4
  -5   1   8 21821.6 647.177  13
  -5   1   8 21538.9 711.021   7
  -5   1   8 19463.1 1014.37  11
  -5   1   9 94333.9 1568.07  13
  -5   1   9 96553.3 1665.74   7
  -5   1   9 90945.6 2432.18  11
  -5   1  10 4693.26 327.211  13
  -5   1  10 5481.14 583.879  11
  -5   1  11 3811.48 301.783  13
  -5   1  11 4278.81 495.603  11
  -5   1  12 5430.11 477.389  11
  -5   1  12 4853.53 308.391  13
  -5   1  13 98529.7 1415.07  13
  -5   1  13 123618. 1761.51  11
  -5   2 -10 7776.81 376.996  10
  -5   2  -9 56223.1 1434.74  10
  -5   2  -9 55595.1 1357.18  14
  -5   2  -8 1522.04 285.428  14
  -5   2  -8 940.661 234.498  10
  -5   2  -7 14356.4 907.567  14
  -5   2  -7 12810.6 821.329  10
  -5   2  -6 9876.07 683.900  10
  -5   2  -6 11371.2 824.660  14
  -5   2  -5 169250. 3337.55  14
  -5   2  -4 101644. 2378.70  14
  -5   2   4 86122.1 2236.06   4
  -5   2   5 333588. 5405.43   4
  -5   2   6 17974.5 1231.67   4
  -5   2   7 45479.9 1616.49  11
  -5   2   7 41223.3 1953.76   4
  -5   2   8 75588.9 1235.11  13
  -5   2   8 76769.0 1411.15   7
  -5   2   9 18409.7 618.484  13
  -5   2   9 19046.5 1149.24  11
  -5   2  10 33486.4 877.952  13
  -5   2  10 35459.8 1552.66  11
  -5   2  11 16612.5 568.284  13
  -5   2  11 21125.9 1110.24  11
  -5   2  12 15289.9 794.075  11
  -5   2  12 13068.1 442.124  13
  -5   2  13 2299.01 211.638  11
  -5   3 -10 19109.6 650.538  14
  -5   3  -9 1140.01 227.045  14
  -5   3  -8 26216.0 1174.00  14
  -5   3  -7 20116.7 1109.51  14
  -5   3  -6 16591.8 1008.90  14
  -5   3  -5 204874. 3668.05  14
  -5   3  -4 35052.1 1323.88  14
  -5   3   6 234913. 2683.73   7
  -5   3   6 240709. 3438.69  12
  -5   3   7 116857. 1763.23   7
  -5   3   7 114303. 2881.56  11
  -5   3   8 65154.8 1278.88   7
  -5   3   8 62659.0 2175.76  11
  -5   3   9 47011.4 1892.75  11
  -5   3  10 8667.17 772.522  11
  -5   3  11 64039.6 1887.55  11
  -5   3  12 10231.3 576.467  11
  -5   4 -10 10385.4 531.044  14
  -5   4  -9 3248.60 378.678  14
  -5   4  -8 60607.6 1875.87  14
  -5   4  -7 15557.8 975.566  14
  -5   4  -6 57231.6 1871.06  14
  -5   4  -5 89358.0 1548.58   8
  -5   4  -5 79960.3 2157.63  14
  -5   4  -4 22709.0 1036.65  14
  -5   4   5 19423.9 1107.85  11
  -5   4   5 17108.1 913.646  12
  -5   4   6 59120.5 2049.85  11
  -5   4   6 58087.0 1758.07  12
  -5   4   7 50236.1 1976.63  11
  -5   4   7 50004.5 1002.85   7
  -5   4   8 119515. 2388.42  12
  -5   4   8 95643.7 2821.17  11
  -5   4   9 73235.0 2380.41  11
  -5   4   9 93564.8 1868.73  12
  -5   4  10 51852.7 1772.38  11
  -5   4  11 1597.64 268.701  11
  -5   4  12 28763.9 704.376  11
  -5   5 -10 54652.4 1274.06  14
  -5   5  -9 2092.42 315.236  14
  -5   5  -8 28112.4 1231.95  14
  -5   5  -7 40772.0 1553.19  14
  -5   5  -6 57426.2 1224.79   8
  -5   5  -6 52795.6 1773.53  14
  -5   5  -5 138473. 2866.97  14
  -5   5  -4 174622. 2967.90  15
  -5   5  -4 170525. 3004.94  14
  -5   5   2 33473.3 1183.84  12
  -5   5   2 33888.6 1286.06  11
  -5   5   3 54682.3 1736.36  11
  -5   5   3 52653.3 1616.52  12
  -5   5   4 217820. 3746.99  12
  -5   5   4 244871. 4178.27  11
  -5   5   5 266407. 4342.43  12
  -5   5   5 302836. 4928.78  11
  -5   5   6 3504.37 468.792  12
  -5   5   6 3906.38 565.490  11
  -5   5   7 45473.0 1550.85  12
  -5   5   7 38398.4 1728.95  11
  -5   5   8 29323.2 1117.26  12
  -5   5   8 26034.1 1369.77  11
  -5   5   9 2580.35 284.682  12
  -5   5   9 2858.13 411.215  11
  -5   5  10 17414.7 808.564  11
  -5   5  11 19632.8 584.903  11
  -5   6 -10 78752.7 1463.92  14
  -5   6  -9 91351.3 1945.69  14
  -5   6  -8 31979.8 1242.74  14
  -5   6  -7 52964.5 1096.77   8
  -5   6  -7 51749.8 1676.77  14
  -5   6  -6 10273.3 721.704  14
  -5   6  -5 92726.2 2292.20  15
  -5   6  -5 87629.4 2172.80  14
  -5   6  -4 119708. 2310.47  14
  -5   6  -4 119051. 2463.49  15
  -5   6  -3 2491.65 326.471  15
  -5   6  -1 149800. 2430.39  12
  -5   6   0 9590.10 609.933  12
  -5   6   1 286524. 4273.84  11
  -5   6   1 274986. 4021.16  12
  -5   6   2 210735. 3525.36  12
  -5   6   2 217421. 2783.65   8
  -5   6   3 102936. 2486.57  12
  -5   6   3 115348. 2737.91  11
  -5   6   4 73608.0 2154.93  12
  -5   6   4 84075.1 2355.20  11
  -5   6   5 19829.4 1105.68  12
  -5   6   5 22146.0 1199.73  11
  -5   6   6 10692.4 832.268  11
  -5   6   6 11559.0 804.495  12
  -5   6   7 27292.0 1138.81  12
  -5   6   7 23427.8 1174.87  11
  -5   6   8 6763.32 479.885  12
  -5   6   8 5979.34 530.466  11
  -5   6   9 62378.6 1150.41  12
  -5   6   9 57528.9 1339.88  11
  -5   7 -10 19046.2 541.861  14
  -5   7  -9 20063.3 742.784  14
  -5   7  -8 30997.3 1070.65  14
  -5   7  -7 59854.4 1586.54  14
  -5   7  -7 60563.1 1209.53   8
  -5   7  -6 26928.5 1077.36  14
  -5   7  -5 9819.31 711.054  15
  -5   7  -4 66870.1 1857.72  15
  -5   7  -3 9118.87 643.023  15
  -5   7  -2 91117.8 1986.74  15
  -5   7  -1 94855.7 1897.59  12
  -5   7   0 34973.6 1233.92  12
  -5   7   1 41535.3 1434.43  12
  -5   7   2 159051. 3089.41  12
  -5   7   2 179639. 3261.86  11
  -5   7   3 8464.29 689.721  12
  -5   7   3 10721.2 745.211  11
  -5   7   4 31378.0 1337.51  12
  -5   7   4 40464.2 1469.18  11
  -5   7   5 25005.9 1164.18  12
  -5   7   5 30548.9 1231.62  11
  -5   7   6 4132.06 443.017  12
  -5   7   6 4815.55 451.972  11
  -5   7   7 11856.6 627.592  12
  -5   7   7 11675.5 569.629  11
  -5   7   8 2578.06 221.633  12
  -5   8  -8 44228.8 923.899  14
  -5   8  -8 41068.6 642.062   8
  -5   8  -7 24194.2 744.181  14
  -5   8  -7 23287.2 680.245   8
  -5   8  -5 12953.2 764.237  15
  -5   8  -4 22926.9 1016.13  15
  -5   8  -3 52760.9 1555.50  15
  -5   8  -2 44032.1 1378.21  15
  -5   8  -1 20660.8 887.561  15
  -5   8   0 31912.2 1080.48  12
  -5   8   1 68037.4 1321.93   8
  -5   8   1 74385.3 1813.41  12
  -5   8   2 40941.1 1385.92  12
  -5   8   3 31638.4 1228.47  12
  -5   8   4 42798.8 1386.60  12
  -5   8   5 10193.8 609.157  12
  -5   8   6 10391.6 513.843  12
  -5   9  -7 34853.1 683.667   8
  -5   9  -6 26244.0 747.753   8
  -5   9  -5 30754.8 1016.18  15
  -5   9  -4 130882. 2307.23  15
  -5   9  -3 102136. 1984.80  15
  -5   9  -2 13660.6 672.207  15
  -5   9  -1 58994.7 1227.58   8
  -5   9  -1 54585.4 1294.04  15
  -5   9   0 9777.06 402.665   8
  -5   9   1 19104.7 664.403  12
  -5   9   2 1466.66 204.016  12
  -5   9   3 43856.4 1034.65  12
  -5   9   4 51088.5 1000.86  12
  -5  10  -5 7795.97 305.482   8
  -5  10  -4 1946.17 168.411   8
  -5  10  -3 5100.71 263.788   8
  -5  10  -2 6044.34 244.696   8
  -4  -8   0 29987.5 622.349   1
  -4  -8   1 13493.6 521.046   1
  -4  -8   2 19155.0 691.377   1
  -4  -8   3 12221.1 587.814   1
  -4  -8   4 22699.9 815.835   1
  -4  -8   5 56270.0 1313.56   1
  -4  -8   6 45642.4 1118.15   1
  -4  -8   7 42668.9 987.406   1
  -4  -8   8 25230.0 658.447   1
  -4  -7  -2 96368.9 1442.72   1
  -4  -7  -1 5510.78 305.324  10
  -4  -7  -1 5314.07 393.077   1
  -4  -7   0 4127.54 337.115  10
  -4  -7   0 3400.29 366.612   1
  -4  -7   1 30522.8 1182.02   1
  -4  -7   1 35443.0 1077.22  10
  -4  -7   2 597.128 212.656   1
  -4  -7   2 559.810 171.561  10
  -4  -7   3 21512.0 1035.21   1
  -4  -7   4 1172.50 265.054   1
  -4  -7   5 72767.6 1848.00   1
  -4  -7   6 65442.2 1690.73   1
  -4  -7   7 12635.2 674.440   1
  -4  -7   8 21809.8 810.583   1
  -4  -7   9 36567.8 959.717   1
  -4  -6  -4 5375.24 247.213   1
  -4  -6  -4 5966.79 266.994  10
  -4  -6  -3 12473.2 586.365  10
  -4  -6  -2 90451.0 1980.74  10
  -4  -6  -1 4863.52 492.291  10
  -4  -6   0 10096.5 733.182  10
  -4  -6   1 6002.14 569.391  10
  -4  -6   2 13843.2 847.249  10
  -4  -6   3 18322.2 1028.34   1
  -4  -6   3 17814.7 953.028  10
  -4  -6   4 1813.82 340.444   1
  -4  -6   4 1970.52 322.331  10
  -4  -6   5 1415.25 286.971   1
  -4  -6   6 198288. 3275.84   1
  -4  -6   7 50500.5 1474.80   1
  -4  -6   8 51855.7 1420.04   1
  -4  -6   9 24636.3 886.203   1
  -4  -6  10 60555.8 1301.82   1
  -4  -5  -5 27736.7 910.953  10
  -4  -5  -4 4074.87 439.449  10
  -4  -5  -3 5429.86 558.871  10
  -4  -5  -2 87651.3 2434.05  10
  -4  -5  -1 51645.8 1850.89  10
  -4  -5   0 58871.7 1966.07  10
  -4  -5   1 166322. 3315.42  10
  -4  -5   2 68490.1 1966.93  10
  -4  -5   3 474924. 5953.41  10
  -4  -5   4 114360. 2433.21   1
  -4  -5   4 115785. 2436.61  10
  -4  -5   5 111837. 2335.50  10
  -4  -5   5 112741. 2338.88   1
  -4  -5   6 326080. 4341.01   1
  -4  -5   7 106849. 2206.41   1
  -4  -5   8 79251.0 1805.25   1
  -4  -5   9 33681.9 839.264  13
  -4  -5   9 32275.7 1072.91   1
  -4  -5  10 15490.6 683.705   1
  -4  -5  10 15747.1 548.984  13
  -4  -5  11 19189.9 584.749  13
  -4  -5  12 15524.4 482.820  13
  -4  -4  -7 14723.5 573.217  10
  -4  -4  -6 17249.4 862.320  10
  -4  -4  -5 11202.5 816.211  10
  -4  -4  -4 71222.5 2269.62  10
  -4  -4  -3 28021.8 1451.21  10
  -4  -4  -2 28506.9 1444.72  10
  -4  -4  -1 37444.6 1606.67  10
  -4  -4   0 8968.60 736.749  10
  -4  -4   1 23326.7 1112.73  10
  -4  -4   2 20886.3 988.928  10
  -4  -4   5 50089.9 1348.26   1
  -4  -4   5 50444.9 1368.81  10
  -4  -4   6 73907.8 1365.77  13
  -4  -4   6 75825.1 1682.82   1
  -4  -4   7 997.528 203.608   1
  -4  -4   7 743.271 136.913  13
  -4  -4   8 72736.2 1363.39  13
  -4  -4   8 71289.7 1613.16   1
  -4  -4   9 36716.6 1116.84   1
  -4  -4   9 37445.5 951.964  13
  -4  -4  10 13026.0 644.060   1
  -4  -4  10 12033.6 523.389  13
  -4  -4  11 27287.5 797.061  13
  -4  -4  12 4641.21 308.462  13
  -4  -4  13 15550.2 502.618  13
  -4  -4  14 2051.15 140.990  13
  -4  -3  -8 9943.28 529.745  10
  -4  -3  -7 39693.1 1385.03  10
  -4  -3  -6 28974.9 1341.47  10
  -4  -3  -5 16552.3 1081.16  10
  -4  -3  -4 38075.3 1651.06  10
  -4  -3  -3 98828.6 2641.80  10
  -4  -3  -2 15937.8 988.663  10
  -4  -3   8 4711.37 318.471  13
  -4  -3   8 4267.72 512.107   4
  -4  -3   8 4953.04 385.150   1
  -4  -3   9 85852.4 1507.76  13
  -4  -3   9 86263.1 1721.52   1
  -4  -3  10 6949.45 410.318  13
  -4  -3  11 132356. 2043.17  13
  -4  -3  12 28289.7 844.413  13
  -4  -3  13 57390.8 1165.93  13
  -4  -3  14 11808.8 417.374  13
  -4  -2  -9 23849.8 811.100  10
  -4  -2  -8 63471.9 1753.20  10
  -4  -2  -7 96095.8 2538.66  10
  -4  -2  -6 83912.9 2517.03  10
  -4  -2  -5 120111. 3042.26  10
  -4  -2  -4 37260.9 1580.29  10
  -4  -2  -3 1137.45 263.417  10
  -4  -2   6 24407.7 1112.39   4
  -4  -2   7 174086. 3366.92   4
  -4  -2   8 72627.4 1310.31  13
  -4  -2   8 76469.9 1490.79   1
  -4  -2   9 24148.9 1260.26   4
  -4  -2   9 24523.9 746.222  13
  -4  -2  10 39027.8 1003.17  13
  -4  -2  11 22273.0 767.870  13
  -4  -2  12 112904. 1875.53  13
  -4  -2  13 1838.22 211.608  13
  -4  -2  14 623.095 121.564  13
  -4  -1 -10 2402.51 231.429  10
  -4  -1  -9 13381.1 751.236  10
  -4  -1  -8 69030.2 2076.00  10
  -4  -1  -7 11910.6 914.046  10
  -4  -1  -6 112709. 2904.87  10
  -4  -1  -5 650.549 234.644  10
  -4  -1  -5 598.117 171.957  14
  -4  -1  -4 197392. 3592.08  10
  -4  -1   3 135895. 2103.39   4
  -4  -1   4 142141. 2423.28   4
  -4  -1   5 16406.2 833.133   4
  -4  -1   6 146843. 2885.40   4
  -4  -1   7 282099. 4516.30   4
  -4  -1   8 184176. 3713.91   4
  -4  -1   9 18187.9 1135.79   4
  -4  -1   9 17655.2 620.926  13
  -4  -1   9 18472.0 647.516   7
  -4  -1  10 101809. 1703.62  13
  -4  -1  11 87064.7 1622.25  13
  -4  -1  12 12620.0 592.976  13
  -4  -1  13 6374.83 382.054  13
  -4  -1  14 30943.7 754.009  13
  -4   0 -11 50394.0 872.386  10
  -4   0 -10 19294.9 809.321  10
  -4   0  -9 31264.0 1281.48  10
  -4   0  -8 58241.9 1980.57  10
  -4   0  -7 139581. 3221.46  10
  -4   0  -7 161444. 2819.92  14
  -4   0  -6 33645.9 1248.52  14
  -4   0  -6 28893.9 1350.04  10
  -4   0  -5 323223. 4311.99  14
  -4   0  -5 297656. 4541.66  10
  -4   0   3 111074. 1847.54   4
  -4   0   4 166347. 2675.69   4
  -4   0   5 111798. 2397.68   4
  -4   0   6 249482. 4140.74   4
  -4   0   7 56090.9 1947.94   4
  -4   0   8 44177.5 1849.01   4
  -4   0   9 147573. 3548.83   4
  -4   0   9 140123. 1992.94  13
  -4   0   9 144135. 2053.35   7
  -4   0  10 28600.3 839.858  13
  -4   0  10 32490.5 1302.77  11
  -4   0  11 6835.74 428.899  13
  -4   0  11 7814.26 642.538  11
  -4   0  12 77395.5 1871.02  11
  -4   0  12 61940.4 1361.67  13
  -4   0  13 2260.45 233.719  13
  -4   0  13 2722.83 279.954  11
  -4   0  14 26726.1 609.713  13
  -4   1 -11 31490.4 825.123  10
  -4   1 -10 19559.4 891.253  10
  -4   1  -9 3106.36 320.515  14
  -4   1  -9 3241.32 427.223  10
  -4   1  -8 5647.72 500.792  14
  -4   1  -8 4893.60 556.407  10
  -4   1  -7 7713.42 621.985  14
  -4   1  -7 6878.88 635.846  10
  -4   1  -6 25323.3 1117.46  14
  -4   1  -6 20863.9 1016.85  10
  -4   1   2 140478. 1976.95   4
  -4   1   3 100706. 1935.64   4
  -4   1   4 134391. 2582.99   4
  -4   1   5 44656.1 1588.63   4
  -4   1   6 52168.4 1899.87   4
  -4   1   7 280281. 5079.81   4
  -4   1   8 221364. 4609.52   4
  -4   1   8 233695. 2706.54   7
  -4   1   9 58012.2 1186.56  13
  -4   1   9 58437.0 1849.20  11
  -4   1  10 33430.5 931.206  13
  -4   1  10 35049.4 1472.80  11
  -4   1  11 35374.0 998.360  13
  -4   1  11 39052.0 1519.74  11
  -4   1  12 2352.70 243.946  13
  -4   1  12 2633.04 362.770  11
  -4   1  13 4131.27 271.790  13
  -4   1  13 5316.26 397.733  11
  -4   2 -11 28709.8 834.600  10
  -4   2 -10 37552.6 1030.24  14
  -4   2 -10 37911.3 1251.61  10
  -4   2  -9 28981.3 1095.44  14
  -4   2  -9 26633.1 1166.95  10
  -4   2  -8 37032.6 1384.13  14
  -4   2  -8 31922.5 1297.35  10
  -4   2  -7 58164.2 1760.77  14
  -4   2  -7 47398.4 1568.11  10
  -4   2  -6 33498.8 1290.00  14
  -4   2  -6 31425.6 1139.82  10
  -4   2   3 416083. 5290.17   4
  -4   2   4 483812. 6339.47   4
  -4   2   5 36313.9 1608.79   4
  -4   2   6 12544.6 1022.80   4
  -4   2   7 10528.0 987.971   4
  -4   2   8 19463.4 587.856  13
  -4   2   8 19038.7 634.203   7
  -4   2   8 18005.1 1032.80  11
  -4   2   8 18021.6 1349.93   4
  -4   2   9 78361.4 1412.32  13
  -4   2   9 79765.4 2324.27  11
  -4   2  10 33501.4 938.236  13
  -4   2  10 35302.7 1561.20  11
  -4   2  11 21367.3 735.725  13
  -4   2  11 23226.3 1181.65  11
  -4   2  12 30310.0 1186.53  11
  -4   2  12 26828.1 730.513  13
  -4   2  13 84963.8 1555.84  11
  -4   3 -11 19168.3 599.264  14
  -4   3 -11 20923.9 690.983  10
  -4   3 -10 20913.3 862.596  14
  -4   3 -10 21670.3 895.876  10
  -4   3  -9 18686.2 948.165  14
  -4   3  -9 18467.6 908.183  10
  -4   3  -8 42652.5 1529.04  14
  -4   3  -8 39667.8 1360.55  10
  -4   3  -7 88969.4 2220.27  14
  -4   3  -7 81847.1 1867.58  10
  -4   3  -6 84535.2 2086.22  14
  -4   3   3 88899.0 2014.49   3
  -4   3   4 124460. 3249.43   4
  -4   3   5 6372.27 766.513   4
  -4   3   6 38720.2 1990.27   4
  -4   3   7 12017.2 456.261   7
  -4   3   7 11979.7 849.138  11
  -4   3   7 11932.3 1170.11   4
  -4   3   8 32598.2 1091.95  12
  -4   3   8 25348.7 1302.86  11
  -4   3   9 13870.2 993.972  11
  -4   3  10 7072.00 698.314  11
  -4   3  11 32488.1 1340.96  11
  -4   3  12 13128.6 685.538  11
  -4   4 -11 8179.86 437.232  14
  -4   4 -10 3131.60 364.103  14
  -4   4  -9 42167.3 1465.65  14
  -4   4  -8 238093. 3925.26  14
  -4   4  -7 387611. 5268.46  14
  -4   4  -6 143871. 2826.45  14
  -4   4   2 83203.7 2326.00   3
  -4   4   3 999999. 10633.8   3
  -4   4   6 8194.03 715.993  11
  -4   4   7 69441.0 2195.61  11
  -4   4   8 72915.3 1826.04  12
  -4   4   8 58411.6 2082.10  11
  -4   4   9 4716.69 416.209  12
  -4   4   9 4000.31 545.711  11
  -4   4  10 23536.2 1178.53  11
  -4   4  11 8032.16 577.609  11
  -4   4  12 27992.0 723.175  11
  -4   5 -11 910.663 169.984  14
  -4   5 -10 54091.9 1514.44  14
  -4   5  -9 2028.76 340.060  14
  -4   5  -8 74471.5 2047.56  14
  -4   5  -7 102476. 2402.02  14
  -4   5  -6 18000.1 971.462  15
  -4   5  -6 17475.9 925.154  14
  -4   5  -5 207586. 3330.23  14
  -4   5  -5 227143. 3457.11  15
  -4   5   1 105155. 2938.68   3
  -4   5   2 139541. 3466.37   3
  -4   5   3 2583.66 457.407   3
  -4   5   4 83239.4 2130.40  11
  -4   5   5 75654.3 2219.68  11
  -4   5   6 11554.6 890.612  11
  -4   5   7 133535. 3187.75  11
  -4   5   8 44036.6 1417.57  12
  -4   5   8 37165.0 1583.60  11
  -4   5   9 18062.6 760.467  12
  -4   5   9 16506.9 961.773  11
  -4   5  10 18527.3 520.762  12
  -4   5  10 16848.2 806.860  11
  -4   5  11 35190.3 785.079  11
  -4   6 -11 4671.47 327.482  14
  -4   6 -10 9142.67 577.539  14
  -4   6  -9 202.457 151.283  14
  -4   6  -8 2754.64 378.502  14
  -4   6  -7 27242.4 1250.81  15
  -4   6  -7 29459.5 1236.47  14
  -4   6  -6 153968. 3039.02  15
  -4   6  -6 158453. 2958.49  14
  -4   6  -5 133251. 2528.20  14
  -4   6  -5 139924. 2752.69  15
  -4   6  -4 105060. 2197.43  15
  -4   6  -3 149024. 2520.79  15
  -4   6   1 58905.2 2375.62   3
  -4   6   1 62132.4 1576.98  12
  -4   6   2 5577.67 702.917   3
  -4   6   2 5997.26 527.735  12
  -4   6   3 103860. 2431.95  12
  -4   6   3 117762. 2487.66  11
  -4   6   4 42879.9 1552.92  11
  -4   6   5 104712. 2618.31  11
  -4   6   6 67541.4 1989.18  12
  -4   6   6 64328.7 1991.76  11
  -4   6   7 21711.7 1026.31  12
  -4   6   7 18807.8 1016.33  11
  -4   6   8 65785.8 1602.06  12
  -4   6   8 57005.9 1609.97  11
  -4   6   9 7267.65 380.011  12
  -4   6   9 7306.09 449.602  11
  -4   7 -11 18689.8 543.066  14
  -4   7 -10 3111.32 305.844  14
  -4   7  -9 15202.0 760.991  14
  -4   7  -8 5031.78 470.885  14
  -4   7  -7 3302.28 440.815  15
  -4   7  -7 3761.81 420.128  14
  -4   7  -6 51578.3 1540.51  14
  -4   7  -6 49860.4 1672.24  15
  -4   7  -5 147920. 2913.93  15
  -4   7  -5 137482. 2443.80  14
  -4   7  -4 515.485 191.221  15
  -4   7  -3 78174.2 1984.24  15
  -4   7  -2 119153. 2458.43  15
  -4   7  -1 441885. 5330.29  15
  -4   7   0 90345.1 1927.74  12
  -4   7   0 89509.7 1974.26  15
  -4   7   1 15517.2 860.785  12
  -4   7   1 14896.9 764.694  15
  -4   7   2 3934.98 394.711  15
  -4   7   2 3054.15 411.645  12
  -4   7   3 8669.06 697.387  12
  -4   7   4 3314.62 451.552  12
  -4   7   5 25913.0 1199.80  12
  -4   7   6 37220.9 1346.33  12
  -4   7   7 19110.4 833.232  12
  -4   7   8 20150.0 633.189  12
  -4   8 -10 1665.47 157.358  14
  -4   8  -9 19100.5 674.488  14
  -4   8  -8 9544.30 533.120  14
  -4   8  -7 13842.9 836.780  15
  -4   8  -7 14723.8 689.980  14
  -4   8  -6 166896. 3140.25  15
  -4   8  -5 12941.0 827.993  15
  -4   8  -4 3888.91 458.222  15
  -4   8  -3 35691.0 1338.85  15
  -4   8  -2 60156.5 1737.37  15
  -4   8  -1 57435.7 1682.79  15
  -4   8   0 48006.8 1367.24  12
  -4   8   0 47145.0 1488.00  15
  -4   8   1 40584.0 1307.24  12
  -4   8   1 39974.9 1332.25  15
  -4   8   2 173277. 3055.88  12
  -4   8   2 170440. 2819.54  15
  -4   8   3 2426.83 353.597  12
  -4   8   3 3415.03 333.253  15
  -4   8   4 2802.54 363.606  12
  -4   8   5 7467.10 534.650  12
  -4   8   6 5353.18 378.671  12
  -4   8   7 9400.10 363.197  12
  -4   9  -8 18807.5 478.677   8
  -4   9  -7 17201.5 794.297  15
  -4   9  -6 11976.9 706.236  15
  -4   9  -5 46693.0 1449.39  15
  -4   9  -4 31567.8 1193.26  15
  -4   9  -3 61583.9 1671.25  15
  -4   9  -2 18705.5 893.044  15
  -4   9  -1 18981.1 889.842  15
  -4   9   0 8452.58 569.907  15
  -4   9   1 35107.2 981.474  12
  -4   9   1 29370.3 1000.05  15
  -4   9   2 8881.01 505.042  12
  -4   9   2 7823.80 436.645  15
  -4   9   3 34634.4 964.164  12
  -4   9   4 33428.6 842.266  12
  -4  10  -6 17076.7 616.790  15
  -4  10  -5 15955.7 648.381  15
  -4  10  -4 21404.3 771.738  15
  -4  10  -3 7829.88 470.088  15
  -4  10  -2 12047.3 389.419   8
  -4  10  -2 11958.2 559.928  15
  -4  10  -1 97566.3 1596.92  15
  -4  10   0 23334.4 597.322  15
  -3  -9   2 6365.98 300.164   1
  -3  -9   3 10645.5 421.069   1
  -3  -9   4 2093.59 196.728   1
  -3  -9   5 11836.7 436.228   1
  -3  -9   6 46415.3 813.634   1
  -3  -8  -2 33891.3 691.470   1
  -3  -8  -1 3162.00 278.479   1
  -3  -8   0 121338. 2156.26   1
  -3  -8   1 35798.4 1192.86   1
  -3  -8   2 15166.2 799.947   1
  -3  -8   3 298.456 159.365   1
  -3  -8   4 42357.7 1313.18   1
  -3  -8   5 15603.1 760.675   1
  -3  -8   6 17295.3 743.724   1
  -3  -8   7 2156.95 246.717   1
  -3  -8   8 19603.3 632.685   1
  -3  -8   9 3277.17 212.498   1
  -3  -7   0 141911. 2414.16  10
  -3  -7   1 19814.8 879.198  10
  -3  -7   2 232722. 3459.03  10
  -3  -7   3 4739.60 526.261   1
  -3  -7   4 17644.1 961.704   1
  -3  -7   5 73586.6 1906.00   1
  -3  -7   6 8447.81 596.530   1
  -3  -7   7 7620.29 520.349   1
  -3  -7   8 72731.0 1543.25   1
  -3  -7   9 6678.49 402.791   1
  -3  -6  -4 101801. 1828.94  10
  -3  -6  -3 37614.4 1256.38  10
  -3  -6  -2 32843.1 1269.04  10
  -3  -6  -1 78013.4 2060.05  10
  -3  -6   0 2941.42 406.510  10
  -3  -6   1 34504.6 1334.82  10
  -3  -6   2 42714.4 1441.25  10
  -3  -6   3 249566. 3778.88  10
  -3  -6   4 114320. 2321.94  10
  -3  -6   4 105766. 2392.05   1
  -3  -6   5 480765. 5764.90   1
  -3  -6   6 135483. 2507.43   1
  -3  -6   7 18784.4 841.979   1
  -3  -6   8 73280.2 1618.11   1
  -3  -6   9 38076.0 1070.71   1
  -3  -6  10 28175.3 835.377   1
  -3  -5  -6 21043.4 795.085  10
  -3  -5  -5 31721.2 1206.04  10
  -3  -5  -4 25788.2 1218.97  10
  -3  -5  -3 4200.71 522.103  10
  -3  -5  -2 32373.6 1445.90  10
  -3  -5  -1 52556.6 1823.48  10
  -3  -5   0 31029.2 1290.45  10
  -3  -5   1 149012. 2842.20  10
  -3  -5   2 181287. 3001.17  10
  -3  -5   4 185720. 2875.26  10
  -3  -5   5 2597.59 319.781   1
  -3  -5   5 2522.73 302.800  10
  -3  -5   6 284293. 3721.61   1
  -3  -5   7 117295. 2134.15   1
  -3  -5   8 7174.66 477.872   1
  -3  -5   9 17620.0 729.545   1
  -3  -5  10 4473.11 350.360   1
  -3  -4  -8 311.907 100.125  10
  -3  -4  -7 5824.50 492.253  10
  -3  -4  -6 55608.8 1774.42  10
  -3  -4  -5 118058. 2847.61  10
  -3  -4  -4 50533.9 1832.89  10
  -3  -4  -3 86397.9 2409.21  10
  -3  -4  -2 58927.3 1868.23  10
  -3  -4   8 91714.5 1418.17  13
  -3  -4   8 94595.3 1737.04   1
  -3  -4   9 81960.3 1617.26   1
  -3  -4   9 79855.7 1378.56  13
  -3  -4  10 69984.1 1342.89  13
  -3  -4  11 28766.0 843.920  13
  -3  -4  12 30822.6 875.245  13
  -3  -4  13 895.722 145.109  13
  -3  -4  14 14833.2 431.000  13
  -3  -3  -9 12514.6 563.624  10
  -3  -3  -8 2876.29 366.495  10
  -3  -3  -7 4358.80 523.103  10
  -3  -3  -6 33585.9 1520.97  10
  -3  -3  -5 33535.7 1507.22  10
  -3  -3  -4 131548. 3035.16  10
  -3  -3   9 40308.9 952.712  13
  -3  -3   9 38157.4 1556.35   4
  -3  -3  10 98800.0 1646.26  13
  -3  -3  11 722.262 150.257  13
  -3  -3  12 119341. 1971.05  13
  -3  -3  13 8280.55 432.214  13
  -3  -3  14 15207.7 525.547  13
  -3  -2 -10 20920.8 719.330  10
  -3  -2  -9 498.164 178.329  10
  -3  -2  -8 61326.0 1970.60  10
  -3  -2  -7 27656.9 1405.12  10
  -3  -2  -6 296087. 4977.82  10
  -3  -2  -5 25548.8 1286.39  10
  -3  -2   7 10745.3 768.544   4
  -3  -2   8 43209.1 1623.78   4
  -3  -2   9 38181.8 1556.62   4
  -3  -2   9 39466.7 928.051  13
  -3  -2  10 16595.5 634.910  13
  -3  -2  11 69328.5 1461.96  13
  -3  -2  12 30974.5 973.488  13
  -3  -2  13 121310. 1969.52  13
  -3  -2  14 338.006 103.899  13
  -3  -1 -11 25581.0 712.990  10
  -3  -1 -10 12065.4 709.265  10
  -3  -1  -9 71827.8 2102.01  10
  -3  -1  -8 23523.0 1259.98  10
  -3  -1  -7 354335. 5496.52  10
  -3  -1  -6 72610.3 2126.01  10
  -3  -1   5 194133. 3121.61   4
  -3  -1   6 21132.6 1020.27   4
  -3  -1   7 55548.8 1784.31   4
  -3  -1   8 66366.8 2083.17   4
  -3  -1   9 176961. 3666.23   4
  -3  -1   9 174473. 2252.74  13
  -3  -1  10 36174.4 963.126  13
  -3  -1  11 30047.6 946.025  13
  -3  -1  11 32670.0 1178.18  11
  -3  -1  12 102909. 1917.14  13
  -3  -1  12 126222. 2348.25  11
  -3  -1  13 4040.41 342.347  13
  -3  -1  14 32196.7 804.312  13
  -3   0 -11 21352.9 837.273  10
  -3   0 -10 54251.8 1693.86  10
  -3   0  -9 22818.2 1181.99  10
  -3   0  -8 108124. 2672.24  10
  -3   0  -7 31479.9 1355.53  10
  -3   0   2 34821.6 782.658   4
  -3   0   3 22530.8 762.495   4
  -3   0   4 274791. 3614.00   4
  -3   0   5 117452. 2410.58   4
  -3   0   6 351753. 5001.52   4
  -3   0   7 68108.5 2112.24   4
  -3   0   8 10501.3 868.704   4
  -3   0   9 77914.2 2518.97   4
  -3   0   9 76485.1 1368.87  13
  -3   0   9 76184.8 1865.28  11
  -3   0  10 88968.9 1639.36  13
  -3   0  10 100059. 2349.16  11
  -3   0  11 149908. 2381.51  13
  -3   0  11 171280. 3135.09  11
  -3   0  12 6386.07 434.801  13
  -3   0  12 7676.90 594.292  11
  -3   0  13 15846.7 649.630  13
  -3   0  13 17620.6 757.867  11
  -3   0  14 15232.2 476.545  13
  -3   0  14 16918.9 473.339  11
  -3   1 -12 3880.54 279.939  10
  -3   1 -11 11025.4 660.888  10
  -3   1 -10 20519.6 1031.56  10
  -3   1  -9 985.106 199.260  14
  -3   1  -9 2684.27 419.240  10
  -3   1  -8 4172.81 419.131  14
  -3   1  -8 4113.92 487.490  10
  -3   1  -7 32620.4 1289.54  10
  -3   1  -7 41202.4 1262.12  14
  -3   1   1 114621. 1502.68   4
  -3   1   2 41019.4 993.141   4
  -3   1   3 103825. 1978.44   4
  -3   1   4 40620.1 1359.19   4
  -3   1   5 248020. 4106.62   4
  -3   1   6 149437. 3318.50   4
  -3   1   7 103802. 2896.85   4
  -3   1   8 45054.0 1971.31   4
  -3   1   9 21270.0 1367.10   4
  -3   1   9 19436.1 678.346  13
  -3   1   9 21234.1 1078.12  11
  -3   1  10 67634.3 1445.96  13
  -3   1  10 74575.1 2112.15  11
  -3   1  11 923.234 192.728  13
  -3   1  11 579.855 224.077  11
  -3   1  12 10376.0 555.238  13
  -3   1  12 11291.6 745.727  11
  -3   1  13 18373.1 769.522  11
  -3   1  13 14653.2 539.121  13
  -3   2 -12 30464.0 877.933  10
  -3   2 -11 35176.6 1214.06  10
  -3   2 -10 20937.5 863.446  14
  -3   2 -10 19031.8 982.445  10
  -3   2  -9 18566.5 980.510  10
  -3   2  -9 20380.7 938.085  14
  -3   2  -8 57848.0 1636.94  14
  -3   2  -7 145340. 2545.59  14
  -3   2   2 81479.2 1833.41   4
  -3   2   2 91281.9 1670.06   3
  -3   2   3 78746.8 1605.20   3
  -3   2   3 74611.7 1971.14   4
  -3   2   5 187047. 3885.86   4
  -3   2   6 149531. 3673.71   4
  -3   2   7 49978.8 2159.83   4
  -3   2   8 72159.9 1273.69  13
  -3   2   8 70863.3 2684.84   4
  -3   2   8 71310.1 2030.04  11
  -3   2   9 69165.4 1397.81  13
  -3   2   9 69762.4 2092.40  11
  -3   2  10 14138.2 646.922  13
  -3   2  10 14344.1 962.018  11
  -3   2  11 35849.9 1042.27  13
  -3   2  11 37842.8 1520.32  11
  -3   2  12 2231.59 220.676  13
  -3   2  12 2633.24 358.566  11
  -3   2  13 2295.35 247.866  11
  -3   3 -12 17340.0 640.578  10
  -3   3 -11 1684.65 226.610  14
  -3   3 -11 1590.58 257.040  10
  -3   3 -10 13774.8 790.077  10
  -3   3 -10 14281.9 760.069  14
  -3   3  -9 43643.1 1410.12  14
  -3   3  -8 3691.92 412.618  14
  -3   3  -7 15804.1 793.967  14
  -3   3   1 171722. 2945.78   3
  -3   3   2 288857. 4121.93   3
  -3   3   4 176091. 4052.06   4
  -3   3   4 186932. 3458.09   3
  -3   3   5 137082. 3747.25   4
  -3   3   5 153762. 3225.59   3
  -3   3   6 2738.03 554.280   4
  -3   3   7 199755. 4917.79   4
  -3   3   7 183612. 3376.83  11
  -3   3   8 155782. 3251.79  11
  -3   3   9 15968.0 1019.46  11
  -3   3  10 20603.1 1150.99  11
  -3   3  11 32141.9 1306.94  11
  -3   3  12 24163.4 916.634  11
  -3   4 -12 5507.11 308.845  14
  -3   4 -12 6001.54 333.213  10
  -3   4 -11 16547.6 739.339  14
  -3   4 -11 15636.2 700.551  10
  -3   4 -10 2003.55 288.839  10
  -3   4 -10 1707.51 281.940  14
  -3   4  -9 9067.24 658.210  14
  -3   4  -8 26881.8 1124.65  14
  -3   4  -7 21166.6 954.523  14
  -3   4   0 3350.15 449.921   3
  -3   4   1 90285.1 2425.85   3
  -3   4   2 21050.4 1163.08   3
  -3   4   3 146893. 3340.79   3
  -3   4   4 31935.7 1580.80   3
  -3   4   5 44772.4 1893.07   3
  -3   4   6 10438.9 740.228  11
  -3   4   7 82076.3 2299.88  11
  -3   4   8 15995.0 1034.18  11
  -3   4   9 55854.5 1924.31  11
  -3   4  10 45910.6 1581.84  11
  -3   4  11 11568.4 661.211  11
  -3   4  12 2593.00 206.368  11
  -3   5 -12 10358.0 448.195  14
  -3   5 -11 39329.5 1180.01  14
  -3   5 -10 32224.9 1199.73  14
  -3   5  -9 46731.0 1543.68  14
  -3   5  -8 8089.15 619.659  14
  -3   5  -7 217545. 3392.13  14
  -3   5  -7 215802. 3673.79  15
  -3   5  -6 57695.4 1599.95  15
  -3   5  -6 57300.4 1517.54  14
  -3   5  -1 260620. 4881.31   3
  -3   5   0 25341.8 1417.56   3
  -3   5   1 401636. 6390.65   3
  -3   5   2 154451. 3771.85   3
  -3   5   3 67499.8 2515.06   3
  -3   5   4 17579.3 1285.52   3
  -3   5   5 62779.0 2374.07   3
  -3   5   5 70591.8 1925.50  11
  -3   5   6 131417. 2936.02  11
  -3   5   7 36396.4 1498.99  11
  -3   5   8 16894.5 1005.93  11
  -3   5   9 10274.2 567.501  12
  -3   5   9 9497.11 691.205  11
  -3   5  10 20611.4 550.404  12
  -3   5  10 20584.4 822.487  11
  -3   6 -12 6897.02 350.228  14
  -3   6 -11 7500.11 487.676  14
  -3   6 -10 53952.8 1542.21  14
  -3   6  -9 75470.8 1947.27  14
  -3   6  -8 15849.3 880.430  14
  -3   6  -8 15996.3 960.791  15
  -3   6  -7 56151.2 1781.48  15
  -3   6  -7 57150.5 1629.11  14
  -3   6  -6 4585.79 442.624  14
  -3   6  -6 5191.96 503.883  15
  -3   6  -5 42072.9 1208.11  14
  -3   6  -5 47886.6 1426.93  15
  -3   6  -4 32423.2 1116.40  15
  -3   6  -1 32741.0 1763.57   3
  -3   6   0 73176.6 2711.83   3
  -3   6   1 201510. 4675.45   3
  -3   6   2 254433. 5482.17   3
  -3   6   2 251729. 3497.48  15
  -3   6   3 109411. 2179.97  15
  -3   6   3 110800. 3410.18   3
  -3   6   4 3033.58 358.326  15
  -3   6   5 4052.85 467.489  11
  -3   6   5 4055.52 424.174  15
  -3   6   6 26694.4 1013.84  15
  -3   6   6 27171.8 1212.49  11
  -3   6   7 58263.3 1732.27  11
  -3   6   8 53664.2 1403.99  12
  -3   6   8 50145.2 1409.40  11
  -3   6   9 878.744 147.794  12
  -3   6   9 686.896 126.574  11
  -3   7 -11 3793.15 317.083  14
  -3   7 -10 44003.3 1266.66  14
  -3   7  -9 34148.4 1218.10  14
  -3   7  -8 79457.1 1960.06  14
  -3   7  -8 71634.4 2092.46  15
  -3   7  -7 29429.5 1130.35  14
  -3   7  -7 27839.8 1262.69  15
  -3   7  -6 41341.2 1319.75  14
  -3   7  -6 42693.1 1508.93  15
  -3   7  -5 36255.4 1121.14  14
  -3   7  -5 42631.2 1460.63  15
  -3   7  -4 258325. 3920.34  15
  -3   7  -3 6363.58 544.665  15
  -3   7  -2 74538.1 1887.37  15
  -3   7  -1 3575.46 411.140  15
  -3   7   0 104790. 2006.43  12
  -3   7   0 102487. 2263.49  15
  -3   7   1 40095.0 1398.07  15
  -3   7   2 13252.8 818.550  15
  -3   7   3 5602.36 529.815  15
  -3   7   4 45541.3 1479.98  15
  -3   7   5 3775.83 400.576  15
  -3   7   6 40015.2 1106.21  15
  -3   7   7 59114.1 1458.02  12
  -3   7   8 5608.83 331.668  12
  -3   8 -11 15237.6 452.695  14
  -3   8 -10 6308.77 382.017  14
  -3   8  -9 33816.9 1037.51  14
  -3   8  -8 23401.2 905.488  14
  -3   8  -8 21403.8 1048.53  15
  -3   8  -7 117945. 2199.17  14
  -3   8  -7 109468. 2530.85  15
  -3   8  -6 64571.2 1913.63  15
  -3   8  -5 82851.1 2159.83  15
  -3   8  -4 47092.1 1609.70  15
  -3   8  -3 232964. 3885.47  15
  -3   8  -2 19946.2 1028.24  15
  -3   8  -1 185300. 3340.29  15
  -3   8   0 21601.0 1056.55  15
  -3   8   1 61941.7 1666.22  12
  -3   8   1 60844.5 1803.61  15
  -3   8   2 13665.8 808.565  15
  -3   8   2 12708.3 763.039  12
  -3   8   3 109818. 2278.69  15
  -3   8   3 109270. 2373.28  12
  -3   8   4 29178.5 1008.89  15
  -3   8   4 28356.7 1113.77  12
  -3   8   5 62016.2 1546.93  12
  -3   8   5 65463.8 1291.04  15
  -3   8   6 46133.5 1131.95  12
  -3   8   7 65262.5 988.244  12
  -3   9  -8 22079.9 908.741  15
  -3   9  -7 26113.3 1084.31  15
  -3   9  -6 29982.6 1205.09  15
  -3   9  -5 30293.4 1227.82  15
  -3   9  -4 38320.6 1402.14  15
  -3   9  -3 142656. 2868.73  15
  -3   9  -2 65241.7 1868.54  15
  -3   9  -1 3475.98 421.429  15
  -3   9   0 41729.9 1394.66  15
  -3   9   1 79831.4 1509.06  12
  -3   9   1 75304.7 1796.55  15
  -3   9   2 3535.36 315.600  12
  -3   9   2 3544.58 351.594  15
  -3   9   3 307.891 112.213  12
  -3   9   3 560.425 137.338  15
  -3   9   4 22223.3 652.392  12
  -3  10  -7 10325.8 501.684  15
  -3  10  -6 10663.2 571.640  15
  -3  10  -5 15604.0 721.044  15
  -3  10  -4 11535.6 636.163  15
  -3  10  -3 107905. 2050.44  15
  -3  10  -2 17168.3 754.592  15
  -3  10  -1 32974.1 1001.37  15
  -3  10   0 24900.8 787.612  15
  -3  10   1 14245.9 485.339  15
  -2  -9   0 26355.8 688.860   1
  -2  -9   1 777.728 146.415   1
  -2  -9   2 20277.3 711.980   1
  -2  -9   3 29364.0 876.488   1
  -2  -9   4 64901.4 1297.31   1
  -2  -9   5 9480.71 447.492   1
  -2  -9   6 26885.5 654.764   1
  -2  -8   3 25585.5 1105.55   1
  -2  -8   4 130800. 2508.68   1
  -2  -8   5 20805.3 866.498   1
  -2  -8   6 47415.0 1246.04   1
  -2  -8   7 179437. 2477.23   1
  -2  -8   8 24775.3 694.968   1
  -2  -7   4 30517.6 1204.27   1
  -2  -7   5 35565.4 1234.14   1
  -2  -7   6 4321.42 399.116   1
  -2  -7   7 8643.66 522.435   1
  -2  -7   8 300641. 3550.08   1
  -2  -7   9 18361.1 621.839   1
  -2  -6   0 231680. 3473.05  10
  -2  -6   1 49211.7 1410.38  10
  -2  -6   2 187489. 2855.73  10
  -2  -6   3 71890.0 1595.86  10
  -2  -6   5 68666.2 1646.19   1
  -2  -6   6 70375.7 1578.47   1
  -2  -6   7 45498.9 1216.53   1
  -2  -6   8 35794.8 1022.95   1
  -2  -6   9 26524.0 818.957   1
  -2  -5  -6 14658.8 783.104  10
  -2  -5  -5 1967.03 338.230  10
  -2  -5  -4 64532.7 1935.64  10
  -2  -5  -3 54483.1 1762.93  10
  -2  -5  -2 32783.6 1284.42  10
  -2  -5  -1 111416. 2330.07  10
  -2  -5   7 2238.56 239.125   1
  -2  -5   8 31992.4 893.671   1
  -2  -5   9 25231.5 792.344   1
  -2  -4  -9 17253.4 484.488  10
  -2  -4  -8 50753.4 1348.62  10
  -2  -4  -7 20718.3 992.333  10
  -2  -4  -6 100098. 2444.77  10
  -2  -4  -5 109109. 2649.64  10
  -2  -4  -4 39340.2 1469.66  10
  -2  -4   9 13112.2 536.778   1
  -2  -4   9 12674.6 487.239  13
  -2  -4  10 44791.4 1047.48  13
  -2  -4  11 109542. 1835.72  13
  -2  -4  12 95515.0 1642.08  13
  -2  -4  13 33365.3 885.010  13
  -2  -4  14 32904.6 667.674  13
  -2  -3 -10 2651.52 225.163  10
  -2  -3  -9 860.745 195.463  10
  -2  -3  -8 59271.3 1829.17  10
  -2  -3  -7 145053. 3149.54  10
  -2  -3  -6 152670. 3258.69  10
  -2  -3  -5 118556. 2725.42  10
  -2  -3   9 44109.1 950.577  13
  -2  -3   9 43442.6 1623.87   4
  -2  -3  10 149941. 2183.90  13
  -2  -3  11 4879.80 378.491  13
  -2  -3  12 673.904 162.180  13
  -2  -3  13 20718.9 768.757  13
  -2  -3  14 3890.65 267.577  13
  -2  -2 -11 17235.1 564.502  10
  -2  -2 -10 30742.4 1105.59  10
  -2  -2  -9 8212.28 687.171  10
  -2  -2  -8 99468.1 2590.70  10
  -2  -2  -7 94169.8 2519.87  10
  -2  -2  -6 181895. 3440.71  10
  -2  -2   8 78504.3 2149.55   4
  -2  -2   9 51164.5 1749.95   4
  -2  -2  10 278532. 3342.89  13
  -2  -2  11 17031.7 718.283  13
  -2  -2  12 53692.4 1320.42  13
  -2  -2  13 31805.1 990.388  13
  -2  -2  14 3104.97 252.408  13
  -2  -1 -12 18844.9 513.284  10
  -2  -1 -11 296.965 129.743  10
  -2  -1 -10 4761.41 507.801  10
  -2  -1  -9 19586.9 1099.73  10
  -2  -1  -8 43257.1 1630.97  10
  -2  -1  -7 188460. 3486.06  10
  -2  -1   6 60022.5 1700.27   4
  -2  -1   7 56457.4 1759.19   4
  -2  -1   8 143072. 3097.58   4
  -2  -1   9 43908.4 1700.02   4
  -2  -1  10 12368.7 583.947  13
  -2  -1  11 96055.8 1899.51  13
  -2  -1  11 110914. 2395.99  11
  -2  -1  12 21468.9 850.580  13
  -2  -1  12 24894.8 1034.44  11
  -2  -1  13 22396.5 835.857  13
  -2  -1  13 25307.6 891.807  11
  -2  -1  14 2490.75 220.631  13
  -2  -1  14 1435.45 136.616  11
  -2   0 -12 35552.1 996.831  10
  -2   0 -11 13418.9 787.289  10
  -2   0 -10 12648.4 833.998  10
  -2   0  -9 25305.3 1222.45  10
  -2   0  -8 3760.29 460.086  10
  -2   0   1 148529. 1564.32   4
  -2   0   3 102665. 1718.09   4
  -2   0   4 56717.0 1392.84   4
  -2   0   5 13606.1 742.030   4
  -2   0   5 13135.9 493.844   6
  -2   0   6 228540. 3694.73   4
  -2   0   6 204473. 2732.97   6
  -2   0   7 58964.5 1905.25   4
  -2   0   8 223157. 4175.04   4
  -2   0   9 6535.73 704.356   4
  -2   0   9 6150.44 382.139  13
  -2   0  10 80062.5 1619.79  13
  -2   0  11 26732.2 959.079  13
  -2   0  11 31353.5 1309.10  11
  -2   0  12 94131.7 1947.57  13
  -2   0  12 97714.6 2251.90  11
  -2   0  13 7063.95 433.595  13
  -2   0  13 7343.38 491.328  11
  -2   0  14 5388.51 279.157  13
  -2   0  14 5517.14 283.978  11
  -2   1 -13 15836.9 490.699  10
  -2   1 -12 38183.6 1165.79  10
  -2   1 -11 24428.5 1089.19  10
  -2   1 -10 76836.5 2095.36  10
  -2   1   3 9505.63 564.977   4
  -2   1   3 10781.3 450.007   3
  -2   1   4 332437. 4514.35   4
  -2   1   4 338310. 3787.60   3
  -2   1   5 232759. 3935.59   4
  -2   1   5 240332. 3339.18   3
  -2   1   6 365.701 173.429   4
  -2   1   6 380.312 149.241   3
  -2   1   7 53013.2 1980.77   4
  -2   1   8 133365. 3362.97   4
  -2   1   9 13255.5 1056.02   4
  -2   1   9 14213.6 627.673  13
  -2   1  10 95685.6 1869.31  13
  -2   1  10 113675. 2634.06  11
  -2   1  11 79935.9 1759.23  13
  -2   1  11 91418.7 2342.25  11
  -2   1  12 28224.2 939.698  13
  -2   1  12 31938.9 1219.81  11
  -2   1  13 68599.7 1268.47  13
  -2   1  13 78559.6 1618.79  11
  -2   2 -13 39193.0 902.656  10
  -2   2 -12 15072.1 732.461  10
  -2   2 -11 20469.0 982.718  10
  -2   2 -10 15590.5 737.000  14
  -2   2  -9 24135.3 933.024  14
  -2   2  -8 46940.1 1246.61  14
  -2   2   0 15105.7 633.311   3
  -2   2   3 38743.7 1388.57   4
  -2   2   3 44404.2 1294.79   3
  -2   2   4 27485.6 1291.43   4
  -2   2   4 31972.4 1197.87   3
  -2   2   5 62840.6 2129.27   4
  -2   2   5 66857.9 1907.51   3
  -2   2   6 123783. 3315.51   4
  -2   2   6 119536. 2850.76   3
  -2   2   7 6739.60 796.131   4
  -2   2   8 9279.63 453.312  13
  -2   2   8 10400.4 748.608  11
  -2   2   8 9489.40 973.036   4
  -2   2   9 179044. 2652.36  13
  -2   2   9 200226. 3667.95  11
  -2   2  10 51020.4 1375.28  13
  -2   2  10 53473.0 1830.42  11
  -2   2  11 12568.6 609.893  13
  -2   2  11 14043.2 882.200  11
  -2   2  12 12494.2 523.054  13
  -2   2  12 13307.7 742.059  11
  -2   2  13 3678.48 285.784  11
  -2   3 -13 7400.78 380.667  10
  -2   3 -12 17278.9 766.027  10
  -2   3 -11 43876.1 1207.90  14
  -2   3 -10 7091.16 516.755  14
  -2   3  -9 69728.7 1700.42  14
  -2   3  -8 158443. 2570.03  14
  -2   3  -1 66172.0 1714.82   3
  -2   3   0 45654.2 1392.60   3
  -2   3   2 637518. 7302.82   3
  -2   3   3 384185. 5467.97   3
  -2   3   4 54305.3 2177.16   4
  -2   3   4 60764.5 2041.16   3
  -2   3   5 211478. 4810.12   4
  -2   3   5 232104. 4469.03   3
  -2   3   6 22458.6 1549.46   4
  -2   3   6 22065.8 1378.10   3
  -2   3   7 8457.17 988.116   4
  -2   3   7 8309.44 656.598  11
  -2   3   8 27627.4 1286.91  11
  -2   3   9 26885.2 1309.56  11
  -2   3  10 9350.99 735.068  11
  -2   3  11 25075.7 1080.08  11
  -2   3  12 70687.2 1485.84  11
  -2   4 -13 6479.28 324.195  10
  -2   4 -12 28394.1 924.193  10
  -2   4 -12 29026.4 844.492  14
  -2   4 -11 8793.94 554.411  14
  -2   4 -10 22045.0 952.222  14
  -2   4  -9 8345.73 583.386  14
  -2   4  -8 35331.8 1158.50  14
  -2   4  -2 20702.2 1091.74   3
  -2   4  -1 232635. 3977.19   3
  -2   4   0 6234.22 613.387   3
  -2   4   1 5225.46 581.647   3
  -2   4   2 109110. 2913.19   3
  -2   4   3 219828. 4538.37   3
  -2   4   4 58250.7 2300.35   3
  -2   4   5 78582.2 2812.30   3
  -2   4   6 172480. 4227.81   3
  -2   4   6 168689. 2987.29  11
  -2   4   7 60173.6 1870.30  11
  -2   4   8 43561.4 1616.56  11
  -2   4   8 49940.2 1518.60  15
  -2   4   9 23095.6 1156.45  11
  -2   4   9 26373.5 991.462  15
  -2   4  10 5977.79 525.370  11
  -2   4  11 29583.0 936.052  11
  -2   5 -13 3148.66 175.006  14
  -2   5 -12 1169.07 173.982  10
  -2   5 -12 1248.30 187.706  14
  -2   5 -11 20158.3 871.482  14
  -2   5 -10 23654.0 1001.90  14
  -2   5  -9 20091.5 931.794  14
  -2   5  -8 22515.9 947.639  14
  -2   5  -8 21869.0 1070.35  15
  -2   5  -7 90759.9 1920.49  14
  -2   5  -7 89926.3 2074.74  15
  -2   5  -2 56229.5 2070.41   3
  -2   5  -1 11789.8 949.302   3
  -2   5   0 108208. 3058.62   3
  -2   5   1 90246.2 2869.88   3
  -2   5   2 8770.09 917.870   3
  -2   5   3 42522.7 2097.45   3
  -2   5   4 117706. 3698.77   3
  -2   5   5 524.537 264.740   3
  -2   5   5 296.974 159.708  11
  -2   5   5 715.799 205.523  15
  -2   5   6 96000.6 2329.09  11
  -2   5   6 100248. 2345.29  15
  -2   5   7 30569.6 1305.58  11
  -2   5   7 32483.6 1266.79  15
  -2   5   8 11214.2 744.903  11
  -2   5   8 12731.8 720.348  15
  -2   5   9 31424.9 1125.96  11
  -2   5   9 33330.5 940.524  15
  -2   5  10 34791.3 684.756  12
  -2   5  10 36241.2 951.495  11
  -2   6 -12 17475.0 651.036  14
  -2   6 -11 18233.7 806.600  14
  -2   6 -10 12510.1 728.537  14
  -2   6  -9 74545.5 1872.72  14
  -2   6  -8 32062.2 1323.21  15
  -2   6  -8 32843.7 1203.95  14
  -2   6  -7 402994. 4904.72  14
  -2   6  -7 389381. 5154.71  15
  -2   6  -6 118626. 2234.42  14
  -2   6  -6 121463. 2393.12  15
  -2   6  -5 169323. 2768.61  15
  -2   6  -2 56673.9 2296.86   3
  -2   6  -1 162934. 4064.74   3
  -2   6   0 51624.0 2308.72   3
  -2   6   1 53143.5 2393.55   3
  -2   6   2 108752. 3579.45   3
  -2   6   2 109857. 2265.73  15
  -2   6   3 42852.8 1471.05  15
  -2   6   3 41776.4 2204.40   3
  -2   6   4 18541.8 1006.38  15
  -2   6   5 12503.2 818.977  15
  -2   6   6 2909.63 388.026  15
  -2   6   7 34830.3 1183.87  15
  -2   6   8 27190.5 853.127  15
  -2   6   9 104803. 1508.07  12
  -2   7 -12 24169.2 681.145  14
  -2   7 -11 40277.3 1108.45  14
  -2   7 -10 9306.61 588.226  14
  -2   7  -9 18381.7 883.183  14
  -2   7  -9 16584.3 954.395  15
  -2   7  -8 56217.0 1591.97  14
  -2   7  -8 52146.2 1708.11  15
  -2   7  -7 48946.1 1445.91  14
  -2   7  -7 49933.9 1630.73  15
  -2   7  -6 28245.0 1050.73  14
  -2   7  -6 28929.5 1192.00  15
  -2   7  -5 1243.98 215.212  14
  -2   7  -5 1963.12 325.658  15
  -2   7  -4 50464.6 1550.33  15
  -2   7  -3 149528. 2764.19  15
  -2   7  -2 42140.8 1396.43  15
  -2   7  -2 41237.9 2095.78   3
  -2   7  -1 171902. 4454.36   3
  -2   7  -1 172557. 3093.12  15
  -2   7   0 58102.6 2542.59   3
  -2   7   0 55914.9 1709.74  15
  -2   7   1 55375.6 1742.47  15
  -2   7   2 15962.3 946.134  15
  -2   7   3 53808.0 1777.49  15
  -2   7   4 147637. 3001.06  15
  -2   7   5 8649.00 643.997  15
  -2   7   6 15274.5 741.460  15
  -2   7   7 5487.69 350.018  15
  -2   7   8 33605.8 747.060  12
  -2   8 -11 195.674 82.8965  14
  -2   8 -10 14112.8 627.588  14
  -2   8  -9 38306.8 1145.36  14
  -2   8  -9 34559.5 1266.69  15
  -2   8  -8 42013.3 1236.76  14
  -2   8  -8 41077.8 1466.22  15
  -2   8  -7 1757.42 266.363  14
  -2   8  -7 1711.26 326.257  15
  -2   8  -6 11515.6 606.302  14
  -2   8  -6 12150.7 807.715  15
  -2   8  -5 921.329 274.543  15
  -2   8  -4 40250.9 1510.33  15
  -2   8  -3 3062.60 417.584  15
  -2   8  -2 26113.0 1202.54  15
  -2   8  -1 106199. 2528.35  15
  -2   8   0 187204. 3521.14  15
  -2   8   1 9765.71 747.568  15
  -2   8   2 80579.9 2155.13  15
  -2   8   3 46974.1 1546.22  15
  -2   8   4 15602.2 796.515  15
  -2   8   5 1738.55 232.886  15
  -2   8   6 24274.6 575.949  15
  -2   8   6 26050.3 757.085  12
  -2   9  -9 27138.3 684.927  14
  -2   9  -8 21127.3 643.918  14
  -2   9  -8 20329.1 914.576  15
  -2   9  -7 27205.1 1118.18  15
  -2   9  -6 22776.3 1064.89  15
  -2   9  -5 184597. 3319.79  15
  -2   9  -4 7306.26 635.101  15
  -2   9  -3 79961.5 2149.78  15
  -2   9  -2 23428.4 1135.32  15
  -2   9  -1 70745.8 1970.94  15
  -2   9   0 97072.8 2267.06  15
  -2   9   1 106064. 2261.94  15
  -2   9   2 34909.0 953.828  12
  -2   9   2 33160.3 1118.09  15
  -2   9   3 17968.6 636.652  12
  -2   9   3 17467.4 688.272  15
  -2   9   4 28315.6 664.531  12
  -2   9   4 30359.0 699.670  15
  -2  10  -7 16269.0 675.924  15
  -2  10  -6 9729.38 561.109  15
  -2  10  -5 98713.8 1984.13  15
  -2  10  -4 22998.8 917.917  15
  -2  10  -3 33346.2 1128.09  15
  -2  10  -2 29280.9 1040.03  15
  -2  10  -1 1486.44 240.064  15
  -2  10   0 9796.75 512.283  15
  -2  10   1 13152.4 508.968  15
  -1  -9  -2 20635.3 530.498   1
  -1  -9  -1 5534.89 342.287   1
  -1  -9   0 345.568 120.109   1
  -1  -9   1 15648.9 687.277   1
  -1  -9   2 32495.5 994.918   1
  -1  -9   3 141653. 2206.28   1
  -1  -9   4 21750.8 724.369   1
  -1  -8   3 88492.8 2014.14   1
  -1  -8   4 9602.91 604.294   1
  -1  -8   5 10903.5 585.889   1
  -1  -7   4 75105.7 1748.71   1
  -1  -7   5 136906. 2310.88   1
  -1  -7   6 41246.6 1093.39   1
  -1  -6   6 16697.6 626.007   1
  -1  -4  -8 81941.5 1835.06  10
  -1  -4  -7 105774. 2388.43  10
  -1  -4  -6 97617.3 2325.02  10
  -1  -4  -5 145970. 2763.05  10
  -1  -4   5 93083.5 1802.65   5
  -1  -4  10 93992.8 1661.57  13
  -1  -4  11 164848. 2404.90  13
  -1  -4  12 70193.1 1489.99  13
  -1  -4  13 34078.0 898.505  13
  -1  -4  14 24346.6 519.738  13
  -1  -3 -10 11397.7 568.321  10
  -1  -3  -9 40734.6 1361.92  10
  -1  -3  -8 44259.3 1567.22  10
  -1  -3  -7 50263.2 1720.36  10
  -1  -3  -6 125725. 2624.60  10
  -1  -3   5 44572.1 1021.87   5
  -1  -3   9 8371.82 412.150  13
  -1  -3   9 7378.37 630.032   4
  -1  -3  10 137807. 2168.08  13
  -1  -3  11 241909. 3177.83  13
  -1  -3  12 96172.0 1872.19  13
  -1  -3  13 2104.55 247.728  13
  -1  -3  14 7456.71 354.133  13
  -1  -2 -11 26735.9 888.068  10
  -1  -2 -10 755.008 217.490  10
  -1  -2  -9 138364. 2903.11  10
  -1  -2  -8 34323.8 1381.84  10
  -1  -2  -7 19502.5 987.025  10
  -1  -2   5 82772.5 1173.24   5
  -1  -2   6 29046.7 643.551   5
  -1  -2   8 96627.6 2308.29   4
  -1  -2   9 537.501 191.455   4
  -1  -2  10 24352.4 1151.24   4
  -1  -2  10 26511.5 892.861  13
  -1  -2  11 63526.8 1527.46  13
  -1  -2  12 84052.5 1850.31  13
  -1  -2  12 94730.2 1987.48  11
  -1  -2  13 13197.8 637.794  13
  -1  -2  13 14048.9 607.898  11
  -1  -2  14 5638.59 329.560  13
  -1  -1 -12 7429.45 432.739  10
  -1  -1 -11 19497.2 928.967  10
  -1  -1 -10 139546. 2872.42  10
  -1  -1  -9 82471.0 2176.29  10
  -1  -1  -8 249073. 3974.26  10
  -1  -1   3 96405.1 1028.44   5
  -1  -1   4 93553.8 1096.73   5
  -1  -1   5 40796.1 758.679   5
  -1  -1   6 83746.6 1938.42   4
  -1  -1   6 82183.2 1281.47   5
  -1  -1   7 63030.9 1771.53   4
  -1  -1   8 114902. 2632.37   4
  -1  -1   9 9272.28 746.417   4
  -1  -1   9 9997.57 505.067  13
  -1  -1  10 103920. 1927.35  13
  -1  -1  11 7228.18 520.125  13
  -1  -1  12 49445.8 1419.68  13
  -1  -1  12 54838.9 1573.84  11
  -1  -1  13 5758.42 411.845  13
  -1  -1  13 6402.68 440.233  11
  -1  -1  14 67615.3 1144.37  13
  -1  -1  14 60208.0 984.976  11
  -1   0 -13 2580.18 215.804  10
  -1   0 -12 9248.12 576.553  10
  -1   0 -11 421.352 182.266  10
  -1   0 -10 54964.2 1766.95  10
  -1   0   4 54581.4 1306.93   4
  -1   0   5 208610. 3222.92   4
  -1   0   6 77682.1 1994.64   4
  -1   0   6 74381.6 1696.48   6
  -1   0   7 272837. 4352.80   4
  -1   0   7 262431. 3907.91   6
  -1   0   8 52124.8 1871.08   4
  -1   0   8 53243.8 1651.73   6
  -1   0   9 131109. 3159.71   4
  -1   0   9 127281. 2086.52  13
  -1   0  10 4298.53 395.786  13
  -1   0  11 40602.4 1318.65  13
  -1   0  12 3345.75 352.386  13
  -1   0  12 3551.79 412.408  11
  -1   0  13 650.741 144.862  13
  -1   0  13 379.746 132.630  11
  -1   0  14 3704.21 210.255  11
  -1   1 -13 9304.53 485.734  10
  -1   1 -12 58038.9 1583.66  10
  -1   1   0 1781.54 145.034   3
  -1   1   3 121239. 2165.26   4
  -1   1   3 138041. 2028.69   6
  -1   1   4 385114. 4865.37   4
  -1   1   4 370923. 4399.86   6
  -1   1   5 2201.93 342.412   4
  -1   1   5 1945.58 295.876   6
  -1   1   6 134112. 3000.32   4
  -1   1   6 130408. 2760.27   6
  -1   1   7 88938.5 2573.54   4
  -1   1   7 85712.3 2364.41   6
  -1   1   8 119207. 3124.35   4
  -1   1   8 121096. 2911.26   6
  -1   1   9 17390.6 1160.17   4
  -1   1   9 17692.4 761.730  13
  -1   1  10 94311.0 2033.19  13
  -1   1  11 27294.5 1036.07  13
  -1   1  11 33417.2 1366.83  11
  -1   1  12 2497.51 286.229  13
  -1   1  12 2888.36 365.794  11
  -1   1  13 438.353 121.931  11
  -1   2 -13 28360.4 908.776  10
  -1   2 -10 48093.6 1221.61  14
  -1   2  -9 26688.9 852.409  14
  -1   2   2 408461. 4760.97   3
  -1   2   3 134570. 2811.58   4
  -1   2   3 145810. 2701.11   3
  -1   2   4 73199.1 2164.36   4
  -1   2   4 68396.5 1980.63   3
  -1   2   5 326761. 5399.50   4
  -1   2   6 268182. 5016.28   4
  -1   2   7 9772.53 937.068   4
  -1   2   7 10915.9 936.394   3
  -1   2   8 216957. 4690.99   4
  -1   2   8 224806. 3022.42  13
  -1   2   8 220866. 4385.26   3
  -1   2   9 30255.9 1086.21  13
  -1   2  10 80869.5 1804.91  13
  -1   2  10 89667.0 2358.64  11
  -1   2  11 65106.6 1492.69  13
  -1   2  11 66614.1 1873.63  11
  -1   2  12 49866.4 1321.98  11
  -1   2  13 16612.4 507.718  11
  -1   3 -14 25502.5 589.587  10
  -1   3 -13 14887.8 647.467  10
  -1   3 -11 82406.6 1697.46  14
  -1   3 -10 27694.1 975.305  14
  -1   3  -9 6980.73 464.439  14
  -1   3  -4 64667.1 1806.42   2
  -1   3  -3 135204. 2571.69   2
  -1   3  -2 36090.6 1177.38   3
  -1   3  -2 33932.6 1141.29   2
  -1   3  -1 83992.4 1849.01   3
  -1   3  -1 80412.4 1691.10   2
  -1   3   0 23158.3 1001.13   3
  -1   3   0 24734.4 799.226   2
  -1   3   1 206655. 3527.25   3
  -1   3   2 162873. 3284.81   3
  -1   3   3 25202.5 1295.66   3
  -1   3   4 41894.7 1797.79   3
  -1   3   5 31875.6 1654.66   3
  -1   3   6 93065.0 2995.62   3
  -1   3   7 30326.4 1681.18   3
  -1   3   8 173341. 2626.18  13
  -1   3   8 188393. 3470.77  11
  -1   3   9 30050.0 1015.27  13
  -1   3   9 29996.1 1328.32  11
  -1   3  10 17026.9 936.001  11
  -1   3  11 5679.34 463.461  11
  -1   3  11 5979.22 374.550  15
  -1   3  12 7974.09 395.020  11
  -1   4 -13 49796.1 1165.17  10
  -1   4 -12 48149.1 1155.19  14
  -1   4 -11 26745.0 966.322  14
  -1   4 -10 21004.1 866.280  14
  -1   4  -9 126902. 2260.11  14
  -1   4  -8 23521.9 869.579  14
  -1   4  -8 23717.0 997.352  15
  -1   4  -4 248603. 4220.61   2
  -1   4  -3 359150. 5003.01   3
  -1   4  -3 332864. 4910.17   2
  -1   4  -2 79864.6 2111.56   3
  -1   4  -2 76856.5 1995.03   2
  -1   4  -1 40136.3 1320.86   2
  -1   4  -1 42878.4 1571.36   3
  -1   4   0 98534.7 2569.28   3
  -1   4   0 94870.3 1886.97   2
  -1   4   1 299792. 5147.35   3
  -1   4   2 352858. 5983.52   3
  -1   4   3 198137. 4547.43   3
  -1   4   4 203051. 4774.46   3
  -1   4   5 13117.4 1197.21   3
  -1   4   6 64634.8 2678.72   3
  -1   4   6 63704.5 1715.30  11
  -1   4   7 4096.67 473.345  11
  -1   4   8 13544.1 847.946  11
  -1   4   9 15018.8 839.912  11
  -1   4   9 17022.3 866.363  15
  -1   4  10 5928.67 464.665  11
  -1   4  10 6240.96 420.420  15
  -1   4  11 139769. 1896.52  11
  -1   5 -13 12650.3 456.226  14
  -1   5 -12 11909.6 575.560  14
  -1   5 -11 70046.9 1627.04  14
  -1   5 -10 4658.08 429.765  14
  -1   5  -9 259368. 3658.40  14
  -1   5  -9 255572. 4027.37  15
  -1   5  -8 18589.6 828.247  14
  -1   5  -8 17886.9 917.135  15
  -1   5  -4 12789.0 966.803   2
  -1   5  -3 5628.66 621.487   3
  -1   5  -3 5050.15 583.159   2
  -1   5  -2 304495. 5073.65   3
  -1   5  -2 277316. 4544.15   2
  -1   5  -1 237365. 4541.18   3
  -1   5  -1 230881. 3809.02   2
  -1   5   0 77583.3 2609.77   3
  -1   5   1 178339. 4319.43   3
  -1   5   2 41030.1 2106.00   3
  -1   5   3 201084. 5006.37   3
  -1   5   4 5423.00 825.312   3
  -1   5   4 5787.76 531.748  15
  -1   5   5 242502. 5543.27   3
  -1   5   5 246174. 4115.03  15
  -1   5   6 27268.7 1264.94  15
  -1   5   7 18184.0 910.060  11
  -1   5   7 20250.1 1066.30  15
  -1   5   8 7522.71 548.335  11
  -1   5   8 7848.89 605.594  15
  -1   5   9 32724.6 961.974  11
  -1   5   9 31257.4 968.806  15
  -1   5  10 27292.4 546.670  15
  -1   6 -13 70912.0 1127.93  14
  -1   6 -12 7907.17 458.154  14
  -1   6 -11 25904.0 959.624  14
  -1   6 -10 78067.9 1824.09  14
  -1   6  -9 18550.2 892.307  14
  -1   6  -9 16958.1 950.754  15
  -1   6  -8 73871.5 1781.50  14
  -1   6  -8 68419.0 1850.97  15
  -1   6  -7 9556.50 616.525  14
  -1   6  -7 10723.3 683.276  15
  -1   6  -6 110867. 2186.53  15
  -1   6  -6 107587. 2033.55  14
  -1   6  -3 26208.3 1488.00   3
  -1   6  -2 172902. 4122.43   3
  -1   6  -1 93629.5 3068.20   3
  -1   6   0 31720.0 1811.90   3
  -1   6   1 75508.6 2942.70   3
  -1   6   2 20369.0 1562.82   3
  -1   6   2 20503.4 1022.42  15
  -1   6   3 69368.1 2939.66   3
  -1   6   3 69077.2 2019.09  15
  -1   6   4 55358.4 1846.85  15
  -1   6   5 30290.9 1359.42  15
  -1   6   6 23297.2 1137.30  15
  -1   6   7 7129.11 563.697  15
  -1   6   8 27540.2 874.096  15
  -1   6   9 100695. 1270.40  12
  -1   7 -12 13506.1 546.624  14
  -1   7 -11 31158.2 995.126  14
  -1   7 -10 5001.14 440.188  14
  -1   7  -9 62623.3 1656.34  14
  -1   7  -9 60403.6 1791.64  15
  -1   7  -8 31638.1 1174.23  14
  -1   7  -8 29691.3 1231.70  15
  -1   7  -7 72410.5 1763.57  14
  -1   7  -7 71993.8 1919.24  15
  -1   7  -6 25284.9 988.908  14
  -1   7  -6 26148.6 1109.73  15
  -1   7  -5 39561.0 1142.53  14
  -1   7  -5 44510.8 1443.55  15
  -1   7  -4 119574. 2433.11  15
  -1   7  -3 2800.17 533.484   3
  -1   7  -3 3050.66 385.346  15
  -1   7  -2 1302.02 380.731   3
  -1   7  -2 1137.14 260.345  15
  -1   7  -1 34324.2 1908.93   3
  -1   7  -1 35613.5 1340.41  15
  -1   7   0 12833.2 839.965  15
  -1   7   1 30012.7 1326.73  15
  -1   7   2 181548. 3516.39  15
  -1   7   3 258934. 4395.87  15
  -1   7   4 21884.9 1141.80  15
  -1   7   5 26050.6 1152.10  15
  -1   7   6 42777.8 1289.94  15
  -1   7   7 16089.9 592.467  15
  -1   8 -12 2983.54 194.952  14
  -1   8 -11 12123.6 523.395  14
  -1   8 -10 1839.51 242.267  14
  -1   8  -9 28959.2 997.621  14
  -1   8  -9 27169.4 1112.64  15
  -1   8  -8 34558.9 1130.36  14
  -1   8  -8 33885.7 1288.16  15
  -1   8  -7 36736.7 1178.06  14
  -1   8  -7 36109.5 1359.63  15
  -1   8  -6 14418.9 700.684  14
  -1   8  -6 16629.8 927.699  15
  -1   8  -5 129423. 2766.50  15
  -1   8  -4 108362. 2521.60  15
  -1   8  -3 171775. 3280.04  15
  -1   8  -2 74721.4 2105.34  15
  -1   8  -1 25372.9 1221.69  15
  -1   8   0 62067.1 1972.86  15
  -1   8   1 69263.5 2086.47  15
  -1   8   2 114765. 2690.98  15
  -1   8   3 60465.2 1782.15  15
  -1   8   4 26123.9 1042.62  15
  -1   8   5 31732.7 952.035  15
  -1   8   6 52210.4 938.710  12
  -1   8   6 52906.8 866.086  15
  -1   9 -10 46248.5 854.706  14
  -1   9  -9 2674.14 230.796  14
  -1   9  -9 2855.58 304.608  15
  -1   9  -8 3760.63 277.431  14
  -1   9  -8 3737.92 390.882  15
  -1   9  -7 11105.3 691.799  15
  -1   9  -6 3234.71 399.235  15
  -1   9  -5 23426.3 1080.00  15
  -1   9  -4 63623.9 1877.22  15
  -1   9  -3 48321.0 1630.03  15
  -1   9  -2 29710.9 1260.89  15
  -1   9  -1 8688.93 674.493  15
  -1   9   0 6752.94 579.958  15
  -1   9   1 15645.4 832.084  15
  -1   9   2 34853.5 825.230  12
  -1   9   2 34805.6 1132.04  15
  -1   9   3 7232.62 325.258  12
  -1   9   3 8019.05 451.537  15
  -1   9   4 66339.2 1006.54  15
  -1  10  -8 31178.4 741.122  15
  -1  10  -7 3272.25 286.869  15
  -1  10  -6 75128.0 1569.84  15
  -1  10  -5 38860.6 1144.83  15
  -1  10  -4 2716.42 318.040  15
  -1  10  -3 180390. 2792.16  15
  -1  10  -2 72313.1 1610.38  15
  -1  10  -1 110635. 1947.99  15
  -1  10   0 49265.3 1107.29  15
  -1  10   1 18798.4 541.098  15
   0  -9   2 157926. 2346.15   1
   0  -6   5 61656.2 1874.23   5
   0  -5   5 80339.1 1970.38   5
   0  -5   6 175495. 2926.26   5
   0  -4   5 11641.5 637.540   5
   0  -4   6 180244. 2645.72   5
   0  -4   9 369950. 4929.61   4
   0  -4  10 15300.0 661.100  13
   0  -4  11 5233.89 423.421  13
   0  -4  12 35524.8 1032.51  13
   0  -4  13 18420.6 614.115  13
   0  -3 -10 16499.7 729.163  10
   0  -3  -9 42517.2 1389.13  10
   0  -3  -8 12553.5 774.857  10
   0  -3  -7 192964. 3147.34  10
   0  -3   4 276154. 3383.57   5
   0  -3   5 184668. 2550.57   5
   0  -3   6 162815. 2268.72   5
   0  -3   7 26579.7 803.748   5
   0  -3   8 55460.5 1621.37   4
   0  -3   9 130007. 1957.46  13
   0  -3   9 117570. 2472.24   4
   0  -3  10 45618.0 1264.78  13
   0  -3  11 8260.57 564.289  13
   0  -3  12 11764.5 638.490  13
   0  -3  13 34590.3 958.790  13
   0  -2 -12 38376.1 763.730  10
   0  -2 -11 161.718 99.5518  10
   0  -2 -10 45386.0 1455.77  10
   0  -2  -9 52803.0 1643.28  10
   0  -2  -8 37479.8 1310.36  10
   0  -2   3 22197.3 652.546   5
   0  -2   4 1463.23 163.843   5
   0  -2   5 36532.6 860.088   5
   0  -2   6 270774. 3068.41   5
   0  -2   7 9171.15 622.486   4
   0  -2   7 9772.87 491.207   5
   0  -2   8 10971.9 705.071   4
   0  -2   9 240878. 3031.50  13
   0  -2   9 229190. 3736.40   4
   0  -2  10 122846. 2223.70  13
   0  -2  11 73192.6 1799.28  13
   0  -2  12 2362.94 304.240  13
   0  -2  13 5489.77 402.250  13
   0  -2  13 5181.98 362.399  11
   0  -1 -12 12097.2 615.001  10
   0  -1 -11 13707.7 769.909  10
   0  -1 -10 43553.3 1465.84  10
   0  -1   2 143618. 1590.56   5
   0  -1   3 145256. 1675.88   5
   0  -1   4 106475. 1483.97   5
   0  -1   5 68611.1 1518.64   4
   0  -1   5 68966.1 1259.18   5
   0  -1   6 17897.9 823.278   4
   0  -1   6 18772.8 691.307   5
   0  -1   7 46904.0 1474.58   4
   0  -1   7 49003.2 1257.37   5
   0  -1   8 99003.6 2331.75   4
   0  -1   9 2918.05 399.077   4
   0  -1   9 2843.25 309.059  13
   0  -1   9 3224.83 395.039   6
   0  -1  10 66225.6 1689.38  13
   0  -1  11 70582.6 1804.97  13
   0  -1  12 4783.24 429.337  13
   0  -1  13 38483.1 1043.13  13
   0  -1  13 38803.2 1047.30  11
   0   0 -13 26731.3 804.861  10
   0   0 -12 80191.1 1835.52  10
   0   0  -1 66251.7 695.185   2
   0   0   1 66739.4 785.326   4
   0   0   1 64069.1 716.312   5
   0   0   3 61960.6 1183.43   4
   0   0   3 61798.0 1060.20   5
   0   0   5 50695.8 1392.07   4
   0   0   5 48314.8 1195.06   5
   0   0   6 88698.3 2100.95   4
   0   0   6 83900.1 1795.64   5
   0   0   7 219.188 122.482   4
   0   0   7 77.6260 87.6466   6
   0   0   8 5406.11 581.110   4
   0   0   8 5625.98 578.880   6
   0   0   9 22416.7 1143.53   4
   0   0   9 26333.6 1005.80  13
   0   0   9 23119.8 1149.54   6
   0   0  10 172846. 2994.02  13
   0   0  11 47979.2 1438.82  13
   0   0  12 76561.3 1730.75  13
   0   0  12 84623.4 1958.33  11
   0   0  13 21736.7 747.708  11
   0   1 -14 1826.27 162.055  10
   0   1 -13 41442.7 1144.03  10
   0   1  -4 106393. 1702.21   2
   0   1  -3 145502. 1883.86   2
   0   1  -2 143408. 1730.11   2
   0   1   2 211221. 2676.95   4
   0   1   2 205326. 2622.71   6
   0   1   3 38099.7 1131.86   4
   0   1   3 36818.6 1095.69   6
   0   1   3 38976.6 489.184   2
   0   1   4 50681.7 1458.60   4
   0   1   4 50255.4 1465.33   6
   0   1   5 60637.4 1785.43   4
   0   1   5 56191.4 1737.02   6
   0   1   6 33912.2 1444.94   4
   0   1   6 33284.1 1426.30   6
   0   1   7 9519.16 796.994   4
   0   1   7 9253.50 800.856   6
   0   1   8 86781.1 2579.44   4
   0   1   8 93544.3 1895.38  13
   0   1   8 84852.1 2586.61   6
   0   1   9 39248.5 1285.32  13
   0   1  10 49359.1 1477.09  13
   0   1  11 10695.9 656.768  13
   0   1  12 11092.8 636.242  11
   0   1  13 37641.3 844.268  11
   0   2 -14 5523.99 314.719  10
   0   2  -5 32611.5 1079.77   2
   0   2  -4 1132.48 192.579   2
   0   2  -3 21846.6 760.063   2
   0   2  -1 42448.7 891.008   2
   0   2  -1 41453.6 999.042   3
   0   2   1 185049. 1931.49   2
   0   2   2 242905. 2169.23   2
   0   2   2 221154. 3482.93   6
   0   2   3 299782. 4450.43   4
   0   2   3 290778. 4366.34   6
   0   2   4 226613. 4042.35   4
   0   2   4 213419. 3937.99   6
   0   2   5 91905.5 2635.77   4
   0   2   5 91017.0 2632.91   6
   0   2   6 54905.9 2110.73   4
   0   2   6 54491.9 2135.63   6
   0   2   7 51417.9 2114.63   4
   0   2   7 52280.8 2153.96   6
   0   2   8 34841.2 1165.32  13
   0   2   8 37887.7 1812.80   3
   0   2   9 52956.9 1511.68  13
   0   2  10 41365.5 1278.86  13
   0   2  11 407.788 165.720  11
   0   2  12 31398.7 745.432  15
   0   2  12 42271.8 1025.50  11
   0   3 -14 52727.0 1060.07  10
   0   3 -11 6452.28 423.706  14
   0   3 -10 40562.4 1090.45  14
   0   3  -9 112721. 1878.09  14
   0   3  -6 187145. 3291.86   2
   0   3  -5 187563. 3183.38   2
   0   3  -4 287457. 3999.62   2
   0   3  -3 11760.9 672.021   2
   0   3  -3 42395.4 1188.45   3
   0   3  -2 55493.0 1386.58   2
   0   3  -2 52487.0 1378.50   3
   0   3  -1 241015. 3118.24   2
   0   3  -1 249665. 3546.85   3
   0   3   0 20862.6 703.943   2
   0   3   0 22998.7 1038.77   3
   0   3   1 127009. 1779.53   2
   0   3   1 125411. 2757.11   3
   0   3   2 36577.7 710.412   2
   0   3   2 32349.6 1463.55   3
   0   3   3 272277. 4961.31   3
   0   3   4 394270. 6517.75   3
   0   3   5 58603.8 2434.27   3
   0   3   6 240448. 5247.94   3
   0   3   7 190387. 2851.42  13
   0   3   7 200925. 4686.72   3
   0   3   8 12399.9 671.535  13
   0   3   9 40928.7 1462.70  11
   0   3  10 17201.3 845.775  11
   0   3  11 3750.62 317.153  11
   0   3  11 3553.19 285.890  15
   0   4 -14 21794.6 619.531  10
   0   4 -13 18517.5 536.875  14
   0   4 -12 30342.3 903.798  14
   0   4 -11 3915.02 345.241  14
   0   4 -10 12082.0 634.247  14
   0   4  -9 386572. 4460.98  14
   0   4  -7 89538.4 2426.78   2
   0   4  -6 187615. 3665.51   2
   0   4  -5 12152.0 839.226   2
   0   4  -4 197463. 3526.87   2
   0   4  -3 135658. 2777.59   2
   0   4  -3 129283. 2645.03   3
   0   4  -2 148144. 2784.35   2
   0   4  -2 139773. 2839.27   3
   0   4  -1 244386. 3571.81   2
   0   4  -1 249009. 4184.27   3
   0   4   0 178407. 2726.92   2
   0   4   0 172418. 3667.38   3
   0   4   1 266278. 3216.75   2
   0   4   1 249574. 4851.80   3
   0   4   2 16954.5 1256.99   3
   0   4   3 21295.2 1483.63   3
   0   4   4 133029. 3938.68   3
   0   4   5 42970.6 2247.83   3
   0   4   6 27251.1 1061.31  11
   0   4   6 29496.9 1839.17   3
   0   4   7 1018.57 235.137  11
   0   4   8 9861.50 665.521  11
   0   4   9 18858.3 821.894  11
   0   4   9 21610.5 999.470  15
   0   4  10 122719. 1885.88  11
   0   4  10 124214. 1989.48  15
   0   5 -14 62847.1 950.827  10
   0   5 -13 2788.97 223.678  14
   0   5 -12 65848.0 1404.55  14
   0   5 -11 39672.2 1171.51  14
   0   5 -10 32205.2 1116.72  14
   0   5  -9 23820.0 950.044  14
   0   5  -9 23583.2 1042.46  15
   0   5  -8 25322.4 953.984  14
   0   5  -8 22942.6 918.774  15
   0   5  -7 71725.6 2339.54   2
   0   5  -6 185056. 3937.17   2
   0   5  -5 81589.2 2491.21   2
   0   5  -4 119885. 2964.82   2
   0   5  -3 199555. 3786.85   2
   0   5  -3 193787. 3800.13   3
   0   5  -2 94347.7 2388.56   2
   0   5  -2 99619.1 2746.39   3
   0   5  -1 56639.4 1699.08   2
   0   5  -1 61774.4 2265.01   3
   0   5   0 284099. 5519.37   3
   0   5   0 294660. 3983.26   2
   0   5   1 116923. 3586.14   3
   0   5   2 99033.0 3414.90   3
   0   5   3 73831.0 3016.46   3
   0   5   4 236646. 4117.49  15
   0   5   4 226524. 5609.75   3
   0   5   5 57541.3 1959.36  15
   0   5   6 127289. 2948.66  15
   0   5   7 14739.7 928.163  15
   0   5   8 5532.10 503.008  15
   0   5   9 29761.7 901.910  15
   0   6 -13 33442.9 761.944  14
   0   6 -12 26401.7 844.681  14
   0   6 -11 15196.3 718.640  14
   0   6 -10 522.221 167.475  14
   0   6  -9 94279.6 2060.71  14
   0   6  -9 89651.1 2133.77  15
   0   6  -8 20044.2 906.884  14
   0   6  -8 19144.3 910.424  15
   0   6  -7 12447.1 712.649  14
   0   6  -7 10936.9 644.716  15
   0   6  -6 78454.8 1714.71  15
   0   6  -6 82201.9 2720.29   2
   0   6  -5 55819.7 2186.64   2
   0   6  -4 123294. 3230.42   2
   0   6  -3 9648.13 883.900   3
   0   6  -3 8390.76 787.072   2
   0   6  -2 31573.7 1667.66   3
   0   6  -2 29248.8 1407.05   2
   0   6  -1 76793.3 2767.23   3
   0   6   0 169062. 4391.66   3
   0   6   1 314798. 6500.72   3
   0   6   1 314780. 4567.67  15
   0   6   2 29424.9 1927.67   3
   0   6   2 29330.5 1300.71  15
   0   6   3 84431.9 2362.43  15
   0   6   4 23062.2 1244.07  15
   0   6   5 34552.8 1482.61  15
   0   6   6 47202.1 1637.15  15
   0   6   7 35352.8 1208.40  15
   0   6   8 68681.3 1330.73  15
   0   7 -13 18177.9 473.371  14
   0   7 -12 5307.06 346.614  14
   0   7 -11 36816.0 1076.14  14
   0   7 -10 38981.9 1244.96  14
   0   7  -9 14715.5 777.707  14
   0   7  -9 12126.4 744.819  15
   0   7  -8 31892.6 1179.73  14
   0   7  -8 30437.1 1183.57  15
   0   7  -7 57886.2 1591.01  14
   0   7  -7 55195.6 1575.17  15
   0   7  -6 13671.4 753.137  14
   0   7  -6 13025.3 768.237  15
   0   7  -5 252.329 133.072  14
   0   7  -5 573.669 199.806  15
   0   7  -4 41284.9 1361.62  15
   0   7  -4 37673.7 1747.97   2
   0   7  -3 45527.5 1964.01   3
   0   7  -3 41914.0 1729.52   2
   0   7  -3 46613.6 1473.65  15
   0   7  -2 65890.8 2502.19   3
   0   7  -2 68667.0 1877.25  15
   0   7  -1 38492.6 1453.36  15
   0   7   0 292138. 4592.62  15
   0   7   1 70232.5 2128.64  15
   0   7   2 111533. 2771.57  15
   0   7   3 28811.7 1358.04  15
   0   7   4 31262.3 1352.32  15
   0   7   5 11766.2 748.995  15
   0   7   6 16742.2 750.426  15
   0   7   7 13418.6 472.633  15
   0   8 -12 53547.6 933.135  14
   0   8 -11 107017. 1718.88  14
   0   8 -10 19379.3 755.453  14
   0   8  -9 44262.6 1262.06  14
   0   8  -9 41780.6 1304.24  15
   0   8  -8 40727.3 1240.87  14
   0   8  -8 39897.8 1327.69  15
   0   8  -7 71706.4 1678.59  14
   0   8  -7 71975.9 1855.84  15
   0   8  -6 3773.35 368.585  14
   0   8  -6 3534.66 423.343  15
   0   8  -5 48732.0 1593.36  15
   0   8  -4 19247.5 994.641  15
   0   8  -3 25648.9 1181.10  15
   0   8  -2 16.5986 156.964  15
   0   8  -1 57289.5 1846.21  15
   0   8   0 20949.0 1130.97  15
   0   8   1 42833.4 1620.74  15
   0   8   2 30723.7 1306.01  15
   0   8   3 27336.7 1141.80  15
   0   8   4 14713.9 718.691  15
   0   8   5 4865.79 320.749  15
   0   9 -10 52299.5 931.314  14
   0   9  -9 102958. 1555.51  14
   0   9  -9 106357. 1743.71  15
   0   9  -8 19611.9 638.286  14
   0   9  -8 20805.1 815.469  15
   0   9  -7 3491.15 366.650  15
   0   9  -6 82396.5 1895.49  15
   0   9  -5 37645.0 1305.43  15
   0   9  -4 10725.2 711.908  15
   0   9  -3 12522.5 777.249  15
   0   9  -2 159218. 2956.89  15
   0   9  -1 28744.4 1164.36  15
   0   9   0 78126.6 1887.16  15
   0   9   1 65987.2 1601.22  15
   0   9   2 17989.6 708.297  15
   0   9   3 28194.1 705.934  15
   0  10  -7 17473.1 528.007  15
   0  10  -6 34835.5 898.746  15
   0  10  -5 43811.8 1072.53  15
   0  10  -4 6177.71 405.622  15
   0  10  -3 3401.32 307.735  15
   0  10  -2 4018.99 316.983  15
   0  10  -1 4309.83 304.521  15
   1  -7   4 106901. 2800.34   5
   1  -7   5 46588.5 1715.25   5
   1  -6   4 91825.2 2471.26   5
   1  -6   5 109268. 2669.51   5
   1  -6   6 101608. 2340.01   5
   1  -5   4 12692.9 813.113   5
   1  -5   5 27735.4 1191.01   5
   1  -5   6 267872. 3815.63   5
   1  -5   7 152796. 2549.55   5
   1  -4   4 248257. 3647.42   5
   1  -4   5 5931.76 486.356   5
   1  -4   6 7347.98 493.672   5
   1  -4   7 30049.6 1025.98   5
   1  -4  11 35134.9 1065.03  13
   1  -4  12 51025.7 1184.77  13
   1  -3   3 148039. 2403.50   5
   1  -3   4 59181.3 1471.89   5
   1  -3   5 40085.5 1105.63   5
   1  -3   6 90951.8 1763.02   5
   1  -3   7 4515.99 373.002   5
   1  -3   8 20412.4 896.263   4
   1  -3   8 21231.7 808.788   5
   1  -3   9 5703.47 432.142  13
   1  -3  10 28826.1 1077.20  13
   1  -3  11 85827.2 1869.70  13
   1  -3  12 2551.76 294.183  13
   1  -3  13 9464.39 389.860  11
   1  -2 -11 72060.1 1605.53  10
   1  -2 -10 88295.9 1997.00  10
   1  -2  -9 36809.7 1238.73  10
   1  -2   3 63355.0 1303.35   5
   1  -2   5 1857.93 225.074   5
   1  -2   6 37044.6 1114.15   4
   1  -2   6 38165.9 1069.25   5
   1  -2   7 113409. 2191.92   4
   1  -2   7 115688. 2103.80   5
   1  -2   8 1908.20 276.128   4
   1  -2   8 2143.74 274.118   5
   1  -2   9 31623.5 1124.34  13
   1  -2  10 48729.0 1468.99  13
   1  -2  11 33764.1 1186.70  13
   1  -2  12 37653.6 1178.88  13
   1  -2  13 27309.3 773.041  11
   1  -1 -13 377.395 83.8223  10
   1  -1 -12 3215.06 317.091  10
   1  -1 -11 29061.7 1086.54  10
   1  -1   5 327355. 3795.50   4
   1  -1   5 328387. 3869.98   5
   1  -1   6 276210. 3694.14   4
   1  -1   6 275333. 3645.37   5
   1  -1   7 195521. 3183.84   4
   1  -1   7 188577. 3001.01   5
   1  -1   8 56154.0 1582.56   5
   1  -1   9 151283. 2710.59  13
   1  -1   9 139804. 2948.74   6
   1  -1  10 38402.0 1330.28  13
   1  -1  11 24277.3 1039.79  13
   1  -1  13 7928.53 411.454  11
   1   0 -13 203.250 95.2441  10
   1   0  -4 48389.6 796.921   2
   1   0   0 57627.2 736.508   5
   1   0   2-0.14178 24.8359   5
   1   0   2 81412.5 968.583   4
   1   0   3 66994.6 1219.15   4
   1   0   3 70919.6 1365.75   5
   1   0   4 152865. 2314.20   4
   1   0   4 153637. 2391.25   5
   1   0   5 37703.7 1187.32   4
   1   0   5 36192.8 1180.42   5
   1   0   6 113131. 2392.94   4
   1   0   6 109154. 2290.10   5
   1   0   7 82681.7 2117.12   4
   1   0   7 85495.4 2368.97   6
   1   0   8 43692.2 1322.09  13
   1   0   8 42463.0 1715.58   6
   1   0   9 18698.4 911.954  13
   1   0  10 54594.5 1607.77  13
   1   0  11 600.029 185.424  13
   1   0  13 1850.87 180.419  11
   1   1 -14 71451.1 1189.29  10
   1   1  -6 78799.3 1476.99   2
   1   1  -5 41281.9 964.893   2
   1   1  -4 94935.5 1451.27   2
   1   1  -3 102519. 1441.97   2
   1   1  -1 13433.4 372.139   3
   1   1   1 18293.2 646.097   6
   1   1   2 204552. 2642.52   4
   1   1   2 198265. 2854.86   6
   1   1   3 31921.5 1043.84   4
   1   1   3 30958.1 1148.03   6
   1   1   3 29971.8 1054.29   5
   1   1   4 325332. 4339.38   4
   1   1   4 327469. 4709.18   6
   1   1   5 11100.6 747.556   4
   1   1   5 11789.5 846.729   6
   1   1   6 39137.2 1559.90   4
   1   1   6 36523.2 1620.18   6
   1   1   7 70906.9 2359.50   6
   1   1   8 247230. 3658.76  13
   1   1   8 253633. 4777.28   6
   1   1   9 83137.6 2032.68  13
   1   1  10 132857. 2597.98  13
   1   1  12 6395.65 411.688  11
   1   2 -14 7851.11 407.780  10
   1   2  -7 70946.5 1675.90   2
   1   2  -6 27996.3 974.005   2
   1   2  -5 76890.5 1630.39   2
   1   2  -3 278444. 3020.56   3
   1   2  -2-3.43893 29.5595   2
   1   2   1 240539. 3544.25   6
   1   2   1 248826. 2838.34   2
   1   2   2 151080. 2930.15   6
   1   2   2 149070. 2011.80   2
   1   2   3 85023.0 1281.83   2
   1   2   3 83403.3 2322.32   6
   1   2   4 13868.8 995.432   6
   1   2   5 1940.75 416.283   6
   1   2   6 12985.0 1078.95   6
   1   2   7 28164.8 1078.63  13
   1   2   7 28551.2 1635.56   6
   1   2   8 32640.5 1214.58  13
   1   2  11 24104.8 867.054  11
   1   2  12 16149.9 456.691  11
   1   3 -11 242907. 2972.82  14
   1   3 -10 138486. 2086.20  14
   1   3  -9 8100.93 435.724  14
   1   3  -8 25070.6 1110.10   2
   1   3  -7 186907. 3204.46   2
   1   3  -6 3039.11 372.637   2
   1   3  -5 42696.9 1398.82   2
   1   3  -4 144751. 2583.08   2
   1   3  -3 353310. 4346.14   2
   1   3  -3 342951. 4050.02   3
   1   3  -1 304895. 3725.92   2
   1   3  -1 297706. 4163.85   3
   1   3   0 230778. 3030.06   2
   1   3   0 232350. 3811.43   3
   1   3   1 44783.8 1082.93   2
   1   3   1 46765.2 1726.97   3
   1   3   2 338413. 3496.07   2
   1   3   2 315884. 5427.74   3
   1   3   3 26308.9 1511.69   3
   1   3   4 109262. 3341.57   3
   1   3   5 62597.9 2609.93   3
   1   3   6 134811. 3965.38   3
   1   3   9 36432.7 1238.51  11
   1   3  10 13351.8 618.924  11
   1   3  11 31480.3 640.632  11
   1   3  11 28340.5 705.807  15
   1   4 -12 65374.8 1327.76  14
   1   4 -11 142905. 2259.41  14
   1   4 -10 88034.8 1753.65  14
   1   4  -9 49183.8 1276.07  14
   1   4  -8 197885. 3696.89   2
   1   4  -7 137764. 3022.08   2
   1   4  -6 18301.3 1040.53   2
   1   4  -5 108993. 2604.27   2
   1   4  -4 153837. 3036.78   2
   1   4  -4 134973. 2552.28   3
   1   4  -3 62361.3 1794.52   2
   1   4  -3 57056.1 1649.52   3
   1   4  -2 172550. 3015.51   2
   1   4  -2 165993. 3168.74   3
   1   4  -1 47662.8 1401.97   2
   1   4  -1 49658.5 1810.99   3
   1   4   0 152658. 2546.72   2
   1   4   0 162325. 3655.57   3
   1   4   1 318513. 3782.33   2
   1   4   1 302232. 5635.39   3
   1   4   2 314951. 5988.89   3
   1   4   3 207241. 4946.29   3
   1   4   4 195151. 4936.30   3
   1   4   5 144128. 4261.16   3
   1   4   8 85387.3 1766.49  11
   1   4   9 3654.49 279.974  11
   1   4   9 4685.56 427.126  15
   1   4  10 9374.87 418.635  15
   1   5 -13 1544.31 165.701  14
   1   5 -12 7994.89 454.430  14
   1   5 -11 23003.2 884.894  14
   1   5 -10 20113.2 858.135  14
   1   5  -9 97440.2 2009.10  14
   1   5  -8 51388.6 1912.19   2
   1   5  -7 81820.6 2477.73   2
   1   5  -6 53908.0 1996.23   2
   1   5  -5 26500.8 1382.78   2
   1   5  -4 91002.2 2565.01   2
   1   5  -4 82322.7 2237.50   3
   1   5  -3 23649.3 1246.43   2
   1   5  -3 22414.9 1183.76   3
   1   5  -2 120765. 2751.11   2
   1   5  -2 119333. 2991.70   3
   1   5  -1 32658.2 1325.27   2
   1   5  -1 33210.7 1659.82   3
   1   5   0 1752.30 416.054   3
   1   5   1 36318.0 1991.79   3
   1   5   2 7715.05 960.676   3
   1   5   3 227929. 5689.29   3
   1   5   3 235336. 4039.43  15
   1   5   4 215100. 4020.53  15
   1   5   5 20576.6 1194.92  15
   1   5   6 34836.0 1504.70  15
   1   5   7 70966.8 2005.34  15
   1   5   8 18191.6 822.005  15
   1   5   9 8971.14 398.114  15
   1   6 -13 3601.54 242.975  14
   1   6 -12 14710.9 616.957  14
   1   6 -11 7280.71 506.693  14
   1   6 -10 4273.36 419.403  14
   1   6  -9 34827.5 1227.62  14
   1   6  -9 32527.7 1141.20  15
   1   6  -8 175120. 2775.25  15
   1   6  -7 21367.1 834.973  15
   1   6  -7 21619.6 1330.99   2
   1   6  -6 13306.0 648.415  15
   1   6  -6 14002.5 1088.92   2
   1   6  -5 9676.30 898.670   2
   1   6  -4 13557.8 1039.86   2
   1   6  -4 14001.8 957.956   3
   1   6  -3 56227.3 2077.06   2
   1   6  -3 59368.6 2151.28   3
   1   6  -2 176677. 3597.27   2
   1   6  -2 190825. 4290.36   3
   1   6  -1 3206.68 578.515   3
   1   6  -1 2855.37 354.829  15
   1   6   0 38700.9 2053.98   3
   1   6   0 38130.3 1373.22  15
   1   6   1 81049.6 3092.22   3
   1   6   1 79895.5 2155.20  15
   1   6   2 116646. 2793.89  15
   1   6   3 4345.44 549.270  15
   1   6   4 51704.2 1864.82  15
   1   6   5 63962.9 1993.73  15
   1   6   6 7406.89 593.522  15
   1   6   7 5049.67 397.763  15
   1   6   8 9235.02 356.861  15
   1   7 -13 34692.8 674.771  14
   1   7 -12 33170.8 860.163  14
   1   7 -11 7555.74 485.197  14
   1   7 -10 28379.7 1037.10  14
   1   7  -9 27167.1 1074.29  14
   1   7  -9 26008.6 999.239  15
   1   7  -8 116567. 2373.56  14
   1   7  -8 105969. 2178.17  15
   1   7  -7 182578. 2953.13  15
   1   7  -6 46392.1 1407.81  15
   1   7  -5 139199. 2592.86  15
   1   7  -4 75343.2 1857.79  15
   1   7  -3 7992.77 607.885  15
   1   7  -2 227357. 3712.36  15
   1   7  -1 153513. 3052.93  15
   1   7   0 23157.8 1175.05  15
   1   7   1 32188.7 1411.94  15
   1   7   2 34336.8 1474.77  15
   1   7   3 17716.7 1008.66  15
   1   7   4 102054. 2339.43  15
   1   7   5 8243.45 550.948  15
   1   7   6 27281.8 779.221  15
   1   8 -12 53154.9 900.269  14
   1   8 -11 22673.0 705.820  14
   1   8 -10 89229.4 1701.29  14
   1   8  -9 5360.32 421.046  14
   1   8  -8 8279.25 549.241  14
   1   8  -8 7668.31 530.490  15
   1   8  -7 34666.7 1139.75  14
   1   8  -7 34215.8 1164.21  15
   1   8  -6 69535.8 1646.49  14
   1   8  -6 72463.0 1782.54  15
   1   8  -5 10196.9 671.841  15
   1   8  -4 12014.7 746.743  15
   1   8  -3 87664.0 2133.32  15
   1   8  -2 37303.5 1392.09  15
   1   8  -1 119753. 2640.83  15
   1   8   0 170725. 3250.22  15
   1   8   1 11163.9 755.027  15
   1   8   2 52417.6 1553.83  15
   1   8   3 11792.1 642.284  15
   1   8   4 16232.0 604.170  15
   1   9 -10 69118.3 1009.12  14
   1   9  -9 46462.3 915.010  14
   1   9  -8 3492.91 251.929  14
   1   9  -7 58859.2 1315.62  15
   1   9  -6 10831.6 580.582  15
   1   9  -5 36061.0 1130.72  15
   1   9  -4 23967.4 956.713  15
   1   9  -3 137851. 2479.68  15
   1   9  -2 33971.9 1139.63  15
   1   9  -1 16455.5 764.016  15
   1   9   0 886.921 181.978  15
   1   9   1 3647.49 297.736  15
   1   9   2 22470.4 583.706  15
   2  -7   3 152593. 3654.55   5
   2  -7   4 45135.1 1812.39   5
   2  -6   3 217089. 4211.30   5
   2  -6   4 121288. 2948.78   5
   2  -6   5 178307. 3510.29   5
   2  -6   6 105480. 2362.69   5
   2  -5   3 37552.8 1507.15   5
   2  -5   4 26072.9 1226.74   5
   2  -5   5 192449. 3440.67   5
   2  -5   6 44934.7 1427.76   5
   2  -5   7 74795.5 1788.54   5
   2  -4   3 375001. 4997.93   5
   2  -4   4 412352. 5286.73   5
   2  -4   5 112621. 2228.28   5
   2  -4   6 56472.6 1530.92   5
   2  -4   7 44467.6 1357.16   5
   2  -4   8 26667.3 971.995   5
   2  -3   2 35653.4 1179.74   5
   2  -3   3 87084.3 1934.66   5
   2  -3   5 380964. 4566.31   5
   2  -3   6 295992. 3904.21   5
   2  -3   7 72834.3 1727.31   5
   2  -3   8 165944. 2499.75  13
   2  -3   8 156113. 2659.89   5
   2  -3   9 69720.5 1685.49  13
   2  -3  10 8457.98 592.448  13
   2  -3  13 2230.23 156.846  11
   2  -2  -3 27041.2 384.997   2
   2  -2   4 33285.3 1043.54   5
   2  -2   5 66639.7 1331.99   4
   2  -2   5 63344.9 1536.89   5
   2  -2   6 6956.81 519.675   5
   2  -2   7 30992.5 1131.64   5
   2  -2   8 39688.3 1213.52  13
   2  -2   8 34378.1 1203.29   5
   2  -2   9 27683.2 1099.04  13
   2  -2  10 11510.2 736.272  13
   2  -2  13 17929.9 510.923  11
   2  -1 -12 30483.1 940.644  10
   2  -1  -3 21114.8 476.522   2
   2  -1   3 243145. 2441.60   4
   2  -1   3 237834. 3108.57   5
   2  -1   4 109735. 1624.16   4
   2  -1   4 112524. 2070.61   5
   2  -1   5 96554.0 2031.53   5
   2  -1   6 10885.0 685.216   5
   2  -1   7 20832.2 993.446   5
   2  -1   8 148632. 2681.86  13
   2  -1   8 134410. 2725.31   5
   2  -1   9 274155. 4093.86  13
   2  -1  10 68058.3 1872.43  13
   2  -1  13 8794.73 323.149  11
   2   0 -13 7739.06 435.258  10
   2   0  -5 13026.7 424.483   2
   2   0  -4 51250.6 901.874   2
   2   0  -3 94694.5 1394.12   2
   2   0   2 197163. 2683.78   5
   2   0   3 208754. 2420.31   4
   2   0   3 187559. 2926.05   5
   2   0   4 94612.0 1687.21   4
   2   0   4 97282.8 2063.11   5
   2   0   5 35656.2 1320.88   5
   2   0   6 94376.7 2349.54   5
   2   0   7 19801.7 1170.15   6
   2   0   8 4174.70 460.652  13
   2   0   8 3408.96 501.699   6
   2   0   9 27390.7 1183.35  13
   2   0  12 33243.8 905.123  11
   2   1 -14 2979.27 231.608  10
   2   1  -6 55998.0 1211.30   2
   2   1  -5 53590.6 1130.93   2
   2   1  -3 48913.2 1123.38   2
   2   1  -1 6.20185 36.9956   2
   2   1  -1 161298. 1439.14   6
   2   1   2 99641.0 2093.88   5
   2   1   3 67493.1 1920.34   6
   2   1   3 66427.4 1816.11   5
   2   1   4 121325. 2838.69   6
   2   1   5 20396.5 1210.31   6
   2   1   6 114214. 3070.21   6
   2   1   7 205519. 3390.12  13
   2   1   7 207271. 4361.78   6
   2   1  12 12299.1 400.645  11
   2   2  -7 117037. 2201.23   2
   2   2  -5 58497.2 1410.21   2
   2   2  -3 26755.0 636.472   3
   2   2  -3 26857.0 945.873   2
   2   2  -2 419298. 4231.73   3
   2   2  -1 11515.6 629.694   2
   2   2  -1 11454.4 570.179   3
   2   2   0 6744.23 492.152   2
   2   2   1 40516.2 1414.28   6
   2   2   1 40634.5 1209.22   2
   2   2   2 781862. 7632.67   2
   2   2   3 19845.3 1172.10   6
   2   2   3 21552.8 800.615   2
   2   2   4 192578. 4221.88   6
   2   2   5 57814.6 2318.40   6
   2   2   6 214970. 4779.08   6
   2   2  11 13577.2 463.015  11
   2   3 -11 5337.41 353.246  14
   2   3 -10 141932. 2099.34  14
   2   3  -8 43697.5 1453.46   2
   2   3  -7 57668.4 1694.02   2
   2   3  -6 38915.4 1357.76   2
   2   3  -5 395971. 5029.61   2
   2   3  -3 196501. 3149.02   2
   2   3  -3 190787. 2708.55   3
   2   3  -2 433110. 5214.28   2
   2   3  -2 410832. 4929.20   3
   2   3  -1 138452. 2569.93   2
   2   3  -1 135466. 2702.40   3
   2   3   0 161230. 2743.90   2
   2   3   0 159933. 3193.66   3
   2   3   1 277422. 3722.58   2
   2   3   1 277173. 4844.09   3
   2   3   2 25751.0 1479.15   3
   2   3   3 40549.0 1996.88   3
   2   3   4 15859.8 1294.66   3
   2   3   5 112895. 3646.14   3
   2   3   9 1455.74 208.393  11
   2   3  10 1201.34 124.010  11
   2   3  10 1852.76 225.446  15
   2   4 -12 86863.7 1512.59  14
   2   4 -11 104131. 1841.03  14
   2   4 -10 40838.8 1153.76  14
   2   4  -9 14226.1 843.432   2
   2   4  -8 49228.5 1728.65   2
   2   4  -7 4994.77 552.397   2
   2   4  -6 45747.3 1683.83   2
   2   4  -5 51349.9 1755.32   2
   2   4  -4 230920. 3926.75   2
   2   4  -4 225699. 3300.21   3
   2   4  -3 109246. 2529.27   2
   2   4  -3 106936. 2288.31   3
   2   4  -2 68831.7 1898.77   2
   2   4  -2 66171.8 1927.05   3
   2   4  -1 227827. 3679.53   2
   2   4  -1 244852. 4346.79   3
   2   4   0 63771.9 1698.30   2
   2   4   0 67736.1 2352.34   3
   2   4   1 29326.5 1679.72   3
   2   4   2 11991.0 1121.95   3
   2   4   3 12259.1 1183.79   3
   2   4   4 39696.3 2171.10   3
   2   4   8 47944.9 1475.98  15
   2   4   9 14444.6 606.597  15
   2   5 -13 32764.7 745.988  14
   2   5 -12 88332.1 1601.07  14
   2   5 -11 22250.3 846.132  14
   2   5 -10 38762.1 1207.46  14
   2   5  -8 28114.1 1386.77   2
   2   5  -7 2072.81 405.282   2
   2   5  -6 120737. 3102.77   2
   2   5  -5 6720.95 710.947   2
   2   5  -4 103921. 2773.31   2
   2   5  -3 152155. 3331.78   2
   2   5  -3 156852. 3179.96   3
   2   5  -2 196392. 3714.20   2
   2   5  -2 215810. 4160.50   3
   2   5  -1 9892.07 726.981   2
   2   5  -1 10630.6 959.834   3
   2   5   0 163560. 4197.73   3
   2   5   1 121946. 3765.07   3
   2   5   1 120980. 2457.69  15
   2   5   2 35952.9 2035.74   3
   2   5   2 34836.4 1394.65  15
   2   5   3 50376.7 1770.32  15
   2   5   4 70849.0 2189.68  15
   2   5   5 2295.72 411.416  15
   2   5   6 14793.8 904.585  15
   2   5   7 19172.7 883.512  15
   2   5   8 9867.74 467.236  15
   2   6 -13 20025.2 545.280  14
   2   6 -12 48548.4 1133.49  14
   2   6 -11 47301.6 1275.26  14
   2   6 -10 82279.7 1847.85  14
   2   6  -6 69679.1 2433.50   2
   2   6  -5 70147.1 2473.34   2
   2   6  -4 30922.5 1582.18   2
   2   6  -3 76622.3 2401.21   2
   2   6  -3 79318.3 1673.70  15
   2   6  -2 171410. 3472.12   2
   2   6  -2 184064. 2873.13  15
   2   6  -1 54925.7 2171.39   3
   2   6  -1 58755.5 1649.06  15
   2   6   0 239015. 3845.33  15
   2   6   1 159520. 3192.32  15
   2   6   2 186893. 3587.07  15
   2   6   3 45461.9 1687.89  15
   2   6   4 54882.0 1785.67  15
   2   6   5 10335.5 691.446  15
   2   6   6 24914.9 896.232  15
   2   6   7 7359.70 336.805  15
   2   7 -13 24243.3 498.871  14
   2   7 -12 20633.1 642.143  14
   2   7 -11 6500.46 428.488  14
   2   7 -10 60489.9 1526.58  14
   2   7  -9 21558.5 962.848  14
   2   7  -5 39689.8 1206.87  15
   2   7  -4 27441.5 1038.84  15
   2   7  -3 78148.8 1896.89  15
   2   7  -2 4753.06 479.420  15
   2   7  -1 58819.4 1761.15  15
   2   7   0 18816.9 991.634  15
   2   7   1 11123.2 771.123  15
   2   7   2 51653.4 1649.37  15
   2   7   3 862.069 226.241  15
   2   7   4 6722.49 477.925  15
   2   7   5 14188.7 531.549  15
   2   8 -11 10389.0 437.464  14
   2   8 -10 3706.24 311.231  14
   2   8  -9 49754.6 1264.60  14
   2   8  -8 29523.8 1007.67  14
   2   8  -7 173030. 2734.86  14
   2   8  -5 25486.4 948.031  15
   2   8  -4 130917. 2392.29  15
   2   8  -3 28218.5 1060.76  15
   2   8  -2 2139.54 316.924  15
   2   8  -1 46271.3 1393.86  15
   2   8   0 32689.3 1137.23  15
   2   8   1 27041.3 971.157  15
   2   8   2 127516. 2024.28  15
   2   8   3 35324.5 789.553  15
   2   9  -9 10087.9 333.176  14
   2   9  -8 22541.3 550.071  14
   2   9  -4 59518.5 1153.52  15
   2   9  -3 25328.3 752.833  15
   2   9  -2 20799.2 661.608  15
   2   9  -1 754.946 128.013  15
   3  -7   1 3465.15 540.422   5
   3  -7   2 75489.1 2542.93   5
   3  -6   2 58789.0 2141.80   5
   3  -6   3 3172.18 486.776   5
   3  -6   4 33829.2 1518.92   5
   3  -6   5 45939.7 1631.74   5
   3  -5   2 70680.4 2171.82   5
   3  -5   3 37043.3 1551.37   5
   3  -5   4 61138.2 1879.13   5
   3  -5   5 43687.5 1486.66   5
   3  -5   6 58262.1 1696.35   5
   3  -5   7 211337. 3298.75   5
   3  -4   1 31438.5 1306.29   5
   3  -4   2 107801. 2498.39   5
   3  -4   4 33496.5 1236.78   5
   3  -4   5 161888. 2922.38   5
   3  -4   6 5717.51 499.287   5
   3  -4   7 19821.1 925.336   5
   3  -3   0 17273.9 828.980   5
   3  -3   1 318165. 4293.42   5
   3  -3   2 208870. 3293.64   5
   3  -3   4 200026. 3175.20   5
   3  -3   5 391488. 4940.57   5
   3  -3   6 59074.1 1626.83   5
   3  -3   7 17158.4 878.252   5
   3  -2  -1 77139.6 1528.25   5
   3  -2   0 13770.6 643.790   5
   3  -2   1 97200.1 1843.61   5
   3  -2   2 55289.0 1379.59   5
   3  -2   3 395742. 4756.73   5
   3  -2   4 301466. 4041.78   5
   3  -2   5 233331. 3585.87   5
   3  -2   6 116551. 2437.52   5
   3  -2   7 135854. 2407.94  13
   3  -2   7 133594. 2733.41   5
   3  -2   8 51785.7 1558.08  13
   3  -1  -4 38206.6 835.971   2
   3  -1  -3 110784. 1239.25   5
   3  -1  -3 97559.2 1687.79   2
   3  -1  -2 47378.4 846.627   5
   3  -1  -1 120331. 1654.97   5
   3  -1   0 14796.2 580.105   5
   3  -1   1 177561. 2508.17   5
   3  -1   2 125394. 2148.44   5
   3  -1   3 41685.4 1282.48   5
   3  -1   4 120831. 2421.24   5
   3  -1   5 51306.6 1613.96   5
   3  -1   6 14273.4 855.127   5
   3  -1   7 37112.3 1294.22  13
   3  -1   7 36672.3 1448.45   5
   3   0  -5 130327. 1856.76   2
   3   0  -4 257137. 3095.45   2
   3   0  -3 17644.9 738.274   2
   3   0  -2 37757.1 663.435   5
   3   0   0 42065.9 1039.14   5
   3   0   1 33968.1 1043.00   5
   3   0   2 64264.5 1617.67   5
   3   0   3 74818.9 1891.03   5
   3   0   4 288138. 4372.32   5
   3   0   5 21428.7 1135.56   5
   3   0   6 123207. 3067.52   6
   3   0   6 114768. 2788.15   5
   3   0   7 39904.0 1757.17   6
   3   1 -14 37134.9 768.177  10
   3   1  -6 22249.6 781.144   2
   3   1  -5 176518. 2584.73   2
   3   1  -4 281459. 3627.65   2
   3   1  -2 305548. 2817.30   3
   3   1  -2 314009. 4205.04   2
   3   1  -1 23004.1 687.750   6
   3   1  -1 22934.3 1021.74   2
   3   1   0 261570. 3330.85   6
   3   1   0 256529. 3464.01   5
   3   1   1 26625.0 1055.44   6
   3   1   1 24330.2 1022.68   5
   3   1   2 245814. 3985.66   6
   3   1   2 259025. 4075.98   5
   3   1   3 77189.4 2261.89   6
   3   1   4 29210.4 1472.51   6
   3   1   5 50478.6 2025.76   6
   3   1   6 81223.8 2685.47   6
   3   1  11 19525.1 539.056  11
   3   2  -7 11687.6 668.470   2
   3   2  -6 152141. 2613.16   2
   3   2  -5 111398. 2220.67   2
   3   2  -4 190325. 3116.84   2
   3   2  -3 186630. 3182.20   2
   3   2  -2 272148. 4056.19   2
   3   2  -2 267238. 3144.31   3
   3   2  -1 484346. 5958.77   2
   3   2  -1 471563. 5294.87   3
   3   2   0 115244. 2416.13   6
   3   2   0 115540. 2527.39   2
   3   2   1 242197. 4059.49   6
   3   2   1 228013. 3768.53   2
   3   2   2 43989.9 1797.13   6
   3   2   2 45768.0 1492.00   2
   3   2   3 50699.2 2015.72   6
   3   2   4 108955. 3213.24   6
   3   2   5 26775.6 1605.35   6
   3   2  10 11243.4 399.618  11
   3   3 -10 92181.0 1661.24  14
   3   3  -8 61278.6 1755.00   2
   3   3  -7 57795.3 1739.38   2
   3   3  -6 19292.6 979.987   2
   3   3  -5 5077.14 508.054   2
   3   3  -3 16187.5 930.107   2
   3   3  -2 237575. 3942.19   2
   3   3  -2 232825. 3412.99   3
   3   3  -1 72391.3 2052.58   2
   3   3  -1 74367.0 2040.78   3
   3   3   0 292429. 4432.48   2
   3   3   0 302257. 4884.07   3
   3   3   1 14200.0 837.590   2
   3   3   1 13117.3 1008.60   3
   3   3   2 52351.6 2188.95   3
   3   3   3 29083.9 1721.75   3
   3   3   4 154243. 4181.20   3
   3   3   9 13282.0 609.449  15
   3   4 -12 28463.1 800.927  14
   3   4 -11 31524.9 931.123  14
   3   4  -8 85061.3 2296.66   2
   3   4  -7 181828. 3627.46   2
   3   4  -6 165122. 3417.16   2
   3   4  -5 58715.1 1930.79   2
   3   4  -4 136771. 3078.43   2
   3   4  -3 19476.3 1100.39   2
   3   4  -2 31590.9 1382.20   2
   3   4  -1 72430.7 2076.48   2
   3   4  -1 75911.5 2322.77   3
   3   4   0 20425.4 1024.39   2
   3   4   0 21888.4 1356.51   3
   3   4   1 106244. 3291.14   3
   3   4   2 59482.6 2503.85   3
   3   4   7 5918.93 501.036  15
   3   4   8 123.688 95.6120  15
   3   5 -13 46734.1 828.476  14
   3   5 -12 6623.24 386.821  14
   3   5 -11 10618.3 570.562  14
   3   5  -7 125720. 3172.24   2
   3   5  -6 266233. 4885.49   2
   3   5  -5 5377.20 642.173   2
   3   5  -4 186121. 3901.73   2
   3   5  -3 14746.1 1024.51   2
   3   5  -2 159350. 3369.02   2
   3   5  -1 143904. 2948.83   2
   3   5   0 30821.5 1091.78  15
   3   5   1 55388.7 1639.08  15
   3   5   2 29523.0 1272.92  15
   3   5   3 4587.37 516.568  15
   3   5   4 29640.5 1280.71  15
   3   5   5 29811.8 1203.10  15
   3   5   6 23753.6 918.813  15
   3   5   7 1686.92 189.994  15
   3   6 -13 10354.6 344.056  14
   3   6 -12 3041.79 258.064  14
   3   6 -11 6126.99 432.241  14
   3   6 -10 29110.5 1088.38  14
   3   6  -1 30066.6 1116.19  15
   3   6   0 2158.95 328.847  15
   3   6   1 81328.6 2051.27  15
   3   6   2 34329.3 1301.86  15
   3   6   3 40450.4 1363.63  15
   3   6   4 101611. 2038.47  15
   3   6   5 2769.82 268.097  15
   3   7 -12 15434.9 499.307  14
   3   7 -11 3494.59 297.164  14
   3   7 -10 42281.6 1195.64  14
   3   7  -1 18760.0 857.973  15
   3   7   0 140847. 2568.20  15
   3   7   1 2459.38 311.489  15
   3   7   2 20983.3 812.206  15
   3   7   3 6275.46 380.840  15
   3   8 -11 1841.90 160.165  14
   3   8 -10 39691.2 914.889  14
   3   8  -9 4039.43 323.150  14
   3   8  -8 19979.0 764.452  14
   3   8  -7 2188.45 271.018  14
   3   8   0 126067. 1673.76  15
   4  -6  -1 54988.1 2093.79   5
   4  -6   0 22537.4 1346.94   5
   4  -6   1 17575.7 1171.12   5
   4  -6   2 90551.5 2705.97   5
   4  -6   3 154017. 3364.07   5
   4  -6   4 112843. 2655.89   5
   4  -5  -1 104803. 2765.70   5
   4  -5   0 51565.8 1914.61   5
   4  -5   1 4411.69 555.706   5
   4  -5   2 17355.0 1071.74   5
   4  -5   3 44552.0 1637.29   5
   4  -5   4 120007. 2682.97   5
   4  -5   5 222496. 3767.70   5
   4  -4  -2 84151.5 2196.20   5
   4  -4  -1 19319.0 1020.76   5
   4  -4   0 10438.0 772.417   5
   4  -4   1 241915. 4055.38   5
   4  -4   2 12936.3 821.782   5
   4  -4   3 302792. 4475.90   5
   4  -4   4 37375.2 1381.09   5
   4  -4   5 78985.7 2036.25   5
   4  -4   6 156003. 2938.73   5
   4  -3  -3 96064.3 1976.15   5
   4  -3  -2 53586.8 1484.66   5
   4  -3  -1 66794.3 1732.25   5
   4  -3   0 51353.9 1467.64   5
   4  -3   1 406128. 4985.05   5
   4  -3   2 74302.9 1849.76   5
   4  -3   3 133601. 2639.31   5
   4  -3   4 74195.4 1938.87   5
   4  -3   5 366.722 143.340   5
   4  -3   6 93714.5 2242.56   5
   4  -2  -2 100831. 1725.16   5
   4  -2  -1 206294. 2808.14   5
   4  -2   0 75796.0 1653.33   5
   4  -2   1 91079.2 1929.81   5
   4  -2   2 145639. 2632.44   5
   4  -2   3 109273. 2312.07   5
   4  -2   4 22053.1 1036.83   5
   4  -2   5 75238.7 2023.54   5
   4  -2   6 33802.1 1351.15   5
   4  -1  -4 130493. 2169.53   2
   4  -1  -2 158084. 1969.94   5
   4  -1  -1 95713.2 1619.41   5
   4  -1   0 8524.02 500.742   5
   4  -1   1 367591. 4517.52   5
   4  -1   2 278315. 4009.15   5
   4  -1   3 89179.7 2151.42   5
   4  -1   4 47407.6 1613.14   5
   4  -1   5 36324.2 1431.63   5
   4  -1   6 21221.2 1139.33   5
   4   0  -6 247563. 3039.13   2
   4   0  -5 117420. 2062.50   2
   4   0  -4 174090. 2814.45   2
   4   0  -3 106474. 2336.50   2
   4   0  -2 121748. 1689.14   5
   4   0  -1 120337. 1937.25   5
   4   0   0 76050.3 1674.26   5
   4   0   1 197625. 3199.51   5
   4   0   2 67274.4 1881.18   5
   4   0   3 155185. 3172.42   5
   4   0   4 40538.9 1609.13   5
   4   0   5 351249. 5627.51   6
   4   0   5 333437. 5321.21   5
   4   1  -7 285084. 3575.34   2
   4   1  -6 144508. 2452.54   2
   4   1  -5 22848.6 965.666   2
   4   1  -4 156527. 2912.25   2
   4   1  -3 159238. 3063.51   2
   4   1  -2 45539.2 1643.53   2
   4   1  -1 99990.0 2622.13   2
   4   1   0 17127.0 814.864   6
   4   1   0 17980.3 1090.46   2
   4   1   1 163484. 3066.21   6
   4   1   1 170801. 3626.63   2
   4   1   2 73475.5 2184.59   6
   4   1   2 82631.3 2407.71   2
   4   1   3 101802. 2779.19   6
   4   1   3 108909. 2711.29   2
   4   1   4 225055. 4496.76   6
   4   1   5 2470.51 446.925   6
   4   1  10 829.357 104.620  11
   4   2  -7 170860. 2930.60   2
   4   2  -6 33473.7 1235.33   2
   4   2  -5 123226. 2635.82   2
   4   2  -4 90416.2 2316.30   2
   4   2  -3 38200.5 1519.48   2
   4   2  -2 20197.0 1138.11   2
   4   2  -1 82305.9 2388.85   2
   4   2   0 125719. 2990.91   2
   4   2   0 138676. 2919.86   3
   4   2   1 47518.7 1805.75   6
   4   2   1 47022.6 1743.33   2
   4   2   2 31555.3 1596.30   6
   4   2   2 33072.2 1396.31   2
   4   2   3 2713.20 500.242   6
   4   2   4 35347.9 1767.63   6
   4   3  -8 5760.69 525.479   2
   4   3  -7 39120.6 1471.22   2
   4   3  -6 29162.1 1277.20   2
   4   3  -5 300693. 4701.44   2
   4   3  -4 78436.4 2310.56   2
   4   3  -3 92754.0 2544.36   2
   4   3  -2 42787.6 1727.78   2
   4   3  -1 35612.6 1563.57   2
   4   3   0 32572.3 1461.49   2
   4   3   1 63236.5 1931.93   2
   4   3   1 64319.1 2247.18   3
   4   3   2 18485.4 1255.85   3
   4   3   8 10976.1 491.371  15
   4   4 -12 1843.64 181.697  14
   4   4 -11 31326.7 927.430  14
   4   4  -7 1420.71 318.342   2
   4   4  -6 72807.4 2266.11   2
   4   4  -5 47709.2 1826.99   2
   4   4  -4 802104. 9477.94   2
   4   4  -3 56138.9 2001.23   2
   4   4  -2 17741.1 1116.55   2
   4   4  -1 25153.1 1256.82   2
   4   4   2 26230.6 1073.57  15
   4   4   3 28561.0 1202.34  15
   4   4   4 80245.0 2034.26  15
   4   4   5 12547.3 734.783  15
   4   4   6 14795.6 684.977  15
   4   4   7 13491.6 491.135  15
   4   5 -13 16856.6 383.668  14
   4   5 -12 16131.4 557.928  14
   4   5 -11 16439.6 694.096  14
   4   5   2 94811.6 2111.37  15
   4   5   3 7792.19 566.942  15
   4   5   4 4815.24 403.918  15
   4   5   5 27011.4 809.469  15
   4   6 -12 1386.69 154.928  14
   4   6 -11 44891.2 1112.99  14
   4   6   2 87841.8 1659.39  15
   4   6   3 11185.3 474.881  15
   4   7 -12 11376.9 328.914  14
   4   7 -11 363.351 98.8772  14
   4   7 -10 3774.08 322.416  14
   4   8 -10 3765.55 208.593  14
   4   8  -9 3746.67 251.140  14
   4   8  -8 22914.8 680.015  14
   4   8  -7 37488.2 921.451  14
   5  -6  -1 253104. 4427.68   5
   5  -6   0 9418.28 793.927   5
   5  -6   1 156762. 3345.00   5
   5  -6   2 78213.2 2239.88   5
   5  -5  -1 32506.5 1431.22   5
   5  -5   0 110946. 2700.87   5
   5  -5   1 55445.1 1856.69   5
   5  -5   2 94219.9 2425.72   5
   5  -5   3 5995.51 586.295   5
   5  -5   4 198252. 3524.52   5
   5  -4  -1 71738.2 1903.11   5
   5  -4   0 78651.4 2018.05   5
   5  -4   1 86025.1 2171.66   5
   5  -4   2 41978.9 1491.85   5
   5  -4   3 162956. 3137.04   5
   5  -4   4 28325.7 1232.22   5
   5  -3  -1 62767.7 1628.25   5
   5  -3   0 78434.5 1892.29   5
   5  -3   1 130160. 2609.28   5
   5  -3   2 60283.6 1748.86   5
   5  -3   3 18106.1 948.125   5
   5  -3   4 44341.3 1550.54   5
   5  -3   5 220049. 3765.17   5
   5  -2  -4 86797.5 1883.67   2
   5  -2  -1 151941. 2469.11   5
   5  -2   0 28162.6 1046.51   5
   5  -2   1 47747.0 1459.39   5
   5  -2   2 1330.75 264.890   5
   5  -2   3 30087.4 1264.48   5
   5  -2   4 123386. 2741.62   5
   5  -2   5 176660. 3375.63   5
   5  -1  -5 67802.9 1572.87   2
   5  -1  -4 53903.8 1580.13   2
   5  -1  -3 72974.1 2051.83   2
   5  -1  -1 190918. 2778.50   5
   5  -1   0 73138.5 1755.05   5
   5  -1   1 16755.1 885.138   5
   5  -1   2 28121.6 1224.52   5
   5  -1   3 31129.6 1339.42   5
   5  -1   4 14296.0 931.722   5
   5   0  -6 45432.9 1267.43   2
   5   0  -5 43801.3 1395.89   2
   5   0  -4 227546. 3781.59   2
   5   0  -3 68598.6 2149.59   2
   5   0  -2 150972. 3449.33   2
   5   0  -1 249443. 3467.96   5
   5   0   0 243873. 3740.67   5
   5   0   1 60252.5 1708.20   6
   5   0   1 55912.2 1764.53   5
   5   0   2 302737. 4718.88   6
   5   0   2 301646. 4757.86   5
   5   0   3 13881.6 936.165   6
   5   0   3 15057.9 1003.97   5
   5   0   4 55666.3 1969.88   6
   5   1  -6 6273.87 533.866   2
   5   1  -5 118288. 2645.86   2
   5   1  -4 54471.4 1847.34   2
   5   1  -3 5400.77 607.717   2
   5   1  -2 151956. 3524.95   2
   5   1  -1 75797.2 2526.95   2
   5   1   0 35117.4 1727.69   2
   5   1   1 172827. 3912.34   2
   5   1   2 4398.57 526.692   6
   5   1   2 4799.51 623.717   2
   5   1   3 25574.5 1336.71   6
   5   2  -7 75972.2 1942.69   2
   5   2  -6 122223. 2726.41   2
   5   2  -5 8342.04 714.502   2
   5   2  -4 14326.3 986.926   2
   5   2  -3 19731.5 1218.70   2
   5   2  -2 50648.2 1999.47   2
   5   2  -1 89085.6 2693.82   2
   5   2   0 53975.3 2072.58   2
   5   2   1 29163.3 1441.08   2
   5   3  -7 44676.9 1576.49   2
   5   3  -6 98857.7 2606.32   2
   5   3  -5 83827.0 2446.90   2
   5   3  -4 38076.6 1666.71   2
   5   3  -3 12042.6 956.037   2
   5   3  -2 183137. 3935.40   2
   5   3  -1 243297. 4607.23   2
   5   3   0 90304.5 2489.45   2
   5   3   5 50851.6 1323.03  15
   5   3   6 28712.7 810.386  15
   5   4 -11 13416.5 568.411  14
   5   5 -12 1342.41 138.604  14
   5   5 -11 7826.98 431.310  14
   5   6 -12 2705.55 158.737  14
   5   6 -11 18776.4 601.645  14
   5   7 -10 323.803 91.6049  14
   6  -5   1 21301.0 1036.10   5
   6  -4   0 200491. 3292.37   5
   6  -4   1 2701.07 367.352   5
   6  -4   2 47221.7 1559.53   5
   6  -3   0 82852.4 1919.80   5
   6  -3   1 548.590 175.590   5
   6  -3   2 83781.8 2143.57   5
   6  -3   3 46024.7 1559.19   5
   6  -2  -3 29157.3 1378.09   2
   6  -2   1 67172.8 1854.76   5
   6  -2   2 263697. 4216.11   5
   6  -2   3 204327. 3597.68   5
   6  -1  -4 73312.9 2114.58   2
   6  -1  -3 38861.3 1660.60   2
   6  -1  -2 149581. 3647.02   2
   6  -1   1 1034.37 239.463   5
   6  -1   2 35883.9 1439.13   5
   6   0  -5 38101.7 1450.76   2
   6   0  -4 125166. 2967.81   2
   6   0  -3 110459. 2936.55   2
   6   0  -2 7221.50 789.291   2
   6   0  -1 14562.7 1151.61   2
   6   0   0 21803.6 1440.96   2
   6   0   1 27271.1 1611.19   2
   6   0   2 162619. 3855.66   2
   6   1  -6 42815.4 1470.31   2
   6   1  -5 42409.4 1655.66   2
   6   1  -4 92540.5 2618.42   2
   6   1  -3 109196. 3022.84   2
   6   1  -2 62309.7 2325.53   2
   6   1  -1 11683.9 1017.51   2
   6   1   0 17347.3 1237.98   2
   6   1   1 45223.0 1894.68   2
   6   2  -5 26163.3 1339.71   2
   6   2  -4 47777.2 1939.53   2
   6   2  -3 358553. 5976.81   2
   6   2  -2 200424. 4320.44   2
   6   2  -1 164487. 3795.36   2
   6   4 -11 55175.2 1035.47  14
   6   5 -11 81367.7 1248.18  14
   6   6 -10 67770.0 1173.93  14
   7  -2  -3 36161.4 1552.94   2
   7  -2  -2 72948.8 2441.54   2
   7  -1  -4 58497.3 1890.32   2
   7  -1  -3 20586.5 1223.01   2
   7  -1  -2 102724. 3063.13   2
   7  -1  -1 67325.9 2543.07   2
   0   0   0    0.00    0.00   0

TITL qyan2CuLT in P1
REM P1 (#1 in standard setting)
CELL 1.54184   8.436644   8.529857  11.819855 103.4817 103.7562 102.8576
ZERR    2.00   0.000405   0.000383   0.000619   0.0041   0.0043   0.0040
LATT -1
SFAC C H N S
UNIT 40.00 34.00 2.00 2.00
REM  CrysAlisPro recorded range (K): Min=100.0; max=100.0; aver:100.0
TEMP -173
TREF
HKLF 4
END
;
_shelx_hkl_checksum              89072
_olex2_submission_special_instructions 'No special instructions were received'
_oxdiff_exptl_absorpt_empirical_details
;
Empirical correction (ABSPACK) includes:
- Absorption correction using spherical harmonics
- Frame scaling
;
_oxdiff_exptl_absorpt_empirical_full_max 1.686
_oxdiff_exptl_absorpt_empirical_full_min 0.458
loop_
_space_group_symop_operation_xyz
'x, y, z'
loop_
_atom_site_label
_atom_site_type_symbol
_atom_site_fract_x
_atom_site_fract_y
_atom_site_fract_z
_atom_site_U_iso_or_equiv
_atom_site_adp_type
_atom_site_occupancy
_atom_site_site_symmetry_order
_atom_site_calc_flag
_atom_site_refinement_flags_posn
_atom_site_refinement_flags_adp
_atom_site_refinement_flags_occupancy
_atom_site_disorder_assembly
_atom_site_disorder_group
S1 S 0.32051(16) 0.31294(15) 0.37053(9) 0.0184(3) Uani 0.77 1 d D U P A 1
S2 S 0.2837(8) 0.4550(8) 0.4881(5) 0.0178(12) Uani 0.23 1 d D U P A 2
N1 N 0.7275(3) 0.5330(3) 0.8740(2) 0.0130(5) Uani 1 1 d . . . . .
H1 H 0.6409 0.4772 0.8922 0.016 Uiso 1 1 calc R U . . .
C1 C 0.6715(3) 0.3159(3) 0.6709(2) 0.0111(5) Uani 1 1 d D . . . .
H1A H 0.7521 0.2823 0.6269 0.013 Uiso 0.77 1 calc R U P B 1
H1B H 0.7500 0.2825 0.6247 0.013 Uiso 0.23 1 calc R U P C 2
C2 C 0.4898(9) 0.2672(11) 0.4531(6) 0.0190(14) Uani 0.77 1 d D U P A 1
H2 H 0.5502 0.1981 0.4176 0.023 Uiso 0.77 1 calc R U P A 1
C3 C 0.529(2) 0.341(2) 0.5765(9) 0.0113(10) Uani 0.77 1 d D U P A 1
C4 C 0.427(2) 0.448(3) 0.6030(9) 0.0165(12) Uani 0.77 1 d D U P A 1
H4 H 0.4420 0.5163 0.6830 0.020 Uiso 0.77 1 calc R U P A 1
C5 C 0.3055(11) 0.4422(11) 0.5015(7) 0.0194(14) Uani 0.77 1 d D U P A 1
H5 H 0.2229 0.5018 0.5027 0.023 Uiso 0.77 1 calc R U P A 1
C6 C 0.426(8) 0.449(10) 0.610(3) 0.019(3) Uani 0.23 1 d D U P A 2
H6 H 0.4388 0.5101 0.6916 0.023 Uiso 0.23 1 calc R U P A 2
C7 C 0.465(3) 0.249(4) 0.458(2) 0.018(3) Uani 0.23 1 d D U P A 2
H7 H 0.5026 0.1581 0.4208 0.021 Uiso 0.23 1 calc R U P A 2
C8 C 0.341(3) 0.310(3) 0.3997(19) 0.019(2) Uani 0.23 1 d D U P A 2
H8 H 0.2913 0.2715 0.3134 0.023 Uiso 0.23 1 calc R U P A 2
C9 C 0.526(8) 0.344(9) 0.581(3) 0.018(3) Uani 0.23 1 d D U P A 2
C11 C 0.7724(3) 0.4794(3) 0.7692(2) 0.0117(5) Uani 1 1 d . . . . .
C12 C 0.9109(3) 0.5999(3) 0.7699(3) 0.0127(5) Uani 1 1 d . . . . .
C13 C 0.9547(3) 0.7361(3) 0.8808(3) 0.0124(5) Uani 1 1 d . . . . .
C14 C 1.0847(4) 0.8905(3) 0.9340(3) 0.0154(5) Uani 1 1 d . . . . .
H14 H 1.1635 0.9252 0.8926 0.019 Uiso 1 1 calc R U . . .
C15 C 1.0961(4) 0.9913(4) 1.0479(3) 0.0184(6) Uani 1 1 d . . . . .
H15 H 1.1812 1.0976 1.0835 0.022 Uiso 1 1 calc R U . . .
C16 C 0.9837(4) 0.9386(4) 1.1115(3) 0.0176(6) Uani 1 1 d . . . . .
H16 H 0.9965 1.0084 1.1904 0.021 Uiso 1 1 calc R U . . .
C17 C 0.8537(4) 0.7860(4) 1.0612(3) 0.0153(5) Uani 1 1 d . . . . .
H17 H 0.7775 0.7505 1.1041 0.018 Uiso 1 1 calc R U . . .
C18 C 0.8407(3) 0.6880(3) 0.9452(3) 0.0127(5) Uani 1 1 d . . . . .
C19 C 1.0041(4) 0.5892(4) 0.6764(3) 0.0171(6) Uani 1 1 d . . . . .
H19A H 1.0053 0.6851 0.6440 0.026 Uiso 1 1 calc R U . . .
H19B H 0.9462 0.4838 0.6096 0.026 Uiso 1 1 calc R U . . .
H19C H 1.1216 0.5916 0.7144 0.026 Uiso 1 1 calc R U . . .
C21 C 0.6099(3) 0.1711(3) 0.7213(2) 0.0113(5) Uani 1 1 d . . . . .
C22 C 0.4543(4) 0.0468(3) 0.6594(3) 0.0151(5) Uani 1 1 d . . . . .
H22 H 0.3813 0.0547 0.5874 0.018 Uiso 1 1 calc R U . . .
C23 C 0.4056(4) -0.0900(4) 0.7035(3) 0.0216(6) Uani 1 1 d . . . . .
H23 H 0.2996 -0.1745 0.6609 0.026 Uiso 1 1 calc R U . . .
C24 C 0.5092(4) -0.1024(4) 0.8069(3) 0.0214(6) Uani 1 1 d . . . . .
H24 H 0.4743 -0.1943 0.8369 0.026 Uiso 1 1 calc R U . . .
C25 C 0.6668(4) 0.0203(4) 0.8687(3) 0.0180(6) Uani 1 1 d . . . . .
H25 H 0.7401 0.0109 0.9398 0.022 Uiso 1 1 calc R U . . .
C26 C 0.7156(4) 0.1558(4) 0.8256(3) 0.0155(5) Uani 1 1 d . . . . .
H26 H 0.8225 0.2390 0.8678 0.019 Uiso 1 1 calc R U . . .
S1A S -0.09803(9) 0.46557(10) 0.28459(7) 0.02427(19) Uani 1 1 d . . . . .
N1A N 0.5160(3) 0.7607(3) 0.3929(2) 0.0133(5) Uani 1 1 d . . . . .
H1AA H 0.4550 0.6815 0.4146 0.016 Uiso 1 1 calc R U . . .
C1A C 0.3006(3) 0.6945(3) 0.1872(2) 0.0127(5) Uani 1 1 d . . . . .
H1AB H 0.2635 0.7711 0.1409 0.015 Uiso 1 1 calc R U . . .
C2A C 0.0506(4) 0.4761(4) 0.2061(3) 0.0173(6) Uani 1 1 d . . . . .
H2A H 0.0561 0.3831 0.1463 0.021 Uiso 1 1 calc R U . . .
C3A C 0.1595(3) 0.6364(4) 0.2414(3) 0.0129(5) Uani 1 1 d . . . . .
C4A C 0.1200(4) 0.7494(4) 0.3330(3) 0.0163(5) Uani 1 1 d . . . . .
H4A H 0.1824 0.8655 0.3682 0.020 Uiso 1 1 calc R U . . .
C5A C -0.0166(4) 0.6745(4) 0.3654(3) 0.0203(6) Uani 1 1 d . . . . .
H5A H -0.0600 0.7311 0.4248 0.024 Uiso 1 1 calc R U . . .
C11A C 0.4660(3) 0.7984(3) 0.2849(2) 0.0119(5) Uani 1 1 d . . . . .
C12A C 0.5909(4) 0.9273(3) 0.2813(3) 0.0127(5) Uani 1 1 d . . . . .
C13A C 0.7283(4) 0.9732(3) 0.3920(3) 0.0119(5) Uani 1 1 d . . . . .
C14A C 0.8911(4) 1.0918(4) 0.4409(3) 0.0158(6) Uani 1 1 d . . . . .
H14A H 0.9297 1.1639 0.3965 0.019 Uiso 1 1 calc R U . . .
C15A C 0.9943(4) 1.1027(3) 0.5536(3) 0.0170(6) Uani 1 1 d . . . . .
H15A H 1.1048 1.1821 0.5863 0.020 Uiso 1 1 calc R U . . .
C16A C 0.9379(4) 0.9972(4) 0.6211(3) 0.0159(5) Uani 1 1 d . . . . .
H16A H 1.0108 1.0077 0.6991 0.019 Uiso 1 1 calc R U . . .
C17A C 0.7782(4) 0.8786(4) 0.5757(3) 0.0154(5) Uani 1 1 d . . . . .
H17A H 0.7399 0.8082 0.6212 0.019 Uiso 1 1 calc R U . . .
C18A C 0.6766(3) 0.8667(3) 0.4613(3) 0.0122(5) Uani 1 1 d . . . . .
C19A C 0.5835(4) 1.0106(4) 0.1816(3) 0.0170(6) Uani 1 1 d . . . . .
H19D H 0.5662 1.1212 0.2097 0.025 Uiso 1 1 calc R U . . .
H19E H 0.4886 0.9398 0.1089 0.025 Uiso 1 1 calc R U . . .
H19F H 0.6910 1.0249 0.1615 0.025 Uiso 1 1 calc R U . . .
C21A C 0.3240(3) 0.5505(3) 0.0954(3) 0.0127(5) Uani 1 1 d . . . . .
C22A C 0.4557(4) 0.4792(4) 0.1248(3) 0.0149(5) Uani 1 1 d . . . . .
H22A H 0.5348 0.5204 0.2047 0.018 Uiso 1 1 calc R U . . .
C23A C 0.4718(4) 0.3465(4) 0.0366(3) 0.0185(6) Uani 1 1 d . . . . .
H23A H 0.5611 0.2974 0.0572 0.022 Uiso 1 1 calc R U . . .
C24A C 0.3585(4) 0.2876(4) -0.0796(3) 0.0218(6) Uani 1 1 d . . . . .
H24A H 0.3702 0.1984 -0.1393 0.026 Uiso 1 1 calc R U . . .
C25A C 0.2289(4) 0.3569(4) -0.1094(3) 0.0252(7) Uani 1 1 d . . . . .
H25A H 0.1506 0.3154 -0.1897 0.030 Uiso 1 1 calc R U . . .
C26A C 0.2113(4) 0.4883(4) -0.0225(3) 0.0210(6) Uani 1 1 d . . . . .
H26A H 0.1212 0.5359 -0.0442 0.025 Uiso 1 1 calc R U . . .
loop_
_atom_site_aniso_label
_atom_site_aniso_U_11
_atom_site_aniso_U_22
_atom_site_aniso_U_33
_atom_site_aniso_U_23
_atom_site_aniso_U_13
_atom_site_aniso_U_12
S1 0.0230(6) 0.0152(4) 0.0152(5) 0.0034(4) 0.0001(4) 0.0093(4)
S2 0.016(2) 0.0166(18) 0.0213(17) 0.0081(12) 0.0057(13) 0.0038(14)
N1 0.0118(11) 0.0079(10) 0.0191(11) 0.0027(9) 0.0081(9) 0.0005(8)
C1 0.0100(12) 0.0067(11) 0.0177(12) 0.0034(10) 0.0062(10) 0.0028(9)
C2 0.023(2) 0.019(3) 0.0175(14) 0.0053(12) 0.0041(12) 0.012(2)
C3 0.0099(15) 0.0066(15) 0.0170(14) 0.0051(11) 0.0045(11) -0.0004(12)
C4 0.0167(16) 0.0133(17) 0.0209(15) 0.0046(14) 0.0068(13) 0.0064(13)
C5 0.020(2) 0.016(2) 0.0220(16) 0.0043(13) 0.0053(12) 0.0071(16)
C6 0.019(4) 0.018(4) 0.021(2) 0.0069(18) 0.0059(17) 0.006(3)
C7 0.018(4) 0.016(4) 0.020(3) 0.0073(19) 0.0064(18) 0.004(3)
C8 0.019(3) 0.018(3) 0.022(3) 0.0080(17) 0.0063(18) 0.004(3)
C9 0.018(4) 0.017(4) 0.020(3) 0.0069(19) 0.0057(18) 0.005(3)
C11 0.0105(12) 0.0093(12) 0.0164(12) 0.0049(10) 0.0045(10) 0.0038(10)
C12 0.0107(12) 0.0086(12) 0.0200(13) 0.0056(10) 0.0056(10) 0.0029(10)
C13 0.0099(12) 0.0093(12) 0.0187(13) 0.0054(10) 0.0036(10) 0.0040(10)
C14 0.0114(12) 0.0105(13) 0.0244(14) 0.0070(11) 0.0055(11) 0.0014(10)
C15 0.0160(13) 0.0110(13) 0.0235(14) 0.0035(11) 0.0003(11) 0.0026(10)
C16 0.0199(14) 0.0117(13) 0.0188(13) 0.0025(10) 0.0015(11) 0.0066(11)
C17 0.0173(14) 0.0123(13) 0.0190(13) 0.0072(10) 0.0070(11) 0.0052(11)
C18 0.0111(12) 0.0082(12) 0.0188(13) 0.0060(10) 0.0031(10) 0.0027(10)
C19 0.0166(14) 0.0121(13) 0.0243(14) 0.0061(11) 0.0113(11) 0.0017(10)
C21 0.0119(12) 0.0058(11) 0.0184(12) 0.0021(9) 0.0095(10) 0.0035(9)
C22 0.0128(13) 0.0104(12) 0.0206(13) 0.0036(10) 0.0053(11) 0.0012(10)
C23 0.0194(15) 0.0090(13) 0.0334(16) 0.0041(12) 0.0115(13) -0.0030(11)
C24 0.0304(17) 0.0082(12) 0.0324(16) 0.0082(11) 0.0202(14) 0.0050(12)
C25 0.0239(15) 0.0156(14) 0.0199(13) 0.0089(11) 0.0083(12) 0.0107(11)
C26 0.0149(13) 0.0108(12) 0.0219(13) 0.0035(10) 0.0082(11) 0.0044(10)
S1A 0.0152(3) 0.0247(4) 0.0345(4) 0.0125(3) 0.0089(3) 0.0039(3)
N1A 0.0100(11) 0.0116(10) 0.0186(11) 0.0056(9) 0.0050(9) 0.0020(8)
C1A 0.0116(13) 0.0091(12) 0.0164(12) 0.0027(10) 0.0035(10) 0.0032(10)
C2A 0.0129(13) 0.0149(13) 0.0237(14) 0.0074(11) 0.0035(11) 0.0040(11)
C3A 0.0107(12) 0.0132(12) 0.0162(12) 0.0050(10) 0.0035(10) 0.0062(10)
C4A 0.0170(13) 0.0158(13) 0.0162(12) 0.0040(11) 0.0030(10) 0.0082(11)
C5A 0.0221(15) 0.0270(16) 0.0191(13) 0.0082(12) 0.0079(11) 0.0180(13)
C11A 0.0103(12) 0.0091(12) 0.0163(13) 0.0014(10) 0.0052(10) 0.0044(10)
C12A 0.0146(13) 0.0078(11) 0.0169(12) 0.0022(9) 0.0067(10) 0.0051(10)
C13A 0.0139(13) 0.0071(12) 0.0176(12) 0.0035(10) 0.0085(10) 0.0052(10)
C14A 0.0164(13) 0.0092(12) 0.0230(14) 0.0036(10) 0.0094(11) 0.0035(10)
C15A 0.0124(13) 0.0100(12) 0.0250(14) 0.0009(11) 0.0057(11) 0.0008(10)
C16A 0.0146(13) 0.0143(13) 0.0166(12) 0.0023(10) 0.0023(11) 0.0051(10)
C17A 0.0157(13) 0.0127(13) 0.0185(13) 0.0033(10) 0.0077(11) 0.0040(11)
C18A 0.0115(12) 0.0075(12) 0.0190(13) 0.0023(10) 0.0081(10) 0.0034(10)
C19A 0.0184(14) 0.0144(13) 0.0211(13) 0.0093(11) 0.0073(11) 0.0049(11)
C21A 0.0134(12) 0.0078(12) 0.0192(13) 0.0042(10) 0.0085(10) 0.0036(10)
C22A 0.0133(13) 0.0147(13) 0.0182(13) 0.0054(10) 0.0060(10) 0.0049(10)
C23A 0.0183(13) 0.0140(13) 0.0315(15) 0.0103(11) 0.0148(12) 0.0096(11)
C24A 0.0263(16) 0.0118(13) 0.0280(15) 0.0008(11) 0.0199(13) 0.0000(12)
C25A 0.0324(18) 0.0172(14) 0.0153(13) 0.0005(11) 0.0006(12) -0.0021(13)
C26A 0.0228(15) 0.0153(14) 0.0225(14) 0.0038(11) 0.0020(12) 0.0081(12)
loop_
_atom_type_symbol
_atom_type_description
_atom_type_scat_dispersion_real
_atom_type_scat_dispersion_imag
_atom_type_scat_source
C C 0.0181 0.0091 'International Tables Vol C Tables 4.2.6.8 and 6.1.1.4'
H H 0.0000 0.0000 'International Tables Vol C Tables 4.2.6.8 and 6.1.1.4'
N N 0.0311 0.0180 'International Tables Vol C Tables 4.2.6.8 and 6.1.1.4'
S S 0.3331 0.5567 'International Tables Vol C Tables 4.2.6.8 and 6.1.1.4'
loop_
_geom_angle_atom_site_label_1
_geom_angle_atom_site_label_2
_geom_angle_atom_site_label_3
_geom_angle
_geom_angle_site_symmetry_1
_geom_angle_site_symmetry_3
_geom_angle_publ_flag
C2 S1 C5 91.3(4) . . ?
C8 S2 C6 90(2) . . ?
C11 N1 H1 125.5 . . ?
C18 N1 H1 125.5 . . ?
C18 N1 C11 109.0(2) . . ?
C3 C1 H1A 106.1 . . ?
C3 C1 C21 113.5(9) . . ?
C9 C1 H1B 106.9 . . ?
C9 C1 C21 113(4) . . ?
C11 C1 H1A 106.1 . . ?
C11 C1 H1B 106.9 . . ?
C11 C1 C3 111.0(6) . . ?
C11 C1 C9 110(2) . . ?
C11 C1 C21 113.3(2) . . ?
C21 C1 H1A 106.1 . . ?
C21 C1 H1B 106.9 . . ?
S1 C2 H2 123.8 . . ?
C3 C2 S1 112.5(5) . . ?
C3 C2 H2 123.8 . . ?
C2 C3 C1 123.0(8) . . ?
C2 C3 C4 111.7(6) . . ?
C4 C3 C1 125.2(7) . . ?
C3 C4 H4 123.6 . . ?
C5 C4 C3 112.8(8) . . ?
C5 C4 H4 123.6 . . ?
S1 C5 H5 124.3 . . ?
C4 C5 S1 111.5(8) . . ?
C4 C5 H5 124.3 . . ?
S2 C6 H6 123.5 . . ?
C9 C6 S2 113(2) . . ?
C9 C6 H6 123.5 . . ?
C8 C7 H7 126.3 . . ?
C8 C7 C9 107(2) . . ?
C9 C7 H7 126.3 . . ?
S2 C8 H8 121.6 . . ?
C7 C8 S2 116.7(17) . . ?
C7 C8 H8 121.6 . . ?
C6 C9 C1 126(2) . . ?
C7 C9 C1 122(3) . . ?
C7 C9 C6 112(2) . . ?
N1 C11 C1 122.2(2) . . ?
C12 C11 N1 109.6(2) . . ?
C12 C11 C1 128.1(3) . . ?
C11 C12 C13 106.8(2) . . ?
C11 C12 C19 126.8(3) . . ?
C13 C12 C19 126.4(2) . . ?
C14 C13 C12 133.7(3) . . ?
C14 C13 C18 119.0(3) . . ?
C18 C13 C12 107.2(2) . . ?
C13 C14 H14 120.6 . . ?
C15 C14 C13 118.9(3) . . ?
C15 C14 H14 120.6 . . ?
C14 C15 H15 119.5 . . ?
C14 C15 C16 120.9(3) . . ?
C16 C15 H15 119.5 . . ?
C15 C16 H16 119.2 . . ?
C17 C16 C15 121.5(3) . . ?
C17 C16 H16 119.2 . . ?
C16 C17 H17 121.5 . . ?
C16 C17 C18 117.0(3) . . ?
C18 C17 H17 121.5 . . ?
N1 C18 C13 107.5(2) . . ?
N1 C18 C17 129.9(3) . . ?
C17 C18 C13 122.6(3) . . ?
C12 C19 H19A 109.5 . . ?
C12 C19 H19B 109.5 . . ?
C12 C19 H19C 109.5 . . ?
H19A C19 H19B 109.5 . . ?
H19A C19 H19C 109.5 . . ?
H19B C19 H19C 109.5 . . ?
C22 C21 C1 121.1(2) . . ?
C26 C21 C1 119.8(2) . . ?
C26 C21 C22 118.9(2) . . ?
C21 C22 H22 120.0 . . ?
C21 C22 C23 120.0(3) . . ?
C23 C22 H22 120.0 . . ?
C22 C23 H23 119.7 . . ?
C24 C23 C22 120.6(3) . . ?
C24 C23 H23 119.7 . . ?
C23 C24 H24 120.0 . . ?
C23 C24 C25 119.9(3) . . ?
C25 C24 H24 120.0 . . ?
C24 C25 H25 120.1 . . ?
C26 C25 C24 119.8(3) . . ?
C26 C25 H25 120.1 . . ?
C21 C26 H26 119.6 . . ?
C25 C26 C21 120.8(3) . . ?
C25 C26 H26 119.6 . . ?
C5A S1A C2A 92.78(15) . . ?
C11A N1A H1AA 125.5 . . ?
C18A N1A H1AA 125.5 . . ?
C18A N1A C11A 109.1(2) . . ?
C3A C1A H1AB 106.4 . . ?
C11A C1A H1AB 106.4 . . ?
C11A C1A C3A 111.9(2) . . ?
C11A C1A C21A 112.1(2) . . ?
C21A C1A H1AB 106.4 . . ?
C21A C1A C3A 112.9(2) . . ?
S1A C2A H2A 124.4 . . ?
C3A C2A S1A 111.1(2) . . ?
C3A C2A H2A 124.4 . . ?
C2A C3A C1A 125.7(3) . . ?
C2A C3A C4A 111.7(3) . . ?
C4A C3A C1A 122.5(2) . . ?
C3A C4A H4A 123.2 . . ?
C5A C4A C3A 113.6(3) . . ?
C5A C4A H4A 123.2 . . ?
S1A C5A H5A 124.6 . . ?
C4A C5A S1A 110.8(2) . . ?
C4A C5A H5A 124.6 . . ?
N1A C11A C1A 121.1(2) . . ?
C12A C11A N1A 109.9(2) . . ?
C12A C11A C1A 128.8(3) . . ?
C11A C12A C13A 107.2(2) . . ?
C11A C12A C19A 126.5(3) . . ?
C13A C12A C19A 126.3(3) . . ?
C14A C13A C12A 134.8(3) . . ?
C14A C13A C18A 118.2(3) . . ?
C18A C13A C12A 107.0(2) . . ?
C13A C14A H14A 120.2 . . ?
C15A C14A C13A 119.6(3) . . ?
C15A C14A H14A 120.2 . . ?
C14A C15A H15A 119.6 . . ?
C14A C15A C16A 120.8(3) . . ?
C16A C15A H15A 119.6 . . ?
C15A C16A H16A 119.4 . . ?
C17A C16A C15A 121.2(3) . . ?
C17A C16A H16A 119.4 . . ?
C16A C17A H17A 121.3 . . ?
C18A C17A C16A 117.5(3) . . ?
C18A C17A H17A 121.3 . . ?
N1A C18A C13A 106.9(2) . . ?
N1A C18A C17A 130.4(2) . . ?
C17A C18A C13A 122.7(2) . . ?
C12A C19A H19D 109.5 . . ?
C12A C19A H19E 109.5 . . ?
C12A C19A H19F 109.5 . . ?
H19D C19A H19E 109.5 . . ?
H19D C19A H19F 109.5 . . ?
H19E C19A H19F 109.5 . . ?
C22A C21A C1A 122.4(2) . . ?
C26A C21A C1A 119.1(3) . . ?
C26A C21A C22A 118.5(3) . . ?
C21A C22A H22A 119.9 . . ?
C21A C22A C23A 120.2(3) . . ?
C23A C22A H22A 119.9 . . ?
C22A C23A H23A 120.0 . . ?
C24A C23A C22A 120.1(3) . . ?
C24A C23A H23A 120.0 . . ?
C23A C24A H24A 119.9 . . ?
C25A C24A C23A 120.2(3) . . ?
C25A C24A H24A 119.9 . . ?
C24A C25A H25A 119.9 . . ?
C24A C25A C26A 120.2(3) . . ?
C26A C25A H25A 119.9 . . ?
C21A C26A C25A 120.8(3) . . ?
C21A C26A H26A 119.6 . . ?
C25A C26A H26A 119.6 . . ?
loop_
_geom_bond_atom_site_label_1
_geom_bond_atom_site_label_2
_geom_bond_distance
_geom_bond_site_symmetry_2
_geom_bond_publ_flag
S1 C2 1.705(6) . ?
S1 C5 1.729(8) . ?
S2 C6 1.66(3) . ?
S2 C8 1.66(2) . ?
N1 H1 0.8800 . ?
N1 C11 1.387(4) . ?
N1 C18 1.380(3) . ?
C1 H1A 1.0000 . ?
C1 H1B 1.0000 . ?
C1 C3 1.526(6) . ?
C1 C9 1.526(18) . ?
C1 C11 1.505(4) . ?
C1 C21 1.535(3) . ?
C2 H2 0.9500 . ?
C2 C3 1.373(9) . ?
C3 C4 1.417(9) . ?
C4 H4 0.9500 . ?
C4 C5 1.364(10) . ?
C5 H5 0.9500 . ?
C6 H6 0.9500 . ?
C6 C9 1.40(3) . ?
C7 H7 0.9500 . ?
C7 C8 1.39(3) . ?
C7 C9 1.39(3) . ?
C8 H8 0.9500 . ?
C11 C12 1.371(4) . ?
C12 C13 1.440(4) . ?
C12 C19 1.499(4) . ?
C13 C14 1.406(4) . ?
C13 C18 1.412(4) . ?
C14 H14 0.9500 . ?
C14 C15 1.388(4) . ?
C15 H15 0.9500 . ?
C15 C16 1.405(4) . ?
C16 H16 0.9500 . ?
C16 C17 1.394(4) . ?
C17 H17 0.9500 . ?
C17 C18 1.395(4) . ?
C19 H19A 0.9800 . ?
C19 H19B 0.9800 . ?
C19 H19C 0.9800 . ?
C21 C22 1.394(4) . ?
C21 C26 1.392(4) . ?
C22 H22 0.9500 . ?
C22 C23 1.405(4) . ?
C23 H23 0.9500 . ?
C23 C24 1.365(5) . ?
C24 H24 0.9500 . ?
C24 C25 1.400(5) . ?
C25 H25 0.9500 . ?
C25 C26 1.388(4) . ?
C26 H26 0.9500 . ?
S1A C2A 1.727(3) . ?
S1A C5A 1.705(3) . ?
N1A H1AA 0.8800 . ?
N1A C11A 1.382(4) . ?
N1A C18A 1.379(4) . ?
C1A H1AB 1.0000 . ?
C1A C3A 1.523(4) . ?
C1A C11A 1.507(4) . ?
C1A C21A 1.522(4) . ?
C2A H2A 0.9500 . ?
C2A C3A 1.371(4) . ?
C3A C4A 1.429(4) . ?
C4A H4A 0.9500 . ?
C4A C5A 1.371(4) . ?
C5A H5A 0.9500 . ?
C11A C12A 1.359(4) . ?
C12A C13A 1.430(4) . ?
C12A C19A 1.507(4) . ?
C13A C14A 1.405(4) . ?
C13A C18A 1.424(4) . ?
C14A H14A 0.9500 . ?
C14A C15A 1.376(4) . ?
C15A H15A 0.9500 . ?
C15A C16A 1.414(4) . ?
C16A H16A 0.9500 . ?
C16A C17A 1.387(4) . ?
C17A H17A 0.9500 . ?
C17A C18A 1.385(4) . ?
C19A H19D 0.9800 . ?
C19A H19E 0.9800 . ?
C19A H19F 0.9800 . ?
C21A C22A 1.393(4) . ?
C21A C26A 1.388(4) . ?
C22A H22A 0.9500 . ?
C22A C23A 1.404(4) . ?
C23A H23A 0.9500 . ?
C23A C24A 1.376(5) . ?
C24A H24A 0.9500 . ?
C24A C25A 1.368(5) . ?
C25A H25A 0.9500 . ?
C25A C26A 1.394(5) . ?
C26A H26A 0.9500 . ?
loop_
_geom_torsion_atom_site_label_1
_geom_torsion_atom_site_label_2
_geom_torsion_atom_site_label_3
_geom_torsion_atom_site_label_4
_geom_torsion
_geom_torsion_site_symmetry_1
_geom_torsion_site_symmetry_2
_geom_torsion_site_symmetry_3
_geom_torsion_site_symmetry_4
_geom_torsion_publ_flag
S1 C2 C3 C1 177.9(13) . . . . ?
S1 C2 C3 C4 -5(2) . . . . ?
S2 C6 C9 C1 178(6) . . . . ?
S2 C6 C9 C7 -9(9) . . . . ?
N1 C11 C12 C13 -0.1(3) . . . . ?
N1 C11 C12 C19 177.3(3) . . . . ?
C1 C3 C4 C5 -177.8(17) . . . . ?
C1 C11 C12 C13 176.7(3) . . . . ?
C1 C11 C12 C19 -5.8(5) . . . . ?
C1 C21 C22 C23 176.1(3) . . . . ?
C1 C21 C26 C25 -176.1(2) . . . . ?
C2 S1 C5 C4 0.1(14) . . . . ?
C2 C3 C4 C5 5(3) . . . . ?
C3 C1 C11 N1 89.1(9) . . . . ?
C3 C1 C11 C12 -87.4(9) . . . . ?
C3 C1 C21 C22 18.6(6) . . . . ?
C3 C1 C21 C26 -166.2(5) . . . . ?
C3 C4 C5 S1 -3(2) . . . . ?
C5 S1 C2 C3 2.6(12) . . . . ?
C6 S2 C8 C7 2(4) . . . . ?
C8 S2 C6 C9 4(7) . . . . ?
C8 C7 C9 C1 -177(6) . . . . ?
C8 C7 C9 C6 10(8) . . . . ?
C9 C1 C11 N1 87(3) . . . . ?
C9 C1 C11 C12 -90(3) . . . . ?
C9 C1 C21 C22 20.9(17) . . . . ?
C9 C1 C21 C26 -163.8(17) . . . . ?
C9 C7 C8 S2 -7(5) . . . . ?
C11 N1 C18 C13 2.6(3) . . . . ?
C11 N1 C18 C17 -175.5(3) . . . . ?
C11 C1 C3 C2 138.0(15) . . . . ?
C11 C1 C3 C4 -39(2) . . . . ?
C11 C1 C9 C6 -38(9) . . . . ?
C11 C1 C9 C7 149(6) . . . . ?
C11 C1 C21 C22 146.3(3) . . . . ?
C11 C1 C21 C26 -38.5(3) . . . . ?
C11 C12 C13 C14 178.1(3) . . . . ?
C11 C12 C13 C18 1.7(3) . . . . ?
C12 C13 C14 C15 -176.5(3) . . . . ?
C12 C13 C18 N1 -2.7(3) . . . . ?
C12 C13 C18 C17 175.7(3) . . . . ?
C13 C14 C15 C16 2.0(4) . . . . ?
C14 C13 C18 N1 -179.7(2) . . . . ?
C14 C13 C18 C17 -1.4(4) . . . . ?
C14 C15 C16 C17 -1.9(4) . . . . ?
C15 C16 C17 C18 0.2(4) . . . . ?
C16 C17 C18 N1 179.4(3) . . . . ?
C16 C17 C18 C13 1.5(4) . . . . ?
C18 N1 C11 C1 -178.6(2) . . . . ?
C18 N1 C11 C12 -1.6(3) . . . . ?
C18 C13 C14 C15 -0.4(4) . . . . ?
C19 C12 C13 C14 0.7(5) . . . . ?
C19 C12 C13 C18 -175.8(3) . . . . ?
C21 C1 C3 C2 -93.1(18) . . . . ?
C21 C1 C3 C4 90(2) . . . . ?
C21 C1 C9 C6 89(8) . . . . ?
C21 C1 C9 C7 -84(7) . . . . ?
C21 C1 C11 N1 -39.9(3) . . . . ?
C21 C1 C11 C12 143.6(3) . . . . ?
C21 C22 C23 C24 0.1(5) . . . . ?
C22 C21 C26 C25 -0.8(4) . . . . ?
C22 C23 C24 C25 -1.1(5) . . . . ?
C23 C24 C25 C26 1.1(5) . . . . ?
C24 C25 C26 C21 -0.2(4) . . . . ?
C26 C21 C22 C23 0.8(4) . . . . ?
S1A C2A C3A C1A -176.7(2) . . . . ?
S1A C2A C3A C4A 0.1(3) . . . . ?
N1A C11A C12A C13A 0.6(3) . . . . ?
N1A C11A C12A C19A -177.4(2) . . . . ?
C1A C3A C4A C5A 176.9(3) . . . . ?
C1A C11A C12A C13A -174.5(3) . . . . ?
C1A C11A C12A C19A 7.5(5) . . . . ?
C1A C21A C22A C23A -179.9(2) . . . . ?
C1A C21A C26A C25A 179.7(3) . . . . ?
C2A S1A C5A C4A 0.0(2) . . . . ?
C2A C3A C4A C5A -0.1(3) . . . . ?
C3A C1A C11A N1A 36.9(3) . . . . ?
C3A C1A C11A C12A -148.5(3) . . . . ?
C3A C1A C21A C22A -101.7(3) . . . . ?
C3A C1A C21A C26A 78.9(3) . . . . ?
C3A C4A C5A S1A 0.0(3) . . . . ?
C5A S1A C2A C3A -0.1(2) . . . . ?
C11A N1A C18A C13A -0.6(3) . . . . ?
C11A N1A C18A C17A 179.1(3) . . . . ?
C11A C1A C3A C2A -133.6(3) . . . . ?
C11A C1A C3A C4A 49.8(3) . . . . ?
C11A C1A C21A C22A 25.9(4) . . . . ?
C11A C1A C21A C26A -153.5(3) . . . . ?
C11A C12A C13A C14A 178.5(3) . . . . ?
C11A C12A C13A C18A -1.0(3) . . . . ?
C12A C13A C14A C15A -179.9(3) . . . . ?
C12A C13A C18A N1A 0.9(3) . . . . ?
C12A C13A C18A C17A -178.8(3) . . . . ?
C13A C14A C15A C16A -0.6(4) . . . . ?
C14A C13A C18A N1A -178.6(2) . . . . ?
C14A C13A C18A C17A 1.7(4) . . . . ?
C14A C15A C16A C17A 0.7(4) . . . . ?
C15A C16A C17A C18A 0.4(4) . . . . ?
C16A C17A C18A N1A 178.8(3) . . . . ?
C16A C17A C18A C13A -1.6(4) . . . . ?
C18A N1A C11A C1A 175.5(2) . . . . ?
C18A N1A C11A C12A 0.0(3) . . . . ?
C18A C13A C14A C15A -0.5(4) . . . . ?
C19A C12A C13A C14A -3.5(5) . . . . ?
C19A C12A C13A C18A 177.0(3) . . . . ?
C21A C1A C3A C2A -6.0(4) . . . . ?
C21A C1A C3A C4A 177.5(3) . . . . ?
C21A C1A C11A N1A -91.2(3) . . . . ?
C21A C1A C11A C12A 83.4(3) . . . . ?
C21A C22A C23A C24A 0.6(4) . . . . ?
C22A C21A C26A C25A 0.3(4) . . . . ?
C22A C23A C24A C25A -0.5(4) . . . . ?
C23A C24A C25A C26A 0.3(5) . . . . ?
C24A C25A C26A C21A -0.2(5) . . . . ?
C26A C21A C22A C23A -0.5(4) . . . . ?
