#------------------------------------------------------------------------------
#$Date: 2022-02-02 12:52:53 +0200 (Wed, 02 Feb 2022) $
#$Revision: 272428 $
#$URL: file:///home/coder/svn-repositories/cod/cif/1/56/62/1566265.cif $
#------------------------------------------------------------------------------
#
# This file is available in the Crystallography Open Database (COD),
# http://www.crystallography.net/
#
# All data on this site have been placed in the public domain by the
# contributors.
#
data_1566265
loop_
_publ_author_name
'Anthony R. Kampf'
'Anatoly V. Kasatkin'
'Jiri Cejka'
'Joe Marty'
_publ_section_title
;
 Plasilite, Na(UO2)(SO4)(OH) . 2H2O, a new uranyl sulfate mineral from the
 Blue Lizard mine, San Juan County, Utah, USA
;
_journal_name_full               'Journal of GeoSciences'
_journal_page_first              1
_journal_page_last               10
_journal_paper_doi               10.3190/jgeosci.184
_journal_volume                  60
_journal_year                    2015
_chemical_compound_source        'Blue Lizard mine, Utah'
_chemical_formula_sum            'H4 Na O9 S U'
_chemical_formula_weight         441.11
_chemical_name_mineral           plasilite
_space_group_crystal_system      monoclinic
_space_group_IT_number           14
_space_group_name_Hall           '-P 2ybc'
_space_group_name_H-M_alt        'P 1 21/c 1'
_atom_sites_solution_hydrogens   difmap
_cell_angle_alpha                90
_cell_angle_beta                 112.126(8)
_cell_angle_gamma                90
_cell_formula_units_Z            4
_cell_length_a                   8.7122(6)
_cell_length_b                   13.8368(4)
_cell_length_c                   7.04650(17)
_cell_volume                     786.89(8)
_computing_structure_refinement  'SHELXL-2013 (Sheldrick, 2013)'
_diffrn_ambient_temperature      293(2)
_diffrn_measured_fraction_theta_full 0.993
_diffrn_measured_fraction_theta_max 0.994
_diffrn_radiation_monochromator  graphite
_diffrn_radiation_type           MoK\a
_diffrn_radiation_wavelength     0.71075
_diffrn_reflns_av_R_equivalents  0.0295
_diffrn_reflns_av_unetI/netI     0.0250
_diffrn_reflns_Laue_measured_fraction_full 0.993
_diffrn_reflns_Laue_measured_fraction_max 0.994
_diffrn_reflns_limit_h_max       11
_diffrn_reflns_limit_h_min       -11
_diffrn_reflns_limit_k_max       17
_diffrn_reflns_limit_k_min       -15
_diffrn_reflns_limit_l_max       9
_diffrn_reflns_limit_l_min       -7
_diffrn_reflns_number            7709
_diffrn_reflns_point_group_measured_fraction_full 0.993
_diffrn_reflns_point_group_measured_fraction_max 0.994
_diffrn_reflns_theta_full        25.242
_diffrn_reflns_theta_max         27.477
_diffrn_reflns_theta_min         3.451
_diffrn_source                   'fine-focus sealed tube'
_exptl_absorpt_coefficient_mu    20.965
_exptl_absorpt_correction_type   multi-scan
_exptl_absorpt_process_details   Higashi2001
_exptl_crystal_density_diffrn    3.723
_exptl_crystal_F_000             780
_exptl_crystal_size_max          0.080
_exptl_crystal_size_mid          0.020
_exptl_crystal_size_min          0.005
_refine_diff_density_max         3.067
_refine_diff_density_min         -0.696
_refine_diff_density_rms         0.195
_refine_ls_extinction_coef       .
_refine_ls_extinction_method     none
_refine_ls_goodness_of_fit_ref   1.081
_refine_ls_hydrogen_treatment    refxyz
_refine_ls_matrix_type           full
_refine_ls_number_parameters     124
_refine_ls_number_reflns         1794
_refine_ls_number_restraints     7
_refine_ls_restrained_S_all      1.080
_refine_ls_R_factor_all          0.0231
_refine_ls_R_factor_gt           0.0194
_refine_ls_shift/su_max          0.000
_refine_ls_shift/su_mean         0.000
_refine_ls_structure_factor_coef Fsqd
_refine_ls_weighting_details
'w=1/[\s^2^(Fo^2^)+(0.0260P)^2^+0.4537P] where P=(Fo^2^+2Fc^2^)/3'
_refine_ls_weighting_scheme      calc
_refine_ls_wR_factor_gt          0.0446
_refine_ls_wR_factor_ref         0.0462
_reflns_Friedel_coverage         0.000
_reflns_Friedel_fraction_full    .
_reflns_Friedel_fraction_max     .
_reflns_number_gt                1609
_reflns_number_total             1794
_reflns_threshold_expression     'I > 2\s(I)'
_cod_data_source_file            jgeosci.184_kampf_supplementary_plasilite.cif
_cod_data_source_block           plasilite
_cod_original_cell_volume        786.89(7)
_cod_original_sg_symbol_H-M      'P 21/c'
_cod_database_code               1566265
_shelx_space_group_comment
;
The symmetry employed for this shelxl refinement is uniquely defined
by the following loop, which should always be used as a source of
symmetry information in preference to the above space-group names.
They are only intended as comments.
;
_shelx_estimated_absorpt_t_min   0.285
_shelx_estimated_absorpt_t_max   0.902
_shelxl_version_number           2013-4
_shelx_res_file
;
TITL JM-12507
CELL  0.71075 8.71216 13.83680 7.04650 90.000 112.126 90.000
ZERR  4 0.00061 0.00037 0.00017 0.000 0.008 0.000
LATT 1
SYMM    -X, .50+Y, .50-Z
SFAC U S NA O H
UNIT 4 4 4 36 16
L.S. 5
omit -1 0 2
omit -5 2 8
omit 3 2 0
omit -2 9 5
omit -3 2 1
omit -1 2 2
omit 3 0 0
FMAP 2
PLAN 8
EQIV $1 x, -y+1/2, z+1/2
EQIV $2 -x, -y+1, -z+1
EQIV $3 x, y, z-1
EQIV $4 x, -y+1/2, z-1/2
HTAB OH7 O1_$2
HTAB OW8 O5_$1
HTAB OW8 OH7_$2
HTAB OW9 O4_$3
HTAB OW9 O2_$4
ACTA
DFIX 0.82 0.03 OH7 H7 OW8 H8a OW8 H8b OW9 H9a OW9 H9b
DFIX 1.30 0.03 H8a H8b H9a H9b
SIZE 0.080 0.020 0.005
WGHT    0.026000    0.453700
FVAR       0.28021
U     1    0.234172    0.467149    0.122185    11.00000    0.00812    0.01565 =
         0.00985   -0.00007    0.00306   -0.00043
S     2    0.320421    0.502891    0.667579    11.00000    0.00887    0.01731 =
         0.00974    0.00130    0.00327    0.00107
NA    3    0.279267    0.730849    0.658370    11.00000    0.04014    0.02505 =
         0.02722   -0.00346    0.01357   -0.00618
O1    4    0.179631    0.568406    0.613870    11.00000    0.01071    0.02221 =
         0.02305    0.00325    0.00622    0.00383
O2    4    0.312421    0.441889    0.491450    11.00000    0.02609    0.02383 =
         0.01041   -0.00042    0.00555    0.00397
O3    4    0.473582    0.562288    0.733388    11.00000    0.00764    0.02415 =
         0.02084    0.00254    0.00180   -0.00118
O4    4    0.324246    0.436753    0.836570    11.00000    0.02362    0.02072 =
         0.00987    0.00466    0.00903    0.00648
O5    4    0.193259    0.341040    0.116812    11.00000    0.02363    0.02041 =
         0.02292   -0.00318    0.00693   -0.00724
O6    4    0.285638    0.592086    0.132473    11.00000    0.01787    0.01860 =
         0.03093   -0.00061    0.00924    0.00147
OH7   4   -0.000847    0.511348    0.178468    11.00000    0.01198    0.04769 =
         0.01275    0.00477    0.00528    0.00568
H7    5   -0.001641    0.482816    0.276158    11.00000   -1.20000
OW8   4   -0.079675    0.271562    0.691690    11.00000    0.02807    0.03444 =
         0.03550   -0.00047    0.01212    0.00404
H8A   5    0.005529    0.242243    0.701938    11.00000   -1.20000
H8B   5   -0.044067    0.328403    0.719317    11.00000   -1.20000
OW9   4    0.518562    0.250282    0.002546    11.00000    0.03299    0.02719 =
         0.03437   -0.00757    0.01154   -0.00212
H9A   5    0.474555    0.295954   -0.062800    11.00000   -1.20000
H9B   5    0.448395    0.209852   -0.020092    11.00000   -1.20000
HKLF 4

REM  JM-12507
REM R1 =  0.0194 for    1609 Fo > 4sig(Fo)  and  0.0231 for all    1794 data
REM    124 parameters refined using      7 restraints

END

WGHT      0.0260      0.4537

REM Highest difference peak  3.067,  deepest hole -0.696,  1-sigma level  0.195
Q1    1   0.2380  0.4645 -0.0015  11.00000  0.05    3.07
Q2    1   0.2256  0.4680  0.2570  11.00000  0.05    2.21
Q3    1   0.2284  0.4655  0.8852  11.00000  0.05    1.23
Q4    1   0.3507  0.4707  0.1457  11.00000  0.05    0.70
Q5    1   0.3162  0.4983  0.5099  11.00000  0.05    0.64
Q6    1   0.2380  0.5251  0.1217  11.00000  0.05    0.63
Q7    1   0.1212  0.4743  0.0509  11.00000  0.05    0.61
Q8    1   0.2308  0.4182  0.1345  11.00000  0.05    0.60
;
_shelx_res_checksum              83470
_shelx_hkl_file
;
   0   0  -1    3.74    0.84
   0   0   1    0.84    1.19
   0   0   1    0.39    0.59
  -1   0   1    0.73    0.66
   1   0  -1    0.24    1.20
   0  -1   1 3301.04   65.59
   0   1   1 2852.77   63.01
   0   1  -1 3168.86   63.73
   0  -1   1 3381.50   68.24
   0   1  -1 3186.39   63.59
   1  -1  -1 3224.28   70.82
  -1   1   1 3030.76   67.30
   1  -1  -1 3507.15   73.49
  -1   1   1 3308.01   68.65
   1   1  -1 3448.24   68.06
  -1  -1   1 3602.01   70.74
   1  -2   0   12.83    1.64
   1   2   0   13.77    1.33
  -1   2   0   12.99    1.59
  -1   2   0   11.84    1.48
  -1  -2   0   11.62    1.29
   1  -2   0   10.35    1.50
   0  -2   1  771.95   11.67
   0   2  -1  774.13   12.68
   0   2  -1  748.30   11.92
  -1   2   1  806.02   13.48
   1  -2  -1  781.71   14.49
  -1   2   1  854.03   15.13
   1  -2  -1  860.51   14.06
  -1  -2   1  863.22   11.95
   0   3   0    0.60    1.40
  -1   0  -1    2.15    1.51
   1   0   1    0.77    1.50
   1   0   1   -1.14    1.47
  -2   0   1    0.26    1.49
   2   0  -1    2.20    2.24
  -1  -1  -1  868.41   16.93
  -1   1  -1  899.16   17.88
   1   1   1  839.91   16.77
   1  -1   1  883.08   17.80
   1  -1   1  906.37   16.72
  -1   1  -1  852.17   15.87
   2   0   0 8288.02  294.18
  -2   0   011433.44  386.60
   2   0   010668.28  364.72
  -2   1   1  688.85   13.89
   2  -1  -1  600.48   12.21
   2   1  -1  594.83   11.56
   2  -1  -1  661.83   13.23
  -2  -1   1  628.95   14.33
  -2   1   1  648.83   12.75
  -1  -3   0 3808.34   85.95
   1  -3   0 3513.30   85.08
  -1   3   0 3459.99   83.69
  -1   3   0 3624.58   84.74
   1  -3   0 3569.73   83.27
   1   3   0 3777.49   85.65
   2  -1   0    6.50    2.58
   2  -1   0    6.28    4.17
   2   1   0    8.56    2.45
  -2  -1   0    4.10    2.41
  -2   1   0    6.52    2.69
  -2   1   0    9.55    2.35
   0   3  -1 1341.42   25.78
   0  -3   1 1327.25   21.32
   0   3  -1 1379.10   23.69
   1  -3  -1 1404.93   26.91
   1  -3  -1 1437.08   28.23
   1   3  -1 1386.06   20.49
  -1   3   1 1379.03   27.47
  -1   3   1 1345.97   26.07
   1   2   1  812.93   16.16
  -1   2  -1  761.79   16.74
   1  -2   1  788.77   16.99
  -1  -2  -1  710.23   14.77
  -1   2  -1  792.27   15.11
   1  -2   1  796.74   16.69
  -2  -2   1 1197.44   23.95
   2  -2  -1 1218.74   24.66
   2   2  -1 1210.45   24.24
   2  -2  -1 1212.30   25.03
  -2   2   1 1257.54   28.51
  -2   2   1 1226.07   24.79
   1   0  -2   -0.01    0.23
  -2  -2   0 7642.78  228.24
  -2   2   0 7796.79  236.75
   2  -2   0 7007.10  220.46
  -2   2   0 6726.97  211.78
   2  -2   0 6564.85  204.47
   2   2   0 7248.05  219.18
   0   4   0 9117.32  282.28
  -1   1   2    8.08    0.46
   0   0   2  183.11    4.21
   0   0  -2  181.26    4.59
   2   0  -2   36.37    2.08
   2   0  -2   43.14    3.33
  -2   0   2   34.95    2.16
   1  -4   0    3.66    1.46
  -1   4   0    3.43    1.97
   1   4   0    4.24    2.12
  -1   4   0    3.32    1.51
   1  -4   0    5.06    2.02
   0   1  -2   62.09    3.62
   0  -1   2   58.69    1.53
   0  -1   2   54.88    2.30
   0   1  -2   59.53    1.59
   0   1   2   62.64    3.10
   1  -3   1  296.29    6.83
  -1   3  -1  307.06    8.04
  -1  -3  -1  315.62    7.35
  -1   3  -1  310.85    7.02
   1  -3   1  312.01    7.16
   1   3   1  300.41    9.72
  -1  -2   2 9445.07  284.64
  -1   2   2 9654.05  291.98
  -2   3   1  368.81    8.41
   2  -3  -1  373.17    8.82
   2  -3  -1  406.38    8.73
  -2   3   1  366.02    8.86
   2   3  -1  367.87    7.96
  -2  -3   1  391.23    6.97
  -2  -1   2   38.62    1.61
  -2   1   2   34.55    2.44
   2  -1  -2   37.31    2.56
   2  -1  -2   40.31    1.77
  -2   1   2   37.18    2.15
   2   1  -2   34.28    1.82
   0   4  -1 1381.76   31.44
   0   4  -1 1440.69   25.11
   0  -4   1 1406.49   23.68
  -1   4   1  949.35   18.88
   1   4  -1  868.58   12.50
  -1   4   1  965.99   19.06
  -2   3   0   -1.75    3.50
   2  -3   0    6.65    3.29
   2  -3   0    4.80    2.21
  -2  -3   0    4.81    1.87
  -2   3   0    3.27    3.52
   2   3   0    4.80    1.94
   2   0   1    0.81    2.56
   2   0   1    7.06    2.45
  -2   0  -1   -0.74    2.56
   0  -2   2   78.26    3.18
   0   2   2   81.16    3.66
   0  -2   2   73.57    2.52
   0   2  -2   75.46    2.37
   0   2  -2   77.77    3.16
  -2   1  -1 4904.27  140.30
  -2  -1  -1 4988.93  147.63
   2  -1   1 5047.80  148.45
  -2   1  -1 4983.47  146.66
   2   1   1 4954.37  141.10
   2  -1   1 4922.60  145.13
  -3   0   1   -1.31    2.12
   3   0  -1   -0.39    2.40
   3   0  -1    0.63    2.18
   2  -2  -2    1.53    2.03
   2  -2  -2    3.56    1.27
  -2   2   2    5.59    1.40
  -2  -2   2    6.06    0.89
   2   2  -2    5.10    1.40
  -2   2   2    5.62    2.01
   3  -1  -1 4782.61  139.78
   3   1  -1 4880.85  141.99
  -3   1   1 4995.55  141.27
  -3  -1   1 4990.14  144.07
   3  -1  -1 4771.48  135.85
  -1  -3   2    1.45    0.53
  -1   3   2    0.82    1.06
  -1  -3   2    0.84    0.61
   0   5   0    0.47    1.92
  -2   2  -1   45.14    3.44
  -2  -2  -1   45.71    3.54
   2  -2   1   47.28    3.52
   2   2   1   44.04    3.75
  -2   2  -1   57.01    4.52
   2  -2   1   48.04    6.31
  -1   4  -1 1265.62   27.19
   1  -4   1 1223.85   24.62
   1  -4   1 1260.03   26.94
  -1   4  -1 1288.62   27.50
   1   4   1 1264.13   27.41
  -1   0  -213366.07  494.26
   1   0   212835.59  475.40
   1   0   211381.48  420.11
   3   0   0   58.49    5.36
   3   0   0   46.98    4.79
  -3   0   0   47.84    4.98
   3   2  -1   23.31    3.34
   3  -2  -1   16.47    3.14
  -3  -2   1   37.06    3.26
  -3   2   1   25.15    5.06
  -3   2   1   22.71    3.20
   3  -2  -1   21.25    3.10
   2  -4  -1 1186.82   25.58
  -2   4   1 1152.77   24.92
   2   4  -1 1118.08   21.43
  -2   4   1 1172.16   25.28
  -2  -4   1 1184.49   21.06
   2  -4  -1 1190.53   25.49
   0  -3   2  699.71   12.76
   0   3   2  709.34   15.78
   0   3  -2  755.76   14.01
   0   3  -2  719.27   12.00
   1   1   2  319.52    8.57
   1  -1   2  324.25    8.29
   1  -1   2  327.05    6.74
  -1  -1  -2  327.99   11.13
  -1   1  -2  316.59    7.04
  -1   1  -2  302.64    7.80
   3   1   0  295.00   10.33
   3  -1   0  313.94   10.40
  -3  -1   0  303.30   10.08
  -3   1   0  333.63   11.15
   3  -1   0  339.57   14.95
  -2   4   0 1789.66   44.31
   2  -4   0 1753.53   39.55
   2   4   0 1756.51   38.54
   2  -4   0 1766.39   40.93
  -2   4   0 1784.29   41.19
  -2  -4   0 1784.90   38.59
  -2  -3   2 1105.48   18.15
  -2   3   2 1118.38   24.03
   2  -3  -2 1120.99   24.45
   2  -3  -2 1082.61   21.00
   2   3  -2 1081.82   16.68
  -2   3   2 1109.05   23.82
   1   5   0 2596.45   57.05
   1  -5   0 2533.19   56.71
   1  -5   0 2546.00   61.53
  -1   5   0 2418.30   55.15
  -1   5   0 2511.06   60.36
   3   0  -212307.38  437.13
  -3   0   212451.39  443.92
   3   0  -210044.36  379.05
   3   1  -2  188.78    5.19
  -3   1   2  201.01    6.16
  -3  -1   2  201.77    5.45
   3  -1  -2  199.94    6.01
   0   5  -1  405.58    6.70
   0  -5   1  368.55    5.97
   0   5  -1  417.47   12.38
   1   5  -1  613.99    9.57
  -1   5   1  553.36   12.31
  -1   5   1  602.73   12.87
   1   5  -1  555.93    8.29
  -1   2  -2 3330.96   82.82
   1   2   2 3409.01   87.54
   1  -2   2 3255.87   78.19
   1  -2   2 3269.80   84.33
  -1  -2  -2 3360.45   86.37
  -1   2  -2 3230.51   78.54
  -3   2   0   30.71    4.18
  -3  -2   0   25.44    5.63
   3  -2   0   33.10    6.22
   3   2   0   28.16    3.81
  -3   2   0   42.97    3.94
   3  -2   0   24.86    3.99
  -2   3  -1 2022.11   51.32
   2  -3   1 1988.51   54.23
   2  -3   1 1958.87   46.39
  -2  -3  -1 2017.44   52.02
  -2   3  -1 2001.39   58.41
   2   3   1 1975.65   47.09
  -1   4   2 1891.56   44.55
  -1   4   2 2017.65   42.09
   3  -3  -1 2647.42   66.68
  -3   3   1 2742.52   68.74
  -3   3   1 2530.42   64.34
   3  -3  -1 2572.35   68.76
   3   3  -1 2673.77   68.74
  -3  -3   1 2629.21   64.64
   3  -2  -2 2747.82   68.61
  -3  -2   2 2868.88   67.53
  -3   2   2 2966.27   73.03
   3  -2  -2 2744.00   67.99
   3   2  -2 2820.98   67.77
  -3   2   2 2763.38   68.71
   0  -4   2   64.09    3.01
   0   4  -2   65.31    3.02
   0   4   2   70.33    3.87
   0   4  -2   59.58    1.88
   2  -4  -2    1.26    2.15
  -2  -4   2    0.97    0.57
   2  -4  -2    0.35    1.56
  -2   4   2    2.49    2.24
  -2   4   2    1.61    1.67
   2   4  -2    1.68    0.50
  -1   0   3   -2.48    1.66
  -1   5  -1   44.53    3.57
   1   5   1   49.41    3.19
   1  -5   1   42.10    3.52
   1  -5   1   49.02    3.54
  -1   5  -1   40.95    3.94
  -1  -3  -2   11.37    2.83
   1   3   2    7.51    2.77
  -1   3  -2   10.07    2.03
   1  -3   2    9.33    2.50
   1  -3   2    9.02    1.98
  -1   3  -2    5.51    2.17
   3   3   0 1645.69   40.55
  -3  -3   0 1627.39   39.80
   3  -3   0 1674.20   42.14
   3  -3   0 1746.00   48.46
  -3   3   0 1725.05   47.89
  -3   3   0 1677.99   41.34
  -2   0   3    1.50    1.43
   2   0  -3    1.29    1.00
   2  -5  -1   15.78    2.64
   2  -5  -1   14.90    4.02
  -2  -5   1   11.44    1.28
   2   5  -1   13.44    1.48
  -2   5   1   12.50    2.65
  -2   5   1   19.18    2.69
   0   6   0   67.62    2.85
   1   1  -3 1931.02   33.47
  -1  -1   3 1995.83   46.01
  -1   1   3 2030.42   46.91
   2  -5   0    4.13    4.11
  -2   5   0    5.42    2.37
   2   5   0    3.35    1.96
  -2  -5   0    2.36    1.85
   2  -5   0    5.60    2.14
  -2   5   0    9.90    2.61
  -2  -1   3 2317.49   50.53
   2  -1  -3 2383.29   44.77
  -2   1   3 2445.75   56.73
  -3   3   2  167.18    5.54
   3   3  -2  175.98    4.13
  -3   3   2  166.45    6.05
   3  -3  -2  174.96    6.28
  -3  -3   2  182.24    4.89
   3  -3  -2  161.81    5.32
  -2   4  -1  126.24    6.17
  -2   4  -1  130.24    5.43
   2  -4   1  131.27    5.24
  -2  -4  -1  131.99    5.34
   2  -4   1  129.18    5.47
   2   4   1  128.50    5.34
   3   4  -1   54.18    3.60
  -3  -4   1   41.72    2.92
   3  -4  -1   56.87    4.02
  -3   4   1   54.07    3.81
  -3   4   1   39.45    3.89
   3  -4  -1   40.96    3.88
  -1   6   0  177.10    6.36
  -1   6   0  172.53    4.99
   1   6   0  175.98    4.61
   1  -6   0  187.68    4.97
  -3   0  -1    4.52    3.19
   3   0   1    1.41    2.87
   3   0   1   -2.62    3.11
   1   2  -3 1599.21   28.99
  -1   2   3 1623.13   26.89
  -1  -2   3 1590.29   31.63
   2  -2  -3  544.72    8.25
  -2   2   3  557.74    9.06
  -2  -2   3  539.06    9.48
   3  -1   1  977.95   26.78
   3   1   1  989.97   25.95
  -3   1  -1  983.11   28.06
   3  -1   1 1005.52   25.96
  -3  -1  -1  968.69   25.42
  -1   5   2    0.21    1.54
  -1   5   2   -0.13    2.13
   0   0   3   -0.98    1.73
   0   6  -1 2463.42   64.20
   0   6  -1 2438.74   51.08
   0  -6   1 2286.88   47.69
   4   0  -1    0.85    3.37
  -4   0   1    2.96    3.31
   4   0  -1    7.68    3.37
   2   0   2  230.66    8.12
  -2   0  -2  234.76    8.08
   2   0   2  243.29    7.75
   1   6  -1 2930.90   62.32
  -1   6   1 2993.11   80.27
   1   6  -1 3087.66   66.75
  -1   6   1 2967.87   79.09
   0   1   3 2391.26   58.76
   0   1  -3 2449.48   56.96
   0   1   3 2432.09   48.04
   0  -1   3 2319.72   54.81
   0  -1   3 2411.11   48.79
   0   1  -3 2452.48   50.42
   4   1  -1  670.86   19.89
  -4  -1   1  717.59   20.05
   4  -1  -1  716.63   20.06
   4  -1  -1  757.64   20.95
  -4   1   1  695.16   19.13
   2  -1   2   15.19    2.73
   2   1   2   14.44    3.11
  -2   1  -2   12.57    4.73
  -2  -1  -2   13.76    3.30
   2  -1   2   18.43    3.36
   2   1   2    8.23    3.32
   3   0  -3    0.11    1.43
   3   0  -3    1.02    1.67
  -3   0   3    0.29    1.64
  -1   4  -2 3753.99   98.40
   1  -4   2 3480.68   91.68
  -1   4  -2 3574.64   94.55
   1  -4   2 3751.71   96.76
   1   4   2 3526.10   96.22
   3  -4   0   25.17    3.62
  -3   4   0   24.02    3.65
  -3   4   0   26.03    3.58
   3   4   0   14.97    3.23
  -3  -4   0   14.72    2.98
   3  -4   0   19.27    5.14
   0  -5   2 1277.16   22.27
   0   5  -2 1233.79   27.72
   0   5   2 1401.84   32.27
   0   5  -2 1282.54   25.16
   4   0  -2  794.45   19.31
  -4   0   2  817.76   19.82
   4   0  -2  825.19   21.28
  -3   2  -1 1518.49   42.50
   3  -2   1 1498.35   37.77
   3   2   1 1441.55   37.17
  -3   2  -1 1523.16   38.18
   3  -2   1 1403.26   38.95
  -3  -2  -1 1472.40   37.89
  -3  -1   3 1879.97   40.71
   3  -1  -3 1830.70   40.46
   3  -1  -3 1926.08   48.29
   3   1  -3 1831.14   39.99
  -3   1   3 1838.64   42.85
   2  -5  -2 1480.65   33.50
  -2   5   2 1523.37   34.12
  -2   5   2 1606.35   37.92
  -3  -4   2 3975.14   99.17
   3  -4  -2 3891.64  107.84
   3  -4  -2 4142.33  115.27
   3   4  -2 3938.80   98.10
  -3   4   2 4003.90  110.14
  -3   4   2 4165.80  115.61
   4   1  -2    5.26    2.69
   4  -1  -2   11.88    4.95
   4  -1  -2    4.25    4.42
  -4   1   2    8.67    2.99
  -4  -1   2   14.67    2.81
   1   3  -3  624.37   11.29
  -1   3   3  635.14   10.16
  -1  -3   3  621.75   10.76
   0  -2   3  510.12   10.22
   0   2  -3  506.81   10.58
   0  -2   3  520.38   10.87
   0   2  -3  515.86    9.31
   0   2   3  528.08   13.04
  -4  -2   1 1437.41   38.40
   4  -2  -1 1464.82   38.77
  -4   2   1 1481.44   38.36
  -4   2   1 1506.62   39.07
   4  -2  -1 1473.05   38.11
   4   2  -1 1368.53   37.88
  -2   2  -2  691.12   17.89
  -2   2  -2  666.72   16.21
  -2  -2  -2  703.25   18.07
   2  -2   2  656.45   17.97
   2  -2   2  692.40   19.19
   2   2   2  670.00   17.23
  -2   3   3  943.73   17.12
  -2  -3   3  946.55   15.57
  -2   3   3  972.34   22.48
  -1   6  -1 2220.49   54.17
   1   6   1 2186.24   53.19
   1  -6   1 2145.84   50.31
  -1   6  -1 2184.02   54.46
  -3  -2   3  759.15   14.63
  -3   2   3  796.25   21.74
   3   2  -3  772.05   14.64
  -3   2   3  790.98   16.40
   3  -2  -3  758.43   16.38
   3  -2  -3  803.92   18.82
   2   5   1 1083.25   25.91
  -2  -5  -1 1159.26   27.13
  -2   5  -1 1122.09   28.21
   2  -5   1 1137.86   27.29
  -2   5  -1 1163.57   27.68
   2  -5   1 1162.06   26.71
  -2   6   1 3158.04   84.65
   2  -6  -1 3263.92   87.15
   2  -6  -1 3290.46   86.08
  -2   6   1 3305.73   87.13
   2   6  -1 3271.24   75.87
   4   0   0 6534.15  227.64
  -4   0   0 7025.65  240.20
   4   0   0 6656.15  229.10
  -4   2   2  740.26   18.84
   4  -2  -2  689.64   17.77
   4   2  -2  672.26   16.61
  -4  -2   2  711.45   17.91
  -4   2   2  756.16   19.23
   4  -2  -2  699.13   22.14
   3  -5  -1  877.00   21.85
  -3   5   1  881.27   21.82
  -3   5   1  926.20   22.71
  -3  -5   1  926.86   21.40
   3   5  -1  897.69   20.42
   3  -5  -1  923.07   22.70
   2  -6   0  420.35   11.66
  -2   6   0  415.77   11.38
  -2   6   0  415.85   10.38
   2  -6   0  407.60   10.16
   2   6   0  407.51    9.53
   4   1   0  156.12    8.44
  -4   1   0  146.27    8.79
   4  -1   0  171.79    9.20
   4  -1   0  160.96    8.66
  -4  -1   0  152.49    8.49
   3  -3   1  668.50   17.83
   3   3   1  671.17   18.27
  -3  -3  -1  685.46   18.42
   3  -3   1  688.79   24.33
  -3   3  -1  689.43   20.60
  -3   3  -1  698.44   18.28
   0   7   0   -1.37    2.35
   0   7   0    0.35    1.53
   0   3  -3 1179.01   23.48
   0  -3   3 1161.76   24.39
   0   3  -3 1152.84   23.02
   0   3   3 1181.49   28.85
  -4   3   1  338.16   15.50
  -4  -3   1  373.64   15.04
  -4   3   1  359.76   12.01
   4  -3  -1  364.19   11.99
   4  -3  -1  379.65   12.11
   4   3  -1  365.52   12.13
   2  -3   2 1826.18   44.03
  -2   3  -2 1812.74   44.89
  -2  -3  -2 1948.25   48.49
   2  -3   2 1811.09   48.74
  -2   3  -2 1857.44   49.42
   2   3   2 1779.17   45.69
  -4  -2   0 3159.49   90.97
  -4   2   0 3137.92   90.53
   4  -2   0 3233.22   93.85
   4  -2   0 2841.14   92.21
   4   2   0 3040.33   89.77
  -4   2   0 3139.35   92.71
   1   4  -3 1822.31   39.36
  -1   4   3 1843.49   37.43
  -1  -4   3 1864.71   35.39
  -3   3   3  741.67   18.34
  -3  -3   3  746.67   13.57
  -3   3   3  735.00   17.44
   3  -3  -3  710.38   14.28
   3  -3  -3  727.48   17.95
   3   3  -3  726.33   12.79
  -1   5  -2  254.30    7.45
  -1   5  -2  222.75    9.75
   1  -5   2  228.29    6.19
   1   5   2  240.73    8.20
   1  -5   2  238.50    7.25
  -1   6   2  713.16   16.15
  -1   6   2  745.54   21.77
   3   5   0 3179.24   84.30
   3  -5   0 3096.60   83.52
  -3  -5   0 3162.96   86.42
  -3   5   0 3214.16   88.68
  -3   5   0 3068.50   85.21
   3  -5   0 3057.38   85.12
  -1   0  -3    2.21    2.53
   1   0   3    1.82    2.39
   1   0   3    1.76    2.31
  -2   4   3 1606.45   38.18
  -2   4   3 1493.75   30.44
  -2  -4   3 1483.29   23.96
  -2  -4   3 1485.59   24.32
   1   7   0 6251.76  184.31
   1  -7   0 6260.56  188.19
  -1   7   0 6066.28  192.81
  -1   7   0 6385.16  191.30
   4  -3  -2 1931.89   49.90
   4  -3  -2 1947.08   50.27
  -4  -3   2 1923.48   47.98
  -4   3   2 1956.25   49.82
  -4   3   2 1965.48   50.44
   4   3  -2 1937.22   47.93
  -1  -1  -3 3458.07   94.64
   1  -1   3 3406.47   91.96
   1   1   3 3464.99   95.21
   1   1   3 3327.03   83.68
   1  -1   3 3408.96   82.91
  -1   1  -3 3559.82   94.80
   3  -5  -2  222.14    7.93
  -3  -5   2  232.45    4.45
  -3   5   2  229.75    8.21
   3  -5  -2  227.32    7.21
   3   5  -2  218.92    6.48
  -3   5   2  226.15    7.24
   0   7  -1  172.12    6.66
   0   7  -1  170.80    5.16
   0   7   1  160.40    5.94
   1   7  -1  192.58    3.96
  -1   7   1  197.13    9.65
   1   7  -1  203.10    4.02
  -1   7   1  200.92    6.80
   0   6   2   21.61    3.27
   0  -6   2   18.18    1.74
   0   6  -2   24.90    2.94
   0   6  -2   13.24    2.84
   4   0  -3    1.68    2.22
  -4   0   3    1.68    2.13
   4   0  -3   -3.71    3.28
  -2   6   2    7.55    2.91
  -2   6   2    5.36    2.39
  -3   4  -1 2647.10   76.28
  -3  -4  -1 2661.77   71.85
   3  -4   1 2664.94   71.64
  -3   4  -1 2657.12   78.08
   3  -4   1 2604.52   73.56
   3   4   1 2491.46   68.22
   1  -2   3  321.15    9.09
  -1  -2  -3  342.62   10.48
   1   2   3  322.47   10.09
   1  -2   3  334.41   12.16
  -1   2  -3  333.87    9.02
  -1   2  -3  329.03    7.93
   4  -1  -3 3885.79  108.02
  -4   1   3 4002.03  111.85
   4  -1  -3 3895.82  108.94
   4   1  -3 3848.40  103.67
  -4  -1   3 4010.80  108.89
   4  -3   0   16.21    4.30
  -4  -3   0   10.77    3.69
  -4   3   0   14.59    3.88
   4   3   0   11.73    4.01
   4  -3   0   11.54    4.26
  -4   3   0   15.87    4.41
   0   4  -3  884.14   20.63
   0   4  -3  865.73   16.39
   0  -4   3  861.16   17.86
   0   4   3  850.35   21.51
   4   4  -1 2551.35   71.58
   4  -4  -1 2567.76   70.31
   4  -4  -1 2480.78   68.63
  -4  -4   1 2541.48   67.76
  -4   4   1 2492.12   68.21
  -4   4   1 2619.80   71.13
   2  -4   2   40.80    3.66
  -2   4  -2   45.71    4.80
   2   4   2   52.36    4.58
  -2  -4  -2   43.08    4.38
   2  -4   2   41.37    4.38
  -2   4  -2   52.06    5.85
   2   6   1 1223.39   29.75
  -2   6  -1 1217.19   34.07
   2  -6   1 1208.89   30.21
  -2   6  -1 1191.78   30.31
   2  -6   1 1218.33   28.12
  -2  -6  -1 1247.10   29.84
   3   4  -3 1458.22   26.71
   3  -4  -3 1398.13   35.29
  -3  -4   3 1437.26   28.51
   3  -4  -3 1406.08   30.51
  -3   4   3 1412.45   34.00
  -3   4   3 1442.40   36.04
   4  -2  -3   79.45    6.11
   4  -2  -3   79.42    7.24
  -4   2   3   75.90    4.95
  -4  -2   3   76.32    5.70
   4   2  -3   68.84    4.93
  -3  -6   1  679.78   14.44
   3  -6  -1  698.49   22.77
   3  -6  -1  708.30   22.02
  -3   6   1  717.13   18.51
  -3   6   1  702.23   18.23
   3   6  -1  695.09   15.86
  -4   4   2   17.39    3.82
   4  -4  -2   19.04    3.70
   4   4  -2   17.21    3.17
  -4  -4   2   13.86    2.82
  -4   4   2   24.83    3.49
   4  -4  -2   15.28    3.31
  -1   7  -1    2.28    1.89
   1  -7   1    2.97    1.60
   1   7   1   -0.18    2.32
  -1   7  -1    2.51    2.68
   2  -7  -1    3.89    4.04
   2   7  -1    7.67    1.45
  -2   7   1   -0.43    2.68
  -2   7   1    4.59    2.88
   2  -7  -1   -2.51    2.82
  -1   5   3  150.02    4.20
   1   5  -3  132.20    4.73
  -1  -5   3  146.64    2.14
   1  -3   3 2026.38   46.96
   1   3   3 2061.65   53.31
  -1  -3  -3 2129.35   55.97
  -1   3  -3 2045.93   47.78
  -1   3  -3 2035.98   52.13
   1  -3   3 2043.25   51.32
   2  -7   0   93.14    4.51
  -2   7   0   95.45    5.69
   2  -7   0   83.00    5.66
  -2   7   0   90.42    4.78
   2   7   0   96.42    4.21
  -2   5   3  167.08    5.02
  -2   5   3  172.93    7.20
  -3   0  -2 4474.31  138.40
   3   0   2 4287.51  132.25
   3   0   2 4297.31  133.42
  -2   0   4 9416.70  325.79
  -3  -1  -2  124.89    7.36
   3   1   2  152.89    7.17
   3  -1   2  124.16    6.60
   3  -1   2  131.63    8.03
   3   1   2  141.81    7.67
  -3   1  -2  116.90    7.54
  -1   6  -2  438.22   11.86
  -1   6  -2  429.19   15.60
   1  -6   2  419.54   10.91
   1  -6   2  432.11   11.88
   1   6   2  429.40   16.15
   3  -6   0   13.43    3.61
   3  -6   0   11.81    3.26
  -3  -6   0   11.64    2.79
   3   6   0   12.16    3.05
  -3   6   0   17.68    3.48
  -3   6   0   16.93    3.80
   4   0   1    1.85    4.56
   4   0   1    1.29    4.20
  -4   0  -1   17.80    4.58
  -2  -1   4    8.41    2.16
  -2  -1   4    6.31    3.17
  -2   1   4    6.07    2.51
   4  -4   0 2229.24   62.62
  -4   4   0 2292.05   65.14
  -4  -4   0 2250.59   61.66
   4   4   0 2177.05   66.83
   4  -4   0 2338.83   65.12
  -4   4   0 2351.91   65.00
   4  -1   1 4779.28  154.93
   4  -1   1 4849.43  159.56
   4   1   1 4653.65  161.09
   4   1   1 4947.93  161.24
  -4   1  -1 5036.49  166.58
  -4  -1  -1 4810.51  157.36
   4  -3  -3 2140.27   56.70
   4  -3  -3 2208.28   58.11
  -4  -3   3 2249.18   55.91
  -4   3   3 2211.15   55.89
  -4   3   3 2173.03   57.39
   4   3  -3 2200.80   50.13
  -1   0   4  306.79    8.41
   0   8   0    1.97    2.80
   0   8   0    1.22    1.86
  -3  -6   2  364.37    6.32
  -3   6   2  404.53   11.99
  -3   6   2  392.00   11.11
   3  -6  -2  387.94   11.82
   3  -6  -2  378.46   13.86
   3   6  -2  362.91    8.08
  -5   0   2 3379.67   98.76
   5   0  -2 3333.49  100.57
   5   0  -2 3328.72   98.08
  -3   5  -1   18.17    5.71
  -3   5  -1   24.85    6.87
  -3  -5  -1   19.49    5.68
   3   5   1   15.24    3.86
   3  -5   1   20.72    3.82
   3  -5   1   18.63    6.01
   5   0  -1    4.86    4.21
   5   0  -1    4.35    3.89
  -5   0   1   -0.07    4.10
  -1   7   2    4.86    2.90
   1   7  -2    4.10    0.65
  -1   7   2    6.65    2.45
   1   7  -2    3.67    0.55
  -3   2  -2 2532.22   75.62
  -3  -2  -2 2516.43   78.17
   3  -2   2 2628.11   76.47
   3   2   2 2571.39   72.48
  -3   2  -2 2580.85   72.58
   3  -2   2 2605.46   77.26
  -1   1   4   15.07    4.49
  -1  -1   4   18.27    2.60
  -5   1   2  100.24    6.72
  -5  -1   2  104.86    6.90
   5  -1  -2   98.50    9.74
   5  -1  -2  117.38   10.63
   5   1  -2  103.92    6.41
  -5  -1   1 5484.07  180.96
  -5   1   1 5265.89  174.98
   5  -1  -1 5209.61  175.46
   5  -1  -1 5136.07  173.13
   5   1  -1 5138.46  174.32
   0  -5   3   48.31    3.79
   0   5  -3   50.07    4.97
   0   5  -3   42.40    3.03
   0   5   3   49.59    4.59
   3   0  -4  228.35    4.11
  -3   0   4  213.96    6.38
  -4  -5   1    7.11    2.60
  -4   5   1    2.30    3.42
   4  -5  -1    8.12    3.48
   4  -5  -1    2.98    3.60
   4   5  -1    8.55    3.27
  -4   5   1    7.89    3.32
   2   5   2 1581.37   41.83
   2  -5   2 1680.18   47.55
  -2   5  -2 1657.54   41.69
   2  -5   2 1670.96   41.78
  -2  -5  -2 1641.78   43.19
  -2   5  -2 1628.22   51.57
  -2  -2   4 3002.36   71.39
   2   2  -4 2968.08   62.47
  -2   2   4 2979.85   80.30
  -2  -2   4 2968.14   70.95
  -4  -2  -1   19.81    4.97
   4   2   1   11.95    4.87
   4  -2   1   19.94    7.18
   4  -2   1   22.65    7.62
  -4   2  -1   22.37    8.19
  -3   1   4   15.60    2.69
  -3  -1   4    7.72    2.03
   3  -1  -4    9.37    1.51
  -1   8   0    6.28    3.06
  -1   8   0    3.81    2.21
   1   8   0    3.13    1.97
   0   7   2 4141.47  118.37
   0   7  -2 4092.79  115.88
   0  -7   2 3855.62   90.69
   0   7  -2 3896.61  103.56
  -3  -5   3    9.20    1.19
  -3   5   3   16.99    2.52
  -3   5   3    9.21    3.31
   3  -5  -3   16.41    2.35
   1  -4   3  649.65   17.77
   1  -4   3  656.33   16.72
  -1   4  -3  642.43   15.17
   1   4   3  652.01   18.20
  -1   4  -3  649.91   15.00
  -2   7   2 4182.81  122.28
   2   7  -2 3785.34   89.19
  -2   7   2 4350.93  134.34
   2   7  -2 4980.54  105.55
   1   2  -4   19.07    1.16
  -1   2   4   27.26    3.45
  -1  -2   4   22.66    3.70
   5  -2  -2 2138.29   61.30
  -5   2   2 2221.90   62.16
  -5  -2   2 2203.95   62.84
   5   2  -2 2212.77   63.38
   5  -2  -2 2223.88   61.72
   4  -5  -2 1476.55   44.29
   4  -5  -2 1409.97   36.39
  -4   5   2 1408.21   36.94
  -4  -5   2 1487.14   33.13
   4   5  -2 1413.32   35.65
  -4   5   2 1485.82   38.76
  -5   2   1   -1.97    3.34
  -5  -2   1    2.25    3.46
   5  -2  -1    8.08    3.63
   5  -2  -1    0.49    3.72
   5   2  -1   -7.72    3.60
   0   8  -1 1948.80   42.73
   0   8   1 2053.85   51.16
   0   8  -1 2043.01   53.56
  -2   0  -3   -4.75    4.73
   2   0   3   -0.55    3.11
   2   0   3   -0.25    3.41
   1   8  -1 1569.21   31.71
  -1   8   1 1610.33   46.17
  -1   8   1 1592.64   39.64
   1   8  -1 1642.96   33.02
  -3  -2   4   38.90    2.56
   3  -2  -4   44.15    2.28
  -3   2   4   45.57    3.91
  -2  -1  -3 1019.46   27.56
   2  -1   3 1001.44   27.19
   2   1   3 1022.20   28.41
   2  -1   3 1029.26   27.56
   2   1   3 1017.39   27.72
  -2   1  -3 1031.17   27.27
  -3  -3  -2  129.62   11.17
  -3   3  -2  144.22    6.91
  -3   3  -2  119.12    8.42
   3  -3   2  119.44    6.48
   3   3   2  115.41   10.71
   3  -3   2  133.32    7.79
   4  -4  -3  280.01    8.18
   4  -4  -3  285.00   13.57
  -4  -4   3  277.48    7.41
  -4   4   3  274.84    8.88
  -4   4   3  274.68   13.42
   4   4  -3  274.45    6.10
   2  -7   1   99.68    6.79
   2  -7   1  107.94    6.12
   2   7   1  112.81    7.90
  -2   7  -1   85.65    5.65
  -2   7  -1  119.76    6.23
   2   3  -4   81.63    2.66
  -2   3   4   87.76    2.76
  -2  -3   4   78.25    4.07
  -2  -3   4   79.60    3.86
  -2   3   4  100.05    5.46
  -1   6   3 3466.94   88.72
   1   6  -3 3328.37   89.25
  -4  -3  -1 3097.89   93.06
   4  -3   1 3252.40   96.57
   4   3   1 3157.15   94.98
  -4   3  -1 3111.97   92.74
  -4   3  -1 3166.08  100.20
   4  -3   1 3055.37   94.28
  -3   7   1  251.87    9.18
   3  -7  -1  273.99   12.99
   3   7  -1  275.87    9.44
  -3  -7   1  254.80    6.40
   3  -7  -1  278.07    9.00
  -3   7   1  255.83    9.40
  -2   6   3 1788.77   48.68
  -2   6   3 2032.47   48.35
   0   0   4 5029.44  155.45
   0   0   4 5541.69  137.93
  -4  -5   0  104.02    6.06
  -4   5   0   99.18   10.97
   4  -5   0   99.35    6.78
   4  -5   0  115.21    7.35
   4   5   0  104.88    6.59
  -4   5   0  100.27    7.14
   2  -2   3  610.43   14.70
  -2   2  -3  620.83   17.58
   2  -2   3  619.91   17.88
  -2  -2  -3  599.96   18.12
  -2   2  -3  598.63   15.87
   2   2   3  609.08   17.96
  -5   0   3   -0.24    2.84
   5   0  -3   -4.54    3.11
   5   0  -3   -2.87    2.93
  -1  -3   4 1037.53   21.90
  -1   3   4 1085.62   18.02
  -1   3   4 1077.63   32.95
   1   3  -4 1067.11   20.11
   0  -1   4   15.96    1.22
   0   1   4   20.26    3.72
   0   1   4   19.33    1.40
   0  -1   4   20.48    2.97
  -5   3   2  233.65    9.93
  -5   3   2  229.90   10.12
   5  -3  -2  224.51    9.62
  -5  -3   2  216.76   13.17
   5   3  -2  255.73   10.11
   5  -3  -2  238.17   13.55
  -5  -3   1 3186.64   95.26
  -5   3   1 3154.05   95.58
   5  -3  -1 3159.19   96.91
  -5   3   1 3196.47  105.58
   5   3  -1 3184.09   97.80
   5  -3  -1 3064.25   93.80
   5   0   0  134.13    9.62
  -5   0   0  141.17    9.22
   5   0   0  115.99    9.20
   5  -1  -3  394.07   12.46
  -5   1   3  398.95   12.47
   5  -1  -3  385.77   12.54
   5   1  -3  387.60   11.52
  -5  -1   3  417.13   12.00
   1   8   1 2357.92   60.92
  -1   8  -1 2237.19   55.07
  -1   8  -1 2340.27   63.35
   1  -8   1 2382.52   58.87
  -5   1   0    2.45    6.80
  -5  -1   0    9.08    4.53
   5  -1   0    4.50    4.49
   5   1   0    5.27    4.69
   5   1   0    0.89    4.25
   5  -1   0    1.85    4.63
  -3   3   4  924.55   20.10
  -3   3   4  953.71   24.31
  -3  -3   4  944.56   19.80
   3  -3  -4  918.51   18.16
   2   8  -1 2521.07   60.22
  -2   8   1 2518.83   67.59
  -2   8   1 2458.27   67.55
   2  -8  -1 2495.62   66.36
   4   0  -4 3755.88  105.59
   4   0  -4 3887.02  106.42
  -4   0   4 3838.47  107.29
  -3  -6  -1 3046.44   90.58
  -3   6  -1 3073.99   92.89
  -3   6  -1 3041.13   86.91
   3  -6   1 2947.78   84.48
   3   6   1 2921.33   83.10
   3  -6   1 2991.87   85.54
  -1   7  -2   41.17    6.70
   1  -7   2   46.86    2.67
  -1   7  -2   63.91    4.58
   1   7   2   42.14    4.60
   3  -7   0 3938.43  118.98
   3   7   0 3998.84  118.43
   3  -7   0 3837.20  112.49
  -3   7   0 4011.55  118.70
  -3  -7   0 3955.95  116.04
  -3   7   0 3816.22  114.85
   2   8   0   58.09    5.48
  -2   8   0   60.61    5.43
  -2   8   0   56.92    4.17
   2  -8   0   56.70    3.92
   0   2   4 3318.37   77.18
   0   2  -4 3389.77   89.34
   0   2   4 3350.13   95.03
   0  -2   4 3269.13   87.43
   0   2  -4 3415.64   81.74
  -4  -1   4   39.21    5.02
   4   1  -4   48.93    3.49
   4  -1  -4   46.07    4.26
   4   1  -4   52.00    3.50
   4  -1  -4   40.67    2.83
  -4   1   4   47.71    4.01
   0  -6   3 1804.46   36.56
   0   6  -3 1778.06   37.40
   0   6   3 1837.20   49.13
   0   6  -3 1674.16   42.04
  -4   6   1 3040.96   89.09
   4  -6  -1 3170.23   92.05
   4  -6  -1 3198.63   93.72
   4   6  -1 3178.62   90.49
  -4  -6   1 3166.35   85.64
  -4   6   1 3219.52   93.90
   1  -5   3  975.07   23.74
  -1   5  -3  980.25   22.49
  -1   5  -3  974.74   27.61
   1  -5   3  973.83   26.74
   1   5   3  975.03   26.92
   2  -6   2    2.06    2.52
   2  -6   2    1.59    2.87
  -2   6  -2   -3.86    3.59
  -2   6  -2    7.11    3.02
   2   6   2    0.77    3.12
  -3  -4  -2 1068.30   30.19
   3  -4   2 1029.31   30.08
   3   4   2 1070.43   29.81
  -3   4  -2 1096.26   34.82
  -3   4  -2 1030.61   32.68
   3  -4   2 1073.48   33.19
   5  -2  -3  700.87   19.77
   5   2  -3  690.80   17.77
  -5   2   3  691.99   20.02
   5  -2  -3  711.09   19.26
  -5  -2   3  724.41   22.60
   3  -7  -2  318.86   13.52
  -3   7   2  310.81    9.96
   3   7  -2  303.18    9.07
  -3   7   2  300.75   10.63
   3  -7  -2  292.81   14.53
   5   2   0  680.71   23.05
   5  -2   0  736.81   24.17
   5  -2   0  646.01   22.95
  -5   2   0  689.16   23.59
  -5  -2   0  696.18   23.00
  -2  -3  -3  376.03   12.98
   2   3   3  350.54   16.94
   2  -3   3  361.57   16.62
   2  -3   3  370.20   10.47
  -2   3  -3  368.70   13.97
  -2   3  -3  374.46   12.16
  -2  -4   4 2906.20   62.93
  -2  -4   4 2838.90   62.41
   2   4  -4 2860.15   67.97
  -2   4   4 2867.06   65.85
  -2   4   4 3052.61   90.57
  -3   6   3 2257.05   61.59
  -3   6   3 2195.89   56.86
   3  -6  -3 2207.10   55.51
   4  -4   1   92.36    7.36
  -4   4  -1   94.62    7.05
  -4   4  -1   85.82    7.99
  -4  -4  -1   89.54    6.90
   4   4   1   79.21    6.95
   4  -4   1  103.84    7.04
   4  -6  -2    4.93    3.44
  -4   6   2   10.06    3.51
  -4   6   2   15.41    3.89
   4   6  -2   10.21    2.98
  -4  -6   2    6.67    1.99
   4  -6  -2    6.23    3.84
   4   2  -4 3100.64   78.12
  -4   2   4 3069.23   90.51
  -4  -2   4 3157.16   79.61
   4  -2  -4 3063.30   77.78
   4  -2  -4 3025.93   85.11
   1   8  -2   10.08    3.39
   1   8  -2    9.28    1.47
   1   8  -2    7.88    0.66
  -1   8   2    6.11    2.96
  -1   8   2    4.52    3.37
   4  -5  -3 1077.49   26.53
  -4  -5   3 1086.97   22.67
   4   5  -3 1139.98   23.27
   4  -5  -3 1136.61   30.99
  -4   5   3 1088.70   27.28
  -4   5   3 1075.35   29.82
  -1   4   4  145.39    7.44
   1   4  -4  150.52    5.89
  -1  -4   4  147.76    4.36
  -1   4   4  149.30    3.27
  -5   4   2 1107.68   31.23
   5   4  -2 1036.13   35.98
  -5   4   2 1104.71   31.42
   5  -4  -2 1093.98   31.09
   5  -4  -2 1093.03   30.71
  -5  -4   2 1085.61   28.95
   5  -4  -1  102.15   10.99
  -5   4   1   95.98    7.59
  -5   4   1   85.97    7.00
   5   4  -1   73.34    6.97
   5  -4  -1  111.48   11.23
  -5  -4   1   97.30    6.53
   0  -3   4   36.83    3.39
   0   3  -4   43.55    3.12
   0   3  -4   37.37    2.53
   0   3   4   42.05    4.99
   0   9   0   -0.76    1.96
   0   9   0    0.46    3.08
  -3   4   4   45.99    2.58
  -3   4   4   44.58    4.73
  -3  -4   4   38.62    1.73
  -5   3   3  222.84    9.24
   5  -3  -3  224.73    8.71
   5   3  -3  205.73    7.38
   5  -3  -3  208.20   12.92
  -5  -3   3  218.53    8.42
   0   8   2   18.57    3.91
   0  -8   2   17.35    1.43
   0   8  -2   16.02    3.53
   0   8  -2   30.60    3.79
   5  -3   0 1129.39   34.51
  -5   3   0 1066.30   33.06
  -5  -3   0 1019.85   31.41
  -5   3   0 1058.37   33.86
   5  -3   0  957.73   38.69
   5   3   0  988.39   31.59
   2   8  -2   14.04    1.06
  -2   8   2   16.55    3.59
  -2   8   2   21.96    3.78
   2   8  -2   17.39    1.45
   4  -6   0  146.47    8.72
  -4   6   0  157.56    8.39
   4   6   0  158.80    7.67
  -4  -6   0  131.69   10.09
   4  -6   0  133.94    7.78
  -4   6   0  137.76    8.42
   1   9   0 2977.14   76.60
   1   9   0 2898.95   75.38
  -1   9   0 3055.21   88.03
  -1   9   0 2969.99   78.23
  -4  -3   4  189.70    5.30
  -4   3   4  173.25    7.76
   4   3  -4  167.27    4.80
   4  -3  -4  177.41    6.91
  -1   7   3   10.04    2.58
   1   7  -3    7.60    2.90
  -1   7   3    5.70    3.77
  -2   4  -3 1089.84   27.95
  -2  -4  -3 1150.41   38.00
   2  -4   3 1104.02   27.76
   2   4   3 1112.10   32.02
   2  -4   3 1118.80   31.27
  -2   4  -3 1099.88   34.40
  -2   7   3    8.05    2.64
  -2   7   3    2.45    3.62
   0   9  -1  231.67    5.95
   0   9   1  249.14    8.36
   0   9  -1  252.91    9.89
  -1   9   1  286.85   12.44
  -1   9   1  297.76   10.44
   1   9  -1  269.39    6.23
   1   9  -1  284.55    8.09
   2  -8   1  933.23   22.16
   2  -8   1  927.03   26.37
  -2   8  -1  949.31   31.31
  -2   8  -1  924.55   23.77
   2   8   1  936.83   24.06
   1   0   4   81.95    4.58
   1   0   4   92.34    5.82
  -1   0  -4   81.23    5.68
   3  -5   2  275.81   11.45
   3  -5   2  269.47   10.95
  -3  -5  -2  305.90   11.85
  -3   5  -2  304.47   14.59
   3   5   2  288.15   11.28
  -3   5  -2  285.48   13.16
   3  -8  -1  723.10   26.12
   3   8  -1  719.34   16.81
  -3   8   1  718.94   21.06
  -3   8   1  745.75   20.85
   3  -8  -1  727.45   19.95
  -2  -5   4    1.62    0.89
  -2   5   4    2.97    3.33
  -2  -5   4    0.50    0.72
  -2   5   4    1.01    1.50
   2   5  -4   -0.15    1.91
  -1  -1  -4  146.45    7.55
  -1   1  -4  147.97    6.88
   1   1   4  147.97    7.62
   1   1   4  157.43    4.64
   1  -1   4  154.82    7.12
   1  -1   4  154.84    4.40
   4   0   2  504.70   17.31
  -4   0  -2  480.83   18.34
   4   0   2  448.65   18.32
  -4   5  -1 1611.84   45.72
   4  -5   1 1639.44   54.39
   4  -5   1 1632.24   47.93
  -4   5  -1 1615.82   51.35
   4   5   1 1593.23   52.53
  -4  -5  -1 1584.44   45.46
  -1   6  -3 1510.96   35.38
  -1   6  -3 1495.34   38.02
   1  -6   3 1531.05   38.75
   1  -6   3 1505.22   38.48
   1   6   3 1499.48   41.62
   0   4   4 1447.54   46.69
   0   4  -4 1482.73   33.04
   0  -4   4 1479.69   34.84
   0   4  -4 1456.17   35.31
  -4  -1  -2  113.27    9.21
  -4   1  -2  119.32    9.36
   4  -1   2  122.24    8.13
   4   1   2  100.16   13.16
   4   1   2  130.24    8.18
   4  -1   2  131.23    9.61
  -3   7  -1    5.05    3.60
   3  -7   1    1.76    3.49
  -3  -7  -1    2.05    3.08
   3   7   1    2.64    3.18
   3  -7   1    2.79    3.01
  -3   7  -1    0.33    3.66
   5   4  -3 1350.80   32.17
  -5  -4   3 1358.52   33.98
   5  -4  -3 1321.00   37.49
   5  -4  -3 1312.03   35.07
  -5   4   3 1323.12   37.00
  -5   4   3 1328.93   36.53
  -1   5   4 1140.79   31.45
  -1   5   4 1169.19   25.12
  -1  -5   4 1131.58   22.98
   1   5  -4 1125.07   24.96
  -5   5   2  330.27   12.69
   5  -5  -2  326.26   13.01
  -5   5   2  340.54   13.33
  -5  -5   2  334.99   10.58
   5   5  -2  332.77   12.67
   5  -5  -2  340.31   12.46
   5  -5  -1 1722.08   51.13
   5  -5  -1 1760.92   50.95
   5   5  -1 1755.11   51.75
  -5   5   1 1732.60   57.95
  -5  -5   1 1700.12   48.00
  -5   5   1 1713.58   50.46
   0   7  -3    1.97    1.74
   0  -7   3   -0.43    1.62
   0   7   3    6.63    3.20
   0   7  -3    1.60    2.74
   5  -4   0   57.44   11.26
  -5  -4   0   62.49    9.39
  -5   4   0   56.80    6.81
   5   4   0   46.98    6.73
   5  -4   0   60.55   10.87
  -5   4   0   50.91    7.24
   4  -7  -1   40.26    5.15
  -4   7   1   42.43    5.40
  -4   7   1   54.09    5.67
  -4  -7   1   49.30    3.78
   4  -7  -1   42.44    5.48
   4   7  -1   36.02    6.60
   2   7   2 4221.21  136.12
  -2   7  -2 4123.66  125.48
  -2   7  -2 4078.84  128.82
   2  -7   2 4097.63  124.10
   2  -7   2 4001.21  115.07
   1   2   4   32.26    2.77
  -1   2  -4   29.54    4.03
   1  -2   4   27.07    3.73
   1   2   4   34.12    7.30
   1  -2   4   24.62    4.14
  -1   8  -2   96.92    6.30
   1  -8   2  100.77    3.82
  -1   8  -2  110.70    5.74
   1   8   2  107.92    6.40
   3   8   0  114.28    5.72
   3  -8   0  117.74    6.20
  -3   8   0  124.86    7.83
   3  -8   0  120.62    7.95
  -3   8   0  127.17    6.83
  -3  -5   4 1073.09   16.64
  -3  -5   4 1067.55   18.22
  -3   5   4 1015.15   28.94
  -3   5   4 1085.75   23.80
   4  -6  -3  905.72   23.88
   4  -6  -3  922.25   26.32
  -4   6   3  911.81   24.49
  -4   6   3  938.34   27.42
   4   6  -3  964.41   17.37
  -4  -6   3  946.71   17.46
   5   0  -4  732.25   19.49
   5   0  -4  721.98   19.41
  -5   0   4  768.39   20.01
   4  -2   2  184.99   11.49
   4   2   2  190.05   10.01
  -4   2  -2  176.28   11.33
   4   2   2  181.97   10.94
  -4  -2  -2  183.64   10.93
   4  -2   2  183.78    9.74
   6   0  -2  557.48   19.86
  -6   0   2  525.21   19.83
   6   0  -2  576.56   19.78
  -4   4   4 1700.59   41.42
  -4  -4   4 1782.22   41.18
  -4   4   4 1683.84   46.50
   4  -4  -4 1690.29   39.15
   1   9   1  277.11    9.43
   1  -9   1  276.26    7.51
  -1   9  -1  307.19   11.04
  -1   9  -1  281.21    8.27
  -3   7   3   81.67    6.88
  -3   7   3   97.76    7.69
  -3   0  -3    1.47    3.59
   3   0   3    5.12    3.76
   3   0   3   -2.52    3.06
  -5   1   4   73.31    5.55
   5  -1  -4   90.07    5.69
   5   1  -4   85.02    4.80
   5   1  -4   85.33    5.50
   5  -1  -4   79.23    4.97
  -5  -1   4   64.05    5.22
   5   0   1    1.25    4.84
   5   0   1   -1.15    4.44
  -5   0  -1    3.14    4.57
   2   9  -1  342.54    7.95
  -2   9   1  341.17   11.13
  -2   9   1  338.50   12.38
  -6  -1   2   82.73    7.76
  -6   1   2   82.16    7.55
   6  -1  -2   86.59    8.28
   6  -1  -2   79.67    7.47
   6   1  -2   84.14   11.99
   6   1  -2   95.30    7.88
  -3   8   2  183.11    8.02
   3  -8  -2  174.17    8.48
   3   8  -2  172.02    4.94
  -3   8   2  162.80    8.68
   3  -8  -2  178.04    8.02
  -4   7   2 3450.93  104.45
  -4  -7   2 3370.41   84.24
   4  -7  -2 3347.22  101.24
  -4   7   2 3468.81  109.81
   4  -7  -2 3440.61  103.59
   4   7  -2 3285.82   91.72
  -3  -1  -3 2257.52   67.36
  -3   1  -3 2304.19   68.66
   3  -1   3 2228.73   62.01
   3  -1   3 2214.03   66.93
   3   1   3 2265.80   67.53
   3   1   3 2313.40   64.96
   5   1   1  252.96   13.02
   5  -1   1  262.75   13.28
   5   1   1  273.80   19.03
   5  -1   1  255.84   13.54
  -5  -1  -1  259.49   13.76
  -5   1  -1  247.65   14.03
  -2   9   0  197.74   10.98
   2  -9   0  200.93    7.32
  -2   9   0  207.91   13.64
   2   9   0  200.96    6.78
   2  -5   3    7.59    5.49
  -2  -5  -3    9.51    4.26
  -2   5  -3    7.68    3.24
   2   5   3    1.51    6.17
  -2   5  -3    6.04    3.57
   2  -5   3    5.90    4.83
   6   0  -1    4.19    5.22
  -6   0   1   13.21    4.84
   6   0  -1   -5.11    4.93
   5  -2  -4  323.11   11.35
  -5   2   4  327.29   11.34
  -5  -2   4  308.69    9.67
   5   2  -4  309.09   11.75
   5  -2  -4  316.61    9.48
   1  -3   4  786.59   24.80
   1  -3   4  777.40   17.25
   1   3   4  772.31   23.47
  -1   3  -4  777.65   21.65
  -1   3  -4  783.14   19.93
   6   1  -1  135.98   10.21
  -6   1   1  116.44   10.22
   6  -1  -1  141.62    9.83
   6   1  -1  122.14   10.16
  -6  -1   1  131.28    9.43
   6  -1  -1  122.35   10.52
   6  -2  -2  242.58   12.30
   6   2  -2  263.41   12.67
   6  -2  -2  239.22   17.51
  -6  -2   2  252.43   12.12
  -6   2   2  235.36   11.76
  -3  -2  -3   60.44    6.85
   3   2   3   70.36    5.98
   3   2   3   54.08    6.96
   3  -2   3   63.30    8.16
   3  -2   3   63.78    6.90
  -3   2  -3   71.18    6.94
   5   2   1  622.01   23.24
   5  -2   1  632.94   22.73
  -5   2  -1  611.35   23.37
  -5  -2  -1  590.37   22.41
   5  -2   1  605.20   22.31
   4   3   2  781.47   25.89
   4  -3   2  820.51   25.54
   4  -3   2  790.34   26.97
  -4   3  -2  817.50   25.37
  -4  -3  -2  746.52   26.07
  -4   3  -2  804.21   29.08
   4  -7   0  274.03   10.75
  -4  -7   0  265.35    9.86
  -4   7   0  272.89   11.78
  -4   7   0  296.13   12.27
   4  -7   0  261.26   12.11
   4   7   0  289.45   14.75
  -1   9   2    1.36    3.21
   1   9  -2    3.46    0.85
   1   9  -2    0.96    3.55
  -1   9   2   15.01    3.34
   1   9  -2    3.28    1.64
  -2   0   5   -2.61    2.50
  -2   0   5    1.28    2.37
   3  -6   2   94.14    6.42
  -3   6  -2   85.94    6.74
  -3   6  -2   70.75    7.74
  -3  -6  -2   76.47    6.81
   3  -6   2   73.16    6.38
   3   6   2   86.64    6.89
   0   5   4   74.69    6.35
   0  -5   4   66.04    4.07
   0   5  -4   62.24    3.06
   0   5  -4   62.94    3.87
  -6   0   3   -3.25    3.51
   6   0  -3    2.50    5.81
   6   0  -3    4.02    3.54
  -2  -1   5 1134.13   27.05
  -2   1   5 1088.52   28.11
  -2   1   5 1108.20   33.86
  -2  -1   5 1091.63   26.66
  -3   0   5   -1.10    2.42
  -2   6   4  228.62   10.24
   2   6  -4  226.24    7.44
  -2   6   4  230.12    6.53
  -5  -5   3  141.24    6.00
  -5   5   3  133.68    8.77
  -5   5   3  166.69    7.98
   5  -5  -3  154.03    7.46
   5  -5  -3  144.51   12.81
   5   5  -3  144.99    5.75
   6   2  -1  615.51   22.83
   6  -2  -1  616.75   23.18
   6  -2  -1  598.34   31.25
  -6   2   1  608.07   30.12
  -6  -2   1  623.80   22.09
  -6   1   3 2458.16   73.17
   6   1  -3 2439.73   71.67
   6   1  -3 2501.57   75.72
  -6  -1   3 2438.68   72.26
   6  -1  -3 2448.93   73.45
   6  -1  -3 2486.16   73.28
   4  -6   1  541.93   18.96
   4  -6   1  557.30   18.65
  -4   6  -1  531.44   20.85
   4   6   1  566.80   18.60
  -4  -6  -1  547.24   17.94
  -4   6  -1  568.45   23.99
   5  -5   0 1207.33   46.26
  -5   5   0 1298.35   39.49
  -5  -5   0 1217.46   36.38
  -5   5   0 1215.75   39.78
   5  -5   0 1312.91   40.42
   5   5   0 1230.86   37.63
  -3  -1   5 1537.21   36.85
  -3   1   5 1472.21   38.54
   3   1  -5 1556.95   24.32
   0   9   2 3042.75   86.93
   0   9   2 2845.60   83.32
   0   9  -2 3016.75   87.38
   0   9  -2 2906.20   73.47
   1   8  -3 1493.20   40.50
  -1   8   3 1638.70   46.01
  -1   8   3 1630.49   40.84
   5  -3  -4  881.30   25.89
   5   3  -4  895.26   23.65
  -5   3   4  847.99   24.89
  -5  -3   4  935.14   22.64
   5  -3  -4  910.20   25.76
  -2   8   3 1264.96   33.04
  -2   8   3 1385.36   38.50
  -2   9   2 2974.02   86.37
  -2   9   2 3023.92   93.25
   2   9  -2 2930.79   62.87
   2   9  -2 2887.50   60.37
  -1   6   4   -2.94    3.69
  -1   6   4   -2.12    2.78
   1   6  -4    0.02    2.20
  -1  -6   4   -1.56    1.49
   6  -3  -2  794.88   26.41
  -6  -3   2  796.29   25.47
   6   3  -2  802.23   27.32
  -6   3   2  803.29   26.53
   6  -3  -2  804.23   27.35
   0  10   0  841.37   20.52
   0  10   0  853.20   25.55
  -5  -6   2   87.38    5.14
   5  -6  -2  101.07   10.51
   5  -6  -2   74.90    7.22
  -5   6   2   82.67    6.72
   5   6  -2   93.80    6.69
  -5   6   2   74.44    7.41
  -4  -5   4  145.18    4.15
  -4   5   4  142.97    6.02
   4  -5  -4  130.99    7.58
  -4   5   4  134.90    8.05
  -5   6   1  389.69   15.18
   5   6  -1  415.57   15.58
  -5   6   1  400.12   15.92
   5  -6  -1  412.23   15.60
  -5  -6   1  395.68   13.33
   5  -6  -1  433.33   16.48
   3  -3   3 1409.92   38.29
  -3   3  -3 1409.52   42.82
  -3  -3  -3 1449.82   42.80
  -3   3  -3 1457.60   40.40
   3  -3   3 1391.62   51.19
   3   3   3 1397.12   42.14
   1   7   3  341.74   13.13
  -1   7  -3  335.83    9.38
   1  -7   3  336.29    8.51
  -1   7  -3  326.51   11.08
   5  -3   1  222.71   17.86
  -5  -3  -1  222.54   12.38
  -5   3  -1  215.27   13.30
   5   3   1  223.80   12.33
   5  -3   1  224.17   12.57
  -2   2   5  463.48   14.31
   2   2  -5  471.26    6.04
  -2  -2   5  459.30   11.56
  -2   2   5  467.29   14.48
  -2  -2   5  483.25   11.68
  -6   2   3    9.69    7.25
   6   2  -3   10.85    4.13
   6  -2  -3    6.90    4.79
  -6  -2   3    7.52    4.46
   6  -2  -3   15.22    4.65
  -3   6   4   15.19    2.95
  -3   6   4   23.45    4.75
  -1   0   5    4.88    4.44
  -3   2   5   98.23    6.14
  -3  -2   5   94.33    4.57
   3   2  -5  101.09    2.31
  -3  -2   5  107.90    4.49
   1   4   4   10.82    6.84
   1  -4   4    6.50    3.49
  -1   4  -4   12.46    2.94
   1  -4   4    6.45    2.55
  -1   4  -4    6.35    2.79
  -1   1   5  576.87   16.49
  -1  -1   5  547.56   15.02
  -2   9  -1  146.05    8.35
   2  -9   1  118.84    5.77
   2   9   1  150.18    6.80
  -2   9  -1  129.35    6.91
   6  -3  -1  181.97   11.53
  -6  -3   1  170.04   10.52
  -6   3   1  173.50   11.92
   6  -3  -1  171.10   12.08
   6   3  -1  188.06   11.25
  -4  -4  -2   76.93    7.35
  -4   4  -2   65.16   12.48
   4   4   2   54.61   10.78
   4  -4   2   62.36    7.54
  -4   4  -2   63.75    6.54
   4  -4   2   58.36    6.60
   1  10   0    1.36    2.22
  -1  10   0    0.37    2.48
   1  10   0    2.81    2.21
  -1  10   0   -5.28    3.65
   3   8   1 2599.55   81.07
  -3   8  -1 2592.55   78.74
   3  -8   1 2568.53   76.88
   3  -8   1 2598.98   73.29
  -3   8  -1 2630.51   84.15
   4  -7  -3  190.01    8.30
  -4  -7   3  204.80    3.71
  -4   7   3  205.06    8.91
   4   7  -3  204.95    3.81
   4  -7  -3  217.15   10.43
  -4   7   3  191.14   10.21
   3  -9  -1  310.45   11.26
   3   9  -1  295.20    8.34
  -3   9   1  318.21   11.70
   3  -9  -1  311.89   12.58
  -3   9   1  308.77   12.41
   0  -8   3 1683.32   33.57
   0   8   3 1743.61   49.91
   0   8  -3 1817.57   52.86
   0   8  -3 1693.94   35.43
   0  10   1 1062.84   30.73
   0  10  -1 1041.49   30.51
   0  10   1 1031.19   31.58
   0  10  -1 1050.49   26.41
  -4  -8   1 2382.84   62.16
   4   8  -1 2430.69   67.27
   4  -8  -1 2429.39   72.45
  -4   8   1 2452.37   72.75
   4  -8  -1 2410.03   70.34
  -4   8   1 2364.14   70.96
   4   0  -5    1.81    1.75
  -4   0   5   -2.98    2.54
  -2   6  -3 1724.44   49.06
  -2   6  -3 1738.14   48.15
   2  -6   3 1775.89   52.92
   2  -6   3 1703.56   46.94
   2   6   3 1751.25   50.81
  -2   8  -2  413.42   18.79
   2   8   2  391.95   13.80
   2  -8   2  409.01   14.05
  -2   8  -2  408.60   19.91
   2  -8   2  414.51   14.74
   1  10  -1 1280.38   27.77
  -1  10   1 1289.16   36.78
  -1  10   1 1299.99   34.50
   1  10  -1 1315.47   28.21
   2   0   4 3499.22  107.96
  -2   0  -4 3508.05  107.99
   2   0   4 3457.11   95.21
  -1   2   5  233.88    9.47
  -1  -2   5  200.65    9.90
  -4   1   5  179.11    7.92
   4  -1  -5  191.19    4.02
  -4  -1   5  196.53    6.77
   4   1  -5  204.49    5.14
  -2   3   5  667.31   19.91
  -2  -3   5  659.21   14.95
  -2  -3   5  681.35   17.23
  -2   3   5  663.63   20.29
   2   3  -5  678.25   13.02
   6   0   0  906.33   32.00
  -6   0   0  816.41   30.21
   6   0   0  840.55   29.86
  -6   3   3 2050.47   61.02
   6  -3  -3 2048.52   68.77
   6   3  -3 2002.51   57.36
   6  -3  -3 2004.88   59.50
  -6  -3   3 2067.68   60.43
  -3   8   3 2088.22   59.29
  -3   8   3 2189.31   64.02
  -2   1  -4  129.87   10.95
   2   1   4   96.28    7.71
   2   1   4  106.73    8.09
   2  -1   4   98.57    4.91
  -2  -1  -4   89.19    7.65
   2  -1   4   92.68    7.42
   5  -4  -4   85.67    5.07
   5  -4  -4   61.51    6.97
  -5  -4   4   87.79    7.19
  -5   4   4   77.78    6.95
  -5   4   4   87.55    5.94
   5   4  -4   88.59    5.68
   3   3  -5  927.99   17.54
  -3  -3   5  939.24   19.99
  -3   3   5  930.22   26.26
  -3  -3   5  923.47   19.76
  -6   1   0  190.12   12.93
   6  -1   0  210.29   13.57
   6   1   0  186.77   12.36
   6  -1   0  174.29   13.15
   6   1   0  210.93   13.31
  -6  -1   0  209.10   12.62
  -6   4   2  125.64   10.19
   6  -4  -2  151.49    9.94
   6  -4  -2  144.42    9.69
  -6  -4   2  153.16    8.87
  -6   4   2  132.97    9.76
   6   4  -2  143.65    9.74
   4  -8  -2  295.78   12.35
   4   8  -2  317.84    9.66
  -4  -8   2  305.05    8.99
   4  -8  -2  335.86   13.00
  -4   8   2  325.85   13.06
  -4   8   2  306.89   12.75
   1  -9   2   70.64    5.14
   1   9   2   97.04    6.19
  -1   9  -2   74.52    5.32
  -1   9  -2   68.49    6.26
  -3   9   0 2549.68   80.47
   3   9   0 2483.10   67.70
   3  -9   0 2531.41   70.90
  -3   9   0 2497.23   74.75
   3  -9   0 2581.62   78.74
   3  -4   3  307.02   11.15
   3   4   3  284.14   13.16
  -3   4  -3  257.16   13.03
  -3  -4  -3  276.69   18.63
   3  -4   3  303.34   13.14
  -3   4  -3  291.24   11.41
  -5   4  -1 1412.47   47.03
   5   4   1 1411.51   54.19
   5  -4   1 1389.62   45.44
  -5  -4  -1 1397.18   44.13
   5  -4   1 1424.81   44.97
  -5   4  -1 1420.52   44.50
   0   6   4  461.20   16.36
   0   6  -4  450.65   12.40
   0   6  -4  461.62    9.53
   0  -6   4  456.96   10.93
   4  -2  -5  499.58   10.31
  -4  -2   5  503.60   15.27
  -4   2   5  506.85   15.43
   5  -6  -3 2207.30   67.67
   5   6  -3 2305.38   56.92
   5  -6  -3 2194.33   62.98
  -5  -6   3 2325.41   60.46
  -5   6   3 2228.67   67.29
  -5   6   3 2230.71   64.81
   3   9  -2  214.44    5.67
  -3   9   2  218.62   10.09
  -3   9   2  207.62    9.66
  -5   6   0  359.07   21.08
  -5  -6   0  343.66   13.63
   5   6   0  335.67   14.22
  -5   6   0  320.25   15.44
   5  -6   0  357.08   16.04
   5  -6   0  326.43   14.83
   2  -2   4 1974.77   57.63
  -2  -2  -4 1946.11   57.18
   2   2   4 1854.72   55.25
  -2   2  -4 2008.66   56.61
   2   2   4 1944.12   55.19
   2  -2   4 1902.68   51.92
  -6  -2   0  587.45   30.14
  -6   2   0  599.76   32.32
   6   2   0  655.62   24.72
   6  -2   0  656.95   25.98
   6  -2   0  577.09   24.26
   6   2   0  596.75   23.65
   3  -7   2  303.36   11.26
   3  -7   2  307.95   12.16
   3   7   2  320.67   17.58
  -3   7  -2  293.79   19.29
  -3   7  -2  306.91   12.42
  -3  -7  -2  310.12   13.01
   6  -4  -1 1852.27   59.09
  -6   4   1 1771.32   58.06
  -6  -4   1 1813.26   56.22
  -6   4   1 1827.49   57.93
   6  -4  -1 1842.50   59.25
   6   4  -1 1840.35   58.25
  -1  10  -1 1172.94   28.98
  -1  10  -1 1143.40   33.39
   1  10   1 1129.97   30.49
  -1  -3   5  276.41    8.18
   1   3  -5  280.46    7.26
  -1   3   5  261.22   11.46
  -2   7   4  112.19    5.13
   2   7  -4  105.17    5.80
  -2   7   4  131.14    7.94
   2  10  -1 1843.93   43.98
  -2  10   1 1743.15   51.36
  -2  10   1 1744.08   48.72
   2  10  -1 1784.56   40.96
  -1   5  -4 1658.35   46.62
   1  -5   4 1633.09   41.08
   1   5   4 1582.43   48.08
  -1   5  -4 1632.58   40.38
   1  -5   4 1651.05   44.86
   4  -8   0    1.45    3.79
   4  -8   0    3.65    4.40
   4   8   0    0.80    3.47
  -4  -8   0    2.71    3.08
  -4   8   0    0.56    4.53
  -4   8   0    7.45    3.93
  -4   6   4  619.30   20.07
  -4  -6   4  624.89   10.17
  -4   6   4  635.64   16.80
   4  -6  -4  592.01   15.73
   4  -7   1  356.79   14.13
   4  -7   1  379.11   15.14
   4   7   1  388.76   14.41
  -4   7  -1  374.31   14.94
  -4   7  -1  357.22   16.40
  -4  -7  -1  369.32   13.77
  -2  10   0  430.25   16.79
   2 -10   0  468.20   13.45
  -2  10   0  433.34   17.53
   2  10   0  431.81   12.13
   4   5   2 1790.46   55.06
   4  -5   2 1784.80   55.63
  -4  -5  -2 1800.93   55.04
  -4   5  -2 1805.95   59.83
  -4   5  -2 1764.03   53.23
   4  -5   2 1749.14   53.09
   6   0  -4 2719.07   86.65
   6   0  -4 2673.54   80.43
  -6   0   4 2751.88   81.13
   0   0   5    0.29    0.51
   0   0   5   -4.57    3.02
  -2   4   5  869.17   14.04
  -2  -4   5  862.55   17.59
  -2  -4   5  884.59   18.60
  -2   4   5  865.17   25.78
   2   4  -5  888.51   17.53
  -2   4   5  892.37   26.72
   1   7  -4 3133.98   88.53
  -1   7   4 3445.69   93.62
  -1   7   4 3222.12  100.51
  -6   4   3   54.33   12.16
   6   4  -3   86.00    6.54
   6  -4  -3   84.70    7.70
  -6  -4   3   80.25    6.53
   6  -4  -3   86.31    7.29
   6   1  -4  135.15    8.16
   6  -1  -4  132.33    7.82
   6   1  -4  139.71    7.29
   6  -1  -4  127.49    8.30
  -6   1   4  135.66   11.76
  -6  -1   4  125.75    7.73
   5  -7  -2  438.86   16.70
  -5   7   2  441.97   16.54
   5  -7  -2  449.23   21.68
   5   7  -2  442.55   19.29
  -5   7   2  470.26   17.40
  -5  -7   2  466.24   16.05
   5  -7  -1  203.53   11.02
   5  -7  -1  245.91   11.84
   5   7  -1  211.63   10.93
  -5  -7   1  215.39    9.20
  -5   7   1  213.65   11.63
  -5   7   1  229.75   11.77
   0   1   5 2030.47   35.72
   0   1   5 2044.69   58.10
   0  -1   5 2001.78   59.65
   4  -3  -5  112.22    3.27
  -4  -3   5  115.09    4.33
  -4   3   5  122.50    7.28
  -3   4   5  285.23   11.76
   3   4  -5  306.60    7.19
  -3  -4   5  300.05    8.24
  -3   4   5  307.68    8.01
  -3  -4   5  295.47    6.66
  -3   7   4 2803.74   75.31
  -3   7   4 2851.20   86.70
  -2   3  -4    1.17    6.04
  -2  -3  -4    1.28    4.62
  -2   3  -4    3.72    3.48
   2  -3   4    8.66    2.92
   2  -3   4    7.50    4.45
   2   3   4    7.19    3.28
   2   3   4    8.79    4.74
   6  -3   0  209.38   13.51
  -6   3   0  223.69   14.04
  -6  -3   0  228.67   19.45
   6   3   0  225.86   13.85
   6  -3   0  224.63   14.96
   1  10  -2  299.74   12.09
   1  10  -2  260.13    4.91
  -1  10   2  273.59   15.23
  -1  10   2  299.15   11.63
   1  10  -2  289.72    6.02
  -1   8  -3  911.68   26.17
   1  -8   3  901.97   19.78
   1   8   3  933.96   29.02
  -1   8  -3  890.95   21.91
   5  -5  -4 1673.87   50.03
   5  -5  -4 1656.58   48.21
   5   5  -4 1677.71   39.40
  -5   5   4 1709.94   45.99
  -5   5   4 1620.00   48.14
  -5  -5   4 1678.21   40.30
  -6   5   2 1679.82   53.83
   6   5  -2 1750.19   53.15
   6  -5  -2 1628.28   52.34
  -6  -5   2 1671.57   48.07
   6  -5  -2 1662.86   61.03
  -6   5   2 1630.93   51.46
   6  -2  -4 1335.50   37.56
   6   2  -4 1315.34   35.30
  -6   2   4 1325.37   39.50
   6  -2  -4 1337.26   39.06
  -6  -2   4 1331.87   36.93
   1   9  -3  234.43   10.33
  -1   9   3  235.13   11.73
  -1   9   3  284.34    9.88
   0  -2   5  113.55    8.93
   0   2   5  111.71    2.01
   0   2   5  118.76    7.78
  -3  -5  -3 1261.10   39.35
   3  -5   3 1234.11   35.41
   3  -5   3 1236.75   38.11
   3   5   3 1218.06   37.25
  -3   5  -3 1256.75   36.36
  -3   5  -3 1254.94   47.61
  -5   5  -1    6.11    5.24
   5  -5   1    4.90    5.30
   5  -5   1    3.94    5.47
   5   5   1    9.73    5.24
  -5   5  -1    9.45    5.89
  -5  -5  -1    8.88    5.01
  -2   9   3  565.12   21.59
  -2   9   3  546.74   18.84
  -5   0   5    1.45    4.73
   5   0  -5    2.38    2.33
   1   4  -5  588.87   12.36
  -1  -4   5  595.87   17.75
  -1   4   5  553.98   19.86
  -1   4   5  594.38   10.09
   2  -7   3   86.49   10.07
   2  -7   3   84.40    6.07
   2   7   3  110.86    8.13
  -2   7  -3   94.62    6.74
  -2   7  -3   96.51    7.11
   0  10   2   53.14    5.95
   0  10   2   63.64    5.82
   0  10   2   54.04    5.80
   0  10  -2   45.97    4.94
   0  10  -2   67.50    6.48
  -5  -1   5 2191.72   58.59
  -5   1   5 2147.31   61.02
   5   1  -5 2169.00   60.58
   5  -1  -5 2231.54   53.95
   4   8  -3  459.45    6.98
  -4   8   3  446.07   16.00
   4  -8  -3  434.60   15.14
   4  -8  -3  450.65   17.05
  -4   8   3  442.23   17.74
   2  10  -2  103.63    2.65
  -2  10   2  102.42    7.39
  -2  10   2  113.37   11.11
   2  10  -2  110.80    3.50
  -5   0  -2 1623.22   56.33
   5   0   2 1710.00   54.13
   5   0   2 1679.52   57.56
  -6   5   1   10.75    5.07
  -6   5   1    4.03    5.71
   6   5  -1    3.89    4.93
  -6  -5   1    5.53    4.54
   6  -5  -1    5.46    5.35
   6  -5  -1    0.86    5.28
   5  -1   2  148.41   12.20
   5   1   2  137.01   15.12
  -5   1  -2  115.54   12.05
  -5  -1  -2  126.64   11.97
   5  -1   2  155.95   10.54
   5   1   2  168.96   12.23
  -3   9  -1  260.53   12.66
   3  -9   1  279.42   13.81
   3  -9   1  289.11   17.80
  -3   9  -1  290.94   16.78
   3   9   1  267.47   10.78
   4   0   3   -6.06    5.19
   4   0   3    2.97    6.66
  -4   0  -3   -3.50    5.10
  -4  -4   5  765.52   18.22
  -4   4   5  705.66   22.62
  -4  -4   5  733.66   17.40
   0   7  -4   35.60    3.03
   0  -7   4   29.84    2.38
   0   7  -4   21.00    6.37
   0   7   4   27.79    6.23
   0  11   0    1.45    2.61
   0  11   0    1.59    4.22
   6  -3  -4  269.39   14.60
  -6   3   4  262.69   12.38
  -6  -3   4  270.45   10.55
   6   3  -4  272.28    9.76
   6  -3  -4  279.46   12.51
   4  -1   3  452.21   26.20
   4  -1   3  454.70   16.67
   4   1   3  516.01   18.05
  -4  -1  -3  446.95   19.13
  -4   1  -3  466.63   27.89
   4   1   3  449.92   19.82
   0   3   5  949.20   29.83
   0   3   5  990.58   19.71
   0  -3   5  989.21   26.06
   0   3  -5  988.98   21.49
   5  -2  -5   -1.13    2.13
  -5   2   5   -1.50    5.69
  -5  -2   5    8.72    2.61
   0  -9   3  619.89   11.39
   0   9  -3  558.77   18.17
   0   9  -3  579.55   12.13
   0   9   3  566.58   19.50
  -2  -4  -4  857.37   28.50
  -2   4  -4  887.30   24.45
   2   4   4  907.94   28.63
   2  -4   4  889.16   28.18
  -2   4  -4  881.71   25.82
   2  -4   4  890.94   23.32
  -4   9   1  122.55    8.56
   4  -9  -1  128.41   12.07
  -4   9   1  119.18    9.10
   4  -9  -1  125.29    8.79
   4   9  -1  121.06    9.62
   2  -9   2 2254.75   58.95
   2   9   2 2238.19   66.12
  -2   9  -2 2334.17   69.15
  -2   9  -2 2325.33   70.14
  -2  -5   5  190.81    4.91
  -2  -5   5  190.17    4.28
  -2   5   5  198.04    4.58
   2   5  -5  180.48    5.60
  -2   5   5  191.80   10.40
  -2  10  -1 1098.37   33.96
  -2  10  -1 1148.27   32.00
   2 -10   1 1133.26   29.05
   2  10   1 1155.73   31.55
   1  -6   4   44.29    4.54
   1   6   4   41.73    6.73
  -1   6  -4   28.72    6.97
  -1   6  -4   42.20    3.73
  -6   4   0  513.66   23.05
   6   4   0  532.13   22.33
  -6  -4   0  497.43   20.74
   6  -4   0  534.54   22.93
   6  -4   0  561.69   23.77
  -6   4   0  538.69   23.01
  -5   7   3  151.35    9.82
  -5   7   3  151.97    8.79
   5  -7  -3  149.43   14.41
  -5  -7   3  151.37    5.11
   5   7  -3  157.65    5.74
   5  -7  -3  151.39   12.10
  -6   5   3  959.79   31.60
   6   5  -3  971.42   27.85
  -6   5   3  959.57   38.01
   6  -5  -3  954.79   29.82
  -6  -5   3 1010.45   27.93
   6  -5  -3  955.87   38.62
  -5   7   0 2340.46   76.63
   5  -7   0 2441.27   75.78
  -5  -7   0 2343.15   70.89
   5   7   0 2337.02   73.11
   5  -7   0 2492.43   79.79
  -5   7   0 2293.22   74.47
  -3  -5   5  303.91    6.96
  -3   5   5  305.05   12.91
   3   5  -5  285.58    8.06
  -3  -5   5  287.81    5.43
  -3   5   5  292.82    7.09
  -3  10   1  927.32   29.11
  -3  10   1  897.23   27.35
   3 -10  -1  898.45   26.71
   3  10  -1  916.53   22.24
  -5   2  -2 1315.57   47.16
  -5  -2  -2 1248.25   44.27
   5  -2   2 1283.32   41.91
   5   2   2 1321.76   44.83
   5  -2   2 1269.94   44.30
   5   2   2 1376.88   52.23
  -4  -6  -2    4.20    4.58
  -4   6  -2   -1.34    4.14
  -4   6  -2   -3.87    8.05
   4   6   2    6.19    4.79
   4  -6   2    4.47    4.37
   4  -6   2    2.45    6.91
  -3   9   3  364.71   19.33
  -3   9   3  312.20   12.09
   7   0  -2 1212.30   41.35
  -7   0   2 1159.92   40.03
   7   0  -2 1095.71   40.08
   1  11   0 1149.09   33.03
  -1  11   0 1212.53   35.82
  -1  11   0 1155.58   43.92
   1  11   0 1141.71   28.82
   4   9  -2 1617.44   45.78
  -4   9   2 1716.40   58.87
   4  -9  -2 1622.60   49.45
   4  -9  -2 1630.32   49.37
  -4   9   2 1686.12   51.45
  -4   7   4  254.25   12.86
  -4   7   4  278.14    9.86
  -4   2  -3  272.82   15.24
   4   2   3  277.69   14.42
  -4  -2  -3  272.77   14.79
   4  -2   3  270.82   14.97
   4   2   3  290.40   12.91
   4  -2   3  281.68   12.29
   7   1  -2  165.10   18.76
   7   1  -2  171.22   11.82
   7  -1  -2  146.71   12.22
   7  -1  -2  147.92   12.37
  -7  -1   2  144.89   11.15
  -7   1   2  147.08   11.66
   3  -8   2  110.37   10.40
   3   8   2  101.44    8.25
  -3   8  -2  105.75   12.05
  -3   8  -2  111.77    8.85
   3  -8   2   98.22    8.02
   0  11   1  398.90   13.08
   0  11   1  416.59   15.77
   0  11  -1  393.96   10.59
   0  11  -1  363.32   15.25
   1  11  -1  532.79   19.44
   1  11  -1  512.17   12.27
  -1  11   1  513.36   18.45
  -1  11   1  491.44   15.89
   1  11  -1  520.44   14.66
  -2   8   4   29.81    4.04
  -2   8   4   34.97    9.68
   2   8  -4   23.99    6.69
  -5   3   5 1362.33   39.78
   5  -3  -5 1391.88   32.08
  -5  -3   5 1411.71   38.43
   1  10   2  372.06   13.86
   1 -10   2  355.03    8.98
  -1  10  -2  383.74   12.31
  -1  10  -2  365.82   14.36
   3 -10   0  356.50   12.33
  -3  10   0  334.00   17.85
   3  10   0  353.36   11.68
  -3  10   0  349.12   14.89
   4   8   1  171.20   10.13
   4  -8   1  196.53   10.21
  -4  -8  -1  179.03   10.06
  -4   8  -1  205.09   10.97
  -4   8  -1  183.66   11.93
   4  -8   1  183.93   16.52
  -1   5   5   96.92    3.00
  -1   5   5   95.37    7.88
  -1  -5   5   92.71    4.61
   1   5  -5   93.10    4.21
   5  -6  -4    4.18    3.39
  -5  -6   4    7.23    2.16
   5   6  -4    5.77    1.66
   5  -6  -4   11.48    4.99
  -5   6   4    4.89    4.69
  -5   6   4    7.78    3.81
  -6   0  -1   11.47    6.42
   6   0   1    0.24    6.25
   6   0   1    2.49    6.10
  -6   6   2    5.13    9.36
   6   6  -2    6.38    7.82
  -6  -6   2   10.00    4.25
   6  -6  -2   16.06    5.50
  -6   6   2   13.44    8.56
   6  -6  -2   14.49    5.94
   7   0  -3    5.46    4.49
  -7   0   3   -2.43    4.10
   7   0  -3   -2.71    4.32
  -3   6  -3  561.98   21.99
   3   6   3  570.51   21.42
   3  -6   3  573.06   19.92
   3  -6   3  587.15   19.03
  -3   6  -3  603.15   19.89
  -3  -6  -3  581.55   22.50
   5   6   1 2089.62   67.17
   5  -6   1 2179.84   69.51
   5  -6   1 2020.36   65.74
  -5  -6  -1 2034.39   65.27
  -5   6  -1 2079.33   71.35
  -5   6  -1 2069.48   66.70
   7  -2  -2  879.21   32.98
   7   2  -2  844.87   32.57
   7   2  -2  935.26   33.76
   7  -2  -2  891.58   34.28
  -7   2   2  875.80   33.13
  -7  -2   2  865.75   31.14
   6  -1   1 3630.73  128.49
   6  -1   1 3844.31  133.22
   6   1   1 3675.12  130.57
  -6  -1  -1 3749.73  133.09
   6   1   1 3775.88  131.22
  -6   1  -1 3750.55  133.15
   5  -3   2  301.91   15.09
   5   3   2  291.62   16.03
  -5   3  -2  304.47   17.19
  -5  -3  -2  286.31   16.88
   5  -3   2  288.93   15.45
   1   8  -4   43.54    4.69
  -1   8   4   37.91    6.35
  -1   8   4   32.19    6.00
  -1   8   4   29.20    6.48
  -7   1   3   98.25    9.36
   7  -1  -3   84.31    9.38
   7   1  -3   95.12    9.29
   7   1  -3   85.69    9.10
   7  -1  -3  107.20    9.52
  -7  -1   3  105.65    9.06
  -3  10   2  290.81   12.44
   3  10  -2  267.50    8.71
  -3  10   2  288.51   16.81
   3  10  -2  255.79    5.38
  -6   4   4 1160.32   36.41
   6  -4  -4 1171.17   36.83
   6  -4  -4 1173.48   33.28
  -6  -4   4 1192.31   33.21
   4  -9   0  537.72   17.99
   4   9   0  541.84   17.53
  -4  -9   0  539.36   16.80
  -4   9   0  535.14   19.53
  -4   9   0  538.46   20.19
   4  -9   0  547.17   28.18
   5  -8  -2   34.89    6.78
   5  -8  -2   45.91    9.90
  -5   8   2   44.43    6.48
  -5  -8   2   40.41    4.01
   5   8  -2   49.58    5.24
  -5   8   2   48.14   10.76
  -5  -8   1  249.97   13.79
   5   8  -1  250.21   11.58
  -5   8   1  252.68   12.98
  -5   8   1  247.03   17.85
   5  -8  -1  254.99   12.46
   5  -8  -1  268.20   13.38
   0   4   5  246.35   17.21
   0   4  -5  250.32    7.38
   0  -4   5  245.96    8.88
   1   0   5   -0.45    1.56
   1   0   5    7.16    3.49
   4   3   3  428.36   16.33
   4  -3   3  363.95   14.88
  -4  -3  -3  386.68   18.15
   4  -3   3  424.44   18.78
  -4   3  -3  393.91   18.57
   4   3   3  358.57   17.64
  -7   0   1    5.55    5.81
   7   0  -1    6.84    6.43
   7   0  -1    7.98    6.57
  -3   8   4   12.59    3.50
  -3   8   4    9.44    5.30
  -4  -5   5    4.75    1.67
  -4   5   5    9.13    4.49
  -4  -5   5    7.54    2.04
  -4   5   5    6.60    2.61
  -6  -6   1 2099.69   66.17
  -6   6   1 2163.69   78.78
  -6   6   1 2009.55   68.01
   6  -6  -1 2113.46   79.45
   6  -6  -1 2182.21   71.55
   6   6  -1 2232.63   71.89
  -1   1  -5  701.01   21.47
   1  -1   5  693.21   21.59
   1   1   5  673.53   22.55
   1   1   5  691.56   14.22
   1  -1   5  700.16   14.68
  -7   1   1 3893.83  139.07
   7  -1  -1 3900.76  141.23
  -7  -1   1 4015.58  152.49
   7   1  -1 3933.74  139.63
   7   1  -1 3928.90  140.02
   7  -1  -1 3946.85  141.25
   2   5   4  107.48   10.09
   2  -5   4  143.16   12.77
   2  -5   4  119.32    6.78
  -2   5  -4  130.91   11.02
  -2   5  -4  131.08   10.88
   6  -2   1    8.15   10.62
   6  -2   1   -0.02   10.38
   6   2   1   14.03    6.89
  -6   2  -1    3.33    6.81
  -6  -2  -1   11.19    6.64
   6   2   1   15.22    6.57
   6   5   0  681.58   26.48
  -6   5   0  701.38   28.67
  -6   5   0  706.55   36.21
  -6  -5   0  687.62   26.08
   6  -5   0  733.97   29.63
   6  -5   0  692.20   27.36
   7   2  -3  256.83   14.24
   7  -2  -3  245.49   14.01
   7  -2  -3  255.80   13.64
  -7   2   3  263.53   14.08
  -7  -2   3  269.01   13.68
   7   2  -3  247.21   13.85
  -1  11  -1  431.96   17.01
   1  11   1  435.23   14.40
  -1  11  -1  438.63   12.81
   1  11   1  447.36   14.33
   3   0   4   58.73    5.86
   3   0   4   79.90    7.97
  -3   0  -4   69.74    7.88
  -2  11   1  269.90   11.48
   2  11  -1  295.51    8.09
  -2  11   1  282.21   13.34
   2  11  -1  288.18    7.88
   3  -1   4   57.44    5.44
   3  -1   4   64.82    7.72
  -3   1  -4   50.57    7.59
  -3  -1  -4   66.03    7.94
   3   1   4   46.53    8.84
   3   1   4   56.50   11.69
   1  -9   3   55.95    3.16
   1   9   3   48.57    7.03
  -1   9  -3   56.31    9.19
  -1   9  -3   53.02    4.48
   2  -8   3 1761.37   51.90
   2   8   3 1786.44   54.48
  -2   8  -3 1682.23   50.51
  -2   8  -3 1601.66   49.17
   2  -8   3 1724.52   49.44
  -7  -3   2  459.26   19.28
   7  -3  -2  464.17   21.83
   7   3  -2  484.71   21.00
  -7   3   2  452.94   20.76
   7  -3  -2  478.14   20.68
  -2   6   5 1557.05   57.04
  -2   6   5 1583.15   34.61
  -2  -6   5 1556.76   31.59
  -2  -6   5 1584.32   29.17
   2   6  -5 1583.91   38.06
  -2  11   0  119.05    6.94
  -2  11   0  118.82    9.05
   2  11   0   97.97    5.77
   1   2   5  467.83   17.95
  -1   2  -5  478.61   15.64
   1  -2   5  492.98   11.11
   1   2   5  471.87   13.28
   1  -2   5  450.16   15.94
   6   6  -3  308.12   11.86
  -6  -6   3  275.65   10.65
  -6   6   3  307.38   15.14
  -6   6   3  298.66   13.94
   6  -6  -3  314.13   13.37
   6  -6  -3  324.74   15.12
   7   2  -1    9.97    6.33
   7  -2  -1   14.97    6.54
   7   2  -1    3.37    7.01
  -7   2   1    4.54   10.80
   7  -2  -1    6.46   10.91
  -7  -2   1    7.84    6.11
  -5  -4   5   37.32    3.79
   5  -4  -5   50.74    3.68
  -5   4   5   45.46    6.18
   3   6  -5  783.09   19.83
  -3   6   5  858.46   27.87
  -3   6   5  780.35   17.81
  -1   7  -4 2410.47   69.31
  -1   7  -4 2461.85   63.02
   1  -7   4 2413.50   63.89
   1   7   4 2458.05   77.37
   5  -4   2  612.67   25.28
  -5   4  -2  630.92   24.61
  -5   4  -2  672.51   27.42
  -5  -4  -2  639.24   25.34
   5   4   2  633.25   25.76
   5  -4   2  617.00   24.32
  -1  10   3  993.06   34.72
  -1  10   3  984.42   31.01
   1  10  -3 1000.06   36.46
   3  -2   4  306.78   15.37
   3   2   4  317.78   12.42
  -3  -2  -4  347.30   15.66
  -3   2  -4  344.12   15.31
   3   2   4  312.43   15.77
   3  -2   4  327.70   15.88
   4   9  -3   99.00    1.79
  -4   9   3  133.51   11.59
  -4   9   3   92.25    8.59
  -6   3  -1 2316.17   80.43
   6  -3   1 2387.65   80.67
   6   3   1 2301.34   80.60
  -6  -3  -1 2290.26   79.88
   6  -3   1 2365.59   93.50
  -2  10   3  545.55   20.10
  -2  10   3  567.85   23.28
   2  10  -3  579.43   19.52
   0   8  -4    3.20    3.26
   0   8  -4    0.41    1.92
   0   8   4   -4.13    4.48
   0  -8   4    2.76    1.30
   4  -7   2 2018.24   63.91
  -4  -7  -2 2079.60   65.68
   4  -7   2 2075.09   65.34
  -4   7  -2 2102.76   66.17
  -4   7  -2 2089.71   71.05
   4   7   2 2095.10   65.78
   7  -3  -3  107.09   14.44
   7   3  -3   99.55    9.67
  -7   3   3  110.36   14.83
   7  -3  -3  120.51    9.81
  -7  -3   3   91.74    8.78
   6   0  -5   -6.95    3.35
   6   0  -5    0.24    3.58
  -6   0   5    0.12    3.83
  -4   4  -3  970.65   31.17
   4   4   3  912.73   31.89
   4  -4   3  943.31   29.91
   4  -4   3  962.15   33.22
  -4  -4  -3  893.88   33.13
  -4   4  -3  902.67   34.39
  -1  11   2    2.38    3.74
  -1  11   2    0.36    3.63
   1  11  -2    0.41    1.50
   1  11  -2   -1.76    6.41
   1  11  -2    0.67    1.80
   5  -8  -3 1856.73   57.97
  -5   8   3 1810.76   58.15
  -5   8   3 1808.83   55.21
  -5  -8   3 1882.18   43.76
   5   8  -3 1784.72   42.03
   5  -8  -3 1775.78   53.58
   6  -5  -4  514.06   16.76
  -6   5   4  469.31   17.75
   6   5  -4  495.90   16.71
   6  -5  -4  492.93   26.40
  -6   5   4  477.61   18.98
  -6  -5   4  496.09   14.96
  -6   1   5  125.69    8.29
  -6  -1   5  121.22   11.02
   6  -1  -5  134.06    6.90
   6   1  -5  123.92    7.22
   6  -1  -5  114.63   12.03
   6   1  -5  129.84    7.47
   0  -5   5  565.80   16.27
   0   5  -5  571.17   17.88
   0   5   5  515.55   20.04
  -5   8   0   49.50    7.59
   5  -8   0   41.54    6.72
  -5  -8   0   33.79    5.91
  -5   8   0   45.34    7.39
   5   8   0   35.20    6.52
   5  -8   0   50.13    8.00
  -1   6   5 1021.66   23.92
  -1  -6   5  988.70   22.39
   1   6  -5 1015.72   24.49
  -1   6   5  985.59   32.27
   1  -3   5  460.40   16.24
   1  -3   5  465.98   14.13
  -1   3  -5  467.52   19.15
   1   3   5  461.20   18.32
   1   3   5  449.81   11.41
   7  -3  -1 2498.92   86.88
  -7   3   1 2460.39   87.98
  -7  -3   1 2550.76   85.66
   7   3  -1 2523.25   97.29
   7  -3  -1 2412.77   86.93
  -3   0   6 4928.57  158.70
  -3   0   6 4953.17  155.08
   0  11   2 1212.25   37.56
   0  11   2 1378.13   39.93
   0  11  -2 1247.64   30.14
   0  11  -2 1222.38   38.23
   0  11   2 1328.94   38.45
  -4   8   4   34.17    7.38
  -4   8   4   27.22    6.66
   3 -10   1 1025.24   33.68
  -3  10  -1  979.75   31.32
  -3  10  -1  985.32   32.75
   3 -10   1 1009.10   33.77
   3  10   1 1004.62   30.27
   7   0  -4  442.15   23.01
   7   0  -4  349.82   21.96
  -7   0   4  393.27   16.46
   5  -7  -4 2112.48   66.69
  -5   7   4 2113.28   61.85
   5   7  -4 2125.92   45.07
  -5  -7   4 2132.86   46.70
   5  -7  -4 2122.40   59.95
  -5   7   4 2036.88   64.72
   7  -4  -2  648.71   35.90
   7  -4  -2  640.83   25.81
   7   4  -2  616.92   26.11
  -7  -4   2  601.60   23.13
  -7   4   2  599.88   25.16
   2  11  -2 1285.72   24.91
  -2  11   2 1297.77   45.94
  -2  11   2 1389.71   48.60
   2  11  -2 1317.87   25.66
  -3   1   6    2.30    3.71
  -3  -1   6    4.98    3.20
  -3  -1   6    4.41    3.22
  -3   1   6    2.92    3.59
  -6  -7   2 1691.27   48.65
   6   7  -2 1795.18   55.39
   6  -7  -2 1770.27   57.68
   6  -7  -2 1720.44   56.69
  -6   7   2 1757.51   57.31
  -6   7   2 1728.65   57.41
   6   2  -5  524.33   15.78
   6   2  -5  564.72   17.93
  -6   2   5  533.98   24.29
   6  -2  -5  539.45   19.72
  -6  -2   5  530.12   20.88
   6  -2  -5  529.61   18.71
  -3  -3  -4  681.06   26.18
   3   3   4  679.14   25.80
  -3   3  -4  723.75   25.56
   3  -3   4  727.52   21.69
   3   3   4  743.14   28.25
   3  -3   4  732.24   27.11
   7  -1  -4    0.95    4.66
  -7  -1   4    4.75    4.74
   7   1  -4    1.87    4.80
  -7   1   4    3.75    4.93
   7   1  -4    6.63    4.57
   7  -1  -4    9.12    4.70
   0  10  -3  894.98   27.99
   0  10  -3  957.87   18.26
   0  10   3  936.99   27.78
   0  10   3  987.80   30.93
  -3   7  -3  290.74   12.86
   3   7   3  290.81   14.68
   3  -7   3  270.13   12.67
   3  -7   3  298.28   17.38
  -3   7  -3  307.39   22.71
   4  10  -1 1106.63   30.23
   4 -10  -1 1114.63   36.32
  -4  10   1 1096.97   42.70
  -4  10   1 1115.10   35.29
   4 -10  -1 1126.14   34.13
  -4  -6   5 1752.18   29.60
  -4  -6   5 1717.24   29.76
  -4   6   5 1757.45   53.96
  -4   6   5 1775.02   44.19
  -2   0   6  266.91   10.46
  -2   0   6  233.45   10.17
   5  -7   1   -3.69    5.19
  -5   7  -1  -10.19    6.22
  -5   7  -1   -4.63    5.21
   5  -7   1   -1.15    5.70
   5   7   1    0.23    5.11
  -5  -7  -1   -3.53    4.69
  -2  10  -2  234.49   11.61
  -2  10  -2  233.85   12.14
   2 -10   2  234.86   10.98
   2  10   2  237.60   11.43
   2   6   4   69.69    8.09
  -2   6  -4   52.54    9.12
   2  -6   4   40.79    6.27
   2  -6   4   61.17    5.65
  -2   6  -4   54.82    5.89
  -2  -1   6   95.76    9.55
  -2   1   6  101.87    6.93
  -2   1   6  101.33    6.91
  -2  -1   6  102.23    6.24
   6  -6   0   84.15   10.12
   6  -6   0   49.06    9.09
  -6   6   0   56.63    9.18
  -6   6   0   59.66   14.59
   6   6   0   53.17    8.84
  -6  -6   0   63.13    7.86
   3   9   2  380.06   15.66
   3  -9   2  353.16   12.63
   3  -9   2  361.10   22.26
  -3   9  -2  369.77   15.99
  -3   9  -2  385.48   16.67
  -3  10   3 1124.46   40.38
  -3  10   3 1074.34   34.41
  -5   5   5  390.67   16.18
  -5  -5   5  421.20   13.62
   5  -5  -5  402.77   14.64
  -5   5   5  425.14   13.24
   2 -11   1  570.37   16.18
  -2  11  -1  578.38   21.30
   2  11   1  552.77   18.06
  -2  11  -1  588.16   18.31
   6  -4   1   14.74   11.43
   6  -4   1   16.33    7.36
  -6   4  -1   18.87    7.53
  -6  -4  -1   21.12    7.05
   6   4   1    6.23    7.54
  -2   9   4   56.97    7.49
  -2   9   4   41.79    5.05
   2   9  -4   51.24    5.54
  -6  -7   1    3.40    7.10
  -6   7   1    3.64    5.61
   6  -7  -1   10.85    5.78
   6  -7  -1    8.57    5.88
  -6   7   1    5.11    5.74
   6   7  -1    2.86    5.39
  -3   2   6 3651.99  114.05
  -3  -2   6 3628.64  106.99
  -3   2   6 3533.26  109.62
  -3  -2   6 3542.57  100.83
   7   4  -3  808.73   37.55
  -7  -4   3  806.73   26.75
   7  -4  -3  759.53   28.77
  -7   4   3  734.20   27.82
   7  -4  -3  743.77   34.48
  -4   0   6  267.94    9.68
   4  10  -2  327.44   10.43
   4 -10  -2  338.47   14.76
   4 -10  -2  343.20   14.81
  -4  10   2  320.54   14.63
  -4  10   2  330.78   15.04
   7   2  -4  492.66   18.34
  -7  -2   4  534.71   25.85
  -7   2   4  488.00   27.11
   7  -2  -4  498.34   19.66
   7   2  -4  505.24   19.99
   7  -2  -4  498.57   18.91
  -4   9  -1   35.86    6.98
  -4  -9  -1   36.56    6.08
   4  -9   1   38.48    6.13
   4  -9   1   52.44   11.23
  -4   9  -1   42.46    7.42
   4   9   1   36.37    6.35
  -3  11   1  455.54   18.67
   3  11  -1  509.27   13.33
   3 -11  -1  422.66   16.41
  -3  11   1  481.47   17.56
  -5   5  -2  526.73   23.93
  -5  -5  -2  489.85   22.31
  -5   5  -2  524.15   28.86
   5   5   2  515.51   30.39
   5  -5   2  509.07   21.58
   5  -5   2  474.20   21.87
   0  12   0  523.86   20.35
   0  12   0  505.50   15.15
   7   0   0  877.36   34.88
   7   0   0  974.36   37.70
  -7   0   0  889.33   35.40
  -4   1   6   68.47    6.15
  -4  -1   6   66.66    7.56
  -2  -2   6   78.81    8.10
  -2   2   6   73.86    6.90
  -2   2   6   77.66    7.14
  -2  -2   6   73.06    5.24
  -1   9   4 2190.80   68.63
  -1   9   4 2110.23   58.71
  -1   9   4 2275.54   71.47
   1   9  -4 2282.46   65.56
  -1   4  -5 1203.17   31.11
   1  -4   5 1212.56   29.14
   1   4   5 1166.68   29.04
   1  -4   5 1185.25   35.59
  -1   4  -5 1180.16   32.35
   1   4   5 1185.72   38.53
   6  -3  -5   64.90    5.46
   6   3  -5   56.54    5.01
  -6  -3   5   69.98    5.68
  -6   3   5   59.09    7.32
   6  -3  -5   66.41    7.45
   7   1   0   51.34    9.50
  -7   1   0   61.32    9.63
   7  -1   0   54.82   10.49
   7  -1   0   61.94   14.42
  -7  -1   0   42.98    9.52
  -5   9   2  448.78   19.08
   5  -9  -2  464.43   25.47
  -5   9   2  481.62   25.85
  -5  -9   2  480.73   12.44
   5  -9  -2  467.57   18.65
   5   9  -2  459.61   15.12
  -5   9   1   50.68    7.12
  -5   9   1   47.72    7.59
   5   9  -1   39.46    6.35
  -5  -9   1   38.60    4.99
   5  -9  -1   45.51    7.61
   5  -9  -1   43.91   10.54
  -4  -5  -3   54.78    8.57
  -4   5  -3   41.32    9.64
   4  -5   3   52.45    7.06
   4   5   3   57.03    8.66
  -4   5  -3   48.03    7.14
   4  -5   3   48.31    8.12
  -7  -4   1    5.17    5.70
  -7   4   1    1.06    7.04
   7  -4  -1    7.89    6.87
   7  -4  -1   11.35    6.56
   7   4  -1    2.99    5.86
   2   7  -5   38.31    4.16
  -2   7   5   34.69    5.06
  -2   7   5   31.75    6.74
   6   7  -3  290.58   16.54
  -6  -7   3  322.54   10.61
   6  -7  -3  304.75   22.33
   6  -7  -3  332.87   14.47
  -6   7   3  309.32   14.95
  -6   7   3  323.85   16.13
  -3   9   4 1805.76   66.14
  -3   9   4 1743.17   49.11
   3   7  -5   85.15    5.70
  -3   7   5   75.00    4.76
  -3   7   5  101.14    8.88
  -1  12   0   49.77    5.14
  -1  12   0   31.17    7.55
   1  12   0   49.02    6.82
   1  12   0   42.60    4.61
   4  10   0  524.48   17.84
   4 -10   0  536.46   18.49
   4 -10   0  515.84   21.82
  -4  10   0  507.88   21.64
  -4  10   0  504.27   19.74
  -4   2   6   92.35    7.34
  -4  -2   6   97.12    5.37
  -4  -2   6   94.57    5.62
   4   2  -6   94.36    2.53
   4   2  -6   93.83    2.83
   3  -4   4    8.34    4.01
  -3   4  -4    8.25    5.25
  -3  -4  -4   10.76    8.92
   3   4   4   -2.65    5.93
   3  -4   4   11.36    5.80
  -3   4  -4    8.40    4.53
   1  11   2   10.42    4.58
  -1  11  -2    5.82    5.49
   1 -11   2    7.54    2.48
  -1  11  -2    9.61    5.07
   3 -11   0  964.22   28.04
   3  11   0  959.24   31.63
  -3  11   0  961.29   32.95
  -3  11   0  965.71   36.04
  -3   3   6   28.69    5.99
   3   3  -6   33.36    1.25
  -3  -3   6   35.62    3.63
  -3  -3   6   43.17    3.80
  -3   3   6   38.47    5.87
  -6   6   4   69.82   12.67
   6  -6  -4   69.73    8.32
  -6  -6   4   79.97    4.96
   6   6  -4   58.05    4.38
   6  -6  -4   72.03    6.71
  -6   6   4   83.60    7.31
  -7   2   0  658.47   29.52
   7  -2   0  656.15   28.90
  -7  -2   0  672.42   28.30
   7   2   0  653.10   27.78
   7  -2   0  723.05   31.52
   7  -3  -4  814.86   29.24
  -7   3   4  834.85   29.24
  -7  -3   4  821.44   27.53
   7   3  -4  846.90   26.20
   7  -3  -4  807.69   27.46
  -1   0   6 3515.53  108.44
   0   6  -5  815.27   25.51
   0  -6   5  835.80   22.35
   0   6   5  765.36   28.41
   0  12   1  242.19   17.62
   0  12   1  197.00    9.86
   0  12   1  231.95    9.98
   0  12  -1  206.91   12.24
   0  12  -1  202.97    7.64
   7  -5  -2  831.85   31.45
  -7   5   2  772.97   31.20
  -7  -5   2  784.77   27.77
   7   5  -2  796.09   38.38
  -7   5   2  818.13   31.09
   7  -5  -2  791.27   30.21
   1  12  -1  160.24   11.54
  -1  12   1  171.23   13.03
   1  12  -1  175.89    8.60
  -1  12   1  175.17   11.08
   1  12  -1  177.38    6.20
   3  11  -2   93.61    4.22
  -3  11   2   91.99    8.43
  -3  11   2   89.28    8.19
   3  11  -2   96.21    4.08
  -1   1   6   18.01    5.00
  -1  -1   6   15.03    6.84
   2  -9   3  306.06   10.11
  -2   9  -3  261.79   13.29
   2   9   3  314.60   15.01
  -2   9  -3  293.67   12.82
  -2  -3   6  790.17   24.88
  -2   3   6  751.43   25.37
  -2  -3   6  778.97   19.37
  -2   3   6  772.86   25.23
  -1   8  -4  136.90    7.89
  -1   8  -4  126.44    7.84
   1  -8   4  133.17    5.75
   1   8   4  152.26   15.97
  -1   7   5    4.92    3.70
  -1   7   5   14.18    5.25
   1   7  -5    2.70    3.17
  -1  -7   5    6.91    2.14
   4  -8   2   89.09    8.34
  -4   8  -2   86.61    9.99
   4   8   2   96.89    9.36
  -4   8  -2   96.82    9.11
  -4  -8  -2   84.45    9.09
   4  -8   2   82.26    9.08
   2   0   5    1.53    4.90
  -2   0  -5    0.54    4.79
   2   0   5    4.07    2.72
  -1  10  -3  593.86   17.32
   1  10   3  741.05   25.07
   1 -10   3  678.93   14.79
  -1  10  -3  673.29   22.48
   6  -5   1  947.33   47.01
   6   5   1  908.88   35.66
  -6   5  -1  949.75   37.04
   6  -5   1  947.94   37.09
  -6   5  -1  960.85   35.80
  -6  -5  -1  956.32   44.73
  -7  -5   3   -0.07    4.41
   7   5  -3    9.58    5.48
  -7   5   3    3.78    5.79
   7  -5  -3   -0.09    5.68
   7  -5  -3    6.62    5.24
   6  -4  -5 1325.54   40.81
  -6  -4   5 1345.99   35.82
  -6   4   5 1304.01   41.24
   6  -4  -5 1289.56   41.69
   6   4  -5 1298.09   36.25
   4   3  -6  959.54   18.82
  -4  -3   6  998.08   23.95
  -4  -3   6  975.84   27.28
  -4   3   6 1055.89   38.86
  -1  -2   6 1879.16   58.31
  -1   2   6 1840.43   64.57
   2   1   5 2593.12   84.28
  -2   1  -5 2591.89   82.11
  -2  -1  -5 2610.83   85.11
   2  -1   5 2645.60   84.55
   2   1   5 2570.84   73.42
   2  -1   5 2591.00   68.30
   0  -9   4   28.50    2.24
   0   9   4    3.36    4.51
   0   9   4   30.60    6.73
   0   9  -4   30.01    2.22
   0   9  -4   26.76    4.97
   7  -3   0  624.98   28.86
   7   3   0  525.37   24.70
  -7  -3   0  575.01   24.10
  -7   3   0  533.69   25.04
   7  -3   0  518.81   25.71
  -5   0   6 3300.44   98.85
   5   0  -6 3229.26   77.33
   5  -6  -5  234.25    8.47
  -5   6   5  231.65    9.60
  -5  -6   5  225.83    5.83
  -5   6   5  214.49   12.86
  -4   7   5   27.02    4.12
  -4   7   5   19.88    6.67
  -5  -9   3  364.85    8.19
  -5   9   3  379.26   15.81
  -5   9   3  346.55   17.00
   5   9  -3  353.61    9.10
   5  -9  -3  336.08   16.94
   5  -9  -3  329.70   14.95
  -1   5  -5   48.88    5.32
   1   5   5   74.52    8.09
   1  -5   5   74.10    6.76
  -1   5  -5   61.37    5.43
  -5  -1   6   11.19    3.76
  -5   1   6   13.13    4.23
   5   1  -6    3.65    3.33
   5  -1  -6    6.88    1.54
  -1  12  -1  355.52   11.97
  -1  12  -1  342.53   16.59
   1  12   1  360.02   13.04
   1  12   1  352.91   13.12
  -7  -5   1  889.75   32.60
   7  -5  -1  941.46   36.12
  -7   5   1  895.89   37.78
   7  -5  -1  856.74   45.61
   7   5  -1  925.07   34.11
   5   9   0 1429.16   52.77
  -5   9   0 1381.53   56.26
  -5   9   0 1474.81   49.74
  -5  -9   0 1499.42   44.59
   5  -9   0 1453.10   46.77
   5  -9   0 1501.76   51.16
   2  -7   4   86.31   10.39
   2   7   4   88.84    9.83
  -2   7  -4   89.71    6.89
   2  -7   4   89.44    7.19
  -2   7  -4   90.20    7.35
  -4  10   3  488.37   20.24
  -4  10   3  474.78   18.62
  -5   8   4  138.23   11.41
  -5   8   4  147.96    9.08
   5  -8  -4  159.49    8.80
   2  12  -1  370.02   12.95
  -2  12   1  362.50   16.93
   2  12  -1  377.85   10.60
  -2  12   1  357.80   19.11
   6  -7   0  557.52   23.99
   6  -7   0  573.45   25.85
  -6   7   0  528.37   23.85
  -6   7   0  533.78   25.12
  -6  -7   0  546.71   21.32
   6   7   0  509.07   30.28
  -5   6  -2   42.15    8.55
   5  -6   2   37.31    7.84
   5  -6   2   33.83   12.40
  -5   6  -2   40.90    7.49
   5   6   2   41.56    8.10
  -5  -6  -2   31.45    8.20
  -3  -4   6 1444.23   32.98
  -3  -4   6 1453.55   33.87
   3   4  -6 1425.24   31.10
  -3   4   6 1425.59   44.03
  -6  -8   2   63.44    6.25
   6  -8  -2   85.05    9.24
   6  -8  -2   83.49   14.30
  -6   8   2  107.69    9.31
   6   8  -2   79.03    7.69
  -6   8   2   80.62    9.44
  -5   0  -3    6.54    6.20
   5   0   3   -0.59    4.71
   5   0   3   -2.93    6.18
  -7  -4   4   85.04    8.22
   7  -4  -4  101.43    9.87
   7  -4  -4   95.06    8.49
   7   4  -4   88.50   11.10
  -7   4   4  100.54    9.67
   2   2   5   71.96    8.64
  -2  -2  -5   61.56    8.47
   2   2   5   73.34    5.15
   2  -2   5   67.21    8.02
   2  -2   5   70.11    4.86
  -2   2  -5   43.58   10.63
  -3   8  -3  371.80   22.23
   3  -8   3  402.75   14.76
   3  -8   3  392.75   16.00
   3   8   3  377.35   17.47
  -3   8  -3  354.27   18.98
  -5   8  -1 1858.46   67.63
  -5  -8  -1 1860.63   68.97
  -5   8  -1 1851.17   61.94
   5  -8   1 1863.30   63.96
   5   8   1 1852.79   60.51
   5  -8   1 1843.45   61.14
   2  12   0  841.39   22.99
   2  12   0  810.70   22.54
  -2  12   0  809.11   24.73
  -2  12   0  855.39   30.48
   5  -1   3 2759.41  111.71
   5  -1   3 2684.83   89.74
   5   1   3 2733.44   90.10
  -5  -1  -3 2682.71  112.77
  -5   1  -3 2813.75  100.76
   5   1   3 2584.54   94.45
  -4   9   4  201.06   10.17
  -4   9   4  198.57   12.37
  -1  11   3  461.70   16.92
  -1  11   3  480.65   18.36
   1  11  -3  498.95   18.59
   3   5   4 1218.84   52.03
   3  -5   4 1229.31   36.76
  -3   5  -4 1250.24   41.36
   3  -5   4 1294.25   42.43
  -3  -5  -4 1286.06   44.06
  -3   5  -4 1246.43   38.08
   4  -6   3 1199.19   49.57
  -4   6  -3 1189.04   38.71
   4  -6   3 1182.21   38.35
   4   6   3 1155.48   50.43
  -4  -6  -3 1135.69   40.68
  -4   6  -3 1145.29   44.69
  -6   0  -2  709.97   31.56
   6   0   2  671.38   31.19
   6   0   2  711.09   28.74
  -2   4   6   54.59    6.81
  -2  -4   6   48.73    3.89
  -2   4   6   41.41    6.65
  -2  -4   6   36.15    3.63
   2   4  -6   33.66    2.22
  -2  11   3  669.29   28.20
  -2  11   3  616.73   22.81
   2  11  -3  661.00   23.15
  -5   2   6 1512.02   53.43
   5   2  -6 1553.74   36.63
  -5  -2   6 1515.81   39.99
   5  -2  -6 1476.80   30.05
  -1  -3   6   61.88    7.93
  -1   3   6   42.03    7.42
   6   1   2   93.85   11.02
   6  -1   2   86.12   11.37
   6  -1   2  120.51   11.21
  -6  -1  -2   98.71   12.70
  -6   1  -2   73.80   12.22
   6   1   2   99.41   12.66
  -6   8   1 2242.22   74.27
  -6   8   1 2122.19   74.60
  -6  -8   1 2163.65   68.28
   6   8  -1 2249.09   84.65
   6  -8  -1 2221.69   76.94
   6  -8  -1 2259.07   75.99
  -5  -2  -3    9.42    6.87
   5   2   3    6.50    6.74
   5  -2   3    9.63    6.71
  -5   2  -3    0.84    7.06
   5  -2   3    2.13    5.71
  -4  -4   6  118.50    4.83
  -4  -4   6  111.48    6.58
   4   4  -6  117.86    4.37
  -4   4   6  115.54    9.11
  -1  12   2  662.39   22.79
  -1  12   2  613.41   21.52
   1  12  -2  620.40   14.55
   1  12  -2  598.48   11.95
   1  12  -2  627.52   23.41
  -7   6   2   39.15    8.15
   7  -6  -2   53.59    8.95
   7   6  -2   28.52    7.90
  -7   6   2   44.68    9.06
   7  -6  -2   51.03    8.49
  -7  -6   2   30.84    6.52
   7  -4   0  381.60   29.19
   7  -4   0  419.50   23.15
   7   4   0  368.35   20.11
  -7   4   0  375.73   21.79
  -7  -4   0  404.68   28.42
   3 -11   1   82.80    9.85
   3  11   1   83.38    7.64
  -3  11  -1   93.85    8.19
  -3  11  -1   99.11    9.39
   2   3   5 1526.46   50.96
   2  -3   5 1565.72   40.77
   2   3   5 1592.11   42.51
  -2   3  -5 1609.55   48.86
   2  -3   5 1624.80   60.81
   7   0  -5    1.68    4.38
  -7   0   5   -5.68    4.27
   7   0  -5   -1.81    4.36
   6  -2   2 1026.25   41.23
   6   2   2 1104.22   40.84
  -6  -2  -2 1015.35   55.90
   6  -2   2 1094.27   40.54
   6   2   2 1084.63   44.00
  -6   2  -2 1040.32   44.27
   2   8  -5 1407.16   38.00
  -2   8   5 1353.16   34.18
  -2   8   5 1374.49   46.68
  -2   8   5 1349.18   44.40
  -3  10  -2  517.85   21.08
  -3  10  -2  539.63   28.97
   3 -10   2  514.88   16.73
   3 -10   2  534.09   21.30
   3  10   2  514.76   20.33
   6  -8  -3   92.57    9.70
  -6   8   3   67.02   14.84
  -6   8   3   90.74    8.76
  -6  -8   3   85.20    5.06
   6  -8  -3   87.70    8.42
   6   8  -3   67.37    7.42
  -6   8   3   65.84   14.10
   6  -7  -4  604.85   24.48
  -6   7   4  587.20   23.97
   6  -7  -4  606.85   20.42
  -6  -7   4  591.33   15.10
   6   7  -4  638.41   17.63
  -6   7   4  581.03   21.76
   6  -5  -5    2.89    3.73
  -6   5   5    3.80    8.62
   6   5  -5    8.06    2.66
  -6  -5   5   11.71    3.61
   6  -5  -5   13.36    5.63
   0   7  -5   32.95    4.58
   0   7   5   37.30    7.29
   0  -7   5   26.97    5.53
   0  11  -3  354.24    8.83
   0  11   3  396.16   16.77
   0  11   3  362.19   16.41
   0  11  -3  381.02   22.27
   0  11   3  413.16   15.61
   7   1  -5 2913.89   92.13
  -7   1   5 2849.32   92.79
   7   1  -5 2812.83   86.71
  -7  -1   5 2864.10   89.98
   7  -1  -5 2809.08   96.16
   7  -1  -5 2818.32   90.79
   4  11  -1  152.35    7.76
  -4  11   1  154.43   10.59
   4 -11  -1  146.17    9.89
  -4  11   1  120.67   11.15
  -2  11  -2 1092.29   42.08
   2  11   2 1146.20   35.81
   2 -11   2 1083.88   28.23
  -2  11  -2 1149.03   36.93
  -3   8   5  672.85   32.70
  -3   8   5  578.38   16.32
   3   8  -5  601.45   18.24
   2  10  -4  337.45   13.96
  -2  10   4  318.61   12.65
  -2  10   4  357.62   16.31
   0   0   6  155.52   13.72
   0  12   2   15.13    5.01
   0  12   2   11.68    5.65
   0  12   2   18.76    5.13
   0  12  -2   22.18    9.22
   0  12  -2   13.34    3.24
  -5  -3   6   99.14    5.32
  -5   3   6   83.07    8.17
   5  -3  -6   89.80    3.32
   8   0  -2  769.10   32.97
  -8   0   2  758.01   32.29
  -4  10  -1  398.82   25.40
   4 -10   1  364.96   15.15
   4 -10   1  369.49   17.73
   4  10   1  396.10   16.02
  -4  10  -1  367.29   24.03
   4   0   4 1218.77   38.02
  -4   0  -4 1235.08   44.84
   4   0   4 1178.99   54.34
   6   6   1   59.59    9.95
  -6  -6  -1   50.42    9.39
  -6   6  -1   57.37    9.46
  -6   6  -1   61.15   16.05
   6  -6   1   78.07    9.67
   6  -6   1   75.34   15.46
   0   1   6   48.18    7.16
   0  -1   6   56.93    6.39
  -2  12   2   30.35    6.26
   2  12  -2   23.17    1.99
  -2  12   2   21.79    5.88
   2  12  -2   20.89    3.10
  -8   0   3    3.11    8.89
   8   0  -3   -2.59    6.39
   7  -6  -3 1364.23   49.13
   7   6  -3 1356.46   47.35
  -7  -6   3 1433.12   42.62
  -7   6   3 1373.52   48.63
  -7   6   3 1454.60   48.84
   7  -6  -3 1329.07   46.14
  -3  11   3  334.03   14.53
  -3  11   3  335.17   16.02
  -8  -1   2   28.08    8.19
   8   1  -2   34.57    8.60
  -8   1   2   32.18    8.87
   8  -1  -2   42.68    9.17
   8  -1  -2   -1.21    8.39
  -4   1  -4  174.75   12.48
  -4  -1  -4   94.40   12.35
   4  -1   4  139.83    9.25
   4   1   4  138.50   13.91
   4  -1   4  118.77   12.17
   4   1   4  121.64   12.14
  -8   1   3 2866.66  101.72
  -8  -1   3 2867.75  100.55
   8   1  -3 2835.25  119.69
   8  -1  -3 2818.20  103.60
  -1  10   4    2.96    4.65
  -1  10   4    6.36    4.80
  -1  10   4   -3.79    3.36
   1  10  -4    0.60    3.73
  -3   5   6   23.66    6.22
  -3  -5   6   23.38    3.60
   3   5  -6   10.80    4.14
  -3  -5   6   27.28    2.57
  -5   3  -3 1733.53   66.26
   5  -3   3 1813.71   63.79
   5   3   3 1779.51   63.26
  -5  -3  -3 1740.40   63.83
   5  -3   3 1773.37   58.87
   5 -10  -2  389.85   17.90
   5  10  -2  403.78   14.33
  -5  10   2  392.38   18.34
   5 -10  -2  364.51   18.06
  -5  10   2  383.45   18.17
  -4  11   2  918.38   31.56
   4 -11  -2  875.91   30.01
  -4  11   2  905.75   31.61
   4  11  -2  879.13   23.20
   7  -5  -4  859.56   41.53
  -7   5   4  874.01   32.49
   7  -5  -4  894.72   29.81
   7   5  -4  904.70   26.85
  -7  -5   4  860.34   27.34
   1   4  -6 1067.04   25.23
  -1   4   6 1032.13   35.01
  -1  -4   6 1077.91   29.02
   5  10  -1  353.71   14.89
  -5  10   1  347.80   16.96
   5 -10  -1  347.01   16.28
  -5  10   1  341.55   17.32
   5 -10  -1  360.09   18.17
  -5 -10   1  355.81   12.47
  -7  -2   5   -2.52    4.03
  -7   2   5   -3.57    4.65
   7  -2  -5    5.18    3.97
   7  -2  -5   12.11    7.00
   7   2  -5   -2.21    4.48
   7   2  -5   -4.24    3.58
   1   6   5 1257.27   43.80
  -1   6  -5 1266.63   33.17
   1  -6   5 1269.59   37.16
  -1   6  -5 1322.58   36.14
  -7  -6   1   51.67    8.13
   7  -6  -1   53.64    9.77
  -7   6   1   53.51   10.52
   7   6  -1   40.95    8.70
  -7   6   1   48.73    9.77
   7  -6  -1   57.40    9.89
  -3  10   4   46.71    6.00
  -3  10   4   47.08    7.84
  -1   8   5 1158.57   28.93
  -1   8   5 1164.46   40.13
  -1   8   5 1127.65   38.34
   1   8  -5 1144.35   31.85
  -6  -3  -2  824.43   34.74
  -6   3  -2  813.14   35.76
   6  -3   2  806.07   34.37
   6   3   2  862.21   48.65
   6  -3   2  811.66   33.50
   6   3   2  845.67   33.65
  -2  -5   6 1349.81   31.88
  -2   5   6 1288.23   42.71
  -2   5   6 1251.05   42.90
   2   5  -6 1318.60   29.14
  -2  -5   6 1338.86   32.39
   2 -12   1  229.75    9.32
  -2  12  -1  221.77   11.03
  -2  12  -1  213.01   13.94
   2  12   1  235.29   10.83
   0  -2   6    4.30    3.95
   0   2   6    2.67    4.86
   8   2  -2 1142.44   44.80
   8  -2  -2 1173.66   44.77
   8  -2  -2 1153.73   46.85
  -8   2   2 1117.93   44.95
  -8  -2   2 1142.89   53.46
  -5   7   5   59.48    8.46
  -5   7   5   65.48    6.27
   4   2   4  885.93   34.55
  -4   2  -4  951.14   36.86
   4   2   4  991.59   39.44
   4  -2   4  946.48   30.27
   4  -2   4  962.89   37.57
  -4  -2  -4  940.71   36.06
   3  12  -1  212.32    8.12
  -3  12   1  206.56   19.65
  -3  12   1  217.33   11.66
   3  12  -1  211.09    7.58
  -1   9  -4 1793.14   43.84
  -1   9  -4 1697.22   52.20
   1   9   4 1782.21   69.16
   1  -9   4 1768.97   42.13
   8   2  -3   15.20    8.58
   8  -2  -3   24.41    8.41
  -8  -2   3   28.27    7.32
  -8   2   3   29.24    7.79
   8  -2  -3    0.05    7.83
  -3   6  -4   44.93    6.72
   3  -6   4   50.28    7.67
   3   6   4   40.91    8.40
  -3   6  -4   66.69   11.99
   3  -6   4   35.51    6.29
  -2   4  -5  180.67   10.17
   2   4   5  187.17    8.63
   2  -4   5  171.77   11.99
   2  -4   5  178.50    7.97
   2   4   5  181.06   12.58
  -7   0  -1    0.10    7.25
   7   0   1    0.14    6.81
   7   0   1    9.30    6.77
  -5   7  -2  524.88   22.60
   5  -7   2  476.13   21.76
   5  -7   2  538.17   22.85
   5   7   2  516.94   23.53
  -5  -7  -2  512.17   22.98
  -5   7  -2  494.61   23.74
  -4   9  -2 1584.76   52.46
   4  -9   2 1505.38   48.03
  -4   9  -2 1580.72   56.01
   4  -9   2 1570.84   62.47
   4   9   2 1572.69   52.14
   4 -11   0  386.09   19.14
   4  11   0  368.33   19.23
  -4  11   0  375.86   18.93
   4 -11   0  382.26   15.18
  -4  11   0  363.92   16.22
  -4   5   6 1417.77   46.68
  -4  -5   6 1404.53   30.22
   4   5  -6 1399.76   33.11
  -4  -5   6 1425.13   33.33
  -4   8   5 1281.72   44.45
  -4   8   5 1304.65   35.44
   2  10   3  938.00   40.35
  -2  10  -3  888.28   29.78
  -2  10  -3  717.05   34.52
   2 -10   3  872.05   22.56
   7  -1   1  214.09   16.50
   7   1   1  225.29   16.33
   7   1   1  227.52   16.38
  -7   1  -1  201.25   17.43
   7  -1   1  199.73   24.33
  -7  -1  -1  223.32   16.98
   0  13   0    3.99    3.58
   0  13   0    8.27    5.94
   0  13   0    5.75    3.47
  -6   0   6  210.20   14.25
   6   0  -6  186.26   10.18
  -7   5   0 1093.72   45.02
   7  -5   0 1058.25   42.62
  -7  -5   0 1128.54   42.05
   7   5   0 1152.44   43.71
   7  -5   0 1203.66   48.45
  -5   4   6 1350.50   43.58
  -5  -4   6 1387.08   37.33
   4  -7   3    7.43    9.94
  -4   7  -3   13.64    6.48
   4  -7   3   12.57    6.25
  -4  -7  -3   27.51    7.33
   4   7   3   28.04    7.29
  -4   7  -3   24.66   12.54
   7   3  -5 1977.33   56.06
  -7  -3   5 1927.61   58.35
   7  -3  -5 1918.42   63.49
   7  -3  -5 1994.63   59.31
  -7   3   5 1923.75   63.28
  -2   8  -4   40.80    6.88
   2  -8   4   57.26    5.90
  -2   8  -4   68.85    6.29
   2   8   4   58.50    8.99
   6  -8   0   22.03    8.22
   6  -8   0   23.52    7.13
   6   8   0   14.13    6.82
  -6   8   0   10.01    7.66
  -6   8   0   24.09    7.98
  -6  -8   0   16.28    6.35
  -6  -1   6   11.33    4.48
   6   1  -6    6.11    5.46
  -6   1   6   11.26    4.96
   6  -1  -6   13.11    2.90
   1  12   2  561.65   20.53
   1  12   2  549.42   26.70
  -1  12  -2  560.67   17.71
  -1  12  -2  558.57   22.16
  -3  12   0  211.16   13.28
   3  12   0  186.93   13.10
   3 -12   0  193.20   10.16
  -3  12   0  181.69   15.86
  -8   0   1    6.00   11.19
   8   0  -1    6.56   11.10
   0  -3   6  746.75   23.36
   0   3   6  753.54   27.53
   5   4   3    2.22    5.56
   5  -4   3    5.29    5.36
  -5   4  -3   -1.88    6.77
  -5  -4  -3   13.61    6.44
   5  -4   3   -2.66    6.08
   5   4   3   -4.62    6.64
   8  -3  -2  646.43   32.70
  -8   3   2  670.80   31.53
  -8  -3   2  670.35   27.72
   8   3  -2  649.16   29.53
   8   3  -2  714.04   29.97
   8  -3  -2  690.98   30.29
  -5   9   4 1473.82   50.73
  -5   9   4 1523.46   55.22
   7  -2   1  341.96   21.25
  -7  -2  -1  370.18   21.47
   7  -2   1  357.34   20.86
   7   2   1  347.29   20.83
  -7   2  -1  339.85   20.72
   7   2   1  364.76   21.15
  -8   1   1  100.32   13.19
  -8  -1   1  104.03   12.40
   8  -1  -1  127.24   13.74
   8   1  -1  109.09   13.22
   4  -3   4  123.26   12.18
   4   3   4  143.25   12.72
   4   3   4  101.96    9.44
  -4   3  -4  113.14   12.06
  -4  -3  -4  112.08   12.62
   4  -3   4  128.56    9.28
  -8  -3   3 2103.20   70.60
   8  -3  -3 1969.35   70.54
   8   3  -3 1940.69   73.06
   8   3  -3 2052.40   72.25
  -8   3   3 2059.22   71.91
   8  -3  -3 2010.13   73.90
   0  10  -4  222.02   11.50
   0  10   4  230.43   13.90
   0  10   4  222.61   10.51
   1  13   0  189.68    8.94
  -1  13   0  197.61    9.49
   1  13   0  197.72    8.65
   1  13   0  218.86   13.28
  -1  13   0  193.14   13.61
  -6  -9   2 1253.59   35.31
   6   9  -2 1310.36   48.80
   6  -9  -2 1257.62   45.19
   6  -9  -2 1280.52   54.76
  -6   9   2 1230.99   45.47
  -6   9   2 1295.44   45.68
   3  12  -2  430.19    9.88
  -3  12   2  522.38   25.85
  -3  12   2  489.21   19.46
   3  12  -2  459.68   11.16
  -6   6   5 1842.74   55.83
   6  -6  -5 1819.30   51.51
  -6   6   5 1757.91   58.93
  -6  -6   5 1897.98   51.70
   8   0  -4  836.83   31.87
  -8   0   4  805.41   31.28
   8   0  -4  819.00   31.34
   3  -9   3    2.10    5.23
  -3   9  -3    2.65    6.48
   3  -9   3    8.33    4.09
  -3   9  -3    2.38    5.23
   3   9   3    6.32    5.72
  -1  11  -3  211.97   12.25
  -1  11  -3  207.40   12.58
   1 -11   3  242.89    6.74
   1  11   3  258.78   13.99
   6   4   2  230.13   17.37
  -6  -4  -2  228.75   17.53
   6  -4   2  236.96   16.61
  -6   4  -2  245.60   17.81
   6  -4   2  229.61   16.02
  -5   9  -1   12.53    6.62
  -5  -9  -1    8.60    8.78
   5  -9   1    9.34    5.83
   5   9   1    6.69    6.16
  -5   9  -1    7.29    7.11
   5  -9   1   17.28    6.88
  -7  -7   2  807.26   27.58
   7   7  -2  836.83   29.83
  -7   7   2  782.27   31.37
  -7   7   2  775.56   32.60
   7  -7  -2  763.61   31.10
   7  -7  -2  791.99   33.24
  -5  10   3 1218.72   43.10
   5 -10  -3 1250.74   43.85
   5 -10  -3 1202.67   40.57
   5  10  -3 1264.11   31.40
  -5  10   3 1208.57   40.88
  -6   2   6  117.75   12.74
   6  -2  -6   98.88    4.96
  -6  -2   6  106.61    7.04
   6   2  -6  106.15    6.79
  -1   5   6   -0.64    4.81
   1   5  -6    2.02    2.10
  -1   5   6    0.38    0.48
  -1   5   6    0.19    0.83
  -1  -5   6    0.78    3.01
  -8   1   4  133.22   17.41
  -8  -1   4  120.91   11.51
   8   1  -4  108.88   11.05
   8  -1  -4  120.47   11.09
   8   1  -4  114.75   11.23
   8  -1  -4  117.75   11.51
  -5 -10   0  138.40    9.20
  -5  10   0  137.97   11.06
   5 -10   0  127.58   10.60
  -5  10   0  148.75   18.03
   5 -10   0  151.23   19.48
   5  10   0  132.24    9.89
   0  13   1  958.25   29.36
   0  13  -1  932.97   24.59
   0  13   1  968.16   29.20
   0  13  -1  884.38   33.68
   0  13   1  934.48   33.19
   1  13  -1 1122.82   28.13
  -1  13   1 1100.81   34.08
  -1  13   1 1131.01   48.18
   1  13  -1 1076.87   49.45
   1  13  -1 1124.15   31.75
   8  -2  -1  380.99   22.64
   8  -2  -1  391.83   22.52
  -8  -2   1  390.54   21.55
  -8   2   1  374.36   22.85
   8   2  -1  378.83   30.31
   8   2  -1  393.19   22.21
  -6  -9   1    7.51    5.00
  -6   9   1    4.69    7.09
   6   9  -1   18.01    6.07
  -6   9   1   12.34    6.71
   6  -9  -1   17.51    6.95
   6  -9  -1    3.83    6.47
   3   6  -6  294.01    8.78
  -3   6   6  295.13    6.97
  -3  -6   6  302.72    7.73
  -3   6   6  297.56   15.15
  -3  -6   6  296.44    6.48
  -4  10   4  118.95   13.43
  -4  10   4  132.08   11.24
  -7   6   4   34.20    8.03
   7  -6  -4   31.12   11.24
   7  -6  -4   62.92    8.82
  -7   6   4   47.37    8.77
   7   6  -4   40.04    5.55
  -7  -6   4   49.85    5.81
  -4  11   3  470.27   27.31
  -4  11   3  433.94   18.64
  -6   7  -1   54.77   10.45
  -6   7  -1   55.12    9.47
   6  -7   1   72.74   10.39
   6  -7   1   70.43    9.62
   6   7   1   66.97   15.10
  -6  -7  -1   42.14    9.45
   7  -7  -3   -5.29    6.60
  -7  -7   3    0.44    6.38
   7   7  -3   -0.22    5.80
   7  -7  -3   -8.33    5.94
  -7   7   3   -9.08    6.52
  -7   7   3   -6.97    5.83
  -6  -8   4    0.74    1.87
   6  -8  -4   -0.62    5.42
   6  -8  -4   -0.18    4.12
  -6   8   4   -0.89    4.58
   6   8  -4   -1.95    2.84
  -6   8   4   -3.19    4.91
   0   8  -5  744.99   22.31
   0   8   5  693.90   28.73
   0  -8   5  795.69   19.78
   0   8   5  760.35   20.67
   8   2  -4  571.00   24.01
   8  -2  -4  537.85   24.22
  -8   2   4  522.21   23.76
  -8  -2   4  588.48   24.31
   8  -2  -4  533.40   23.95
   8   2  -4  553.86   22.94
   2  -5   5  952.04   32.87
   2   5   5  919.50   34.50
  -2   5  -5  943.38   35.36
   2  -5   5  885.03   25.65
  -2   5  -5  891.24   27.60
   7  -4  -5   18.56    7.83
   7   4  -5   14.66    4.42
  -7   4   5   21.36    6.28
  -7  -4   5   10.89    8.05
   7  -4  -5   11.43    6.79
  -2  -6   6   -1.86    1.96
  -2   6   6    0.94    1.79
   2   6  -6    0.25    2.17
  -2   6   6   -0.35    4.68
  -2   6   6   11.85    4.90
  -2  -6   6   -0.30    1.39
   7  -3   1  136.71   14.62
   7  -3   1  122.43   16.10
  -7   3  -1  177.92   15.09
   7   3   1  168.39   15.42
  -7  -3  -1  178.42   15.13
  -2   9   5   98.46   10.55
  -2   9   5   89.63    8.86
  -2   9   5   81.51   10.54
   2   9  -5   89.11    6.87
   0   4   6  106.01    2.30
   0   4   6   99.75    2.78
   0   4   6  134.25   15.20
   0  -4   6  110.09   11.16
  -1   7  -5   20.03    4.50
   1   7   5    5.31    6.98
  -1   7  -5    9.46    5.60
   1  -7   5   14.56    6.73
   6   9  -3   34.62    5.73
   6  -9  -3   45.02    7.57
  -6   9   3   39.88    7.93
  -6  -9   3   47.67    4.02
  -6   9   3   35.47    8.45
   6  -9  -3   49.50    8.55
   6  -3  -6  847.54   24.39
  -6  -3   6  857.66   24.30
   6   3  -6  897.38   26.49
  -6   3   6  844.96   29.14
  -5   5   6   86.46    9.25
  -5  -5   6   86.02    5.36
  -5  -5   6   90.43    6.32
  -8  -4   2  339.97   18.40
   8   4  -2  333.80   20.35
   8  -4  -2  344.31   21.44
   8  -4  -2  363.12   22.74
  -8   4   2  375.89   21.46
   7  -7  -1   35.96    8.50
   7  -7  -1   23.96    8.70
  -7   7   1   22.36    8.43
  -7  -7   1   20.09    7.04
   7   7  -1   18.47    7.68
  -7   7   1   30.46    8.57
   3   9  -5  211.24   15.33
  -3   9   5  232.71    9.69
  -3   9   5  226.30   14.64
   4   4   4  443.41   18.14
   4  -4   4  416.54   20.65
  -4  -4  -4  372.87   22.18
   4  -4   4  423.58   17.33
  -4   4  -4  399.30   22.15
   4   4   4  438.88   21.71
  -8   4   3    9.86    6.64
  -8  -4   3    4.88    5.47
   8  -4  -3   -3.85    6.99
   8  -4  -3   10.74    6.58
   8   4  -3   -1.80    6.90
  -4   6   6   36.61    3.33
  -4  -6   6   34.76    2.34
  -4   6   6   39.59   11.38
  -4  -6   6   31.33    1.50
   4   6  -6   33.02    4.04
  -1  12   3   69.60    8.11
  -1  12   3   64.04    7.77
   1  12  -3   70.89    8.56
  -1  12   3   70.38    8.54
  -1  13  -1  896.79   42.97
  -1  13  -1  903.84   26.72
   1  13   1  906.02   28.28
   1  13   1  904.70   27.97
   8  -3  -1  114.54   14.39
   8   3  -1  121.46   14.03
   8  -3  -1  109.22   13.74
   8   3  -1  120.35   13.44
  -8  -3   1   97.10   12.28
  -8   3   1  129.82   14.01
   2  12  -3   98.65    9.67
  -2  12   3   93.35    9.42
  -2  12   3   92.50    8.49
   2  13  -1  916.83   23.03
  -2  13   1  883.54   33.15
   2  13  -1  885.94   26.28
  -2  13   1  892.87   29.21
   3   0   5    6.66    5.49
  -3   0  -5    5.12    8.58
   3   0   5   -4.38    5.75
  -5  -5  -3 1033.24   40.91
   5  -5   3 1050.23   39.79
   5   5   3  992.08   40.89
   5  -5   3 1033.92   37.50
  -5   5  -3 1087.58   57.46
  -7   6   0  124.49   12.84
   7  -6   0  135.74   14.32
  -7  -6   0   91.10   11.64
   7   6   0   93.45   12.42
   7  -6   0  103.35   13.22
  -7   6   0  113.96   13.33
  -3   7  -4 1897.38   62.91
   3  -7   4 1888.67   68.55
  -3   7  -4 1846.48   67.89
   3  -7   4 1825.80   57.42
   3   7   4 1883.94   65.21
  -2  13   0   93.44    7.65
   2  13   0  102.34    9.86
   2  13   0   91.93    6.63
  -2  13   0   97.11   10.56
  -3   1  -5  327.06   17.33
   3  -1   5  296.50   12.07
  -3  -1  -5  322.52   17.39
   3  -1   5  324.25   17.64
   3   1   5  358.39   18.19
   3   1   5  324.30   12.60
   1   0   6 2157.52   69.53
   1   0   6 2075.74   46.10
  -5   8   5  292.82   12.55
  -5   8   5  297.91   15.81
  -8  -3   4  404.86   18.80
   8   3  -4  405.89   18.88
  -8   3   4  409.84   28.48
   8  -3  -4  368.36   20.26
   8  -3  -4  382.33   19.74
   8   3  -4  398.87   20.18
   6  -5   2 1458.03   53.26
   6  -5   2 1402.15   53.28
  -6  -5  -2 1434.38   68.41
  -6   5  -2 1401.90   55.86
   6   5   2 1462.47   56.14
   3 -11   2  103.18    7.13
   3  11   2  117.65   10.12
  -3  11  -2  130.06   10.69
  -3  11  -2  129.18   15.91
   1   1   6   10.21    2.50
   1   1   6   14.05    5.81
   1  -1   6    1.41    5.55
   1  -1   6    9.40    2.98
   1   9  -5  197.15    9.59
  -1   9   5  176.30   13.28
  -1   9   5  207.74   13.62
  -1   9   5  174.62    8.49
  -2  11   4   30.58    5.79
   2  11  -4   33.83    6.47
  -2  11   4   37.66   11.70
  -5  -8  -2   45.16    8.63
  -5   8  -2   34.35    8.91
   5  -8   2   63.22    8.44
   5  -8   2   34.73    8.22
   5   8   2   60.88   13.60
  -5   8  -2   34.92    9.42
  -3  12  -1  374.60   25.73
  -3  12  -1  360.74   16.05
   3 -12   1  325.43   13.09
   3  12   1  328.07   14.57
   4  11   1  369.79   16.30
  -4  11  -1  360.89   18.54
   4 -11   1  336.89   15.19
  -4  11  -1  325.41   17.76
   4 -11   1  362.81   18.61
   7   4   1 1304.14   52.37
  -7  -4  -1 1297.47   51.04
  -7   4  -1 1247.30   51.04
   7  -4   1 1376.77   69.65
   7  -4   1 1263.10   64.52
   3   2   5  414.88   20.41
   3  -2   5  401.21   20.47
   3  -2   5  378.84   13.90
  -3  -2  -5  399.21   27.95
  -3   2  -5  391.13   19.14
   3   2   5  388.69   14.54
   1   6  -6  122.41    6.00
  -1  -6   6  141.26    6.82
  -1   6   6  122.61    3.57
  -1   6   6  134.35   17.25
  -4   8  -3 1830.52   68.15
   4  -8   3 1737.14   58.80
   4  -8   3 1786.59   57.46
  -4   8  -3 1723.67   58.96
   4   8   3 1717.40   60.30
  -1  13   2    0.62    4.67
   1  13  -2   -3.68    5.05
  -1  13   2    4.71    6.35
   1  13  -2   -1.11    1.93
   1  13  -2    0.73    2.42
   0  12  -3  276.09   20.26
   0  12  -3  238.57    7.34
   0  12   3  266.06   20.77
   0  12   3  248.77   14.40
   0  12   3  304.95   13.77
  -4  12   1  291.22   14.87
  -4  12   1  246.70   16.00
   4 -12  -1  282.17   14.24
   4  12  -1  267.75   11.29
  -2  12  -2  191.89   13.19
   2  12   2  189.37   11.44
   2 -12   2  181.36    7.97
  -2  12  -2  191.51   11.74
  -1  11   4 1013.91   36.88
  -1  11   4 1073.57   32.67
   1  11  -4 1110.97   35.80
  -1  11   4 1104.79   39.18
   6  -7  -5   49.29    5.57
  -6   7   5   40.66    6.37
  -6   7   5   36.58    8.18
  -6  -7   5   27.66    4.12
  -6  -4   6   49.37    7.52
  -6   4   6   39.66    7.69
   6  -4  -6   40.86    4.19
   5 -11  -2  170.22   12.53
  -5  11   2  155.87   12.42
   5  11  -2  193.31    9.57
  -5  11   2  199.98   19.59
   5 -11  -2  167.13   13.34
   1   2   6 1420.84   31.73
   1  -2   6 1442.25   55.04
   1   2   6 1528.64   49.82
   5 -11  -1  505.49   20.45
  -5  11   1  472.50   22.44
  -5  11   1  467.89   21.05
   5  11  -1  453.82   23.91
   5 -11  -1  493.07   31.91
   7   5  -5  880.27   23.85
  -7  -5   5  871.23   26.99
  -7   5   5  849.70   32.55
   7  -5  -5  880.39   33.25
   7  -5  -5  856.75   34.67
  -4   9   5  121.20   11.83
  -4   9   5  123.86    8.11
  -1  10  -4  176.07   11.13
  -1  10  -4  181.04    6.48
   1  10   4  184.33   19.38
   1 -10   4  182.16    8.09
  -3  12   3  357.98   16.32
  -3  12   3  344.78   17.61
   3  11  -4  930.66   32.68
  -3  11   4  946.93   35.07
  -3  11   4  926.51   37.94
  -2   9  -4  153.02   10.55
  -2   9  -4  160.69    8.88
   2   9   4  157.59   12.92
   2  -9   4  149.98    7.87
   8   4  -1 1193.14   47.07
   8  -4  -1 1177.29   49.39
  -8   4   1 1194.20   50.37
   8  -4  -1 1279.92   51.11
  -8  -4   1 1246.08   59.03
   0   5   6 1114.22   21.55
   0  -5   6 1143.17   33.86
   0   5  -6 1194.58   33.62
   0   5   6 1127.75   39.68
   0   5   6 1051.55   22.63
   6   9   0  632.17   26.56
  -6  -9   0  642.20   24.26
   6  -9   0  688.19   30.36
  -6   9   0  631.21   29.44
  -6   9   0  640.45   28.47
   6  -9   0  636.58   36.90
  -4  10  -2  333.12   18.02
  -4  10  -2  313.12   17.05
   4 -10   2  309.00   14.57
   4 -10   2  317.83   17.18
   4  10   2  314.64   16.71
   0  13  -2  302.50   16.52
   0  13   2  272.81   14.18
   0  13   2  318.19   15.71
   0  13  -2  297.38   10.70
   0  13   2  295.45   14.37
  -4  12   2  259.86   14.94
  -4  12   2  245.43   14.38
   4  12  -2  257.79   13.01
   4  12  -2  238.14    6.90
   8   5  -2  982.67   38.14
   8  -5  -2  982.52   41.21
  -8   5   2  910.39   50.84
   8  -5  -2  872.52   39.21
  -8  -5   2  929.43   36.01
  -2   6  -5  508.07   18.56
   2  -6   5  498.93   17.51
   2  -6   5  525.62   20.70
  -2   6  -5  552.68   18.78
   2   6   5  534.86   23.96
  -7  -8   2   17.90    5.50
   7  -8  -2   15.89    7.61
   7  -8  -2    5.51    7.71
  -7   8   2    6.46   12.01
   7   8  -2   16.49    9.96
  -7   8   2    8.32   11.55
   4  -5   4  365.07   19.51
   4  -5   4  388.32   17.06
   4   5   4  418.05   21.11
  -4  -5  -4  407.88   21.96
  -4   5  -4  399.86   31.16
   2  13  -2  344.02    9.77
   2  13  -2  346.60    9.82
   2  13  -2  355.93   17.66
  -2  13   2  360.64   16.37
  -2  13   2  344.92   16.95
   8   5  -3  928.15   37.80
  -8  -5   3 1015.96   35.14
   8  -5  -3  936.49   36.71
  -8   5   3  893.48   38.12
   8  -5  -3  944.55   39.37
  -3   7   6   62.75    3.97
  -3   7   6   76.98    9.16
   3   7  -6   69.99    5.06
   8   0   0  473.39   26.04
   8   0   0  489.89   27.43
  -8   0   0  470.89   25.59
   7   7  -4 1394.67   38.94
   7  -7  -4 1270.83   48.77
  -7   7   4 1357.85   50.74
  -7   7   4 1370.45   57.74
  -7  -7   4 1349.58   37.48
   7  -7  -4 1331.28   54.77
   8  -4  -4  426.31   20.02
   8   4  -4  418.57   19.17
  -8   4   4  392.06   20.82
  -8  -4   4  456.82   19.23
   8  -4  -4  367.31   29.65
   3  -3   5  246.42   16.20
  -3  -3  -5  235.84   16.00
   3  -3   5  232.48   11.08
   3   3   5  256.68   16.47
  -3   3  -5  277.43   21.34
   3   3   5  238.86   16.21
  -5  -6   6  124.19    4.15
  -5  -6   6  123.81    3.23
  -5   6   6  123.74   11.34
   8  -1   0   65.89   11.80
   8   1   0   63.15   11.56
   8   1   0   71.76   12.66
   8  -1   0   69.64   12.85
  -8  -1   0   79.35   16.99
  -8   1   0   57.64   12.16
  -3   0   7    2.38    3.88
  -3   0   7    4.97    6.59
   2 -11   3  268.02   12.35
   2  11   3  297.16   21.62
  -2  11  -3  261.23   14.50
  -2  11  -3  198.99   12.59
  -2   7   6 1957.61   69.51
  -2  -7   6 1874.65   34.05
  -2   7   6 1910.50   46.72
  -2   7   6 1956.14   65.33
   2   7  -6 1980.62   55.95
  -2  -7   6 1854.79   35.28
   1  -3   6    3.21    8.04
   1   3   6    3.79    1.89
   1   3   6   19.81    5.94
  -3   1   7  584.37   20.52
  -3  -1   7  576.89   19.03
  -3  -1   7  564.50   18.26
  -3   1   7  521.36   25.21
  -4   0   7    2.29    4.12
  -4   0   7    9.62    4.44
  -5  10   4  374.91   20.84
  -5  10   4  404.23   17.40
   2  13   1  717.44   23.76
  -2  13  -1  685.34   24.62
  -2  13  -1  735.52   29.66
   2  13   1  713.36   24.02
  -6   8  -1   42.55   10.15
   6  -8   1   30.00   14.41
  -6  -8  -1   40.17    9.31
   6   8   1   52.76    9.73
   6  -8   1   54.03   10.47
  -6   8  -1   67.47    9.87
   7   0  -6 1586.20   46.17
  -7   0   6 1564.19   49.61
  -6  10   2  352.69   20.25
   6  10  -2  391.76   16.23
   6 -10  -2  353.32   20.22
  -6 -10   2  399.17   13.22
  -6  10   2  359.33   19.52
   6 -10  -2  378.20   19.50
  -8   0   5   -1.38    5.26
   8   0  -5   -5.33    7.89
   8   0  -5    5.96    5.07
  -7   8   3 1392.94   51.29
  -7   8   3 1409.44   60.93
   7  -8  -3 1363.72   50.02
  -7  -8   3 1484.60   42.03
   7   8  -3 1147.99   42.70
   7  -8  -3 1389.43   59.92
  -5   6  -3   63.52   10.06
   5  -6   3   92.63   10.14
   5   6   3   85.55   11.70
   5  -6   3   80.48   10.75
  -5   6  -3   68.24   12.72
  -5  -6  -3   84.58   17.11
   4 -12   0  724.08   32.17
  -4  12   0  725.80   27.47
  -4  12   0  698.33   38.01
   4  12   0  734.75   30.17
   3  10   3  284.30   16.42
   3 -10   3  279.57   12.06
  -3  10  -3  289.36   15.37
  -3  10  -3  289.24   26.14
  -4   1   7  954.57   31.06
  -4  -1   7  934.11   27.56
  -4   1   7  937.07   37.32
  -4  -1   7  938.95   27.33
   5 -10   1 1053.97   39.00
   5  10   1 1092.47   48.05
   5 -10   1 1076.98   52.77
  -5  10  -1 1085.54   41.19
  -5 -10  -1 1098.90   38.28
  -5  10  -1 1063.34   53.38
   3  13  -1 1052.15   27.95
  -3  13   1  990.95   46.90
   3  13  -1  969.01   25.35
  -3  13   1  996.40   33.73
   7  -1  -6   18.60    4.62
   7  -1  -6    4.84    5.88
  -7   1   6   12.70    6.17
   7   1  -6    8.41    5.22
  -7  -1   6   24.84    5.62
   7   1  -6   20.02    5.03
   8  -1  -5    0.57    5.20
  -8   1   5   -0.18    5.17
  -8  -1   5   -2.86    5.02
   8   1  -5   -3.92    4.85
   8   1  -5    4.34    5.21
   8  -1  -5   17.20    7.63
  -4   7   6 1921.43   50.17
  -4   7   6 2038.80   80.66
   4   7  -6 1942.55   52.94
  -8   2   0  482.33   26.91
   8  -2   0  527.14   38.00
   8   2   0  485.16   26.52
  -8  -2   0  528.94   26.70
  -6   6  -2  198.07   25.15
   6  -6   2  229.80   16.18
  -6   6  -2  229.78   16.13
  -6  -6  -2  207.90   17.47
   6  -6   2  175.98   16.22
   6   6   2  234.94   16.92
  -7  -5  -1   18.42    9.01
   7  -5   1   24.68    9.03
  -7   5  -1   27.51   14.50
   7  -5   1    7.98    9.71
   7   5   1   34.21    9.61
   0  11   4    5.42    4.64
   0  11  -4    3.47    4.98
   0  11   4    4.58    5.93
   0  11   4    7.75    5.95
  -1   8  -5 1390.31   41.99
   1  -8   5 1435.79   43.69
  -1   8  -5 1397.69   40.11
   1   8   5 1322.50   47.58
   6  -9  -4  446.60   18.39
   6   9  -4  444.51    9.32
  -6  -9   4  434.07    9.43
  -6   9   4  469.70   19.49
  -6   9   4  459.97   22.32
   6  -9  -4  445.64   22.54
   7  -7   0 1034.49   42.96
   7   7   0 1096.90   55.56
  -7   7   0 1110.24   46.44
  -7  -7   0 1075.67   41.12
  -7   7   0 1105.77   56.08
   7  -7   0 1199.57   48.92
  -3   2   7  278.85   19.96
  -3  -2   7  281.70   11.67
  -3   2   7  298.11   20.53
  -3  -2   7  327.19   11.53
   0   9   5   44.48    5.05
   0   9  -5   41.00    6.03
   0   9   5   38.33    8.40
   0  -9   5   35.74    2.17
  -7   8   1    0.87    6.94
  -7   8   1    5.05    6.63
  -7  -8   1   -1.63    5.01
   7  -8  -1   10.03    6.57
   7   8  -1    1.41    8.97
   7  -8  -1   -1.42    6.84
  -2   0   7   -1.21    3.95
  -2   0   7    0.86    3.79
  -5  11   3  110.93   11.34
  -5  11   3  109.50   15.85
   5  11  -3  107.14    4.10
   6 -10  -1 1171.60   44.46
  -6  10   1 1047.50   52.36
   6  10  -1 1127.14   39.80
  -6  10   1 1086.70   53.51
   6 -10  -1 1096.80   51.23
  -6 -10   1 1081.30   34.97
   6  -5  -6  920.21   24.35
  -6   5   6  946.83   34.35
  -6  -5   6  992.40   30.28
   5 -11   0  982.82   35.22
  -5  11   0  974.03   38.61
   5  11   0 1013.90   33.70
   5 -11   0  995.87   39.66
  -5  11   0  964.06   37.13
  -4   2   7   47.92    6.98
  -4  -2   7   48.64    5.40
  -4  -2   7   42.48    8.03
  -4   2   7   40.37    6.97
  -2  -1   7  552.21   18.81
  -2  -1   7  555.00   19.45
  -2   1   7  580.52   20.72
  -2   1   7  542.49   19.83
   7  -2  -6 1200.56   39.29
   7   2  -6 1207.74   38.28
  -7   2   6 1152.81   39.36
  -7  -2   6 1199.45   37.31
   8   2  -5  289.48   14.32
  -8  -2   5  298.65   22.23
   8  -2  -5  270.15   16.18
  -8   2   5  294.35   16.64
   8  -2  -5  290.41   15.31
   8   2  -5  270.39   15.90
  -3   8  -4  112.75    9.49
  -3   8  -4   95.37   10.02
   3  -8   4  110.35    9.09
   3  -8   4   89.38   14.21
   3   8   4  107.76   11.62
  -1  13  -2    9.37    4.27
   1  13   2   -0.09    5.10
   1  13   2    2.24    4.99
  -1  13  -2    3.24    5.72
  -3  13   0  181.17   14.82
  -3  13   0  207.89   17.32
   3  13   0  223.19   14.22
   6   0   3   -0.03    5.79
   6   0   3  -10.94    6.95
  -6   0  -3    9.44    7.45
   1  12   3  106.35    9.74
  -1  12  -3   65.29    5.82
  -1  12  -3  104.69    9.42
   8  -5  -1   -1.53   12.17
  -8   5   1   10.74    8.38
  -8  -5   1    4.03    6.69
   8   5  -1    3.99    6.67
   8  -5  -1    2.94    8.05
  -3  -4  -5  929.76   37.44
  -3   4  -5  979.83   34.88
   3   4   5  913.31   36.66
   3   4   5  936.50   29.80
   3  -4   5  967.88   36.95
   3  -4   5  938.99   28.89
   0  14   0  813.01   32.19
   0  14   0  800.13   24.50
   0  14   0  797.17   24.00
  -4  11   4   58.45   10.03
  -4  11   4   88.92    8.02
   6   1   3   95.49   11.75
   6   1   3  109.14   14.83
  -6   1  -3   95.78   15.59
   6  -1   3  134.11   11.93
  -6  -1  -3  107.47   15.12
   6  -1   3  115.05   14.20
   7   6  -5   79.19    5.24
   7  -6  -5   83.11   10.78
  -7   6   5   64.00   10.15
   7  -6  -5   77.27    7.66
  -7  -6   5   70.86    6.18
   2  10  -5  837.85   27.33
  -2  10   5  794.68   32.12
  -2  10   5  865.33   31.05
  -2  10   5  808.76   32.86
  -6 -10   3  150.19    6.29
  -6  10   3  150.90   12.34
  -6  10   3  151.62   13.07
   6  10  -3  132.51    7.97
   6 -10  -3  184.67   13.68
   6 -10  -3  153.94   11.89
   3  13  -2   47.72    5.23
  -3  13   2   34.92    7.97
  -3  13   2   37.08    7.90
   3  13  -2   40.42    2.70
   8   3   0  383.16   23.25
   8  -3   0  368.31   24.91
  -8   3   0  443.96   24.19
  -8  -3   0  395.54   22.87
   1  -4   6  632.70   23.86
   1   4   6  662.97   27.35
   1   4   6  578.35   16.93
  -1  -7   6    4.93    1.93
  -1   7   6    9.93    6.68
  -1   7   6    8.96    2.36
  -1  -7   6    8.14    2.60
   1   7  -6   10.69    3.50
  -8  -5   4  789.12   27.93
   8  -5  -4  759.61   32.71
   8  -5  -4  760.07   30.25
  -8   5   4  770.13   32.97
   8   5  -4  743.00   35.62
  -2  -2   7   87.96    7.18
  -2   2   7  105.78    9.01
  -2   2   7   93.02    9.01
  -2  -2   7   93.09    7.65
  -3  10   5  525.99   23.79
  -3  10   5  459.44   17.32
   3  10  -5  473.21   19.46
   0  -6   6    4.43    3.97
   0   6  -6   -2.52    3.18
   0   6   6    1.77    1.79
   0   6   6   10.89    5.81
  -5   0   7    6.58    4.50
  -3   3   7  282.54   14.97
  -3  -3   7  296.05   10.62
  -3   3   7  250.29   20.82
  -3  -3   7  276.99   10.74
  -8   6   2  203.57   18.56
  -8  -6   2  223.11   13.96
   8   6  -2  225.20   22.66
   8  -6  -2  211.33   18.36
   8  -6  -2  217.94   17.36
  -5   9   5  213.84   15.33
  -5   9   5  212.16   11.31
  -4  12   3   45.98    9.60
  -4  12   3   80.13    8.68
   4  -6   4   41.81    8.67
  -4   6  -4   27.98    8.16
   4  -6   4   46.59    7.46
  -4   6  -4   50.63   10.20
  -4  -6  -4   35.27    9.87
   4   6   4   57.83   10.08
  -5   1   7  131.07    9.13
  -5  -1   7  128.13    7.90
  -8  -6   3    8.35    5.44
   8  -6  -3    8.33    7.37
   8  -6  -3    9.33    6.72
   8   6  -3   -2.22    6.43
  -8   6   3   -0.27    7.50
   1  14   0   28.79    4.98
   1  14   0   22.19    7.57
   1  14   0   25.17    8.14
  -1  14   0   15.14    8.44
  -1  14   0   32.42    8.52
   6   2   3  277.56   17.12
  -6   2  -3  242.94   21.07
  -6  -2  -3  257.68   20.94
   6   2   3  260.84   19.90
   6  -2   3  270.38   19.22
   6  -2   3  245.10   17.13
  -4   3   7  571.70   21.73
  -4  -3   7  572.44   16.48
  -4  -3   7  559.65   16.62
  -4   3   7  566.05   22.61
  -7   3   6  126.02   10.64
  -7  -3   6  117.49    8.63
   7   3  -6  113.33   13.63
   7  -3  -6  115.87    7.51
   5  -9   2  311.89   25.25
  -5   9  -2  355.20   21.36
  -5   9  -2  365.53   19.68
  -5  -9  -2  373.15   19.26
   5   9   2  341.15   19.68
   5  -9   2  337.55   19.69
  -8  -3   5   14.07    9.11
   8   3  -5    5.27    5.16
   8  -3  -5    6.61    5.45
   8   3  -5    5.77    6.20
  -8   3   5    7.39    6.50
   8  -3  -5    5.16    6.79
  -6   8   5 1544.76   48.78
   6  -8  -5 1465.98   45.31
  -6   8   5 1476.11   53.27
   5   0   4  689.49   27.30
   5   0   4  668.42   44.77
  -5   0  -4  659.58   33.05
   7   0   2  640.48   32.57
  -7   0  -2  582.91   46.02
  -2   7  -5  141.53   14.56
   2   7   5  178.77   14.09
  -2   7  -5  152.78    9.51
   2  -7   5  164.43   10.46
   0  14  -1   58.65    9.74
   0  14  -1   61.46    5.45
   0  14   1   61.80    7.10
   0  14   1   57.50    9.17
   0  14   1   62.78    7.07
   0  14  -1   51.49    5.12
  -1  14   1  101.64   13.35
   1  14  -1  108.70    6.10
   1  14  -1  106.30    8.80
  -1  14   1  109.29   11.45
   1  14  -1  109.41   11.26
   5  -1   4   78.30   12.11
   5   1   4   67.67   12.28
  -5   1  -4   59.27   12.86
  -5  -1  -4   54.62   12.71
   5   1   4   77.24    8.89
   5  -1   4   73.15    8.99
  -4   9  -3    6.96    5.78
   4  -9   3   -1.58    5.73
   4  -9   3   -4.41    5.02
   4   9   3    1.22    6.26
  -4   9  -3   15.39    6.69
   7   1   2  107.43   14.66
   7  -1   2  107.36   14.30
  -7  -1  -2  119.04   15.64
  -7   1  -2  112.07   15.06
   7   1   2  119.16   13.53
   1  10  -5  638.84   28.50
  -1  10   5  682.08   26.03
  -1  10   5  650.65   28.83
  -1  10   5  615.67   26.68
  -5  -2   7  272.85   10.77
  -5   2   7  259.82   13.77
  -5  -2   7  278.27   11.02
  -5   7   6  269.75   14.93
  -5   7   6  264.25   17.16
  -2   3   7  329.44   16.76
  -2  -3   7  354.61   12.39
  -2   3   7  345.05   17.50
  -2  -3   7  351.08   13.23
  -3   8   6   12.43    6.46
   3   8  -6    9.18    3.84
  -3   8   6    5.21    3.05
  -7  -8   4  103.18    6.50
   7  -8  -4  105.70   10.13
   7   8  -4  100.68    7.13
  -7   8   4  102.31   12.88
  -7   8   4   89.61   10.84
   7  -8  -4   99.74   12.44
  -7   6  -1 1509.79   61.61
   7  -6   1 1567.16   61.54
   7   6   1 1494.25   60.37
   7  -6   1 1442.57   58.17
  -7  -6  -1 1488.71   59.01
  -1   0   7    3.36    4.76
  -5   7  -3  110.38   11.24
  -5   7  -3  120.81   13.76
   5  -7   3  114.07   12.22
  -5  -7  -3   99.95   12.92
   5  -7   3   97.79   11.32
   5   7   3  114.32   19.94
   8  -4   0  331.81   22.84
  -8   4   0  320.33   23.05
  -8  -4   0  340.42   21.40
   8   4   0  350.91   30.92
   8  -4   0  370.44   25.73
   5  -2   4  524.84   27.73
  -5   2  -4  530.02   41.23
   5   2   4  517.56   22.07
   5   2   4  543.98   38.60
   5  -2   4  489.58   21.60
  -5  -2  -4  526.08   28.17
  -1  13   3  684.04   26.42
  -1  13   3  640.48   34.27
   1  13  -3  614.54   26.30
  -1  13   3  656.38   25.14
   7  -2   2  593.48   29.59
  -7  -2  -2  588.76   31.58
   7  -2   2  545.01   29.81
  -7   2  -2  588.85   44.57
   7   2   2  588.95   33.41
   7   2   2  634.85   28.82
   6  -3   3  118.20   12.64
  -6   3  -3   96.24   22.42
  -6  -3  -3  129.75   15.34
   6  -3   3  114.34   13.91
   6   3   3   98.63   14.65
  -4  10   5 1047.55   51.19
  -4  10   5 1092.38   33.69
   9   0  -3    8.26    7.67
  -9   0   3   -1.37    6.65
   9   0  -3   -2.12    6.36
  -2   8   6    7.20    6.36
  -2   8   6    0.62    6.32
   2   8  -6    2.43    3.54
  -2   8   6    2.15    3.85
   7   9  -2  600.01   23.64
   7  -9  -2  518.41   36.60
  -7   9   2  493.70   26.64
   7  -9  -2  551.13   26.94
  -7  -9   2  547.63   20.46
  -7   9   2  565.79   27.19
  -2  13   3 1034.08   36.13
   2  13  -3 1046.63   37.96
  -2  13   3  994.88   36.23
   3   5   5   48.98    9.98
  -3   5  -5   46.82    8.42
   3  -5   5   42.45    6.53
   3  -5   5   47.87    8.84
   3   5   5   46.03    6.84
   3 -12   2  860.02   32.80
  -3  12  -2  825.86   33.15
   3  12   2  909.99   33.48
  -3  12  -2  916.61   34.51
  -1   1   7 1236.67   41.19
  -1  -1   7 1233.13   46.01
   6  -6  -6    5.40    3.28
  -6   6   6    6.16    9.44
  -6  -6   6    2.54    2.54
  -3   4   7  562.89   23.43
  -3   4   7  565.53   31.25
  -3  -4   7  544.59   16.47
  -3  -4   7  561.10   18.70
  -2  10  -4  480.67   20.55
   2  10   4  479.48   24.01
   2 -10   4  508.57   19.88
  -2  10  -4  507.74   17.12
  -9  -1   3   -4.02    6.51
  -9   1   3    3.02    7.04
   9  -1  -3   -0.40    6.37
   9  -1  -3   -4.73    7.66
   9   1  -3   -0.25    6.53
   9   1  -3    1.07   11.80
   6  -7   2 1301.29   52.17
   6   7   2 1360.35   53.47
  -6  -7  -2 1301.37   51.79
   6  -7   2 1293.38   49.19
  -6   7  -2 1273.04   61.10
  -6   7  -2 1300.31   53.40
  -2  12   4  376.75   20.10
  -2  12   4  384.44   16.69
   2  12  -4  430.30   25.26
  -6  10   0  300.42   27.53
  -6 -10   0  325.46   16.16
  -6  10   0  326.73   20.25
   6 -10   0  321.63   20.50
   6  10   0  316.91   18.09
   6 -10   0  332.51   18.51
   1  -5   6   18.81    6.17
   1   5   6   12.74    5.20
   1   5   6   21.20    7.80
  -1   5  -6   13.85    4.49
  -1  14  -1   96.69   10.70
   1  14   1   82.96    8.11
   1  14   1   86.20   10.79
  -1  14  -1  101.83   11.75
   1  14   1   89.49    7.91
   2   0   6   89.41   10.13
   2   0   6   67.02    7.14
  -4  12  -1   32.50    7.94
   4  12   1   22.12    6.59
  -4  12  -1   29.91    7.30
   4 -12   1    2.88    5.85
   4   4  -7  204.00    4.75
  -4  -4   7  228.14   10.82
  -4  -4   7  235.64    8.19
   4   4  -7  215.84    6.06
  -4   4   7  220.24   13.44
  -8   6   1 1542.87   64.27
   8  -6  -1 1529.52   63.27
   8  -6  -1 1608.90   65.93
   8   6  -1 1614.42   61.07
  -8  -6   1 1576.27   59.56
  -2  14   1  161.01   13.91
   2  14  -1  161.52    7.22
   2  14  -1  159.21   10.36
  -2  14   1  175.67   10.95
  -1  11  -4  702.89   17.18
   1  11   4  773.91   40.40
   1 -11   4  742.28   18.80
  -1  11  -4  706.13   34.04
  -9   0   2  371.94   22.58
   9   0  -2  385.71   23.19
   9   0  -2  338.88   24.41
   7  -4  -6  721.78   22.21
  -7   4   6  710.73   37.88
  -7  -4   6  765.98   24.13
  -5  -3   7   75.76    5.62
   5   3  -7   67.85    2.92
   5   3  -7   71.28    3.36
  -5  -3   7   72.76    5.77
  -5   3   7   85.44    8.51
   8  -4  -5  878.77   31.93
  -8  -4   5  844.44   30.44
   8  -4  -5  866.43   35.38
  -8   4   5  869.78   34.77
   8   4  -5  906.48   36.34
   4   8  -6    0.69    5.39
  -4   8   6   -0.56    3.04
  -4   8   6   -2.23    5.70
   2  -1   6   42.43    4.24
   2  -1   6   44.73    8.75
  -2   1  -6   39.58    8.37
   2   1   6   51.80    9.11
   2   1   6   45.90    4.05
   6   9   1   86.13   11.48
  -6   9  -1  105.53   12.37
  -6  -9  -1   95.92   11.05
   6  -9   1  106.21   13.00
   6  -9   1   92.09   11.52
  -6   9  -1   75.30   12.88
  -2  14   0  942.09   30.75
   2  14   0  936.00   28.19
   2  14   0  966.92   29.02
   9  -1  -2  135.67   15.54
   9   1  -2  114.85   14.36
  -9   1   2  111.21   14.53
  -9  -1   2   77.62   20.60
   9   1  -2  121.51   14.80
   9  -1  -2  120.82   14.38
   1  12  -4   14.00    6.36
  -1  12   4   15.93    7.01
  -1  12   4   26.22   10.69
  -1  12   4   10.40    5.61
   4  11   2  723.43   37.72
  -4  11  -2  683.95   28.96
   4 -11   2  723.01   30.47
  -4  11  -2  680.47   30.38
   4 -11   2  678.44   24.48
  -1  -2   7  147.09   10.01
  -1   2   7  148.91   11.67
  -7  -9   3   -0.02    3.76
   7  -9  -3    6.72    9.69
   7  -9  -3   16.81    6.78
   7   9  -3    2.47    4.86
  -7   9   3    0.50    6.59
  -7   9   3   -1.10    6.28
  -7   8   0   23.76    9.04
   7   8   0    9.24    8.40
  -7   8   0   14.53    9.43
   7  -8   0   25.94    9.53
  -7  -8   0   14.02    7.73
   7  -8   0   25.47   13.54
  -5  12   2  787.00   42.79
   5 -12  -2  760.67   32.41
   5  12  -2  819.65   25.37
  -5  12   2  796.48   33.24
   3  13   1  482.85   19.21
  -3  13  -1  458.27   19.64
  -3  13  -1  427.10   31.71
   3 -13   1  440.37   16.54
   5 -12  -1   49.50    8.57
   5 -12  -1   53.90   10.61
   5  12  -1   63.64    7.29
  -5  12   1   41.56    9.05
  -5  12   1   53.26   14.87
   8  -6  -4   20.66    7.52
   8  -6  -4   33.00    9.19
   8   6  -4   19.94   10.03
  -8  -6   4   24.87    6.50
  -8   6   4   14.48   13.65
   9  -2  -3  228.24   17.13
   9   2  -3  197.37   19.02
  -9   2   3  228.78   27.10
  -9  -2   3  193.67   16.22
   9  -2  -3  250.72   19.60
  -5   3  -4  558.40   30.23
   5   3   4  533.95   23.75
   5   3   4  517.35   27.84
  -5  -3  -4  555.08   29.66
   5  -3   4  516.05   27.13
   5  -3   4  534.25   23.08
   7   3   2  127.80   17.50
  -7   3  -2  145.37   15.76
   7  -3   2  139.74   15.30
  -7  -3  -2  147.97   17.37
   7   3   2  157.00   14.77
   7  -3   2  144.81   16.02
   0  13  -3  811.17   16.03
   0  13  -3  838.92   18.37
   0  13   3  878.43   42.07
   0  13   3  886.05   32.60
   0  13   3  835.51   30.52
   0  13  -3  865.84   32.49
   3  12  -4   74.81    9.42
  -3  12   4   79.42   10.37
  -3  12   4   71.68   12.59
   7  -7  -5  113.55   12.40
   7   7  -5   96.78    7.69
  -7  -7   5  112.94    6.24
   7  -7  -5   91.24    8.93
  -7   7   5   90.06   11.57
  -7   7   5  109.35   10.55
  -4  13   1  330.08   18.04
   4  13  -1  346.10   13.82
  -4  13   1  373.85   19.92
  -2  -4   7  321.51   11.01
  -2   4   7  329.92   16.99
  -2  -4   7  340.66   12.82
  -2   4   7  327.73   25.10
  -2  13  -2  263.66   16.13
   2  13   2  237.97   19.86
  -2  13  -2  256.03   14.47
   2 -13   2  239.48    9.79
   1  -9   5  100.47    8.77
  -1   9  -5  127.48   13.52
   1   9   5  121.17   12.42
  -1   9  -5  104.77    8.23
   7   9  -1  139.42   12.46
   7  -9  -1  125.61   14.11
   7  -9  -1  117.91   13.26
  -7   9   1  115.15   14.04
  -7   9   1  105.93   14.07
  -7  -9   1  105.18   10.53
   2   2   6   63.80    9.30
  -2   2  -6   42.04    7.97
   2  -2   6   44.24    4.37
   2  -2   6   36.72    8.50
   2   2   6   35.70    6.43
   0   7  -6 1924.11   54.05
   0   7   6 1907.52   46.51
   0   7   6 1851.27   66.83
   0  -7   6 1877.17   52.74
   9  -2  -2  311.13   23.53
  -9  -2   2  293.10   19.54
  -9   2   2  265.26   21.66
   9   2  -2  325.12   21.69
  -6   0   7   -0.10    6.87
   6   0  -7   -0.95    2.02
  -3  13   3  464.06   22.34
  -3  13   3  494.52   21.61
  -8   7   2  936.33   41.90
   8   7  -2  987.06   38.90
   8  -7  -2  926.66   41.41
  -8   7   2  957.21   43.51
  -8  -7   2  945.33   36.06
   8  -7  -2  943.17   42.78
  -9   0   4  892.61   38.51
   9   0  -4  902.89   36.62
   9   0  -4  801.58   37.67
   1  14  -2  838.82   25.18
  -1  14   2  799.65   40.53
  -1  14   2  851.95   29.23
   1  14  -2  848.85   43.06
   1  14  -2  736.14   17.51
   6  -4   3  834.03   34.62
  -6  -4  -3  843.46   39.34
   6  -4   3  834.79   49.88
   6   4   3  818.30   39.07
  -6   4  -3  804.98   39.56
  -5  11   4  719.99   27.33
  -5  11   4  682.54   30.59
   4   7   4  302.93   19.98
  -4   7  -4  310.66   16.64
  -4   7  -4  248.80   20.02
   4  -7   4  282.64   15.58
   4  -7   4  295.79   17.37
  -8   7   3  154.19   22.27
   8   7  -3  129.41   19.01
   8  -7  -3  151.70   15.30
   8  -7  -3  146.34   13.27
  -8   7   3  115.00   13.98
   6 -11  -2  644.36   29.61
  -6  11   2  665.54   30.37
   6 -11  -2  654.35   38.84
  -6  11   2  675.54   29.79
   6  11  -2  639.55   23.37
  -6  10   4  317.56   19.38
   6 -10  -4  308.92   16.13
  -6  10   4  311.02   24.26
   6   1  -7 1414.81   30.61
  -6  -1   7 1485.34   43.86
  -6   1   7 1524.80   47.75
   6  -1  -7 1367.50   27.56
   4  13  -2  151.73   10.95
   4  13  -2  143.37    7.59
  -4  13   2  134.26   13.31
  -4  13   2  178.38   12.66
   3  -9   4 1363.02   46.49
   3  -9   4 1354.98   41.87
  -3   9  -4 1314.12   45.21
  -3   9  -4 1219.38   53.48
   3   9   4 1316.78   61.99
  -1   8   6    3.40    2.45
  -1  -8   6    0.85    0.92
  -1   8   6   -4.51    6.07
  -1   8   6   -5.70    6.24
   1   8  -6    4.24    3.47
  -1  -8   6    1.17    1.08
   0  10  -5  650.27   29.91
   0  10   5  671.01   29.00
   0  10   5  664.43   26.93
  -9   1   4   33.83   10.23
   9  -1  -4    2.08    9.35
   9  -1  -4   48.57   10.58
   9   1  -4   34.47   10.50
  -9  -1   4   55.68    9.53
   3  11   3  298.33   17.94
  -3  11  -3  320.00   24.16
  -3  11  -3  313.34   20.32
   3 -11   3  293.50   12.65
   2 -12   3  274.91    9.73
   2  12   3  281.18   16.49
  -2  12  -3  208.30   13.88
  -2  12  -3  291.06   15.93
  -5  11  -1    5.41   11.79
   5 -11   1   18.96    9.37
   5  11   1    8.03    6.35
  -5  11  -1   -1.84    7.49
   5 -11   1   17.25    7.74
  -1  -3   7  733.67   31.61
  -1   3   7  722.18   28.82
   8  -5   0  705.01   34.97
  -8  -5   0  687.48   32.23
   8   5   0  664.02   32.44
   8  -5   0  632.38   33.74
  -8   5   0  636.38   33.26
   9   3  -3    2.35    8.21
  -9   3   3   12.82    8.43
  -9  -3   3   -1.77    7.04
   9  -3  -3   14.39    8.85
   5   4  -7  635.36   13.86
  -5  -4   7  686.40   18.11
  -5   4   7  648.20   26.40
   5   4  -7  658.38   16.96
  -5  -4   7  667.37   17.69
   0  14   2   41.95    7.36
   0  14  -2   55.81    9.19
   0  14   2   33.11   11.14
   0  14  -2   34.64    5.12
   0  14  -2   35.91    3.47
   0  14   2   55.09    8.26
   4   0   5   -1.54    4.36
   4   0   5   11.39   10.08
  -4   0  -5   -0.73    6.20
  -3   5   7  101.00   10.61
   3   5  -7  100.40    3.28
  -3  -5   7  110.78    5.90
  -3   5   7  105.12   10.81
  -3  -5   7   95.46    7.19
   8   0   1   -3.11   11.51
  -8   0  -1   -0.11    7.84
   2  14  -2   64.75    3.35
   2  14  -2   76.71   10.52
  -2  14   2   61.60   13.12
   2  14  -2   61.74    3.36
  -2  14   2   54.89    9.96
  -6  11   1   -1.91    9.98
  -6  11   1    9.25    6.80
   6  11  -1    7.54    5.62
   6 -11  -1    1.45    6.21
   6 -11  -1   -2.81    6.84
  -6 -11   1   -0.97    4.61
   6  -2  -7    2.32    1.21
  -6  -2   7    0.47    3.92
  -6   2   7   -5.80    5.02
   6   2  -7    1.61    3.46
   4  -1   5 2021.55   76.08
   4   1   5 2040.88   77.19
  -4  -1  -5 2037.02   92.40
  -4   1  -5 2039.04   76.98
   4   1   5 2007.07   64.90
   4  -1   5 1980.16   63.68
   2   3   6  303.43   19.47
   2   3   6  301.03   10.69
  -2   3  -6  324.59   16.21
   2  -3   6  332.68   18.10
   2  -3   6  320.41   11.04
  -9   2   4  675.81   32.08
   9  -2  -4  678.05   30.67
  -9  -2   4  624.42   30.58
   9  -2  -4  710.08   33.94
   9   2  -4  738.96   33.88
   2   8   5  333.86   20.85
   2  -8   5  340.61   14.77
  -2   8  -5  317.92   15.34
  -2   8  -5  320.14   13.43
  -8  -1  -1 1801.64   72.99
   8  -1   1 1950.03   76.25
   8   1   1 1819.28   73.39
   8  -1   1 1778.34   72.63
  -8   1  -1 1756.10   72.36
  -4  -5   7  190.55    6.40
  -4   5   7  207.99   13.74
   4   5  -7  176.95    7.10
  -4  -5   7  187.47    6.74
  -9   3   2  200.75   20.40
   9  -3  -2  212.78   20.48
   9   3  -2  246.47   18.18
  -9  -3   2  215.53   17.56
  -7  -5   6  193.98   10.20
   7  -5  -6  185.63   10.08
  -7   5   6  206.75   14.06
   3   6   5 1276.10   63.93
  -3   6  -5 1264.41   54.35
  -3   6  -5 1306.37   43.84
   3  -6   5 1259.66   40.52
   3  -6   5 1322.86   46.76
   0  12   4  577.71   21.57
   0  12   4  539.13   25.38
   0  12   4  561.63   25.53
   0  12  -4  563.97   23.36
   8   5  -5   15.60    8.75
  -8  -5   5   24.29    6.37
   8  -5  -5   24.22    6.93
  -8   5   5   20.43    8.33
   8  -5  -5   14.31    8.50
  -4  13   0  164.22   15.27
   4  13   0  178.80   15.69
  -4  13   0  194.73   13.21
   4 -13   0  185.91   11.62
  -5  -4  -4  241.84   20.84
   5  -4   4  315.69   27.48
   5   4   4  244.74   29.22
   5   4   4  247.36   16.02
   5  -4   4  249.28   15.22
  -5   4  -4  264.80   21.14
   7  -4   2  232.45   18.31
   7   4   2  234.21   20.82
  -7   4  -2  200.88   18.95
   7   4   2  246.90   18.09
  -7  -4  -2  196.31   19.52
   7  -4   2  227.87   17.99
  -7   7  -1   -5.01    7.68
  -7   7  -1   13.59    7.52
  -7  -7  -1   -0.02    7.06
   7   7   1   -0.04    7.57
   7  -7   1    1.64    7.76
   7  -7   1    1.13    7.21
  -5  12   3  365.74   20.28
  -5  12   3  383.13   19.67
   5  12  -3  371.95    7.85
   6  -9  -5    4.72    5.75
  -6   9   5   38.68    6.89
  -6   9   5   44.63    8.55
  -5   8   6    3.71    4.37
  -5   8   6   12.25    7.06
   1   6   6  105.26    6.67
   1   6   6   99.25   12.07
   1  -6   6  133.67   10.19
  -1   6  -6  115.04    7.92
  -5  10   5  367.12   16.20
  -5  10   5  345.44   20.09
   5 -12   0  331.76   20.47
  -5  12   0  286.15   17.77
  -5  12   0  301.03   19.84
   5  12   0  292.33   15.94
   5 -12   0  314.51   22.96
  -2  11   5  207.16   15.10
  -2  11   5  192.65   15.24
   2  11  -5  220.30   12.34
  -2  11   5  204.20   15.90
   2  14   1  104.09   12.82
   2  14   1  100.68   13.39
  -2  14  -1  100.88    8.66
  -2  14  -1   96.67   12.42
   9   0  -1    1.71    8.10
  -9   0   1  -10.38    7.89
   9   0  -1    1.24    7.64
   6 -11  -3  260.75   15.76
  -6  11   3  249.13   16.66
   6 -11  -3  257.04   17.19
  -6  11   3  264.10   16.30
   6  11  -3  214.69    9.54
  -6  -7   6 1099.97   19.36
  -6   7   6 1399.58   58.80
   4   2   5   15.00    7.39
   4   2   5   10.62    5.20
  -4   2  -5    7.23    7.41
  -4  -2  -5   -1.61    7.52
   4  -2   5   -2.95    7.20
   4  -2   5   -4.08    5.18
   8   0  -6  316.38   21.34
   8   0  -6  318.62   22.79
  -8   0   6  307.67   16.63
   8   2   1   -0.43    7.53
   8  -2   1   -5.12    7.84
   8   2   1   -8.78   12.06
  -8   2  -1    6.88    8.16
   8  -2   1   10.73    7.77
  -8  -2  -1    0.79   12.29
  -2  -5   7   78.36    6.11
  -2   5   7   76.59   10.11
  -2   5   7   83.25   10.12
   2   5  -7   66.79    4.12
  -2  -5   7   75.35    7.42
  -3  11   5  330.38   14.89
   3  11  -5  391.48   16.79
  -3  11   5  342.90   20.20
  -3  14   1   60.41    8.27
   3  14  -1   53.01    5.48
   3  14  -1   48.46    5.09
  -3  14   1   85.97   15.23
   5 -10   2  481.54   24.19
   5 -10   2  452.36   28.82
   5  10   2  450.64   23.54
  -5  10  -2  459.26   23.74
  -5  10  -2  422.62   24.49
   9  -1  -1 1899.83   92.70
   9  -1  -1 1808.70   73.63
  -9  -1   1 1774.37   71.51
  -9   1   1 1841.97   72.30
   9   1  -1 1817.32   87.76
   5  -8   3   35.00    8.58
  -5   8  -3   23.94   15.71
  -5   8  -3   45.29   14.21
  -5  -8  -3   43.68   10.30
   5   8   3   51.62   10.17
   5  -8   3   33.36   13.79
  -4  12   4  501.09   23.29
  -4  12   4  460.25   21.13
   8  -1  -6   21.10   11.89
   8   1  -6   32.39    6.94
  -8  -1   6   35.75   11.25
   8   1  -6   25.80    6.80
  -8   1   6   30.22    7.71
   8  -1  -6   19.98    6.47
   8  -7  -1   -1.26    8.94
   8  -7  -1   10.07    8.71
  -8   7   1   11.66    8.51
  -8  -7   1   11.47    6.86
   8   7  -1    2.07    7.46
  -8   7   1    2.08    8.99
   3   9  -6   47.06    5.96
  -3   9   6   42.35    5.04
  -3   9   6   21.98   15.21
  -1  -4   7  321.31   13.62
  -1   4   7  292.75   17.96
  -6  -3   7 1020.95   29.86
   6   3  -7 1006.67   26.35
  -6   3   7  990.94   45.49
   0   0   7   -3.97    5.51
  -7   9   4  685.53   32.21
   7   9  -4  759.84   20.92
   7  -9  -4  657.92   27.94
  -7   9   4  730.72   30.21
  -7  -9   4  697.55   19.04
   7  -9  -4  707.30   33.03
   4  10   3  826.74   34.74
   4 -10   3  845.67   34.12
  -4  10  -3  839.45   33.37
  -4  10  -3  808.27   35.25
   4 -10   3  866.44   30.49
   9   3  -4  457.37   26.99
   9  -3  -4  465.24   24.49
  -9   3   4  475.19   25.80
   9  -3  -4  461.22   26.13
  -9  -3   4  456.14   23.01
  -6   5  -3   -2.78    8.29
   6  -5   3   19.45    7.91
   6   5   3   -3.61   13.88
   6   5   3    8.49    7.39
   6  -5   3    7.98   11.67
  -6  -5  -3   -2.58   13.63
   1  13   3  611.20   25.66
  -1  13  -3  582.24   25.31
   1  13   3  588.10   25.41
   9  -4  -3  837.95   41.56
  -9  -4   3  852.60   35.54
   9   4  -3  858.83   50.89
  -9   4   3  870.30   40.27
   6  -8   2   25.77   14.17
   6  -8   2   24.05   13.52
   6   8   2   23.73    9.69
  -6  -8  -2   22.70    8.96
  -6   8  -2   22.53    9.55
  -6   8  -2   23.91    9.10
   0   1   7  511.61   22.61
   0  -1   7  496.04   21.59
   8  -7  -4  536.18   29.54
  -8   7   4  565.28   29.59
   8  -7  -4  618.78   27.14
   8   7  -4  614.07   24.28
  -8  -7   4  592.25   21.77
   2   9  -6 1326.51   39.11
  -2   9   6 1268.95   51.61
  -2   9   6 1291.67   50.76
  -2   9   6 1320.53   34.66
   9   2  -1    4.78    7.31
  -9   2   1   -2.88    8.28
   9  -2  -1    2.16    7.90
  -9  -2   1   -9.89    7.39
   2   4   6   41.52    8.72
   2   4   6   31.25    7.15
  -2   4  -6   25.89   10.62
   2  -4   6   27.37    4.74
   2  -4   6   21.28    8.61
   1  14   2 1107.00   39.08
   1  14   2 1127.65   38.64
  -1  14  -2 1023.76   40.27
  -1  14  -2 1110.62   42.29
   1  14   2 1076.93   41.46
   3  14   0  252.11   12.30
  -3  14   0  241.46   14.40
  -3  14   0  248.26   17.01
   3  14   0  249.11   11.82
   8   2  -6  247.32   14.35
   8  -2  -6  220.30   12.68
   8  -2  -6  261.17   15.83
  -8  -2   6  244.84   19.69
  -8   2   6  209.23   15.27
   8   2  -6  223.93   12.98
   1  11  -5  365.65   23.14
  -1  11   5  375.36   15.24
  -1  11   5  394.50   21.09
  -1  11   5  377.38   20.83
   9   4  -2  169.62   17.55
   9  -4  -2  191.93   18.14
  -9   4   2  179.76   18.86
   9  -4  -2  188.73   19.81
   9   4  -2  170.36   16.64
  -9  -4   2  171.57   15.19
  -5  -5   7    1.49    2.57
   5   5  -7    2.98    3.48
  -5   5   7    7.65    5.79
  -5  -5   7   -0.57    3.54
   4   3   5 1201.59   40.76
   4  -3   5 1150.59   39.29
   4   3   5 1241.98   49.31
  -4  -3  -5 1197.63   50.62
   4  -3   5 1218.23   62.02
  -4   3  -5 1226.24   49.41
   8   3   1 1247.22   55.06
   8  -3   1 1245.22   53.60
  -8  -3  -1 1318.99   56.74
   8   3   1 1273.27   54.11
   8  -3   1 1330.09   57.20
  -8   3  -1 1259.33   55.07
  -4  13   3  755.39   31.64
  -4  13   3  737.89   29.58
  -7 -10   2  314.47   14.52
   7  10  -2  330.37   16.80
   7 -10  -2  330.26   20.24
   7 -10  -2  309.14   20.85
  -7  10   2  299.29   20.30
  -7  10   2  277.65   20.88
  -3  14   2  944.66   35.13
  -3  14   2  953.05   36.72
   3  14  -2  837.04   18.65
   3  14  -2  921.22   22.09
  -4   9   6 1187.59   33.54
  -4   9   6 1132.51   44.50
   4   9  -6 1152.56   35.67
   8   6   0   37.57   10.91
   8  -6   0   35.13   10.97
  -8   6   0   37.63   12.29
  -8  -6   0   35.91   10.41
   8  -6   0   63.69   12.75
   0  -2   7  257.06   15.00
   0   2   7  256.35   15.81
   7  -8  -5   45.37    8.89
  -7   8   5   30.88   11.16
  -7  -8   5   14.84    2.96
   7   8  -5   16.70    2.62
   7  -8  -5   26.06    9.61
  -7   8   5   30.04    8.25
   0  15   0    2.63    4.18
   0  15   0    0.35    4.25
   0  15   0   18.48    7.29
  -7  -9   0  806.71   32.99
   7   9   0  853.29   37.20
  -7   9   0  843.92   52.23
  -7   9   0  819.98   39.02
   7  -9   0  820.42   36.25
   7  -9   0  889.24   54.63
   5   5   4 1064.35   38.93
   5  -5   4 1003.57   39.30
   5   5   4  986.31   44.36
  -5   5  -4 1055.51   49.34
   5  -5   4 1054.09   43.28
  -5  -5  -4  989.98   44.82
  -3  -6   7  992.59   23.55
   3   6  -7 1054.40   24.11
  -3  -6   7 1055.49   25.12
  -3   6   7 1072.04   40.71
  -3   6   7 1116.56   41.35
   7   5   2  639.65   30.88
  -7  -5  -2  595.64   32.70
   7  -5   2  558.50   30.60
  -7   5  -2  515.99   32.00
   7   5   2  593.91   33.34
   7  -5   2  564.31   30.74
  -4  11   5  193.61   15.26
  -4  11   5  166.62   11.53
   0   8  -6   68.83    6.76
   0   8   6   58.75    4.91
   0   8   6   69.61   11.11
   0  -8   6   64.64    4.93
  -8  -8   2   20.68   11.22
  -8   8   2   31.64    9.75
  -8   8   2   24.87    9.85
   8   8  -2    3.73    8.02
   8  -8  -2   24.50   15.07
   8  -8  -2   23.85    9.84
  -4   6   7  405.41   19.33
  -4  -6   7  320.54    7.61
   4   6  -7  362.07    9.88
  -4  -6   7  314.28    8.47
  -2  11  -4   41.08    8.97
  -2  11  -4   65.94    6.37
   2  11   4   55.61   10.67
   2 -11   4   57.13    5.39
   4  -8   4   54.84    9.31
  -4   8  -4   83.56    9.46
  -4   8  -4   44.73   11.54
   4   8   4   60.02   11.32
   6  10   1   66.76   11.15
  -6 -10  -1   54.45   10.72
  -6  10  -1   72.15   11.69
   6 -10   1   74.28   10.79
   6 -10   1   76.38   12.51
  -6  10  -1   72.62   19.05
  -7   6   6  125.84   12.52
  -7  -6   6  115.27    6.91
   7  -6  -6   99.42    8.03
  -6  11   0  227.98   17.82
   6  11   0  249.70   22.81
   6 -11   0  269.24   19.42
   6 -11   0  261.63   16.31
  -6  11   0  258.32   28.12
  -6 -11   0  195.90   14.52
  -8  -8   3    1.30    4.80
   8  -8  -3   -2.05    7.66
   8   8  -3    2.33    5.91
  -8   8   3    3.32    7.01
   8  -8  -3    5.97    6.77
  -8   8   3   -2.23    7.49
   9   3  -1 1305.60   56.68
   9  -3  -1 1354.41   76.31
   9   3  -1 1374.75   55.16
  -9   3   1 1282.46   58.94
  -9  -3   1 1341.48   56.17
  -8  -6   5 1255.25   47.31
   8   6  -5 1323.47   46.56
   8  -6  -5 1269.98   50.07
   8  -6  -5 1257.34   44.88
  -8   6   5 1198.68   48.87
  -7 -10   3 1249.44   41.63
   7 -10  -3 1223.10   61.44
  -7  10   3 1222.50   47.53
  -7  10   3 1200.31   49.40
   7 -10  -3 1185.56   46.63
  -6  -4   7    7.17    5.83
  -6   4   7    9.67    6.48
   6   4  -7    5.49    6.28
   9   0  -5    0.39    6.08
   9   0  -5   -1.44    9.96
  -9   0   5   -2.34    6.34
   9  -4  -4  421.96   22.93
   9  -4  -4  432.06   25.86
   9   4  -4  427.63   23.93
  -9  -4   4  386.73   29.28
  -9   4   4  383.17   24.18
   9   4  -4  408.33   36.64
   8   3  -6  311.10   19.93
   8   3  -6  281.43   16.53
  -8   3   6  321.54   18.38
   8  -3  -6  318.48   18.45
   8  -3  -6  305.43   14.74
  -8  -3   6  294.78   22.03
  -1  15   0   16.50    6.64
   1  15   0    2.80    4.08
   1  15   0   -0.51    6.10
  -1  15   0   -1.61    4.46
   1  15   0   -3.52    6.53
   9   1  -5 2036.42   75.09
   9  -1  -5 2011.41   75.20
   9  -1  -5 2167.61   80.48
  -9  -1   5 2179.67   79.73
  -9   1   5 2094.80   78.67
   9   1  -5 2189.80   78.32
   3  -7   5    3.64    7.80
  -3   7  -5    7.97    5.53
  -3   7  -5    8.30    5.40
   3  -7   5   -2.44    5.85
   3   7   5   -6.85    7.34
  -1   5   7  285.64   18.66
  -1  -5   7  318.48   13.89
   1  10   5  418.67   22.27
   1 -10   5  396.00   11.06
  -1  10  -5  408.48   13.74
  -1  10  -5  413.61   18.35
   0  -3   7  296.19   15.72
   0   3   7  292.15   17.82
  -1   9   6    6.38    3.53
  -1   9   6   -0.68    8.07
   1   9  -6   15.85    4.70
  -1   9   6    5.27    8.11
   7  10  -1   62.22   10.76
  -7  10   1   69.43   12.24
   7 -10  -1   78.79   11.54
  -7  10   1   61.81   12.17
   7 -10  -1   41.49   18.98
  -7 -10   1   70.36   13.61
   0  15   1  817.60   27.88
   0  15  -1  814.24   23.30
   0  15  -1  866.19   46.38
   0  15   1  808.42   34.36
   0  15  -1  803.21   24.76
   0  15   1  833.52   28.68
  -2  -6   7  468.90   14.25
  -2   6   7  453.31   23.74
  -2  -6   7  450.03   14.58
  -2   6   7  416.06   33.33
   2   6  -7  466.27   11.83
  -9   5   3   17.54    7.38
  -9  -5   3   -1.74    8.93
   9   5  -3   -8.67    6.93
   9  -5  -3    7.51    6.77
   9  -5  -3  -14.31    8.02
  -1  15   1 1009.69   33.80
  -1  15   1  972.35   39.36
   1  15  -1  943.39   38.85
   1  15  -1  984.18   27.00
   1  15  -1  919.68   25.96
   1 -12   4   56.43    3.07
  -1  12  -4   55.36    9.14
   1  12   4   69.86   10.23
  -1  12  -4   56.18    3.50
   3 -13   2   67.78   11.11
  -3  13  -2  100.38   10.84
   3  13   2   77.10    9.64
  -3  13  -2   80.20   10.98
  -7   0   7    4.46    4.69
   7   0  -7   -0.34    2.65
  -4  -4  -5   72.74   11.32
   4  -4   5   40.87    7.81
   4   4   5   37.56   16.36
   4   4   5   35.46    8.08
  -4   4  -5   35.48   10.45
   4  -4   5   40.63   16.26
   1   7   6   50.11    9.82
   1  -7   6   24.73    6.39
  -1   7  -6   27.62    6.07
  -8   4  -1    7.13   13.19
   8   4   1   15.09    8.55
   8  -4   1    5.26    8.78
  -8  -4  -1   -3.11    8.35
   8   4   1    2.47    8.53
   8  -4   1    0.55    7.90
  -2  13   4   31.12    7.61
  -2  13   4    2.71    6.57
   2  13  -4   14.55    6.96
   4  12   2  213.23   21.31
  -4  12  -2  190.64   15.86
  -4  12  -2  189.09   16.07
   4 -12   2  187.34   11.66
   7   1  -7   10.23    5.59
   7  -1  -7    5.18    2.98
  -7  -1   7    8.37    5.66
  -7   1   7   15.16    5.87
  -1  14   3   80.80    9.77
  -1  14   3   59.18   14.51
  -1  14   3   58.71    9.61
   1  14  -3   80.04   10.11
   3  10   4  126.41   19.26
  -3  10  -4   73.93   14.96
   3 -10   4   99.48    8.79
  -3  10  -4  105.38   11.09
   9  -2  -5   11.46    7.46
   9   2  -5    2.24    6.76
   9   2  -5   -0.95    7.15
  -9   2   5    7.89    7.55
   9  -2  -5   10.12    7.05
  -9  -2   5    5.58    7.13
   2   5   6  776.39   33.90
  -2   5  -6  801.29   27.76
   2   5   6  736.83   23.63
   2  -5   6  826.92   33.13
  -4  13  -1  640.02   29.41
  -4  13  -1  596.06   27.95
   4 -13   1  576.13   23.14
   4  13   1  616.89   25.28
   6  -6   3 1180.62   49.29
   6  -6   3 1179.90   47.01
  -6   6  -3 1187.68   51.57
  -6  -6  -3 1156.73   52.07
   6   6   3 1182.73   51.74
  -7  -8  -1 1598.44   63.85
  -7   8  -1 1620.81   67.66
   7   8   1 1609.50   80.02
  -7   8  -1 1623.68   81.96
   7  -8   1 1754.02   70.36
   7  -8   1 1674.16   81.27
  -2  14   3   14.46    6.28
   2  14  -3    5.35    6.93
  -2  14   3   -1.78    6.18
   9   5  -2  734.33   35.16
  -9   5   2  698.77   53.67
  -9  -5   2  715.71   42.38
   9  -5  -2  698.93   39.67
   9  -5  -2  771.21   36.78
   2  -9   5   12.24    4.63
   2   9   5   10.38    8.66
  -2   9  -5    8.75    6.04
  -2   9  -5   11.10    4.66
  -1  13   4  275.16   17.76
   1  13  -4  266.23   16.10
  -1  13   4  294.21   17.35
  -1  13   4  295.40   21.41
  -6  11   4  252.99   18.38
  -6  11   4  239.37   15.96
  -6   8   6   35.33   10.80
  -6   8   6   42.09   14.92
  -5  13   2   92.29   12.51
   5  13  -2  111.43    8.41
  -5  13   2  134.48   12.94
   5  13  -1  627.52   24.17
  -5  13   1  649.77   30.32
   5 -13  -1  650.29   35.92
  -5  13   1  580.74   28.31
   0  11   5  303.17   19.77
   0  11   5  315.58   19.60
   0  11  -5  295.04   15.19
   0  11   5  307.82   13.77
  -5   6   7 1149.93   54.62
   5   6  -7 1119.51   28.92
   9   4  -1   -6.14    7.41
  -9   4   1   12.41    8.64
   9  -4  -1   -5.89    8.98
   9   4  -1   -5.23    8.72
  -9  -4   1   -2.90    6.91
  -7   2   7  303.17   16.37
   7   2  -7  297.63   12.16
   7  -2  -7  289.05   12.73
  -7  -2   7  321.82   14.58
  -5   9   6  251.33   17.77
  -5   9   6  219.04   16.31
  -8   4   6  211.89   15.29
  -8  -4   6  184.98   19.14
   8   4  -6  205.08   14.49
   8  -4  -6  174.60   11.96
   8  -4  -6  211.96   16.21
   8   4  -6  211.76   15.67
  -3  13   4  185.50   18.77
   3  13  -4  188.46   13.85
  -5  12   4  188.62   16.21
  -5  12   4  224.27   20.54
  -8   8   1 1372.58   57.15
   8  -8  -1 1337.71   75.58
   8   8  -1 1350.49   66.81
   8  -8  -1 1286.21   57.51
  -8  -8   1 1268.22   51.00
  -8   8   1 1371.77   58.67
   6 -12  -2  302.40   19.89
  -6  12   2  355.06   21.02
   6 -12  -2  340.36   21.28
   6  12  -2  380.15   16.30
  -6  12   2  292.48   21.11
   3  14   1   50.01    7.40
  -3  14  -1   44.55    7.80
  -3  14  -1   55.54   14.35
   3 -14   1   10.19    6.11
   1  15   1  797.91   34.52
   1  15   1  745.88   27.21
  -1  15  -1  827.03   35.79
  -1  15  -1  771.51   26.17
   1  15   1  800.64   27.87
   3  12   3   40.41    9.47
   3 -12   3   43.26    5.92
  -3  12  -3   52.33    9.49
  -3  12  -3   38.03   10.18
   5 -12   1  423.58   24.19
   5 -12   1  400.10   27.21
  -5  12  -1  359.44   23.37
  -5  12  -1  427.53   32.75
   5  12   1  418.54   20.86
  -2  15   1  606.82   28.04
   2  15  -1  641.89   29.49
   2  15  -1  560.32   17.11
  -2  15   1  619.05   31.54
   2  15  -1  615.67   18.22
   5  -9   3   18.51    7.30
  -5   9  -3   22.71    9.03
  -5   9  -3    9.59    8.07
   5   9   3    5.75    8.55
   5  -9   3   10.26    7.96
  -6   5   7  387.66   19.46
  -6  -5   7  315.76    9.60
  -6  -5   7  337.93   11.35
  -6  10   5  899.49   33.65
  -6  10   5  873.91   38.15
   5  -6   4  104.01   12.73
  -5   6  -4   56.09   15.95
  -5  -6  -4  105.21   20.66
   5  -6   4   65.71   17.38
   5   6   4  124.77   14.54
   0   4   7  580.46   27.45
   0  -4   7  622.07   24.28
   9  -3  -5 1446.45   66.91
   9  -3  -5 1479.08   59.22
   9   3  -5 1518.05   53.57
  -9  -3   5 1523.82   66.83
   9   3  -5 1489.85   56.85
  -9   3   5 1495.45   58.98
   7   6   2   -4.97   13.85
  -7   6  -2   -3.37    8.32
   7  -6   2    1.81    8.00
   7  -6   2   25.31    8.35
  -7  -6  -2    4.15    8.47
  -8   8   4   30.70    9.23
   8  -8  -4   30.64    9.90
  -8  -8   4   14.23    5.58
   8   8  -4   12.63    6.94
  -8   8   4    8.19    8.74
   8  -8  -4   27.29    7.98
   9  -5  -4  807.22   53.08
   9  -5  -4  805.76   36.87
  -9  -5   4  840.42   32.97
   9   5  -4  876.08   40.91
  -9   5   4  842.21   39.05
   0  14   3   59.54    9.56
   0  14  -3   66.06   10.68
   0  14   3   57.05    9.68
   0  14   3   63.96    9.63
   4  14  -1   24.99    5.78
   4  14  -1   28.39    5.03
  -4  14   1   32.72    8.12
  -4  14   1   35.89    9.30
  -2  14  -2   84.33    9.97
   2  14   2   83.12    9.96
  -2  14  -2   77.71   11.61
   2  14   2   58.89   14.71
   2  15   0   20.67    7.98
   2  15   0   15.17    4.83
  -2  15   0   12.62    9.13
  -2  15   0    4.91    8.09
   2  15   0    4.71    4.95
  -8  -7   0  734.41   34.54
  -8   7   0  789.44   39.44
   8  -7   0  812.07   40.86
   8   7   0  746.16   48.05
   8  -7   0  710.56   37.48
  -3   0  -6  681.40   30.70
   3   0   6  629.70   25.94
   3   0   6  667.57   42.31
   2  13   3  381.49   20.10
  -2  13  -3  329.39   20.31
   2 -13   3  368.37   15.77
  -6   9  -2  740.01   35.93
   6  -9   2  758.89   43.87
  -6  -9  -2  718.76   45.82
   6   9   2  743.43   35.80
   6  -9   2  767.68   35.40
  -6   9  -2  746.49   45.75
   6 -12  -1  550.62   40.01
   6  12  -1  502.61   23.14
  -6  12   1  479.06   35.12
  -6  12   1  507.98   27.71
   6 -12  -1  525.34   25.53
   9   0   0 1180.70   52.64
  -9   0   0 1174.77   65.86
  -3   7   7   10.84    6.03
   3   7  -7   -1.15    2.53
  -3   7   7   -4.66    5.87
  -3  14   3  105.75   11.25
   3  14  -3   90.08   12.34
  -3  14   3   89.35   11.20
  -5  11   5  351.48   21.76
  -5  11   5  374.11   17.45
   3  -1   6   21.83    5.11
   3  -1   6   39.63    9.27
   3   1   6   19.37    9.34
   3   1   6   25.58    5.08
  -3  -1  -6   41.15    9.65
  -3   1  -6    7.06   13.66
  -3  10   6  199.62   13.91
  -3  10   6  223.54   17.31
  -3  10   6  187.26   16.36
   3  10  -6  190.71   11.43
   7   3  -7    3.21    4.52
   7  -3  -7    3.48    2.77
  -7  -3   7    4.73    4.78
  -7   3   7    8.55    6.29
   9   1   0   11.51   16.62
  -9  -1   0   35.30   10.57
   9  -1   0   17.63   11.83
   9  -1   0   13.77   16.31
  -9   1   0   16.25   10.70
  -4  14   2  129.39   12.57
  -4  14   2  159.08   13.84
  -4   5  -5  506.46   26.47
  -4  -5  -5  481.13   28.19
   4  -5   5  464.37   21.34
   4   5   5  506.57   21.56
   4   5   5  469.53   27.56
   4  -5   5  506.70   26.11
  -7  10   4  275.50   17.31
  -7  10   4  253.83   18.74
  -7 -10   4  205.76   10.24
   7 -10  -4  244.15   15.95
   7 -10  -4  283.97   19.67
   8  -5   1  643.92   47.80
   8  -5   1  635.47   35.34
   8   5   1  642.35   32.95
  -8   5  -1  627.15   33.80
  -8  -5  -1  646.45   33.71
   8   5   1  592.02   34.86
  -4   7   7   11.75    7.63
   4   7  -7   12.22    5.40
  -7   7   6  359.12   21.18
   7  -7  -6  352.17   14.82
  -5  11  -2  157.63   15.00
   5 -11   2  161.46   14.80
  -5  11  -2  145.93   14.55
   5 -11   2  125.12   18.22
   5  11   2  122.11   13.95
  -1   6   7  712.35   41.53
   1   6  -7  654.87   21.19
  -1  -6   7  678.85   22.43
   8  -7  -5   -2.06    5.22
   8  -7  -5    7.88    6.57
   8   7  -5    0.41    3.52
  -8   7   5  -13.76    6.77
  -8  -7   5    2.82    3.63
  -1  15   2    2.57    6.15
  -1  15   2   -4.87    7.96
   1  15  -2    9.15    6.35
  -1  15   2   -2.79    5.37
  -9  -6   3 1043.32   51.08
   9  -6  -3 1053.06   46.49
  -9   6   3 1076.92   48.85
   9   6  -3 1061.58   44.95
   2  10  -6    1.77    4.05
  -2  10   6    0.76    5.15
  -2  10   6    5.43   10.10
  -2  10   6  -10.98    6.68
   2  12  -5  228.28   13.86
  -2  12   5  214.72   17.73
  -2  12   5  235.11   17.89
  -2  12   5  235.78   17.04
   0  13   4   20.74    7.27
   0  13   4    4.40    7.36
   0  13  -4    1.06    6.45
   0  13   4    9.01    5.96
  -6  12   3    0.96    6.49
   6 -12  -3   -4.03    6.35
  -6  12   3   -1.02   10.77
   6 -12  -3   12.15    6.85
   4 -11   3    5.27    7.15
  -4  11  -3    2.30    6.99
  -4  11  -3    4.13    7.05
   4 -11   3    7.08    5.46
   4  11   3   11.58   11.20
   3   2   6  521.42   18.67
   3  -2   6  575.91   27.58
   3   2   6  572.66   38.27
   3  -2   6  508.02   18.13
  -3   2  -6  563.33   25.96
  -7   9   5   42.30    8.68
   7  -9  -5   26.61    7.68
  -7   9   5   34.19   10.00
  -3  12   5  106.30    9.25
  -3  12   5   99.15   13.08
   3  12  -5  104.91   10.28
  -5  13   3  263.71   18.67
  -5  13   3  279.07   18.17
   7   0   3  -16.46    9.23
  -7   0  -3    7.56    9.96
   9   2   0 1387.33   60.57
  -9  -2   0 1355.56   58.57
   9   2   0 1433.86   62.72
   9  -2   0 1406.02   60.57
  -9   2   0 1379.25   77.05
   9  -2   0 1505.56   64.51
   1   0   7    5.98    6.78
   2   6   6   10.67    5.10
  -2   6  -6   16.21    5.83
  -2   6  -6   13.18    5.87
   2  -6   6   16.91    7.33
   2   6   6   23.03    8.69
  -5  13   0  194.79   15.91
  -5  13   0  220.20   18.87
   5 -13   0  216.32   14.54
   5  13   0  226.79   14.28
   2   7  -7    6.50    3.15
  -2   7   7   10.91    7.14
  -2   7   7   -3.53    7.46
   0   9   6 1352.40   41.69
   0   9  -6 1327.54   41.53
   0   9   6 1281.59   52.47
  -9  -6   2    1.21   10.71
   9  -6  -2    3.13    8.21
   9   6  -2    4.37    7.36
   9  -6  -2   -6.02    8.89
  -9   6   2   13.41    9.37
   9  -5  -1  502.59   31.41
  -9  -5   1  522.30   38.89
   9   5  -1  496.93   28.24
  -9   5   1  552.80   31.96
   9  -5  -1  510.41   31.79
   7   1   3 1258.22   58.43
   7  -1   3 1215.20   55.57
  -7  -1  -3 1238.96   59.53
  -7   1  -3 1268.77   77.73
   7  -1   3 1284.74   51.88
   0  15   2   -1.74    8.37
   0  15   2   -1.68    9.63
   0  15  -2   -5.53    5.28
   0  15  -2   -1.65    2.23
   0  15   2    5.48    5.30
   0  15  -2   -2.74    6.67
   4 -14   0 1066.60   37.56
   4  14   0 1037.32   43.66
  -4  14   0 1051.14   44.78
  -4  14   0 1070.81   40.63
   4  10  -6   40.04    7.04
  -4  10   6   39.16    6.34
  -4  10   6   51.98   10.33
   9  -4  -5    5.33    8.23
  -9  -4   5   -4.14    9.94
   9   4  -5    5.29    6.10
  -9   4   5   15.37    7.96
   9  -4  -5    5.98   11.13
   9   4  -5   -2.89    7.36
   1  -1   7 1432.98   52.40
   1   1   7 1374.60   52.01
  -8  -9   2  457.39   29.47
   8  -9  -2  473.16   27.65
  -8   9   2  468.13   28.86
   8   9  -2  507.96   24.13
   8  -9  -2  486.88   40.08
  -8   9   2  507.20   39.10
  -6   0  -4  494.55   34.70
   6   0   4  551.92   26.16
   6   0   4  573.30   45.71
   8   5  -6  661.45   21.48
  -8   5   6  704.98   31.20
  -8  -5   6  665.39   24.83
   8  -5  -6  651.57   24.66
   8  -5  -6  692.43   31.94
   4  -9   4  350.18   18.88
   4  -9   4  344.72   17.75
   4   9   4  321.15   22.54
  -4   9  -4  278.34   30.61
  -4   9  -4  338.92   19.64
  -2  15   2   -0.15    5.44
   2  15  -2    4.59    6.71
  -2  15   2    0.37    6.35
  -3   8  -5 1146.60   42.84
  -3   8  -5 1158.02   41.88
   3  -8   5 1224.94   42.63
   3  -8   5 1294.16   44.13
   3   8   5 1231.67   51.44
  -8  -9   3   15.59    6.07
   8   9  -3   11.73    7.22
   8  -9  -3   14.78    8.96
   8  -9  -3   26.46    9.67
  -8   9   3   16.37    9.07
  -8   9   3   23.46    9.64
   7 -10   0  199.00   21.42
   7 -10   0  223.60   18.26
  -7  10   0  200.12   19.78
  -7 -10   0  208.73   15.59
   7  10   0  240.53   17.76
  -7  10   0  227.77   28.35
  -4  13   4   21.13    8.03
  -4  13   4   47.39    9.65
   6  -1   4   23.72    9.00
  -6   1  -4   36.11   12.76
  -6  -1  -4   27.79   12.56
   6  -1   4   40.36   11.93
   6   1   4   27.91   11.48
   6  -7   3   16.11    8.42
   6  -7   3    7.10    8.10
   6   7   3   -3.34    9.04
  -6   7  -3   18.55    8.62
  -6  -7  -3   11.30    9.49
  -6   7  -3    8.97    9.06
   7 -11  -2  252.91   20.39
  -7  11   2  292.70   20.44
   7 -11  -2  322.86   29.43
  -7  11   2  300.65   20.99
   7  11  -2  274.50   16.09
  -7 -11   2  292.32   19.41
  -1   8  -6   31.33    6.36
   1  -8   6   24.42    5.56
   1   8   6   31.32    9.80
   0  -5   7   61.75    8.92
   0   5   7   78.26   11.67
  -1  12   5  240.46   25.65
  -1  12   5  202.26   17.53
  -1  12   5  210.66   12.19
   1  12  -5  248.98   20.40
  -7  -2  -3    5.52   11.98
  -7   2  -3   48.68   11.56
   7  -2   3   28.19   10.11
   7   2   3   15.11   11.28
   7  -2   3    3.54    9.25
   7   2   3    6.29    8.79
   7   4  -7  722.20   25.22
  -7  -4   7  740.93   23.98
  -7   4   7  724.19   31.42
   7  -4  -7  705.12   19.41
   1   2   7   47.02   15.97
   1  -2   7   50.23    9.75
   3  -3   6   42.05    9.12
   3  -3   6   35.92   10.57
   3   3   6   32.54    6.10
   3   3   6   68.69   11.17
  -3   3  -6   39.40    9.41
   2  15   1  854.61   30.08
   2  15   1  803.01   28.53
  -2  15  -1  752.32   29.48
  -2  15  -1  784.12   36.50
  -5   7   7   16.20    7.92
   5   7  -7   11.03    3.98
  -4   0   8 1998.46   72.96
  -4   0   8 1997.21   75.74
  -6   6   7  116.42   12.70
  -9  -3   0  133.12   17.32
   9   3   0  141.62   17.01
  -9   3   0  162.96   18.48
   9  -3   0  162.65   28.73
  -6  -2  -4  517.26   33.00
   6  -2   4  498.00   25.63
   6   2   4  536.04   46.18
  -6   2  -4  519.41   48.45
   6  -2   4  507.42   29.50
   9  -6  -4   78.91   14.01
   9  -6  -4   61.82   11.71
  -9  -6   4   66.82    9.48
   9   6  -4   69.44   13.13
  -9   6   4   66.42   13.31
  -1  14  -3   32.20    8.76
   1  14   3   21.55    8.43
   1  14   3   29.07    8.32
   1  14   3   28.61    8.09
  -3  15   1  817.93   32.30
   3  15  -1  786.56   22.74
   3  15  -1  807.93   24.37
  -3  15   1  816.60   36.42
  -6  11  -1  424.37   25.56
   6 -11   1  442.97   27.13
   6  11   1  439.86   23.83
   6 -11   1  419.87   23.33
  -6  11  -1  438.56   26.97
   7 -11  -3   -9.00    6.86
   7 -11  -3   -0.92    7.21
  -7  11   3    9.77    6.80
   7  11  -3    2.16    4.61
  -7 -11   3    2.30    3.50
  -7  11   3    2.14    7.11
  -4   1   8   -9.88    4.79
  -4  -1   8    6.46    4.49
  -4  -1   8   -0.41    4.27
  -4   1   8   -0.98    5.03
   1  10  -6  318.93   20.08
  -1  10   6  305.05   20.54
  -1  10   6  314.42   16.53
  -1  10   6  268.79   20.22
  -3   0   8  265.45   14.07
  -3   0   8  230.58   13.48
  -4  12   5  288.91   19.19
  -4  12   5  248.53   20.91
   4  12  -5  239.26   15.94
   7  -9   1   19.10    9.42
  -7  -9  -1   15.36   12.60
  -7   9  -1   -3.29   14.41
   7   9   1   -0.29    8.77
  -7   9  -1   12.53    9.05
   7  -9   1    3.47    8.57
  -5   7  -4  973.14   50.38
  -5   7  -4  981.75   41.28
   5   7   4 1024.56   45.95
   5  -7   4  998.52   39.90
   5  -7   4 1027.82   42.26
  -5  -7  -4 1023.19   46.03
  -3  -1   8   28.09    6.51
  -3   1   8   22.26   10.99
  -3  -1   8   25.94    6.02
  -3   1   8   15.07    6.67
  -7   7  -2  461.29   28.90
   7   7   2  428.47   28.60
  -7  -7  -2  424.75   27.90
   7  -7   2  431.79   26.43
   7  -7   2  428.49   39.47
  -2  12  -4  573.83   19.91
   2 -12   4  576.34   16.61
  -2  12  -4  611.87   26.92
   2  12   4  588.24   29.60
   6 -12   0  895.54   42.23
  -6  12   0  826.14   38.71
   6 -12   0  848.91   36.39
  -6  12   0  850.67   40.26
   6  12   0  849.22   44.82
   8   0   2  822.98   41.22
  -8   0  -2  828.76   44.76
   8   0   2  828.72   41.97
  -1  11  -5  113.21   10.95
   1  11   5  117.27   13.93
  -6   9   6  703.01   44.35
  -6   9   6  692.17   26.33
   4  -6   5  109.34   13.18
   4   6   5  108.78   14.95
  -4   6  -5  108.91   13.66
   4  -6   5  117.09   10.59
   4   6   5  101.87   11.19
  -7 -11   1  430.18   27.88
   7 -11  -1  497.45   29.44
   7  11  -1  433.12   24.30
  -7  11   1  446.52   37.49
   7 -11  -1  440.95   25.65
  -7  11   1  437.94   27.23
   8  -6   1  -21.52    9.54
  -8  -6  -1    5.50    8.82
   8  -6   1  -16.67    8.74
  -8   6  -1   11.26    9.11
   8   6   1   -6.05    9.53
  -4  14   3    5.68    7.11
  -4  14   3    7.57    6.96
  -8  -1  -2   23.16   13.07
  -8   1  -2   24.28   12.30
   8  -1   2   33.36   11.25
   8   1   2   47.81   12.37
   8  -1   2   29.77   12.09
   7  -3   3  856.69   40.54
   7   3   3  924.97   40.68
  -7  -3  -3  854.94   46.09
   7   3   3  893.09   48.17
  -7   3  -3  944.56   46.31
   7  -3   3  933.96   58.28
  -4  -2   8 1234.01   37.79
  -4   2   8 1198.97   42.10
  -4  -2   8 1166.63   42.99
  -4   2   8 1172.99   43.46
   1  -3   7  894.18   35.33
   1   3   7  833.26   36.62
   1  15   2   -1.60    5.91
   1  15   2   10.01    6.02
   1  15   2    5.93    7.10
  -1  15  -2   16.84   11.63
  -1  15  -2    5.07    7.91
  -3  15   0    6.33    5.50
  -3  15   0   -2.78    7.37
   3  15   0    3.55    4.17
   3  15   0   -1.96    4.59
   2  10   5  336.02   31.77
   2 -10   5  308.39   17.29
  -2  10  -5  324.98   13.25
  -2  10  -5  336.80   17.57
  -5   0   8  212.47   11.82
  -5   0   8  168.87   12.17
  -8  -9   1    5.33    6.25
  -8   9   1   -6.73    7.84
  -8   9   1   -9.14    8.59
   8  -9  -1    9.42    8.50
   8  -9  -1    8.65    8.07
   8   9  -1   -1.09    6.58
   9   0  -6  288.83   17.70
  -9   0   6  261.35   17.73
  -8   8   0    6.28    8.49
  -8  -8   0   -0.66    7.35
   8  -8   0   -5.78   14.64
   8   8   0   -3.38    8.23
   8  -8   0    3.43    8.56
  -8   8   0   12.22    9.05
   3  11   4  696.95   33.27
  -3  11  -4  737.44   30.33
   3 -11   4  681.40   23.25
  -3  11  -4  576.49   25.92
   9  -5  -5  496.01   28.60
  -9  -5   5  505.21   22.71
   9  -5  -5  471.09   33.71
   9   5  -5  505.98   23.76
  -9   5   5  518.89   29.26
 -10   0   3  -14.12   12.96
  10   0  -3    1.97    9.41
  -3   2   8   36.05    9.31
  -3  -2   8   52.58   11.50
  -3  -2   8   66.82   10.77
  -3   2   8   84.44    9.16
   6  -3   4  165.63   17.65
   6   3   4  150.65   18.82
  -6  -3  -4  143.51   19.77
  -6   3  -4  193.31   21.44
   6  -3   4  160.19   14.78
  -5  -1   8   20.92    5.58
  -5   1   8   27.05   10.41
  -5   1   8   17.56    6.63
  -5  -1   8   19.66    9.13
  -1   7   7   27.41    9.31
   1   7  -7   16.56    4.23
  -1   7   7   53.52    9.64
  -3  15   2   29.31   10.96
   3  15  -2   -3.98    7.79
  -3  15   2    3.13    6.45
   9  -1  -6   41.47   10.41
  -9   1   6   63.91   10.65
   9   1  -6   29.86   14.19
  -9  -1   6   47.27    9.92
  -5  10   6  180.86   17.85
  -5  10   6  196.46   11.73
   3   8  -7  820.97   28.59
  -3   8   7  788.11   36.38
  -3   8   7  804.06   36.44
 -10   1   3 1142.50   54.50
  10   1  -3 1227.85   73.16
  10  -1  -3 1260.44   54.27
  10  -1  -3 1231.53   57.00
 -10  -1   3 1197.08   53.48
  -8  -9   4  457.78   16.94
   8   9  -4  490.03   20.82
  -8   9   4  404.44   36.07
  -8   9   4  445.58   27.24
   8  -9  -4  482.36   33.71
   8  -9  -4  386.99   25.73
  -3   4  -6  251.85   16.56
   3  -4   6  223.04   17.01
   3   4   6  233.74   12.32
   3   4   6  227.24   19.71
   3  -4   6  255.99   26.98
   9   7  -3   -1.83    7.37
   9  -7  -3   -5.72    9.41
   9  -7  -3   14.04    8.21
  -9   7   3   24.44    9.01
  -9  -7   3   -1.74    6.51
  -8  -2  -2  770.36   42.04
   8  -2   2  783.02   41.69
  -8   2  -2  807.86   41.47
   8   2   2  831.99   43.47
   9  -6  -1   -7.84    9.75
  -9   6   1   -4.45    9.52
   9   6  -1   13.03    8.18
  -9  -6   1    0.86    8.09
   9  -6  -1   21.66    9.62
   9  -4   0  626.66   37.26
  -9  -4   0  673.47   35.63
  -9   4   0  654.28   36.93
   9   4   0  713.09   36.35
   5   0   5    3.82   13.74
   5   0   5   -0.21    6.25
  -5   0  -5   11.49    9.10
  -8  -6   6   42.26    6.44
   8  -6  -6   41.95    7.81
   8  -6  -6   14.10   11.22
  -8   6   6   56.82   16.88
   8   6  -6   54.72    5.25
  -4   8   7  472.14   24.91
   4   8  -7  393.61   14.20
  -1  13  -4  187.21   14.06
   1  13   4  181.92   15.38
   1  13   4  165.53   15.33
   1  13   4  183.91   13.60
   7  -8  -6    0.62    4.14
  -7   8   6   -1.10    6.51
  -8   8   5 1128.80   48.35
  -8  -8   5 1061.72   31.89
   8   8  -5 1156.21   31.76
   8  -8  -5 1121.31   42.12
   8  -8  -5 1118.06   48.76
   8   0  -7   -4.76    3.81
  -8   0   7    9.17    5.26
   5  10   3  141.68   15.22
  -5  10  -3  118.51   14.47
  -5  10  -3  145.38   15.28
   5 -10   3  132.55   14.66
   5 -10   3  150.57   13.23
  -7   5   7   25.80    7.80
   7  -5  -7    7.86    3.65
  -7  -5   7    9.79    4.48
   5  -1   5  315.15   24.42
   5   1   5  332.75   18.69
  -5  -1  -5  317.96   25.79
   5   1   5  306.52   24.49
  -5   1  -5  348.25   24.98
   5  -1   5  326.81   18.20
  -2   7  -6 1159.97   38.00
   2  -7   6 1199.25   42.76
  -2   7  -6 1196.81   48.34
   2   7   6 1130.11   63.71
  -2   0   8 1756.74   58.69
  -2   0   8 1768.75   68.63
  -5   2   8  142.55   11.85
  -5  -2   8  127.21   12.88
  -5   2   8  109.91   11.21
   9   7  -2  567.85   28.99
   9  -7  -2  585.45   34.28
   9  -7  -2  544.84   33.72
  -9   7   2  562.40   35.36
  -9  -7   2  567.55   38.26
   4  13   2  146.69   21.09
  -4  13  -2  152.34   15.61
   4 -13   2  156.65   11.28
  -4  13  -2  172.37   15.47
   8  -1  -7 1662.30   57.44
  -8   1   7 1780.62   74.47
   8   1  -7 1730.17   54.24
  -8  -1   7 1717.01   59.43
  -4   3   8   78.67    8.94
  -4   3   8   81.01    9.26
  -4  -3   8   34.54    6.73
  -4  -3   8   45.84    6.20
   0  16   0  665.41   33.62
   0  16   0  671.23   23.16
   0  16   0  662.59   23.40
  -6  12   4  493.51   27.93
  -6  12   4  526.15   25.18
   9   2  -6  249.04   22.19
  -9   2   6  219.07   17.55
  -9  -2   6  238.99   16.68
   9  -2  -6  204.72   17.92
   0   6   7  792.93   36.18
   0  -6   7  821.09   30.04
 -10   2   3    3.22   16.84
  10   2  -3    0.81   10.18
  10  -2  -3   29.39    9.93
  10  -2  -3   23.39   11.29
 -10  -2   3    2.19    9.35
  10   2  -3   24.53   10.49
  10   0  -4  318.47   38.68
 -10   0   4  317.21   34.95
   0  12   5  180.36   16.46
   0  12  -5  189.28   13.03
   0  12   5  154.67   16.14
   0  12   5  175.55   11.86
  -2   1   8    5.91    6.00
  -2  -1   8    2.21    5.01
  -2   1   8    6.66    5.65
  -2  -1   8   -1.36    5.55
  -6  10  -2  110.88   14.48
   6 -10   2  111.99   14.45
   6 -10   2  123.58   13.33
   6  10   2   98.48   20.97
  -6  10  -2  107.68   22.89
  -6 -10  -2   96.13   14.50
   3 -14   2  915.71   29.29
   3  14   2  908.77   36.23
  -3  14  -2  943.51   40.11
  -3  14  -2  861.31   38.09
  -6  11   5   58.36   12.21
  -6  11   5   62.19    9.70
  10   0  -2  866.98   60.72
 -10   0   2  918.01   43.87
  -3  -3   8  372.64   14.30
  -3   3   8  342.36   19.15
  -3  -3   8  363.94   20.98
  -3   3   8  366.59   20.13
  10  -1  -4   47.93   13.27
 -10  -1   4   44.42   11.08
  10   1  -4    3.68   10.54
  10   1  -4   31.54   13.03
 -10   1   4   45.27   11.79
   2   8  -7  545.64   17.35
  -2   8   7  541.53   27.89
  -2   8   7  528.43   28.40
  -2  14   4  715.24   42.98
   2  14  -4  759.83   32.65
  -2  14   4  783.53   30.89
  -2  14   4  734.30   33.47
   7   4   3   -2.71    7.25
   7   4   3   10.37    9.73
   7  -4   3   11.43    8.36
   7  -4   3    0.22    7.92
  -7  -4  -3    4.27    9.66
  -7   4  -3   -1.82    8.74
  10  -1  -2   22.69   11.19
  10  -1  -2   -3.25   10.57
 -10  -1   2   24.42   10.08
 -10   1   2   23.74   10.73
  10   1  -2   15.69   10.63
  -5   2  -5  242.95   22.96
   5  -2   5  251.36   16.31
   5   2   5  276.04   33.90
   5  -2   5  267.56   21.88
  -5  -2  -5  286.92   32.69
   1  -4   7  191.35   14.29
   1   4   7  163.64   16.44
   4 -14   1    9.07    5.95
   4  14   1   12.24    6.64
  -4  14  -1   10.60    7.45
  -4  14  -1   10.37    8.75
   8  -3   2  233.70   31.77
   8   3   2  281.70   34.58
   8   3   2  224.00   20.63
  -8  -3  -2  275.04   23.57
  -8   3  -2  214.86   33.71
   1  16   0   73.31    7.52
  -1  16   0   53.61    7.95
  -1  16   0   55.83   19.09
   1  16   0   81.46   12.44
   1  16   0   72.53    7.50
   8  -2  -7   -3.49    3.73
  -8  -2   7    8.93    8.24
  -8   2   7   -6.21    6.41
   8   2  -7   -2.43    4.93
  -6   4  -4  287.22   24.19
  -6  -4  -4  255.13   24.23
   6   4   4  233.97   18.12
   6   4   4  261.18   23.17
   6  -4   4  248.78   26.81
   6  -4   4  226.53   21.02
  -2   2   8 1294.64   47.22
  -2   2   8 1304.95   60.13
  -2  -2   8 1362.74   51.38
  -2  -2   8 1358.53   44.44
   6   8   3 1196.36   53.92
  -6  -8  -3 1279.94   69.76
  -6   8  -3 1235.35   54.10
  -6   8  -3 1189.30   50.68
   6  -8   3 1193.98   50.75
   6  -8   3 1195.57   49.97
  -5  13   4  149.71   14.17
  -5  13   4  169.41   15.44
  -1  14   4   -8.40    6.27
  -1  14   4    4.08    5.48
   1  14  -4   -5.34    9.52
  -1  14   4    1.90    6.50
   3  11  -6   11.53    5.79
  -3  11   6   12.54    8.55
  -3  11   6    4.15    4.88
  -3  11   6   19.77    8.86
  -6  13   2  126.40   16.58
   6  13  -2  173.53   11.47
  -6  13   2  204.84   25.09
   6 -13  -2  172.60   15.61
  -6   7   7   36.46   10.08
  -5  14   2  839.40   37.19
  -5  14   2  766.88   36.26
  -1  15   3  633.80   28.63
  -1  15   3  622.87   37.42
   1  15  -3  640.95   30.21
  -1  15   3  618.12   28.48
   7 -11  -4  436.72   27.70
  -7  11   4  495.77   27.79
  -7  11   4  504.49   34.53
   7 -11  -4  477.84   25.22
  -5  14   1    4.29    8.65
   5  14  -1    4.34    8.86
   5 -14  -1   15.81    6.87
  -5  14   1    2.84    7.37
 -10   2   4  249.61   23.27
  10  -2  -4  273.60   24.79
  10   2  -4  270.29   20.85
  10  -2  -4  274.28   20.66
  10   2  -4  268.26   24.72
 -10  -2   4  242.00   19.70
  -9  -7   4  700.41   26.92
   9   7  -4  575.27   30.70
   9  -7  -4  701.37   44.83
  -9   7   4  666.37   49.59
   9  -7  -4  686.51   36.66
   0  16  -1   10.66    9.00
   0  16  -1   21.40    6.59
   0  16  -1    6.76    4.75
   0  16   1   15.84    9.46
   0  16   1   16.53    6.08
   0  16   1   12.38    8.52
  -3  13  -3  440.40   25.30
  -3  13  -3  488.13   25.96
   3  13   3  487.31   25.16
   3 -13   3  498.36   17.58
  -7  10   5   60.34   15.74
  -7  10   5   62.94   12.28
   7 -10  -5   63.99    9.62
  -5  -3   8  353.47   13.82
  -5   3   8  390.87   19.53
  -5   3   8  376.23   27.09
  -5  -3   8  339.95   13.48
  -5  13  -1   76.88   12.87
  -5  13  -1  100.22   13.16
   5 -13   1   81.48   10.41
   5  13   1   72.71   11.08
  -1  16   1   17.13    5.91
  -1  16   1   15.06    5.99
   1  16  -1   13.70   13.20
   1  16  -1    2.61    4.05
   1  16  -1   12.68    4.02
  -1  16   1   11.42    8.45
  -2  15   3  836.30   34.46
  -2  15   3  783.26   32.83
   2  15  -3  732.28   34.74
   3   9   5   20.63    9.18
  -3   9  -5   11.12    6.20
   3  -9   5    7.06    9.15
  -3   9  -5    2.79    7.05
  -9   3   6  233.80   18.64
   9   3  -6  293.62   22.83
   9   3  -6  269.88   17.96
  -9  -3   6  246.31   17.43
   9  -3  -6  270.63   16.19
   9  -3  -6  227.89   19.25
  10   2  -2  910.65   44.43
  10   2  -2  916.27   43.78
  10  -2  -2  876.80   46.13
  10  -2  -2  873.44   44.41
 -10   2   2  848.11   44.49
 -10  -2   2  839.77   41.25
  10  -3  -3  875.79   49.01
 -10  -3   3  920.43   54.04
  10   3  -3  917.64   45.04
  10  -3  -3  915.05   43.35
 -10   3   3  883.83   47.35
  -5  12   5  136.34   11.71
  -5  12   5  119.87   14.89
  -3  14   4   50.88    9.88
  -3  14   4   29.41   13.39
   3  14  -4   36.33    9.63
  -2  11   6  573.88   24.68
   2  11  -6  555.83   29.28
  -2  11   6  552.23   29.48
  -2  11   6  523.90   28.38
   0  10   6   18.99    4.78
   0  10   6   31.39    9.62
   0  10  -6    9.96    6.53
  -5   8   7 1146.69   47.22
   5   8  -7 1122.17   33.25
  -6   0   8 1332.64   44.12
  -1   9  -6  103.54   14.17
   1  -9   6   98.55    6.59
   1   9   6  108.81   14.07
  -8 -10   2  146.36   12.37
  -8  10   2  168.41   17.08
   8  10  -2  138.29   13.41
   8 -10  -2  160.16   17.48
   8 -10  -2  138.76   17.41
  -8  10   2  128.43   17.35
   3  -5   6  100.43    8.81
   3   5   6  111.31   13.90
   3  -5   6   -0.70   19.44
   3   5   6  116.76   14.52
  -3   5  -6  101.42   17.20
   4 -10   4  296.98   18.86
   4  10   4  267.77   21.75
  -4  10  -4  314.18   19.07
  -4  10  -4  213.06   18.69
   4 -10   4  319.15   16.97
   5  12   2  716.63   33.34
  -5  12  -2  700.35   34.33
  -5  12  -2  668.66   33.90
   5 -12   2  721.52   35.20
   5 -12   2  718.70   37.81
   8 -10  -3   20.92    8.59
  -8 -10   3    2.11    8.52
  -8  10   3   14.28    9.76
  -8  10   3   18.94    9.12
   8 -10  -3    2.77    9.09
   8  10  -3   10.78    6.94
  -6  13   1   99.09   13.61
   6 -13  -1   72.70   11.65
   6 -13  -1   86.67   14.91
  -6  13   1   72.47   19.14
   6  13  -1   84.13   10.83
  -6  -1   8   12.77    6.15
  -6  -1   8   25.58    6.17
  -6   1   8   19.57    6.92
  -4  -4   8  807.31   24.32
  -4   4   8  870.89   34.62
  -4  -4   8  809.03   23.06
  -4   4   8  835.59   33.67
   9   5   0  401.06   27.44
  -9  -5   0  433.82   37.48
   9   5   0  368.18   26.30
   9  -5   0  339.84   30.17
  -9   5   0  379.62   28.58
   9  -5   0  393.89   27.11
   4  -7   5   -1.50    8.44
  -4   7  -5   30.98    7.99
  -4   7  -5    9.88    8.76
   4   7   5   21.49   10.37
   4  -7   5   16.75    7.25
   9  -6  -5    2.27    8.78
   9   6  -5    1.51    6.21
   9  -6  -5   10.42    7.09
  -9  -6   5    0.36    5.77
  -9   6   5   11.12    8.61
  -5   3  -5  217.77   21.48
  -5  -3  -5  183.27   21.68
   5  -3   5  263.74   30.50
   5  -3   5  215.66   14.84
   5   3   5  230.04   20.54
   8   7   1   16.90   11.59
   8  -7   1   40.73   10.69
  -8   7  -1   19.43   11.26
   8  -7   1    8.87   11.65
  -8  -7  -1   20.12   10.39
   8   3  -7 1281.82   53.56
  -8   3   7 1307.38   49.57
   8  -3  -7 1199.94   37.19
  -8  -3   7 1248.99   51.39
   4  11  -6  481.82   20.51
  -4  11   6  474.79   18.81
  -4  11   6  446.94   27.25
   5  -8   4   -0.70    7.14
   5   8   4   -1.29    8.43
  -5   8  -4    0.02    9.47
   5  -8   4   15.00    6.80
  -5   8  -4   -7.26   11.20
  -3  15  -1  209.83   21.81
   3  15   1  204.77   20.50
  -3  15  -1  223.39   27.53
   3  15   1  232.33   14.14
   4  12   3  532.83   39.43
  -4  12  -3  516.65   27.71
  -4  12  -3  572.23   41.85
   4 -12   3  559.42   29.72
  -3  -4   8  126.34    8.47
  -3   4   8  113.15   13.11
  -3  -4   8  109.70   10.55
  -3   4   8   93.94   20.05
   7  -8   2   70.47   15.16
  -7  -8  -2   79.09   14.29
  -7   8  -2  100.49   22.85
  -7   8  -2   92.13   14.84
   7   8   2  105.83   15.44
   7  -8   2   87.56   14.06
  -2  -3   8    1.43    3.92
  -2   3   8   -4.79    6.20
  -2  -3   8   -1.25    4.78
  -2   3   8   -1.78    5.88
  -2  14  -3   60.47   11.25
   2  14   3   67.88   10.98
  -7  11   0  478.12   30.93
   7 -11   0  476.10   32.13
  -7  11   0  447.73   29.31
  -7 -11   0  445.67   23.79
   7  11   0  450.99   26.40
   7 -11   0  522.81   26.65
 -10   3   4  300.13   25.98
  10  -3  -4  342.73   40.89
  10   3  -4  317.53   26.14
 -10  -3   4  349.60   32.06
  10  -3  -4  344.70   23.71
   0  15  -3  506.33   26.92
   0  15   3  531.68   24.66
   0  15   3  515.35   25.46
   0  15   3  565.55   35.95
   4  15  -1  215.71   10.41
  -4  15   1  241.58   18.81
   4  15  -1  231.26   12.11
  -4  15   1  223.77   16.58
  -2  15  -2    6.21    7.33
   2  15   2    0.13    5.85
  -2  15  -2    9.33    9.16
   2  15   2   -2.36    5.88
  -2  13   5  474.73   35.70
  -2  13   5  416.64   24.21
   2  13  -5  410.31   21.00
  -8  -4  -2  487.63   33.46
   8   4   2  504.53   30.56
   8  -4   2  490.03   31.47
   8  -4   2  501.59   31.49
   8   4   2  501.63   33.71
  -8   4  -2  485.69   31.56
  -6  13   3  737.49   47.36
  -6  13   3  752.12   36.19
  -6  -2   8 1187.33   36.96
  -6   2   8 1175.78   43.10
  -6  -2   8 1172.50   45.38
  -7   6   7 1223.05   62.52
 -10  -3   2  155.25   25.98
  10  -3  -2  159.26   20.88
  10   3  -2  194.21   28.99
 -10   3   2  209.21   21.04
   1  16   1    5.60    9.72
   1  16   1   15.68    6.56
  -1  16  -1   24.72    9.64
  -1  16  -1   13.35    5.66
   1  16   1   24.43    8.93
  -3  13   5  811.80   30.64
  -3  13   5  848.06   38.40
   3  13  -5  834.64   34.28
   2  16  -1   22.86    4.47
  -2  16   1   24.96    7.48
   2  16  -1   51.55   10.30
  -2  16   1   37.40   14.60
   2  16  -1   16.49    4.28
   9  -7  -1   30.28   13.47
   9   7  -1   37.57   17.36
  -9  -7   1   27.02   11.09
  -9   7   1   49.11   13.91
   9  -7  -1   57.07   13.15
   7  -5   3  374.09   25.27
  -7  -5  -3  357.90   40.77
   7  -5   3  309.43   34.91
   7   5   3  408.75   41.67
   7   5   3  373.79   23.07
  -7   5  -3  353.29   25.91
  -9   0  -1   -6.17    9.82
   9   0   1   -4.54   10.38
   9   0   1  -20.91   10.12
  -3  15   3  354.07   21.42
   3  15  -3  350.88   22.80
  -3  15   3  332.45   29.27
   1   5   7  519.98   28.27
   1  -5   7  496.61   24.87
   8  -7  -6  694.48   26.55
  -8   7   6  673.38   33.43
  -5   4   8   68.93   10.26
  -5   4   8   50.36   15.20
  -5  -4   8   51.99    5.17
  -5  -4   8   50.31    5.15
  -7  12   2  584.22   31.84
   7 -12  -2  604.14   32.22
   7 -12  -2  558.43   30.96
  -7  12   2  616.46   32.18
   7  12  -2  596.12   24.98
   7 -10   1  902.79   41.72
   7  10   1  825.89   41.28
  -7 -10  -1  887.80   40.15
  -7  10  -1  922.43   43.84
  -7  10  -1  894.78   44.82
   7 -10   1  936.52   61.53
   2  16   0  932.76   30.81
   2  16   0  908.34   41.62
  -2  16   0  927.47   41.60
   2  16   0  868.55   36.92
  -2  16   0  903.71   34.15
   0  14   4  797.46   41.05
   0  14   4  747.61   34.79
   0  14  -4  787.45   33.49
   0  14   4  787.97   47.53
   1   8  -7  627.90   20.30
  -1   8   7  634.88   33.08
  -1   8   7  636.16   32.03
   9  -4  -6  199.94   21.17
   9   4  -6  203.89   19.74
   9  -4  -6  209.02   18.31
  -9   4   6  188.49   17.29
   9   4  -6  202.90   15.70
  -9  -4   6  189.09   14.53
  -4  15   2   -0.80    6.42
  -4  15   2   -4.02    6.97
  -9   1  -1   11.42   10.33
  -9  -1  -1    8.36    9.78
   9  -1   1    5.07    9.87
   9   1   1    6.46   10.34
 -10   4   3   54.69   14.11
 -10  -4   3   54.17   11.31
  10  -4  -3   44.56   22.76
  10   4  -3   30.73   12.65
  10  -4  -3   43.35   20.96
  -6   5  -4  291.84   39.19
  -6  -5  -4  294.09   24.18
   6   5   4  249.32   24.70
   6  -5   4  246.16   19.04
   6   5   4  284.76   18.69
   6  -5   4  271.36   20.74
  -1   0   8    5.37    6.25
  -9  -8   3 1169.29   43.93
   9  -8  -3 1173.21   52.85
  -9   8   3 1197.74   71.30
   9   8  -3 1112.64   60.05
   9  -8  -3 1185.79   73.48
  -5  14   3   91.12   12.68
  -5  14   3  104.85   19.77
  -6  10   6  167.86   12.73
  -6  10   6  168.10   16.95
  -8   9   0  536.18   47.23
   8  -9   0  588.03   38.07
  -8  -9   0  595.03   29.52
  -8   9   0  555.45   33.50
   8  -9   0  513.89   32.19
   8   9   0  519.87   31.56
   0   7   7   -7.89    7.80
   0  -7   7    0.75    6.56
  -1  11   6   -2.39    4.41
   1  11  -6   10.13    5.15
  -1  11   6    2.65    8.01
  -1  11   6    7.46    8.06
 -10   0   5   14.36   13.42
  10   0  -5   12.23    8.92
  10   0  -5   -0.94    7.89
  -5  14   0  325.54   21.33
   5  14   0  353.82   18.64
   5 -14   0  337.04   19.01
  -5  14   0  350.67   25.43
  -1   1   8   90.81   10.66
  -1  -1   8   49.68   15.18
   3   9  -7   20.71    5.19
  -3   9   7   27.29    9.51
  -3   9   7   20.60    9.82
   2   0   7    0.72    6.81
  -5   4  -5  769.96   41.24
   5   4   5  783.82   41.60
   5  -4   5  780.66   38.93
  -5  -4  -5  800.79   42.18
   5   4   5  764.20   41.83
   5  -4   5  741.63   32.45
  -2   8  -6    1.82    5.67
  -2   8  -6    4.25    4.66
   2   8   6    5.80    8.21
   2  -8   6    2.16    5.31
  10  -1  -5    4.70    7.98
  10  -1  -5    0.53    8.86
  10   1  -5   -0.88    7.97
 -10   1   5   11.56    8.72
 -10  -1   5    6.46    8.23
  10   1  -5   10.75    8.64
  -1  13   5  716.99   33.97
   1  13  -5  728.87   30.19
  -1  13   5  709.34   46.45
  -1  13   5  706.76   27.25
   8  10  -1  828.03   37.62
  -8 -10   1  818.95   36.66
  -8  10   1  817.94   44.50
   8 -10  -1  799.98   42.41
  -8  10   1  846.68   42.35
   8 -10  -1  889.66   45.22
   6  12   1   22.47    8.82
   6 -12   1    6.05    8.13
  -6  12  -1   -0.53    9.81
   6 -12   1   20.79   10.49
  -6  12  -1   26.27    9.99
  -9  -8   2   51.93   10.71
   9   8  -2   48.62   11.63
  -9   8   2   62.91   15.01
   9  -8  -2   49.25   14.98
   9  -8  -2   66.96   21.08
   7 -12  -3  475.87   28.10
  -7  12   3  489.17   29.85
  -7  12   3  556.80   28.53
   7 -12  -3  489.06   40.96
  -6  -3   8  112.08    7.97
  -6   3   8  117.77   12.19
  -6  -3   8  117.01    8.26
  -8  -4   7    7.52    5.31
   8  -4  -7   -3.58    3.89
   8   4  -7    9.61    5.45
  -8   4   7   -1.33    6.67
  10   0  -1   -8.21   10.05
 -10   0   1   -5.52    9.28
  -4  14   4  679.20   32.53
  -4  14   4  703.13   30.57
   4  14  -4  538.72   29.89
  -9   2  -1  195.60   21.64
  -9  -2  -1  189.87   20.73
   9  -2   1  189.11   21.02
   9   2   1  205.83   21.70
   2  -1   7  346.41   31.81
   2   1   7  368.33   22.99
  -1  16   2  832.53   36.65
  -1  16   2  828.29   33.93
   1  16  -2  834.04   39.73
  -1  16   2  833.81   42.88
  -2   4   8  690.87   31.10
  -2  -4   8  646.62   21.34
  -2  -4   8  663.85   24.86
  -2   4   8  636.92   39.82
   4   9  -7  172.16    9.93
  -4   9   7  228.27   25.71
  -4   9   7  187.54   17.76
  -7   9   6  389.38   25.52
  -7   9   6  419.99   20.83
   8  -9  -5    4.48    9.97
  -8   9   5   -1.73    7.44
  -8   9   5   13.97    8.72
   8  -9  -5   -0.19    8.62
  -4   5   8    9.28    7.86
  -4   5   8   18.78    8.15
  -4  15   0   40.96    9.30
   4  15   0   24.59   11.65
  -4  15   0   43.15   11.30
   4  15   0   24.40    6.88
 -10  -1   1    3.68    9.60
  10   1  -1    5.28    9.67
  10  -1  -1   -2.01    9.81
  10   1  -1    4.98    9.62
 -10   1   1   26.46   10.40
  10   4  -4  121.60   27.77
  10  -4  -4  154.66   19.21
  10  -4  -4  116.87   16.14
 -10  -4   4  128.25   14.37
 -10   4   4  105.24   27.49
   8 -10  -4  247.55   20.22
  -8  10   4  246.89   19.04
  -8  10   4  220.44   20.67
   8 -10  -4  227.74   17.86
  -2  11  -5  241.97   21.42
   2  11   5  230.53   27.70
   2 -11   5  174.49   11.62
  -1   2   8    8.12    6.36
  -1  -2   8   -3.23    5.61
   1  12   5  165.18   12.28
   1  12   5  167.80   16.55
  -1  12  -5  168.12   13.86
 -10  -4   2  560.03   31.78
  10   4  -2  619.43   33.98
 -10   4   2  576.97   37.56
  10  -4  -2  613.75   38.49
  -3   5   8  591.40   28.11
  -3   5   8  633.68   30.01
  -7  12   1    5.32    8.23
   7 -12  -1    9.69    7.58
   7 -12  -1   -9.89    8.89
   7  12  -1    1.23    6.86
  -7  12   1    6.69    8.17
 -10  -2   5  229.77   17.90
  10   2  -5  207.39   18.48
  10  -2  -5  236.53   20.99
  10  -2  -5  181.67   18.18
 -10   2   5  200.44   19.69
   3   6   6   26.76   10.21
   3   6   6   47.33   11.21
  -3   6  -6   32.40   12.81
   3  -6   6    0.24   13.86
   3  -6   6   24.01    6.76
  -4  13   5  389.18   24.45
  -4  13   5  318.56   25.30
   4  13  -5  339.19   19.90
   0  16   2    7.76    8.23
   0  16  -2    5.37    7.96
   0  16   2   -1.00   10.07
   0  16   2   13.58    6.66
  -9  -6   0  311.77   23.72
  -9   6   0  310.55   25.43
   9  -6   0  324.46   28.05
   9  -6   0  264.27   25.39
   9   6   0  297.25   23.13
  -5  11   6  186.49   25.43
   5  11  -6  138.25   11.95
  -5  11   6  145.93   11.22
   2   2   7  178.18   17.34
   2  -2   7  180.54   16.67
  -4   0  -6  304.41   21.18
   4   0   6  240.26   14.22
   4   0   6  256.18   22.41
  -2  13  -4   29.60    9.04
   2  13   4   20.97   10.06
   2   9  -7  156.48    9.40
  -2   9   7  145.45   17.22
  -2   9   7  164.37   16.36
   2  16  -2   17.77    9.07
  -2  16   2   32.42    9.16
  -2  16   2    0.59    7.52
   6  13   0  114.81   13.85
   6 -13   0  149.24   18.78
  -6  13   0  147.75   17.48
  -6  13   0  153.81   15.95
   6 -13   0  134.86   14.34
   8  -5   2  532.15   34.46
   8   5   2  561.23   35.06
  -8  -5  -2  529.12   34.45
  -8   5  -2  530.82   33.55
   8   5   2  567.66   32.80
   8  -5   2  548.53   32.55
  -6   8   7   98.29   14.16
 -10  -2   1  173.63   19.29
 -10   2   1  176.58   20.82
  10  -2  -1  224.46   21.19
  10   2  -1  159.15   19.67
  10  -2  -1  168.99   21.17
   3  12   4  176.16   16.62
  -3  12  -4  139.68   12.38
  -3  12  -4  177.56   15.09
   9   8  -4   -0.96    7.62
  -9  -8   4   17.24    6.67
   9  -8  -4   21.39   10.76
   9  -8  -4    5.37    8.84
  -9   8   4   24.13   10.14
   4   1   6   47.91   12.20
   4  -1   6   35.61    7.26
   4   1   6   27.60    7.42
  -4  -1  -6   53.45   11.71
  -4   1  -6   43.61   11.42
   4  -1   6   37.58   11.77
   5  11   3  324.33   23.32
  -5  11  -3  356.30   22.88
   5 -11   3  297.75   22.69
   5 -11   3  340.96   19.55
  -5  11  -3  325.20   21.95
   9  -3   1   -0.85    9.14
   9   3   1    3.57    8.83
   9   3   1   -1.04    8.71
   9  -3   1   -1.15    8.78
  -9  -3  -1   -0.91    8.71
  -9   3  -1   -8.96   13.51
  -9  -7   5   30.14   10.37
   9  -7  -5   37.04   11.36
   9  -7  -5   20.54    8.95
   9   7  -5   15.12    7.49
  -9   7   5   18.02   17.44
  -6  -9  -3    4.79    8.48
   6  -9   3   -5.43    8.30
  -6   9  -3   -6.80    7.78
   6  -9   3   -5.05    7.41
   6   9   3   14.49   13.44
  -6   9  -3   -4.64    8.27
  -5   5   8  631.97   30.91
  -5   5   8  606.47   38.29
   1  15   3  627.66   39.12
  -1  15  -3  558.21   30.51
   1  15   3  679.22   30.06
   1  15   3  600.51   28.74
  -9   5   6  498.41   27.75
   9   5  -6  454.24   20.55
   9  -5  -6  496.98   28.94
   9   5  -6  486.34   26.75
  -9  -5   6  479.75   21.95
   9  -5  -6  487.85   31.56
  10   5  -3  420.32   28.38
 -10  -5   3  403.07   24.36
  10  -5  -3  396.73   31.97
  10  -5  -3  422.98   28.28
  10   5  -3  448.78   26.92
 -10   5   3  358.38   31.54
  -1   3   8  390.97   22.13
  -1  -3   8  395.46   19.53
   6  11   2  406.42   24.20
   6 -11   2  380.46   23.03
  -6  11  -2  395.68   25.47
  -6  11  -2  399.36   26.02
   6 -11   2  384.29   26.28
   2  16   1    5.92    6.06
  -2  16  -1   12.87    8.95
   2  16   1    2.06    6.13
  -2  16  -1   14.57    9.22
   2  16   1   12.60    8.32
   7   6   3    4.45    9.71
   7  -6   3   10.94   13.13
   7  -6   3   -8.59    8.05
  -7   6  -3   -2.72    8.59
  -7  -6  -3   -2.97    9.57
   7   6   3   -5.07    7.86
  -6  -4   8  581.89   24.30
  -6   4   8  732.49   30.07
  -6  -4   8  583.94   17.88
  -4   8  -5   83.06   12.67
   4  -8   5  110.82   16.79
  -4   8  -5  112.05   12.01
   4  -8   5    1.66   18.40
   4   8   5   82.94   15.25
   1   6   7  302.55   22.37
   1  -6   7  326.08   18.77
  -7   0   8  379.11   18.74
 -10   3   5   27.67   10.00
  10  -3  -5    5.75   10.59
  10   3  -5   14.66   14.13
 -10  -3   5   -5.40   13.16
   4  -2   6  361.24   24.22
   4   2   6  307.41   16.90
  -4   2  -6  351.89   23.71
   4   2   6  339.84   26.05
  -4  -2  -6  330.91   24.97
   4  -2   6  336.82   16.74
   8   8   1    7.19   16.23
  -8   8  -1   11.01   11.08
   8  -8   1   12.91   15.98
   8  -8   1   17.70   11.01
  -8  -8  -1    7.58   15.43
  -3  16   1    1.13    6.32
  -3  16   1    9.89    8.05
   5   9  -7   78.27    7.62
  -5   9   7   45.14   13.07
  -7   7   7   24.38    9.79
   2   3   7  221.57   19.59
   2  -3   7  265.01   18.60
   5   5   5   54.02   13.55
  -5  -5  -5   64.84   13.85
   5   5   5   37.72    9.74
   5  -5   5   43.88    9.49
   5  -5   5   34.35   11.74
  -5   5  -5   45.98   13.83
  -7  -1   8   32.46   10.92
  -7   1   8   26.38    8.07
   6  -6   4   17.76   10.15
  -6   6  -4   38.55   12.81
  -6  -6  -4   32.48   12.30
   6   6   4   20.24   12.45
   6  -6   4   12.66    9.77
   6   6   4   20.81    9.04
  -4  15   3  698.32   32.64
  -4  15   3  733.80   33.87
   3 -10   5  621.02   24.19
  -3  10  -5  564.19   24.48
  -3  10  -5  587.24   26.87
   3  10   5  599.42   33.21
  -8   5   7  446.13   23.78
   8   5  -7  453.01   21.46
  -8  -5   7  334.63   17.05
   8  -5  -7  393.53   16.13
  -6  12   5  292.42   17.78
  -6  12   5  233.11   31.58
 -10  -3   1    4.68   11.88
  10   3  -1   -7.64    7.97
  10  -3  -1    5.08    9.00
 -10   3   1    7.17   13.33
  -2  -5   8   10.77    7.29
  -2   5   8   10.64   12.26
  -2  -5   8    3.53    3.31
  -2   5   8    3.31   11.53
  -6  13   4   81.17   20.21
  -6  13   4   69.92   11.70
   1  10   6  259.32   12.51
  -1  10  -6  256.71   15.32
   1  10   6  257.83   21.30
  -5   9  -4  712.61   58.17
  -5   9  -4  654.13   33.13
   5  -9   4  679.99   32.45
   5  -9   4  710.40   33.55
   5   9   4  717.09   37.62
 -10   5   4  582.65   35.10
  10  -5  -4  560.13   36.13
 -10  -5   4  599.49   29.42
  10  -5  -4  553.78   32.40
  10   5  -4  535.53   33.76
  10   5  -4  592.63   33.31
   7  -9   2  504.84   32.27
  -7   9  -2  526.09   31.09
  -7  -9  -2  484.56   30.77
   7  -9   2  512.93   41.75
   7   9   2  531.91   32.58
  -7   9  -2  517.69   32.58
   0  13   5  345.87   33.46
   0  13   5  304.96   24.85
   0  13   5  365.00   23.02
   0  13  -5  301.36   18.98
  -7  11   5  318.58   20.20
  -7  11   5  315.41   23.77
  -1  14  -4   52.38   10.18
   1  14   4   71.71   10.60
   1  14   4   61.20   10.92
   1  14   4    1.92    9.67
  -9   8   1   28.35   10.47
   9  -8  -1   10.24   10.77
   9   8  -1    7.20    8.67
   9  -8  -1   17.31   10.08
  -9  -8   1  -11.57    8.52
  10   5  -2  319.90   25.77
  10   5  -2  361.26   27.16
 -10  -5   2  369.48   24.08
  10  -5  -2  366.42   27.64
 -10   5   2  333.75   43.47
  10  -5  -2  332.88   30.42
  -7   2   8  240.63   16.12
  -7  -2   8  223.52   13.78
   1  16   2  935.38   45.57
   1  16   2  926.09   39.95
   1  16   2  910.07   35.96
  -1  16  -2  874.48   41.30
   3  16   0  140.77   10.76
  -3  16   0  128.96   12.67
   3  16   0  128.18   10.08
  -3  16   0  152.35   16.65
   8  -8  -6    2.66    6.19
  -8   8   6   19.80    9.02
   0  11   6  591.80   20.97
   0  11   6  605.16   33.09
   0  11   6  592.94   32.69
   0  11  -6  592.17   24.83
  -4  14  -2  237.33   28.37
  -4  14  -2  214.06   19.25
   4 -14   2  216.27   19.66
   4  14   2  224.80   17.26
  -3  12   6  380.06   16.55
  -3  12   6  325.45   24.93
   3  12  -6  370.23   18.69
  -3  12   6  372.46   24.77
  -4   6   8  167.57   15.84
  -4   6   8  177.01   16.26
  -9   4  -1  727.31   41.26
   9  -4   1  767.75   43.07
   9   4   1  677.58   40.68
  -9  -4  -1  752.67   42.25
   9   4   1  731.11   41.79
   9  -4   1  736.54   40.77
  -7  12   4  336.05   22.21
  -7  12   4  366.40   25.77
  -8  11   2  301.09   24.06
  -8 -11   2  264.20   16.76
   8 -11  -2  295.61   23.81
   8  11  -2  311.27   27.05
  -8  11   2  319.51   34.55
   8 -11  -2  346.54   24.43
   4   3   6  290.75   23.37
   4  -3   6  306.27   21.86
  -4   3  -6  303.12   32.41
  -4  -3  -6  272.50   23.34
   4   3   6  248.26   15.27
   4  -3   6  247.61   15.29
  -4  11  -4   99.10   12.35
  -4  11  -4   52.46   12.51
   4 -11   4   81.18   15.04
   4  11   4   93.70   14.47
   8 -11  -3  312.17   31.25
  -8  11   3  280.98   22.29
  -8  11   3  231.11   31.02
  -8 -11   3  243.66   13.26
   8  11  -3  233.31   15.75
   8 -11  -3  302.61   31.98
  -3  16   2  780.77   34.53
  -3  16   2  841.32   51.92
   3  16  -2  808.96   40.29
   0   8  -7  738.08   25.40
   0   8   7  788.12   51.30
  -3   6   8    9.47    8.61
  -3   6   8   22.06    9.23
  -1   4   8   18.44    9.02
  -1  -4   8   11.80   10.38
  -2  12   6   -0.41    7.01
   2  12  -6    0.38    8.50
  -2  12   6   -4.27    7.82
  -2  12   6   -2.67    7.85
   1   9  -7   13.62    5.13
  -1   9   7   25.81    9.75
  -1   9   7   17.70   10.06
  10   4  -5  706.82   35.25
 -10  -4   5  710.83   44.05
 -10   4   5  680.67   52.72
  10  -4  -5  674.52   38.36
  10   4  -5  636.40   44.70
   9   9  -3   -5.62   12.04
  -9  -9   3   15.02    6.83
  -9   9   3   17.62   10.36
  -9   9   3    5.40   10.15
   9  -9  -3   -1.92   10.54
   9  -9  -3    2.62   14.89
  -9   0   7    0.12    9.90
   9   0  -7   -1.81    5.35
  -3  15  -2   11.82    7.25
  -3  15  -2   -2.22    7.60
   3  15   2   -2.04    6.30
  -8  -6  -2  214.25   23.57
  -8   6  -2  210.25   33.81
   8   6   2  248.48   21.25
   8  -6   2  199.24   32.75
   8   6   2  250.65   36.15
   8  -6   2  239.15   21.67
   2   4   7  563.63   31.21
   2  -4   7  556.03   29.98
  -5  13   5  746.26   31.04
  -5  13   5  684.12   36.00
  -3   7  -6  153.39   13.18
   3   7   6  136.39   17.05
   3  -7   6  151.12   14.20
   3   7   6  153.52   17.61
  -5  14   4  207.51   17.14
  -5  14   4  224.19   18.33
   2  15  -4    2.64    6.89
  -2  15   4   -0.30    6.07
  -2  15   4    7.45    6.81
  -2  15   4   -4.06    7.20
   9   1  -7   -2.23    5.17
   9  -1  -7    1.58    4.97
  -9  -1   7    2.25    6.09
  -9   1   7    1.40    6.65
   6 -14  -2  385.75   24.19
  -6  14   2  384.37   25.48
  -6  14   2  367.67   25.25
  -6   5   8  178.05   15.97
  10   4  -1  722.74   42.79
  10  -4  -1  744.78   44.38
 -10  -4   1  707.78   37.93
 -10   4   1  786.47   44.91
  10   4  -1  755.51   40.53
   4  12  -6   26.51   12.16
  -4  12   6   47.29   17.59
  -4  12   6   27.97   11.17
  -9   7   0  406.32   30.68
   9   7   0  427.64   40.72
   9  -7   0  431.53   30.91
   9  -7   0  461.21   33.67
  -9  -7   0  386.04   28.02
  -7  -3   8  304.39   14.65
  -7   3   8  322.00   28.07
   2   9   6 1025.24   48.96
   2  -9   6 1018.26   35.09
  -2   9  -6 1027.64   33.12
  -2   9  -6 1108.68   40.06
  -4  15  -1  640.97   34.69
   4  15   1  627.82   28.17
  -4  15  -1  647.34   41.39
   4 -15   1  645.54   27.13
  -3  14  -3    0.02    6.73
   3 -14   3    2.64    4.03
  -3  14  -3    2.50    7.54
   3  14   3    4.00    7.03
  -5   6   8    8.51    7.72
  -5   6   8    1.05   12.12
   0   0   8 1255.18   48.60
  -5  14  -1   38.33   11.95
   5 -14   1   49.04    9.64
   5  14   1   58.17   10.35
  -5  14  -1   58.74   12.73
  -9  -9   2  574.91   28.44
   9  -9  -2  593.01   36.10
   9  -9  -2  556.95   35.20
  -9   9   2  563.50   35.11
  -9   9   2  552.51   36.11
   9   9  -2  526.80   40.57
   5  13   2   30.33   10.44
  -5  13  -2   35.84   17.61
   5 -13   2   45.30   13.42
  -5  13  -2   40.62   11.62
  -9  -6   6   15.84    5.90
   9  -6  -6    7.69   10.03
   9   6  -6    5.25    5.20
   9  -6  -6   16.57   11.23
  -9   6   6   11.63    9.61
  -7  12   0  272.97   23.80
   7  12   0  271.03   21.32
  -7  12   0  309.56   37.47
   7 -12   0  289.21   21.17
   7 -12   0  289.64   27.33
   8 -10   0  193.53   24.58
  -8  10   0  186.39   32.44
  -8 -10   0  217.27   25.77
  -8  10   0  157.10   22.18
   8  10   0  181.48   19.36
   8 -10   0  221.34   20.03
 -10   6   3   26.70   13.02
  10  -6  -3   48.37   11.81
  10   6  -3   28.91   10.45
  10  -6  -3   26.92   13.71
 -10  -6   3    0.35    9.36
   0  -1   8   15.93    8.09
   0   1   8   10.43   13.24
  -7  11  -1   17.91   10.42
   7 -11   1   -0.77   10.96
  -7 -11  -1   16.12    8.88
   7 -11   1   15.06    9.24
  -7  11  -1    1.60   10.49
   7  11   1   18.56    9.44
  -1  15   4    0.58    6.17
   1  15  -4   -1.20    6.70
  -1  15   4   -2.94    6.83
  -1  15   4   -0.54    7.03
   0  17   0   -2.78    4.75
   0  17   0   -1.57    4.92
   0  17   0   -9.43    8.33
  -5  15   2   12.95    8.89
  -5  15   2    4.90    8.28
  -3  10   7  559.07   33.13
   3  10  -7  597.04   21.57
  -3  10   7  646.35   46.69
  -5  15   1  643.57   45.40
  -5  15   1  719.87   35.88
   5  15  -1  651.66   34.81
  -4  13  -3   79.74   18.96
  -4  13  -3   79.03   21.73
   4 -13   3   63.10   13.59
   4  13   3   74.79   19.48
  -9  -2   7  182.05   15.72
  -9   2   7  219.33   16.96
   9   2  -7  184.37   13.98
   9  -2  -7  188.00   13.34
   6  14  -1   24.70    8.87
  -6  14   1   47.24   17.39
  -6  14   1   71.10   18.71
   6 -14  -1   45.71   10.35
  -6  11   6  416.83   29.14
  -6  11   6  418.07   27.43
  -5   6  -5  852.97   48.14
   5   6   5  965.27   47.92
   5   6   5  963.22   39.12
   5  -6   5 1003.79   43.74
   5  -6   5  894.82   50.56
  -5  -6  -5  945.08   48.91
   4   4   6   47.95    9.20
   4  -4   6   94.38   20.82
  -4   4  -6   82.86   12.93
   4   4   6   72.79   14.80
   4  -4   6   60.69    8.76
   3  15  -4   -2.01    7.43
  -3  15   4    6.68    7.73
  -3  15   4    8.48    6.88
  -4  10   7  215.77   20.90
   4  10  -7  230.74   12.81
  -4  10   7  235.08   20.67
  -7  10   6  133.30   13.05
  -7  10   6  165.64   17.27
  -8  10   5  799.21   49.20
   8 -10  -5  754.02   33.73
  -8  10   5  763.51   40.19
   8 -10  -5  777.86   40.64
  -7   7  -3   32.27   18.29
   7   7   3   19.43   12.64
   7  -7   3   27.28   11.30
  -7  -7  -3   30.51   12.30
   7  -7   3   12.95   10.79
   8  -6  -7   12.80    5.07
  -8   6   7   10.80    9.24
   1  16  -3   37.68   10.18
  -1  16   3   20.14    8.59
  -1  16   3   21.61    9.23
  -1  16   3   15.66    8.86
   9  -8  -5    7.06    9.37
  -9   8   5    1.07    9.53
   9  -8  -5   22.00    7.41
  -9  -8   5   -1.46    4.41
   1  -7   7   87.08   10.06
   1   7   7   96.16   14.65
 -10   0   6  438.77   38.21
  10   0  -6  426.63   26.11
  10   0  -6  380.69   23.99
  -2   6   8  217.53   18.48
  -2   6   8  232.44   18.85
   0  -2   8  870.08   47.42
   0   2   8  827.52   37.30
  -8  11   1   44.08   11.93
  -8  11   1   19.73   11.78
   8 -11  -1   17.09   10.88
   8  11  -1   19.04    9.34
  -8 -11   1   19.51    8.33
   8 -11  -1    1.20   12.02
   2  16  -3   17.17    7.64
  -2  16   3   -6.47    7.27
  -2  16   3    0.18    6.96
  -2  16   3    1.02    6.94
   1  17   0  130.69   10.25
  -1  17   0  136.89   16.70
  -1  17   0  119.94   10.59
  -1  17   0  125.99   10.75
   1  17   0  123.37    9.88
   1  17   0  155.41   25.41
  -6   9   7  127.38   16.23
   9  -5   1   -2.07   18.04
   9   5   1   17.53   11.19
   9   5   1   13.47   10.91
  -9   5  -1    5.62   10.64
  -9  -5  -1   -0.51   16.39
   9  -5   1    6.05   10.14
  -1  12   6  427.21   36.81
  -1  12   6  448.16   27.26
   1  12  -6  385.49   19.61
  -1  12   6  402.21   17.64
  10  -6  -4    1.49   10.93
 -10   6   4    6.07    9.93
  10  -6  -4   -7.06   14.50
  10   6  -4    6.41    8.70
 -10  -6   4    9.17    7.22
   6  -7   4  374.96   37.07
  -6  -7  -4  368.23   28.66
   6   7   4  346.59   29.27
  -6   7  -4  391.97   29.92
   6   7   4  382.69   24.11
   6  -7   4  375.58   24.52
   9   9  -4  303.26   19.88
  -9   9   4  411.09   29.24
  -9  -9   4  386.21   18.60
   9  -9  -4  437.43   26.50
   9  -9  -4  418.91   28.39
  10   1  -6    0.87    6.84
 -10  -1   6  -10.65    7.33
  10   1  -6    4.81    6.89
 -10   1   6   -5.98    7.48
  10  -1  -6    6.39    7.72
   7   0   4  718.77   59.26
  -7   0  -4  677.33   44.16
   7 -13  -2   75.75   15.05
   7 -13  -2  118.99   14.37
   7  13  -2   92.05   10.08
  -7  13   2   85.43   14.89
  -7  13   2  114.59   15.02
  -2  14   5   83.82   13.06
  -2  14   5   75.56   10.62
   2  14  -5   98.14   11.71
  -2  14   5   75.35   13.52
  -6  14   3   -2.27    8.16
  -6  14   3   -3.19    7.66
 -10   6   2  217.49   24.79
  10  -6  -2  200.61   24.87
 -10  -6   2  235.60   19.07
  10   6  -2  206.82   20.42
  10  -6  -2  230.30   23.41
  10   6  -2  181.92   22.68
   8 -11  -4  191.04   19.53
   8 -11  -4  172.75   16.76
  -8  11   4  161.90   17.66
  -8  11   4  168.81   19.98
   0  17  -1  644.54   34.05
   0  17   1  584.00   25.45
   0  17   1  569.91   33.64
   0  17   1  550.82   31.83
  -7  -1  -4   40.15   15.97
   7   1   4   35.66   15.16
  -7   1  -4   40.33   15.54
   7  -1   4   45.78   14.30
  -2  10   7  280.11   22.97
  -2  10   7  217.59   34.02
   2  10  -7  287.92   13.45
  -1  -5   8  774.33   25.56
  -1   5   8  805.45   37.48
  -1  -5   8  792.59   32.25
   2  15   3  230.47   17.46
   2  15   3  220.03   17.97
  -2  15  -3  256.41   19.22
   1  17  -1  663.64   36.45
  -1  17   1  684.96   48.30
  -1  17   1  657.22   27.93
  -1  17   1  669.72   35.99
  -3  14   5   26.21    8.40
   3  14  -5   -0.50    7.23
  -3  14   5    0.24    6.56
  10   0   0  197.62   22.50
 -10   0   0  177.72   20.88
  10   0   0  158.24   31.96
  -7   8   7  884.90   42.31
   8   0   3    4.72    8.30
  -8   0  -3  -10.52   10.53
   8   0   3  -11.84   15.16
  -7   4   8   95.90   12.54
  10  -5  -5   -1.32    7.30
 -10   5   5   -5.54    8.37
 -10  -5   5   10.22    9.65
  10   5  -5    0.16    7.55
  10   5  -5  -11.14   11.72
  10  -5  -5    1.90    8.63
  -9   3   7   -1.20    7.54
   9  -3  -7    5.94    5.23
   9   3  -7    0.44    6.21
  -9  -3   7    2.06    6.55
  10   1   0  165.35   18.78
  10  -1   0  124.72   19.99
 -10  -1   0  116.22   27.94
 -10   1   0  107.28   18.68
  -4   9  -5   41.45   10.82
   4   9   5   61.51   13.60
   4  -9   5   67.44   10.14
   4  -9   5   39.57   14.63
  -4   9  -5    2.30   10.70
  -3  16  -1   13.65   11.48
   3  16   1   15.02    6.74
  -3  16  -1   30.55   14.65
   3  16   1    1.64    7.04
   2  -5   7   70.83   12.87
   2   5   7   70.10   14.15
  -8  -1  -3   -3.07   18.84
   8  -1   3  -12.48   10.78
   8   1   3   -1.84   11.07
  -8   1  -3  -11.04   11.49
  10   2  -6  501.98   27.35
 -10  -2   6  501.37   29.31
 -10   2   6  476.21   41.57
  10   2  -6  513.26   27.84
  10  -2  -6  533.13   31.12
   2  12   5   49.14   20.07
  -2  12  -5   51.15   10.24
   8  -9   1   39.71   23.08
  -8   9  -1   46.24   13.72
  -8   9  -1   75.19   13.75
  -8  -9  -1   41.80   12.37
   8  -9   1   22.47   13.32
   8   9   1   44.00   13.62
  -6  10  -3  692.30   38.26
  -6  10  -3  734.94   52.11
   6 -10   3  782.91   53.06
   6  10   3  709.09   39.94
   6 -10   3  805.04   36.17
  -6  13  -1  594.14   46.44
   6 -13   1  542.30   28.74
   6  13   1  578.91   30.46
   6 -13   1  550.67   34.46
  -6  13  -1  507.86   33.41
  -7  13   3   16.29   10.85
   7 -13  -3   35.02   10.60
  -7  13   3   21.87   11.02
   7 -13  -3   35.01   11.30
  -4   7   8   77.46   13.75
  -4   7   8   97.96   14.21
  10  -5  -1    8.85   10.92
  10   5  -1   -1.70   16.94
 -10   5   1   13.99   10.62
  10  -5  -1  -31.97   11.03
  10   5  -1   12.53    8.87
 -10  -5   1    8.66    9.07
   0  16  -3   14.50    8.78
   0  16   3   17.20    7.96
   0  16   3    6.29   12.44
   0  16   3    0.58    8.06
   0   3   8   -4.29    7.00
   0  -3   8    8.36    9.16
  -4  16   1   28.12   15.18
  -4  16   1   45.08   11.32
   7   2   4  702.37   35.52
  -7  -2  -4  722.76   45.88
   7  -2   4  739.44   56.39
   7   2   4  714.50   63.14
   7  -2   4  730.99   35.80
   2  16   2   67.34   10.55
   2  16   2   71.57   10.51
  -2  16  -2   77.01   13.27
   2  16   2   44.84   12.80
   0  15   4   13.90    6.69
   0  15   4   -0.86    6.17
   0  15   4   -1.49    7.07
   0  15  -4   -8.79    6.86
  -5  12   6  350.21   24.48
  -5  12   6  326.26   18.08
   5  12  -6  325.54   19.00
  -3   7   8 1094.32   48.00
  -3   7   8 1119.24   47.85
  -1  14   5   23.83    9.93
  -1  14   5   24.62    9.83
   1  14  -5   32.21    8.34
  -1  14   5    1.52    7.68
  -5  10   7  742.83   37.60
   5  10  -7  749.60   26.77
  -5  15   3   59.06   12.48
  -5  15   3   67.50   12.55
 -10  -2   0  237.74   22.71
 -10   2   0  229.58   24.04
  10   2   0  233.97   23.17
  10  -2   0  237.45   24.65
  -1  13  -5  372.35   21.08
   1  13   5  417.55   19.68
   1  13   5  246.87   22.79
   1  13   5  370.91   24.87
  -6   6   8  273.21   20.27
  -3  16   3   20.83    8.75
  -3  16   3   20.64   14.24
   3  16  -3   11.42    9.71
   8   2   3  154.09   21.41
   8  -2   3  176.36   31.51
  -8   2  -3  177.77   22.35
  -8  -2  -3  163.35   22.86
  -7  13   1  531.74   31.90
   7  13  -1  510.29   27.48
   7 -13  -1  524.98   29.15
   7 -13  -1  564.03   34.41
  -7  13   1  473.47   31.40
  -5  15   0    8.00    7.84
   5 -15   0    4.50    6.67
  -5  15   0    3.15    9.15
   5  15   0    0.65    6.31
   8  -7   2  405.35   29.70
  -8   7  -2  454.84   32.06
   8   7   2  454.57   32.87
  -8  -7  -2  438.35   31.42
   8  -7   2  467.09   31.64
  -9  -9   1   65.50   12.58
   9   9  -1   77.31   13.43
   9  -9  -1   59.95   15.69
   9  -9  -1   60.23   15.70
  -9   9   1   74.58   16.52
   5 -12   3    6.12   10.32
   5 -12   3   19.61    8.09
  -5  12  -3   30.17    9.89
  -5  12  -3   21.06   10.58
   5  12   3   15.63   10.21
  -4  16   2  141.57   15.97
  -4  16   2  126.43   14.42
  -1  17  -1  543.63   33.52
   1  17   1  523.76   30.20
   1  17   1  496.50   23.17
   1  17   1  561.13   24.20
  -8   9   6  567.58   31.91
   8  -9  -6  510.58   25.12
  -4   5  -6  694.87   35.20
   4   5   6  679.64   27.91
   4   5   6  699.09   55.22
   4  -5   6  622.97   35.64
   4  -5   6  694.81   34.85
  -2  17   1  557.61   29.89
   2  17  -1  508.49   31.46
  -2  17   1  500.98   24.51
   4  15  -4   -1.69    6.88
  -4  15   4   -1.97    6.88
  -4  15   4    3.65    6.19
  -5  10  -4   64.03   16.96
   5 -10   4   76.97   12.53
   5 -10   4   75.42   19.87
  -5  10  -4   78.85   13.67
   5  10   4  111.07   15.38
   3  13   4  160.69   27.71
  -3  13  -4  204.30   17.00
  -6   0  -5   -6.27   17.01
   6   0   5   11.26   15.77
  -7  10  -2  257.58   23.34
  -7 -10  -2  258.58   22.73
   7  10   2  256.01   24.09
   7 -10   2  283.08   23.60
   7 -10   2  260.79   21.46
  -7  10  -2  246.32   22.37
  10   3  -6  189.45   18.15
 -10   3   6  180.63   20.08
  10  -3  -6  183.37   20.69
  10   3  -6  222.22   17.61
 -10  -3   6  239.09   17.58
  -8   0   8  826.08   44.53
  -5   7   8  982.59   45.38
  -5   7   8  994.57   56.81
   4  14  -5  103.92   13.42
  -4  14   5  111.91   11.88
  -4  14   5   97.29   15.10
   6 -12   2  184.78   17.03
  -6  12  -2  192.64   28.44
  -6  12  -2  178.07   19.52
   6  12   2  169.16   18.38
   6 -12   2  197.12   30.54
   2  17   0   11.26    5.71
   2  17   0    6.76    5.08
   2  17   0    1.64   14.38
  -2  17   0    8.20    6.46
  -2  17   0    6.26    9.25
  -3  11  -5    2.77    8.48
   3  11   5   27.79   10.12
   3 -11   5   14.80    8.63
   9  -7  -6  502.68   25.46
   9  -7  -6  532.17   32.93
  -9   7   6  566.36   32.33
   0   9   7  101.65   22.48
   0   9  -7   74.47    8.12
 -10   7   3   41.94   13.40
  10  -7  -3   43.18   13.51
  10   7  -3   25.99   10.32
 -10  -7   3    1.22    9.59
  10  -7  -3   35.26   12.01
   6  -1   5 1075.13   46.12
  -6  -1  -5 1079.44   59.41
   6   1   5 1084.50   56.90
  -6   1  -5 1083.16   60.33
   6  -1   5 1126.87   57.58
  -8  -1   8   23.95    7.92
  -8   1   8   18.77    8.46
  -3   8  -6   11.08    7.03
   3  -8   6    0.77    7.76
   3   8   6   21.42   10.74
  -3   8  -6   18.01    7.61
  -2  14  -4  854.97   39.96
   2  14   4  826.78   40.34
  -7  -3  -4  265.35   36.26
   7  -3   4  174.28   21.28
   7   3   4  173.09   23.85
   7  -3   4  154.78   18.41
  -7   3  -4  199.97   24.34
  -9   4   7  613.30   32.58
   9   4  -7  580.59   28.23
   9  -4  -7  566.82   25.08
  -9  -4   7  612.69   27.62
   6  14   0  922.63   52.22
  -6  14   0  909.85   46.79
  -6  14   0  913.64   44.86
   6 -14   0  930.88   51.89
  -9  -8   0    2.83    7.97
   9   8   0    4.03    7.91
   9  -8   0   11.28   13.81
   9  -8   0   10.44   16.09
  -9   8   0  -18.85    9.12
   1  11   6   52.96    8.07
  -1  11  -6   68.04   15.08
   1  11   6   87.86   14.13
  10  -3   0  415.27   31.22
 -10   3   0  403.60   31.09
 -10  -3   0  398.51   28.91
  10  -3   0  420.03   33.92
  10   3   0  414.82   30.34
  -4  16   0  780.05   45.52
   4  16   0  687.29   35.09
   4  16   0  745.20   29.81
  -4  16   0  755.54   39.53
  -9  -6  -1  940.44   50.08
   9  -6   1  902.38   65.46
  -9   6  -1  902.22   66.56
   9  -6   1 1004.83   53.15
   9   6   1  932.74   49.62
   9   6   1  919.23   49.18
   5  -7   5    4.61    6.27
  -5   7  -5   -0.90    8.53
   5  -7   5   -1.82    6.99
   5   7   5   -3.48    6.20
   5   7   5    1.00    8.56
   8  -3   3   15.52    9.64
   8   3   3    4.49   12.11
   8  -3   3   -0.50   10.63
  -8  -3  -3    8.67   11.96
  -8   3  -3    4.08   11.22
  -7   5   8  600.40   30.35
   0  -4   8  372.57   29.75
   0   4   8  332.34   24.09
  -1  10   7  474.00   30.59
  -1  10   7  454.51   43.41
   1  10  -7  488.49   20.26
   8  -7  -7   71.54    8.16
  -8   7   7   77.78   13.84
   3   0   7   14.51   10.46
   6   2   5  -12.70   15.10
  -6   2  -5   -0.08   10.16
   6   2   5    0.03    6.97
   6  -2   5   -0.00    7.01
  -6  -2  -5  -10.54   10.44
   6  -2   5    3.47    8.96
  -1  17   2   -5.45    8.09
  -1  17   2    3.68    6.58
   1  17  -2   -2.73   13.41
  -1  17   2   10.38    6.46
  -8   2   8  503.68   26.24
  -8  -2   8  517.37   23.86
  -2   7   8    0.32    9.20
  -2   7   8  -13.95    9.21
  -7  12   5   16.23   10.33
  -7  12   5    6.94    8.68
  -1   6   8   15.13   10.13
  -1   6   8   19.18   15.64
  -9 -10   3  831.90   33.46
   9  10  -3  732.40   35.54
  -9  10   3  798.55   43.51
   9 -10  -3  767.38   42.37
   9 -10  -3  815.54   61.05
  -9  10   3  804.46   42.50
  -6  13   5  124.15   17.48
  -6  13   5  144.94   14.09
   3  -1   7 1311.30   75.89
   3   1   7 1304.12   74.77
 -10   7   4  647.18   38.64
  10  -7  -4  593.59   35.26
  10   7  -4  491.79   30.37
 -10  -7   4  587.33   28.57
  10  -7  -4  686.33   40.06
   9   0   2  396.00   30.40
  -9   0  -2  366.06   32.07
  10   6  -5 1009.63   63.16
  10  -6  -5  988.57   51.74
  10   6  -5 1032.80   48.94
 -10  -6   5  979.51   51.31
 -10   6   5 1008.65   51.07
  10  -6  -5  961.16   45.39
   0  12   6   48.89    7.46
   0  12  -6   30.44    9.52
   0  12   6   51.42   12.93
   0  12   6   85.05   13.80
  11   0  -3    0.41    8.53
  11   0  -3    6.56    9.46
 -11   0   3   -4.92    8.79
   7  -8   3   -2.67    7.95
   7   8   3    2.73    8.81
  -7  -8  -3    1.20    8.75
   7  -8   3    7.35    7.45
  -7   8  -3   -9.51    8.75
 -10  -7   2  316.95   23.60
  10  -7  -2  318.87   29.23
  10  -7  -2  375.75   29.98
 -10   7   2  310.85   30.14
  10   7  -2  354.20   24.87
   2  -6   7  662.88   32.26
   2   6   7  642.27   35.40
   1   8   7  305.37   24.42
  -8  12   2  330.76   25.43
  -8  12   2  295.08   25.00
  -8 -12   2  286.31   17.74
   8  12  -2  306.25   28.67
   8 -12  -2  339.07   25.43
   8 -12  -2  372.88   26.17
  -9   1  -2   41.33   14.26
   9   1   2   34.16   13.63
   9  -1   2   30.18   14.04
  -9  -1  -2   39.67   21.60
   9   1   2   37.70   15.10
  -2  10  -6   41.18   14.25
   2  10   6   50.45   13.45
  -4  12  -4  678.85   33.21
   4  12   4  640.86   35.84
   4 -12   4  611.30   26.43
 -11  -1   3   42.19   12.24
  11  -1  -3   18.99   14.39
  11   1  -3   25.74   13.57
 -11   1   3   24.51   13.47
   9 -10  -2  244.85   23.76
   9  10  -2  243.60   19.61
  -9 -10   2  196.94   26.59
  -9  10   2  263.41   23.26
  -9  10   2  244.57   36.90
   9 -10  -2  253.15   35.98
  -8  12   3    1.85    9.01
  -8  12   3  -15.04    9.84
   8 -12  -3   13.60    8.96
   8 -12  -3   16.57    9.34
   0  17   2  139.73   17.31
   0  17   2  183.08   14.11
   0  17  -2  190.05   18.00
   0  17   2  154.82   14.30
 -10  -6   1  930.21   46.18
  10   6  -1  890.24   51.17
  10   6  -1 1011.76   64.82
  10  -6  -1  985.14   52.88
  10  -6  -1  913.67   53.66
 -10   6   1  924.98   69.06
  11   0  -4  656.39   62.76
 -11   0   4  723.75   39.96
  11   0  -4  690.95   38.56
   6  -8   4   -0.28   10.84
   6   8   4   31.46   13.02
  -6  -8  -4   28.30   13.15
   6  -8   4   27.97   10.40
  -6   8  -4   33.85   12.64
  10  -4  -6  203.26   21.84
  10   4  -6  256.35   28.00
 -10   4   6  255.26   21.23
  10  -4  -6  189.68   18.06
 -10  -4   6  199.83   17.12
  10   4  -6  229.66   18.24
   1  16   3   13.85    8.77
   1  16   3    9.85   12.36
   1  16   3   10.43    8.29
  -1  16  -3   10.85   14.27
   2  17  -2  105.31   15.63
  -2  17   2   61.22   22.94
  -2  17   2  130.55   13.02
   3  13  -6    0.45    6.23
  -3  13   6    3.14    5.34
  -3  13   6   13.28   13.21
  -3  13   6    1.29    8.54
  -6  14   4  688.68   46.46
  -6  14   4  670.32   36.28
  11  -1  -4   -0.29   12.61
 -11   1   4   15.78   10.83
  11   1  -4   12.13   12.03
 -11  -1   4    8.80   10.48
   3   2   7    7.21    9.94
   3  -2   7   11.51    9.80
   9  -9  -5   67.28   12.29
   9  -9  -5   95.78   24.46
  -9   9   5   74.42   15.26
  -7  13   4   86.19   14.76
  -7  13   4   71.16   13.59
   0  14   5   43.54   11.46
   0  14   5   -1.77    9.29
   0  14  -5   60.15    9.90
   0  14   5   69.23   11.77
   7  -4   4  355.44   36.32
  -7  -4  -4  413.42   31.96
  -7   4  -4  368.15   31.67
   7   4   4  363.67   33.14
   7  -4   4  399.11   27.89
   8 -11   0  376.99   38.04
   8 -11   0  401.62   31.84
  -8  11   0  355.44   28.33
  -8  11   0  327.82   28.32
   8  11   0  320.15   25.58
  -8 -11   0  311.50   23.15
   6  -3   5  730.14   35.11
   6   3   5  693.57   44.33
  -6  -3  -5  766.71   46.40
   6  -3   5  716.78   40.14
  -6   3  -5  706.80   65.69
   6   3   5  750.69   34.86
   9   2   2  349.63   30.63
  -9   2  -2  307.72   29.33
  -9  -2  -2  353.35   30.67
   9  -2   2  348.78   28.74
   9  -2   2  401.97   29.06
  -8   3   8  168.85   15.97
  -8  -3   8  168.93   12.94
  -2  13   6  117.11   15.52
  -2  13   6  109.47   23.47
  -2  13   6   78.64   14.69
   2  13  -6  105.47   11.44
  11  -2  -3  152.14   23.33
  11   2  -3  245.81   32.72
 -11   2   3  151.62   33.38
 -11  -2   3  166.11   28.96
 -10  -4   0   91.61   18.29
  10   4   0  106.14   17.86
 -10   4   0  111.81   28.78
  10  -4   0  120.07   19.10
  -3  11   7  120.24   17.74
  -3  11   7  169.71   17.96
   3  11  -7  129.05   10.69
  -8  -4  -3  712.10   44.14
  -8   4  -3  632.05   42.00
   8  -4   3  664.91   39.22
   8   4   3  705.38   45.29
   8  -4   3  645.28   38.63
   8   4   3  701.70   37.28
   4   6   6   68.22   14.15
   4  -6   6    0.66   11.86
   4  -6   6   41.83    8.62
  -4   6  -6   50.28   11.24
   4   6   6   38.73    9.13
  -4  16   3   13.45    8.11
   4  16  -3   -0.46    8.95
  -4  16   3    3.81    8.22
  -2  17  -1  520.82   42.00
  -2  17  -1  371.64   20.64
   2  17   1  429.50   20.91
   2  17   1  458.07   21.40
   2  17   1  457.79   28.87
  -1  15  -4   -7.21    7.29
   1  15   4    9.41    7.74
   1  15   4   -0.25    6.77
   1  15   4    7.83    7.57
   9   5  -7    0.68    7.20
   9  -5  -7    5.58    5.46
  -9   5   7   10.75    8.80
  -6   7   8  262.52   20.72
  -4   8   8   -3.26    7.96
  -4   8   8    8.29    8.19
  -6  10   7  148.39   18.78
   6  10  -7  166.16   12.16
  -7   9   7   32.96   12.40
  11   2  -4  824.73   48.87
 -11   2   4  821.68   47.53
  11  -2  -4  810.56   50.61
 -11  -2   4  823.35   41.87
   9 -10  -4  182.78   18.95
  -9  10   4  202.69   20.50
  -9  10   4  198.75   21.91
   9 -10  -4  184.90   21.38
   4  11  -7  359.33   17.23
  -4  11   7  359.04   25.69
  -4  11   7  346.36   26.03
  -7  12  -1  479.72   32.57
   7 -12   1  501.29   34.20
  -7  12  -1  442.62   31.33
   7 -12   1  530.10   40.96
   7  12   1  475.04   29.55
  -3  17   1  538.17   37.72
   3  17  -1  550.96   34.56
  -3  17   1  572.32   33.35
  -7  11   6  250.83   18.21
  -7  11   6  236.18   22.93
  -4  15  -2   12.89   14.50
   4  15   2    3.65    8.02
  -4  15  -2   10.66    8.92
   4 -15   2   10.72    9.29
  -8  11   5   -3.34    9.03
  -8  11   5    1.86    7.73
   8 -11  -5    5.63    6.98
  -4  13   6   96.77   10.79
  -4  13   6   95.07   15.74
  -3   8   8   15.80   10.93
  -3   8   8   29.48   10.71
   1   0   8    1.68    7.44
  -4   0   9    6.45    5.91
  -4   0   9   -3.29    5.38
   0  -5   8   43.45    9.74
   0   5   8   34.35   11.81
  -6  12   6  218.81   21.80
  -6  12   6  225.41   16.25
   7  13   0  111.35   15.92
   7 -13   0  146.28   31.48
   7 -13   0  116.76   16.18
  -7  13   0  142.03   18.90
  -7  13   0  144.30   18.26
   3  -3   7  825.44   41.54
   3   3   7  815.26   57.78
  -5  14   5    0.06    7.31
   5  14  -5    8.18    7.92
  -5  14   5    9.50    9.43
   1  -1   8   42.41   11.17
   1   1   8   39.40   12.08
  11   0  -2  218.80   23.24
  11   0  -2  185.63   23.72
 -11   0   2  238.80   34.07
  -4  -1   9  286.12   15.15
  -4   1   9  247.49   24.65
  -4   1   9  252.84   25.65
  -4  -1   9  268.05   15.76
   8  -8   2   -5.41   11.72
   8  -8   2    7.32   10.61
   8   8   2   24.87   11.79
  -8  -8  -2   23.72   11.48
  -8   8  -2    5.34   11.33
  -4  10  -5   57.13   15.97
  -4  10  -5   -1.42   10.82
   4 -10   5   49.74    9.50
   4  10   5   70.92   13.51
  -5   0   9   -4.56    6.16
  -5   0   9   -1.09    5.76
  -7   6   8   -6.91    8.51
  -9  -3  -2  248.70   44.11
  -9   3  -2  322.59   28.13
   9   3   2  380.09   43.78
   9  -3   2  319.65   28.54
 -11  -1   2   58.91   14.06
  11   1  -2   34.83   22.05
 -11   1   2   50.27   14.97
  11  -1  -2   41.93   15.83
  -8  10  -1   -1.97    9.53
   8  10   1    5.13    9.38
  -8 -10  -1    1.69    8.46
   8 -10   1   -1.64    9.04
   8 -10   1    8.40   10.29
  -8  10  -1    4.16    9.87
  -2  11   7  212.81   23.10
  -2  11   7  263.87   23.71
   2  11  -7  260.13   14.37
   8  12  -1  325.24   23.24
  -8 -12   1  328.98   21.65
   8 -12  -1  362.56   41.74
   8 -12  -1  331.26   27.42
  -8  12   1  407.77   28.38
  -8  12   1  361.13   28.14
  11  -3  -3    9.64    9.63
  11  -3  -3    5.83   10.92
 -11   3   3   -0.98   10.39
 -11  -3   3   -0.08    8.72
  11   3  -3   -7.50    9.39
  11   3  -3   10.22    9.50
   5 -14   2  908.78   46.43
  -5  14  -2  873.89   44.20
  -5  14  -2  848.12   45.31
   5  14   2  920.62   43.01
  -5  -1   9  665.83   26.32
  -5  -1   9  652.64   26.91
  -5   1   9  683.34   28.67
  -5   1   9  685.87   29.43
  -1  17  -2   21.55    9.45
   1  17   2   10.70    7.05
   1  17   2    0.54    7.01
   1  17   2   -4.75    8.85
  -3  17   0   65.63   17.24
  -3  17   0  127.30   16.26
   3  17   0   88.52    8.90
   3  17   0    8.88   14.95
   3  17   0  120.01   13.98
  -5   8   8    8.09    9.44
  -5  15   4   13.11    8.63
  -5  15   4   -0.70    8.09
  -6  15   2    3.67    9.35
  -6  15   2    9.79    9.10
   9  -8  -6   -1.37    6.50
  -9   8   6   23.35   14.22
   9  -8  -6   -0.93    9.03
  11  -3  -4  176.59   22.87
  11   3  -4  147.23   20.09
 -11  -3   4  127.27   17.23
  11   3  -4  128.78   18.80
 -11   3   4  135.43   21.25
   9  -7   1   25.55   12.84
   9  -7   1   39.01   13.83
   9   7   1   17.62   13.01
   9   7   1   14.56   13.36
  -9   7  -1   29.49   13.15
  -9  -7  -1   14.33   12.67
  10   8  -3   34.29   11.03
 -10  -8   3    0.06   10.59
 -10   8   3   47.56   15.32
  10  -8  -3   49.06   15.47
  10  -8  -3   70.32   13.47
   6  -4   5   15.08   14.89
   6  -4   5   19.51   11.37
   6   4   5   33.73   13.46
  -6   4  -5   14.80   14.34
   6   4   5   19.25    9.21
  -6  -4  -5   13.28   13.81
   4 -14   3   41.90    7.49
   4  14   3   53.77   12.11
  -4  14  -3   33.64   18.76
  -4  14  -3   59.80   11.72
   8 -12  -4  498.39   30.27
  -8  12   4  526.01   30.96
  -8  12   4  528.45   33.50
   8 -12  -4  505.28   33.16
   1  -2   8   24.17   10.58
   1   2   8   29.89   10.62
  -4   2   9  267.91   17.77
  -4  -2   9  255.75   21.26
  -4   2   9  271.00   18.51
  10   5  -6  297.13   19.44
  10  -5  -6  253.31   20.12
  10  -5  -6  312.15   24.59
 -10  -5   6  280.00   18.18
 -10   5   6  255.91   24.04
  10   5  -6  268.06   21.92
  -8   4   8  383.18   23.78
  -3   0   9   -5.18    6.25
  -3   0   9    9.00    5.90
   3  15   3  654.72   33.98
  -3  15  -3  720.03   36.56
   6 -11   3   -1.56   13.33
   6  11   3    3.46   10.54
   6 -11   3   14.06   10.07
  -6  11  -3    6.12   16.01
  -6  11  -3   39.40   15.50
  -5  15  -1    0.24   17.79
   5  15   1   21.77   14.68
   5 -15   1   41.36    8.99
  -5  15  -1   30.35   12.65
  -3  16  -2  799.47   39.93
   3  16   2  802.45   36.21
   3  16   2  782.21   47.06
   3  17  -2   15.83    9.69
  -3  17   2    4.17    8.89
  -3  17   2    2.22    7.70
  -1  13   6    3.55    5.82
  -1  13   6    6.21   14.78
   1  13  -6   12.79    6.86
  -1  13   6    1.75   14.97
   5   0   6  402.96   21.64
   5   0   6  424.72   31.13
  -5   0  -6  429.49   31.79
  11   2  -2  203.51   21.25
  11  -2  -2  175.72   23.27
 -11  -2   2  189.16   30.11
 -11   2   2  135.12   35.18
  11   0  -5    7.68   12.04
 -11   0   5    3.12   15.61
  -3   1   9  581.12   26.96
  -3  -1   9  602.87   26.82
  -3  -1   9  581.50   33.50
  -3   1   9  622.48   28.51
  -7  -5  -4  447.31   55.24
  -7   5  -4  475.22   36.19
   7  -5   4  512.23   30.34
   7  -5   4  536.77   47.68
   7   5   4  520.37   53.66
   7   5   4  500.82   29.49
  -1   7   8 1119.04   51.83
  -1   7   8 1100.26   67.47
   2  16  -4  612.52   33.13
  -2  16   4  638.97   45.50
  -2  16   4  636.12   32.65
  -2  16   4  653.45   42.65
  -9 -10   1   11.94    8.33
   9  10  -1    5.89    8.90
  -9  10   1    6.45   10.75
  -9  10   1    2.54   11.72
   9 -10  -1   -0.10   11.35
  -5  -2   9   20.11    6.44
  -5   2   9   29.49    8.71
  -5   2   9   -2.21    8.66
  -5  -2   9   36.31    6.33
   5  -8   5  966.92   42.96
   5   8   5 1014.69   52.79
  -5   8  -5  767.45   63.45
   5  -8   5 1007.40   45.00
   5   8   5  953.36   41.82
   5   1   6   41.59   12.41
  -5  -1  -6   42.63   13.10
   5  -1   6   39.51   12.14
  -5   1  -6   46.83   12.61
   5   1   6    0.08    8.19
   5  -1   6   -0.12    8.15
  10  -7  -5   -0.30    9.63
 -10   7   5    4.20    9.79
  10  -7  -5    7.16    7.98
 -10  -7   5   -1.61    5.72
  10   7  -5    2.03   11.91
 -11   1   5 1093.88   56.82
 -11  -1   5 1116.53   54.38
  11  -1  -5 1183.40   62.72
  11   1  -5 1163.03   63.35
   4  16   1   13.43    8.04
   4  16   1   17.36    7.85
  -4  16  -1    6.05    9.15
  -4  16  -1   15.17   10.58
  -8  10   6  173.71   19.29
  -8  10   6  154.34   16.29
  -3   9  -6  152.13   12.47
   3  -9   6  115.93   12.73
   3   9   6  171.96   28.29
  -3   9  -6  130.26   13.88
   5  11  -7   69.75   14.46
  -5  11   7   98.54   15.30
   6  15  -1    4.80    7.48
   6 -15  -1   11.87    9.19
  -6  15   1   15.00   15.96
  -6  15   1   25.02    9.92
 -10   5   0  932.35   52.56
  10   5   0  901.90   48.52
 -10  -5   0  942.17   49.33
  10  -5   0  898.28   51.54
  -8   8   7   19.37   10.56
  -9  -9   0  395.59   38.27
  -9   9   0  330.82   45.68
   9  -9   0  358.97   35.09
   9  -9   0  344.93   29.98
   9   9   0  380.31   27.17
   2  -7   7    0.91    7.48
   2   7   7   29.77   10.24
  -8   5  -3   32.20   12.97
   8   5   3   10.99   22.57
  -8  -5  -3   26.32   22.13
   8   5   3    8.72   18.51
   8  -5   3   27.34   12.76
   8  -5   3   19.86   18.99
  -2   8   8    4.55    9.21
  -2   8   8    4.20    8.72
  -7  14   2  736.22   39.62
  -7  14   2  718.57   40.92
   7 -14  -2  729.33   38.89
   1  16  -4   18.09    8.90
  -1  16   4   18.03    8.49
  -1  16   4   -3.77    8.64
  -1  16   4    0.80    7.78
  10   7  -1   15.23   10.27
  10  -7  -1    9.89   12.06
 -10  -7   1    8.07   10.00
 -10   7   1    9.00   12.56
  10  -7  -1    3.94   12.12
  -5  16   2  660.64   37.15
  -5  16   2  653.03   35.87
   3  -4   7   41.48   12.74
  -3   4  -7   29.56   10.91
   3   4   7   58.59   13.35
   0  10   7  263.57   25.39
   0  10  -7  348.46   22.59
   0  10   7  303.44   36.00
  -5  16   1    2.68   10.42
  -5  16   1   14.38    8.58
  10  -8  -4   49.38   23.04
  10  -8  -4   47.91   12.72
  10   8  -4   28.68   11.06
 -10  -8   4   20.38   14.20
 -10   8   4   18.78   21.96
   2  13   5  328.92   25.78
  -2  13  -5  334.75   21.33
  -3  -2   9   27.03    7.50
  -3   2   9   46.83   14.13
  -3  -2   9   25.49    7.98
  -3   2   9   40.94    9.18
  -5  11  -4  281.42   23.16
   5 -11   4  285.14   23.30
   5 -11   4  358.16   20.77
  -5  11  -4  247.79   24.09
   5  11   4  297.51   25.32
  10  -8  -2    4.58   17.12
  10  -8  -2   -3.81   11.35
  10   8  -2    8.56    8.86
 -10   8   2    2.77   11.52
   7  11   2  237.98   35.52
  -7  11  -2  237.95   23.88
   7 -11   2  251.61   21.53
  -7  11  -2  227.54   23.30
   7 -11   2  248.04   35.94
   9   4   2  199.32   22.27
   9   4   2  197.68   25.75
  -9   4  -2  253.91   23.14
  -9  -4  -2  202.93   24.66
   9  -4   2  151.63   23.78
   5  -2   6  513.80   32.10
  -5  -2  -6  467.75   33.77
   5  -2   6  388.30   32.18
  -5   2  -6  495.40   48.23
   5   2   6  400.46   23.20
   5   2   6  461.68   34.03
   1   3   8  340.70   24.19
   1  -3   8  374.10   34.73
 -11  -2   5   -3.65    9.30
  11  -2  -5  -11.99    9.19
  11  -2  -5   -6.00   18.32
  11   2  -5    4.36   18.61
  11   2  -5   -2.70    9.32
 -11   2   5  -10.68   16.77
  -4   3   9  167.36   15.52
  -4   3   9  158.07   15.32
  -3  16   4   73.57   19.05
   3  16  -4   62.91   19.12
  -3  16   4   45.46   11.43
  -2  15   5  400.91   40.15
  -2  15   5  406.26   27.44
  -2  15   5  405.50   22.01
   2  15  -5  451.52   36.17
 -11  -4   3  555.57   33.04
 -11   4   3  539.25   39.96
  11  -4  -3  590.19   59.81
  11   4  -3  633.04   37.54
  11   4  -3  626.04   37.04
   9   6  -7  910.56   40.80
  -9   6   7  915.56   43.73
   9  -6  -7  843.98   33.28
  -6   0   9   -0.76    8.17
  -6   0   9    0.60    5.29
  -6  15   3  582.95   33.69
  -6  15   3  615.05   35.48
   5  13  -6   -0.43   15.19
  -5  13   6   64.59   12.75
  -5  13   6   37.49    9.29
 -10   0   7   -9.30    8.76
  10   0  -7   -4.23    8.44
  -3  15   5  674.98   37.14
   6 -14   1  -10.54    8.32
;
_shelx_hkl_checksum              76316
loop_
_space_group_symop_operation_xyz
'x, y, z'
'-x, y+1/2, -z+1/2'
'-x, -y, -z'
'x, -y-1/2, z-1/2'
loop_
_atom_site_label
_atom_site_type_symbol
_atom_site_fract_x
_atom_site_fract_y
_atom_site_fract_z
_atom_site_U_iso_or_equiv
_atom_site_adp_type
_atom_site_occupancy
_atom_site_site_symmetry_order
_atom_site_calc_flag
_atom_site_refinement_flags_posn
_atom_site_refinement_flags_adp
_atom_site_refinement_flags_occupancy
_atom_site_disorder_assembly
_atom_site_disorder_group
U U 0.23417(2) 0.46715(2) 0.12219(2) 0.01131(7) Uani 1 1 d . . . . .
S S 0.32042(13) 0.50289(8) 0.66758(15) 0.01204(19) Uani 1 1 d . . . . .
Na Na 0.2793(3) 0.73085(15) 0.6584(3) 0.0305(5) Uani 1 1 d . . . . .
O1 O 0.1796(4) 0.5684(2) 0.6139(5) 0.0187(6) Uani 1 1 d . . . . .
O2 O 0.3124(4) 0.4419(2) 0.4914(4) 0.0205(7) Uani 1 1 d . . . . .
O3 O 0.4736(4) 0.5623(2) 0.7334(5) 0.0186(6) Uani 1 1 d . . . . .
O4 O 0.3242(4) 0.4368(2) 0.8366(4) 0.0173(6) Uani 1 1 d . . . . .
O5 O 0.1933(4) 0.3410(2) 0.1168(4) 0.0229(7) Uani 1 1 d . . . . .
O6 O 0.2856(4) 0.5921(2) 0.1325(5) 0.0225(7) Uani 1 1 d . . . . .
OH7 O -0.0008(4) 0.5113(3) 0.1785(5) 0.0240(7) Uani 1 1 d D . . . .
H7 H -0.002(8) 0.483(4) 0.276(7) 0.029 Uiso 1 1 d D U . . .
OW8 O -0.0797(5) 0.2716(3) 0.6917(6) 0.0326(8) Uani 1 1 d D . . . .
H8A H 0.006(5) 0.242(3) 0.702(9) 0.039 Uiso 1 1 d D U . . .
H8B H -0.044(7) 0.328(2) 0.719(9) 0.039 Uiso 1 1 d D U . . .
OW9 O 0.5186(5) 0.2503(3) 0.0025(6) 0.0319(8) Uani 1 1 d D . . . .
H9A H 0.475(7) 0.296(3) -0.063(8) 0.038 Uiso 1 1 d D U . . .
H9B H 0.448(6) 0.210(3) -0.020(8) 0.038 Uiso 1 1 d D U . . .
loop_
_atom_site_aniso_label
_atom_site_aniso_U_11
_atom_site_aniso_U_22
_atom_site_aniso_U_33
_atom_site_aniso_U_23
_atom_site_aniso_U_13
_atom_site_aniso_U_12
U 0.00812(10) 0.01565(10) 0.00985(10) -0.00007(5) 0.00306(6) -0.00043(6)
S 0.0089(5) 0.0173(5) 0.0097(5) 0.0013(4) 0.0033(4) 0.0011(4)
Na 0.0401(12) 0.0251(10) 0.0272(10) -0.0035(8) 0.0136(9) -0.0062(9)
O1 0.0107(15) 0.0222(15) 0.0231(16) 0.0033(13) 0.0062(12) 0.0038(13)
O2 0.0261(18) 0.0238(16) 0.0104(15) -0.0004(12) 0.0055(13) 0.0040(14)
O3 0.0076(15) 0.0242(15) 0.0208(16) 0.0025(13) 0.0018(12) -0.0012(12)
O4 0.0236(17) 0.0207(15) 0.0099(14) 0.0047(12) 0.0090(13) 0.0065(13)
O5 0.0236(18) 0.0204(16) 0.0229(17) -0.0032(13) 0.0069(14) -0.0072(14)
O6 0.0179(16) 0.0186(16) 0.0309(18) -0.0006(13) 0.0092(14) 0.0015(13)
OH7 0.0120(16) 0.048(2) 0.0127(16) 0.0048(15) 0.0053(13) 0.0057(15)
OW8 0.028(2) 0.034(2) 0.035(2) -0.0005(18) 0.0121(16) 0.0040(16)
OW9 0.033(2) 0.0272(18) 0.034(2) -0.0076(17) 0.0115(16) -0.0021(17)
loop_
_atom_type_symbol
_atom_type_description
_atom_type_scat_dispersion_real
_atom_type_scat_dispersion_imag
_atom_type_scat_source
U U -9.6767 9.6646 'International Tables Vol C Tables 4.2.6.8 and 6.1.1.4'
S S 0.1246 0.1234 'International Tables Vol C Tables 4.2.6.8 and 6.1.1.4'
Na Na 0.0362 0.0249 'International Tables Vol C Tables 4.2.6.8 and 6.1.1.4'
O O 0.0106 0.0060 'International Tables Vol C Tables 4.2.6.8 and 6.1.1.4'
H H 0.0000 0.0000 'International Tables Vol C Tables 4.2.6.8 and 6.1.1.4'
loop_
_geom_angle_atom_site_label_1
_geom_angle_atom_site_label_2
_geom_angle_atom_site_label_3
_geom_angle
_geom_angle_site_symmetry_1
_geom_angle_site_symmetry_3
O5 U O6 177.21(15) . .
O5 U OH7 94.58(15) . .
O6 U OH7 87.81(15) . .
O5 U OH7 90.38(14) . 3_565
O6 U OH7 91.89(14) . 3_565
OH7 U OH7 66.26(13) . 3_565
O5 U O3 90.84(13) . 3_666
O6 U O3 86.37(13) . 3_666
OH7 U O3 147.31(11) . 3_666
OH7 U O3 146.03(11) 3_565 3_666
O5 U O2 81.73(12) . .
O6 U O2 97.47(13) . .
OH7 U O2 76.46(11) . .
OH7 U O2 141.13(11) 3_565 .
O3 U O2 72.47(11) 3_666 .
O5 U O4 86.44(12) . 1_554
O6 U O4 92.66(13) . 1_554
OH7 U O4 139.77(10) . 1_554
OH7 U O4 73.52(10) 3_565 1_554
O3 U O4 72.68(10) 3_666 1_554
O2 U O4 142.90(10) . 1_554
O5 U U 92.95(11) . 3_565
O6 U U 89.84(11) . 3_565
OH7 U U 33.36(8) . 3_565
OH7 U U 32.91(8) 3_565 3_565
O3 U U 176.05(8) 3_666 3_565
O2 U U 109.19(8) . 3_565
O4 U U 106.42(7) 1_554 3_565
O1 S O2 111.59(19) . .
O1 S O3 107.9(2) . .
O2 S O3 109.29(19) . .
O1 S O4 110.65(18) . .
O2 S O4 107.40(18) . .
O3 S O4 110.05(18) . .
O1 S Na 45.41(14) . .
O2 S Na 125.48(14) . .
O3 S Na 62.45(13) . .
O4 S Na 126.47(13) . .
O1 Na OW9 109.20(14) . 3_666
O1 Na OW8 89.48(13) . 2_556
OW9 Na OW8 85.30(14) 3_666 2_556
O1 Na OW8 76.55(13) . 3_566
OW9 Na OW8 174.24(16) 3_666 3_566
OW8 Na OW8 95.14(15) 2_556 3_566
O1 Na OW9 109.44(14) . 2_655
OW9 Na OW9 93.63(14) 3_666 2_655
OW8 Na OW9 160.17(15) 2_556 2_655
OW8 Na OW9 84.00(13) 3_566 2_655
O1 Na O6 161.02(14) . 4_576
OW9 Na O6 86.36(13) 3_666 4_576
OW8 Na O6 80.81(13) 2_556 4_576
OW8 Na O6 88.04(14) 3_566 4_576
OW9 Na O6 79.37(13) 2_655 4_576
O1 Na O3 53.65(10) . .
OW9 Na O3 74.80(12) 3_666 .
OW8 Na O3 126.32(13) 2_556 .
OW8 Na O3 109.27(13) 3_566 .
OW9 Na O3 71.96(12) 2_655 .
O6 Na O3 144.23(13) 4_576 .
O1 Na S 25.74(8) . .
OW9 Na S 93.04(11) 3_666 .
OW8 Na S 108.49(11) 2_556 .
OW8 Na S 92.26(11) 3_566 .
OW9 Na S 91.33(11) 2_655 .
O6 Na S 170.62(11) 4_576 .
O3 Na S 27.91(7) . .
O1 Na Na 98.37(10) . 4_575
OW9 Na Na 134.27(11) 3_666 4_575
OW8 Na Na 131.73(12) 2_556 4_575
OW8 Na Na 42.53(10) 3_566 4_575
OW9 Na Na 41.92(9) 2_655 4_575
O6 Na Na 76.70(11) 4_576 4_575
O3 Na Na 94.88(9) . 4_575
S Na Na 97.24(7) . 4_575
O1 Na Na 97.73(10) . 4_576
OW9 Na Na 43.07(10) 3_666 4_576
OW8 Na Na 42.70(10) 2_556 4_576
OW8 Na Na 137.82(10) 3_566 4_576
OW9 Na Na 135.34(10) 2_655 4_576
O6 Na Na 86.19(11) 4_576 4_576
O3 Na Na 99.30(9) . 4_576
S Na Na 99.77(8) . 4_576
Na Na Na 162.89(13) 4_575 4_576
S O1 Na 108.85(18) . .
S O2 U 135.58(19) . .
S O3 U 136.49(19) . 3_666
S O3 Na 89.65(14) . .
U O3 Na 133.58(13) 3_666 .
S O4 U 129.11(17) . 1_556
U O6 Na 163.3(2) . 4_575
U OH7 U 113.74(12) . 3_565
Na OW8 Na 94.77(15) 2_546 3_566
Na OW9 Na 95.01(15) 3_666 2_645
loop_
_geom_bond_atom_site_label_1
_geom_bond_atom_site_label_2
_geom_bond_distance
_geom_bond_site_symmetry_2
U O5 1.779(3) .
U O6 1.781(3) .
U OH7 2.310(3) .
U OH7 2.338(3) 3_565
U O3 2.394(3) 3_666
U O2 2.454(3) .
U O4 2.456(3) 1_554
U U 3.8920(4) 3_565
S O1 1.456(3) .
S O2 1.481(3) .
S O3 1.485(3) .
S O4 1.492(3) .
S Na 3.172(2) .
Na O1 2.387(4) .
Na OW9 2.389(4) 3_666
Na OW8 2.417(4) 2_556
Na OW8 2.425(4) 3_566
Na OW9 2.442(4) 2_655
Na O6 2.459(4) 4_576
Na O3 2.813(4) .
Na Na 3.5629(6) 4_575
Na Na 3.5629(6) 4_576
O3 U 2.394(3) 3_666
O4 U 2.456(3) 1_556
O6 Na 2.459(4) 4_575
OH7 U 2.338(3) 3_565
OW8 Na 2.417(4) 2_546
OW8 Na 2.425(4) 3_566
OW9 Na 2.389(4) 3_666
OW9 Na 2.442(4) 2_645
loop_
_geom_hbond_atom_site_label_D
_geom_hbond_atom_site_label_H
_geom_hbond_atom_site_label_A
_geom_hbond_distance_DH
_geom_hbond_distance_HA
_geom_hbond_distance_DA
_geom_hbond_angle_DHA
_geom_hbond_site_symmetry_A
OH7 H7 O1 0.80(3) 2.10(5) 2.739(5) 137(6) 3_566
OW8 H8A O5 0.82(3) 2.26(3) 3.050(5) 161(5) 4_566
OW8 H8B OH7 0.84(3) 2.32(3) 3.141(5) 166(5) 3_566
OW9 H9A O4 0.79(3) 2.31(3) 3.066(5) 162(6) 1_554
OW9 H9B O2 0.80(3) 2.43(3) 3.193(5) 161(5) 4_565
