#------------------------------------------------------------------------------
#$Date: 2022-02-01 10:53:11 +0200 (Tue, 01 Feb 2022) $
#$Revision: 272374 $
#$URL: file:///home/coder/svn-repositories/cod/cif/1/56/62/1566221.cif $
#------------------------------------------------------------------------------
#
# This file is available in the Crystallography Open Database (COD),
# http://www.crystallography.net/
#
# All data on this site have been placed in the public domain by the
# contributors.
#
data_1566221
loop_
_publ_author_name
'Vladislav V. Gurzhiy'
'Alina R. Izatulina'
'Maria G. Krzhizhanovskaya'
'Mikhail N. Murashko'
'Dar-ya V. Spiridonova'
'Vladimir V. Shilovskikh'
'Sergey V. Krivovichev'
_publ_section_title
;
 Thermal behavior of uranyl selenite minerals derriksite and
 demesmaekerite
;
_journal_name_full               'Journal of GeoSciences'
_journal_page_first              249
_journal_page_last               259
_journal_paper_doi               10.3190/jgeosci.315
_journal_volume                  65
_journal_year                    2020
_chemical_formula_moiety         'Cu5 H10 O30 Pb2 Se6 U2'
_chemical_formula_sum            'Cu5 H10 O30 Pb2 Se6 U2'
_chemical_formula_weight         2171.98
_space_group_crystal_system      triclinic
_space_group_IT_number           2
_space_group_name_Hall           '-P 1'
_space_group_name_H-M_alt        'P -1'
_atom_sites_solution_hydrogens   difmap
_cell_angle_alpha                88.658(3)
_cell_angle_beta                 79.631(4)
_cell_angle_gamma                89.878(4)
_cell_formula_units_Z            1
_cell_length_a                   5.6611(4)
_cell_length_b                   10.0691(3)
_cell_length_c                   11.9759(4)
_cell_measurement_reflns_used    2817
_cell_measurement_temperature    273(2)
_cell_measurement_theta_max      30.4810
_cell_measurement_theta_min      3.6650
_cell_volume                     671.32(6)
_computing_cell_refinement       'CrysAlisPro 1.171.39.44a (Rigaku OD, 2018)'
_computing_data_collection       'CrysAlisPro 1.171.39.44a (Rigaku OD, 2018)'
_computing_data_reduction        'CrysAlisPro 1.171.39.44a (Rigaku OD, 2018)'
_computing_molecular_graphics    'Olex2 1.3 (Dolomanov et al., 2009)'
_computing_publication_material  'Olex2 1.3 (Dolomanov et al., 2009)'
_computing_structure_refinement  'SHELXL 2018/3 (Sheldrick, 2015)'
_computing_structure_solution    'SHELXT 2018/3 (Sheldrick, 2015)'
_diffrn_ambient_environment      air
_diffrn_ambient_temperature      273(2)
_diffrn_detector                 'CCD plate'
_diffrn_detector_area_resol_mean 10.3829
_diffrn_detector_type            Atlas
_diffrn_measured_fraction_theta_full 0.996
_diffrn_measured_fraction_theta_max 0.996
_diffrn_measurement_details
;
List of Runs (angles in degrees, time in seconds):

  # Type    Start    End  Width  t~exp~   \w     \q     \k     \f   Frames
--------------------------------------------------------------------------
  1  \w    -26.00   1.00   1.00   22.50    --  -15.14 -77.00-150.00   27
  2  \w    -40.00  17.00   1.00   22.50    --  -15.14 -77.00 -30.00   57
  3  \w     39.00 102.00   1.00   22.50    --   16.86 178.00  60.00   63
  4  \w     -2.00  93.00   1.00   22.50    --   16.86  38.00-120.00   95
  5  \w    -57.00  41.00   1.00   22.50    --   16.86 -57.00  90.00   98
;
_diffrn_measurement_device       'four-circle diffractometer'
_diffrn_measurement_device_type  'SuperNova, Dual, Cu at home/near, Atlas'
_diffrn_measurement_method       '\w scans'
_diffrn_orient_matrix_type
'CrysAlisPro convention (1999,Acta A55,543-557)'
_diffrn_orient_matrix_UB_11      -0.0778455000
_diffrn_orient_matrix_UB_12      -0.0270007000
_diffrn_orient_matrix_UB_13      -0.0339784000
_diffrn_orient_matrix_UB_21      0.0889026000
_diffrn_orient_matrix_UB_22      0.0112082000
_diffrn_orient_matrix_UB_23      -0.0492337000
_diffrn_orient_matrix_UB_31      0.0480873000
_diffrn_orient_matrix_UB_32      -0.0641657000
_diffrn_orient_matrix_UB_33      0.0072444000
_diffrn_radiation_monochromator  mirror
_diffrn_radiation_probe          x-ray
_diffrn_radiation_type           'Mo K\a'
_diffrn_radiation_wavelength     0.71073
_diffrn_reflns_av_R_equivalents  0.0364
_diffrn_reflns_av_unetI/netI     0.0609
_diffrn_reflns_Laue_measured_fraction_full 0.996
_diffrn_reflns_Laue_measured_fraction_max 0.996
_diffrn_reflns_limit_h_max       7
_diffrn_reflns_limit_h_min       -7
_diffrn_reflns_limit_k_max       13
_diffrn_reflns_limit_k_min       -13
_diffrn_reflns_limit_l_max       14
_diffrn_reflns_limit_l_min       -15
_diffrn_reflns_number            5533
_diffrn_reflns_point_group_measured_fraction_full 0.996
_diffrn_reflns_point_group_measured_fraction_max 0.996
_diffrn_reflns_theta_full        25.242
_diffrn_reflns_theta_max         27.497
_diffrn_reflns_theta_min         3.460
_diffrn_source                   'micro-focus sealed X-ray tube'
_diffrn_source_type              'SuperNova (Mo) X-ray Source'
_exptl_absorpt_coefficient_mu    36.636
_exptl_absorpt_correction_T_max  0.272
_exptl_absorpt_correction_T_min  0.067
_exptl_absorpt_correction_type   analytical
_exptl_absorpt_process_details
;
CrysAlisPro 1.171.39.44a (Rigaku Oxford Diffraction, 2018)
Analytical numeric absorption correction using a multifaceted crystal
			model based on expressions derived by R.C. Clark & J.S. Reid.
(Clark, R. C. & Reid, J. S. (1995). Acta Cryst. A51, 887-897)
Empirical absorption correction using spherical harmonics,
 implemented in SCALE3 ABSPACK scaling algorithm.
;
_exptl_crystal_colour            brown
_exptl_crystal_density_diffrn    5.373
_exptl_crystal_description       prism
_exptl_crystal_F_000             947
_exptl_crystal_size_max          0.12
_exptl_crystal_size_mid          0.063
_exptl_crystal_size_min          0.055
_refine_diff_density_max         2.343
_refine_diff_density_min         -2.439
_refine_diff_density_rms         0.383
_refine_ls_extinction_coef       .
_refine_ls_extinction_method     none
_refine_ls_goodness_of_fit_ref   1.019
_refine_ls_hydrogen_treatment    mixed
_refine_ls_matrix_type           full
_refine_ls_number_parameters     197
_refine_ls_number_reflns         3068
_refine_ls_number_restraints     5
_refine_ls_restrained_S_all      1.018
_refine_ls_R_factor_all          0.0450
_refine_ls_R_factor_gt           0.0354
_refine_ls_shift/su_max          0.000
_refine_ls_shift/su_mean         0.000
_refine_ls_structure_factor_coef Fsqd
_refine_ls_weighting_details
'w=1/[\s^2^(Fo^2^)+(0.0300P)^2^] where P=(Fo^2^+2Fc^2^)/3'
_refine_ls_weighting_scheme      calc
_refine_ls_wR_factor_gt          0.0726
_refine_ls_wR_factor_ref         0.0782
_reflns_Friedel_coverage         0.000
_reflns_Friedel_fraction_full    .
_reflns_Friedel_fraction_max     .
_reflns_number_gt                2607
_reflns_number_total             3068
_reflns_threshold_expression     'I > 2\s(I)'
_cod_data_source_file            Demesmaekerite_SN_0C_last.cif
_cod_data_source_block           demesmaekerite_sn_0C
_cod_original_cell_volume        671.31(5)
_cod_database_code               1566221
_chemical_oxdiff_formula         'Pb2 Cu5 U2 Se6 O30'
_shelx_space_group_comment
;
The symmetry employed for this shelxl refinement is uniquely defined
by the following loop, which should always be used as a source of
symmetry information in preference to the above space-group names.
They are only intended as comments.
;
_reflns_odcompleteness_completeness 99.77
_reflns_odcompleteness_iscentric 1
_reflns_odcompleteness_theta     28.51
_olex2_refinement_description
;
1. Fixed Uiso
 At 1.5 times of:
  All O(H) groups, All O(H,H) groups
2. Restrained distances
 O14-H14
 0.95 with sigma of 0.02
 O13-H13
 0.95 with sigma of 0.02
 O12-H12
 0.95 with sigma of 0.02
 H15A-O5_$3
 2 with sigma of 0.02
 O9_$2-H13
 2 with sigma of 0.02
3. Uiso/Uaniso restraints and constraints
Uanis(O3) = Uanis(O4)
Uanis(O11) = Uanis(O10)
Uanis(O6) = Uanis(O8)
4.a Rotating group:
 O15(H15A,H15B)
;
_shelx_res_file
;
TITL Demesmaekerite_SN_273K in P-1
    demesmaekerite_sn_273k.res
    created by SHELXL-2018/3 at 02:24:56 on 09-Sep-2020
REM P-1 (#2 in standard setting)
CELL 0.71073 5.661077 10.069106 11.975852 88.6576 79.6306 89.8778
ZERR 1 0.000374 0.000274 0.000443 0.0026 0.0042 0.0036
LATT 1
SFAC Cu H O Pb Se U
UNIT 5 10 30 2 6 2
EQIV $1 +X,-1+Y,+Z
EQIV $2 -1+X,+Y,+Z
EQIV $3 2-X,1-Y,-Z
DFIX 0.95 O14 H14
DFIX 0.95 O13 H13
DFIX 0.95 O12 H12
DFIX 2 H15a O5_$3
DFIX 2 O9_$2 H13
EADP O3 O4
EADP O11 O10
EADP O6 O8

L.S. 20
PLAN  20
CONF
HTAB O12 O8_$1
HTAB O13 O9_$2
HTAB O14 O3_$3
HTAB O15 O5_$3
HTAB O15 O6_$1
Htab
BOND $H
MORE -1
fmap 2
acta
OMIT -4 55
OMIT 1 2 11
OMIT -1 1 0
OMIT 2 -3 6
OMIT -5 -1 9
REM <olex2.extras>
REM <HklSrc "%.\\Demesmaekerite_SN_273K.hkl">
REM </olex2.extras>

WGHT    0.030000
FVAR       1.59474
U1    6    1.260789    0.916474    0.252507    11.00000    0.01406    0.00750 =
         0.00496    0.00017   -0.00061   -0.00361
PB1   4    0.171449    0.310832    0.194436    11.00000    0.01598    0.01314 =
         0.01458    0.00231   -0.00207   -0.00358
SE1   5    1.288402    0.888749   -0.046445    11.00000    0.01420    0.00787 =
         0.00647   -0.00009   -0.00107   -0.00291
SE2   5    1.225221    1.168769    0.487697    11.00000    0.02271    0.01417 =
         0.00798    0.00031   -0.00110   -0.00400
SE3   5    0.906532    0.624947    0.221645    11.00000    0.01623    0.00894 =
         0.01133   -0.00246    0.00041   -0.00313
CU1   1    1.000000    0.500000    0.500000    10.50000    0.01085    0.01206 =
         0.00858   -0.00102   -0.00069   -0.00416
CU2   1    0.707179    0.443151    0.046298    11.00000    0.01223    0.00881 =
         0.01304    0.00105   -0.00348   -0.00247
CU3   1    0.564196    0.423441    0.384955    11.00000    0.01497    0.01745 =
         0.00759   -0.00087   -0.00037   -0.00778
O1    3    1.521484    0.865591    0.305214    11.00000    0.01845    0.02238 =
         0.02093    0.00248   -0.00279   -0.00195
O2    3    1.000564    0.965237    0.196093    11.00000    0.02409    0.02020 =
         0.02634   -0.00208   -0.00715   -0.00417
O3    3    1.446524    0.864921    0.062535    11.00000    0.01864    0.01088 =
         0.00742    0.00137   -0.00196   -0.00623
O4    3    1.160325    0.737753   -0.057744    11.00000    0.01864    0.01088 =
         0.00742    0.00137   -0.00196   -0.00623
O5    3    1.520020    0.885684   -0.161809    11.00000    0.02063    0.01077 =
         0.01432   -0.00085   -0.00350   -0.00504
O6    3    1.156376    1.101313    0.369565    11.00000    0.04054    0.01705 =
         0.01027   -0.00101    0.00433   -0.00494
O7    3    1.241852    1.330545    0.442200    11.00000    0.02629    0.01296 =
         0.01775   -0.00203    0.00734   -0.00832
O8    3    0.957483    1.168491    0.574182    11.00000    0.04054    0.01705 =
         0.01027   -0.00101    0.00433   -0.00494
O9    3    1.177158    0.690989    0.223104    11.00000    0.01959    0.01525 =
         0.01111   -0.00486   -0.00098   -0.00269
O10   3    0.886349    0.513261    0.331991    11.00000    0.01633    0.01451 =
         0.00928   -0.00010    0.00189   -0.00527
O11   3    0.981082    0.514778    0.113499    11.00000    0.01633    0.01451 =
         0.00928   -0.00010    0.00189   -0.00527
O12   3    0.693050    0.409694    0.525087    11.00000    0.01705    0.01506 =
         0.00684    0.00341   -0.00117   -0.00103
H12   2    0.762804    0.325601    0.535007    11.00000   -1.50000
O13   3    0.470109    0.456759    0.238431    11.00000    0.01350    0.01591 =
         0.01444   -0.00016   -0.00284   -0.00213
H13   2    0.390621    0.532351    0.218261    11.00000   -1.50000
O14   3    0.405743    0.383050    0.006325    11.00000    0.01852    0.00943 =
         0.01098   -0.00287   -0.00083   -0.00198
H14   2    0.440252    0.297541   -0.023354    11.00000   -1.50000
O15   3    0.700580    0.202378    0.342024    11.00000    0.03955    0.04279 =
         0.02977   -0.01554   -0.00362   -0.00367
AFIX   7
H15A  2    0.674066    0.178787    0.274045    11.00000   -1.50000
H15B  2    0.859990    0.196609    0.334091    11.00000   -1.50000
AFIX   0
HKLF 4




REM  Demesmaekerite_SN_273K in P-1
REM wR2 = 0.0782, GooF = S = 1.019, Restrained GooF = 1.018 for all data
REM R1 = 0.0354 for 2607 Fo > 4sig(Fo) and 0.0450 for all 3068 data
REM 197 parameters refined using 5 restraints

END

WGHT      0.0299      0.0000

REM Instructions for potential hydrogen bonds
HTAB O12 Se2_$1
HTAB O12 O8_$1
HTAB O13 Se3_$2
HTAB O13 O9_$2
HTAB O14 Se1_$3
HTAB O14 O3_$3
HTAB O15 Se1_$3
HTAB O15 O5_$3
HTAB O15 Se2_$1
HTAB O15 O6_$1

REM Highest difference peak  2.343,  deepest hole -2.439,  1-sigma level  0.383
Q1    1   1.3210  0.8739  0.3018  11.00000  0.05    2.34
Q2    1   1.0649  1.1766  0.4605  11.00000  0.05    2.21
Q3    1   1.4154  0.9002  0.1971  11.00000  0.05    2.05
Q4    1   0.1102  0.2455  0.1605  11.00000  0.05    1.95
Q5    1   0.3392  0.2839  0.1363  11.00000  0.05    1.68
Q6    1   0.0108  0.3202  0.2585  11.00000  0.05    1.66
Q7    1   1.0680  0.9307  0.3219  11.00000  0.05    1.61
Q8    1   0.2331  0.2837  0.2540  11.00000  0.05    1.60
Q9    1   0.3507  0.3601  0.2135  11.00000  0.05    1.58
Q10   1   1.4564  0.6986  0.1741  11.00000  0.05    1.48
Q11   1   1.1212  0.9914  0.1395  11.00000  0.05    1.38
Q12   1   0.1605  0.4073  0.1397  11.00000  0.05    1.35
Q13   1   1.0338  0.9029  0.2375  11.00000  0.05    1.33
Q14   1   1.0981  1.0935  0.3809  11.00000  0.05    1.30
Q15   1   0.8258  0.5623  0.3337  11.00000  0.05    1.28
Q16   1   0.9950  0.4693  0.1742  11.00000  0.05    1.27
Q17   1   0.1083  0.3425  0.1433  11.00000  0.05    1.27
Q18   1   0.7422  0.6553  0.2841  11.00000  0.05    1.26
Q19   1   0.4358  0.3884  0.4215  11.00000  0.05    1.26
Q20   1   1.1881  0.9036  0.2745  11.00000  0.05    1.25
;
_shelx_res_checksum              23755
_shelx_hkl_file
;
   0   0   2 48050.1 1492.93   1
   0   0  -3 33914.5 1055.13   3
   0   0  -3 34727.2 1462.67   4
   0   0   3 36296.0 1281.71   1
   0   0  -4 204807. 5461.29   3
   0   0  -4 201067. 6112.06   4
   0   0   4 208902. 5788.28   1
   0   0  -5 50943.4 2248.55   4
   0   0   5 52851.7 1955.19   1
   0   0  -5 49499.5 1656.08   3
   0   0  -6 6114.40 749.787   4
   0   0  -6 4504.42 377.952   3
   0   0   6 6290.07 589.806   1
   0   0  -7 122635. 4441.14   4
   0   0   7 124237. 3907.62   1
   0   0   8 3768.87 545.297   1
   0   0  -8 2951.81 617.577   4
   0   0  -8 2649.99 265.429   3
   0   0  -9 26156.9 1969.78   4
   0   0 -10 3032.06 718.521   4
   0   0 -11 8252.99 1243.04   4
   0   0 -12 197.511 411.588   4
   0   0 -13 19574.8 2093.09   4
   0   0 -14 13809.8 1845.52   4
   0   0 -15 1381.71 771.079   4
   0   1 -15-205.767 539.331   4
   0   1 -14 46268.7 3464.15   4
   0   1 -13 7939.92 1366.41   4
   0   1 -12 44811.6 3104.58   4
   0   1 -11 40048.3 2794.67   4
   0   1 -10 106858. 4775.29   4
   0   1  -9 27492.8 1423.84   3
   0   1  -9 36435.9 2282.63   4
   0   1  -8 17100.6 1452.63   4
   0   1  -8 14832.9 982.395   3
   0   1  -7 164475. 5520.08   4
   0   1  -7 147312. 4742.31   3
   0   1  -6 2068.98 360.270   1
   0   1  -6 1773.87 297.080   3
   0   1  -6 1866.45 418.775   4
   0   1  -5 72504.6 2564.22   1
   0   1  -5 69222.2 2528.04   3
   0   1  -5 77055.5 2913.74   4
   0  -1   4 2418.32 250.076   3
   0   1  -4 2239.48 310.726   3
   0   1  -4 2166.91 359.442   4
   0  -1   3 88867.6 2530.96   3
   0   1  -3 82380.1 2656.70   3
   0   1  -3 81753.7 2785.68   4
   0   1  -2 350.245 116.388   4
   0  -1   2 353.702 108.676   3
   0  -1  -2 51491.8 1708.47   4
   0  -1  -3 21811.8 1063.85   4
   0  -1  -4 64576.2 2444.17   4
   0  -1  -5 2025.30 393.151   4
   0   1   6 116540. 3809.57   1
   0  -1  -6 116493. 4232.29   4
   0   1   7 33990.6 1668.43   1
   0  -1  -7 32938.0 1990.34   4
   0   1   8 10964.8 923.082   1
   0  -1  -8 10440.1 1131.32   4
   0   1   9 4192.76 617.244   1
   0  -1  -9 4078.32 762.159   4
   0  -1 -10 9863.33 1257.94   4
   0  -1 -11 19934.8 1916.22   4
   0  -1 -12 11008.3 1513.75   4
   0  -1 -13 884.878 655.661   4
   0  -1 -14 2283.57 820.973   4
   0  -1 -15-318.364 531.281   4
   0   2 -15 15527.8 2055.08   4
   0   2 -14 1324.28 522.571   4
   0   2 -13 2151.90 696.981   4
   0   2 -12 7773.04 1217.25   4
   0   2 -11 56.6092 417.506   4
   0   2 -10 8929.93 1166.71   4
   0   2 -10 4357.90 598.946   3
   0   2  -9 802.663 284.012   3
   0   2  -9 744.918 331.074   4
   0   2  -8 12324.8 1209.38   4
   0   2  -8 10816.3 981.626   3
   0   2  -8 12457.4 1024.33   1
   0   2  -7 38077.4 2090.05   4
   0  -2   7 37745.8 2032.46   4
   0   2  -7 33610.4 1799.85   3
   0   2  -6 55784.1 2469.41   4
   0   2  -6 50429.6 2251.22   3
   0  -2   5 37544.7 1533.24   3
   0   2  -5 39792.0 1856.91   4
   0   2  -5 36338.4 1750.58   3
   0  -2   4 17491.8 811.751   2
   0   2  -4 16573.9 1040.48   3
   0  -2   4 18032.8 944.711   3
   0   2  -4 17462.7 1050.20   4
   0   2  -3 137223. 4056.84   4
   0   2  -3 129511. 4190.14   3
   0  -2   3 138211. 4055.71   3
   0  -2   3 129559. 3815.33   2
   0   2  -2 2040.01 254.783   2
   0  -2   2 1904.28 296.630   3
   0   2  -2 1608.91 219.317   4
   0  -2   2 1842.91 236.797   2
   0  -2   1 81684.5 2587.57   2
   0   2  -1 77909.1 2248.31   4
   0  -2   1 82453.6 2661.35   3
   0  -2   0 9166.82 645.083   2
   0  -2   0 9036.60 630.609   3
   0   2   1 78420.9 2177.19   4
   0   2   1 79415.5 2250.59   5
   0  -2  -1 78298.9 2157.38   4
   0  -2  -1 75130.8 2545.15   3
   0  -2  -1 82596.3 2258.40   5
   0   2   2 348.566 110.024   3
   0  -2  -2 402.674 116.167   4
   0   2   2 382.050 112.934   4
   0  -2  -2 409.211 133.108   3
   0  -2  -3 441.895 168.926   4
   0  -2  -3 350.844 118.790   3
   0   2   3 476.893 140.104   4
   0   2   4 715.050 204.239   4
   0  -2  -4 390.592 114.533   3
   0  -2  -4 577.485 192.545   4
   0  -2  -5 644.755 237.924   4
   0   2   5 650.798 214.410   4
   0  -2  -5 478.886 123.416   3
   0  -2  -6 11968.1 1017.66   4
   0   2   6 10238.1 883.287   4
   0   2   7 9893.32 910.745   4
   0  -2  -7 10276.9 1030.14   4
   0   2   8 94682.2 3553.01   1
   0  -2  -8 96374.4 4043.86   4
   0  -2  -9 10637.6 1199.83   4
   0   2   9 9216.54 918.047   1
   0  -2 -10 68460.0 3581.91   4
   0  -2 -11 25128.4 2156.67   4
   0  -2 -12 44140.5 3070.17   4
   0  -2 -13 20491.1 2128.02   4
   0  -2 -14 13898.1 1855.20   4
   0  -2 -15 50862.5 3770.10   4
   0  -2 -15 43937.4 3814.17   5
   0   3 -15 17382.8 2099.86   4
   0   3 -14 3922.99 1010.28   4
   0   3 -13 18077.5 1940.55   4
   0   3 -12 27565.4 2310.93   4
   0   3 -11 72179.6 3798.99   4
   0   3 -10 11476.8 1145.45   1
   0  -3  10 12268.8 833.157   2
   0   3 -10 13389.2 1385.68   4
   0   3 -10 9350.57 1092.18   3
   0   3  -9 16189.9 1318.13   1
   0  -3   9 16730.7 964.090   2
   0  -3   8 267.495 174.008   2
   0   3  -8 203.808 224.356   3
   0   3  -8 206.751 303.608   1
   0   3  -8 796.225 453.637   4
   0  -3   7 13512.0 846.912   2
   0   3  -7 14303.6 1178.90   4
   0  -3   7 14958.5 1224.24   4
   0   3  -7 14351.3 1112.18   1
   0   3  -7 13787.4 1178.90   3
   0  -3   6 6432.13 539.436   2
   0  -3   6 6133.23 621.382   3
   0   3  -6 6321.18 706.035   4
   0   3  -6 5608.87 700.132   3
   0  -3   5 35026.9 1504.26   2
   0   3  -5 38280.5 1812.71   4
   0   3  -5 38578.2 1956.40   3
   0  -3   5 39518.3 1755.49   3
   0  -3   5 41297.1 1896.78   4
   0  -3   4 28253.3 1437.24   3
   0   3  -4 29448.0 1590.25   3
   0   3  -4 29549.3 1385.34   4
   0  -3   4 28842.6 1428.07   4
   0  -3   4 25000.2 1204.39   2
   0   3  -3 67857.8 2731.28   3
   0  -3   3 65395.9 2399.13   2
   0   3  -3 70416.6 2369.77   4
   0   3  -3 75394.9 2508.25   2
   0  -3   3 69367.7 2644.02   3
   0  -3   3 71730.0 2466.08   4
   0  -3   2 192290. 5657.50   2
   0   3  -2 189581. 5686.97   2
   0  -3   2 197591. 5386.98   4
   0  -3   2 190726. 5837.64   3
   0   3  -2 189116. 5279.45   4
   0  -3   1 19083.4 1151.70   3
   0   3  -1 18509.0 670.794   4
   0  -3   1 20283.1 1149.88   2
   0  -3   1 18893.6 724.370   4
   0   3  -1 17243.2 1065.89   2
   0  -3   0 1019.54 274.334   2
   0   3   0 1130.60 158.271   5
   0  -3   0 1519.04 329.007   3
   0  -3  -1 181051. 5556.83   3
   0   3   1 182085. 4881.99   5
   0  -3  -1 181322. 4893.19   5
   0   3   2 92706.4 2720.27   4
   0   3   2 95100.8 3047.23   3
   0  -3  -2 89299.4 3185.82   3
   0  -3  -2 94403.1 2703.89   4
   0  -3  -2 93796.8 2819.85   5
   0   3   3 381697. 10245.2   4
   0  -3  -3 359143. 10540.4   3
   0  -3  -3 389698. 10274.0   4
   0  -3  -3 388031. 10387.0   5
   0   3   3 394770. 10362.0   3
   0  -3  -4 26384.8 1291.74   4
   0   3   4 26185.4 1239.00   4
   0  -3  -4 25645.5 1283.11   3
   0  -3  -5 250757. 7212.45   4
   0   3   5 246628. 7055.86   4
   0  -3  -5 231851. 6827.06   3
   0  -3  -6 18162.5 1259.49   4
   0   3   6 19700.0 1199.99   4
   0  -3  -6 15546.6 848.407   3
   0  -3  -7 31543.9 1839.41   4
   0  -3  -7 27437.5 1024.15   3
   0   3   7 30708.3 1672.75   4
   0  -3  -8 105487. 4250.37   4
   0  -3  -9 38070.3 2374.97   4
   0  -3 -10 13794.3 1450.00   4
   0  -3 -11 1167.29 538.918   4
   0  -3 -12 847.357 493.016   4
   0  -3 -13 18523.8 1975.10   4
   0   3  13 17372.3 1433.33   2
   0  -3 -14 1877.72 824.204   5
   0  -3 -14 756.230 583.168   4
   0  -3 -15 3968.15 1102.27   5
   0  -3 -15 2938.19 967.445   4
   0   4 -15 4190.68 1035.76   4
   0   4 -14 130.444 583.735   4
   0   4 -13 30390.3 2489.34   4
   0   4 -12 19077.7 1869.27   4
   0   4 -11 31125.1 2160.13   1
   0   4 -11 33410.0 2380.17   4
   0  -4  10 13560.6 944.401   2
   0   4 -10 15822.7 1437.39   1
   0   4  -9 76997.9 3462.95   1
   0   4  -9 76840.1 3623.39   3
   0  -4   9 72962.0 2763.73   2
   0   4  -9 86267.5 3663.82   4
   0   4  -8 17599.9 1387.94   1
   0  -4   8 14971.6 990.551   2
   0   4  -8 19909.4 1579.59   3
   0   4  -8 18214.5 1396.70   4
   0   4  -7 95644.6 3732.14   1
   0   4  -7 103518. 4071.94   3
   0   4  -7 94806.2 3666.95   4
   0  -4   7 96365.0 3552.59   3
   0  -4   7 87525.3 3189.83   2
   0  -4   6 34531.9 1645.47   2
   0   4  -6 40948.5 2209.82   3
   0  -4   6 37549.1 1910.79   3
   0   4  -6 39203.3 2001.17   1
   0   4  -6 39900.0 1914.88   4
   0  -4   5 88078.5 3383.10   3
   0  -4   5 82688.9 3055.31   2
   0  -4   5 91775.0 3323.67   4
   0   4  -5 90689.6 3170.58   4
   0   4  -5 94336.8 3673.21   3
   0   4  -4 139341. 4750.78   3
   0  -4   4 133910. 4258.29   4
   0   4  -4 131407. 4086.65   4
   0  -4   4 122885. 4193.73   2
   0  -4   4 131756. 4525.48   3
   0  -4   3 507.984 186.083   4
   0  -4   3 383.812 179.612   2
   0   4  -3 441.928 205.544   3
   0   4  -3 540.000 248.280   2
   0  -4   3 103.138 154.181   3
   0   4  -3 558.085 164.786   4
   0   4  -2 50467.7 2234.58   2
   0  -4   2 49938.9 2333.52   3
   0  -4   2 51272.1 1761.42   4
   0   4  -2 51104.9 1660.77   4
   0  -4   2 51142.4 2237.15   2
   0   4  -1 10046.3 417.399   4
   0   4  -1 9438.11 843.660   2
   0  -4   1 10833.3 940.714   3
   0  -4   1 10266.1 899.231   2
   0  -4   1 10314.2 493.182   4
   0   4  -1 10905.6 736.354   5
   0  -4   0 101377. 3695.93   2
   0  -4   0 97612.2 3627.81   3
   0   4   0 96014.8 2842.10   5
   0   4   1 1297.02 169.402   5
   0  -4  -1 1899.10 392.079   3
   0  -4  -1 1775.33 221.860   5
   0  -4  -2 7308.80 762.396   3
   0  -4  -2 6989.86 473.538   5
   0   4   2 6590.21 629.107   3
   0   4   2 6962.02 395.465   4
   0  -4  -3 8491.40 615.140   5
   0   4   3 8740.62 552.021   4
   0  -4  -3 9323.27 852.670   3
   0  -4  -3 8861.52 560.079   4
   0   4   3 8757.23 714.295   3
   0  -4  -4 433.017 186.005   4
   0  -4  -4 468.963 197.371   5
   0   4   4 806.460 182.740   4
   0  -4  -4 367.320 208.545   3
   0  -4  -5 16819.4 1121.79   3
   0  -4  -5 18960.3 1128.31   4
   0   4   5 17605.8 1033.51   4
   0  -4  -5 17821.4 1177.72   5
   0  -4  -6 4346.29 634.159   5
   0   4   6 4498.09 542.514   4
   0  -4  -6 4969.11 557.680   3
   0  -4  -6 4985.77 634.165   4
   0   4   7 44350.0 2088.20   4
   0  -4  -7 42208.7 1769.52   3
   0  -4  -7 46178.9 2412.85   5
   0  -4  -7 48954.2 2323.99   4
   0  -4  -8 43.9869 251.875   4
   0  -4  -8 102.798 105.941   3
   0  -4  -9 117976. 4737.87   4
   0  -4 -10 5051.89 909.398   5
   0  -4 -10 6254.69 926.285   4
   0  -4 -11 5292.13 903.361   4
   0  -4 -11 6775.65 1103.69   5
   0   4  11 5125.14 761.747   2
   0  -4 -12 14320.0 1745.69   5
   0   4  12 14708.2 1340.57   2
   0  -4 -12 14731.4 1624.14   4
   0   4  13 14900.4 1391.88   2
   0  -4 -13 10802.5 1596.53   5
   0  -4 -13 14139.8 1681.73   4
   0  -4 -14 7657.17 1302.77   4
   0  -4 -14 6563.81 1330.68   5
   0  -4 -15 2194.23 1048.14   5
   0  -4 -15 3024.65 918.157   4
   0   5 -15 2229.37 770.607   4
   0   5 -14 41263.8 3029.46   4
   0   5 -13 3252.95 874.092   4
   0   5 -12 13802.4 1531.44   4
   0   5 -12 12933.8 1527.37   1
   0   5 -11 1832.66 581.958   4
   0   5 -11 1407.69 556.296   1
   0   5 -10 23701.4 1792.52   4
   0   5 -10 21363.6 1789.38   1
   0   5  -9 357.683 349.312   1
   0   5  -9 183.328 312.074   4
   0  -5   9 449.259 219.202   2
   0   5  -8 9271.26 1061.83   1
   0  -5   8 9363.14 971.231   3
   0   5  -8 10134.7 1005.65   4
   0  -5   8 8236.49 784.834   2
   0   5  -7 2115.97 497.865   1
   0  -5   7 1539.55 363.018   2
   0  -5   7 1550.46 433.754   3
   0   5  -7 1741.71 408.610   4
   0   5  -6 26984.7 1484.49   4
   0  -5   6 26174.6 1690.12   3
   0  -5   6 25406.6 1470.53   2
   0   5  -5 9243.07 1015.36   3
   0  -5   5 7774.04 776.747   2
   0  -5   5 8500.48 788.473   4
   0  -5   5 8103.97 902.903   3
   0   5  -5 9214.89 742.609   4
   0   5  -4 5819.14 523.343   4
   0  -5   4 6159.89 595.114   4
   0  -5   4 5731.87 672.599   2
   0  -5   4 5187.26 717.741   3
   0   5  -4 7074.83 798.996   2
   0   5  -4 7084.40 867.262   3
   0  -5   3 49743.7 2462.76   3
   0  -5   3 48728.9 1859.06   4
   0  -5   3 50029.7 2336.48   2
   0   5  -3 48701.8 1738.89   4
   0   5  -3 49220.0 2382.15   2
   0   5  -2 45851.0 2312.29   2
   0  -5   2 48825.7 1713.90   4
   0   5  -2 50192.5 1595.52   4
   0   5  -2 49449.9 2092.22   5
   0  -5   2 53358.1 2443.65   2
   0  -5   2 48185.0 2458.20   3
   0   5  -1 50940.7 2399.17   2
   0  -5   1 48512.7 2478.41   3
   0   5  -1 50652.4 1989.78   5
   0  -5   1 50457.3 2457.55   2
   0  -5   0 123759. 4507.08   3
   0   5   0 119102. 3457.83   5
   0   5   1 11764.6 584.936   5
   0  -5  -1 13872.7 713.984   5
   0  -5  -1 13253.6 1157.32   3
   0   5   2 88289.0 3174.48   3
   0  -5  -2 83020.3 3369.99   3
   0   5   2 78042.0 2273.00   4
   0  -5  -2 79084.3 2505.14   5
   0  -5  -3 592.865 260.692   3
   0   5   3 608.800 148.434   4
   0  -5  -3 921.116 203.697   5
   0  -5  -4 70791.1 3014.47   3
   0   5   4 77029.0 2822.19   3
   0  -5  -4 68499.1 2370.63   4
   0  -5  -4 65888.6 2507.93   5
   0   5   4 68829.5 2343.32   4
   0  -5  -5 2578.53 418.604   5
   0  -5  -5 2128.65 358.608   4
   0   5   5 1932.05 315.795   4
   0  -5  -5 1759.12 410.738   3
   0   5   5 2022.69 459.259   2
   0  -5  -6 1445.67 359.892   4
   0  -5  -6 1138.02 308.753   3
   0  -5  -6 1341.58 380.996   5
   0   5   6 1620.44 309.429   4
   0   5   7 4408.43 570.368   4
   0  -5  -7 3982.10 655.805   5
   0  -5  -7 3159.44 495.727   3
   0   5   7 3373.25 610.956   2
   0  -5  -7 3376.97 555.463   4
   0   5   8 625.475 317.767   2
   0  -5  -8 661.296 303.000   4
   0  -5  -8 658.295 382.261   5
   0  -5  -8 332.567 142.862   3
   0  -5  -9 14215.1 1291.85   4
   0   5   9 12018.0 1167.52   2
   0  -5  -9 12986.6 1368.35   5
   0  -5 -10 676.660 411.569   5
   0  -5 -10 643.126 396.262   4
   0   5  10 636.276 386.708   2
   0  -5 -11 6897.40 1148.35   5
   0  -5 -11 8379.90 1147.37   4
   0   5  11 7896.85 1023.85   2
   0  -5 -12 752.996 507.903   5
   0   5  12 331.504 330.497   2
   0  -5 -12 695.586 459.167   4
   0  -5 -13 72311.4 4383.46   5
   0  -5 -13 75111.1 4041.72   4
   0   5  13 71522.5 3613.16   2
   0  -5 -14 2240.61 888.787   5
   0  -5 -14 2660.76 798.518   4
   0   5  14 2081.38 615.558   2
   0  -5 -15 6872.61 1448.50   5
   0   6 -14 52982.1 3404.79   4
   0   6 -13 78.4483 446.293   4
   0   6 -13 502.378 630.699   1
   0   6 -12 3690.34 871.666   1
   0   6 -12 4847.84 881.617   4
   0   6 -11 3544.82 764.926   4
   0   6 -11 3455.48 834.294   1
   0   6 -10 68312.4 3273.81   4
   0   6 -10 66347.8 3567.66   1
   0   6  -9 12517.1 1173.38   4
   0   6  -9 14711.6 1485.65   1
   0   6  -8 29896.1 2077.02   1
   0  -6   8 25595.5 1627.75   2
   0  -6   8 29637.3 1957.30   3
   0   6  -8 29999.2 1763.76   4
   0  -6   7 38533.7 2110.08   2
   0   6  -7 45545.9 2121.71   4
   0  -6   7 43718.6 2458.76   3
   0   6  -7 45748.5 2549.96   1
   0   6  -6 1122.39 303.421   4
   0  -6   6 1224.64 439.991   3
   0  -6   6 1113.82 363.372   2
   0  -6   5 13699.7 1173.54   2
   0  -6   5 13895.3 1018.02   4
   0   6  -5 14718.9 941.105   4
   0  -6   5 14390.1 1316.74   3
   0   6  -4 2565.57 536.488   2
   0  -6   4 2774.72 393.906   4
   0  -6   4 2725.02 525.440   2
   0   6  -4 2965.96 356.182   4
   0  -6   4 3456.36 621.845   3
   0  -6   3 52679.4 1968.68   4
   0  -6   3 56574.6 2673.24   2
   0   6  -3 53298.3 2357.84   5
   0   6  -3 50510.2 2672.13   2
   0   6  -3 54346.2 1829.79   4
   0  -6   3 52377.7 2737.80   3
   0  -6   2 2536.62 565.306   3
   0   6  -2 3521.83 497.864   5
   0  -6   2 3489.03 337.723   4
   0   6  -2 3285.19 256.731   4
   0  -6   2 2884.21 571.475   2
   0   6  -2 3459.97 601.904   2
   0   6  -1 101703. 3278.24   5
   0  -6   1 104322. 4276.39   3
   0  -6   1 102955. 4166.89   2
   0   6  -1 108024. 4120.63   2
   0  -6   0 5454.38 816.164   3
   0   6   0 4328.42 676.047   2
   0   6   0 4415.60 356.567   5
   0   6   1 17269.2 753.823   5
   0  -6  -1 19922.4 1555.20   3
   0   6   1 20590.9 1408.88   3
   0  -6  -2 72346.2 2364.53   5
   0  -6  -2 77749.3 3464.45   3
   0  -6  -3 92242.2 2886.18   5
   0   6   3 86296.4 2618.44   4
   0  -6  -3 90282.8 3825.09   3
   0  -6  -4 25681.1 1257.33   5
   0   6   4 24250.7 1083.12   4
   0   6   4 23696.4 1658.47   2
   0  -6  -4 22753.2 1684.23   3
   0  -6  -5 7404.44 698.696   5
   0  -6  -5 5854.11 820.402   3
   0   6   5 7257.77 588.272   4
   0   6   5 6150.19 823.602   2
   0  -6  -6 302760. 8711.81   5
   0  -6  -6 304753. 8445.13   4
   0   6   6 273249. 9026.56   2
   0  -6  -6 293437. 9072.40   3
   0   6   6 281420. 8292.54   4
   0   6   7 459.754 219.508   4
   0  -6  -7 729.003 319.962   5
   0  -6  -7 724.113 297.804   4
   0   6   7 819.939 363.836   2
   0  -6  -7 898.136 357.430   3
   0  -6  -8 35269.5 2094.74   5
   0   6   8 30230.2 1984.69   2
   0  -6  -8 33690.1 1880.45   4
   0  -6  -9 946.753 280.092   3
   0   6   9 829.601 348.023   2
   0  -6  -9 1183.68 516.617   5
   0  -6  -9 1164.49 427.222   4
   0  -6 -10 76169.9 3535.39   4
   0   6  10 71452.7 3538.57   2
   0  -6 -10 81245.3 3971.51   5
   0   6  11 4518.13 804.826   2
   0  -6 -11 6087.79 1062.33   5
   0  -6 -11 5687.16 900.751   4
   0  -6 -12 2441.48 659.493   4
   0   6  12 1130.77 501.059   2
   0  -6 -12 1759.37 690.438   5
   0  -6 -13 21772.3 2258.97   5
   0   6  13 18601.2 1738.89   2
   0  -6 -14 8855.43 1519.66   5
   0   6  14 10065.8 1291.63   2
   0  -6 -15 3062.69 994.812   5
   0   7 -14 2762.18 794.651   4
   0   7 -13 2069.40 805.454   1
   0   7 -13 2158.76 666.818   4
   0   7 -12 13596.9 1712.11   1
   0   7 -12 12258.0 1384.32   4
   0   7 -11 2035.49 562.780   4
   0   7 -11 2058.70 740.497   1
   0   7 -10 6203.41 1072.18   1
   0   7 -10 5156.70 786.640   4
   0   7  -9 12242.5 1432.98   1
   0   7  -9 13317.0 1178.76   4
   0   7  -8 89910.7 4167.71   1
   0   7  -8 91010.8 3493.72   4
   0  -7   8 79489.8 3928.33   3
   0  -7   7 1784.65 530.664   2
   0   7  -7 1063.73 322.644   4
   0  -7   7 1655.89 482.736   3
   0  -7   6 31555.9 2196.18   3
   0  -7   6 32496.5 2026.08   2
   0   7  -6 34251.6 1634.50   4
   0  -7   5 29831.9 2106.53   3
   0  -7   5 31666.8 1619.12   4
   0  -7   5 30035.0 1950.54   2
   0   7  -5 32642.2 2145.52   2
   0   7  -5 31692.7 1453.56   4
   0   7  -4 114248. 4746.57   2
   0   7  -4 116384. 3544.46   4
   0  -7   4 118732. 4592.16   2
   0  -7   4 111309. 4754.91   3
   0   7  -4 119138. 4312.06   5
   0  -7   4 112034. 3743.17   4
   0   7  -3 48650.5 2235.98   5
   0   7  -3 40608.1 2463.03   2
   0  -7   3 45224.2 2660.16   3
   0  -7   3 45713.7 1746.86   4
   0   7  -2 60809.0 3007.58   2
   0   7  -2 62891.3 2505.49   5
   0  -7   2 62777.8 3245.13   3
   0   7  -1 73819.1 3298.02   2
   0  -7   1 70847.1 3454.79   3
   0   7  -1 65642.9 2278.74   5
   0  -7   0 194.202 256.519   3
   0   7   0-121.864 259.559   2
   0   7   0 146.932 96.0323   5
   0  -7  -1 29308.4 2125.37   3
   0   7   1 34953.4 2109.27   2
   0  -7  -2 13870.5 1400.26   3
   0   7   2 15936.3 1379.55   2
   0  -7  -2 14401.5 742.820   5
   0  -7  -3 49277.5 1775.20   5
   0   7   3 50211.7 2654.78   2
   0  -7  -3 47699.5 2774.03   3
   0   7   3 47434.3 1476.88   4
   0   7   4 691.444 164.664   4
   0  -7  -4 567.805 168.938   5
   0   7   4 926.211 390.547   2
   0   7   4 866.470 355.656   3
   0  -7  -4 160.614 224.828   3
   0   7   5 48.5675 112.333   4
   0  -7  -5 111.035 302.804   3
   0   7   5 216.938 284.779   2
   0  -7  -5 417.623 206.020   5
   0   7   6 6774.30 949.561   2
   0  -7  -6 7095.82 953.807   3
   0  -7  -6 8255.30 790.086   5
   0   7   6 5523.70 553.175   4
   0  -7  -7 3288.03 551.617   5
   0  -7  -7 2775.84 565.498   3
   0   7   7 1955.22 526.846   2
   0   7   7 2171.75 392.412   4
   0   7   8 2580.04 615.916   2
   0  -7  -8 3362.95 619.303   5
   0  -7  -8 3162.14 610.427   3
   0  -7  -9 5221.57 724.373   3
   0  -7  -9 8197.83 1035.53   5
   0   7   9 6736.79 980.965   2
   0  -7 -10 29897.7 2164.00   5
   0   7  10 24621.1 1977.58   2
   0   7  11 806.986 460.923   2
   0  -7 -11 732.808 551.946   5
   0  -7 -12 34622.6 2689.74   5
   0   7  12 33490.4 2443.82   2
   0   7  13 5484.75 935.092   2
   0  -7 -13 6143.79 1213.77   5
   0  -7 -14 9481.32 1561.05   5
   0   7  14 7646.09 1176.28   2
   0   8 -13 42687.9 3376.22   1
   0   8 -12 374.460 613.623   1
   0   8 -12-109.811 355.379   4
   0   8 -11 22278.5 2189.12   1
   0   8 -11 18717.8 1572.20   4
   0   8 -10 9901.87 1044.77   4
   0   8 -10 9041.11 1378.13   1
   0   8  -9 23469.1 1557.61   4
   0   8  -9 20808.2 1989.75   1
   0   8  -8-72.6685 212.183   4
   0   8  -8-467.772 481.583   1
   0  -8   8-247.483 351.192   3
   0   8  -7 12638.3 962.985   4
   0  -8   7 11629.6 1369.92   3
   0  -8   6 1564.25 541.275   3
   0   8  -6 1734.18 335.915   4
   0   8  -5 2155.66 501.419   5
   0   8  -5 1389.18 517.414   2
   0  -8   5 2033.34 622.534   3
   0  -8   5 2755.18 442.899   4
   0  -8   4 7273.09 625.373   4
   0  -8   4 7138.87 1069.36   3
   0   8  -4 7507.49 1098.71   2
   0   8  -4 6128.51 778.340   5
   0  -8   3 1887.01 592.424   3
   0   8  -3 1850.77 545.006   2
   0   8  -3 1442.70 349.833   5
   0   8  -2 6544.08 926.272   2
   0   8  -2 7181.45 628.463   5
   0  -8   2 7211.79 1084.18   3
   0   8  -1 22801.4 1026.01   5
   0  -8   1 24566.3 2001.23   3
   0   8  -1 24294.4 1811.22   2
   0   8   0 29022.1 1066.40   5
   0  -8   0 32103.8 2302.04   3
   0  -8  -1 8794.98 1178.89   3
   0   8   1 9160.85 1086.24   2
   0   8   2 27641.6 1951.03   2
   0  -8  -2 24973.8 2048.40   3
   0  -8  -3 56302.0 1952.32   5
   0  -8  -3 51831.9 3077.60   3
   0   8   3 55656.1 2954.76   2
   0   8   4-295.763 324.238   2
   0   8   4 79.4042 84.0683   4
   0  -8  -4 174.750 283.304   3
   0  -8  -4 307.973 139.212   5
   0   8   5 31913.5 2094.68   2
   0  -8  -5 31014.5 2186.13   3
   0  -8  -5 32186.7 1417.07   5
   0  -8  -6 2705.50 447.075   5
   0  -8  -6 1581.18 531.027   3
   0   8   6 2520.73 634.030   2
   0   8   6 2282.58 348.005   4
   0  -8  -7 40571.7 2014.59   5
   0   8   7 36513.6 2404.73   2
   0   8   8 961.130 465.439   2
   0  -8  -8 860.356 453.183   3
   0  -8  -8 1272.68 419.429   5
   0  -8  -9 1212.82 459.904   3
   0   8   9 1615.19 550.097   2
   0  -8  -9 1969.10 496.505   5
   0  -8 -10 611.829 411.302   5
   0   8  10 187.301 328.836   2
   0   8  11 2442.95 716.126   2
   0  -8 -11 4177.58 833.844   5
   0   8  12 794.195 512.801   2
   0  -8 -12 582.042 430.732   5
   0   8  13 2389.94 767.809   2
   0   8  14 11169.3 1491.94   2
   0   9 -11 34698.4 2923.67   1
   0   9 -10 6039.86 1167.16   1
   0   9  -9 21188.7 2093.00   1
   0   9  -8 2978.11 805.146   1
   0  -9   8 2643.90 818.745   3
   0  -9   7 24606.3 2158.15   3
   0  -9   6 35891.7 2615.74   3
   0  -9   5 61027.4 3522.85   3
   0   9  -5 61650.9 3575.65   2
   0  -9   4 5111.53 945.634   3
   0   9  -4 5245.55 724.076   5
   0   9  -4 6015.09 979.219   2
   0   9  -3 976.165 270.338   5
   0   9  -3 827.844 417.052   2
   0  -9   3 687.420 451.274   3
   0   9  -2 3570.48 722.263   2
   0   9  -2 1711.23 274.034   5
   0  -9   2 3815.41 826.920   3
   0   9  -1 9153.27 530.927   5
   0   9  -1 10029.1 1191.98   2
   0  -9   1 9167.87 1285.82   3
   0   9   0 2804.22 673.697   2
   0  -9   0 2366.37 668.785   3
   0  -9  -1 33192.8 2510.33   3
   0   9   1 38566.0 2438.85   2
   0  -9  -2 1868.40 623.201   3
   0   9   2 2810.62 641.352   2
   0  -9  -3 39360.9 2744.31   3
   0   9   3 42498.0 2600.49   2
   0  -9  -4 38156.7 1496.35   5
   0   9   4 39156.8 2508.53   2
   0  -9  -4 38622.8 2676.78   3
   0  -9  -5 3795.86 826.405   3
   0  -9  -5 4331.40 452.533   5
   0   9   5 4790.69 847.247   2
   0  -9  -6 11869.5 1409.50   3
   0   9   6 12715.9 1391.80   2
   0  -9  -6 12538.7 878.795   5
   0  -9  -7 32611.8 1679.36   5
   0   9   7 32145.9 2335.73   2
   0  -9  -7 30743.0 2312.95   3
   0   9   8 32673.8 2340.29   2
   0  -9  -8 28468.7 2164.17   3
   0  -9  -9 53367.0 3073.49   3
   0   9   9 67542.7 3566.70   2
   0   9  10 10855.9 1396.60   2
   0   9  11 40123.4 2810.11   2
   0   9  12 5772.26 1070.60   2
   0   9  13 23651.5 2179.57   2
   0  10 -10 2257.78 833.209   1
   0  10  -9 2011.47 801.969   1
   0 -10   8 381.134 382.313   3
   0  10  -8 708.216 517.093   1
   0 -10   7 13330.2 1658.69   3
   0 -10   6 20868.0 2067.64   3
   0  10  -5 39051.2 2788.62   2
   0 -10   5 34931.0 2738.18   3
   0 -10   4-195.187 496.965   3
   0  10  -4-206.305 509.547   2
   0 -10   3 34202.2 2686.09   3
   0  10  -3 39721.0 2629.10   2
   0 -10   2 7253.83 1232.85   3
   0  10  -2 6488.43 1034.13   2
   0  10  -1 78811.6 3807.04   2
   0 -10   1 71128.3 4077.26   3
   0 -10   0 29551.5 2496.22   3
   0  10   0 33503.9 2326.88   2
   0 -10  -1 50239.5 3344.22   3
   0  10   1 58544.4 3174.13   2
   0  10   2 29862.9 2194.15   2
   0 -10  -2 28724.7 2415.19   3
   0  10   3 2085.69 610.584   2
   0 -10  -3 1059.39 554.281   3
   0 -10  -4 14394.5 1666.71   3
   0  10   4 16228.0 1613.77   2
   0  10   5 2229.72 676.769   2
   0 -10  -5 1737.68 752.442   3
   0 -10  -6 19262.9 1924.86   3
   0  10   6 24906.4 2056.20   2
   0 -10  -7 1223.39 536.668   3
   0  10   7 889.809 542.577   2
   0  10   8 701.333 437.056   2
   0 -10  -8 931.497 588.341   3
   0  10   9 2462.76 678.010   2
   0  10  10 2500.18 734.531   2
   0  10  11 6231.27 1120.25   2
   0  10  12 1024.78 557.969   2
   0  11  -9 308.836 542.635   1
   0  11  -8 34676.6 2847.20   1
   0 -11   8 30644.3 2749.09   3
   0 -11   7 904.184 555.945   3
   0 -11   6 13400.4 1749.39   3
   0 -11   5 1354.02 615.240   3
   0  11  -5 849.976 595.994   2
   0  11  -4 19030.3 1876.53   2
   0 -11   4 16319.8 1928.57   3
   0  11  -3-72.3391 439.034   2
   0 -11   3 135.190 546.882   3
   0  11  -2 507.695 385.425   2
   0 -11   2 774.639 530.458   3
   0  11  -1 3873.46 799.296   2
   0 -11   1 4549.75 1054.39   3
   0 -11   0 1471.03 621.944   3
   0  11   0 3431.93 798.854   2
   0 -11  -1 1861.47 699.392   3
   0  11   1 2993.18 760.392   2
   0  11   2 6621.71 1064.94   2
   0 -11  -2 5536.81 1125.46   3
   0  11   3 19303.9 1802.66   2
   0 -11  -3 16171.4 1876.19   3
   0  11   4 17774.3 1744.28   2
   0 -11  -4 15550.7 1816.98   3
   0 -11  -5 8249.29 1331.16   3
   0  11   5 10610.7 1362.10   2
   0 -11  -6 23078.9 2230.21   3
   0  11   6 26243.2 2200.51   2
   0 -11  -7 39.6318 416.090   3
   0  11   7 556.554 466.409   2
   0 -11  -8 7671.47 1233.65   3
   0  11   8 8986.82 1302.01   2
   0  11   9 424.232 501.767   2
   0  11  10 22781.8 2153.28   2
   0 -12   7 133.232 523.644   3
   0 -12   6 4652.94 1160.31   3
   0 -12   5 1820.08 749.349   3
   0  12  -5 252.141 528.875   2
   0 -12   4 48708.7 3579.18   3
   0  12  -4 51786.9 3275.81   2
   0  12  -3 7550.29 1185.02   2
   0 -12   3 6726.93 1312.70   3
   0 -12   2 3549.31 955.133   3
   0  12  -2 3759.14 777.576   2
   0 -12   1 26335.8 2551.69   3
   0  12  -1 28117.4 2245.39   2
   0  12   0 7336.22 1154.22   2
   0 -12   0 7407.43 1387.90   3
   0 -12  -1 7884.00 1363.26   3
   0  12   1 4680.27 953.146   2
   0  12   2 539.171 517.806   2
   0 -12  -2-87.3664 439.624   3
   0  12   3 20044.8 1899.84   2
   0 -12  -3 15994.7 1934.06   3
   0 -12  -4 3189.87 905.378   3
   0  12   4 3256.61 842.489   2
   0 -12  -5 15989.3 1925.98   3
   0  12   5 20754.7 1973.35   2
   0 -12  -6 3606.48 874.580   3
   0  12   6 3179.61 854.907   2
   0  12   7 1684.98 680.510   2
   0 -12  -7 882.409 501.635   3
   0  12   8 10312.8 1483.44   2
   0  13  -4 4783.56 1009.85   2
   0 -13   4 3788.22 995.946   3
   0 -13   3 6106.23 1295.41   3
   0  13  -3 5759.23 1090.17   2
   0 -13   2 31356.9 2939.56   3
   0  13  -2 34968.2 2639.07   2
   0  13  -1 198.011 398.131   2
   0 -13   1 598.983 556.615   3
   0 -13   0 13794.3 1953.20   3
   0  13   0 15739.4 1725.14   2
   0  13   1 582.200 451.865   2
   0 -13  -1 1240.58 566.188   3
   0 -13  -2 39515.5 3267.29   3
   0  13   2 43243.3 2942.39   2
   0 -13  -3 13348.9 1863.92   3
   0  13   3 12475.9 1577.82   2
   0 -13  -4 28139.7 2696.01   3
   0  13   4 31137.5 2512.97   2
   0 -13  -5 10203.1 1599.24   3
   0  13   5 10966.1 1482.33   2
   0 -13  -6 2540.04 836.870   3
   0  14  -4 1833.82 726.806   2
   0  14  -3 16015.9 1821.77   2
   0  14  -2-430.203 426.610   2
   0  14  -1 9303.69 1375.80   2
   0 -14  -3 2917.37 990.799   3
   0 -14  -4-473.075 582.580   3
   0 -14  -5 922.526 658.326   3
  -1  14  -1-846.367 564.586   2
  -1  14  -2 5049.84 1004.73   2
  -1  14  -3 711.401 481.693   2
  -1  14  -4 11286.4 1507.49   2
  -1  13   4 2301.19 745.661   2
  -1  13   3 7986.56 1272.65   2
  -1  13   2 5727.63 1074.79   2
  -1  13   1 17350.7 1826.92   2
  -1  13   0 2980.57 775.061   2
  -1  13  -1 14372.0 1603.29   2
  -1  13  -2 74.7018 370.058   2
  -1  13  -3 719.534 443.879   2
  -1  13  -4 1583.10 603.234   2
  -1  13  -5-114.574 436.680   2
  -1  12   7 3267.07 864.929   2
  -1  12   6 4870.05 990.285   2
  -1  12   5 898.076 510.219   2
  -1  12   4 1944.24 699.974   2
  -1  12   3 4551.38 935.608   2
  -1  12   2 12614.7 1517.41   2
  -1  12   1 7731.08 1156.80   2
   1 -12   0 16203.2 2061.56   3
  -1  12   0 21704.4 1952.11   2
  -1  12  -1 65545.9 3587.86   2
  -1  12  -2 1669.88 494.850   2
  -1  12  -3 13807.8 1501.30   2
  -1  12  -4 205.524 469.214   2
  -1  12  -5 77288.3 4005.33   2
  -1  12  -6 1822.51 666.254   2
  -1  12  -7 7718.97 1364.14   1
  -1  11   9 37952.5 2938.49   2
  -1  11   8 632.962 481.187   2
  -1  11   7 22625.0 2115.23   2
  -1  11   6 46162.8 3098.73   2
  -1  11   5 25056.4 2174.12   2
  -1  11   4 4071.65 919.903   2
  -1  11   3 3372.58 817.260   2
   1 -11  -3 3962.01 999.220   3
   1 -11  -2 30895.8 2757.68   3
  -1  11   2 37006.1 2551.46   2
   1 -11  -1 303.003 401.975   3
  -1  11   1 766.440 460.261   2
  -1  11   0 2641.40 682.005   2
   1 -11   0 2123.88 846.410   3
  -1  11  -1-110.428 379.752   2
   1 -11   1 807.930 555.541   3
   1 -11   2 3495.95 1014.63   3
  -1  11  -2 4456.83 834.654   2
   1 -11   3 11202.5 1624.41   3
  -1  11  -3 11645.3 1312.72   2
  -1  11  -4 3765.94 775.378   2
  -1  11  -5 1031.68 478.769   2
  -1  11  -6 1664.29 645.187   2
  -1  11  -7 28014.6 2456.61   1
  -1  11  -8 1707.84 830.851   1
  -1  11  -9 18031.2 2094.45   1
  -1  10  11 4838.32 1064.91   2
  -1  10  10 5899.27 1128.17   2
  -1  10   9 5153.75 1033.10   2
  -1  10   8 2526.26 708.811   2
  -1  10   7 1025.29 583.519   2
  -1  10   6-357.227 395.308   2
  -1  10   5 5969.58 1061.38   2
  -1  10   4 1469.70 571.569   2
   1 -10  -4 1834.52 656.166   3
  -1  10   3 11721.2 1388.30   2
   1 -10  -3 12218.0 1606.59   3
  -1  10   2 49634.5 2899.83   2
   1 -10  -2 42470.1 3115.38   3
   1 -10  -1 8851.16 1403.19   3
  -1  10   1 10052.4 1244.12   2
   1 -10   0 9091.97 1406.82   3
  -1  10   0 11039.0 1282.13   2
  -1  10  -1 5148.26 898.527   2
   1 -10   1 4673.08 980.579   3
   1 -10   2 49685.3 3378.95   3
  -1  10  -2 57021.3 3036.16   2
   1 -10   3 1754.06 704.740   3
  -1  10  -3 1550.04 556.103   2
   1 -10   4 6300.47 1206.05   3
  -1  10  -4 12277.3 1311.26   2
  -1  10  -5 506.017 292.996   2
  -1  10  -6 10542.4 1340.61   2
  -1  10  -7 1136.57 526.769   1
  -1  10  -8 930.798 626.884   1
  -1  10  -9 534.028 510.972   1
  -1  10 -10 4808.77 1096.01   1
  -1   9  12 37899.7 2868.04   2
  -1   9  11 337.374 441.137   2
  -1   9  10 10261.5 1402.88   2
  -1   9   9 5194.54 975.383   2
   1  -9  -9 7810.76 1060.74   5
   1  -9  -8 3492.42 707.310   5
  -1   9   8 2135.76 646.950   2
  -1   9   7 2992.54 722.416   2
   1  -9  -7 3648.33 633.967   5
  -1   9   6 18028.6 1740.37   2
   1  -9  -6 20859.2 1460.32   5
   1  -9  -5 15047.6 1140.77   5
  -1   9   5 13586.7 1449.15   2
   1  -9  -4 7683.82 1175.12   3
   1  -9  -4 7441.66 783.969   5
  -1   9   4 9311.63 1176.61   2
   1  -9  -3 6150.30 1087.02   3
  -1   9   3 5320.18 285.915   4
   1  -9  -3 7170.27 742.402   5
  -1   9   3 6021.20 958.749   2
  -1   9   2 1360.57 496.917   2
   1  -9  -2 1262.36 331.399   5
   1  -9  -2 846.681 401.275   3
  -1   9   2 1548.65 333.002   5
   1  -9  -1 5269.96 999.081   3
  -1   9   1 4496.29 791.623   2
  -1   9   1 4447.48 519.416   5
  -1   9   0 1097.07 273.088   5
   1  -9   0 1565.21 605.824   3
  -1   9   0 1073.54 452.793   2
  -1   9  -1 18369.6 1142.53   5
   1  -9   1 17215.5 1794.59   3
  -1   9  -1 18592.3 1588.99   2
   1  -9   2 26397.2 2249.39   3
  -1   9  -2 27197.1 1517.33   5
  -1   9  -2 28736.8 1984.55   2
  -1   9  -3 81031.5 2472.02   4
  -1   9  -3 90078.8 3418.17   5
  -1   9  -3 96637.8 3991.11   2
   1  -9   3 91656.6 4477.55   3
  -1   9  -4 66050.4 2239.07   4
   1  -9   4 72589.3 3919.82   3
  -1   9  -4 74169.8 3431.79   2
  -1   9  -5 48.5092 132.443   4
  -1   9  -5-252.074 329.527   2
  -1   9  -6 32717.0 1566.02   4
  -1   9  -6 36993.5 2539.84   2
  -1   9  -7 15919.5 1098.34   4
  -1   9  -7 16342.4 1665.35   1
  -1   9  -8 85648.2 3331.90   4
  -1   9  -8 85649.6 4370.89   1
  -1   9  -9 16642.2 1853.14   1
  -1   9  -9 19374.8 1399.87   4
  -1   9 -10 37680.1 2186.29   4
  -1   9 -10 36337.7 2900.66   1
  -1   9 -11 296.195 364.203   4
  -1   9 -11-69.4468 569.332   1
  -1   9 -12 509.766 329.341   4
   1  -8 -13 2695.85 914.228   5
  -1   8  13 283.075 519.433   2
   1  -8 -12 3925.00 967.935   5
  -1   8  12 2859.32 820.262   2
   1  -8 -11 10828.9 1460.35   5
  -1   8  11 9107.80 1311.23   2
   1  -8 -10 13958.7 1573.23   5
  -1   8  10 12826.7 1500.11   2
  -1   8   9 1159.05 528.095   2
   1  -8  -9 824.762 480.121   5
  -1   8   8 71710.7 3694.26   2
   1  -8  -8 75419.0 3566.46   5
  -1   8   7 17869.9 1640.29   2
   1  -8  -7 18058.7 1476.19   5
  -1   8   6 32721.9 2268.95   2
  -1   8   6 36804.2 1657.36   4
   1  -8  -6 37086.0 2077.78   5
  -1   8   5 30485.0 2114.11   2
  -1   8   5 30714.6 1384.57   4
   1  -8  -5 31433.5 1802.37   5
  -1   8   4 87353.3 3681.67   2
   1  -8  -4 79093.0 3780.69   3
  -1   8   3 25915.3 1915.75   2
   1  -8  -3 26637.4 2090.51   3
  -1   8   3 27942.9 1084.95   4
   1  -8  -3 30643.1 1659.12   5
  -1   8   2 30944.6 1019.11   4
   1  -8  -2 37239.5 1811.43   5
  -1   8   2 32446.5 2115.72   2
   1  -8  -2 32146.5 2293.83   3
  -1   8   1 55520.9 2824.59   2
   1  -8  -1 57735.6 2363.46   5
  -1   8   1 44527.6 2030.62   5
   1  -8  -1 48882.5 2987.92   3
  -1   8   0 42437.7 2368.01   2
   1  -8   0 39316.7 2592.76   3
   1  -8   1 31297.9 2233.21   3
  -1   8  -1 34907.9 2040.46   2
  -1   8  -1 21751.8 1282.13   5
   1  -8   2 8119.09 1129.88   3
  -1   8  -2 6691.95 388.837   4
  -1   8  -2 7868.26 970.607   2
  -1   8  -2 5064.81 615.538   5
   1  -8   3 16419.5 1679.86   3
  -1   8  -3 19705.4 1542.15   2
  -1   8  -3 18751.7 1381.79   5
  -1   8  -3 16997.1 822.856   4
  -1   8  -4 7355.11 563.356   4
   1  -8   4 5734.43 972.726   3
  -1   8  -4 6349.55 898.143   2
  -1   8  -4 6359.79 864.938   5
  -1   8  -5 1635.93 320.734   4
  -1   8  -5 2128.96 551.245   2
  -1   8  -6 3282.43 474.217   4
  -1   8  -6 3470.20 754.194   1
  -1   8  -6 2307.03 608.278   2
  -1   8  -7 134.350 357.216   1
  -1   8  -7 61.2362 190.176   4
  -1   8  -8 13342.7 1484.79   1
  -1   8  -8 11757.7 1030.30   4
  -1   8  -9 5562.38 764.047   4
  -1   8  -9 5906.05 1052.73   1
  -1   8 -10 15744.1 1774.61   1
  -1   8 -10 16052.7 1399.26   4
  -1   8 -11 6993.12 1260.38   1
  -1   8 -11 5440.19 850.461   4
  -1   8 -12 15599.5 1536.62   4
  -1   8 -12 15222.6 1889.76   1
  -1   8 -13 89.5169 593.583   1
  -1   8 -13-618.217 563.049   4
  -1   8 -14 30372.1 2399.75   4
   1  -7 -14 7128.58 1412.63   5
  -1   7  14 3791.80 872.467   2
  -1   7  13 38606.4 2734.48   2
   1  -7 -13 37930.4 3132.18   5
   1  -7 -12 1967.04 730.233   5
  -1   7  12 1648.29 695.914   2
  -1   7  11 22989.7 1943.35   2
   1  -7 -11 23846.7 2192.42   5
  -1   7  10 647.468 367.085   2
   1  -7 -10 689.812 457.921   5
   1  -7  -9 30296.2 2238.22   5
  -1   7   9 28447.6 2098.28   2
  -1   7   8 18836.5 1626.77   2
   1  -7  -8 20145.8 1689.25   5
  -1   7   7 4855.37 807.620   2
   1  -7  -7 5029.13 786.270   5
  -1   7   6 1520.03 318.028   4
  -1   7   6 1412.37 486.492   2
   1  -7  -6 1356.19 408.920   5
   1  -7  -5 16068.4 1219.41   5
  -1   7   5 14551.3 1308.86   2
  -1   7   5 15600.7 1179.24   3
   1  -7  -4 8949.14 1073.01   3
  -1   7   4 11351.0 1145.84   2
   1  -7  -4 12900.2 1034.52   5
  -1   7   4 14831.7 1192.02   3
  -1   7   4 9110.41 666.503   4
  -1   7   3 3601.92 661.922   2
   1  -7  -3 3852.08 555.687   5
   1  -7  -3 3276.84 686.623   3
  -1   7   3 3475.34 351.256   4
  -1   7   3 4479.51 543.121   5
   1  -7  -2 10407.4 913.377   5
  -1   7   2 8941.32 507.323   4
  -1   7   2 10925.8 848.482   5
  -1   7   2 10038.6 1049.98   2
   1  -7  -2 9325.44 1117.54   3
  -1   7   1 8336.39 428.733   4
  -1   7   1 7976.71 947.933   2
  -1   7   1 10006.6 785.579   5
  -1   7   1 9146.70 506.623   4
   1  -7  -1 7789.58 796.384   5
   1  -7  -1 8022.37 1033.89   3
   1  -7   0 26098.8 1486.28   5
  -1   7   0 25587.2 922.690   4
   1  -7   0 25413.5 1904.88   3
  -1   7   0 27532.5 1787.18   2
  -1   7   0 29751.1 1473.44   5
  -1   7  -1 29780.6 1081.37   4
   1  -7   1 31147.0 2128.55   3
  -1   7  -1 35776.0 2038.40   2
  -1   7  -1 33748.2 1650.77   5
  -1   7  -2 4183.89 360.434   4
  -1   7  -2 4537.91 608.270   5
  -1   7  -2 4941.55 728.645   2
   1  -7   2 4906.72 829.733   3
  -1   7  -3 53911.7 2633.84   5
  -1   7  -3 57733.8 2677.19   2
  -1   7  -3 48047.6 1811.46   4
   1  -7   3 47928.2 2780.07   3
  -1   7  -4 38003.6 2285.56   5
  -1   7  -4 33869.6 1517.84   4
   1  -7   4 34123.5 2264.79   3
  -1   7  -4 40237.6 2195.12   2
  -1   7  -5 36370.3 1644.20   4
  -1   7  -5 38674.4 2366.80   5
  -1   7  -5 36515.8 2186.60   2
  -1   7  -6 10013.4 1073.68   2
  -1   7  -6 9176.58 1103.69   1
  -1   7  -6 9796.31 844.225   4
  -1   7  -7 20075.9 1705.68   1
  -1   7  -7 21072.0 1367.00   4
  -1   7  -8 445.272 374.496   1
  -1   7  -8 341.680 206.541   4
  -1   7  -9 3501.31 629.262   4
  -1   7  -9 3808.79 823.282   1
  -1   7 -10 700.671 397.215   4
  -1   7 -10 496.847 454.273   1
  -1   7 -11-2.43190 392.482   1
  -1   7 -11-144.544 329.430   4
  -1   7 -12 2038.23 622.567   4
  -1   7 -12 1610.61 692.726   1
  -1   7 -13 10140.5 1329.48   4
  -1   7 -14 7120.13 1174.20   4
   1  -6 -14 7323.76 1445.52   5
  -1   6  14 6770.18 1139.95   2
  -1   6  13 18390.5 1761.80   2
   1  -6 -13 18522.9 2172.45   5
  -1   6  12 2638.31 665.927   2
   1  -6 -12 2854.49 745.814   5
   1  -6 -11 6943.26 1173.74   5
   1  -6 -10 3030.45 779.655   5
   1  -6  -9 89348.7 4273.09   5
   1  -6  -8 1747.84 506.890   5
   1  -6  -7 40047.1 2331.40   5
  -1   6   6 19675.0 1211.05   3
  -1   6   6 17754.7 1148.71   4
   1  -6  -6 16013.2 1358.02   5
   1  -6  -5 4802.54 677.951   5
  -1   6   5 4047.79 475.526   4
   1  -6  -4 5749.24 701.861   5
  -1   6   4 6416.47 547.042   4
   1  -6  -4 5815.23 755.141   3
   1  -6  -3 28889.5 1817.36   3
  -1   6   3 31223.4 1588.74   5
  -1   6   3 28354.1 1212.60   4
   1  -6  -3 28659.5 1588.68   5
   1  -6  -2 78301.1 2976.13   5
  -1   6   2 73338.8 3135.54   2
  -1   6   2 81300.5 2914.18   5
   1  -6  -2 76144.1 3332.77   3
  -1   6   2 75391.5 2372.69   4
   1  -6  -1 6167.00 836.986   3
  -1   6   1 7566.86 830.451   2
  -1   6   1 6361.62 396.651   4
  -1   6   1 7451.96 676.526   5
  -1   6   1 7494.05 831.080   3
   1  -6  -1 6655.25 725.772   5
  -1   6   0 50855.8 1752.91   4
   1  -6   0 54467.9 2383.52   5
  -1   6   0 58525.8 2281.52   5
  -1   6   0 54257.8 2537.66   2
   1  -6   0 51322.1 2668.85   3
  -1   6   0 57684.3 2662.82   3
   1  -6   1 289.915 268.758   3
  -1   6  -1 80.5597 127.256   5
  -1   6  -1 217.367 93.3113   4
  -1   6  -1-37.7434 166.776   2
  -1   6  -2 604.711 270.743   5
  -1   6  -2 847.957 183.242   4
   1  -6   2 1185.25 404.621   3
  -1   6  -2 712.687 289.118   2
   1  -6   3 1379.43 453.333   3
  -1   6  -3 1938.21 501.442   5
  -1   6  -3 1572.10 275.991   4
  -1   6  -3 1999.56 454.202   2
   1  -6   4 61824.1 2600.23   4
  -1   6  -4 62044.8 2760.34   2
  -1   6  -4 61112.3 2297.23   4
   1  -6   4 57345.5 2913.00   3
  -1   6  -4 59769.1 3039.75   5
  -1   6  -5 5231.75 719.661   2
  -1   6  -5 4825.57 806.123   5
   1  -6   5 3445.62 537.893   4
  -1   6  -5 5816.39 616.977   4
  -1   6  -6 68380.3 2894.87   2
  -1   6  -6 66912.9 3168.44   1
  -1   6  -6 69432.8 2784.75   4
  -1   6  -7 131633. 4622.71   4
  -1   6  -7 129641. 5076.56   1
  -1   6  -8 24034.5 1614.14   4
  -1   6  -8 24297.9 1874.91   1
  -1   6  -9 19473.2 1719.46   1
  -1   6  -9 17452.7 1441.59   4
  -1   6 -10 2950.81 730.155   1
  -1   6 -10 3472.43 688.554   4
  -1   6 -11 138988. 5462.07   4
  -1   6 -11 128977. 5676.59   1
  -1   6 -12 1020.32 448.539   4
  -1   6 -12 1510.47 677.474   1
  -1   6 -13 19405.0 1888.91   4
  -1   6 -14 3061.48 864.984   4
  -1   6 -15 17936.6 2009.46   4
   1  -5 -15 399.883 757.582   5
  -1   5  14 2925.39 677.010   2
   1  -5 -14 2313.94 912.854   5
   1  -5 -13 1651.57 767.019   5
   1  -5 -12 9944.31 1545.91   5
   1  -5 -11 2607.17 793.032   5
   1  -5 -10 8830.33 1295.17   5
   1  -5  -9 7466.94 1113.52   5
   1  -5  -8 37.5770 301.281   5
   1  -5  -7 74188.0 3433.05   5
   1  -5  -6 15362.8 1290.89   5
  -1   5   6 16557.2 988.842   3
  -1   5   6 15822.3 1081.77   4
   1  -5  -5 25622.9 1633.38   5
  -1   5   5 25034.1 1331.91   4
  -1   5   5 27333.8 1381.56   3
  -1   5   4 6778.93 579.893   4
  -1   5   4 6233.49 635.487   3
   1  -5  -4 6321.79 718.222   5
  -1   5   3 215280. 6223.80   3
  -1   5   3 193081. 5623.13   4
   1  -5  -3 195020. 6229.25   3
  -1   5   3 203145. 6140.14   5
   1  -5  -3 193997. 6142.22   5
  -1   5   2 2454.85 423.892   3
   1  -5  -2 1803.16 353.089   5
  -1   5   2 1822.05 242.673   4
  -1   5   2 1980.04 362.586   5
   1  -5  -2 2105.07 435.327   3
   1  -5  -1 61915.4 2542.77   5
  -1   5   1 64934.3 2477.91   5
   1  -5  -1 63329.0 2726.97   3
   1  -5   0 149323. 5222.58   3
  -1   5   0 159898. 4899.54   5
  -1   5   0 151883. 5029.38   2
   1  -5   0 157440. 5169.67   5
  -1   5  -1 133033. 4405.21   5
   1  -5   1 138562. 4577.80   5
   1  -5   1 138276. 4707.90   3
  -1   5  -1 127858. 3858.36   4
  -1   5  -1 131277. 4495.22   2
  -1   5  -2 10054.6 635.680   4
  -1   5  -2 9204.02 857.419   2
  -1   5  -2 9028.28 931.047   5
   1  -5   2 8326.79 878.412   3
   1  -5   3 53201.1 2547.79   3
  -1   5  -3 55558.5 2076.04   4
  -1   5  -3 57515.5 2862.42   5
  -1   5  -3 59838.3 2491.64   2
  -1   5  -4 112564. 3661.57   4
  -1   5  -4 117160. 4198.81   3
   1  -5   4 109273. 3878.78   4
  -1   5  -4 107964. 4279.41   5
  -1   5  -4 102312. 3856.14   2
   1  -5   5 1150.84 343.813   4
  -1   5  -5 560.220 251.667   4
  -1   5  -5 797.433 331.810   1
  -1   5  -5 643.741 242.640   2
  -1   5  -6 2058.27 435.445   4
  -1   5  -6 2040.45 489.137   1
  -1   5  -7 93.9706 248.302   1
  -1   5  -7 111.407 209.070   4
  -1   5  -8 21907.7 1565.90   4
  -1   5  -8 19292.4 1577.81   1
  -1   5  -9 6328.33 962.656   1
  -1   5  -9 7672.14 966.916   4
  -1   5 -10 2984.28 696.149   1
  -1   5 -10 3628.44 691.215   4
  -1   5 -11 15524.1 1528.98   4
  -1   5 -11 12649.7 1427.48   1
  -1   5 -12 8136.27 1205.49   4
  -1   5 -13 21889.4 2043.21   4
  -1   5 -14 2849.68 797.657   4
  -1   5 -15 12979.5 1747.78   4
   1  -4 -15 14484.6 2145.36   5
   1  -4 -14 4454.19 1171.75   5
   1  -4 -13 24915.4 2603.04   5
   1  -4 -12 44331.4 3340.74   5
   1  -4 -11 8120.49 1328.17   5
  -1   4  10 70147.6 2937.16   1
   1  -4 -10 66169.6 3843.27   5
   1  -4  -9 10977.4 1359.39   5
  -1   4   9 11732.6 970.795   1
   1  -4  -8 71852.5 3600.54   5
   1  -4  -7 2390.94 574.985   5
  -1   4   6 47978.9 2123.40   4
   1  -4  -6 50010.2 2519.35   5
  -1   4   6 46380.5 1731.06   3
   1  -4  -5 18935.3 1364.60   5
  -1   4   5 19561.9 1022.27   3
  -1   4   5 19271.0 1147.13   4
   1  -4  -4 26410.8 1554.08   5
  -1   4   4 28859.5 1338.37   3
  -1   4   4 25243.9 1255.13   4
  -1   4   3 1643.74 305.690   3
   1  -4  -3 1294.54 314.115   5
  -1   4   3 1177.71 221.138   4
  -1   4   3 1433.76 319.639   5
  -1   4   2 54106.6 2179.05   5
   1  -4  -2 52645.7 2182.00   5
  -1   4   2 57192.1 2140.90   3
  -1   4   2 49132.9 1772.25   4
  -1   4   1 8063.01 689.034   5
   1  -4  -1 7999.89 694.872   5
   1  -4  -1 8160.14 738.142   3
  -1   4   1 8661.20 698.561   3
   1  -4   0 14863.2 1090.48   5
  -1   4   0 13871.0 924.432   5
   1  -4   0 13426.5 959.460   3
  -1   4  -1 105683. 3362.66   4
   1  -4   1 106434. 3795.91   3
  -1   4  -1 109624. 3839.38   5
  -1   4  -1 113394. 3669.19   2
  -1   4  -2 4201.29 643.551   5
  -1   4  -2 3918.91 406.900   4
  -1   4  -2 4244.32 504.469   2
  -1   4  -3 6490.40 576.097   4
  -1   4  -3 5802.65 771.387   5
   1  -4   3 6381.61 661.811   4
  -1   4  -3 6303.13 621.770   2
  -1   4  -4 112479. 3643.00   4
   1  -4   4 107459. 3817.64   4
  -1   4  -4 113218. 3886.02   3
   1  -4   5 35969.8 1934.40   4
  -1   4  -5 34623.1 1555.14   2
  -1   4  -5 35817.6 1773.82   4
  -1   4  -5 38380.3 1921.56   3
  -1   4  -6 64168.9 2784.64   3
  -1   4  -6 61115.3 2697.91   4
  -1   4  -7 24370.0 1600.96   3
  -1   4  -7 21166.6 1501.60   1
  -1   4  -7 22667.7 1547.65   4
  -1   4  -8 94152.4 3927.73   1
  -1   4  -8 101197. 4063.43   3
  -1   4  -8 98731.5 4036.69   4
  -1   4  -9 870.309 383.669   4
  -1   4  -9 593.349 348.705   1
  -1   4 -10 7791.68 1027.09   1
  -1   4 -10 8834.68 1122.70   4
  -1   4 -11 2423.53 697.563   4
  -1   4 -12 16478.3 1717.61   4
  -1   4 -13 134.873 513.169   4
  -1   4 -14-188.533 452.579   4
  -1   4 -15 1418.50 913.642   4
   1  -3 -15 12929.2 2137.17   5
   1  -3 -14 10541.2 1778.99   5
   1  -3 -13 909.904 673.779   5
   1  -3 -12 2044.32 822.965   5
   1  -3 -11 8080.78 1338.63   5
  -1   3  10 31391.5 1726.69   1
   1  -3 -10 30818.5 2511.24   5
  -1   3   9 1712.80 361.466   1
   1  -3  -9 1256.78 544.985   5
   1  -3  -8 14462.7 1500.69   5
  -1   3   8 16109.3 1053.21   1
   1  -3  -7 7522.52 999.366   5
   1  -3  -6 196599. 6657.79   5
  -1   3   6 195613. 6110.91   4
  -1   3   5 16763.6 793.321   3
  -1   3   5 16350.8 1063.57   4
   1  -3  -5 16759.4 1273.10   5
  -1   3   4 95932.6 3360.42   4
   1  -3  -4 102192. 3791.46   5
  -1   3   3 4075.85 381.048   3
  -1   3   3 3188.84 359.994   4
   1  -3  -3 2861.19 438.611   5
  -1   3   3 3343.63 452.170   5
  -1   3   2 5658.73 464.924   3
  -1   3   2 6132.58 595.880   5
   1  -3  -2 4566.53 532.099   5
   1  -3  -1 118239. 3971.82   5
  -1   3   1 122725. 3970.63   5
  -1   3   1 129908. 3800.19   3
  -1   3   0 58734.6 2242.91   5
   1  -3   0 59097.2 2362.42   5
  -1   3  -1 101454. 3255.61   4
  -1   3  -1 91816.9 3501.01   5
   1  -3   1 104168. 3814.97   5
  -1   3  -2 69765.2 2361.02   2
  -1   3  -2 67013.0 2410.88   4
  -1   3  -3 4764.19 500.641   4
  -1   3  -3 3817.87 586.718   5
   1  -3   3 5041.03 577.240   4
  -1   3  -3 5487.22 481.785   2
  -1   3  -4 4530.30 528.631   4
   1  -3   4 4818.88 596.847   4
  -1   3  -4 5402.51 575.484   3
  -1   3  -4 4114.68 400.773   2
   1  -3   5 14666.4 1161.89   4
  -1   3  -5 15509.5 1050.44   3
  -1   3  -5 15528.6 1106.54   4
  -1   3  -6 40202.4 2072.55   4
  -1   3  -6 39553.0 1907.76   3
   1  -3   7 34223.7 2097.94   4
  -1   3  -7 34047.5 1804.97   3
  -1   3  -7 33180.0 1976.37   4
  -1   3  -8 46624.7 2281.91   3
  -1   3  -8 42122.9 2243.84   1
  -1   3  -8 44699.3 2472.83   4
  -1   3  -9 93662.1 4092.31   4
  -1   3  -9 90160.4 3737.44   3
  -1   3 -10 30925.8 2005.88   3
  -1   3 -10 30220.1 2196.92   4
  -1   3 -11 4754.45 932.223   4
  -1   3 -12 40753.2 2831.62   4
  -1   3 -13 37658.2 2848.48   4
  -1   3 -14 51165.6 3543.48   4
  -1   3 -15 12078.1 1783.98   4
   1  -2 -15 13511.7 2121.21   5
   1  -2 -14 17058.5 2314.77   5
   1  -2 -13 21767.7 2496.19   5
   1  -2 -12 5544.06 1214.56   5
   1  -2 -11 62427.3 3534.51   4
   1  -2 -11 51707.5 3621.31   5
  -1   2  10 10999.1 953.046   1
   1  -2 -10 11473.7 1528.84   5
   1  -2 -10 13205.1 1455.77   4
   1  -2  -9 1558.20 521.409   4
  -1   2   9 1589.53 354.644   1
   1  -2  -9 1728.20 584.000   5
  -1   2   8 16758.1 1068.40   1
   1  -2  -8 19190.7 1736.44   5
   1  -2  -8 18937.4 1530.89   4
   1  -2  -7 3376.25 601.138   4
  -1   2   7 2342.86 352.548   1
   1  -2  -7 2390.80 600.076   5
   1  -2  -6 1551.32 386.713   4
  -1   2   6 1389.72 328.338   4
  -1   2   6 1605.39 271.611   1
   1  -2  -6 1288.68 419.615   5
   1  -2  -5 103037. 3961.21   5
  -1   2   5 104052. 2817.13   3
  -1   2   5 97712.0 3490.95   4
  -1   2   5 101401. 3125.14   1
   1  -2  -4 24258.6 1459.23   5
  -1   2   4 23676.6 1230.82   4
  -1   2   4 24988.7 900.569   3
   1  -2  -3 4888.22 577.956   5
  -1   2   3 4865.51 549.171   5
  -1   2   3 4881.58 336.086   3
  -1   2   3 4478.61 433.693   4
  -1   2   2 184299. 5018.36   3
   1  -2  -2 177020. 5462.17   5
   1  -2  -1 140785. 4376.90   5
   1  -2   0 171794. 5163.49   5
  -1   2  -1 11179.5 598.052   1
   1  -2   1 12129.3 1044.86   5
  -1   2  -2 195156. 5703.11   4
  -1   2  -3 14248.2 655.503   2
  -1   2  -3 14248.2 915.241   4
  -1   2  -4 66229.5 2619.66   4
  -1   2  -4 70994.1 2461.19   3
  -1   2  -5 105794. 3835.64   4
   1  -2   5 104815. 3604.83   1
  -1   2  -5 112028. 3547.42   3
   1  -2   6 181102. 5741.69   1
  -1   2  -6 182577. 5580.73   3
  -1   2  -6 194000. 6142.99   4
  -1   2  -7 20897.5 1218.49   3
   1  -2   7 19297.5 1506.27   4
  -1   2  -7 17785.7 1415.83   4
  -1   2  -8 814.080 264.762   3
  -1   2  -8 268.585 289.098   4
  -1   2  -9 8152.25 1070.15   4
  -1   2  -9 10290.1 932.808   3
  -1   2 -10 13631.2 1166.87   3
  -1   2 -10 13363.4 1458.47   4
  -1   2 -11 9939.61 1302.25   4
  -1   2 -11 8735.01 968.374   3
  -1   2 -12 4867.76 1017.94   4
  -1   2 -13 205.782 503.130   4
  -1   2 -14 14754.2 1859.51   4
  -1   2 -15 4252.48 1140.21   4
   1  -1 -15 2231.72 1123.88   5
   1  -1 -14 12073.3 1994.02   5
   1  -1 -13 8677.26 1605.79   5
   1  -1 -12 27526.5 2773.63   5
   1  -1 -12 30843.0 2551.50   4
   1  -1 -11 1535.96 657.733   4
   1  -1 -11 580.577 462.602   5
   1  -1 -10 73300.7 4273.19   5
   1  -1 -10 78275.5 3931.49   4
   1  -1  -9 65342.6 3792.14   5
   1  -1  -9 69190.5 3495.57   4
   1  -1  -8 2303.35 650.389   5
   1  -1  -8 2236.03 600.225   4
   1  -1  -7 116394. 4444.03   4
  -1   1   7 114799. 3718.34   1
   1  -1  -7 115709. 4849.27   5
   1  -1  -6 34703.1 1876.37   4
  -1   1   6 33706.4 1423.87   1
   1  -1  -6 33515.1 2104.78   5
  -1   1   5 149877. 4319.21   1
   1  -1  -5 150068. 5286.28   5
   1  -1  -5 150426. 4890.59   4
  -1   1   4 794.053 145.704   1
   1  -1  -4 794.107 294.752   5
  -1   1   3 91642.3 2545.04   1
   1  -1  -3 92918.7 3294.10   5
   1  -1  -2 11020.8 778.207   5
   1  -1  -1 1813.95 302.539   5
  -1   1   0 1928.84 158.554   1
   1  -1   0 1819.63 150.273   1
   1  -1   0 1633.45 280.165   5
   1  -1   1 130926. 4372.55   5
   1  -1   1 126590. 3549.29   1
  -1   1  -2 30207.7 1437.49   4
   1  -1   2 31822.2 1198.96   1
  -1   1  -3 7387.36 639.830   4
   1  -1   3 7061.23 524.960   1
   1  -1   4 37997.1 1556.57   1
  -1   1  -4 33217.9 1680.70   4
   1  -1   5 333.571 181.005   1
  -1   1  -5 379.659 221.303   4
  -1   1  -6 38084.7 2059.96   4
   1  -1   6 40567.3 1852.89   1
  -1   1  -7 64163.5 2339.88   3
   1  -1   7 63893.2 2645.21   1
  -1   1  -7 60277.7 2934.41   4
   1  -1   8 9118.50 453.971   2
  -1   1  -8 10062.2 770.510   3
  -1   1  -8 8409.23 1069.19   4
   1  -1   9 57788.4 1838.87   2
  -1   1  -9 61326.3 2438.75   3
  -1   1  -9 64462.8 3265.16   4
  -1   1 -10 43951.1 2722.50   4
   1  -1  10 42464.6 1372.68   2
  -1   1 -11 52363.5 2493.13   3
   1  -1  11 54871.1 1735.18   2
  -1   1 -12 1141.44 593.913   4
  -1   1 -13 10285.0 1512.23   4
  -1   1 -14-522.699 537.177   4
  -1   1 -15 5246.65 1155.77   4
  -1   1 -16 963.598 719.378   4
   1   0 -15 2204.71 1075.99   5
   1   0 -14 153.132 642.860   5
   1   0 -13 11195.1 1632.69   4
   1   0 -13 9529.27 1753.67   5
   1   0 -12 13650.3 1940.55   5
   1   0 -12 14148.3 1740.72   4
   1   0 -11 3592.87 881.032   4
   1   0 -11 1367.53 691.666   5
   1   0 -10 1468.80 558.127   4
   1   0  -9 18747.4 1657.40   4
   1   0  -8 35735.8 2219.77   4
   1   0  -7 57973.0 2791.06   4
   1   0  -6 1738.82 413.654   4
  -1   0   6 1714.90 172.975   3
   1   0  -5 17117.9 1166.45   4
  -1   0   5 18346.1 753.924   3
   1   0  -5 16983.0 874.309   1
   1   0  -4 69062.3 2121.51   1
  -1   0   4 62833.7 2028.65   3
   1   0  -4 71273.8 2856.63   5
   1   0  -3 425584. 12182.1   5
   1   0  -3 446024. 11429.2   1
   1   0  -2 12768.9 833.147   5
   1   0  -1 94611.0 3015.44   5
   1   0   0 10972.9 667.599   5
   1   0   1 123339. 4050.92   5
  -1   0  -2 20425.3 1135.23   4
  -1   0  -3 14012.9 929.323   4
  -1   0  -3 14879.1 632.464   2
  -1   0  -4 205478. 6467.29   4
   1   0   4 217657. 5676.06   2
   1   0   5 2112.09 219.431   2
  -1   0  -5 2101.14 426.171   4
   1   0   5 2239.84 354.526   1
  -1   0  -6 36663.6 2004.96   4
   1   0   6 36270.5 1720.36   1
   1   0   6 35679.5 1326.93   2
  -1   0  -7 66.4659 214.227   4
   1   0   7 146.920 109.775   2
   1   0   7 321.964 234.653   1
  -1   0  -8 3458.02 684.080   4
   1   0   8 4056.42 399.652   2
  -1   0  -8 3541.16 401.619   3
  -1   0  -9 6343.83 946.335   4
   1   0   9 6231.73 525.325   2
  -1   0  -9 5996.75 546.826   3
  -1   0 -10 66099.5 2503.67   3
  -1   0 -10 64305.6 3513.67   4
   1   0  10 65537.8 2358.07   2
  -1   0 -11 736.857 245.655   3
   1   0  11 447.163 187.815   2
   1   0  12 16401.3 953.797   2
  -1   0 -12 16271.6 1798.04   4
  -1   0 -13 72231.4 4266.11   4
  -1   0 -14 24998.9 2482.97   4
  -1   0 -15 3757.27 995.076   4
  -1   0 -16 2623.98 936.197   4
   1   1 -15 9776.10 2065.48   5
   1   1 -14 27070.6 3156.59   5
   1   1 -13 40288.1 3713.53   5
   1   1 -13 51003.2 3502.36   4
   1   1 -12 2636.03 761.588   4
   1   1 -11 13090.3 1552.44   4
   1   1 -10 115757. 5067.16   4
   1   1  -9 732.493 328.336   4
   1   1  -8 22205.7 1687.61   4
   1   1  -7 918.947 381.523   4
  -1  -1   7 1429.99 223.902   3
   1   1  -6 90970.1 3580.79   4
  -1  -1   6 97106.9 2966.88   3
   1   1  -6 90246.3 3125.69   1
   1   1  -5 10916.8 720.364   1
   1   1  -5 11120.8 897.893   4
  -1  -1   5 11022.0 696.482   3
   1   1  -4 293.293 125.353   1
  -1  -1   4 639.845 160.692   3
  -1  -1   3 59464.8 2030.84   3
   1   1  -3 60305.5 2418.46   5
   1   1  -2 11021.7 761.878   5
   1   1  -1 55511.9 1933.04   5
   1   1   0 15524.0 765.889   5
  -1  -1  -1 31608.3 1183.13   2
   1   1   1 30864.5 1408.07   5
  -1  -1  -2 18652.7 1049.72   4
  -1  -1  -2 19937.8 919.953   2
  -1  -1  -3 351111. 9920.91   4
  -1  -1  -3 348248. 9712.42   2
   1   1   3 371819. 9595.80   2
  -1  -1  -4 20845.3 1241.09   4
   1   1   4 21905.8 1041.60   2
  -1  -1  -5 37890.1 1910.45   4
   1   1   5 39878.9 1612.70   2
  -1  -1  -6 58851.7 2729.90   4
   1   1   6 63224.4 2302.93   2
  -1  -1  -7 86132.2 3662.96   4
   1   1   7 86428.5 2984.74   2
  -1  -1  -8 26513.2 1885.32   4
   1   1   8 25667.6 1332.78   2
  -1  -1  -9 54908.4 3004.94   4
   1   1   9 52052.1 2163.91   2
   1   1  10 40025.8 1817.40   2
  -1  -1 -10 36416.8 1522.57   3
  -1  -1 -10 38722.8 2584.82   4
  -1  -1 -11 5692.40 1011.91   4
  -1  -1 -11 5903.83 516.248   3
   1   1  11 5489.83 614.342   2
   1   1  12-65.5957 167.579   2
  -1  -1 -12 39.8034 423.993   4
  -1  -1 -13 772.528 486.869   4
  -1  -1 -14 6534.13 1246.35   4
  -1  -1 -15 4154.15 1115.21   4
  -1  -1 -16 585.397 590.201   4
   1   2 -15 1425.94 1036.89   5
   1   2 -14 3788.78 1396.35   5
   1   2 -12 902.551 582.392   4
   1   2 -11 12045.7 1465.12   4
   1   2 -10 5432.82 943.588   4
   1   2  -9 67948.1 3377.79   4
   1   2  -9 66534.9 2882.34   1
   1   2  -8 650.189 352.745   4
  -1  -2   8 247.370 161.286   3
   1   2  -8 308.466 248.923   1
  -1  -2   7 103073. 3423.32   3
   1   2  -7 102742. 4022.69   4
   1   2  -6 53331.2 2432.03   4
  -1  -2   6 53079.4 2143.49   3
  -1  -2   6 55610.8 2422.58   4
   1   2  -5 20122.5 1227.87   4
  -1  -2   5 18761.6 1119.26   3
  -1  -2   4 135538. 4278.84   3
  -1  -2   3 16971.4 986.703   3
  -1  -2   2 248979. 7013.52   3
   1   2  -2 244217. 7011.56   5
  -1  -2   2 247813. 6783.83   4
  -1  -2   1 39236.7 1501.85   2
   1   2  -1 33855.8 1363.60   5
   1   2   0 51434.2 1720.36   5
  -1  -2   0 54187.4 1688.34   5
  -1  -2   0 53499.8 1938.38   2
  -1  -2  -1 20941.4 857.271   5
  -1  -2  -1 20205.0 1045.05   2
   1   2   1 21066.3 983.882   5
  -1  -2  -2 13047.0 752.111   5
  -1  -2  -2 12565.5 789.674   4
  -1  -2  -2 12590.0 856.686   2
   1   2   3 8966.75 683.890   4
  -1  -2  -3 9024.86 686.079   4
   1   2   3 10791.9 785.980   2
  -1  -2  -3 8988.01 766.847   2
   1   2   4 761.063 232.806   4
   1   2   4 612.496 251.307   2
  -1  -2  -4 652.302 226.592   4
  -1  -2  -5 5519.94 648.288   4
   1   2   5 5909.54 617.366   2
   1   2   5 4921.63 594.163   4
   1   2   6 1718.74 370.546   2
  -1  -2  -6 1608.43 385.880   4
   1   2   6 1719.37 385.952   4
   1   2   7 123141. 4528.02   4
  -1  -2  -7 129273. 4749.57   4
   1   2   7 122460. 4212.93   2
   1   2   8 400.471 193.513   2
  -1  -2  -8 460.011 334.245   4
   1   2   9 14224.9 1079.17   2
  -1  -2  -9 15384.4 1461.81   4
  -1  -2 -10 30730.7 2252.10   4
  -1  -2 -11 17003.3 782.703   3
  -1  -2 -11 15861.1 742.584   3
  -1  -2 -12 37462.0 2781.05   4
  -1  -2 -13 22155.1 2211.62   4
  -1  -2 -14 42731.7 3296.15   4
  -1  -2 -15-410.804 665.152   4
  -1  -2 -16 3548.48 1160.64   4
   1   3 -14 47500.9 4324.64   5
   1   3 -12 12470.1 1528.14   4
   1   3 -11 867.769 493.074   4
   1   3 -11 1980.64 544.350   1
   1   3 -10 21179.4 1768.58   4
   1   3 -10 17722.2 1467.34   1
   1   3  -9 45627.0 2377.90   1
   1   3  -9 47309.3 2664.45   4
  -1  -3   9 46948.9 2040.74   3
   1   3  -8 684.209 366.020   4
  -1  -3   8 97.0220 174.427   3
   1   3  -8 582.203 327.772   1
  -1  -3   7 180.407 191.476   3
   1   3  -7 407.556 236.373   4
   1   3  -7 455.484 257.363   1
  -1  -3   6 23248.6 1419.60   3
  -1  -3   6 26554.6 1546.92   4
   1   3  -6 25639.3 1505.61   4
  -1  -3   5 35519.3 1818.25   3
   1   3  -5 34801.7 1700.46   4
  -1  -3   4 83095.8 2888.42   2
  -1  -3   4 78483.0 3037.04   3
  -1  -3   4 77883.4 2823.38   4
  -1  -3   3 5795.86 566.958   2
  -1  -3   3 5265.18 607.187   3
  -1  -3   3 5558.41 499.878   4
  -1  -3   2 53568.5 2079.13   2
   1   3  -2 48055.8 1940.03   5
  -1  -3   2 52918.9 1827.35   4
  -1  -3   2 50688.4 2172.55   3
   1   3  -1 63376.7 2118.24   5
  -1  -3   1 65595.8 2496.87   3
  -1  -3   1 66177.3 2412.32   2
   1   3   0 279061. 7431.12   5
  -1  -3   0 285186. 8089.13   2
  -1  -3   0 286269. 8076.69   3
  -1  -3  -1 42070.1 1900.72   2
  -1  -3  -1 41883.6 1802.05   3
  -1  -3  -2 162735. 4443.56   5
  -1  -3  -2 147077. 5032.52   2
  -1  -3  -2 151048. 4529.42   4
   1   3   3 77.0032 123.527   4
  -1  -3  -3 72.2655 163.294   2
  -1  -3  -3 68.7032 119.119   4
   1   3   4 60089.4 2331.06   4
  -1  -3  -4 60685.6 2331.33   4
   1   3   4 61199.1 2601.16   2
  -1  -3  -5 56974.4 2405.97   4
   1   3   5 53910.2 2317.62   4
   1   3   5 61153.8 2559.06   2
   1   3   6 52216.0 2359.02   4
   1   3   6 54172.2 2451.02   2
  -1  -3  -6 55449.9 2501.51   4
  -1  -3  -7 65762.9 2957.54   4
   1   3   7 63106.4 2792.63   4
  -1  -3  -8 7508.56 934.542   4
  -1  -3  -9 239.163 159.386   3
  -1  -3  -9 730.972 391.415   4
  -1  -3 -10 21766.5 1080.03   3
  -1  -3 -10 28636.5 2059.50   4
  -1  -3 -11 1767.33 215.301   3
  -1  -3 -11 2273.65 684.718   4
   1   3  11 2767.38 546.215   2
   1   3  12 31762.4 1905.70   2
  -1  -3 -12 29724.4 2382.21   4
  -1  -3 -13 5581.82 1086.91   4
   1   3  13 5637.35 763.364   2
  -1  -3 -14 12775.0 1695.92   4
  -1  -3 -15 27347.3 2645.03   4
  -1  -3 -16 6181.19 1368.16   4
   1   4 -14 6554.88 1631.88   5
   1   4 -12 46358.4 2843.33   1
   1   4 -11 5217.48 925.101   4
   1   4 -11 2967.62 691.303   1
  -1  -4  10 16815.8 1228.72   3
   1   4 -10 15714.8 1454.48   1
   1   4 -10 18322.7 1611.89   4
   1   4  -9 49807.8 2628.54   1
  -1  -4   9 49108.6 2313.31   3
   1   4  -9 52462.5 2724.80   4
  -1  -4   9 46897.1 2245.51   2
   1   4  -8 99925.1 4030.83   1
  -1  -4   8 98342.3 3687.52   2
  -1  -4   8 103079. 3866.43   3
   1   4  -8 105333. 4088.77   4
   1   4  -7 24031.3 1587.02   1
   1   4  -7 23714.6 1521.60   4
  -1  -4   7 24819.2 1461.07   2
  -1  -4   7 22929.9 1518.07   3
   1   4  -6 16621.7 1160.36   4
  -1  -4   6 16031.5 1135.21   2
  -1  -4   6 15880.6 1246.41   3
  -1  -4   6 16216.7 1197.67   4
  -1  -4   5 118762. 4417.87   3
  -1  -4   5 122472. 4181.92   2
  -1  -4   4 14521.5 1184.39   3
  -1  -4   4 14914.9 1040.15   2
  -1  -4   4 13797.1 932.021   4
  -1  -4   3 25938.2 1589.83   3
  -1  -4   3 26108.3 1425.72   2
  -1  -4   3 25978.9 1231.89   4
  -1  -4   2 11503.5 901.203   2
  -1  -4   2 11943.5 1005.33   3
  -1  -4   2 11502.8 671.668   4
  -1  -4   1 70.7911 69.3947   4
  -1  -4   1 101.251 164.746   3
  -1  -4   1 384.119 233.103   2
   1   4  -1 96.0426 107.911   5
  -1  -4   0 6147.11 688.169   2
  -1  -4   0 6077.39 673.549   3
  -1  -4  -1 33869.0 1249.09   4
  -1  -4  -1 29148.0 1704.15   2
  -1  -4  -1 32178.8 1671.18   3
  -1  -4  -2 403.002 134.098   4
  -1  -4  -2 108.331 175.979   2
  -1  -4  -2 354.752 191.750   3
  -1  -4  -2 340.242 89.1303   5
  -1  -4  -3 130.493 211.359   2
   1   4   3 91.8084 92.5220   4
  -1  -4  -3 265.346 178.461   3
  -1  -4  -3 131.145 122.075   4
   1   4   4 68467.8 2500.27   4
  -1  -4  -4 70274.6 2509.96   4
  -1  -4  -4 65902.6 2670.33   3
  -1  -4  -5 61771.1 2553.73   3
   1   4   5 66784.3 2560.44   4
  -1  -4  -5 67188.2 2598.04   4
   1   4   6 114314. 3978.74   4
  -1  -4  -6 116811. 4089.96   4
  -1  -4  -6 109770. 3837.18   3
  -1  -4  -7 599.211 312.492   4
  -1  -4  -7 225.744 164.780   3
   1   4   7 582.888 216.444   4
   1   4   8 77044.3 3281.66   2
  -1  -4  -8 70586.6 2750.68   3
  -1  -4  -8 78724.4 3355.42   4
  -1  -4  -9 63.0792 129.782   3
  -1  -4  -9 500.550 318.496   4
   1   4   9 515.120 281.908   2
  -1  -4 -10 31007.9 1534.23   3
  -1  -4 -10 33853.5 2237.01   4
   1   4  11 33598.9 2014.89   2
  -1  -4 -11 33993.7 2335.78   4
   1   4  12 52487.4 2693.59   2
  -1  -4 -12 46147.7 2996.96   4
   1   4  13 15563.2 1380.56   2
  -1  -4 -13 15616.8 1721.14   4
  -1  -4 -14 4990.66 1063.57   4
  -1  -4 -15 255.349 595.587   4
  -1  -4 -16 3114.11 956.075   4
   1   5 -14-324.823 660.342   5
   1   5 -13 5197.71 1023.56   1
   1   5 -12 2874.51 739.758   1
   1   5 -11 3528.81 768.977   1
  -1  -5  10 1246.89 406.551   3
   1   5 -10 1350.68 487.954   1
  -1  -5   9 54.7021 250.794   3
   1   5  -9 726.993 374.481   1
  -1  -5   8 8672.44 916.538   2
   1   5  -8 9171.66 1070.50   1
  -1  -5   8 8691.40 982.044   3
  -1  -5   7 5959.09 812.592   3
  -1  -5   7 5212.31 681.556   2
  -1  -5   6 65176.3 3047.43   3
  -1  -5   6 61096.0 2716.79   2
  -1  -5   6 64197.8 2744.94   4
   1   5  -5 2376.41 605.442   3
  -1  -5   5 2507.21 568.527   3
  -1  -5   5 2410.43 458.454   2
  -1  -5   4 162061. 5690.32   3
  -1  -5   4 160954. 5324.91   2
   1   5  -4 154145. 5833.48   3
  -1  -5   4 154730. 4906.02   4
  -1  -5   3 44816.8 2163.97   2
  -1  -5   3 42820.6 2320.30   3
  -1  -5   3 40194.4 1687.57   4
   1   5  -3 41446.5 2396.33   3
   1   5  -2 9504.36 987.107   2
  -1  -5   2 9050.69 902.771   2
  -1  -5   2 9263.39 981.477   3
  -1  -5   2 9135.64 592.375   4
   1   5  -1 121848. 3565.51   5
  -1  -5   1 127067. 4510.21   2
  -1  -5   1 130757. 4641.11   3
  -1  -5   1 123268. 3529.72   4
   1   5  -1 129965. 4723.28   2
  -1  -5   0 43184.2 2240.88   2
  -1  -5   0 46334.4 2308.95   3
  -1  -5   0 43693.5 1358.22   4
  -1  -5  -1 188933. 6200.10   3
  -1  -5  -1 190117. 5078.84   4
  -1  -5  -1 174998. 6256.34   2
  -1  -5  -2 2693.13 258.075   4
  -1  -5  -2 2480.22 540.740   2
  -1  -5  -2 2599.18 475.571   3
  -1  -5  -3 92302.9 2840.63   4
  -1  -5  -3 89201.4 3864.01   2
  -1  -5  -3 89807.0 2624.16   5
  -1  -5  -3 87818.3 3498.09   3
  -1  -5  -4 2342.60 478.197   3
  -1  -5  -4 2647.19 361.043   4
   1   5   4 2081.98 316.783   4
  -1  -5  -5 0.72792 156.472   4
   1   5   5 474.636 334.750   2
   1   5   5 415.427 200.398   4
  -1  -5  -5 275.220 225.036   3
   1   5   6 854.368 249.365   4
  -1  -5  -6 1012.92 333.181   4
   1   5   6 1640.39 463.486   2
  -1  -5  -6 1092.06 342.984   3
   1   5   7 27646.2 1591.36   4
   1   5   7 29943.0 1908.77   2
  -1  -5  -7 26413.2 1590.25   3
  -1  -5  -7 27955.8 1644.34   4
  -1  -5  -8 802.808 321.539   4
   1   5   8 483.494 327.516   2
  -1  -5  -8 259.434 203.012   3
  -1  -5  -9 451.142 213.795   3
  -1  -5  -9 1268.62 425.418   4
   1   5   9 1482.69 477.514   2
   1   5  10 40383.2 2341.00   2
  -1  -5 -10 37998.6 2328.19   4
  -1  -5 -10 35253.5 1872.63   3
  -1  -5 -11 6427.95 989.080   4
   1   5  11 6947.12 944.040   2
   1   5  12 26747.5 1932.13   2
  -1  -5 -12 25481.5 2128.38   4
  -1  -5 -13 5005.60 979.370   4
   1   5  13 5554.13 885.380   2
  -1  -5 -14 4341.24 972.930   4
  -1  -5 -15 27551.5 2513.50   4
  -1  -5 -15 27412.5 2723.55   5
  -1  -5 -16 15337.5 2100.77   5
   1   6 -14 5168.06 1274.18   5
   1   6 -13 22141.7 2186.65   1
   1   6 -12 468.839 435.058   1
   1   6 -11 71218.2 3901.48   1
   1   6 -10 18891.5 1794.12   1
  -1  -6  10 16464.0 1475.12   3
   1   6  -9 8078.57 1118.02   1
  -1  -6   9 8547.48 1050.55   3
  -1  -6   8 885.094 367.376   3
   1   6  -8 1879.52 541.350   1
  -1  -6   7 34501.8 2208.44   3
  -1  -6   6 34274.4 1851.70   4
  -1  -6   6 34387.4 2212.83   3
  -1  -6   5 465.616 313.888   3
  -1  -6   4 2446.70 382.697   4
  -1  -6   4 2277.06 517.457   2
  -1  -6   4 1505.23 453.500   3
  -1  -6   3 11757.0 1238.15   3
  -1  -6   3 12561.7 1139.07   2
  -1  -6   3 10833.8 750.738   4
   1   6  -2 10132.8 1126.85   2
  -1  -6   2 9194.79 1073.08   3
  -1  -6   2 10576.1 1056.07   2
   1   6  -2 10092.2 689.681   5
  -1  -6   2 10258.4 631.797   4
  -1  -6   1 80860.5 3457.31   2
   1   6  -1 76189.9 2323.79   5
  -1  -6   1 78616.3 2339.11   4
  -1  -6   1 79435.8 3607.46   3
   1   6  -1 83075.2 3721.92   2
  -1  -6   0 22909.3 1700.82   3
  -1  -6   0 25505.8 1755.26   2
   1   6   0 24048.1 1761.07   2
  -1  -6  -1 626.168 306.890   3
  -1  -6  -2 32762.3 1058.82   4
  -1  -6  -2 32689.5 2010.30   3
  -1  -6  -3 249602. 6730.60   4
  -1  -6  -3 244979. 7983.12   3
  -1  -6  -4 4705.13 385.341   5
  -1  -6  -4 5056.43 738.631   3
   1   6   4 5340.04 812.581   2
  -1  -6  -4 4853.67 451.781   4
   1   6   5 37641.0 1662.18   4
  -1  -6  -5 39418.9 1638.77   5
  -1  -6  -5 34510.4 2091.23   3
  -1  -6  -5 38505.7 1662.59   4
   1   6   5 41651.5 2376.52   2
  -1  -6  -6 3587.78 479.691   4
  -1  -6  -6 2207.72 510.102   3
   1   6   6 3381.35 658.365   2
  -1  -6  -6 4435.91 547.528   5
   1   6   6 3308.74 462.842   4
   1   6   7 76371.0 3080.73   4
  -1  -6  -7 79007.4 3132.33   4
  -1  -6  -7 87211.4 3315.87   5
   1   6   7 90194.6 3817.42   2
  -1  -6  -7 76763.2 3410.85   3
  -1  -6  -8 2358.30 504.224   3
  -1  -6  -8 2325.35 486.613   4
   1   6   8 3039.53 644.478   2
  -1  -6  -9 6245.38 831.802   3
   1   6   9 8052.15 1034.49   2
  -1  -6  -9 7239.89 902.017   4
   1   6  10 52086.7 2812.42   2
  -1  -6 -10 48827.1 2623.79   4
  -1  -6 -11 1463.14 512.921   4
   1   6  11 1147.39 410.922   2
  -1  -6 -11 954.091 505.208   5
  -1  -6 -12 5295.48 934.968   4
  -1  -6 -12 4551.14 962.470   5
   1   6  12 4587.99 814.026   2
  -1  -6 -13 858.519 426.143   4
   1   6  13 340.498 364.688   2
  -1  -6 -13 823.737 557.095   5
  -1  -6 -14 1199.01 614.413   4
  -1  -6 -14 955.385 549.341   5
  -1  -6 -15 1229.64 814.749   4
  -1  -6 -15 582.770 588.805   5
   1   7 -14 1697.58 955.577   1
   1   7 -13-1969.95 785.873   1
   1   7 -13 356.119 572.016   5
   1   7 -12 323.240 557.807   1
   1   7 -11 47390.4 3246.59   1
   1   7 -10-319.166 463.850   1
  -1  -7  10 250.877 288.016   3
  -1  -7   9 7010.61 1032.72   3
   1   7  -9 5876.91 1070.53   1
  -1  -7   8 24724.6 1941.30   3
  -1  -7   7 101857. 4512.11   3
  -1  -7   6 7116.19 798.322   4
  -1  -7   6 6383.31 988.051   3
  -1  -7   5 35041.0 2350.33   3
  -1  -7   4 113303. 3766.75   4
  -1  -7   4 118983. 4912.11   3
  -1  -7   3 8678.86 634.003   4
   1   7  -3 8448.08 1116.06   2
  -1  -7   3 8633.54 1150.50   3
  -1  -7   2 12329.4 661.091   4
  -1  -7   2 13899.9 1414.63   3
   1   7  -2 13320.5 769.591   5
   1   7  -2 12114.5 1353.81   2
   1   7  -1 898.133 402.676   2
  -1  -7   1 1034.58 446.133   3
  -1  -7   1 990.472 114.618   4
  -1  -7   0 139991. 5425.60   3
   1   7   0 126998. 5191.43   2
  -1  -7  -1 2055.17 589.740   3
   1   7   1 1559.24 486.737   2
  -1  -7  -2 3812.69 744.676   3
   1   7   2 5081.62 836.952   2
  -1  -7  -3 10518.1 1187.82   3
  -1  -7  -3 12301.9 510.601   4
  -1  -7  -4 6621.10 373.152   5
   1   7   4 7771.40 1020.46   2
  -1  -7  -4 5618.88 324.882   5
  -1  -7  -4 6469.17 927.783   3
  -1  -7  -4 6482.37 462.428   4
   1   7   5 21195.9 1139.54   4
  -1  -7  -5 21555.2 1008.65   5
   1   7   5 21148.3 1711.26   2
  -1  -7  -5 20415.7 1679.85   3
  -1  -7  -5 21735.3 1086.92   4
   1   7   6 4733.24 541.566   4
  -1  -7  -6 6120.43 907.902   3
  -1  -7  -6 7736.62 654.427   5
   1   7   6 7571.69 1019.70   2
  -1  -7  -6 6706.17 634.692   4
  -1  -7  -7 3224.84 683.531   3
  -1  -7  -7 3863.67 537.180   4
   1   7   7 2253.16 426.713   4
   1   7   7 2852.66 682.537   2
  -1  -7  -7 3568.48 525.334   5
  -1  -7  -8 9111.38 1086.26   3
   1   7   8 10397.2 1212.76   2
  -1  -7  -8 10640.4 1020.09   5
  -1  -7  -8 8312.74 872.420   4
  -1  -7  -9 94822.3 4190.90   3
   1   7   9 101844. 4500.21   2
  -1  -7  -9 100490. 4004.46   4
  -1  -7 -10 949.605 359.074   3
  -1  -7 -10 407.999 314.169   4
   1   7  10 1514.73 496.414   2
  -1  -7 -10 924.145 440.360   5
  -1  -7 -11 24924.1 2026.86   5
   1   7  11 20414.2 1812.88   2
  -1  -7 -11 24004.1 1821.08   4
  -1  -7 -12-530.148 463.017   4
   1   7  12 23.8341 329.363   2
  -1  -7 -13 29884.9 2539.64   5
   1   7  13 24848.3 2069.35   2
  -1  -7 -13 24559.5 2064.33   4
  -1  -7 -14 8137.56 1245.25   4
  -1  -7 -14 8232.93 1418.95   5
  -1  -7 -15 20236.3 2150.49   4
   1   8 -13 8106.81 1559.42   5
   1   8 -12 14771.5 1916.47   1
   1   8 -12 12280.2 1808.58   5
   1   8 -11 4078.93 961.946   1
   1   8 -10 13025.6 1671.73   1
  -1  -8  10 10956.2 1374.81   3
   1   8  -9 7765.49 1247.99   1
  -1  -8   9 7298.28 1108.46   3
  -1  -8   8 3368.88 798.847   3
  -1  -8   7 237.493 399.427   3
  -1  -8   6 4808.83 930.790   3
  -1  -8   5 4771.19 902.294   3
  -1  -8   4 809.308 467.983   3
  -1  -8   4 468.382 186.463   4
   1   8  -3 42341.8 2764.62   2
  -1  -8   3 39788.7 1505.46   4
   1   8  -3 40494.6 1703.29   5
  -1  -8   3 40573.4 2644.51   3
  -1  -8   2 1845.26 615.146   3
  -1  -8   2 1499.95 180.413   4
   1   8  -2 1326.78 233.102   5
   1   8  -2 1631.80 230.422   5
   1   8  -2 2549.33 669.368   2
  -1  -8   1 108000. 4775.69   3
   1   8  -1 98273.9 4549.95   2
  -1  -8   0 30767.0 2304.06   3
   1   8   0 28841.1 2129.00   2
   1   8   1 23706.4 1862.13   2
  -1  -8  -1 20391.0 1849.33   3
  -1  -8  -2 19426.8 1789.03   3
   1   8   2 21456.3 1773.61   2
   1   8   3 14413.1 1451.35   2
  -1  -8  -3 12697.3 1444.06   3
  -1  -8  -4 123274. 5343.49   3
   1   8   4 133250. 5296.88   2
  -1  -8  -5 10693.6 1284.67   3
  -1  -8  -5 9445.54 480.253   5
   1   8   5 10298.2 1232.21   2
  -1  -8  -5 9714.81 615.078   4
  -1  -8  -6 17815.3 963.349   5
   1   8   6 19780.6 1702.34   2
  -1  -8  -6 17974.1 1673.67   3
  -1  -8  -6 18089.8 1016.48   4
  -1  -8  -7 533.615 392.892   3
  -1  -8  -7 820.845 258.665   4
  -1  -8  -7 757.004 232.911   5
   1   8   7 494.943 354.936   2
  -1  -8  -8 3653.41 763.792   3
  -1  -8  -8 3215.38 516.970   4
   1   8   8 2802.66 739.834   2
  -1  -8  -8 3950.35 574.839   5
  -1  -8  -9 2456.05 617.914   3
  -1  -8  -9 3138.75 572.950   4
   1   8   9 2384.86 690.285   2
  -1  -8  -9 2354.70 497.159   5
  -1  -8 -10 2476.31 595.095   3
  -1  -8 -10 4582.48 721.179   4
   1   8  10 3558.16 767.974   2
  -1  -8 -10 2975.48 582.975   5
  -1  -8 -11 210.752 321.301   4
   1   8  11 521.336 469.742   2
  -1  -8 -12 1981.83 631.409   4
   1   8  12 3048.10 843.262   2
   1   8  13 24406.4 2098.12   2
   1   9 -12 6563.61 1360.68   5
   1   9 -11 5279.60 1245.84   1
   1   9 -11 5737.70 1135.22   5
   1   9 -10 31125.9 2745.81   1
   1   9 -10 27448.1 2369.78   5
  -1  -9  10 27794.9 2357.55   3
  -1  -9   9 456.409 452.770   3
   1   9  -9 43.3058 456.989   1
  -1  -9   8 51935.4 3290.92   3
  -1  -9   7 13667.3 1619.59   3
  -1  -9   6 18376.9 1851.28   3
  -1  -9   5 531.943 541.535   3
   1   9  -5 156.096 209.193   5
  -1  -9   4 32642.9 2475.16   3
   1   9  -4 31723.7 1610.21   5
   1   9  -3 8376.01 1284.28   2
   1   9  -3 9880.37 688.354   5
  -1  -9   3 11119.8 1408.37   3
  -1  -9   2 1194.59 566.707   3
   1   9  -2 842.889 483.163   2
  -1  -9   1 944.030 569.369   3
   1   9  -1-230.026 315.073   2
  -1  -9   0 31318.5 2425.79   3
   1   9   0 31758.7 2313.89   2
  -1  -9  -1 12023.6 1477.76   3
   1   9   1 12396.1 1398.80   2
  -1  -9  -2 23788.6 2110.84   3
   1   9   2 27423.2 2091.95   2
   1   9   3 3890.09 812.709   2
  -1  -9  -3 2380.14 689.635   3
  -1  -9  -4 16812.8 1754.18   3
   1   9   4 17611.9 1675.27   2
  -1  -9  -5 35982.9 2598.13   3
   1   9   5 40446.8 2597.02   2
  -1  -9  -6 61822.8 3512.10   3
   1   9   6 64638.8 3463.19   2
   1   9   7 14444.0 1519.49   2
  -1  -9  -7 11957.4 1418.19   3
   1   9   8 57230.6 3228.12   2
  -1  -9  -8 48054.3 3011.72   3
   1   9   9 4193.16 878.767   2
  -1  -9  -9 3988.89 826.193   3
   1   9  10 33517.6 2487.64   2
   1   9  11 17720.2 1791.32   2
   1   9  12 15385.1 1710.27   2
   1   9  13 2841.40 752.598   2
   1  10 -10 9914.67 1625.75   1
  -1 -10  10 11778.8 1619.72   3
  -1 -10   9 7386.33 1254.78   3
   1  10  -9 7049.80 1358.17   1
  -1 -10   8 11254.8 1518.56   3
  -1 -10   7 5824.10 1140.71   3
  -1 -10   6 37344.3 2834.41   3
  -1 -10   5 591.629 471.783   3
  -1 -10   4 20683.7 2066.70   3
  -1 -10   3 34523.6 2691.65   3
   1  10  -3 34301.3 2653.41   2
  -1 -10   2 88263.5 4592.44   3
   1  10  -2 84820.9 4384.93   2
  -1 -10   1 29758.2 2474.97   3
   1  10  -1 30649.4 2397.32   2
  -1 -10   0 752.393 532.955   3
   1  10   0 455.791 403.225   2
   1  10   1 44945.7 2851.98   2
  -1 -10  -1 39702.7 2914.43   3
   1  10   2 6002.03 993.652   2
  -1 -10  -2 5650.35 1099.70   3
  -1 -10  -3 27675.6 2369.26   3
   1  10   3 29576.3 2241.43   2
  -1 -10  -4 7364.43 1199.14   3
   1  10   4 6605.68 1051.92   2
  -1 -10  -5 9609.14 1383.34   3
   1  10   5 12079.3 1432.14   2
  -1 -10  -6 764.622 502.668   3
   1  10   6 2305.17 672.893   2
  -1 -10  -7 8138.03 1239.52   3
   1  10   7 8695.78 1229.94   2
  -1 -10  -8 1818.22 677.034   3
   1  10   8 486.168 399.874   2
  -1 -10  -9-380.892 453.953   3
   1  10   9-327.906 459.667   2
   1  10  10 4736.36 938.634   2
   1  10  11 12244.6 1511.97   2
   1  10  12 22161.8 2110.13   2
  -1 -11  10 3883.96 1095.22   3
  -1 -11   9 11570.5 1704.28   3
  -1 -11   8 2880.33 932.410   3
  -1 -11   7 17896.0 2049.77   3
  -1 -11   6 3948.84 1009.13   3
  -1 -11   5 3155.65 876.137   3
  -1 -11   4 27.1986 467.142   3
   1  11  -3 1047.75 586.166   2
  -1 -11   3 778.923 515.340   3
  -1 -11   2 2511.36 826.873   3
   1  11  -2 1687.27 628.735   2
  -1 -11   1 3607.15 985.521   3
   1  11  -1 1688.13 632.152   2
  -1 -11   0 11297.4 1585.91   3
   1  11   0 13726.9 1582.53   2
  -1 -11  -1 4155.82 985.732   3
   1  11   1 2965.92 780.550   2
  -1 -11  -2 71736.8 4269.87   3
   1  11   2 81282.4 4126.85   2
  -1 -11  -3 9371.79 1442.01   3
   1  11   3 8811.53 1258.30   2
   1  11   4 10736.2 1401.69   2
  -1 -11  -4 11286.3 1582.30   3
  -1 -11  -5 14115.6 1712.34   3
   1  11   5 15700.3 1688.58   2
  -1 -11  -6 14290.1 1723.58   3
   1  11   6 15189.9 1677.59   2
  -1 -11  -7 30842.8 2552.39   3
   1  11   7 31337.2 2445.36   2
  -1 -11  -8 1822.59 663.206   3
   1  11   8 1846.06 673.668   2
   1  11   9 20231.5 1968.16   2
   1  11  10 5550.03 1061.12   2
  -1 -12   7 17293.7 2079.47   3
  -1 -12   6 586.098 524.177   3
  -1 -12   5 33571.0 2887.73   3
  -1 -12   4 5940.01 1265.34   3
   1  12  -3 8786.60 1434.49   2
  -1 -12   3 11102.7 1680.22   3
  -1 -12   2 1240.44 659.876   3
   1  12  -2 2241.76 776.744   2
  -1 -12   1 27228.8 2600.45   3
   1  12  -1 28634.8 2436.62   2
  -1 -12   0 13503.6 1820.26   3
   1  12   0 17442.6 1849.59   2
  -1 -12  -1 516.464 611.129   3
   1  12   1 534.191 458.491   2
  -1 -12  -2 3828.89 1019.34   3
   1  12   2 5670.60 1050.58   2
  -1 -12  -3 3198.59 964.264   3
   1  12   3 4160.73 922.814   2
   1  12   4-507.947 526.896   2
  -1 -12  -4-649.055 685.894   3
   1  12   5 19657.4 1922.50   2
  -1 -12  -5 16590.4 1999.82   3
  -1 -12  -6 11579.0 1611.73   3
   1  12   6 13882.3 1629.04   2
  -1 -12  -7 3791.65 967.548   3
   1  12   7 4074.00 944.833   2
  -1 -12  -8 8393.64 1360.38   3
   1  12   8 7254.63 1219.51   2
  -1 -13   3 9185.05 1535.24   3
   1  13  -2 3725.86 958.241   2
  -1 -13   2 4905.59 1182.91   3
   1  13  -1 48869.9 3312.39   2
  -1 -13   1 44230.3 3490.38   3
  -1 -13   0 3168.59 965.011   3
   1  13   0 3203.81 841.183   2
  -1 -13  -1 23370.7 2489.94   3
   1  13   1 25603.9 2304.03   2
  -1 -13  -2 31718.8 2902.53   3
   1  13   2 36336.9 2742.96   2
  -1 -13  -3 9615.17 1587.58   3
   1  13   3 7444.66 1236.11   2
  -1 -13  -4 780.807 615.125   3
   1  13   4 3929.39 935.895   2
  -1 -13  -5 1135.25 633.621   3
  -1 -13  -6 35186.8 2992.82   3
  -1 -13  -7 335.124 446.502   3
  -2  14  -2 896.836 515.532   2
  -2  13   2 19464.4 1986.43   2
  -2  13   1-420.901 427.065   2
  -2  13   0 10946.8 1436.14   2
  -2  13  -1 1225.98 543.834   2
  -2  13  -2 4134.54 864.641   2
  -2  13  -3 191.709 353.720   2
  -2  13  -4 319.213 453.691   1
  -2  13  -4 130.872 433.407   2
  -2  13  -5 3972.63 974.575   1
  -2  12   5 872.238 553.125   2
  -2  12   4 7636.45 1271.22   2
  -2  12   3 23270.5 2152.23   2
  -2  12   2 26168.8 2266.98   2
  -2  12   1 269.254 334.851   2
  -2  12   0 17177.6 1757.11   2
  -2  12  -1 2366.84 706.472   2
  -2  12  -2 40794.7 2700.29   2
  -2  12  -3 5946.40 1025.18   2
  -2  12  -4 31453.2 2454.45   1
  -2  12  -4 20877.8 1846.97   2
  -2  12  -5 4249.00 943.007   1
  -2  12  -5 5061.83 886.454   2
  -2  12  -6 2033.95 735.330   1
  -2  12  -7 807.863 592.010   1
  -2  11   7 6415.63 1183.72   2
  -2  11   6 2998.14 824.899   2
  -2  11   5 25203.0 2275.74   2
  -2  11   4 860.567 504.394   2
  -2  11   3 2449.00 740.941   2
  -2  11   2 6475.01 1095.76   2
  -2  11   1 2802.11 723.915   2
  -2  11   0 2368.20 637.118   2
  -2  11  -1 4635.96 865.172   2
  -2  11  -2 322.636 377.296   2
  -2  11  -3 11738.2 1342.21   2
  -2  11  -4 26706.4 2209.18   1
  -2  11  -4 30092.2 2135.95   2
  -2  11  -5 6893.08 1126.71   1
  -2  11  -5 6890.14 1003.78   2
  -2  11  -6 9061.57 1373.22   1
  -2  11  -6 9860.78 1209.67   2
  -2  11  -7 663.952 568.622   1
  -2  11  -8 49930.2 3443.78   1
  -2  11  -9 572.752 593.476   1
  -2  10   9 3417.99 981.821   2
  -2  10   8 397.785 527.118   2
  -2  10   7 321.458 491.930   2
  -2  10   6 39579.2 2842.95   2
  -2  10   5 8503.47 1254.00   2
   2 -10  -5 6337.51 879.059   5
  -2  10   4 13642.2 1546.66   2
   2 -10  -4 12096.0 1232.18   5
   2 -10  -3 9574.69 1105.66   5
  -2  10   3 10245.3 1320.60   2
   2 -10  -2 58503.4 2932.88   5
  -2  10   2 58590.5 3312.10   2
  -2  10   1 28712.9 2150.27   2
   2 -10  -1 25213.6 1763.36   5
  -2  10   0 2549.45 668.529   2
  -2  10  -1 31895.8 2274.12   2
  -2  10  -2 4481.32 824.397   2
  -2  10  -3 17909.3 1580.04   2
  -2  10  -4 4294.26 832.731   1
  -2  10  -4 3657.03 695.234   2
  -2  10  -5 11458.5 1388.21   1
  -2  10  -5 11420.0 1219.94   2
  -2  10  -6 462.806 404.599   1
  -2  10  -6 643.936 338.915   2
  -2  10  -7 336.808 435.316   1
  -2  10  -7 645.522 406.570   2
  -2  10  -8 5538.53 1075.38   1
  -2  10  -9 1366.60 638.128   1
  -2  10 -10 7862.83 1378.71   1
  -2   9  11 10838.4 1554.54   2
  -2   9  10 1492.93 670.122   2
   2  -9 -10-124.578 617.945   5
   2  -9  -9 35228.8 2598.70   5
  -2   9   9 34204.7 2665.21   2
   2  -9  -8 14714.0 1553.93   5
  -2   9   8 14070.1 1633.43   2
  -2   9   7 6073.32 1090.14   2
   2  -9  -7 6953.86 1034.77   5
  -2   9   6 4573.45 907.917   2
   2  -9  -6 3049.37 658.773   5
  -2   9   5 2564.97 754.159   2
   2  -9  -5 2219.83 577.814   5
  -2   9   4 1500.89 521.943   2
   2  -9  -4 492.102 326.253   5
  -2   9   3 7730.78 1104.18   2
   2  -9  -3 5966.38 881.781   5
  -2   9   2 394.800 354.526   2
   2  -9  -2-431.762 356.317   5
  -2   9   1 5272.02 875.118   2
   2  -9  -1 5298.72 803.358   5
  -2   9   1 5239.96 471.142   4
  -2   9   0 32850.2 1355.26   4
  -2   9   0 33859.4 2252.83   2
   2  -9   0 35218.5 2106.61   5
  -2   9  -1 77120.0 2534.41   4
  -2   9  -1 82568.7 3755.85   2
  -2   9  -2 629.215 155.803   4
  -2   9  -2 1174.18 447.970   2
  -2   9  -3 8193.01 630.484   4
  -2   9  -3 8926.72 1075.56   2
  -2   9  -4 6749.17 987.628   1
  -2   9  -4 6069.07 849.389   2
  -2   9  -4 5002.35 529.413   4
  -2   9  -5 88378.2 3210.18   4
  -2   9  -5 88109.7 4172.15   1
  -2   9  -5 96424.7 3944.89   2
  -2   9  -6 5419.62 981.803   1
  -2   9  -6 4791.65 615.897   4
  -2   9  -6 4935.08 781.197   2
  -2   9  -7 36464.9 2620.09   1
  -2   9  -7 39495.3 2527.25   2
  -2   9  -7 37412.6 1943.22   4
  -2   9  -8 8173.34 1237.23   1
  -2   9  -8 8195.63 888.474   4
  -2   9  -9 5683.24 804.693   4
  -2   9  -9 5858.03 1131.89   1
  -2   9 -10 417.472 306.479   4
  -2   9 -10 665.108 598.260   1
  -2   9 -11 2390.93 603.831   4
  -2   9 -11 2903.68 911.850   1
  -2   9 -12 12957.4 1399.17   4
  -2   8  12 3439.59 888.805   2
   2  -8 -12 3008.50 974.994   5
   2  -8 -11 22992.0 2342.44   5
   2  -8 -10 717.165 593.815   5
   2  -8  -9 23249.9 2103.85   5
   2  -8  -8 6021.07 1066.31   5
   2  -8  -7 52235.4 3036.81   5
   2  -8  -6 24145.1 1893.77   5
   2  -8  -5 9931.33 1148.13   5
   2  -8  -4 40500.6 2357.69   5
  -2   8   4 39611.6 1727.62   4
   2  -8  -3 74767.3 3394.62   5
  -2   8   3 65350.0 2396.62   4
   2  -8  -2 23100.2 1788.96   5
  -2   8   2 25051.5 1814.31   2
  -2   8   2 28083.0 1732.63   5
  -2   8   2 24044.2 1147.33   4
   2  -8  -1 8068.86 1021.78   5
  -2   8   1 7376.69 843.468   5
  -2   8   1 9157.19 1048.98   2
  -2   8   0 33262.5 1511.27   4
   2  -8   0 33182.6 2100.47   5
  -2   8   0 39878.9 2083.03   5
  -2   8   0 34860.6 2167.13   2
  -2   8  -1 26.6033 124.362   4
  -2   8  -1-14.8675 288.841   2
  -2   8  -2 566.409 330.766   2
  -2   8  -2 299.870 169.014   4
  -2   8  -2 706.899 296.582   5
  -2   8  -3 3098.13 605.937   2
  -2   8  -3 2040.68 348.321   4
  -2   8  -4 1821.07 529.865   1
  -2   8  -4 2628.90 556.436   2
  -2   8  -4 2562.65 412.747   4
  -2   8  -5 6032.59 655.091   4
  -2   8  -5 4877.39 824.328   1
  -2   8  -5 5099.63 759.305   2
  -2   8  -6 60352.0 2865.42   2
  -2   8  -6 52164.2 3038.40   1
  -2   8  -6 58121.9 2517.65   4
  -2   8  -7 5598.25 836.652   2
  -2   8  -7 5938.91 971.668   1
  -2   8  -7 6110.83 769.407   4
  -2   8  -8-70.5303 358.436   1
  -2   8  -8 96.5211 255.618   4
  -2   8  -9 31897.0 2481.18   1
  -2   8  -9 31990.5 2007.29   4
  -2   8 -10 10586.7 1470.38   1
  -2   8 -10 9529.03 1105.98   4
  -2   8 -11 30702.9 2640.32   1
  -2   8 -11 32841.4 2213.84   4
  -2   8 -12 2054.24 605.363   4
  -2   8 -12 2350.38 752.034   1
  -2   8 -13 35005.1 2514.74   4
  -2   8 -14-1415.53 661.582   4
   2  -7 -13 3650.33 1115.03   5
   2  -7 -12 18355.5 2200.28   5
   2  -7 -11 29392.3 2658.00   5
   2  -7 -10 6850.55 1245.38   5
   2  -7  -9-123.198 355.853   5
   2  -7  -8-851.082 452.868   5
   2  -7  -7 2415.06 638.356   5
   2  -7  -6-17.6951 331.402   5
   2  -7  -5 11328.5 1197.95   5
  -2   7   5 13891.8 1156.70   3
  -2   7   5 11104.0 884.794   4
   2  -7  -4 21150.7 1634.18   5
  -2   7   4 20490.0 1179.31   4
  -2   7   3 14760.7 1232.84   5
   2  -7  -3 12220.3 1183.90   5
  -2   7   2 24039.6 1553.81   5
   2  -7  -2 19258.6 1550.59   5
   2  -7  -1 62558.7 3219.23   5
  -2   7   1 67693.3 2969.40   5
   2  -7   0 7064.15 955.369   5
  -2   7   0 5767.18 740.566   5
  -2   7  -1 75362.2 2746.52   4
   2  -7   1 72234.2 3401.02   5
  -2   7  -1 78156.2 3311.03   2
  -2   7  -1 79083.6 3300.27   5
  -2   7  -2 48483.5 2028.89   4
  -2   7  -2 53209.5 2629.84   5
  -2   7  -2 51320.0 2526.88   2
  -2   7  -3 13920.5 1204.98   2
  -2   7  -3 14088.8 955.019   4
  -2   7  -3 15924.7 1393.63   5
  -2   7  -4 38119.6 1800.30   4
  -2   7  -4 39598.1 2247.33   1
  -2   7  -4 38656.1 2083.75   2
  -2   7  -5 254.647 300.438   1
  -2   7  -5 412.407 273.012   2
  -2   7  -5 495.453 218.587   4
  -2   7  -6 22067.9 1440.35   4
  -2   7  -6 24676.6 1616.40   2
  -2   7  -6 22792.6 1793.40   1
  -2   7  -7 3715.70 745.100   1
  -2   7  -7 3137.83 565.478   4
  -2   7  -7 3670.61 589.026   2
  -2   7  -8 8077.52 1129.87   1
  -2   7  -8 9140.91 1006.16   4
  -2   7  -9-81.3610 330.040   4
  -2   7  -9 734.458 449.301   1
  -2   7 -10 1316.11 486.368   4
  -2   7 -10 1557.70 611.669   1
  -2   7 -11 4772.48 874.967   4
  -2   7 -11 5146.51 1033.34   1
  -2   7 -12 1745.63 592.021   4
  -2   7 -13 9998.73 1370.64   4
  -2   7 -14-1110.31 567.830   4
   2  -6 -13 6323.31 1337.00   5
   2  -6 -12 15299.4 2029.78   5
   2  -6 -11 6320.21 1247.39   5
   2  -6 -10 43789.8 3172.00   5
   2  -6  -9 541.808 476.947   5
   2  -6  -8 6724.52 1081.06   5
   2  -6  -7 160.946 326.178   5
   2  -6  -6 94987.3 4259.61   5
   2  -6  -5 25617.3 1878.18   5
  -2   6   5 24536.0 1396.95   4
  -2   6   4 412.505 186.650   4
   2  -6  -4 101.718 239.047   5
   2  -6  -3 6599.82 864.430   5
  -2   6   3 6778.83 845.116   5
  -2   6   3 7657.21 810.725   3
  -2   6   3 6764.92 613.358   4
  -2   6   2 22235.7 1437.76   3
   2  -6  -2 19493.9 1505.11   5
  -2   6   2 20023.1 1450.28   5
   2  -6  -1 2137.83 527.234   5
  -2   6   1 2677.46 514.612   5
   2  -6   0 405.044 334.819   5
  -2   6   0 1092.38 341.858   5
  -2   6  -1 274.065 209.901   4
   2  -6   1 629.120 363.155   5
  -2   6  -1 453.066 280.386   5
  -2   6  -2 15217.4 1019.57   4
   2  -6   2 15590.2 1399.00   5
  -2   6  -2 15523.2 1154.73   2
  -2   6  -2 17135.4 1392.10   5
  -2   6  -3 75986.9 2895.13   4
  -2   6  -3 80557.2 3252.31   1
  -2   6  -3 77794.5 3140.08   2
  -2   6  -3 81873.5 3700.55   5
  -2   6  -4 128266. 4301.91   4
  -2   6  -4 131547. 4751.89   1
  -2   6  -4 125130. 4457.28   2
  -2   6  -5 9709.22 893.971   4
  -2   6  -5 10058.9 1070.16   1
  -2   6  -5 10661.8 931.642   2
  -2   6  -6 26756.1 1639.82   4
  -2   6  -6 29428.9 1953.12   1
  -2   6  -6 29017.6 1674.91   2
  -2   6  -7 20952.7 1476.93   4
  -2   6  -7 19082.4 1611.82   1
  -2   6  -7 17411.5 1152.21   2
  -2   6  -8 97028.5 4356.04   1
  -2   6  -8 98397.2 4041.38   4
  -2   6  -9 6844.98 1068.00   1
  -2   6  -9 8644.26 1045.35   4
  -2   6 -10 54973.6 3252.04   1
  -2   6 -10 56436.5 3068.15   4
  -2   6 -11 5570.09 962.496   4
  -2   6 -12 14880.8 1617.08   4
  -2   6 -13 737.309 513.512   4
  -2   6 -14 5110.51 1066.15   4
   2  -5 -14 6790.05 1493.48   5
   2  -5 -13-162.435 505.388   5
   2  -5 -12 194.224 458.381   5
   2  -5 -11 402.900 416.406   5
   2  -5 -10 14287.5 1739.95   5
   2  -5  -9-791.370 499.538   5
   2  -5  -8 18472.8 1796.94   5
  -2   5   8 17971.4 964.548   1
  -2   5   7 375.177 166.208   3
   2  -5  -7 435.727 396.120   5
   2  -5  -6 108221. 4700.63   5
  -2   5   6 114287. 3788.35   3
  -2   5   5 1669.43 343.879   3
  -2   5   5 1232.83 338.042   4
   2  -5  -5 1148.45 437.108   5
   2  -5  -4 65449.3 3138.95   5
  -2   5   4 73027.1 3211.90   5
  -2   5   4 70071.1 2657.57   3
  -2   5   4 63566.7 2583.32   4
   2  -5  -3 95418.8 3981.57   5
  -2   5   3 97559.9 3366.97   4
  -2   5   2 70444.9 3045.15   5
   2  -5  -2 67162.0 3072.59   5
  -2   5   1 39712.8 2094.43   5
   2  -5  -1 35784.1 2114.18   5
  -2   5   0 45698.8 2285.17   5
  -2   5   0 47782.4 2183.29   3
  -2   5  -1 132975. 4845.48   5
   2  -5   1 134847. 5266.92   5
  -2   5  -2 10182.5 865.025   1
  -2   5  -2 9647.36 836.865   4
   2  -5   2 8303.96 1027.72   5
  -2   5  -2 9725.60 1047.85   5
  -2   5  -3 2966.24 473.926   4
  -2   5  -3 3751.71 706.151   5
  -2   5  -3 3667.83 547.274   1
  -2   5  -3 3975.15 512.467   2
  -2   5  -4 22862.8 1392.50   4
  -2   5  -4 24535.5 1371.03   2
  -2   5  -4 24428.7 2026.77   5
  -2   5  -4 23227.5 1504.04   1
  -2   5  -5 81187.9 3187.09   4
  -2   5  -5 79132.8 3341.88   1
  -2   5  -5 81203.1 2995.89   2
  -2   5  -6 4903.42 688.243   4
   2  -5   6 5195.48 825.406   4
  -2   5  -6 4382.87 700.209   1
  -2   5  -6 4002.22 534.831   2
  -2   5  -7 9278.15 979.750   4
  -2   5  -7 7626.55 965.025   1
  -2   5  -7 7668.59 568.221   2
  -2   5  -8 2908.88 632.626   4
  -2   5  -8 3304.79 672.583   1
  -2   5  -9 6772.00 1000.55   1
  -2   5  -9 7980.51 1029.36   4
  -2   5 -10 30298.6 2196.38   4
  -2   5 -11 17207.0 1711.28   4
  -2   5 -12 2994.98 800.626   4
  -2   5 -13-417.975 497.196   4
  -2   5 -14 50261.7 3428.98   4
  -2   5 -15-65.4462 652.387   4
   2  -4 -14-2180.84 969.643   5
   2  -4 -13 66347.6 4613.90   5
   2  -4 -12 5103.15 1174.45   5
   2  -4 -11 31108.9 2783.42   5
   2  -4 -10 482.322 377.388   5
   2  -4  -9 53875.3 3382.27   5
  -2   4   8 6534.72 500.994   1
   2  -4  -8 6875.45 1102.09   5
  -2   4   7 619.245 164.805   3
  -2   4   7 816.110 167.962   1
   2  -4  -7 803.133 398.331   5
   2  -4  -6 15215.6 1467.10   5
  -2   4   6 13908.8 694.624   1
  -2   4   6 17246.8 931.422   3
   2  -4  -5 16770.4 1466.71   5
  -2   4   5 17117.9 962.844   3
  -2   4   5 15551.6 1128.29   4
  -2   4   4 215.316 168.890   3
  -2   4   4 127.702 143.013   4
   2  -4  -4 183.811 257.236   5
  -2   4   4 252.166 274.146   5
   2  -4  -3 30984.0 1931.95   5
  -2   4   3 34216.8 1978.63   5
  -2   4   3 35079.0 1579.34   3
  -2   4   2 4585.13 658.965   5
  -2   4   2 3785.62 495.733   3
   2  -4  -2 4108.88 665.474   5
  -2   4   1 1930.00 374.721   3
   2  -4  -1 1241.24 371.497   5
  -2   4   1 1590.84 400.005   5
  -2   4   0 51277.2 1914.72   1
   2  -4   0 48607.3 2588.82   5
  -2   4   0 56405.0 2554.36   5
  -2   4  -1 3497.77 424.361   1
   2  -4   1 3598.80 693.759   5
  -2   4  -1 3762.73 603.501   5
   2  -4   2 42773.5 2506.07   5
  -2   4  -2 43147.9 2084.64   4
  -2   4  -2 42552.3 1857.61   1
  -2   4  -2 45318.6 2486.98   5
  -2   4  -3 25953.2 1521.21   4
  -2   4  -3 29484.9 2109.87   5
  -2   4  -3 27014.6 1465.96   1
  -2   4  -4 180718. 5869.89   4
  -2   4  -4 180403. 6793.89   5
  -2   4  -4 185039. 5844.34   1
  -2   4  -4 184559. 5417.89   2
  -2   4  -5 45216.8 2234.45   4
  -2   4  -5 48010.4 1873.24   2
  -2   4  -5 43689.4 2738.07   5
  -2   4  -5 45446.0 2215.49   1
  -2   4  -6 18526.4 1358.34   4
   2  -4   6 18281.6 1532.28   4
  -2   4  -6 14978.8 864.809   2
  -2   4  -6 16341.6 1278.81   1
  -2   4  -7 30173.7 1877.19   4
  -2   4  -7 24565.7 1700.38   1
  -2   4  -8 4594.20 733.096   1
  -2   4  -8 4597.26 759.384   4
  -2   4  -9 39666.9 2474.34   4
  -2   4 -10 621.387 379.650   4
  -2   4 -11 10633.0 1347.16   4
  -2   4 -12-213.996 508.321   4
  -2   4 -13 2258.64 709.119   4
  -2   4 -14 13273.9 1818.20   4
  -2   4 -15 786.368 688.503   4
   2  -3 -14 3664.02 1168.07   5
   2  -3 -13 7296.60 1509.90   5
   2  -3 -12-948.561 644.720   5
   2  -3 -11 781.122 486.842   5
   2  -3 -10 10736.2 1558.12   5
   2  -3  -9 74645.1 4162.33   5
   2  -3  -8 10604.6 1351.83   5
   2  -3  -7 33748.9 2402.69   5
  -2   3   7 39125.7 1347.38   3
  -2   3   6 408.410 159.989   3
   2  -3  -6 25.2220 245.659   5
   2  -3  -5 36516.7 2283.68   5
  -2   3   5 40358.6 1526.87   3
  -2   3   5 40296.8 1953.71   4
   2  -3  -4 7756.75 942.177   5
  -2   3   4 9780.03 1021.50   5
  -2   3   4 9665.96 655.795   3
  -2   3   4 8344.42 772.609   4
   2  -3  -3 109663. 4283.39   5
  -2   3   3 116980. 4324.67   5
   2  -3  -2 108335. 4004.40   5
  -2   3   2 114098. 3965.28   5
  -2   3   1 11875.0 589.874   1
   2  -3  -1 13182.7 1123.38   5
  -2   3   1 13044.0 1068.42   5
  -2   3   0 9525.42 921.306   5
   2  -3   0 8057.88 897.689   5
  -2   3   0 8501.55 546.487   1
   2  -3   1 16064.1 1423.41   5
  -2   3  -1 16158.5 1271.18   5
  -2   3  -1 17417.7 912.806   1
  -2   3  -2 200.840 217.954   4
  -2   3  -2 11.9227 104.197   1
   2  -3   2 266.518 332.658   5
  -2   3  -2 424.647 278.372   5
  -2   3  -3 1083.20 275.433   1
  -2   3  -3 631.496 345.499   5
  -2   3  -3 861.027 321.069   4
  -2   3  -4 4016.78 598.287   4
  -2   3  -4 5296.95 595.188   1
  -2   3  -5 2860.27 524.286   4
  -2   3  -5 4094.70 766.687   5
  -2   3  -5 3249.59 319.152   2
  -2   3  -5 3483.20 514.956   1
  -2   3  -6 60027.4 2796.55   4
   2  -3   6 58092.7 3027.36   4
  -2   3  -6 59467.3 2564.57   3
  -2   3  -7 156049. 5640.53   4
  -2   3  -7 158507. 5296.69   3
  -2   3  -8 18964.3 1580.54   4
  -2   3  -9 18028.5 1619.81   4
  -2   3 -10 42982.8 2754.94   4
  -2   3 -11 93782.7 4574.51   4
  -2   3 -12 8275.99 1297.59   4
  -2   3 -13 48335.1 3344.52   4
  -2   3 -14 1921.19 829.855   4
  -2   3 -15 12196.0 1863.61   4
   2  -2 -14 10350.1 1906.91   5
   2  -2 -13 11300.5 1883.58   5
   2  -2 -12 13471.6 1977.61   5
   2  -2 -11 7466.79 1366.66   5
   2  -2 -10 2845.81 832.944   5
   2  -2  -9-192.309 352.389   5
   2  -2  -8 14220.8 1602.73   5
   2  -2  -7 3474.97 767.796   5
  -2   2   7 2666.46 209.831   3
   2  -2  -6 12920.1 1335.81   5
   2  -2  -5 42969.4 2450.12   5
  -2   2   5 44035.1 2084.46   4
   2  -2  -4 35947.9 2106.66   5
  -2   2   4 35651.0 1749.38   4
   2  -2  -3 145198. 5159.54   5
   2  -2  -2 853.413 343.109   5
   2  -2  -1 175415. 5839.24   5
   2  -2   0 2920.56 535.729   5
   2  -2   1 56926.7 1902.23   1
   2  -2   1 55860.1 2783.99   5
   2  -2   2 130580. 3889.89   1
   2  -2   2 122857. 5072.24   5
  -2   2  -3 249305. 7449.01   4
   2  -2   3 235657. 8085.95   5
  -2   2  -4 94154.5 3624.43   4
   2  -2   4 81909.1 3006.53   1
  -2   2  -5 4549.61 664.990   4
   2  -2   5 4470.67 550.956   1
  -2   2  -6 41942.8 2215.58   4
   2  -2   6 33437.9 1795.23   1
  -2   2  -7 5975.86 849.470   4
  -2   2  -8 2020.07 512.669   4
  -2   2  -8 2249.62 451.155   3
  -2   2  -9 7422.74 817.022   3
  -2   2  -9 6775.10 1001.58   4
  -2   2 -10 10721.6 1330.25   4
  -2   2 -11 9655.19 1324.76   4
  -2   2 -12 46446.2 3172.89   4
  -2   2 -13 4402.84 1029.33   4
  -2   2 -14 683.490 560.017   4
  -2   2 -15 12625.1 1801.18   4
   2  -1 -14-280.522 721.979   5
   2  -1 -13 16173.3 2360.25   5
   2  -1 -12 42419.0 3642.88   5
   2  -1 -11 21732.1 2429.84   5
   2  -1 -10 49228.3 3559.60   5
   2  -1  -9 1340.85 638.350   5
   2  -1  -8 186622. 7369.09   5
   2  -1  -7 16911.3 1656.00   5
  -2   1   7 17625.1 783.141   3
   2  -1  -6 59474.2 3147.21   5
   2  -1  -5 57690.2 2925.47   5
   2  -1  -4 17095.2 1361.92   5
   2  -1  -3 2887.86 530.906   5
   2  -1  -2 1702.92 405.649   5
   2  -1  -1 20496.7 1357.27   5
   2  -1   0 2261.14 440.354   5
   2  -1   1 11067.3 1051.19   5
   2  -1   2 9110.12 605.998   1
   2  -1   2 9193.31 1046.89   5
   2  -1   3 62429.6 3296.86   5
   2  -1   3 66270.6 2398.47   1
  -2   1  -4 17187.5 1385.27   4
   2  -1   4 17478.7 1032.01   1
  -2   1  -5 42941.4 2243.29   4
   2  -1   5 41242.5 1833.96   1
  -2   1  -5 38534.9 1293.70   2
  -2   1  -6 19525.8 1495.63   4
   2  -1   6 19021.0 1229.51   1
  -2   1  -7 142795. 5371.46   4
  -2   1  -8 66526.6 3314.74   4
  -2   1  -9 12223.9 1364.03   4
  -2   1 -10 11670.6 1007.41   3
  -2   1 -10 9644.88 1311.08   4
  -2   1 -11 2621.61 520.383   3
  -2   1 -11 2438.57 707.690   4
  -2   1 -12 20209.8 2071.68   4
  -2   1 -13 1119.18 629.493   4
  -2   1 -14 15624.6 1994.09   4
  -2   1 -15 1025.38 622.084   4
   2   0 -14 540.876 662.379   5
   2   0 -13 15264.2 2361.76   5
   2   0 -12 847.623 726.739   5
   2   0 -11 12153.6 1848.41   5
   2   0 -10 4545.92 1114.20   5
   2   0  -9-8.44710 442.865   5
   2   0  -8 1724.16 683.385   5
  -2   0   8 1767.03 223.271   3
   2   0  -7 48520.0 3005.87   5
  -2   0   7 49511.8 1817.42   3
   2   0  -6 57998.9 3090.57   5
   2   0  -6 56415.1 2006.15   1
  -2   0   6 53445.1 2023.60   3
   2   0  -5 3251.97 331.197   1
   2   0  -5 3589.58 653.231   5
   2   0  -4 162073. 4505.67   1
   2   0  -4 166033. 5701.15   5
   2   0  -3 14900.4 1173.19   5
   2   0  -2 13902.4 1103.36   5
   2   0  -1 1051.14 311.012   5
   2   0   0 132178. 4506.19   5
   2   0   1 42873.1 2152.88   5
   2   0   2 1672.10 432.281   5
  -2   0  -3 4012.67 629.327   4
   2   0   3 4170.68 708.527   5
  -2   0  -4 54707.6 2664.07   4
  -2   0  -4 50155.6 1786.12   2
  -2   0  -5 3584.31 617.223   4
  -2   0  -5 3816.68 392.528   2
  -2   0  -6 4966.53 743.025   4
  -2   0  -7 2454.04 566.377   4
  -2   0  -8 3800.52 750.567   4
  -2   0  -9 38182.8 2516.89   4
  -2   0 -10 74296.5 3912.72   4
  -2   0 -11 12722.2 1029.27   3
  -2   0 -11 11589.6 1502.96   4
  -2   0 -12 14018.1 1701.72   4
  -2   0 -13 30689.4 2678.20   4
  -2   0 -14 47447.0 3560.10   4
  -2   0 -15 1130.00 653.806   4
  -2   0 -16 15720.0 2148.74   4
   2   1 -14 39152.6 3994.13   5
   2   1 -13 14697.0 2329.33   5
   2   1 -12 7574.54 1641.74   5
   2   1 -11 8370.00 1590.96   5
   2   1 -10 6153.00 1280.75   5
   2   1  -9 45185.8 3338.99   5
  -2  -1   9 47899.9 1753.23   3
   2   1  -8 35937.5 2768.82   5
  -2  -1   8 41542.9 1731.78   3
  -2  -1   7 647.226 238.331   3
   2   1  -7 444.533 237.245   1
   2   1  -7 241.593 367.503   5
  -2  -1   6 2718.30 387.758   3
   2   1  -6 2739.58 385.511   1
   2   1  -6 2489.27 602.453   5
   2   1  -5 3787.53 677.797   5
   2   1  -4 26468.1 1717.34   5
   2   1  -3 569.308 265.790   5
   2   1  -2 16541.2 1169.43   5
   2   1  -1 239.202 139.270   5
   2   1   0 285278. 8357.17   5
   2   1   1 21546.1 1406.53   5
  -2  -1  -1 27242.6 1415.06   5
   2   1   2 111641. 4442.01   5
  -2  -1  -2 137578. 4560.91   5
  -2  -1  -3 68498.6 2974.81   4
  -2  -1  -3 75250.3 3153.13   5
  -2  -1  -3 72609.2 2483.28   2
  -2  -1  -4 111070. 4196.46   4
  -2  -1  -4 106852. 4087.16   5
  -2  -1  -4 101501. 3359.38   2
  -2  -1  -5 11467.9 1095.12   4
  -2  -1  -5 11609.4 1094.62   5
  -2  -1  -5 11707.6 851.135   2
  -2  -1  -6 83682.2 3476.24   4
  -2  -1  -6 72635.8 2710.53   2
   2   1   7 200881. 5746.49   2
  -2  -1  -7 205561. 6956.09   4
   2   1   8 38179.9 1514.53   2
  -2  -1  -8 38697.7 2404.90   4
  -2  -1  -9 4718.44 859.636   4
   2   1   9 4171.10 418.145   2
  -2  -1 -10 3059.78 767.983   4
   2   1  10 2895.56 350.129   2
  -2  -1 -11 28228.6 2342.47   4
   2   1  11 27552.8 1173.58   2
  -2  -1 -12 102.230 419.215   4
  -2  -1 -13 328.049 504.505   4
  -2  -1 -14 369.079 554.094   4
  -2  -1 -15 1305.29 725.766   4
  -2  -1 -16 17776.1 2275.31   4
   2   2 -14 11058.3 2169.03   5
   2   2 -13 1227.67 847.799   5
   2   2 -12 4122.56 1271.18   5
   2   2 -11 13464.0 2047.93   5
   2   2 -10 86720.5 5222.44   5
  -2  -2  10 98916.5 3227.41   3
  -2  -2   9 21811.9 1232.88   3
   2   2  -9 18740.4 2093.21   5
   2   2  -9 20283.1 1406.75   1
   2   2  -8 2956.77 487.916   1
  -2  -2   8 3304.67 484.079   3
   2   2  -8 3654.03 835.137   5
   2   2  -7 128237. 5648.87   5
  -2  -2   7 139793. 4572.21   3
   2   2  -6 27723.7 2082.05   5
  -2  -2   6 29875.4 1574.68   3
   2   2  -5 105782. 4423.00   5
  -2  -2   5 112870. 4007.23   4
  -2  -2   5 114335. 3855.51   3
  -2  -2   4 1316.66 336.249   3
   2   2  -4 2027.97 470.659   5
   2   2  -3 207107. 6576.88   5
   2   2  -2 4512.00 585.766   5
  -2  -2   2 5872.96 623.730   5
   2   2  -1 1569.30 336.895   5
  -2  -2   1 2266.96 373.421   5
   2   2   0 52912.7 2255.90   5
  -2  -2   0 59402.8 2217.01   5
  -2  -2  -1 29435.9 1408.39   2
   2   2   1 29605.1 1584.28   5
  -2  -2  -1 30885.6 1432.20   5
   2   2   2 31979.6 1773.64   5
  -2  -2  -2 35685.1 1682.09   5
  -2  -2  -2 33667.1 1558.65   2
  -2  -2  -3 27939.5 1598.90   4
  -2  -2  -3 28047.6 1594.91   5
  -2  -2  -3 25319.0 1321.14   2
   2   2   4 17750.4 1059.93   2
  -2  -2  -4 16816.8 1319.48   4
  -2  -2  -4 17777.4 1307.22   5
  -2  -2  -4 17297.4 1124.79   2
   2   2   5 5700.18 579.944   2
   2   2   5 5557.07 740.927   4
  -2  -2  -5 4926.58 666.653   5
  -2  -2  -5 4589.52 667.943   4
  -2  -2  -5 5296.95 645.668   2
  -2  -2  -6 40457.8 2229.33   4
  -2  -2  -6 37642.7 1962.31   2
   2   2   6 41141.3 2242.36   4
   2   2   6 43121.0 1857.63   2
   2   2   7 207.870 182.419   2
  -2  -2  -7 8.51740 216.187   4
  -2  -2  -8 33886.7 2206.38   4
   2   2   8 36471.9 1727.04   2
  -2  -2  -9 5365.53 888.851   4
   2   2   9 5472.64 608.968   2
   2   2  10 78690.3 2978.15   2
  -2  -2 -10 82468.9 4075.53   4
   2   2  11 39078.1 1815.89   2
  -2  -2 -11 37033.3 2693.06   4
   2   2  12 21695.9 1255.11   2
  -2  -2 -12 18496.7 1936.43   4
  -2  -2 -13 4913.59 1107.17   4
  -2  -2 -14 888.453 616.158   4
  -2  -2 -15 15595.1 1997.37   4
  -2  -2 -16 2300.32 1032.97   4
   2   3 -14 2460.36 1267.01   5
   2   3 -13 15362.0 2377.14   5
   2   3 -12 26961.3 3049.62   5
   2   3 -11 2392.81 566.338   1
   2   3 -11 2579.97 978.376   5
  -2  -3  10 13266.2 1014.62   3
   2   3 -10 11525.7 1775.43   5
   2   3 -10 13118.9 1248.58   1
  -2  -3   9 159.152 184.937   3
   2   3  -9 319.066 228.473   1
  -2  -3   8 1219.89 379.593   3
   2   3  -8 1580.89 449.476   1
   2   3  -8 1830.94 676.119   5
   2   3  -7 14077.1 1128.81   1
   2   3  -7 13526.2 1520.77   5
  -2  -3   7 14185.4 1158.48   3
   2   3  -6 7416.28 1043.90   5
  -2  -3   6 7997.32 830.613   3
   2   3  -5 12105.1 1224.62   5
  -2  -3   5 13797.3 1090.68   3
  -2  -3   5 14804.7 1094.82   4
   2   3  -4 39700.3 2158.53   5
  -2  -3   4 40946.3 1999.01   3
   2   3  -3 90787.6 3490.64   5
  -2  -3   3 92727.2 3429.20   3
   2   3  -2 6197.54 657.425   5
  -2  -3   1 105810. 3622.48   2
   2   3  -1 98391.3 3529.68   5
  -2  -3   1 107317. 3483.10   5
   2   3   0 43786.1 1874.24   5
  -2  -3   0 44041.0 1750.32   5
  -2  -3   0 43579.9 1971.40   2
   2   3   1 93185.9 3302.01   5
  -2  -3  -1 94848.1 3064.02   5
  -2  -3  -1 93385.3 3339.20   2
  -2  -3  -2 9257.57 685.755   5
   2   3   2 8915.52 794.825   5
  -2  -3  -2 8170.10 742.207   2
   2   3   3 105090. 3741.15   2
  -2  -3  -3 105604. 3713.36   4
  -2  -3  -3 100168. 3535.64   5
  -2  -3  -3 101658. 3694.37   2
  -2  -3  -4 94295.3 3637.59   4
  -2  -3  -4 92779.5 3647.56   2
  -2  -3  -4 97701.1 3586.39   5
   2   3   4 88342.7 3445.49   2
   2   3   5 3523.31 554.091   2
  -2  -3  -5 2366.48 515.225   2
  -2  -3  -5 3091.93 545.840   4
   2   3   5 2839.49 517.014   4
  -2  -3  -5 3985.80 570.524   5
  -2  -3  -6 18732.6 1393.15   4
   2   3   6 18532.4 1377.36   4
  -2  -3  -6 15939.5 1316.59   2
  -2  -3  -7 45199.6 2429.69   4
   2   3   7 45481.0 2412.92   4
  -2  -3  -8 2078.91 518.650   4
  -2  -3  -9 701.176 425.767   4
  -2  -3 -10 23326.3 1957.12   4
  -2  -3 -11 4270.79 866.044   4
  -2  -3 -12 11134.1 1453.04   4
  -2  -3 -13 42687.7 3089.09   4
  -2  -3 -14 7007.67 1271.10   4
  -2  -3 -15 14760.3 1934.70   4
  -2  -3 -16 30870.9 2921.81   4
   2   4 -14 2674.28 1265.14   5
   2   4 -13 12450.7 2168.84   5
   2   4 -12 1229.34 910.026   5
   2   4 -12 645.887 569.867   1
   2   4 -11 56642.3 4256.23   5
   2   4 -11 66561.9 3432.11   1
  -2  -4  10 8155.22 894.068   3
   2   4 -10 9457.25 1137.72   1
   2   4 -10 5839.58 1268.44   5
  -2  -4   9 6759.05 842.966   3
   2   4  -9 4670.77 1053.90   5
   2   4  -9 6302.21 884.026   1
   2   4  -8 27629.4 1834.53   1
   2   4  -8 24116.9 2211.68   5
  -2  -4   8 27886.6 1796.64   3
   2   4  -7 22843.8 2003.39   5
  -2  -4   7 26700.5 1775.32   3
   2   4  -6 27720.5 2031.33   5
  -2  -4   6 27677.4 1790.66   3
  -2  -4   5 1296.65 339.865   4
  -2  -4   5 744.560 336.663   3
   2   4  -5 897.821 385.386   5
  -2  -4   4 25339.8 1534.02   2
   2   4  -4 24475.6 1626.26   5
  -2  -4   4 27332.5 1673.53   3
  -2  -4   3 12197.8 1005.92   2
   2   4  -3 12040.9 999.912   5
  -2  -4   3 12938.1 1089.41   3
   2   4  -2 50918.4 2216.74   5
  -2  -4   2 55256.0 2492.93   3
  -2  -4   2 56177.0 2453.76   2
  -2  -4   1 199.358 242.933   3
   2   4  -1 60.9195 121.834   5
  -2  -4   1 152.678 222.411   2
   2   4   0 7088.35 604.294   5
  -2  -4   0 6650.26 530.783   5
  -2  -4   0 5961.17 685.436   2
  -2  -4  -1 43346.7 2065.32   2
   2   4   1 44959.2 1841.99   5
  -2  -4  -1 41443.4 1576.51   5
  -2  -4  -2 35255.5 1672.06   4
  -2  -4  -2 34704.1 1385.84   5
  -2  -4  -2 31806.4 1797.16   2
  -2  -4  -3 105094. 3577.12   4
  -2  -4  -3 95480.5 3222.00   5
  -2  -4  -3 103175. 3926.22   2
  -2  -4  -4 1730.38 471.386   2
  -2  -4  -4 2511.78 456.759   4
  -2  -4  -4 2303.24 394.464   5
  -2  -4  -5 221168. 6828.53   4
  -2  -4  -5 214277. 6691.92   5
  -2  -4  -5 216022. 7353.68   2
  -2  -4  -6 497.773 276.229   2
  -2  -4  -6 478.965 262.505   4
   2   4   6 1306.41 363.842   4
  -2  -4  -7 22517.1 1592.98   4
   2   4   7 25038.7 1646.39   4
  -2  -4  -8 67540.2 3191.80   4
   2   4   8 66586.0 3103.29   2
   2   4   9 106403. 4260.54   2
  -2  -4  -9 109576. 4576.70   4
   2   4  10 36200.8 2171.96   2
  -2  -4 -10 40544.0 2549.54   4
  -2  -4 -11 1338.01 560.737   4
   2   4  11 1227.45 444.518   2
   2   4  12 14181.1 1265.97   2
  -2  -4 -12 15292.3 1659.15   4
  -2  -4 -13 13915.2 1683.56   4
  -2  -4 -14 2427.14 828.370   4
  -2  -4 -15 7038.33 1381.68   4
  -2  -4 -16 2497.33 870.521   4
   2   5 -13 3330.45 818.837   1
   2   5 -13 3550.69 1264.63   5
   2   5 -12 5819.07 1046.19   1
   2   5 -12 7288.66 1548.62   5
   2   5 -11 2910.12 760.480   1
   2   5 -11 2786.06 1003.72   5
   2   5 -10 14564.0 1929.75   5
  -2  -5  10 13069.6 1260.55   3
   2   5 -10 15043.7 1537.91   1
   2   5  -9 33721.7 2279.53   1
   2   5  -9 28141.7 2544.90   5
  -2  -5   9 33796.3 2135.65   3
  -2  -5   8 367.425 293.518   3
   2   5  -8 362.350 472.595   5
   2   5  -7 72753.0 3819.97   5
  -2  -5   7 78776.8 3603.60   3
   2   5  -6 85051.5 3958.94   5
  -2  -5   6 88650.5 3875.63   3
   2   5  -5 77834.5 3514.52   5
  -2  -5   5 81578.4 3622.66   3
  -2  -5   5 80465.3 3144.88   4
   2   5  -4 56815.1 2607.07   5
  -2  -5   4 53357.4 2741.97   3
  -2  -5   3 4961.69 741.885   3
   2   5  -3 4536.80 594.480   5
   2   5  -2 246106. 7240.31   5
  -2  -5   2 246557. 7049.99   4
  -2  -5   2 248273. 7876.94   3
   2   5  -1 27319.4 1314.51   5
  -2  -5   1 25320.2 1684.02   3
   2   5   0 96210.0 3048.43   5
  -2  -5   0 91370.4 3681.14   2
  -2  -5   0 99292.1 3837.93   3
   2   5   1 13087.1 736.163   5
  -2  -5  -1 11831.0 606.506   5
  -2  -5  -1 13249.0 1134.58   2
  -2  -5  -1 13593.2 1168.59   3
  -2  -5  -2 14228.4 915.959   4
  -2  -5  -2 13456.0 650.433   5
  -2  -5  -2 13937.8 1211.83   2
  -2  -5  -2 14671.5 1213.15   3
  -2  -5  -3 5730.08 602.872   4
  -2  -5  -3 5429.33 421.572   5
  -2  -5  -3 5789.63 814.296   2
   2   5   3 6224.03 881.337   2
  -2  -5  -3 5008.02 713.827   3
  -2  -5  -4 16879.7 1105.78   4
  -2  -5  -4 13843.9 882.209   5
   2   5   4 15923.5 1419.74   2
  -2  -5  -5 25967.4 1492.78   4
  -2  -5  -5 25972.1 1438.04   5
   2   5   5 25587.8 1833.89   2
  -2  -5  -6 767.131 291.584   4
  -2  -5  -6 1257.27 321.309   5
   2   5   6 574.091 274.167   4
   2   5   6 913.327 380.773   2
  -2  -5  -7 10431.8 1014.16   4
   2   5   7 10122.5 997.375   4
   2   5   7 11276.5 1186.88   2
  -2  -5  -8 3564.94 631.279   4
   2   5   8 3853.51 702.863   2
  -2  -5  -8 5536.26 762.274   3
   2   5   9 19039.7 1585.17   2
  -2  -5  -9 23042.7 1570.28   3
  -2  -5  -9 18727.2 1569.20   4
  -2  -5 -10 155.957 283.196   4
  -2  -5 -10 102.655 199.930   3
   2   5  10-205.492 326.263   2
   2   5  11 14887.6 1395.91   2
  -2  -5 -11 16978.3 1287.62   3
  -2  -5 -11 14625.7 1492.29   4
  -2  -5 -12 2298.36 720.352   4
   2   5  12 1999.55 534.458   2
  -2  -5 -13 32335.9 2498.31   4
  -2  -5 -14 10457.9 1479.35   4
  -2  -5 -15 9298.86 1458.16   4
   2   6 -13 14285.9 1816.71   1
   2   6 -13 15529.9 2285.53   5
   2   6 -12 20505.3 2497.20   5
   2   6 -12 22128.3 2177.16   1
   2   6 -11 3548.21 1071.96   5
   2   6 -11 3655.98 931.780   1
   2   6 -10 39725.3 2769.51   1
   2   6 -10 37377.8 3061.48   5
  -2  -6  10 39338.6 2462.48   3
   2   6  -9 24369.8 2058.92   1
   2   6  -9 25472.4 2338.46   5
  -2  -6   9 26116.8 1975.39   3
  -2  -6   8 768.534 420.738   3
   2   6  -8 524.269 411.859   5
   2   6  -7 35450.4 2435.57   5
  -2  -6   7 35981.2 2358.91   3
  -2  -6   6 2816.83 677.809   3
   2   6  -6 2252.70 620.192   5
  -2  -6   5 6196.93 936.549   3
   2   6  -5 6427.25 842.830   5
   2   6  -4 7802.81 835.922   5
  -2  -6   4 7381.92 996.886   3
  -2  -6   3 4299.95 752.917   3
  -2  -6   3 3504.73 457.485   4
   2   6  -3 4203.06 545.152   5
   2   6  -2 9656.23 766.793   5
  -2  -6   2 11812.6 1202.94   3
  -2  -6   2 9968.96 726.539   4
   2   6  -1 77927.2 2570.96   5
  -2  -6   1 72638.7 2508.39   4
  -2  -6   1 75705.8 3444.03   3
   2   6   0 48629.7 1676.51   5
  -2  -6   0 44234.2 2494.59   3
  -2  -6  -1 3132.42 608.407   3
   2   6   1 3694.77 742.129   2
  -2  -6  -2 56840.0 2106.07   4
  -2  -6  -2 52248.6 2738.16   3
   2   6   2 56021.3 3076.94   2
  -2  -6  -3 21750.1 1138.41   4
  -2  -6  -3 18268.8 676.502   5
   2   6   3 18114.7 1638.83   2
  -2  -6  -3 19748.6 1535.04   3
  -2  -6  -4 38868.5 1706.91   4
  -2  -6  -4 34674.3 1332.85   5
   2   6   4 38157.4 2418.26   2
  -2  -6  -4 38763.4 2222.71   3
  -2  -6  -5 13125.1 954.045   4
  -2  -6  -5 12222.7 848.412   5
   2   6   5 12767.9 1339.37   2
  -2  -6  -5 12085.6 1199.09   3
  -2  -6  -6 49008.5 2201.62   4
  -2  -6  -6 46867.5 2105.76   5
   2   6   6 46621.0 2713.44   2
  -2  -6  -6 44977.2 2487.18   3
   2   6   7 22685.6 1507.82   4
   2   6   7 21633.5 1787.80   2
  -2  -6  -7 22359.2 1656.68   3
  -2  -6  -7 22670.0 1483.62   4
  -2  -6  -8 561.502 298.743   4
  -2  -6  -8 451.994 278.193   3
   2   6   8 341.531 287.385   2
  -2  -6  -9 723.562 343.709   4
  -2  -6  -9 817.773 371.274   3
   2   6   9 1343.25 504.347   2
   2   6  10 23935.9 1900.47   2
  -2  -6 -10 24653.4 1705.46   3
  -2  -6 -10 24501.7 1825.58   4
  -2  -6 -11 162.666 236.741   3
  -2  -6 -11 476.092 371.030   4
   2   6  11 572.339 447.704   2
  -2  -6 -12 84.0829 350.968   4
   2   6  12 389.417 349.628   2
   2   6  13 13247.5 1388.12   2
  -2  -6 -13 13018.6 1530.59   4
  -2  -6 -14 296.630 468.445   4
  -2  -6 -15 9480.64 1430.42   4
   2   7 -13 2406.27 977.531   5
   2   7 -13 288.270 562.473   1
   2   7 -12 3895.94 1035.20   1
   2   7 -12 1821.41 752.468   5
   2   7 -11 1488.76 628.396   1
   2   7 -11 1271.37 748.439   5
   2   7 -10 18321.5 1979.83   1
   2   7 -10 17210.8 1976.42   5
  -2  -7  10 17281.6 1688.68   3
  -2  -7   9-17.8058 281.063   3
   2   7  -9 682.472 603.509   1
   2   7  -9 1007.17 627.027   5
   2   7  -8 47003.4 3019.60   5
  -2  -7   8 48507.0 2963.21   3
   2   7  -7 16136.4 1570.26   5
  -2  -7   7 16036.5 1640.37   3
   2   7  -6 20036.5 1622.93   5
  -2  -7   6 22637.4 1937.90   3
  -2  -7   5 2011.80 575.037   3
   2   7  -5 1877.71 484.680   5
  -2  -7   4 4993.31 896.246   3
   2   7  -4 6098.05 726.619   5
   2   7  -3 46352.6 2036.96   5
  -2  -7   3 44456.6 2735.23   3
  -2  -7   3 47352.5 1952.98   4
   2   7  -2 20097.5 1078.49   5
  -2  -7   2 19556.4 1691.03   3
  -2  -7   2 18545.0 1014.70   4
  -2  -7   1 4151.80 788.946   3
   2   7  -1 4763.60 373.185   5
  -2  -7   1 4984.85 446.629   4
   2   7   0 757.756 499.468   2
  -2  -7   0 374.355 135.748   4
  -2  -7   0 283.112 284.956   3
  -2  -7  -1 5848.15 478.109   4
  -2  -7  -1 5715.98 892.517   3
   2   7   1 7762.42 1103.27   2
  -2  -7  -2 30282.4 1270.51   4
  -2  -7  -2 28394.7 2034.76   3
   2   7   2 29156.0 2210.68   2
  -2  -7  -3 20517.6 1022.84   4
  -2  -7  -3 20617.8 1698.40   3
   2   7   3 18696.7 1737.46   2
  -2  -7  -4 814.976 387.484   3
  -2  -7  -4 1152.62 248.556   4
   2   7   4 877.686 481.893   2
  -2  -7  -5 1302.38 484.430   3
  -2  -7  -5 1754.70 339.415   4
  -2  -7  -5 1312.35 193.267   5
   2   7   5 1614.93 540.259   2
  -2  -7  -5 1529.73 220.822   5
  -2  -7  -6 174360. 5354.22   5
   2   7   6 172871. 6635.08   2
  -2  -7  -6 175148. 6391.30   3
  -2  -7  -6 176588. 5526.33   4
  -2  -7  -7 9724.04 859.218   5
   2   7   7 9927.00 1233.57   2
  -2  -7  -7 10514.0 1169.93   3
  -2  -7  -7 9865.32 896.120   4
   2   7   8 48571.7 2878.08   2
  -2  -7  -8 46003.5 2651.59   3
  -2  -7  -8 45382.4 2294.30   4
  -2  -7  -9 2206.65 552.448   3
  -2  -7  -9 2360.07 545.470   4
   2   7   9 3287.09 754.626   2
   2   7  10 80093.7 3993.71   2
  -2  -7 -10 80199.0 3718.40   3
  -2  -7 -10 83441.5 3641.84   4
  -2  -7 -11 1987.63 509.886   3
  -2  -7 -11 2395.99 594.809   4
   2   7  11 2506.55 681.339   2
   2   7  12 24111.4 1994.60   2
  -2  -7 -12 23935.4 1927.86   4
   2   7  13 52643.9 3074.34   2
  -2  -7 -13 52969.2 3137.56   4
  -2  -7 -14 16795.9 1764.01   4
  -2  -7 -15-1390.41 670.742   4
   2   8 -12 584.656 607.189   1
   2   8 -12 1487.40 717.642   5
   2   8 -11-179.719 505.217   1
   2   8 -11 411.603 549.449   5
  -2  -8  10 44.3834 399.635   3
   2   8 -10-84.0703 457.043   1
   2   8 -10 897.481 634.276   5
  -2  -8   9 339.120 405.489   3
   2   8  -9 2.31963 384.621   5
   2   8  -8 11242.2 1358.23   5
  -2  -8   8 11251.1 1445.65   3
  -2  -8   7 914.951 505.043   3
   2   8  -7 1023.52 449.822   5
   2   8  -6 8008.13 991.678   5
  -2  -8   6 9592.38 1323.37   3
  -2  -8   5 10434.8 1402.94   3
   2   8  -5 10685.8 1019.60   5
  -2  -8   4 126037. 5485.46   3
   2   8  -4 120038. 4220.54   5
   2   8  -3 19548.9 1136.34   5
  -2  -8   3 19932.3 1877.16   3
  -2  -8   3 19100.2 1106.11   4
   2   8  -2 32241.5 1311.62   5
  -2  -8   2 30893.8 2345.16   3
  -2  -8   2 33153.8 1419.85   4
  -2  -8   1 58439.6 3349.02   3
  -2  -8   1 60131.9 2027.85   4
   2   8   0 52985.3 3247.90   2
  -2  -8   0 52684.5 1758.54   4
  -2  -8   0 55318.8 3139.73   3
  -2  -8   0 51594.7 1697.91   4
  -2  -8  -1 116310. 3225.96   4
  -2  -8  -1 115562. 5013.34   3
  -2  -8  -1 109415. 3156.11   4
   2   8   1 112729. 5151.29   2
  -2  -8  -2 816.362 401.420   3
  -2  -8  -2 1133.41 164.143   4
   2   8   2 1098.34 469.643   2
  -2  -8  -3 106826. 4768.67   3
   2   8   3 111918. 4975.31   2
  -2  -8  -3 107722. 3206.30   4
  -2  -8  -4-224.919 424.086   3
  -2  -8  -4 9.12334 141.524   4
   2   8   4 449.475 340.560   2
   2   8   5 12204.0 1433.94   2
  -2  -8  -5 12200.6 1398.31   3
  -2  -8  -5 12260.6 810.493   4
  -2  -8  -6 6505.94 1010.48   3
  -2  -8  -6 6437.87 425.954   5
  -2  -8  -6 6713.01 648.697   4
  -2  -8  -7 13755.9 862.271   5
   2   8   7 12113.2 1404.36   2
  -2  -8  -7 12250.8 1388.58   3
  -2  -8  -7 13371.7 1014.96   4
  -2  -8  -8 7494.54 1074.56   3
   2   8   8 8303.46 1172.78   2
  -2  -8  -8 8100.63 827.001   4
  -2  -8  -9-59.1349 360.992   3
  -2  -8  -9 284.848 248.414   4
   2   8   9 495.650 407.783   2
  -2  -8 -10 3641.83 697.446   3
  -2  -8 -10 4535.25 713.537   4
   2   8  10 3067.77 786.731   2
  -2  -8 -11 606.605 382.297   4
   2   8  11 260.083 481.519   2
   2   8  12 7806.62 1158.31   2
  -2  -8 -12 9875.02 1208.65   4
   2   8  13 185.607 341.486   2
   2   9 -11 55104.5 4059.37   1
   2   9 -10 16986.1 2091.49   1
   2   9 -10 13050.8 1630.27   5
  -2  -9  10 15219.7 1769.71   3
   2   9  -9 37153.3 2623.55   5
  -2  -9   9 33530.4 2655.42   3
  -2  -9   8 215.466 483.811   3
   2   9  -8 874.676 473.624   5
   2   9  -7 42087.2 2463.57   5
  -2  -9   7 37087.1 2814.13   3
   2   9  -6 43176.3 2349.55   5
  -2  -9   6 38846.7 2888.61   3
  -2  -9   5 4110.36 907.625   3
   2   9  -5 3890.75 589.862   5
  -2  -9   4 7015.33 1185.51   3
   2   9  -4 7321.22 716.958   5
  -2  -9   3 146.863 420.049   3
   2   9  -3-21.7700 155.403   5
  -2  -9   2 1365.81 578.656   3
   2   9  -1 15800.4 1822.50   2
  -2  -9   1 16228.7 1774.53   3
  -2  -9   0 864.693 558.704   3
   2   9   0 833.637 473.391   2
  -2  -9  -1 5784.73 1041.67   3
   2   9   1 5166.11 1018.54   2
  -2  -9  -2 27437.5 2274.30   3
   2   9   2 28642.4 2330.34   2
  -2  -9  -3 35409.8 2635.66   3
   2   9   3 37705.9 2689.38   2
  -2  -9  -4 346.470 404.931   3
   2   9   4 421.914 401.260   2
  -2  -9  -5 16447.1 1779.22   3
   2   9   5 16904.7 1735.37   2
  -2  -9  -6 6194.85 1048.22   3
   2   9   6 6062.19 1018.35   2
  -2  -9  -7 49440.1 3102.53   3
   2   9   7 45858.5 2970.78   2
  -2  -9  -8 5237.79 1018.01   3
   2   9   8 6232.58 1078.57   2
  -2  -9  -9 12330.0 1489.67   3
   2   9   9 11127.2 1409.73   2
  -2  -9 -10 6150.01 1096.35   3
   2   9  10 5514.06 1069.51   2
   2   9  11 1338.75 610.221   2
   2   9  12-395.302 398.965   2
   2   9  13 12970.5 1541.29   2
  -2 -10  10-376.316 486.391   3
  -2 -10   9 4307.27 972.199   3
  -2 -10   8 598.737 740.534   3
  -2 -10   7 7371.97 1327.06   3
  -2 -10   6 3387.69 928.181   3
  -2 -10   5 71848.9 4204.27   3
  -2 -10   4 8701.63 1346.96   3
  -2 -10   3 4364.21 1072.63   3
  -2 -10   2 8525.48 1360.14   3
   2  10  -1 19374.9 2053.32   2
  -2 -10   1 19553.6 2033.60   3
   2  10   0 18229.4 1937.96   2
  -2 -10   0 20290.2 2089.30   3
  -2 -10  -1 21.3451 417.282   3
   2  10   1 1357.78 633.444   2
  -2 -10  -2 15435.5 1821.92   3
   2  10   2 13804.0 1677.70   2
  -2 -10  -3 10484.8 1491.61   3
   2  10   3 9167.85 1365.95   2
  -2 -10  -4 10822.4 1508.52   3
   2  10   4 10434.6 1414.42   2
  -2 -10  -5 70.5654 347.234   3
   2  10   5-123.300 504.773   2
  -2 -10  -6 1221.88 736.283   3
   2  10   6 279.655 491.341   2
  -2 -10  -7 5019.23 1061.06   3
   2  10   7 4004.89 894.604   2
  -2 -10  -8 19075.6 1974.15   3
   2  10   8 17430.0 1827.70   2
  -2 -10  -9 25472.8 2245.02   3
   2  10   9 22599.6 2080.58   2
   2  10  10 718.950 526.878   2
   2  10  11 49644.1 3210.65   2
   2  10  12 2551.98 813.373   2
  -2 -11   9 6360.06 1208.94   3
  -2 -11   8 2074.76 763.024   3
  -2 -11   7 6644.73 1271.79   3
  -2 -11   6 3677.83 1039.35   3
  -2 -11   5 166.765 449.678   3
  -2 -11   4-100.079 529.664   3
  -2 -11   3 16523.2 1979.81   3
  -2 -11   2 634.778 504.124   3
  -2 -11   1 55880.5 3737.73   3
   2  11   0 24101.9 2336.45   2
  -2 -11   0 27222.8 2549.88   3
   2  11   1 42012.9 3064.10   2
  -2 -11  -1 41917.4 3221.82   3
  -2 -11  -2 13740.3 1789.12   3
   2  11   2 14502.4 1747.81   2
  -2 -11  -3 24393.8 2404.54   3
   2  11   3 23101.3 2208.03   2
  -2 -11  -4 54203.2 3684.79   3
   2  11   4 52560.0 3392.42   2
  -2 -11  -5 10611.3 1574.34   3
   2  11   5 9711.60 1412.43   2
  -2 -11  -6 50414.6 3537.54   3
   2  11   6 51328.9 3309.09   2
  -2 -11  -7-63.9804 454.577   3
   2  11   7 173.386 457.825   2
  -2 -11  -8 10615.0 1519.95   3
   2  11   8 9749.25 1389.57   2
  -2 -11  -9 20.8020 390.521   3
   2  11   9 769.055 566.625   2
   2  11  10 8424.46 1266.53   2
  -2 -12   5-438.884 569.541   3
  -2 -12   4 59718.7 4020.43   3
  -2 -12   3 11110.6 1677.18   3
  -2 -12   2 1131.86 597.028   3
  -2 -12   1 13315.9 1827.07   3
   2  12   0 2863.20 881.906   2
  -2 -12   0 4760.03 1173.01   3
  -2 -12  -1-640.319 674.996   3
   2  12   1-488.724 555.510   2
  -2 -12  -2 4221.97 1143.70   3
   2  12   2 4411.32 972.070   2
  -2 -12  -3-162.539 440.559   3
   2  12   3 169.667 455.507   2
  -2 -12  -4-538.198 550.277   3
   2  12   4 137.695 517.298   2
  -2 -12  -5 24089.3 2465.31   3
   2  12   5 25305.9 2315.46   2
  -2 -12  -6 13106.0 1797.70   3
   2  12   6 13164.1 1676.26   2
  -2 -12  -7 814.227 712.179   3
   2  12   7 460.507 426.091   2
  -2 -12  -8 12440.6 1710.60   3
   2  12   8 9573.93 1436.09   2
   2  13   0 18210.3 2143.45   2
  -2 -13   0 18048.3 2266.19   3
   2  13   1-599.436 572.733   2
  -2 -13  -1 1568.66 747.992   3
  -2 -13  -2 3489.86 1072.60   3
   2  13   2 4218.66 1077.76   2
  -2 -13  -3 28235.6 2795.65   3
   2  13   3 25900.7 2440.39   2
  -2 -13  -4 1999.65 905.288   3
  -2 -13  -5 1616.34 810.210   3
  -2 -13  -6-310.309 606.230   3
  -2 -13  -7 710.625 547.418   3
  -3  13   0 8341.95 1265.81   2
  -3  13  -1 2811.56 778.322   2
  -3  13  -2-670.368 476.876   2
  -3  13  -2 951.333 493.940   1
  -3  13  -3 406.804 464.407   1
  -3  13  -3-197.311 331.846   2
  -3  13  -4-586.369 519.011   1
  -3  12   3 52.9676 409.037   2
  -3  12   2 3997.12 965.287   2
  -3  12   1 11912.4 1506.68   2
  -3  12   0 2069.33 592.827   1
  -3  12   0 1851.86 674.144   2
  -3  12  -1 19970.6 1828.26   1
  -3  12  -1 31915.5 2380.08   2
  -3  12  -2 389.635 342.654   1
  -3  12  -2-195.540 284.315   2
  -3  12  -3 2994.84 723.837   1
  -3  12  -3 629.371 375.906   2
  -3  12  -4 931.568 440.320   2
  -3  12  -4-591.500 415.732   1
  -3  12  -5 11108.2 1518.51   1
  -3  12  -6 2096.41 745.094   1
  -3  11   6 6328.19 1232.70   2
  -3  11   5 817.008 562.974   2
  -3  11   4 1811.49 742.437   2
  -3  11   3 4653.47 1006.37   2
  -3  11   2-23.2894 485.725   2
  -3  11   1 566.528 462.785   2
  -3  11   0 12342.3 1305.20   1
  -3  11   0 12976.6 1511.60   2
  -3  11  -1 8540.83 1117.44   1
  -3  11  -1 12483.4 1458.47   2
  -3  11  -2 1014.44 452.016   2
  -3  11  -2 2322.52 634.409   1
  -3  11  -3 15482.1 1611.64   1
  -3  11  -3 16542.4 1608.53   2
  -3  11  -4 126.984 271.883   2
  -3  11  -4 735.628 410.075   1
  -3  11  -5 49459.6 3221.39   1
  -3  11  -5 54094.6 2931.81   2
  -3  11  -6-723.079 504.019   1
  -3  11  -7 30991.5 2613.81   1
  -3  11  -8 8364.47 1468.79   1
  -3  10   7 13905.2 1716.72   2
   3 -10  -7 9680.31 1415.25   5
   3 -10  -6 16599.9 1770.96   5
  -3  10   6 18078.7 1940.42   2
  -3  10   5 69740.0 3914.65   2
   3 -10  -5 66025.2 3725.00   5
  -3  10   4 15783.3 1709.88   2
   3 -10  -4 12077.7 1516.50   5
  -3  10   3 3531.30 850.511   2
   3 -10  -3 3196.19 798.449   5
   3 -10  -2 59483.0 3474.62   5
  -3  10   2 68936.1 3624.76   2
  -3  10   1 3895.83 806.381   2
   3 -10  -1 2795.40 726.195   5
  -3  10   0 18834.2 1526.26   1
   3 -10   0 19385.5 1762.84   5
  -3  10   0 18046.2 1720.23   2
  -3  10  -1-30.8265 282.564   2
  -3  10  -1 433.649 360.866   1
  -3  10  -2 46808.2 2714.85   1
  -3  10  -2 47077.7 2818.56   2
  -3  10  -3 613.335 380.001   2
  -3  10  -3 550.175 396.440   1
  -3  10  -4 3752.26 737.493   2
  -3  10  -4 2695.73 730.519   1
  -3  10  -5 2110.66 552.568   2
  -3  10  -5 2395.55 686.158   1
  -3  10  -6 2133.06 649.312   1
  -3  10  -6 2034.22 522.201   2
  -3  10  -7 3127.41 871.375   1
  -3  10  -8 714.727 464.158   1
  -3  10  -9 3219.91 926.608   1
   3  -9 -10 10770.9 1653.36   5
   3  -9  -9 6858.81 1316.61   5
   3  -9  -8 6940.45 1269.13   5
   3  -9  -7 2427.69 752.612   5
   3  -9  -6 2137.30 726.571   5
   3  -9  -5 7565.34 1182.08   5
   3  -9  -4 1686.63 654.253   5
   3  -9  -3 13810.7 1631.52   5
   3  -9  -2 21689.6 2022.57   5
  -3   9   1 2037.66 473.546   1
   3  -9  -1 1541.96 629.401   5
  -3   9   0 2749.95 650.116   2
  -3   9   0 2162.36 495.553   1
  -3   9   0 959.622 330.241   4
   3  -9   0 712.775 344.112   5
  -3   9  -1 10456.2 889.471   4
  -3   9  -1 12169.8 1170.22   1
   3  -9   1 10663.7 1328.04   5
  -3   9  -1 9308.32 1142.79   2
  -3   9  -2 17406.1 1172.23   4
  -3   9  -2 19954.3 1586.10   1
  -3   9  -2 17986.4 1565.73   2
  -3   9  -3 1232.61 489.300   2
  -3   9  -3 972.682 255.083   4
  -3   9  -3 1240.09 496.927   1
  -3   9  -4 47086.9 2180.89   4
  -3   9  -4 49593.4 2685.06   2
  -3   9  -4 45592.2 2747.33   1
  -3   9  -5 1906.45 602.036   1
  -3   9  -5 1406.16 373.932   4
  -3   9  -5 1953.47 488.450   2
  -3   9  -6 9337.83 945.729   4
  -3   9  -6 8510.14 1231.88   1
  -3   9  -6 11432.6 1129.77   2
  -3   9  -7 3757.97 859.475   1
  -3   9  -7 4099.25 669.761   4
  -3   9  -8 10780.9 1480.10   1
  -3   9  -8 12964.6 1218.76   4
  -3   9  -9 13699.2 1727.61   1
  -3   9  -9 11516.5 1231.24   4
  -3   9 -10 1238.67 758.982   1
  -3   9 -10 1090.68 521.618   4
  -3   9 -11 2423.60 706.041   4
  -3   9 -12 1050.98 401.237   4
   3  -8 -11 2366.88 915.807   5
   3  -8 -10 10558.3 1628.48   5
   3  -8  -9 8085.76 1381.17   5
   3  -8  -8 11259.1 1550.55   5
   3  -8  -7 583.613 461.914   5
   3  -8  -6 30615.4 2444.02   5
   3  -8  -5 16119.8 1682.24   5
   3  -8  -4 4903.53 960.297   5
   3  -8  -3 6008.85 1029.92   5
  -3   8   2 228.142 242.878   1
   3  -8  -2-383.425 369.153   5
  -3   8   1 2795.34 505.074   1
   3  -8  -1 1917.29 641.154   5
  -3   8   0 5138.76 699.198   1
   3  -8   0 6130.63 1096.48   5
  -3   8  -1 307.020 298.050   1
  -3   8  -1 209.405 211.230   4
   3  -8   1 166.051 295.304   5
  -3   8  -2 1119.60 413.202   2
  -3   8  -2 386.670 224.883   4
   3  -8   2 436.774 368.500   5
  -3   8  -2 1326.62 471.837   1
  -3   8  -3 34783.3 1867.29   4
  -3   8  -3 36210.2 2213.79   1
  -3   8  -3 37635.2 2206.44   2
  -3   8  -4 9384.21 1128.92   1
  -3   8  -4 10325.6 934.664   4
  -3   8  -4 9202.10 1038.07   2
  -3   8  -5 3036.44 720.565   1
  -3   8  -5 3065.05 591.523   2
  -3   8  -5 2779.34 512.192   4
  -3   8  -6 22925.3 1553.97   4
  -3   8  -6 21603.4 1514.96   2
  -3   8  -6 22116.2 1879.45   1
  -3   8  -7 5022.84 705.448   2
  -3   8  -7 5252.10 767.524   4
  -3   8  -7 4629.37 947.704   1
  -3   8  -8 45113.8 2478.34   4
  -3   8  -8 41222.1 2877.88   1
  -3   8  -9-271.736 382.765   4
  -3   8  -9 667.525 586.254   1
  -3   8 -10 82735.7 4455.76   1
  -3   8 -10 80571.8 3859.09   4
  -3   8 -11 2821.34 746.823   4
  -3   8 -12 9060.33 1286.27   4
  -3   8 -13 7507.83 1221.50   4
   3  -7 -12 2307.66 986.140   5
   3  -7 -11 1586.49 915.630   5
   3  -7 -10 19.5726 545.712   5
   3  -7  -9 1564.68 743.643   5
   3  -7  -8 10776.0 1558.05   5
   3  -7  -7 9427.50 1384.75   5
   3  -7  -6 12482.4 1537.49   5
  -3   7   5 16474.4 771.996   1
   3  -7  -5 22605.7 1967.01   5
  -3   7   4 48366.0 1800.51   1
   3  -7  -4 52868.7 3101.44   5
  -3   7   3 1961.86 322.561   1
   3  -7  -3 1772.71 647.296   5
  -3   7   2 54651.8 2209.70   1
   3  -7  -2 57915.0 3285.78   5
  -3   7   1 66120.5 2647.57   1
   3  -7  -1 71019.7 3794.78   5
  -3   7   0 70370.3 2867.08   1
   3  -7   0 75708.0 3988.72   5
  -3   7  -1 39401.5 2126.81   4
  -3   7  -1 35979.4 1934.10   1
   3  -7   1 33384.5 2529.11   5
  -3   7  -2 2184.58 461.724   4
   3  -7   2 1630.66 602.893   5
  -3   7  -2 1741.82 428.669   1
  -3   7  -3 90151.9 3612.14   4
  -3   7  -3 93757.6 3825.93   1
  -3   7  -3 95841.4 3728.48   2
  -3   7  -4 7925.21 868.072   4
  -3   7  -4 7254.93 936.059   1
  -3   7  -4 10082.0 988.646   2
  -3   7  -5 35560.2 1986.05   4
  -3   7  -5 33982.9 1951.83   2
  -3   7  -5 39081.0 2348.54   1
  -3   7  -6 12614.1 1155.03   4
  -3   7  -6 12885.4 1068.59   2
  -3   7  -6 10734.8 1277.64   1
  -3   7  -7 3867.92 681.118   4
  -3   7  -7 2491.27 696.540   1
  -3   7  -7 3672.57 560.712   2
  -3   7  -8 2170.45 700.589   1
  -3   7  -8 1072.45 417.186   4
  -3   7  -9 2186.66 590.889   4
  -3   7  -9 1333.13 614.562   1
  -3   7 -10 4578.10 868.299   4
  -3   7 -11 1426.23 639.812   4
  -3   7 -12 17201.8 1753.39   4
  -3   7 -13 1986.71 724.506   4
  -3   7 -14 14534.7 1726.07   4
   3  -6 -12-111.493 620.920   5
   3  -6 -11 17379.0 2222.36   5
   3  -6 -10 1601.52 766.140   5
   3  -6  -9 49704.7 3567.63   5
   3  -6  -8 31680.6 2676.19   5
   3  -6  -7 28262.9 2410.33   5
   3  -6  -6 2738.57 743.000   5
   3  -6  -5 16391.6 1700.84   5
  -3   6   4 3108.14 263.070   1
   3  -6  -4 2322.93 663.198   5
  -3   6   3 1975.27 263.410   1
   3  -6  -3 1740.59 565.660   5
  -3   6   2 10536.2 708.688   1
   3  -6  -2 9317.63 1238.44   5
   3  -6  -1 3489.86 795.580   5
  -3   6   1 3214.21 420.029   1
  -3   6   0 14667.1 1008.73   1
   3  -6   0 14333.9 1578.33   5
  -3   6  -1 22400.2 1351.81   1
   3  -6   1 20299.5 1936.02   5
  -3   6  -2 5327.06 738.981   4
  -3   6  -2 6079.18 714.507   1
   3  -6   2 5477.28 974.623   5
  -3   6  -3 2775.73 549.345   1
  -3   6  -3 3267.50 576.114   4
   3  -6   3 2715.44 697.559   5
  -3   6  -4 50579.6 2489.67   4
  -3   6  -4 46419.8 2464.46   1
  -3   6  -5 28099.5 1767.87   4
  -3   6  -5 27859.4 1600.89   2
  -3   6  -5 29778.3 1943.27   1
  -3   6  -6 560.542 244.979   2
  -3   6  -6 355.714 293.876   4
  -3   6  -6 140.914 314.252   1
  -3   6  -7 64022.3 3075.21   4
  -3   6  -7 66339.2 2595.19   2
  -3   6  -7 58405.3 3187.44   1
  -3   6  -8 170.390 356.057   4
  -3   6  -8 465.135 183.150   2
  -3   6  -9 8960.96 1126.96   4
  -3   6 -10 3016.31 741.065   4
  -3   6 -11 26701.4 2166.53   4
  -3   6 -12 5758.19 1064.92   4
  -3   6 -13 2977.64 844.246   4
  -3   6 -14 1131.52 682.819   4
   3  -5 -12 9362.48 1745.40   5
   3  -5 -11 2128.43 882.045   5
   3  -5 -10 989.825 680.991   5
   3  -5  -9 7394.15 1369.68   5
   3  -5  -8 4493.53 1007.59   5
   3  -5  -7 39324.8 2861.12   5
   3  -5  -6 2841.49 765.222   5
   3  -5  -5 17341.2 1748.04   5
   3  -5  -4 12050.3 1406.83   5
  -3   5   4 13308.0 1025.19   3
   3  -5  -3 77253.0 3968.78   5
  -3   5   3 91565.6 3403.69   3
   3  -5  -2 24551.9 1920.44   5
  -3   5   2 22791.7 994.302   1
   3  -5  -1 10999.6 1293.43   5
  -3   5   1 11280.6 724.682   1
   3  -5   0 22082.6 1951.58   5
  -3   5   0 23957.5 1219.83   1
   3  -5   1 2049.90 680.240   5
  -3   5  -1 1598.69 327.172   1
   3  -5   2 6907.33 1100.15   5
  -3   5  -2 8567.28 793.960   1
  -3   5  -3 1554.26 419.738   1
  -3   5  -3 1379.51 412.033   4
   3  -5   3 1388.23 559.417   5
  -3   5  -4 632.443 308.304   1
  -3   5  -4 471.848 258.374   4
  -3   5  -5 101.284 269.183   4
  -3   5  -5 386.584 304.676   1
  -3   5  -6 26885.0 1797.87   1
  -3   5  -6 27338.6 1812.39   4
  -3   5  -6 25123.2 1350.02   2
  -3   5  -7 21138.6 1636.71   4
  -3   5  -7 21298.8 1152.88   2
  -3   5  -8 17065.3 1533.86   4
  -3   5  -9 8212.61 1134.58   4
  -3   5 -10 374.425 382.421   4
  -3   5 -11 71372.0 3847.53   4
  -3   5 -12 801.135 493.243   4
  -3   5 -13 46980.6 3264.65   4
  -3   5 -14 3591.95 950.177   4
   3  -4 -13 3370.66 1346.03   5
   3  -4 -12 28649.5 3094.97   5
   3  -4 -11-195.865 520.132   5
   3  -4 -10 230.689 494.910   5
   3  -4  -9 9349.77 1497.89   5
   3  -4  -8 16060.6 1842.94   5
   3  -4  -7 3033.28 857.610   5
  -3   4   6 4905.02 528.690   3
   3  -4  -6 4464.32 920.211   5
   3  -4  -5 223.414 367.846   5
   3  -4  -4 6435.57 978.968   5
   3  -4  -3 97672.9 4391.94   5
   3  -4  -2 24.9837 278.820   5
   3  -4  -1 17017.1 1580.99   5
   3  -4   0 35858.0 2439.35   5
   3  -4   1 203517. 7632.47   5
   3  -4   2 30669.9 2368.20   5
  -3   4  -3 30944.2 1959.51   4
   3  -4   3 28354.2 2246.23   5
  -3   4  -4 82366.8 3620.49   4
  -3   4  -5 16679.4 1430.83   4
  -3   4  -6 40434.6 2353.22   4
  -3   4  -7 828.249 427.373   4
  -3   4  -7 914.765 198.672   2
  -3   4  -8 108469. 4624.42   4
  -3   4  -9 702.990 462.534   4
  -3   4 -10 1806.32 637.842   4
  -3   4 -11 951.384 533.135   4
  -3   4 -12 2426.41 720.086   4
  -3   4 -13 1107.25 678.484   4
  -3   4 -14 986.170 687.384   4
  -3   4 -15 3941.86 1093.56   4
   3  -3 -13 18971.2 2642.92   5
   3  -3 -12 11124.6 1931.15   5
   3  -3 -11 5791.44 1306.10   5
   3  -3 -10 86194.7 5079.16   5
   3  -3  -9 8140.29 1385.80   5
   3  -3  -8 24554.3 2334.80   5
  -3   3   7 6394.70 525.248   3
   3  -3  -7 5071.87 1050.86   5
   3  -3  -6 135942. 5833.64   5
   3  -3  -5 59175.6 3353.59   5
   3  -3  -4 44994.1 2758.74   5
   3  -3  -3 6443.19 961.303   5
   3  -3  -2 60870.7 3195.08   5
  -3   3   1 3838.92 666.015   5
   3  -3  -1 4021.54 756.629   5
   3  -3   0 5245.06 880.066   5
  -3   3   0 5640.83 832.684   5
   3  -3   1 12728.6 1445.25   5
  -3   3  -1 12724.2 1282.38   5
   3  -3   2 7329.54 1129.12   5
   3  -3   3 23910.5 1279.96   1
  -3   3  -3 20609.4 1558.64   4
   3  -3   3 20514.3 1877.18   5
   3  -3   4 71421.5 2839.43   1
  -3   3  -4 77356.5 3494.28   4
  -3   3  -5 1187.89 414.923   4
  -3   3  -6 722.059 366.979   4
  -3   3  -7 57232.3 2954.15   4
  -3   3  -7 48011.9 1535.42   2
  -3   3  -8 57117.5 3118.03   4
  -3   3  -9 7306.96 1087.46   4
  -3   3 -10 32504.2 2449.03   4
  -3   3 -11 5883.72 1082.76   4
  -3   3 -12 30169.3 2576.28   4
  -3   3 -13 7169.43 1322.83   4
  -3   3 -14 17932.7 2143.60   4
  -3   3 -15 8248.76 1524.34   4
   3  -2 -13 14342.3 2268.77   5
   3  -2 -12 3893.90 1150.98   5
   3  -2 -11 4663.58 1252.64   5
   3  -2 -10 351.167 514.378   5
   3  -2  -9 4309.36 1003.90   5
   3  -2  -8-269.990 377.926   5
   3  -2  -7 88.2576 385.165   5
   3  -2  -6 23982.6 2085.97   5
   3  -2  -5 10240.0 1291.92   5
   3  -2  -4 27372.2 2068.94   5
   3  -2  -3 1116.01 427.080   5
   3  -2  -2 25474.9 1893.31   5
   3  -2  -1 7413.73 1003.00   5
   3  -2   0 105089. 3143.19   1
   3  -2   0 104165. 4479.48   5
   3  -2   1 51383.9 3032.12   5
   3  -2   1 57548.3 2034.77   1
   3  -2   2 28123.2 1331.74   1
   3  -2   2 27581.3 2190.34   5
  -3   2  -3 12634.7 1220.05   4
   3  -2   3 15017.6 968.345   1
   3  -2   3 11658.2 1396.87   5
   3  -2   4 2629.08 415.734   1
  -3   2  -4 3088.16 606.512   4
   3  -2   4 2576.17 730.001   5
   3  -2   5 3312.14 520.546   1
  -3   2  -5 3938.62 812.293   4
  -3   2  -6 742.261 417.548   4
  -3   2  -7 6507.89 984.695   4
  -3   2  -7 4826.17 316.923   2
  -3   2  -8-196.156 297.442   4
  -3   2  -9 48504.8 3004.62   4
  -3   2 -10 13795.4 1571.33   4
  -3   2 -11 9299.13 1369.16   4
  -3   2 -12 9116.48 1409.55   4
  -3   2 -13 14685.6 1869.22   4
  -3   2 -14 42646.0 3386.55   4
  -3   2 -15 2160.11 889.048   4
   3  -1 -13 9688.15 1933.75   5
   3  -1 -12-305.162 648.756   5
   3  -1 -11 34938.1 3305.32   5
   3  -1 -10 22485.9 2528.01   5
   3  -1  -9 17913.5 2106.20   5
   3  -1  -8 8648.27 1377.88   5
  -3   1   8 8425.77 663.568   3
   3  -1  -7 13587.3 1628.44   5
   3  -1  -6-276.531 324.517   5
   3  -1  -5-3.98436 291.623   5
   3  -1  -4 13243.2 1393.11   5
   3  -1  -3 22702.2 1771.80   5
   3  -1  -2 70107.2 3360.10   5
   3  -1  -1 78309.2 3599.90   5
   3  -1   0 25898.7 1865.24   5
   3  -1   1 4260.23 788.839   5
   3  -1   2 122586. 5187.45   5
   3  -1   3 588.457 331.037   5
  -3   1  -4 134674. 5192.20   4
   3  -1   4 128988. 5664.60   5
  -3   1  -5 150713. 5721.70   4
   3  -1   5 138905. 4707.33   1
  -3   1  -6 142337. 5520.42   4
  -3   1  -6 116613. 3652.36   2
  -3   1  -7 32198.5 2296.54   4
  -3   1  -7 25127.0 1109.68   2
  -3   1  -8 4774.47 904.046   4
  -3   1  -9 105999. 4914.83   4
  -3   1 -10 5712.87 1051.04   4
  -3   1 -11 39554.7 2942.29   4
  -3   1 -12 2109.19 832.016   4
  -3   1 -13 8436.39 1481.19   4
  -3   1 -14 4330.16 1163.44   4
  -3   1 -15 1046.66 734.489   4
   3   0 -13 10847.3 2064.01   5
   3   0 -12 4938.84 1318.67   5
   3   0 -11 3718.26 1058.65   5
   3   0 -10 12483.8 1871.89   5
   3   0  -9 22827.3 2375.45   5
   3   0  -8 33591.9 2793.93   5
  -3   0   8 40665.8 1792.28   3
   3   0  -7 85006.9 4415.12   5
   3   0  -6 3804.78 826.453   5
   3   0  -6 4804.31 424.680   1
   3   0  -5 72884.4 3766.39   5
   3   0  -5 76767.8 2371.50   1
   3   0  -4 40295.2 2497.02   5
   3   0  -3 169208. 6165.50   5
   3   0  -2 98185.4 4132.75   5
   3   0  -1 67892.9 3225.04   5
   3   0   0 12275.9 1201.32   5
   3   0   1 84954.8 3837.91   5
   3   0   2 11356.4 1309.61   5
   3   0   3 5620.76 915.231   5
  -3   0  -4 12088.5 1178.45   4
   3   0   4 12815.8 1382.77   5
  -3   0  -5 6681.15 569.377   2
  -3   0  -5 5454.39 875.738   4
  -3   0  -5 5983.58 929.228   5
  -3   0  -6 20786.0 1814.59   4
  -3   0  -6 17070.7 983.878   2
  -3   0  -7 23209.3 1928.35   4
  -3   0  -7 20537.6 1153.48   2
  -3   0  -8 67.4550 290.152   4
  -3   0  -9 6654.22 1092.80   4
  -3   0 -10 56923.4 3464.09   4
  -3   0 -11 18002.2 1936.10   4
  -3   0 -12 470.963 522.042   4
  -3   0 -13 24471.6 2473.59   4
  -3   0 -14-164.190 542.663   4
  -3   0 -15 12149.5 1901.78   4
   3   1 -13 22186.4 3005.13   5
   3   1 -12 19270.4 2647.56   5
   3   1 -11 9833.57 1737.62   5
   3   1 -10 45928.5 3703.66   5
  -3  -1   9 1821.75 362.605   3
   3   1  -9 2303.57 774.900   5
  -3  -1   8 2877.93 483.709   3
   3   1  -8 2667.51 732.748   5
   3   1  -7 282.243 191.519   1
  -3  -1   7 371.461 211.510   3
   3   1  -7 340.633 366.135   5
   3   1  -6 7335.25 615.898   1
   3   1  -6 5559.85 967.795   5
   3   1  -5-81.2614 290.822   5
   3   1  -4 2570.41 638.136   5
   3   1  -3 25645.0 1874.06   5
  -3  -1   3 32389.4 1998.27   5
   3   1  -2 11342.2 1177.36   5
   3   1  -1 83245.3 3612.49   5
   3   1   0 1375.56 406.506   5
   3   1   1 15547.1 1382.66   5
   3   1   2 6788.55 975.772   5
   3   1   3 101050. 4350.01   5
  -3  -1  -4 75304.3 2757.29   2
  -3  -1  -4 72537.8 3278.81   4
  -3  -1  -5 40440.7 2389.86   4
  -3  -1  -5 45114.6 2591.21   5
  -3  -1  -5 40868.6 1834.29   2
  -3  -1  -6 1153.35 291.460   2
  -3  -1  -6 1043.36 434.674   5
  -3  -1  -7 1974.36 396.512   2
  -3  -1  -7 3436.63 748.540   4
  -3  -1  -8 12812.1 1440.21   4
  -3  -1  -8 11451.0 904.649   2
  -3  -1  -9 184.024 363.639   4
  -3  -1 -10 358.638 435.335   4
  -3  -1 -11 520.416 502.377   4
  -3  -1 -12 7441.17 1326.74   4
  -3  -1 -13 21713.1 2339.58   4
  -3  -1 -14 13285.2 1916.83   4
  -3  -1 -15 263.820 590.494   4
   3   2 -13 19352.9 2779.29   5
   3   2 -12 915.264 576.540   5
   3   2 -11 3087.44 1043.01   5
   3   2 -10 34008.5 3148.90   5
   3   2  -9 12453.9 1105.93   1
  -3  -2   9 13657.2 1115.67   3
   3   2  -9 11556.8 1732.68   5
   3   2  -8 22448.0 2264.63   5
  -3  -2   8 28997.0 1701.92   3
  -3  -2   7 2748.00 509.409   3
   3   2  -7 1422.93 539.520   5
   3   2  -6 91830.8 4457.60   5
  -3  -2   6 99349.5 3709.69   3
   3   2  -5 86.6303 262.322   5
   3   2  -4 3264.32 662.624   5
   3   2  -3 27116.4 1880.07   5
  -3  -2   3 32731.5 1941.51   5
   3   2  -2 56710.5 2824.27   5
   3   2  -1 2903.53 587.272   5
  -3  -2   0 20902.1 1373.20   5
   3   2   0 19281.4 1456.86   5
  -3  -2  -1 10791.6 949.061   5
   3   2   1 8771.37 1000.34   5
  -3  -2  -2 552.944 223.865   2
   3   2   2 703.792 314.306   5
  -3  -2  -2 640.280 269.424   5
  -3  -2  -3 129261. 4550.15   5
   3   2   3 121421. 4833.93   5
  -3  -2  -3 124292. 4199.70   2
  -3  -2  -4 26832.6 1729.98   4
  -3  -2  -4 27084.5 1490.57   2
  -3  -2  -5 5792.70 811.570   4
  -3  -2  -5 5560.13 638.004   2
  -3  -2  -6 11880.7 1244.10   4
  -3  -2  -6 12518.0 1304.68   5
  -3  -2  -6 11268.4 969.992   2
  -3  -2  -7 231926. 7649.09   4
  -3  -2  -7 194004. 6705.02   2
  -3  -2  -8 28150.1 2128.92   4
  -3  -2  -8 21709.4 1525.29   2
  -3  -2  -9 45677.1 2900.17   4
  -3  -2 -10 62611.9 3621.25   4
  -3  -2 -11 49089.5 3263.79   4
  -3  -2 -12 15970.3 1880.48   4
  -3  -2 -13-227.335 541.358   4
  -3  -2 -14 56864.4 3962.15   4
  -3  -2 -15-663.057 708.194   4
   3   3 -13 24405.5 3147.41   5
   3   3 -12-1456.20 857.928   5
   3   3 -11 3399.62 1104.62   5
   3   3 -10 5013.36 818.985   1
   3   3 -10 3269.08 1012.41   5
  -3  -3   9 2276.14 510.777   3
   3   3  -9 1157.22 565.595   5
   3   3  -9 1874.08 509.584   1
  -3  -3   8 2379.96 525.083   3
   3   3  -8 2501.79 521.463   1
   3   3  -8 2538.50 771.448   5
   3   3  -7 51885.4 3325.11   5
  -3  -3   7 60299.3 2809.54   3
   3   3  -6 12072.0 1392.22   5
  -3  -3   6 12058.8 1109.01   3
   3   3  -5 20842.0 1771.37   5
  -3  -3   5 22443.0 1517.22   3
   3   3  -4 71415.2 3424.32   5
   3   3  -3 29181.2 1901.44   5
   3   3  -2 72873.8 3238.30   5
   3   3  -1 71906.8 3144.35   5
  -3  -3   0 213735. 6845.84   2
   3   3   0 225519. 7184.27   5
  -3  -3   0 234803. 6915.82   5
  -3  -3  -1 28394.1 1608.09   2
   3   3   1 30784.8 1883.04   5
  -3  -3  -1 29665.7 1602.84   5
  -3  -3  -2 32838.9 1693.28   5
   3   3   2 29416.3 1903.10   5
  -3  -3  -2 28597.2 1662.41   2
  -3  -3  -3 4152.95 622.946   4
   3   3   3 4716.21 720.059   5
  -3  -3  -3 3991.20 537.785   5
  -3  -3  -3 3332.92 515.255   2
  -3  -3  -4 143432. 5057.63   4
  -3  -3  -4 141723. 4890.40   5
  -3  -3  -4 140526. 4833.11   2
  -3  -3  -5 13203.5 1212.93   4
  -3  -3  -5 14040.4 1140.60   2
  -3  -3  -6 12428.9 1233.07   4
  -3  -3  -6 13391.6 1165.14   2
  -3  -3  -7-196.929 243.375   2
  -3  -3  -7 847.373 436.834   4
  -3  -3  -8 1073.31 421.052   2
  -3  -3  -8 1065.99 434.507   4
  -3  -3  -9 3436.23 786.103   4
  -3  -3 -10 27197.5 2221.54   4
  -3  -3 -11 2064.94 728.403   4
  -3  -3 -12 589.691 485.444   4
  -3  -3 -13 28296.4 2582.84   4
  -3  -3 -14 36833.7 3057.61   4
  -3  -3 -15 3327.69 943.487   4
   3   4 -13 5476.68 1539.43   5
   3   4 -12 39614.6 3750.82   5
   3   4 -11 1663.30 930.192   5
   3   4 -11 2251.14 726.127   1
   3   4 -10 23883.1 1886.29   1
   3   4 -10 13949.0 1986.23   5
   3   4  -9 58179.9 3029.75   1
  -3  -4   9 58047.1 2959.79   3
   3   4  -8 39854.3 2351.23   1
   3   4  -8 33660.0 2761.11   5
  -3  -4   8 40409.6 2387.19   3
   3   4  -7 41927.7 2924.03   5
  -3  -4   7 49711.5 2640.87   3
  -3  -4   6 803.609 325.134   3
   3   4  -6 612.766 438.813   5
  -3  -4   5 5129.49 762.855   3
   3   4  -5 5341.64 864.276   5
   3   4  -4 15162.7 1374.94   5
  -3  -4   4 14229.1 1258.25   3
   3   4  -3 12051.1 1142.96   5
  -3  -4   3 9873.30 1044.40   3
   3   4  -2 4660.11 681.961   5
   3   4  -1 294.847 260.474   5
  -3  -4   1-55.1406 155.013   5
   3   4   0 28139.1 1692.23   5
  -3  -4   0 32206.3 1616.81   5
   3   4   1 5332.61 712.030   5
  -3  -4  -1 4400.03 539.028   5
  -3  -4  -2 75870.8 2858.39   5
   3   4   2 72604.2 3143.23   5
  -3  -4  -3 103.166 216.933   4
  -3  -4  -3 297.111 155.421   5
  -3  -4  -4 20379.8 1423.88   4
  -3  -4  -4 18472.7 1200.21   5
  -3  -4  -5 9299.58 974.632   4
  -3  -4  -5 8779.67 880.232   5
  -3  -4  -6 109441. 4334.49   4
  -3  -4  -7 64709.9 3177.77   4
   3   4   7 65387.3 3075.93   2
  -3  -4  -7 62353.1 3154.28   5
  -3  -4  -8 11549.1 1294.43   4
   3   4   8 10116.5 1087.42   2
  -3  -4  -9 9177.18 1210.74   4
   3   4   9 8634.35 999.793   2
  -3  -4 -10 10852.1 1339.98   4
   3   4  10 9261.29 1032.17   2
   3   4  11 1756.11 433.728   2
  -3  -4 -11 1224.42 541.248   4
  -3  -4 -12 2830.13 821.604   4
  -3  -4 -13 5019.57 1055.59   4
  -3  -4 -14-372.803 639.500   4
  -3  -4 -15 8292.14 1455.53   4
   3   5 -12-161.939 534.784   5
   3   5 -11 136.993 432.710   1
   3   5 -11-1206.36 740.839   5
   3   5 -10 18626.8 2239.89   5
   3   5 -10 21808.4 1958.05   1
   3   5  -9 15594.4 1602.94   1
   3   5  -9 14055.8 1791.23   5
  -3  -5   9 14496.5 1456.69   3
   3   5  -8 32746.5 2634.44   5
  -3  -5   8 34606.9 2358.21   3
  -3  -5   7 5539.45 882.658   3
   3   5  -7 5058.82 960.840   5
  -3  -5   6 2058.16 590.038   3
   3   5  -6 1675.20 464.468   5
   3   5  -5 87203.1 3980.48   5
  -3  -5   5 89275.6 3910.27   3
   3   5  -4 32088.1 2054.92   5
  -3  -5   4 32584.4 2073.98   3
   3   5  -3 46645.1 2415.15   5
  -3  -5   3 45109.4 2509.21   3
   3   5  -2 20591.6 1426.00   5
  -3  -5   2 18424.5 1482.22   3
   3   5  -1 25788.7 1573.92   5
  -3  -5   1 24921.0 1730.58   3
   3   5   0 162.010 205.657   5
  -3  -5   0 113.441 128.235   5
   3   5   1 95.4260 174.292   5
  -3  -5  -1 291.690 172.255   5
   3   5   2 37616.0 1899.55   5
  -3  -5  -2 39764.5 1715.06   5
  -3  -5  -3 5921.54 687.244   4
  -3  -5  -3 5663.59 553.375   5
  -3  -5  -4 18738.7 1297.20   4
  -3  -5  -4 16633.5 1037.53   5
   3   5   5 46884.8 2646.91   2
  -3  -5  -5 46944.7 2285.04   4
   3   5   6 36758.9 2325.38   2
  -3  -5  -6 37343.8 2106.72   4
  -3  -5  -7 45.9888 243.353   4
   3   5   7 544.190 463.547   2
   3   5   8 57267.1 3040.80   2
  -3  -5  -8 54222.5 2910.18   4
  -3  -5  -9 6860.34 996.736   4
   3   5   9 5147.78 909.974   2
  -3  -5 -10 40387.3 2639.81   4
   3   5  10 37569.8 2389.60   2
  -3  -5 -11 48726.4 3077.79   4
   3   5  11 47853.9 2724.70   2
   3   5  12 74522.0 3553.16   2
  -3  -5 -12 79322.0 4201.44   4
  -3  -5 -13 4370.96 1044.88   4
  -3  -5 -14 15890.1 1909.05   4
  -3  -5 -15 21278.4 2267.08   4
   3   6 -12 8341.49 1643.40   5
   3   6 -11 9330.59 1617.98   5
   3   6 -11 10322.6 1501.76   1
   3   6 -10 15731.6 1797.33   1
   3   6 -10 14465.8 1893.15   5
  -3  -6  10 16751.2 1656.86   3
  -3  -6   9 4713.81 877.171   3
   3   6  -9 3135.32 798.457   1
   3   6  -9 3401.17 881.508   5
  -3  -6   8 56.2278 290.698   3
   3   6  -8 94.2908 333.949   5
   3   6  -7 15417.3 1616.72   5
  -3  -6   7 12809.7 1447.70   3
  -3  -6   6 885.106 386.106   3
   3   6  -6 1308.80 469.722   5
   3   6  -5 14525.6 1386.02   5
  -3  -6   5 13604.5 1418.46   3
   3   6  -4 70984.0 3287.96   5
  -3  -6   4 72677.5 3549.81   3
   3   6  -3 14584.8 1218.59   5
  -3  -6   3 14083.8 1379.84   3
   3   6  -2 20592.9 1380.79   5
  -3  -6   2 21037.2 1276.17   4
  -3  -6   2 21438.5 1690.76   3
   3   6  -1 51182.1 2268.05   5
  -3  -6   1 49442.2 2721.06   3
   3   6   0 24219.1 1375.54   5
  -3  -6   0 24095.2 1780.74   3
  -3  -6  -1 73638.5 2522.22   5
   3   6   1 71016.3 2738.87   5
  -3  -6  -1 76767.9 3478.96   3
  -3  -6  -2 42880.0 2008.03   4
  -3  -6  -2 39765.4 1603.94   5
  -3  -6  -2 43844.4 2498.95   3
  -3  -6  -3 138809. 4616.71   4
  -3  -6  -3 135464. 4136.21   5
   3   6   4 6971.85 1069.94   2
  -3  -6  -4 6039.58 693.183   4
  -3  -6  -4 4911.09 476.793   5
   3   6   5 17490.6 1704.49   2
  -3  -6  -5 20140.2 1332.91   4
  -3  -6  -6 1924.64 367.609   5
   3   6   6 2843.17 684.805   2
   3   6   7 101260. 4687.41   2
  -3  -6  -7 106416. 4148.83   4
  -3  -6  -8 5648.93 848.311   4
   3   6   8 4233.90 833.653   2
  -3  -6  -9 8396.35 1083.33   4
   3   6   9 8120.73 1161.31   2
  -3  -6  -9 8209.25 1068.82   3
  -3  -6 -10 872.215 532.346   4
  -3  -6 -10 273.445 340.231   3
   3   6  10 90.5365 327.275   2
  -3  -6 -11 344.436 405.404   4
  -3  -6 -11 667.087 376.353   3
   3   6  11 1043.88 574.743   2
  -3  -6 -12 7040.13 1136.25   4
   3   6  12 6510.46 1017.23   2
  -3  -6 -13 10247.9 1434.18   4
  -3  -6 -14 1538.13 792.773   4
  -3  -6 -15 2368.23 749.371   4
   3   7 -12-2016.31 876.078   5
   3   7 -11 70495.3 4340.67   1
   3   7 -11 58550.9 4149.82   5
  -3  -7  10 1736.30 571.581   3
   3   7 -10 1841.64 781.058   1
   3   7 -10 968.001 608.650   5
   3   7  -9 34600.8 2713.85   5
  -3  -7   9 35995.9 2623.70   3
  -3  -7   8 5648.53 1026.93   3
   3   7  -8 4392.87 870.154   5
   3   7  -7 28354.1 2167.33   5
  -3  -7   7 30344.3 2381.11   3
   3   7  -6 20031.4 1715.17   5
  -3  -7   6 19624.0 1867.22   3
   3   7  -5 20978.6 1640.41   5
  -3  -7   5 20085.2 1850.65   3
   3   7  -4 69852.0 3149.17   5
  -3  -7   4 68038.1 3646.44   3
  -3  -7   3 5975.68 985.918   3
   3   7  -3 6961.19 781.273   5
  -3  -7   2 84.1321 157.379   4
  -3  -7   2 419.446 326.432   3
   3   7  -2 490.721 208.936   5
  -3  -7   1 3969.16 759.374   3
   3   7  -1 3944.22 491.610   5
  -3  -7   0 5088.43 858.580   3
   3   7   0 4706.42 502.098   5
  -3  -7  -1-47.5902 337.336   3
  -3  -7  -2 2494.14 636.302   3
  -3  -7  -2 2212.95 385.367   4
  -3  -7  -3 18836.1 1181.87   4
  -3  -7  -3 17649.5 757.494   5
  -3  -7  -4 143.283 163.993   4
  -3  -7  -4 195.383 353.158   3
  -3  -7  -4 557.260 141.715   5
   3   7   5 47123.9 3036.43   2
  -3  -7  -5 44897.1 2104.45   4
  -3  -7  -5 44144.3 2682.36   3
  -3  -7  -6 10.5692 200.441   4
  -3  -7  -6 448.591 371.332   3
   3   7   6 58.3514 369.429   2
  -3  -7  -7 34717.7 1951.95   4
  -3  -7  -7 34199.2 2306.99   3
   3   7   7 33475.1 2543.44   2
  -3  -7  -8-153.976 273.208   4
  -3  -7  -8 366.954 371.803   3
   3   7   8 127.527 423.930   2
  -3  -7  -9 36633.8 2419.87   3
   3   7   9 37463.1 2670.44   2
  -3  -7  -9 39407.6 2332.53   4
  -3  -7 -10 33736.4 2286.40   3
   3   7  10 28238.2 2332.98   2
  -3  -7 -10 36482.5 2298.02   4
  -3  -7 -11 25417.5 1947.26   3
   3   7  11 22527.3 2031.42   2
  -3  -7 -11 26382.7 2030.94   4
  -3  -7 -12 3362.86 779.452   4
   3   7  12 1686.64 543.244   2
  -3  -7 -13 4344.21 906.914   4
  -3  -7 -14 4248.79 918.013   4
   3   8 -11 1760.69 876.903   1
   3   8 -11-1130.35 661.089   5
  -3  -8  10 656.545 513.196   3
   3   8 -10 1709.93 830.417   1
   3   8 -10 1083.84 493.506   5
  -3  -8   9 759.248 451.279   3
   3   8  -9 858.607 435.175   5
  -3  -8   8 8601.70 1283.17   3
   3   8  -8 9579.84 1277.67   5
   3   8  -7 50366.3 2946.57   5
  -3  -8   7 48194.2 3244.17   3
  -3  -8   6 2409.91 744.100   3
   3   8  -6 3764.98 726.217   5
   3   8  -5 11403.9 1152.16   5
  -3  -8   5 11204.6 1477.39   3
   3   8  -4 24442.5 1595.20   5
  -3  -8   4 23574.6 2104.31   3
   3   8  -3 30921.6 1661.14   5
  -3  -8   3 28349.3 2294.08   3
   3   8  -2 20867.6 1188.69   5
  -3  -8   2 24491.9 2071.11   3
  -3  -8   1 1534.18 599.116   3
   3   8  -1 1424.38 244.803   5
  -3  -8   0 119177. 5200.45   3
  -3  -8  -1 4139.90 497.412   4
  -3  -8  -1 4362.82 841.119   3
  -3  -8  -2 4777.46 518.020   4
  -3  -8  -2 6227.61 1002.38   3
   3   8   3 6716.09 1147.71   2
  -3  -8  -3 6376.77 611.952   4
  -3  -8  -3 6479.88 1046.20   3
   3   8   4 22835.3 2166.46   2
  -3  -8  -4 23290.9 1281.87   4
  -3  -8  -4 25405.3 2098.06   3
  -3  -8  -5 3007.94 741.217   3
  -3  -8  -5 2265.97 413.876   4
   3   8   5 1976.14 702.804   2
  -3  -8  -6 1840.83 639.737   3
  -3  -8  -6 1728.70 402.379   4
   3   8   6 1665.40 652.491   2
  -3  -8  -7 269.547 344.267   3
  -3  -8  -7 551.189 256.887   4
   3   8   7 142.687 457.771   2
  -3  -8  -8 585.234 415.364   3
  -3  -8  -8 524.178 341.371   4
   3   8   8-466.409 498.029   2
  -3  -8  -9 35591.9 2487.35   3
   3   8   9 29820.2 2509.38   2
  -3  -8  -9 34390.0 2070.48   4
   3   8  10 10737.6 1443.31   2
  -3  -8 -10 12136.7 1419.84   3
  -3  -8 -10 12555.8 1240.12   4
  -3  -8 -11 5988.01 1022.58   3
  -3  -8 -11 6230.77 950.264   4
   3   8  11 4219.50 949.895   2
   3   8  12-328.599 446.159   2
   3   9 -10 44515.1 3662.27   1
  -3  -9   9 3936.12 1039.05   3
  -3  -9   8 604.712 507.025   3
  -3  -9   7 17956.5 1959.94   3
  -3  -9   6-261.636 552.875   3
  -3  -9   5 411.078 464.625   3
  -3  -9   4 4726.20 991.160   3
  -3  -9   3 39.8237 493.806   3
  -3  -9   2 4900.70 1020.56   3
  -3  -9   1 62335.6 3662.17   3
  -3  -9   0 3176.49 858.470   3
  -3  -9  -1 12237.3 1530.54   3
  -3  -9  -2 15178.1 1686.46   3
   3   9   3 23380.0 2298.57   2
  -3  -9  -3 24959.0 2194.05   3
   3   9   4 49137.9 3369.33   2
  -3  -9  -4 49290.2 3202.95   3
   3   9   5 33102.6 2729.52   2
  -3  -9  -5 35047.4 2658.48   3
  -3  -9  -6 84682.7 4423.63   3
   3   9   6 83293.4 4554.18   2
  -3  -9  -7 5011.81 1032.89   3
   3   9   7 4768.31 1041.42   2
  -3  -9  -8 11713.6 1510.13   3
   3   9   8 10709.2 1506.68   2
  -3  -9  -9 2069.47 708.142   3
   3   9   9 2137.07 678.433   2
  -3  -9 -10 35949.5 2651.30   3
   3   9  10 31203.0 2605.08   2
   3   9  11 8246.40 1367.89   2
   3   9  12 7290.81 1242.30   2
  -3 -10   9 3154.89 881.985   3
  -3 -10   8 43449.4 3298.84   3
  -3 -10   7 3161.94 861.563   3
  -3 -10   6 47619.4 3421.72   3
  -3 -10   5 868.105 560.510   3
  -3 -10   4 35012.9 2886.05   3
  -3 -10   3 28901.1 2606.09   3
  -3 -10   2 15566.8 1848.47   3
  -3 -10   1 27312.5 2459.30   3
  -3 -10   0 7127.84 1272.54   3
  -3 -10  -1 4547.60 1050.13   3
  -3 -10  -2 6489.77 1249.42   3
   3  10   3 1846.93 714.737   2
  -3 -10  -3 2128.85 807.559   3
   3  10   4 826.905 600.820   2
  -3 -10  -4 434.377 514.485   3
  -3 -10  -5 3275.13 937.058   3
   3  10   5 2556.65 868.143   2
   3  10   6 15962.6 1900.25   2
  -3 -10  -6 14483.3 1804.19   3
  -3 -10  -7-942.922 607.496   3
   3  10   7 641.311 462.073   2
  -3 -10  -8 29964.5 2597.76   3
   3  10   8 31549.7 2696.75   2
  -3 -10  -9 550.522 556.183   3
   3  10   9-10.9006 448.663   2
  -3 -10 -10 18275.9 1963.41   3
   3  10  10 17959.5 1989.28   2
   3  10  11 107.792 495.834   2
   3  10  12 23882.6 2313.15   2
  -3 -11   6 2428.56 851.175   3
  -3 -11   5-429.568 523.094   3
  -3 -11   4 8884.22 1518.14   3
  -3 -11   3 19628.1 2211.22   3
  -3 -11   2 48642.6 3559.76   3
  -3 -11   1 252.922 484.745   3
  -3 -11   0 2877.44 940.389   3
  -3 -11  -1 44616.2 3396.96   3
  -3 -11  -2 16067.6 1963.02   3
   3  11   3 34644.4 2953.54   2
  -3 -11  -3 34350.4 2983.47   3
   3  11   4 825.760 543.225   2
  -3 -11  -4 3078.49 956.596   3
   3  11   5 20075.3 2213.28   2
  -3 -11  -5 25377.0 2498.57   3
  -3 -11  -6 3503.47 968.687   3
   3  11   6 2211.29 798.189   2
  -3 -11  -7 1787.27 758.767   3
   3  11   7 1174.88 636.658   2
  -3 -11  -8 11459.5 1677.16   3
   3  11   8 10315.9 1550.53   2
  -3 -11  -9 651.100 630.038   3
   3  11   9 990.929 668.061   2
   3  11  10 2793.94 906.719   2
  -3 -12   2 1030.86 693.296   3
  -3 -12   1 7683.81 1462.02   3
  -3 -12   0 240.618 610.758   3
  -3 -12  -1 2034.83 820.672   3
  -3 -12  -2 35949.8 3181.29   3
   3  12   3 5038.33 1185.95   2
  -3 -12  -3 4057.05 1148.67   3
   3  12   4 8463.44 1543.62   2
  -3 -12  -4 8937.63 1577.82   3
   3  12   5 5453.34 1214.65   2
  -3 -12  -5 6612.40 1419.49   3
  -3 -12  -6 10635.4 1744.87   3
   3  12   6 11485.3 1684.72   2
  -3 -12  -7 22289.4 2535.37   3
  -3 -12  -8 16944.5 2168.02   3
  -4  12   1-646.887 555.049   2
  -4  12   0 17043.3 1826.50   2
  -4  12  -1 6687.06 1119.41   2
  -4  12  -2 11396.1 1395.27   2
  -4  12  -3 8045.17 1220.72   2
  -4  12  -4 7900.25 1259.45   1
  -4  12  -5-298.851 453.311   1
  -4  12  -6 2279.82 795.911   1
  -4  11   3 2174.41 732.581   2
  -4  11   2 429.593 373.937   2
  -4  11   1-6.93874 363.851   2
  -4  11   0 4567.46 923.654   2
   4 -11   0 4366.08 957.064   5
  -4  11  -1-1662.48 601.648   2
  -4  11  -2 6476.71 1026.79   2
  -4  11  -2 11729.0 1333.39   1
  -4  11  -3 14.5387 191.724   2
  -4  11  -3-323.144 368.105   1
  -4  11  -4 36292.6 2389.36   2
  -4  11  -4 19866.5 1959.65   1
  -4  11  -5-661.717 480.050   1
  -4  11  -6 6457.58 1192.42   1
  -4  11  -7 3912.88 976.189   1
   4 -10  -7 3976.60 1084.39   5
   4 -10  -6 9384.74 1581.69   5
   4 -10  -5 15387.7 1953.82   5
   4 -10  -4 612.528 572.448   5
   4 -10  -3 5721.29 1242.31   5
   4 -10  -2 226.005 566.884   5
   4 -10  -1 24647.0 2369.23   5
  -4  10   0 882.581 473.601   2
   4 -10   0-701.303 505.260   5
  -4  10  -1-584.537 397.990   2
   4 -10   1 97.4750 466.138   5
  -4  10  -2 1917.99 621.793   2
  -4  10  -2 2237.75 605.056   1
  -4  10  -3-485.636 359.723   2
  -4  10  -3 312.918 395.232   1
  -4  10  -4-349.832 427.449   1
  -4  10  -4 1149.91 410.337   2
  -4  10  -5 1352.28 472.734   2
  -4  10  -5 1609.25 579.002   1
  -4  10  -6 1871.21 717.140   1
  -4  10  -7 1081.59 667.443   1
   4  -9  -9 1578.34 889.430   5
   4  -9  -8 10334.1 1751.37   5
   4  -9  -7-368.743 474.015   5
   4  -9  -6 13624.7 1864.06   5
   4  -9  -5 1246.47 679.028   5
   4  -9  -4 2198.00 799.783   5
   4  -9  -3 3995.62 1126.15   5
   4  -9  -2 25399.0 2511.60   5
   4  -9  -1 1072.62 625.662   5
  -4   9   0 14656.1 1363.85   4
   4  -9   0 14443.0 1830.98   5
  -4   9   0 15225.5 1258.08   1
  -4   9  -1 80581.2 3427.80   4
   4  -9   1 70845.5 4181.25   5
  -4   9  -1 73964.9 3359.94   1
  -4   9  -2 1467.29 449.146   1
  -4   9  -2 1468.40 533.271   2
  -4   9  -2 1000.13 325.424   4
   4  -9   2 1211.70 608.496   5
  -4   9  -3 12910.6 1191.88   4
  -4   9  -3 13386.6 1354.17   2
  -4   9  -3 11840.1 1306.01   1
  -4   9  -4 3395.57 738.203   2
  -4   9  -4 3856.76 678.238   4
  -4   9  -4 4321.28 824.859   1
  -4   9  -5 57285.8 2792.57   4
  -4   9  -5 57948.9 2995.57   2
  -4   9  -5 56017.9 3267.37   1
  -4   9  -6 4673.33 970.762   1
  -4   9  -6 2772.06 604.142   4
  -4   9  -7 2432.67 580.389   4
  -4   9  -8 4342.39 794.451   4
  -4   9  -9 5853.88 948.494   4
  -4   9 -10 1400.25 577.238   4
  -4   9 -11 3412.18 918.252   4
   4  -8 -10 3499.94 1194.36   5
   4  -8  -9 39658.6 3466.46   5
   4  -8  -8 6772.29 1437.80   5
   4  -8  -7 30738.0 2861.53   5
   4  -8  -6 5038.98 1172.97   5
   4  -8  -5 4667.20 1050.75   5
   4  -8  -4 13514.7 1726.02   5
   4  -8  -3 8373.29 1403.64   5
   4  -8  -2 9567.03 1516.36   5
  -4   8   1 447.736 219.565   1
   4  -8  -1 382.080 650.377   5
   4  -8   0 553.562 605.199   5
  -4   8   0 41.5961 214.675   1
  -4   8  -1 7626.51 987.214   4
   4  -8   1 7529.98 1346.64   5
  -4   8  -1 6099.29 785.876   1
  -4   8  -2 3063.21 607.318   4
   4  -8   2 2445.00 725.208   5
  -4   8  -2 2274.32 544.857   1
  -4   8  -3 1541.19 479.236   1
  -4   8  -3 602.018 339.530   4
  -4   8  -4 691.442 336.747   2
  -4   8  -4 90.9227 299.992   4
  -4   8  -4-28.5205 332.254   1
  -4   8  -5 20915.5 1791.93   1
  -4   8  -5 19123.8 1533.99   4
  -4   8  -5 20577.1 1561.94   2
  -4   8  -6 3331.10 631.209   2
  -4   8  -6 2386.50 577.428   4
  -4   8  -7 49728.3 2739.44   4
  -4   8  -8 4595.73 826.631   4
  -4   8  -9 14846.8 1482.24   4
  -4   8 -10 430.313 340.478   4
  -4   8 -11 9521.44 1329.51   4
  -4   8 -12 12766.3 1561.44   4
   4  -7 -10 1079.25 739.266   5
   4  -7  -9 4682.22 1206.08   5
   4  -7  -8 2427.43 862.878   5
   4  -7  -7 4485.97 1105.33   5
   4  -7  -6 6003.48 1256.24   5
   4  -7  -5 22434.4 2279.06   5
   4  -7  -4 12628.8 1649.89   5
   4  -7  -3 30262.3 2597.31   5
   4  -7  -2 20423.0 2167.92   5
   4  -7  -1-262.017 635.179   5
   4  -7   0 27457.4 2554.05   5
   4  -7   1 3832.65 957.866   5
  -4   7  -2 34197.7 2237.79   4
   4  -7   2 32170.3 2654.91   5
  -4   7  -3 6372.94 903.958   4
   4  -7   3 4737.35 1052.12   5
  -4   7  -4 2622.87 611.407   4
  -4   7  -5 1392.17 398.647   2
  -4   7  -5 1547.20 477.935   4
  -4   7  -6 79.2887 236.660   2
  -4   7  -6 664.779 408.898   4
  -4   7  -7 2825.97 495.252   2
  -4   7  -7 3222.71 689.329   4
  -4   7  -8-408.596 427.198   4
  -4   7  -9 11119.9 1312.15   4
  -4   7 -10 8428.95 1178.14   4
  -4   7 -11 25414.6 2151.82   4
  -4   7 -12 300.089 468.531   4
  -4   7 -13 27558.6 2456.30   4
   4  -6 -10 33065.0 3246.32   5
   4  -6  -9 3513.46 1061.63   5
   4  -6  -8 917.610 797.357   5
   4  -6  -7 2264.30 841.440   5
   4  -6  -6 9585.91 1519.23   5
   4  -6  -5 3441.02 935.595   5
   4  -6  -4 16357.8 1871.54   5
   4  -6  -3 989.403 542.216   5
   4  -6  -2 15344.5 1793.01   5
   4  -6  -1 23272.2 2281.33   5
   4  -6   0 2236.87 764.619   5
   4  -6   1 28856.2 2635.18   5
  -4   6  -2 16538.2 1509.04   4
   4  -6   2 15233.9 1826.19   5
  -4   6  -3 52581.7 2846.16   4
   4  -6   3 44704.6 3193.20   5
  -4   6  -4 41930.5 2524.10   4
  -4   6  -5 581.820 371.591   4
  -4   6  -6 38168.1 2399.51   4
  -4   6  -7 21851.1 1784.39   4
  -4   6  -7 21653.0 1335.00   2
  -4   6  -8 61715.4 3295.90   4
  -4   6  -9 8708.25 1169.69   4
  -4   6 -10 5993.42 1033.04   4
  -4   6 -11 546.784 439.506   4
  -4   6 -12 8723.87 1371.03   4
  -4   6 -13 729.183 613.669   4
   4  -5 -11 8569.55 1787.46   5
   4  -5 -10 13290.0 2055.97   5
   4  -5  -9 1463.00 780.783   5
   4  -5  -8 16786.6 2125.95   5
   4  -5  -7-791.360 586.820   5
   4  -5  -6 75523.2 4470.90   5
   4  -5  -5 7070.23 1249.53   5
   4  -5  -4 68230.3 4018.36   5
   4  -5  -3 7695.27 1277.61   5
   4  -5  -2 20684.8 2056.86   5
   4  -5  -1 5715.71 1151.67   5
   4  -5   0 8672.54 1393.50   5
   4  -5   1 47239.0 3376.17   5
   4  -5   2 782.578 484.171   5
  -4   5  -3 3336.46 673.319   4
   4  -5   3 3288.68 863.307   5
  -4   5  -4 4762.80 827.219   4
   4  -5   4 2906.30 839.649   5
  -4   5  -5 550.990 370.403   4
  -4   5  -6 8701.65 1163.88   4
  -4   5  -7 3889.08 493.227   2
  -4   5  -7 4676.37 852.925   4
  -4   5  -8 15592.6 1555.46   4
  -4   5  -9 239.991 327.107   4
  -4   5 -10 76706.3 4001.03   4
  -4   5 -11 256.115 406.966   4
  -4   5 -12 14719.8 1724.06   4
  -4   5 -13 1859.77 752.738   4
  -4   5 -14 17956.9 2142.45   4
   4  -4 -11 11931.8 2018.97   5
   4  -4 -10-64.4280 567.882   5
   4  -4  -9 18571.1 2311.43   5
   4  -4  -8-170.845 566.410   5
   4  -4  -7-505.519 518.919   5
   4  -4  -6 20070.7 2167.24   5
   4  -4  -5 2742.62 846.594   5
   4  -4  -4 1445.21 644.947   5
   4  -4  -3 7931.17 1270.56   5
   4  -4  -2 60193.4 3626.98   5
   4  -4  -1 20208.7 2011.32   5
   4  -4   0 28083.9 2469.35   5
   4  -4   1 48496.7 3387.04   5
   4  -4   2 6068.36 1187.42   5
  -4   4  -3 21764.8 1746.90   4
   4  -4   3 20544.8 2127.78   5
  -4   4  -4 836.328 372.705   4
   4  -4   4 367.681 465.052   5
  -4   4  -5 84087.6 3936.45   4
  -4   4  -6 2263.45 612.829   4
  -4   4  -7 71.0035 290.909   4
  -4   4  -8 5232.74 952.712   4
  -4   4  -8 3988.05 371.073   2
  -4   4  -9 1035.79 480.610   4
  -4   4 -10 1560.84 602.679   4
  -4   4 -11 5896.61 1114.11   4
  -4   4 -12-161.489 445.461   4
  -4   4 -13 474.026 553.149   4
  -4   4 -14 47683.7 3567.87   4
   4  -3 -11 623.943 722.063   5
   4  -3 -10-392.358 786.705   5
   4  -3  -9 72563.0 4837.97   5
   4  -3  -8 2857.32 933.829   5
   4  -3  -7 13605.2 1817.46   5
   4  -3  -6 31104.4 2705.80   5
   4  -3  -5 37688.0 2896.10   5
   4  -3  -4 311.233 456.543   5
   4  -3  -3-53.1860 322.529   5
   4  -3  -2 47829.8 3134.01   5
   4  -3  -1 12651.4 1569.45   5
   4  -3   0 37784.8 2828.45   5
   4  -3   1 1220.96 551.607   5
   4  -3   2 484.826 205.209   1
   4  -3   2-77.1598 496.694   5
   4  -3   3 843.726 301.093   1
   4  -3   3-196.333 455.695   5
  -4   3  -4 125653. 4931.21   4
   4  -3   4 113648. 5561.38   5
  -4   3  -5 1021.36 444.752   4
  -4   3  -6 27120.4 2104.80   4
  -4   3  -7 70695.6 3802.33   4
  -4   3  -8 7194.81 1125.45   4
  -4   3  -8 4237.06 370.259   2
  -4   3  -9 28495.6 2339.55   4
  -4   3 -10 18220.9 1886.21   4
  -4   3 -11 87211.1 4643.06   4
  -4   3 -12 433.029 589.042   4
  -4   3 -13 2309.32 881.465   4
  -4   3 -14-1359.93 772.914   4
   4  -2 -11 933.458 769.637   5
   4  -2 -10 1241.54 819.018   5
   4  -2  -9 600.906 629.195   5
   4  -2  -8 19428.5 2302.42   5
   4  -2  -7 29295.2 2689.84   5
   4  -2  -6 3935.89 998.807   5
   4  -2  -5 21870.3 2154.95   5
   4  -2  -4 2009.05 681.393   5
   4  -2  -3 112796. 5233.42   5
   4  -2  -2 17749.1 1819.48   5
   4  -2  -1 136122. 3893.35   1
   4  -2  -1 133366. 5812.77   5
   4  -2   0 6771.41 553.507   1
   4  -2   0 6418.04 1105.84   5
   4  -2   1 14329.2 918.699   1
   4  -2   1 12054.0 1591.84   5
   4  -2   2 5173.66 581.375   1
   4  -2   2 4793.14 1055.41   5
   4  -2   3 15462.0 1827.07   5
   4  -2   3 16664.9 1137.63   1
  -4   2  -4 35179.0 2245.07   4
   4  -2   4 33027.7 2667.47   5
  -4   2  -5 289.367 306.221   4
  -4   2  -6 785.893 384.408   4
  -4   2  -7 18889.2 1009.21   2
  -4   2  -7 20405.5 1885.05   4
  -4   2  -8 2291.56 765.830   4
  -4   2  -8 1688.68 232.023   2
  -4   2  -9 1721.16 745.115   4
  -4   2 -10 1820.67 664.404   4
  -4   2 -11 28634.8 2577.71   4
  -4   2 -12 2531.73 858.727   4
  -4   2 -13 47990.3 3652.03   4
  -4   2 -14 1531.66 837.273   4
   4  -1 -11 5552.94 1469.74   5
   4  -1 -10 7724.42 1636.60   5
   4  -1  -9 998.960 784.890   5
   4  -1  -8 18644.9 2248.28   5
   4  -1  -7 637.523 506.319   5
   4  -1  -6 20508.1 2135.25   5
   4  -1  -5 3585.59 910.687   5
   4  -1  -4 103.629 345.643   5
   4  -1  -3 19212.0 1865.40   5
   4  -1  -2 3326.98 801.601   5
   4  -1  -1 22571.7 1997.45   5
   4  -1   0-2.20880 285.277   5
   4  -1   1 40084.7 2863.93   5
   4  -1   2 63074.0 3788.11   5
   4  -1   3 96144.5 4904.74   5
   4  -1   4 20582.2 1340.33   1
  -4   1  -4 18136.6 1564.28   4
   4  -1   4 18939.0 1930.30   5
  -4   1  -5 6243.92 915.290   4
  -4   1  -6 41802.4 2600.29   4
  -4   1  -7 8522.54 1192.35   4
  -4   1  -7 7054.55 637.835   2
  -4   1  -8 37170.3 2719.47   4
  -4   1  -8 31435.4 1432.19   2
  -4   1  -9 10254.2 1527.43   4
  -4   1 -10 28479.3 2599.34   4
  -4   1 -11 2964.59 893.841   4
  -4   1 -12 944.861 732.244   4
  -4   1 -13 7481.32 1480.26   4
  -4   1 -14 426.069 764.371   4
   4   0 -12 8227.35 1838.63   5
   4   0 -11 13074.6 2204.00   5
   4   0 -10 32879.3 3325.36   5
   4   0  -9 216.634 514.354   5
   4   0  -8 44669.4 3529.95   5
  -4   0   8 43854.7 2217.05   3
   4   0  -7 30345.0 2713.39   5
   4   0  -6 72625.5 4249.10   5
   4   0  -5 40712.6 1389.97   1
   4   0  -5 41069.7 2943.89   5
   4   0  -4 58675.3 3510.69   5
   4   0  -3 1878.40 584.033   5
   4   0  -2 28383.5 2229.13   5
   4   0  -1 35838.2 2519.43   5
   4   0   0 41388.0 2763.08   5
   4   0   1 10457.0 1382.38   5
   4   0   2 52921.4 3379.28   5
   4   0   3 323.765 338.934   5
  -4   0  -4 14719.3 1378.42   4
   4   0   4 15983.1 1718.73   5
  -4   0  -5 5499.69 838.573   4
  -4   0  -6 7661.16 1061.77   4
  -4   0  -6 6701.03 676.181   2
  -4   0  -7 52547.5 3105.37   4
  -4   0  -7 52117.5 2177.17   2
  -4   0  -8 10959.0 1384.23   4
  -4   0  -8 10347.9 824.617   2
  -4   0  -9 50846.5 3316.56   4
  -4   0  -9 48974.2 2156.58   2
  -4   0 -10 17207.4 1947.49   4
  -4   0 -11 737.689 507.790   4
  -4   0 -12 32753.2 2907.28   4
  -4   0 -13 22528.3 2485.37   4
  -4   0 -14 54364.3 4137.33   4
  -4   0 -15 76.2646 604.784   4
   4   1 -12 945.589 894.227   5
   4   1 -11 925.267 793.996   5
   4   1 -10 208.498 596.761   5
   4   1  -9 1133.36 693.826   5
   4   1  -8 6634.96 1325.40   5
  -4  -1   8 6345.48 792.797   3
   4   1  -7 363.413 205.080   1
   4   1  -7-80.6889 470.854   5
   4   1  -6 494.635 229.821   1
   4   1  -6 302.687 350.667   5
   4   1  -5 19996.8 1988.47   5
   4   1  -4 35233.7 2589.03   5
   4   1  -3 17464.6 1699.39   5
   4   1  -2 15868.2 1601.75   5
   4   1  -1 5005.40 894.790   5
   4   1   0 133949. 5583.35   5
   4   1   1 3976.26 798.775   5
   4   1   2 79397.0 4175.27   5
   4   1   3 5339.53 999.881   5
  -4  -1  -4 56961.2 2429.51   2
  -4  -1  -4 61005.9 3042.43   4
   4   1   4 63716.7 3518.81   5
  -4  -1  -5 2299.31 560.132   4
  -4  -1  -5 1967.62 376.731   2
  -4  -1  -6 633.630 364.721   4
  -4  -1  -6 562.793 242.219   2
  -4  -1  -7 21691.9 1840.73   4
  -4  -1  -7 22707.0 1398.75   2
  -4  -1  -8 828.800 283.240   2
  -4  -1  -8 1127.47 522.988   4
  -4  -1  -9 790.338 297.628   2
  -4  -1  -9 438.604 340.560   4
  -4  -1 -10 19216.3 2004.03   4
  -4  -1 -11 333.022 580.089   4
  -4  -1 -12 8813.65 1494.81   4
  -4  -1 -13 12498.8 1862.12   4
  -4  -1 -14 14683.7 2109.40   4
  -4  -1 -15 501.930 676.631   4
   4   2 -11 8931.48 1852.42   5
   4   2 -10 30013.1 3116.17   5
   4   2  -9 33074.8 3136.52   5
   4   2  -8 12034.5 1781.04   5
  -4  -2   8 13351.7 1230.41   3
   4   2  -7 12675.0 1712.53   5
  -4  -2   7 17027.9 1382.44   3
   4   2  -6 4617.60 983.193   5
   4   2  -5 28776.3 2386.91   5
   4   2  -4 977.729 457.964   5
   4   2  -3 14030.4 1492.04   5
   4   2  -2 932.686 400.412   5
   4   2  -1 880.989 407.030   5
   4   2   0 47986.9 2855.59   5
   4   2   1 267.027 279.333   5
   4   2   2 12651.1 1476.38   5
   4   2   3 2372.11 662.710   5
  -4  -2  -4 75003.2 3487.01   4
   4   2   4 83019.5 4004.01   5
  -4  -2  -5 27924.8 1925.31   4
  -4  -2  -5 28374.6 1650.91   2
  -4  -2  -6 41752.0 2505.98   4
  -4  -2  -6 43470.8 2144.54   2
  -4  -2  -7 57995.1 3123.28   4
  -4  -2  -7 54708.6 2569.65   2
  -4  -2  -8 45510.0 2799.57   4
  -4  -2  -8 43595.6 2273.92   2
  -4  -2  -9 9204.00 1262.51   4
  -4  -2  -9 7158.58 878.027   2
  -4  -2 -10 61.6872 337.667   4
  -4  -2 -11 86444.2 4641.90   4
  -4  -2 -12-151.673 478.573   4
  -4  -2 -13 1879.77 784.612   4
  -4  -2 -14 284.057 764.239   4
  -4  -2 -15 9743.58 1699.57   4
   4   3 -11 2130.73 1053.41   5
   4   3 -10 22538.7 2742.60   5
   4   3  -9 322.181 460.175   5
  -4  -3   8 1857.26 529.595   3
   4   3  -8 2765.77 575.969   1
   4   3  -8 981.450 619.554   5
   4   3  -7 65732.3 4123.55   5
  -4  -3   7 72883.9 3353.22   3
   4   3  -6 5912.96 1076.27   5
  -4  -3   6 7145.41 915.818   3
   4   3  -5 16374.0 1736.40   5
   4   3  -4 24890.7 2074.95   5
   4   3  -3 183729. 6877.70   5
   4   3  -2 6608.81 1002.37   5
   4   3  -1 16589.4 1545.27   5
   4   3   0 30598.2 2158.56   5
   4   3   1 93579.0 4386.77   5
  -4  -3  -1 99885.2 3966.90   5
   4   3   2 2571.10 639.123   5
  -4  -3  -2 2751.57 538.667   5
   4   3   3 5856.97 957.585   5
  -4  -3  -3 6496.17 762.156   5
  -4  -3  -4 31512.3 1995.42   4
  -4  -3  -4 32880.6 1932.19   5
  -4  -3  -5 5505.59 798.445   4
  -4  -3  -6 11156.9 1201.75   4
  -4  -3  -7 450.277 415.066   4
  -4  -3  -8 3653.00 761.018   4
  -4  -3  -9 227.608 392.523   4
  -4  -3 -10 76640.3 4043.97   4
  -4  -3 -11 1843.94 761.571   4
  -4  -3 -12 24823.8 2329.48   4
  -4  -3 -13 15975.8 1965.97   4
  -4  -3 -14 6324.20 1320.29   4
  -4  -3 -15 10280.0 1765.26   4
   4   4 -11 13669.7 2169.44   5
   4   4 -10 50905.3 3933.66   5
   4   4  -9 595.265 536.690   5
   4   4  -8 2131.59 557.555   1
  -4  -4   8 2112.43 578.222   3
   4   4  -8 3574.87 950.458   5
  -4  -4   7 342.971 266.159   3
   4   4  -7 143.940 459.407   5
  -4  -4   6 3981.58 707.828   3
   4   4  -6 4419.13 954.537   5
   4   4  -5 13813.3 1564.24   5
  -4  -4   5 14686.0 1357.49   3
   4   4  -4 439.430 339.927   5
   4   4  -3 2480.24 642.921   5
   4   4  -2 12903.9 1358.15   5
   4   4  -1 29348.6 2041.15   5
   4   4   0 4898.52 806.310   5
  -4  -4   0 5421.56 722.725   5
   4   4   1 35528.7 2330.76   5
  -4  -4  -1 35625.8 1975.78   5
   4   4   2 30264.0 2117.89   5
   4   4   3 81169.1 3704.85   5
  -4  -4  -4 18660.0 1457.11   4
  -4  -4  -4 18940.2 1338.12   5
  -4  -4  -5 76026.0 3368.25   4
  -4  -4  -5 72070.9 3098.58   5
  -4  -4  -6 840.378 422.749   4
  -4  -4  -7 37999.4 2360.54   4
  -4  -4  -8 4629.69 819.488   4
  -4  -4  -9 17249.7 1642.18   4
  -4  -4 -10 13401.3 1511.90   4
  -4  -4 -11 1500.71 546.053   4
  -4  -4 -12 683.821 501.644   4
  -4  -4 -13 21081.7 2200.43   4
  -4  -4 -14 1667.89 824.864   4
  -4  -4 -15 631.642 642.709   4
   4   5 -11 10340.2 1840.47   5
   4   5 -10-40.8877 425.295   5
   4   5  -9 11773.9 1745.17   5
  -4  -5   9 14824.5 1603.25   3
  -4  -5   8 5773.93 1008.69   3
   4   5  -8 6382.18 1240.84   5
   4   5  -7 21332.5 2144.81   5
  -4  -5   7 22768.1 1897.23   3
   4   5  -6 51548.7 3265.07   5
  -4  -5   6 47945.9 2826.60   3
   4   5  -5 13578.2 1513.59   5
  -4  -5   5 12506.0 1319.94   3
   4   5  -4 18882.1 1715.34   5
  -4  -5   4 19426.8 1629.38   3
   4   5  -3 12898.5 1336.21   5
  -4  -5   3 11566.3 1257.10   3
   4   5  -2 11475.0 1230.33   5
   4   5  -1 2812.92 613.080   5
  -4  -5   1 2486.96 524.761   5
   4   5   0 25508.0 1819.27   5
   4   5   1 393.181 282.293   5
   4   5   2-711.232 343.529   5
  -4  -5  -3 13212.6 1180.78   4
  -4  -5  -4 1270.74 422.766   4
  -4  -5  -5 21400.8 1560.25   4
  -4  -5  -5 18942.9 1305.14   5
  -4  -5  -6 5734.01 831.101   4
  -4  -5  -7 38444.3 2311.70   4
  -4  -5  -8 35332.7 2271.18   4
  -4  -5  -9 61242.5 3264.30   4
  -4  -5 -10 10151.4 1270.36   4
  -4  -5 -11 17698.5 1785.57   4
  -4  -5 -12 21874.2 2087.27   4
  -4  -5 -13 10872.8 1541.21   4
  -4  -5 -14 14646.9 1828.19   4
   4   6 -11 2279.73 936.636   5
   4   6 -10 30598.1 2952.32   5
   4   6  -9 381.932 523.167   1
  -4  -6   9 580.920 479.332   3
   4   6  -9 1010.62 519.800   5
  -4  -6   8 2022.18 681.443   3
   4   6  -8 3007.43 880.251   5
  -4  -6   7 3886.57 838.488   3
   4   6  -7 4317.90 956.508   5
  -4  -6   6 7746.72 1124.39   3
   4   6  -6 6993.47 1109.54   5
   4   6  -5 32723.0 2360.02   5
  -4  -6   5 31117.1 2258.83   3
   4   6  -4 15655.3 1518.43   5
  -4  -6   4 14587.5 1494.51   3
  -4  -6   3 254.851 351.008   3
   4   6  -3 890.099 405.970   5
   4   6  -2 77705.5 3500.04   5
  -4  -6   2 70820.4 3571.74   3
   4   6  -1 75226.9 3343.14   5
  -4  -6   1 72964.6 3609.83   3
   4   6   0 81099.7 3508.75   5
   4   6   1 13393.0 1194.15   5
   4   6   2 59400.0 2760.22   5
  -4  -6  -2 64158.6 2539.12   5
  -4  -6  -3-83.2477 233.645   4
  -4  -6  -3-77.1909 157.417   5
  -4  -6  -4 40600.7 2177.97   4
  -4  -6  -5 31231.6 1910.12   4
  -4  -6  -6 29386.9 1878.88   4
  -4  -6  -7 3658.35 672.059   4
  -4  -6  -8 9187.90 1076.86   4
  -4  -6  -9 966.480 504.183   4
  -4  -6 -10 2818.78 700.477   4
  -4  -6 -11 1111.77 584.994   4
  -4  -6 -12 1841.08 792.950   4
  -4  -6 -13 22510.4 2121.57   4
  -4  -6 -14 11152.9 1582.38   4
   4   7 -10 17760.5 2184.24   5
  -4  -7   9 16308.3 1841.17   3
   4   7  -9 14673.6 1886.79   5
   4   7  -8 28203.5 2482.09   5
  -4  -7   8 26520.4 2353.81   3
   4   7  -7 56513.8 3462.08   5
  -4  -7   7 50492.3 3302.94   3
  -4  -7   6 1299.49 590.974   3
   4   7  -6 762.822 319.870   5
  -4  -7   5 9340.28 1299.88   3
   4   7  -5 8781.42 1151.78   5
  -4  -7   4 618.208 432.034   3
   4   7  -4 310.204 376.078   5
  -4  -7   3 4802.43 871.229   3
   4   7  -3 7200.69 948.974   5
   4   7  -2 12929.0 1174.92   5
  -4  -7   2 13152.8 1442.98   3
  -4  -7   1 535.335 388.251   3
   4   7  -1 220.006 253.650   5
  -4  -7   0 797.648 463.728   3
   4   7   0 750.446 291.382   5
  -4  -7  -1 2161.01 612.673   3
   4   7   1 2027.76 441.187   5
  -4  -7  -2 37393.1 1984.37   4
  -4  -7  -2 35357.8 2354.23   3
  -4  -7  -3 13021.0 1088.75   4
  -4  -7  -3 11765.4 1308.99   3
  -4  -7  -4 11483.1 1028.25   4
  -4  -7  -4 11396.6 1294.27   3
  -4  -7  -5 13215.1 1161.46   4
  -4  -7  -6 63270.5 2884.16   4
  -4  -7  -7 921.501 376.682   4
  -4  -7  -8 27059.8 1833.93   4
  -4  -7  -9 5276.61 823.695   4
  -4  -7  -9 5755.85 986.525   3
  -4  -7 -10 37022.8 2375.19   4
  -4  -7 -10 34313.3 2438.52   3
  -4  -7 -11 575.883 416.931   4
  -4  -7 -11-47.2265 375.345   3
  -4  -7 -12 3653.79 835.509   4
  -4  -7 -12 4417.86 844.868   3
  -4  -7 -13 5754.06 1029.07   4
  -4  -8   9-974.522 606.980   3
  -4  -8   8 20151.8 2138.45   3
  -4  -8   7-845.595 585.070   3
  -4  -8   6 17842.4 1922.25   3
  -4  -8   5 2239.04 738.100   3
   4   8  -5 1277.77 438.897   5
   4   8  -4 24646.7 1771.17   5
  -4  -8   4 23704.4 2151.47   3
   4   8  -3 55118.7 2697.54   5
  -4  -8   3 55308.0 3372.75   3
  -4  -8   2 17021.6 1743.86   3
  -4  -8   1 10139.4 1319.12   3
  -4  -8   0 12469.1 1462.91   3
  -4  -8  -1 20775.9 1883.05   3
  -4  -8  -2 396.802 430.734   3
  -4  -8  -2 17.5869 197.337   4
  -4  -8  -3 2587.43 450.410   4
  -4  -8  -3 1554.66 538.317   3
  -4  -8  -4 113.810 336.318   3
  -4  -8  -4 64.7206 216.867   4
  -4  -8  -5 6066.49 717.422   4
  -4  -8  -5 4772.32 901.692   3
  -4  -8  -6 28031.3 1683.33   4
  -4  -8  -6 27160.6 2152.77   3
  -4  -8  -7 24.9455 341.890   3
  -4  -8  -7 132.921 243.695   4
  -4  -8  -8 3748.05 842.591   3
  -4  -8  -8 4585.26 723.326   4
  -4  -8  -9-49.4740 478.054   3
  -4  -8  -9-601.963 364.614   4
  -4  -8 -10 44477.9 2920.24   3
  -4  -8 -10 44224.9 2573.49   4
  -4  -8 -11 3361.98 868.469   3
  -4  -9   8 1826.60 686.372   3
  -4  -9   7 7559.18 1388.83   3
  -4  -9   6 7149.07 1297.98   3
  -4  -9   5 1139.06 520.074   3
  -4  -9   4 26715.2 2418.60   3
  -4  -9   3 746.075 511.260   3
  -4  -9   2 965.008 524.489   3
  -4  -9   1 28471.8 2412.95   3
  -4  -9   0 15818.3 1767.54   3
  -4  -9  -1 11180.1 1481.29   3
  -4  -9  -2 16421.2 1746.12   3
  -4  -9  -3 139336. 5988.99   3
  -4  -9  -4 363.833 419.073   3
  -4  -9  -5 4781.36 945.080   3
  -4  -9  -6 1869.35 680.048   3
  -4  -9  -7 66977.0 3847.56   3
  -4  -9  -8 6684.28 1130.66   3
  -4  -9  -9 7356.78 1185.05   3
  -4  -9 -10 5389.58 1058.19   3
  -4  -9 -11-91.2275 378.078   3
  -4 -10   6 12947.7 1811.67   3
  -4 -10   5 16872.2 2028.55   3
  -4 -10   4 35355.6 2941.34   3
  -4 -10   3 2083.29 839.061   3
  -4 -10   2 12216.1 1705.24   3
  -4 -10   1 5030.64 1089.48   3
  -4 -10   0 3506.19 943.445   3
  -4 -10  -1 10510.8 1522.36   3
  -4 -10  -2 396.477 518.625   3
  -4 -10  -3 836.405 632.061   3
  -4 -10  -4 2916.41 855.190   3
  -4 -10  -5 12188.9 1600.51   3
  -4 -10  -6 4351.34 1006.67   3
  -4 -10  -7 14829.1 1796.29   3
  -4 -10  -8 20616.7 2098.13   3
  -4 -10  -9 30003.0 2600.15   3
  -4 -10 -10 975.526 686.524   3
  -4 -11   2 3105.78 994.299   3
  -4 -11   1 23326.6 2410.78   3
  -4 -11   0 23608.0 2422.82   3
  -4 -11  -1 5352.68 1184.14   3
  -4 -11  -2 18915.2 2115.03   3
  -4 -11  -3 19575.7 2158.82   3
  -4 -11  -4 6848.21 1332.32   3
  -4 -11  -5 830.982 648.906   3
  -4 -11  -6 5739.99 1244.29   3
  -4 -11  -7 1580.47 751.669   3
  -4 -11  -8-453.246 538.950   3
  -4 -11  -9 1980.02 790.313   3
  -5  11   0 10042.5 1372.22   2
   5 -11   0 6592.43 1377.66   5
  -5  11  -1 17901.7 1805.88   2
  -5  11  -2-198.353 345.705   2
   5 -10  -5 6728.45 1360.82   5
   5 -10  -4 9736.22 1781.85   5
   5 -10  -3 106.653 665.055   5
   5 -10  -2 5951.37 1390.84   5
   5 -10  -1 957.637 701.283   5
   5 -10   0 213.408 525.389   5
   5 -10   1-834.541 600.391   5
  -5  10  -2 3288.74 776.762   2
  -5  10  -3 1052.76 478.939   2
   5  -9  -6 6739.22 1575.26   5
   5  -9  -5 6157.63 1489.53   5
   5  -9  -4 461.285 655.804   5
   5  -9  -3 9111.70 1679.17   5
   5  -9  -2 40149.6 3520.66   5
   5  -9  -1-506.647 776.976   5
  -5   9   0 9734.32 1220.38   4
   5  -9   0 9565.55 1766.85   5
  -5   9  -1 1797.02 569.836   4
   5  -9   1 1679.68 814.996   5
  -5   9  -2 63227.8 3299.88   4
   5  -9   2 57205.6 3998.78   5
  -5   9  -3-1668.35 566.313   4
  -5   9  -4 5675.57 881.409   2
  -5   9  -4 5831.83 938.025   4
  -5   9  -5 14905.0 1477.86   4
  -5   9  -6 5262.22 898.128   4
  -5   9  -7 242.106 342.077   4
  -5   9  -8 1344.00 526.829   4
  -5   9  -9 4144.81 879.517   4
   5  -8  -7 3568.47 1126.11   5
   5  -8  -6 517.218 621.474   5
   5  -8  -5 30694.3 3093.29   5
   5  -8  -4 571.583 566.933   5
   5  -8  -3 1067.95 617.786   5
   5  -8  -2 888.309 635.145   5
   5  -8  -1-717.416 647.356   5
   5  -8   0-7.17578 560.032   5
  -5   8  -1 1572.35 556.774   4
   5  -8   1 585.639 698.975   5
  -5   8  -2 183.842 385.885   4
   5  -8   2 150.560 509.529   5
  -5   8  -3 8783.05 1181.93   4
   5  -8   3 7936.53 1535.58   5
  -5   8  -4 32845.6 2319.30   4
  -5   8  -5 1392.02 548.367   4
  -5   8  -6 17038.1 1631.38   4
  -5   8  -7 243.394 443.949   4
  -5   8  -8 23145.4 1957.87   4
  -5   8  -9 4893.98 965.819   4
  -5   8 -10 12945.9 1535.65   4
  -5   8 -11 1574.63 645.051   4
   5  -7  -8 4145.98 1326.34   5
   5  -7  -7-225.073 620.047   5
   5  -7  -6 19519.2 2418.72   5
   5  -7  -5 3177.69 1087.59   5
   5  -7  -4 10500.0 1749.61   5
   5  -7  -3 3751.61 1165.95   5
   5  -7  -2 8629.87 1639.79   5
   5  -7  -1 30915.1 3069.27   5
   5  -7   0 5188.79 1356.66   5
   5  -7   1 4860.59 1296.24   5
  -5   7  -2 2746.88 713.966   4
   5  -7   2 1747.17 842.051   5
  -5   7  -3 1544.94 521.195   4
   5  -7   3 707.911 611.607   5
  -5   7  -4 591.336 467.216   4
  -5   7  -5-272.246 413.469   4
  -5   7  -6 717.208 503.127   4
  -5   7  -7-480.396 411.438   4
  -5   7  -8 29019.2 2276.94   4
  -5   7  -9 541.937 516.954   4
  -5   7 -10 20480.2 1988.46   4
  -5   7 -11 508.023 530.166   4
   5  -6  -8 2047.33 875.376   5
   5  -6  -7 1685.33 845.652   5
   5  -6  -6 2653.60 971.954   5
   5  -6  -5 9918.31 1706.98   5
   5  -6  -4 5852.30 1299.31   5
   5  -6  -3 1278.51 660.444   5
   5  -6  -2 9228.79 1653.25   5
   5  -6  -1 7579.73 1511.78   5
   5  -6   0 43890.2 3645.44   5
   5  -6   1 32854.0 3128.61   5
   5  -6   2 5434.61 1250.38   5
  -5   6  -3 49116.7 2924.87   4
   5  -6   3 46814.3 3599.34   5
  -5   6  -4 21850.0 1880.56   4
   5  -6   4 20134.3 2285.14   5
  -5   6  -5 53919.4 3182.26   4
  -5   6  -6 8775.20 1249.35   4
  -5   6  -7 33519.5 2513.96   4
  -5   6  -8 1066.94 495.680   4
  -5   6  -9 984.074 585.126   4
  -5   6 -10 6856.86 1205.63   4
  -5   6 -11 13065.0 1640.02   4
  -5   6 -12 829.560 634.820   4
   5  -5  -9 22614.8 2869.05   5
   5  -5  -8 10022.8 1900.68   5
   5  -5  -7 52984.1 4174.36   5
   5  -5  -6 5219.96 1319.24   5
   5  -5  -5 5767.93 1355.09   5
   5  -5  -4 17242.1 2165.15   5
   5  -5  -3 15249.1 1997.26   5
   5  -5  -2 31457.0 2939.77   5
   5  -5  -1 3186.94 970.145   5
   5  -5   0 7562.13 1500.78   5
   5  -5   1 2033.75 806.248   5
   5  -5   2 584.610 644.434   5
  -5   5  -3 1964.22 616.514   4
   5  -5   3 2256.25 865.468   5
  -5   5  -4 1505.64 491.653   4
   5  -5   4 1933.68 857.912   5
  -5   5  -5 923.178 477.391   4
  -5   5  -6 12877.9 1467.01   4
  -5   5  -7 26985.4 2245.08   4
  -5   5  -8-123.300 414.019   4
  -5   5  -9 18073.4 1879.55   4
  -5   5 -10 4615.88 1043.01   4
  -5   5 -11 33616.0 2699.95   4
  -5   5 -12 645.350 592.032   4
   5  -4  -9 510.763 729.711   5
   5  -4  -8 801.678 753.608   5
   5  -4  -7 1452.63 811.692   5
   5  -4  -6 942.096 813.870   5
   5  -4  -5 7583.69 1487.56   5
   5  -4  -4 329.337 550.535   5
   5  -4  -3 34281.8 3015.92   5
   5  -4  -2 1639.44 768.903   5
   5  -4  -1 10785.7 1753.77   5
   5  -4   0 3998.06 1119.19   5
   5  -4   1 21067.2 2455.28   5
   5  -4   2 33055.8 3130.38   5
   5  -4   3 164.101 448.931   5
  -5   4  -4 13793.1 1467.21   4
   5  -4   4 12724.3 1871.14   5
  -5   4  -5 3811.32 787.513   4
  -5   4  -6 230.630 320.204   4
  -5   4  -7 307.620 318.498   4
  -5   4  -8 223.659 397.366   4
  -5   4  -9-12.4591 510.802   4
  -5   4 -10 18.3987 366.438   4
  -5   4 -11 28689.1 2557.73   4
  -5   4 -12 1014.68 468.931   4
  -5   4 -13 16156.5 2049.70   4
   5  -3  -9 2521.44 1063.04   5
   5  -3  -8 15762.7 2307.58   5
   5  -3  -7 6718.04 1450.91   5
   5  -3  -6 18059.6 2297.05   5
   5  -3  -5 9918.32 1683.65   5
   5  -3  -4 1288.95 705.363   5
   5  -3  -3 9067.08 1479.13   5
   5  -3  -2 1372.03 666.629   5
   5  -3  -1 352.720 497.552   5
   5  -3   0 4742.97 1171.43   5
   5  -3   1 54478.7 4000.14   5
   5  -3   2 1417.87 358.787   1
   5  -3   2-199.839 656.079   5
   5  -3   3 33668.9 3044.86   5
  -5   3  -4 60773.8 3297.03   4
   5  -3   4 59353.6 4097.02   5
  -5   3  -5 7673.16 1070.39   4
   5  -3   5 7798.93 1417.80   5
  -5   3  -6 16694.6 1641.29   4
  -5   3  -7 5059.53 953.209   4
  -5   3  -8 132007. 5757.90   4
  -5   3  -9 981.480 490.407   4
  -5   3 -10 8336.22 1349.79   4
  -5   3 -11 9291.01 1489.47   4
  -5   3 -12 16626.4 2065.63   4
  -5   3 -13 445.337 672.493   4
   5  -2  -9 7604.57 1737.76   5
   5  -2  -8 5913.80 1389.27   5
   5  -2  -7 920.312 623.485   5
   5  -2  -6 78280.6 4949.75   5
   5  -2  -5 777.674 633.152   5
   5  -2  -4 69367.8 4383.42   5
   5  -2  -3 30650.9 2774.88   5
   5  -2  -2 40892.9 3184.72   5
   5  -2  -1 7664.76 1332.12   5
   5  -2   0 18049.4 1065.38   1
   5  -2   0 14120.9 1922.59   5
   5  -2   1 71266.9 4645.55   5
   5  -2   1 80384.2 3028.40   1
   5  -2   2 267.245 235.357   1
   5  -2   2-248.956 489.663   5
   5  -2   3 5551.62 1279.08   5
  -5   2  -4 1246.29 510.941   4
   5  -2   4 275.620 359.897   5
  -5   2  -5 51.2597 253.934   4
   5  -2   5 1168.32 602.092   5
  -5   2  -6 147.435 294.812   4
  -5   2  -7 3483.76 808.840   4
  -5   2  -8-243.387 354.610   4
  -5   2  -9 5144.53 1025.95   4
  -5   2 -10 29755.7 2535.55   4
  -5   2 -11 222.515 450.818   4
  -5   2 -12 21401.5 2350.46   4
  -5   2 -13 4415.93 1216.92   4
   5  -1 -10 1285.28 978.726   5
   5  -1  -9 23979.1 2930.87   5
   5  -1  -8 3763.88 1208.63   5
   5  -1  -7 5063.88 1312.89   5
   5  -1  -6 2583.61 943.994   5
   5  -1  -5 507.439 502.566   5
   5  -1  -4 2902.21 848.450   5
   5  -1  -3 630.131 551.805   5
   5  -1  -2 17268.6 1983.52   5
   5  -1  -1 159.931 166.309   1
   5  -1  -1 160.768 451.436   5
   5  -1   0 36023.3 3047.35   5
   5  -1   0 39697.8 1850.44   1
   5  -1   1 10187.9 1659.14   5
   5  -1   1 12701.9 1012.23   1
   5  -1   2 29446.0 1696.73   1
   5  -1   2 23670.8 2536.28   5
   5  -1   3 243.448 475.760   5
  -5   1  -4 10533.2 1234.91   4
   5  -1   4 7617.41 1419.66   5
  -5   1  -5 36070.9 2394.74   4
   5  -1   5 38177.8 3067.80   5
  -5   1  -6 1586.99 515.617   4
  -5   1  -7 7179.84 1101.27   4
  -5   1  -8 4300.03 889.751   4
  -5   1  -9 1347.38 553.351   4
  -5   1 -10-286.260 538.873   4
  -5   1 -11-189.336 491.668   4
  -5   1 -12 157.470 456.914   4
  -5   1 -13 2631.50 922.580   4
   5   0 -10 25144.9 3250.97   5
   5   0  -9 15293.8 2358.33   5
   5   0  -8 1132.47 487.499   5
   5   0  -7 20158.8 2440.41   5
   5   0  -6 661.854 756.897   5
   5   0  -5 22065.3 2384.05   5
   5   0  -4 239.789 512.821   5
   5   0  -3 45745.7 3323.93   5
   5   0  -2 409.739 444.842   5
   5   0  -1 10454.7 1528.12   5
   5   0   0 129.288 439.618   5
   5   0   1 10856.7 1630.46   5
   5   0   2 2496.27 816.641   5
   5   0   3 2402.18 932.474   5
  -5   0  -4 17064.7 1589.19   4
   5   0   4 18004.6 2062.60   5
  -5   0  -5 13899.6 1396.29   4
   5   0   5 15733.9 1923.98   5
  -5   0  -6 71476.5 3595.03   4
  -5   0  -7 12329.2 1409.49   4
  -5   0  -8 40.8756 350.041   4
  -5   0  -9 32000.2 2488.59   4
  -5   0 -10 35876.7 2759.44   4
  -5   0 -11 73233.1 4273.71   4
  -5   0 -12 3155.68 840.333   4
  -5   0 -13 30303.0 2839.62   4
   5   1 -10 2912.28 1188.33   5
   5   1  -9-896.615 748.888   5
   5   1  -8 14709.9 2235.41   5
   5   1  -7 16765.4 2200.72   5
   5   1  -6 2426.29 821.819   5
   5   1  -5 30194.3 2744.54   5
   5   1  -4 22688.6 2307.10   5
   5   1  -3 35902.3 2867.15   5
   5   1  -2 8981.41 1388.27   5
   5   1  -1 103726. 5202.44   5
   5   1   0 5934.22 1132.47   5
   5   1   1 43698.8 3284.69   5
   5   1   2 18388.1 2120.13   5
   5   1   3 29430.8 2665.58   5
  -5  -1  -4 38797.6 2454.94   4
   5   1   4 37851.6 2954.86   5
  -5  -1  -5 433.197 312.599   4
  -5  -1  -6 10473.7 1231.29   4
  -5  -1  -7 1869.57 598.262   4
  -5  -1  -8 262.491 314.749   4
  -5  -1  -9-337.199 447.474   4
  -5  -1 -10 3997.35 927.500   4
  -5  -1 -11 546.264 467.381   4
  -5  -1 -12 4283.80 1017.32   4
  -5  -1 -13 18186.1 2147.10   4
   5   2 -10 23274.0 2984.79   5
   5   2  -9 7338.38 1553.34   5
   5   2  -8 14701.7 2122.95   5
  -5  -2   7 639.450 382.780   3
   5   2  -7 343.117 589.716   5
   5   2  -6 44247.6 3476.33   5
   5   2  -5 1643.97 677.659   5
   5   2  -4 3141.88 855.923   5
   5   2  -3 2634.12 811.476   5
   5   2  -2 1218.42 538.711   5
   5   2  -1 312.240 506.254   5
   5   2   0 5720.52 1104.83   5
   5   2   1 6707.38 1245.40   5
   5   2   2 538.178 454.086   5
   5   2   3 61796.4 3862.70   5
  -5  -2  -4 1731.37 535.705   4
   5   2   4 3344.58 868.265   5
  -5  -2  -5 22715.5 1802.03   4
  -5  -2  -6 4911.72 845.757   4
  -5  -2  -7 27139.0 2092.74   4
  -5  -2  -8 24741.2 2031.49   4
  -5  -2  -9 417.245 466.481   4
  -5  -2 -10 17073.8 1765.04   4
  -5  -2 -11 5926.22 1143.08   4
  -5  -2 -12 3434.10 918.061   4
  -5  -2 -13 2268.48 911.331   4
   5   3 -10 7758.14 1673.85   5
   5   3  -9 557.420 660.756   5
   5   3  -8 547.461 636.700   5
   5   3  -7 25232.6 2632.29   5
  -5  -3   7 25964.5 1960.89   3
   5   3  -6 47389.8 3572.30   5
  -5  -3   6 49824.8 2857.06   3
   5   3  -5 4506.51 1040.37   5
   5   3  -4 9305.69 1389.04   5
   5   3  -3 7994.02 1284.38   5
   5   3  -2 56847.2 3522.89   5
   5   3  -1 618.164 404.042   5
   5   3   0 37137.6 2812.23   5
   5   3   1 21396.9 2127.11   5
   5   3   2 1362.70 571.106   5
   5   3   3 25960.8 2255.24   5
  -5  -3  -4 742.069 357.996   4
   5   3   4-327.644 378.780   5
  -5  -3  -5 7884.59 1012.83   4
  -5  -3  -6 112.740 298.954   4
  -5  -3  -7 42236.2 2620.94   4
  -5  -3  -8 810.481 452.433   4
  -5  -3  -9 30936.3 2320.34   4
  -5  -3 -10 38429.6 2698.33   4
  -5  -3 -11 14819.3 1703.81   4
  -5  -3 -12 4072.96 969.599   4
  -5  -3 -13 8171.26 1350.12   4
   5   4 -10 729.798 732.303   5
   5   4  -9 6089.58 1467.37   5
   5   4  -8 32.8303 435.725   5
  -5  -4   7 1952.18 613.903   3
   5   4  -7 1493.17 774.962   5
  -5  -4   6 2737.69 700.534   3
   5   4  -6 2795.81 906.020   5
  -5  -4   5 432.103 360.157   3
   5   4  -5 1280.40 626.307   5
   5   4  -4 44843.3 3133.77   5
   5   4  -3 24441.5 2199.02   5
   5   4  -2 15232.5 1680.19   5
   5   4  -1 13030.7 1538.66   5
   5   4   0 91849.6 4623.07   5
   5   4   1 192.149 467.302   5
   5   4   2 71610.1 3929.19   5
   5   4   3 20120.9 1848.32   5
  -5  -4  -4 64820.3 3183.08   4
  -5  -4  -5 2279.49 554.515   4
  -5  -4  -6 27140.6 1955.49   4
  -5  -4  -7 35181.1 2332.29   4
  -5  -4  -8 96.6227 310.658   4
  -5  -4  -9 5255.92 936.201   4
  -5  -4 -10 4475.14 924.937   4
  -5  -4 -11 2137.01 760.691   4
  -5  -4 -12 592.465 585.510   4
  -5  -4 -13 1973.31 680.156   4
   5   5  -9 37150.1 3391.94   5
   5   5  -8 22053.0 2456.20   5
   5   5  -7 27979.1 2706.96   5
  -5  -5   7 29823.4 2313.26   3
  -5  -5   6 4916.81 934.875   3
   5   5  -6 5635.97 1106.57   5
   5   5  -5 37722.8 2887.55   5
  -5  -5   5 38932.5 2572.05   3
  -5  -5   4 654.524 495.588   3
   5   5  -4 1337.06 644.559   5
   5   5  -3 37226.3 2693.30   5
   5   5  -2 7030.75 1140.45   5
   5   5  -1 16807.4 1706.08   5
   5   5   0 3045.41 787.530   5
   5   5   1 1166.98 631.909   5
   5   5   2 455.417 379.915   5
  -5  -5  -3 4204.83 730.768   4
   5   5   3 3670.02 777.093   5
  -5  -5  -4 7275.57 927.131   4
  -5  -5  -5 598.383 317.116   4
  -5  -5  -6 10759.9 1198.26   4
  -5  -5  -7 2239.51 614.547   4
  -5  -5  -8 29192.3 2107.35   4
  -5  -5  -9 997.194 479.152   4
  -5  -5 -10 16102.7 1645.05   4
  -5  -5 -11 15180.7 1666.14   4
  -5  -5 -12 891.682 485.639   4
  -5  -5 -13 10825.5 1540.12   4
   5   6  -9-764.726 604.839   5
   5   6  -8 5273.83 1244.42   5
  -5  -6   7 1855.04 662.786   3
   5   6  -7 3015.86 919.189   5
  -5  -6   6 240.658 282.442   3
   5   6  -6 213.948 367.445   5
  -5  -6   5 4675.85 950.269   3
   5   6  -5 3601.91 857.602   5
   5   6  -4 40755.9 2832.31   5
  -5  -6   4 38127.5 2610.77   3
   5   6  -3 30492.4 2328.90   5
  -5  -6   3 27835.3 2147.33   3
  -5  -6   2 387.823 429.629   3
   5   6  -2-152.305 318.121   5
   5   6  -1 21628.5 1884.23   5
   5   6   0 2984.02 710.390   5
   5   6   1 12593.4 1365.35   5
   5   6   2 4313.23 766.806   5
  -5  -6  -3 66921.6 3130.78   4
  -5  -6  -4 82.2853 279.316   4
  -5  -6  -5 8736.27 1014.97   4
  -5  -6  -6 1534.07 490.055   4
  -5  -6  -7 6428.39 914.620   4
  -5  -6  -8 906.588 491.575   4
  -5  -6  -9 7586.26 1069.77   4
  -5  -6 -10 8690.63 1180.60   4
  -5  -6 -11 14672.8 1573.97   4
  -5  -6 -12 47396.4 3059.55   4
  -5  -6 -13 3000.84 819.496   4
  -5  -7   7 10191.3 1506.03   3
   5   7  -7 12122.5 1692.89   5
  -5  -7   6 423.311 462.065   3
   5   7  -6 1648.64 532.377   5
  -5  -7   5 2441.89 788.049   3
   5   7  -5 4117.79 881.959   5
  -5  -7   4 1217.47 433.470   3
   5   7  -4 1783.31 595.150   5
  -5  -7   3 1157.75 630.257   3
   5   7  -3 266.886 335.576   5
   5   7  -2 11331.5 1273.79   5
  -5  -7   2 9833.21 1272.82   3
   5   7  -1 11002.2 1240.51   5
  -5  -7   1 10445.5 1280.99   3
  -5  -7   0 1970.35 588.200   3
   5   7   0 880.039 425.065   5
   5   7   1 25617.9 1788.64   5
  -5  -7  -1 25145.8 1988.25   3
  -5  -7  -2 36510.9 2153.84   4
  -5  -7  -3 38506.9 2174.04   4
  -5  -7  -4 1331.81 429.106   4
  -5  -7  -5 61312.1 2943.89   4
  -5  -7  -6 3372.92 635.662   4
  -5  -7  -7 53014.3 2774.38   4
  -5  -7  -8 9352.81 1095.22   4
  -5  -7  -9 30206.9 2128.31   4
  -5  -7 -10 14479.8 1474.26   4
  -5  -7 -11 156.733 360.408   4
  -5  -7 -12 4945.11 970.300   4
  -5  -7 -12 2295.63 763.160   3
  -5  -8   7 37311.6 2983.81   3
  -5  -8   6 14145.3 1784.38   3
  -5  -8   5 14223.1 1721.68   3
  -5  -8   4 29848.5 2488.10   3
  -5  -8   3 25489.0 2252.88   3
  -5  -8   2 34452.9 2575.45   3
  -5  -8   1 276.136 453.107   3
  -5  -8   0 30942.1 2330.46   3
  -5  -8  -1 1427.31 545.548   3
  -5  -8  -2 7163.62 846.503   4
  -5  -8  -2 6933.16 1061.90   3
  -5  -8  -3 1105.75 533.621   3
  -5  -8  -3 803.501 320.779   4
  -5  -8  -4 7292.47 855.653   4
  -5  -8  -4 6199.00 1024.02   3
  -5  -8  -5 1018.10 513.198   3
  -5  -8  -5 285.853 263.313   4
  -5  -8  -6 6492.09 1123.34   3
  -5  -8  -6 6530.18 819.508   4
  -5  -8  -7 3419.67 890.020   3
  -5  -8  -7 4269.94 722.069   4
  -5  -8  -8 371.923 404.762   3
  -5  -8  -9 11186.2 1437.75   3
  -5  -8 -10 3663.94 822.148   3
  -5  -8 -11 10652.4 1416.22   3
  -5  -9   5 586.842 489.774   3
  -5  -9   4 3750.11 1008.84   3
  -5  -9   3 845.411 572.173   3
  -5  -9   2 186.543 419.126   3
  -5  -9   1 16471.1 1800.45   3
  -5  -9   0 61168.5 3594.42   3
  -5  -9  -1 3722.82 848.830   3
  -5  -9  -2 3511.60 809.579   3
  -5  -9  -3-1086.31 543.514   3
  -5  -9  -4 26759.8 2211.50   3
  -5  -9  -5-334.845 435.108   3
  -5  -9  -6 10436.7 1378.34   3
  -5  -9  -7 7323.59 1176.21   3
  -5  -9  -8 2610.93 739.012   3
  -5  -9  -9 10791.1 1464.53   3
  -5  -9 -10 749.285 509.493   3
  -5 -10   0 2339.88 811.539   3
  -5 -10  -1 3997.96 985.820   3
  -5 -10  -2 11521.5 1539.94   3
  -5 -10  -3 4863.88 1049.27   3
  -5 -10  -4 6838.13 1214.82   3
  -5 -10  -5 19187.1 1978.55   3
  -5 -10  -6 39884.1 2952.58   3
  -5 -10  -7 1235.64 602.205   3
   6  -9  -1 14853.7 2432.15   5
  -6   9   0 57.5650 466.956   4
   6  -9   0-732.480 760.048   5
  -6   9  -1 8499.52 1282.82   4
   6  -9   1 6724.82 1565.54   5
  -6   9  -2 2198.36 725.185   4
   6  -9   2 3431.81 1144.19   5
  -6   9  -3 1929.91 662.111   4
  -6   9  -4 1489.18 599.745   4
  -6   9  -5 3201.23 776.932   4
  -6   9  -6 1419.78 396.134   4
   6  -8  -3 2787.75 1226.76   5
   6  -8  -2 3911.43 1369.90   5
   6  -8  -1 81.2115 816.805   5
   6  -8   0 1692.93 1127.04   5
  -6   8  -1 28097.6 2331.26   4
   6  -8   1 25285.7 2981.70   5
  -6   8  -2 7275.34 1187.73   4
   6  -8   2 7041.99 1629.82   5
  -6   8  -3 11547.5 1496.55   4
   6  -8   3 11852.3 1995.83   5
  -6   8  -4-1576.84 653.246   4
  -6   8  -5 35819.8 2739.26   4
  -6   8  -6 281.539 398.932   4
  -6   8  -7 16788.6 1820.58   4
  -6   8  -8 15916.1 1775.30   4
  -6   8  -9 19561.2 2021.07   4
   6  -7  -4 10559.1 2134.47   5
   6  -7  -3 5801.71 1536.91   5
   6  -7  -2 18960.5 2629.02   5
   6  -7  -1 4791.14 1404.42   5
   6  -7   0 7775.87 1790.22   5
   6  -7   1 581.112 869.022   5
  -6   7  -2 7848.62 1186.85   4
   6  -7   2 4486.01 1301.67   5
  -6   7  -3 1787.40 636.516   4
   6  -7   3 1794.84 989.468   5
  -6   7  -4 9.02041 326.161   4
  -6   7  -5 2250.15 629.231   4
  -6   7  -6 97.8174 400.581   4
  -6   7  -7 6630.78 1251.74   4
  -6   7  -8 566.033 502.991   4
  -6   7  -9 6448.29 1245.28   4
   6  -6  -5 736.007 641.990   5
   6  -6  -4 870.606 718.645   5
   6  -6  -3 14042.9 2298.99   5
   6  -6  -2 15553.5 2371.80   5
   6  -6  -1 151.138 689.012   5
   6  -6   0 3790.86 1269.17   5
   6  -6   1 8500.01 1793.20   5
   6  -6   2 25553.3 2999.11   5
  -6   6  -3 1747.35 679.605   4
   6  -6   3 729.063 671.249   5
  -6   6  -4 18645.2 1819.51   4
   6  -6   4 18160.0 2459.54   5
  -6   6  -5 1469.98 577.960   4
  -6   6  -6 909.075 535.668   4
  -6   6  -7-141.783 415.128   4
  -6   6  -8 14694.4 1756.39   4
  -6   6  -9 2359.88 779.302   4
  -6   6 -10 4974.99 1235.34   4
   6  -5  -5 8641.19 1826.51   5
   6  -5  -4 947.320 778.405   5
   6  -5  -3 10565.0 1945.43   5
   6  -5  -2 1002.98 811.045   5
   6  -5  -1 2940.64 1213.04   5
   6  -5   0 404.052 662.274   5
   6  -5   1 218.811 625.285   5
   6  -5   2 596.730 615.319   5
  -6   5  -3 21509.1 1985.91   4
   6  -5   3 17984.7 2475.84   5
  -6   5  -4 8872.19 1245.99   4
   6  -5   4 10696.5 1879.96   5
  -6   5  -5-177.259 387.026   4
  -6   5  -6 37166.0 2671.86   4
  -6   5  -7 18094.7 1877.68   4
  -6   5  -8 18449.8 1932.52   4
  -6   5  -9 97.3329 437.350   4
  -6   5 -10 37688.2 2926.43   4
   6  -4  -6 28569.1 3206.73   5
   6  -4  -5 349.416 682.847   5
   6  -4  -4 35447.4 3467.41   5
   6  -4  -3 132.444 508.372   5
   6  -4  -2 26502.5 3011.09   5
   6  -4  -1 23843.9 2887.95   5
   6  -4   0 10826.9 1991.70   5
   6  -4   1 35104.5 3562.14   5
   6  -4   2 5366.56 1495.14   5
   6  -4   3 11582.0 1975.71   5
  -6   4  -4 1244.39 558.447   4
   6  -4   4 677.716 597.652   5
  -6   4  -5 10105.9 1338.05   4
   6  -4   5 13381.8 2069.06   5
  -6   4  -6 330.224 372.981   4
  -6   4  -7 480.895 422.068   4
  -6   4  -8 1568.07 627.264   4
  -6   4  -9 1230.37 566.209   4
  -6   4 -10 6231.69 1169.15   4
  -6   4 -11 3944.04 1020.75   4
   6  -3  -6 135.384 584.952   5
   6  -3  -5 2905.52 1111.32   5
   6  -3  -4 36.2606 477.833   5
   6  -3  -3 2970.38 1096.34   5
   6  -3  -2 3.99861 638.062   5
   6  -3  -1-270.477 597.600   5
   6  -3   0 21947.0 2763.76   5
   6  -3   1 16886.4 2452.24   5
   6  -3   2-313.050 862.854   5
   6  -3   3 4306.43 1273.53   5
  -6   3  -4 11865.5 1459.65   4
   6  -3   4 15649.7 2248.31   5
  -6   3  -5 42139.0 2772.56   4
   6  -3   5 41592.9 3656.39   5
  -6   3  -6 1610.90 555.801   4
  -6   3  -7 16369.1 1740.90   4
  -6   3  -8 1516.21 646.759   4
  -6   3  -9 2874.00 805.423   4
  -6   3 -10-912.131 592.239   4
  -6   3 -11 8500.31 1378.82   4
   6  -2  -7 16990.1 2572.58   5
   6  -2  -6 7127.91 1645.95   5
   6  -2  -5 27719.5 3059.48   5
   6  -2  -4 824.386 592.331   5
   6  -2  -3 4238.47 1264.52   5
   6  -2  -2 32606.1 3173.55   5
   6  -2  -1 2336.43 945.169   5
   6  -2   0 2559.35 1058.88   5
   6  -2   1-1197.05 792.621   5
   6  -2   2 2681.29 967.134   5
   6  -2   3 3131.02 1114.03   5
  -6   2  -4 8656.78 1240.65   4
   6  -2   4 9230.09 1728.86   5
  -6   2  -5 4332.45 879.622   4
   6  -2   5 6087.38 1361.87   5
  -6   2  -6 8920.60 1220.75   4
  -6   2  -7 27129.7 2209.02   4
  -6   2  -8 8485.42 1270.04   4
  -6   2  -9 13208.4 1635.15   4
  -6   2 -10 5306.06 1057.23   4
  -6   2 -11 47086.8 3309.91   4
   6  -1  -7 138.913 659.908   5
   6  -1  -6 6457.90 1596.33   5
   6  -1  -5 1575.51 910.556   5
   6  -1  -4-400.681 616.343   5
   6  -1  -3 39221.8 3441.46   5
   6  -1  -2 185.186 637.315   5
   6  -1  -1 39206.1 3503.83   5
   6  -1   0-1125.50 709.428   5
   6  -1   1 42798.5 3827.62   5
   6  -1   2 29003.9 3128.19   5
   6  -1   3 8002.52 1651.60   5
  -6   1  -4 26507.5 2124.03   4
   6  -1   4 24886.7 2781.60   5
  -6   1  -5 6989.84 1032.31   4
   6  -1   5 7184.93 1503.11   5
  -6   1  -6 24013.0 2009.97   4
  -6   1  -7 2866.34 709.638   4
  -6   1  -8 3469.18 784.546   4
  -6   1  -9 2743.77 776.330   4
  -6   1 -10 59.5691 338.414   4
  -6   1 -11 4335.73 984.605   4
   6   0  -7 1704.16 904.595   5
   6   0  -6 55779.0 4456.70   5
   6   0  -5 6436.20 1459.69   5
   6   0  -4 4237.53 1202.06   5
   6   0  -3-53.6230 441.459   5
   6   0  -2 2768.98 914.335   5
   6   0  -1 3651.14 1070.30   5
   6   0   0 1904.18 974.199   5
   6   0   1 1110.15 764.234   5
   6   0   2-490.716 739.965   5
   6   0   3 33883.6 3226.93   5
  -6   0  -4 13417.0 1477.07   4
   6   0   4 10620.3 1755.88   5
  -6   0  -5 1176.09 470.549   4
   6   0   5 1660.50 739.741   5
  -6   0  -6 3300.64 764.291   4
  -6   0  -7 19328.6 1794.21   4
  -6   0  -8 38180.4 2683.18   4
  -6   0  -9-18.5853 356.315   4
  -6   0 -10 17350.4 1835.95   4
  -6   0 -11 883.587 432.298   4
  -6   0 -12 2224.65 733.307   4
   6   1  -7 8436.50 1817.80   5
   6   1  -6 8551.04 1690.51   5
   6   1  -5 3856.24 1129.03   5
   6   1  -4 49137.3 3873.18   5
   6   1  -3 1802.94 771.387   5
   6   1  -2 10044.6 1674.54   5
   6   1  -1 6267.85 1359.93   5
   6   1   0 41178.4 3543.25   5
   6   1   1 12215.6 1930.06   5
   6   1   2 6169.55 1380.49   5
   6   1   3 20944.2 2461.01   5
  -6  -1  -4 7894.66 1111.43   4
   6   1   4 5177.77 1255.29   5
  -6  -1  -5 1383.56 518.952   4
   6   1   5 533.422 567.538   5
  -6  -1  -6 133.932 351.949   4
  -6  -1  -7 283.825 305.845   4
  -6  -1  -8-645.202 456.728   4
  -6  -1  -9 26587.3 2244.64   4
  -6  -1 -10 3553.12 804.132   4
  -6  -1 -11 429.118 449.581   4
  -6  -1 -12 21286.8 2176.38   4
   6   2  -7 4780.34 1413.36   5
   6   2  -6 703.460 735.220   5
   6   2  -5 1769.68 862.421   5
   6   2  -4 123.312 597.204   5
   6   2  -3 5462.93 1220.72   5
   6   2  -2 2152.65 827.373   5
   6   2  -1 5222.66 1181.45   5
   6   2   0 27574.1 2803.64   5
   6   2   1 975.651 486.617   5
   6   2   2 49744.6 3867.07   5
   6   2   3 688.707 632.177   5
  -6  -2  -4 51306.1 2998.13   4
   6   2   4 55152.5 3868.32   5
  -6  -2  -5 12634.4 1363.39   4
  -6  -2  -6 10566.1 1281.71   4
  -6  -2  -7 29646.8 2254.14   4
  -6  -2  -8 12528.2 1481.47   4
  -6  -2  -9 14529.8 1630.00   4
  -6  -2 -10 6161.67 1106.60   4
  -6  -2 -11 9491.98 1376.48   4
  -6  -2 -12 192.508 510.382   4
   6   3  -7 27746.0 3049.96   5
  -6  -3   6 4038.63 858.077   3
   6   3  -6 5359.30 1312.71   5
   6   3  -5 21230.4 2457.58   5
   6   3  -4 3220.31 969.246   5
   6   3  -3 87051.3 5044.65   5
   6   3  -2 4649.62 1136.84   5
   6   3  -1 4989.15 1078.85   5
   6   3   0 1488.99 761.823   5
   6   3   1 10790.3 1694.93   5
   6   3   2 10043.7 1621.76   5
   6   3   3 1287.08 679.282   5
  -6  -3  -4 554.890 462.021   4
   6   3   4 1268.10 664.556   5
  -6  -3  -5 355.710 337.475   4
  -6  -3  -6 21745.3 1851.43   4
  -6  -3  -7 14125.1 1516.36   4
  -6  -3  -8 5428.20 969.214   4
  -6  -3  -9 737.557 461.381   4
  -6  -3 -10 9629.72 1333.32   4
  -6  -3 -11 45530.1 3072.12   4
  -6  -3 -12 59.6463 520.241   4
   6   4  -7 15408.0 2240.96   5
  -6  -4   6 710.027 552.542   3
   6   4  -6 3421.14 1057.29   5
  -6  -4   5 676.102 547.884   3
   6   4  -5 579.758 538.122   5
   6   4  -4 1125.13 717.404   5
   6   4  -3 25072.8 2499.38   5
   6   4  -2 3486.64 994.336   5
   6   4  -1 23869.5 2435.92   5
   6   4   0 22128.8 2333.97   5
   6   4   1 43591.1 3334.91   5
   6   4   2 1344.93 658.753   5
   6   4   3 12180.3 1619.58   5
  -6  -4  -4 26106.7 1983.96   4
   6   4   4 26788.7 2375.49   5
  -6  -4  -5 1581.97 517.431   4
  -6  -4  -6 2071.22 572.831   4
  -6  -4  -7 720.528 440.686   4
  -6  -4  -8 9139.46 1233.29   4
  -6  -4  -9 2046.76 669.172   4
  -6  -4 -10 9031.47 1239.10   4
  -6  -4 -11 1514.01 619.854   4
  -6  -4 -12 5453.28 1128.23   4
   6   5  -7 235.756 604.867   5
   6   5  -6 28948.2 2927.20   5
  -6  -5   6 26801.7 2307.29   3
  -6  -5   5 2617.80 772.803   3
   6   5  -5 3096.29 966.333   5
  -6  -5   4 5115.06 961.067   3
   6   5  -4 5327.18 1217.22   5
   6   5  -3-264.727 444.031   5
   6   5  -2 2625.00 867.614   5
   6   5  -1-251.897 564.425   5
   6   5   0 11672.3 1599.28   5
   6   5   1 1808.52 711.912   5
   6   5   2 4504.12 952.848   5
  -6  -5  -3 12815.7 1374.71   4
   6   5   3 14295.0 1625.65   5
  -6  -5  -4 151.389 286.941   4
  -6  -5  -5 35720.6 2307.37   4
  -6  -5  -6-330.895 431.290   4
  -6  -5  -7 40010.6 2575.96   4
  -6  -5  -8 7449.77 1092.05   4
  -6  -5  -9 14886.6 1556.68   4
  -6  -5 -10 13808.7 1540.80   4
  -6  -5 -11 7892.43 1247.10   4
   6   6  -6 28065.6 2682.23   5
  -6  -6   6 22052.8 2132.55   3
   6   6  -5 20621.3 2263.11   5
  -6  -6   5 18862.5 1957.76   3
  -6  -6   4 7732.10 1187.79   3
   6   6  -4 8103.33 1372.02   5
  -6  -6   3 4605.34 920.356   3
   6   6  -3 6005.62 1156.01   5
   6   6  -2 27700.1 2438.01   5
  -6  -6   2 23317.8 2010.32   3
   6   6  -1 5849.02 1109.53   5
   6   6   0 54869.3 3464.26   5
   6   6   1 4436.76 936.619   5
   6   6   2 2504.83 706.933   5
  -6  -6  -3 2286.30 575.691   4
  -6  -6  -4 8516.44 1050.29   4
  -6  -6  -5 2229.43 648.906   4
  -6  -6  -6 482.786 460.770   4
  -6  -6  -7 368.740 369.185   4
  -6  -6  -8 4113.48 811.882   4
  -6  -6  -9 20559.1 1806.91   4
  -6  -6 -10 5477.00 945.947   4
  -6  -6 -11 949.747 533.738   4
  -6  -7   5 672.459 468.676   3
  -6  -7   4 5356.94 1036.85   3
  -6  -7   3 1740.32 672.393   3
  -6  -7   2 11035.5 1375.68   3
  -6  -7   1 13464.7 1489.50   3
  -6  -7   0 11465.4 1364.85   3
  -6  -7  -2 31592.3 2078.06   4
  -6  -7  -3 65.1161 308.636   4
  -6  -7  -4 17616.3 1475.50   4
  -6  -7  -5 4654.57 804.453   4
  -6  -7  -6 43853.5 2572.36   4
  -6  -7  -7 2737.92 645.977   4
  -6  -7  -8 673.183 435.643   4
  -6  -7  -9 10353.6 1236.56   4
  -6  -7 -10 5280.77 925.029   4
  -6  -8   1 9400.73 1280.76   3
  -6  -8   0 1318.70 572.979   3
  -6  -8  -1 2787.49 723.204   3
  -6  -8  -2 351.418 373.487   3
  -6  -8  -3 4805.27 911.340   3
  -6  -8  -4 554.843 399.917   3
  -6  -8  -5 4808.94 915.736   3
  -6  -8  -6 8005.10 1218.08   3
  -7   7  -2 1746.29 735.525   4
  -7   7  -3-2011.63 735.033   4
  -7   6  -2-1602.23 696.301   4
  -7   6  -3 5219.85 1092.72   4
  -7   6  -4 2753.53 853.089   4
  -7   6  -5 18103.1 1919.79   4
   7  -5   1 925.238 1087.06   5
   7  -5   2-819.435 897.233   5
  -7   5  -3 15182.9 1775.83   4
   7  -5   3 15056.3 2499.07   5
  -7   5  -4 1016.05 475.890   4
   7  -5   4 3559.95 1349.45   5
  -7   5  -5 9630.63 1383.39   4
  -7   5  -6 282.871 608.586   4
   7  -4  -1-1228.72 1012.53   5
   7  -4   0 16480.9 2688.67   5
   7  -4   1-26.3870 659.889   5
   7  -4   2 3933.37 1285.83   5
  -7   4  -3 7093.16 1214.10   4
   7  -4   3 6321.93 1674.44   5
  -7   4  -4 2109.17 741.180   4
   7  -4   4 1896.62 1174.38   5
  -7   4  -5 256.282 382.523   4
  -7   4  -6 1538.94 614.421   4
  -7   4  -7 803.071 581.544   4
   7  -3  -2 526.586 636.319   5
   7  -3  -1 2382.79 1239.31   5
   7  -3   0-2639.43 1180.96   5
   7  -3   1 19274.8 2828.34   5
   7  -3   2 13773.8 2547.72   5
   7  -3   3 9456.67 2088.35   5
  -7   3  -4 21759.4 2058.97   4
   7  -3   4 28857.4 3399.68   5
  -7   3  -5 1989.32 691.545   4
   7  -3   5 410.118 653.708   5
  -7   3  -6 1971.63 705.092   4
  -7   3  -7 1672.91 696.976   4
   7  -2  -3 3377.76 1192.68   5
   7  -2  -2 2860.60 1126.53   5
   7  -2  -1 3358.09 1497.53   5
   7  -2   0 9521.13 2002.42   5
   7  -2   1 142.395 738.900   5
   7  -2   2-626.739 859.573   5
   7  -2   3 2098.68 1133.14   5
  -7   2  -4 8574.72 1275.19   4
   7  -2   4 9258.36 1920.61   5
  -7   2  -5 336.463 363.965   4
   7  -2   5 1917.98 971.861   5
  -7   2  -6 5575.94 1034.54   4
  -7   2  -7 1504.76 611.376   4
  -7   2  -8 27414.6 2351.46   4
   7  -1  -3 3699.92 1241.48   5
   7  -1  -2 33568.2 3616.89   5
   7  -1  -1 3498.96 1325.80   5
   7  -1   0 639.585 683.270   5
   7  -1   1 35658.9 3847.60   5
   7  -1   2 14093.1 2446.05   5
   7  -1   3 12818.6 2299.28   5
  -7   1  -4 232.972 354.282   4
   7  -1   4-1237.94 944.617   5
  -7   1  -5 14230.3 1606.71   4
   7  -1   5 17492.2 2514.92   5
  -7   1  -6 1395.39 603.615   4
  -7   1  -7 409.550 420.923   4
  -7   1  -8 1883.87 687.247   4
   7   0  -4 8226.44 1722.53   5
   7   0  -3 2200.19 1020.58   5
   7   0  -2 4144.77 1334.77   5
   7   0  -1 5582.47 1465.32   5
   7   0   0 17617.0 2619.95   5
   7   0   1 1073.30 572.177   5
   7   0   2 2566.13 1134.23   5
   7   0   3 2829.40 1066.57   5
  -7   0  -4 14886.4 1613.70   4
   7   0   4 15112.8 2330.12   5
  -7   0  -5 14545.5 1577.03   4
   7   0   5 16026.7 2358.86   5
  -7   0  -6 12774.2 1491.70   4
  -7   0  -7 17149.2 1767.44   4
  -7   0  -8 2066.71 718.256   4
   7   1  -4 1045.45 721.583   5
   7   1  -3 34331.5 3632.56   5
   7   1  -2 13.4975 745.817   5
   7   1  -1 6558.99 1622.09   5
   7   1   0 3912.60 1274.81   5
   7   1   1 8371.11 1843.42   5
   7   1   2 730.359 754.303   5
   7   1   3 4397.94 1303.01   5
  -7  -1  -4 1090.17 505.360   4
   7   1   4 1360.63 819.920   5
  -7  -1  -5 1119.46 543.849   4
   7   1   5 378.130 622.583   5
  -7  -1  -6 12541.1 1463.47   4
  -7  -1  -7 1254.19 558.526   4
  -7  -1  -8 763.470 526.594   4
  -7  -1  -9 12184.4 1537.09   4
   7   2  -4 781.829 859.331   5
   7   2  -3 3325.54 1113.49   5
   7   2  -2 2991.87 1088.75   5
   7   2  -1 32298.1 3420.12   5
   7   2   0-159.955 600.528   5
   7   2   1 27231.8 3075.09   5
   7   2   2 18097.6 2492.08   5
   7   2   3 24677.9 2849.67   5
  -7  -2  -4 13621.6 1542.47   4
   7   2   4 15457.6 2200.16   5
  -7  -2  -5 2292.86 668.133   4
  -7  -2  -6 25738.2 2115.52   4
  -7  -2  -7 8822.48 1252.99   4
  -7  -2  -8 4388.82 929.259   4
  -7  -2  -9 2904.15 793.380   4
   7   3  -4 5182.81 1380.70   5
   7   3  -3 2785.59 1122.44   5
   7   3  -2 7196.28 1610.18   5
   7   3  -1 4786.97 1322.13   5
   7   3   0-4.05732 498.006   5
   7   3   1 6193.30 1462.76   5
   7   3   2 868.536 717.919   5
   7   3   3 11077.2 1840.59   5
  -7  -3  -4 314.029 406.261   4
   7   3   4-408.812 570.055   5
  -7  -3  -5 1971.14 657.753   4
  -7  -3  -6 271.991 383.237   4
  -7  -3  -7 14023.5 1552.59   4
  -7  -3  -8 8485.89 1227.88   4
  -7  -3  -9 4760.01 976.615   4
   7   4  -4 8417.19 1721.23   5
   7   4  -3 681.990 662.204   5
   7   4  -2 12059.6 1999.05   5
   7   4  -1 2937.76 1115.64   5
   7   4   0 26195.7 2862.73   5
   7   4   1 1624.95 853.786   5
   7   4   2 6730.38 1362.55   5
  -7  -4  -3 106.633 385.291   4
   7   4   3 1349.77 709.082   5
  -7  -4  -4 2867.85 744.168   4
  -7  -4  -5 4870.03 895.288   4
  -7  -4  -6 8450.91 1167.07   4
  -7  -4  -7-61.9367 337.614   4
  -7  -4  -8-200.014 378.664   4
   7   5  -3 3684.01 1131.35   5
   7   5  -2-55.5498 590.761   5
   7   5  -1 765.404 701.690   5
   7   5   0 14222.6 2043.29   5
   7   5   1 1077.64 672.832   5
   7   5   2 10923.7 1632.92   5
  -7  -5  -3 1000.55 414.839   4
   7   5   3 572.325 479.051   5
  -7  -5  -4 47789.1 2848.89   4
  -7  -5  -5 1616.87 595.612   4
  -7  -5  -6 12956.8 1448.36   4
  -7  -5  -7 17676.9 1713.91   4
  -7  -5  -8 13646.4 1503.48   4
  -7  -6  -3 287.538 384.600   4
  -7  -6  -4 1751.72 569.697   4
  -7  -6  -5 248.335 360.569   4
  -7  -6  -6 3297.11 753.967   4
  -7  -6  -7 3898.24 795.248   4
  -7  -6  -8 2178.41 610.770   4
  -7  -7  -2 44.5154 325.159   4
  -7  -7  -3 30910.3 2137.46   4
  -7  -7  -4 304.868 395.815   4
  -7  -7  -5 3521.11 719.180   4
   8   3   2 6271.38 1675.75   5
   8   3   3 1000.52 861.206   5
   0   0   0    0.00    0.00   0
;
_shelx_hkl_checksum              18387
_olex2_submission_special_instructions 'No special instructions were received'
_oxdiff_exptl_absorpt_empirical_details
;
Empirical correction (ABSPACK) includes:
- Absorption correction using spherical harmonics
- Frame scaling
;
_oxdiff_exptl_absorpt_empirical_full_max 1.676
_oxdiff_exptl_absorpt_empirical_full_min 0.537
loop_
_space_group_symop_operation_xyz
'x, y, z'
'-x, -y, -z'
loop_
_atom_site_label
_atom_site_type_symbol
_atom_site_fract_x
_atom_site_fract_y
_atom_site_fract_z
_atom_site_U_iso_or_equiv
_atom_site_adp_type
_atom_site_occupancy
_atom_site_site_symmetry_order
_atom_site_calc_flag
_atom_site_refinement_flags_posn
_atom_site_refinement_flags_adp
_atom_site_refinement_flags_occupancy
_atom_site_disorder_assembly
_atom_site_disorder_group
U1 U 1.26079(7) 0.91647(3) 0.25251(3) 0.00898(10) Uani 1 1 d . . . . .
Pb1 Pb 0.17145(8) 0.31083(3) 0.19444(3) 0.01469(11) Uani 1 1 d . . . . .
Se1 Se 1.28840(19) 0.88875(8) -0.04645(8) 0.0096(2) Uani 1 1 d . . . . .
Se2 Se 1.2252(2) 1.16877(9) 0.48770(8) 0.0152(2) Uani 1 1 d . . . . .
Se3 Se 0.9065(2) 0.62495(8) 0.22164(8) 0.0125(2) Uani 1 1 d . . . . .
Cu1 Cu 1.000000 0.500000 0.500000 0.0106(3) Uani 1 2 d S . P . .
Cu2 Cu 0.7072(2) 0.44315(10) 0.04630(10) 0.0112(3) Uani 1 1 d . . . . .
Cu3 Cu 0.5642(2) 0.42344(10) 0.38495(10) 0.0135(3) Uani 1 1 d . . . . .
O1 O 1.5215(15) 0.8656(6) 0.3052(6) 0.0207(17) Uani 1 1 d . . . . .
O2 O 1.0006(15) 0.9652(6) 0.1961(6) 0.0232(18) Uani 1 1 d . . . . .
O3 O 1.4465(14) 0.8649(6) 0.0625(5) 0.0124(10) Uani 1 1 d . . . . .
O4 O 1.1603(13) 0.7378(6) -0.0577(5) 0.0124(10) Uani 1 1 d . . . . .
O5 O 1.5200(14) 0.8857(6) -0.1618(5) 0.0152(16) Uani 1 1 d . . . . .
O6 O 1.1564(16) 1.1013(6) 0.3696(6) 0.0237(13) Uani 1 1 d . . . . .
O7 O 1.2419(15) 1.3305(6) 0.4422(6) 0.0204(17) Uani 1 1 d . . . . .
O8 O 0.9575(16) 1.1685(6) 0.5742(6) 0.0237(13) Uani 1 1 d . . . . .
O9 O 1.1772(14) 0.6910(6) 0.2231(5) 0.0155(16) Uani 1 1 d . . . . .
O10 O 0.8863(14) 0.5133(6) 0.3320(5) 0.0139(11) Uani 1 1 d . . . . .
O11 O 0.9811(14) 0.5148(6) 0.1135(5) 0.0139(11) Uani 1 1 d . . . . .
O12 O 0.6931(14) 0.4097(6) 0.5251(5) 0.0132(15) Uani 1 1 d D . . . .
H12 H 0.763(19) 0.326(5) 0.535(9) 0.020 Uiso 1 1 d D U . . .
O13 O 0.4701(14) 0.4568(6) 0.2384(6) 0.0146(15) Uani 1 1 d D . . . .
H13 H 0.391(16) 0.532(7) 0.218(6) 0.022 Uiso 1 1 d D U . . .
O14 O 0.4057(13) 0.3831(6) 0.0063(5) 0.0132(15) Uani 1 1 d D . . . .
H14 H 0.44(2) 0.298(5) -0.023(8) 0.020 Uiso 1 1 d D U . . .
O15 O 0.7006(18) 0.2024(8) 0.3420(7) 0.037(2) Uani 1 1 d . . . . .
H15A H 0.674066 0.178787 0.274045 0.056 Uiso 1 1 d DR U . . .
H15B H 0.859990 0.196609 0.334091 0.056 Uiso 1 1 d R U . . .
loop_
_atom_site_aniso_label
_atom_site_aniso_U_11
_atom_site_aniso_U_22
_atom_site_aniso_U_33
_atom_site_aniso_U_23
_atom_site_aniso_U_13
_atom_site_aniso_U_12
U1 0.0141(2) 0.00750(16) 0.00496(18) 0.00017(11) -0.00061(15) -0.00361(13)
Pb1 0.0160(2) 0.01314(18) 0.0146(2) 0.00231(13) -0.00207(17) -0.00358(14)
Se1 0.0142(6) 0.0079(4) 0.0065(4) -0.0001(3) -0.0011(4) -0.0029(3)
Se2 0.0227(6) 0.0142(4) 0.0080(5) 0.0003(3) -0.0011(4) -0.0040(4)
Se3 0.0162(6) 0.0089(4) 0.0113(5) -0.0025(3) 0.0004(4) -0.0031(4)
Cu1 0.0109(10) 0.0121(7) 0.0086(8) -0.0010(6) -0.0007(7) -0.0042(6)
Cu2 0.0122(7) 0.0088(5) 0.0130(6) 0.0011(4) -0.0035(5) -0.0025(4)
Cu3 0.0150(7) 0.0175(6) 0.0076(6) -0.0009(4) -0.0004(5) -0.0078(5)
O1 0.018(5) 0.022(4) 0.021(4) 0.002(3) -0.003(3) -0.002(3)
O2 0.024(5) 0.020(4) 0.026(4) -0.002(3) -0.007(4) -0.004(3)
O3 0.019(3) 0.011(2) 0.007(2) 0.0014(16) -0.002(2) -0.0062(19)
O4 0.019(3) 0.011(2) 0.007(2) 0.0014(16) -0.002(2) -0.0062(19)
O5 0.021(5) 0.011(3) 0.014(4) -0.001(2) -0.004(3) -0.005(3)
O6 0.041(4) 0.017(2) 0.010(3) -0.0010(18) 0.004(3) -0.005(2)
O7 0.026(5) 0.013(3) 0.018(4) -0.002(3) 0.007(3) -0.008(3)
O8 0.041(4) 0.017(2) 0.010(3) -0.0010(18) 0.004(3) -0.005(2)
O9 0.020(5) 0.015(3) 0.011(4) -0.005(2) -0.001(3) -0.003(3)
O10 0.016(3) 0.015(2) 0.009(2) -0.0001(17) 0.002(2) -0.005(2)
O11 0.016(3) 0.015(2) 0.009(2) -0.0001(17) 0.002(2) -0.005(2)
O12 0.017(4) 0.015(3) 0.007(3) 0.003(2) -0.001(3) -0.001(3)
O13 0.014(4) 0.016(3) 0.014(4) 0.000(3) -0.003(3) -0.002(3)
O14 0.019(4) 0.009(3) 0.011(3) -0.003(2) -0.001(3) -0.002(3)
O15 0.040(7) 0.043(5) 0.030(5) -0.016(4) -0.004(5) -0.004(4)
loop_
_atom_type_symbol
_atom_type_description
_atom_type_scat_dispersion_real
_atom_type_scat_dispersion_imag
_atom_type_scat_source
Cu Cu 0.3201 1.2651 'International Tables Vol C Tables 4.2.6.8 and 6.1.1.4'
H H 0.0000 0.0000 'International Tables Vol C Tables 4.2.6.8 and 6.1.1.4'
O O 0.0106 0.0060 'International Tables Vol C Tables 4.2.6.8 and 6.1.1.4'
Pb Pb -3.3944 10.1111 'International Tables Vol C Tables 4.2.6.8 and 6.1.1.4'
Se Se -0.0929 2.2259 'International Tables Vol C Tables 4.2.6.8 and 6.1.1.4'
U U -9.6767 9.6646 'International Tables Vol C Tables 4.2.6.8 and 6.1.1.4'
loop_
_exptl_crystal_face_index_h
_exptl_crystal_face_index_k
_exptl_crystal_face_index_l
_exptl_crystal_face_perp_dist
3 -13 5 0.0399
3 2 -14 0.0592
-2 13 -7 0.0239
-4 3 13 0.0446
7 -2 9 0.0377
-2 -13 -4 0.0406
-7 -3 -9 0.0219
0 14 1 0.0073
loop_
_geom_angle_atom_site_label_1
_geom_angle_atom_site_label_2
_geom_angle_atom_site_label_3
_geom_angle
_geom_angle_site_symmetry_1
_geom_angle_site_symmetry_3
O1 U1 O2 178.5(3) . .
O1 U1 O3 91.2(3) . .
O1 U1 O5 89.7(3) . 2_875
O1 U1 O6 98.5(3) . .
O1 U1 O8 85.9(3) . 2_776
O1 U1 O9 89.2(3) . .
O2 U1 O3 87.4(3) . .
O2 U1 O5 90.4(3) . 2_875
O2 U1 O6 83.0(3) . .
O2 U1 O8 94.9(3) . 2_776
O2 U1 O9 89.9(3) . .
O3 U1 O5 70.9(2) . 2_875
O6 U1 O3 140.6(2) . .
O6 U1 O5 71.0(2) . 2_875
O6 U1 O9 145.4(3) . .
O8 U1 O3 145.5(2) 2_776 .
O8 U1 O5 143.3(2) 2_776 2_875
O8 U1 O6 73.6(2) 2_776 .
O8 U1 O9 73.3(2) 2_776 .
O9 U1 O3 72.2(2) . .
O9 U1 O5 143.1(2) . 2_875
O5 Pb1 O4 105.79(19) 2_765 2_665
O11 Pb1 O4 63.32(18) 1_455 2_665
O11 Pb1 O5 148.7(2) 1_455 2_765
O13 Pb1 O4 147.0(2) . 2_665
O13 Pb1 O5 91.4(2) . 2_765
O13 Pb1 O11 87.3(2) . 1_455
O13 Pb1 O14 75.3(2) . .
O14 Pb1 O4 79.9(2) . 2_665
O14 Pb1 O5 80.8(2) . 2_765
O14 Pb1 O11 68.6(2) . 1_455
O3 Se1 O5 100.3(3) . .
O4 Se1 O3 103.8(3) . .
O4 Se1 O5 100.2(3) . .
O6 Se2 O7 98.1(3) . .
O8 Se2 O6 101.7(4) . .
O8 Se2 O7 100.3(3) . .
O9 Se3 O10 100.5(3) . .
O9 Se3 O11 99.9(3) . .
O10 Se3 O11 97.6(3) . .
O7 Cu1 O7 180.0 2_776 1_545
O10 Cu1 O7 90.6(3) . 1_545
O10 Cu1 O7 89.4(3) 2_766 1_545
O10 Cu1 O7 89.4(3) . 2_776
O10 Cu1 O7 90.6(3) 2_766 2_776
O10 Cu1 O10 180.0 2_766 .
O12 Cu1 O7 80.1(3) 2_766 1_545
O12 Cu1 O7 99.9(3) 2_766 2_776
O12 Cu1 O7 80.1(3) . 2_776
O12 Cu1 O7 99.9(3) . 1_545
O12 Cu1 O10 76.1(3) . .
O12 Cu1 O10 103.9(3) 2_766 .
O12 Cu1 O10 103.9(3) . 2_766
O12 Cu1 O10 76.1(3) 2_766 2_766
O12 Cu1 O12 180.0 . 2_766
O4 Cu2 Cu2 134.5(2) 2_765 2_665
O4 Cu2 O11 89.0(3) 2_765 .
O4 Cu2 O11 88.2(2) 2_765 2_765
O4 Cu2 O14 165.7(3) 2_765 2_665
O11 Cu2 Cu2 99.18(18) 2_765 2_665
O11 Cu2 Cu2 136.38(19) . 2_665
O11 Cu2 O11 75.5(3) . 2_765
O14 Cu2 Cu2 41.25(18) . 2_665
O14 Cu2 Cu2 40.4(2) 2_665 2_665
O14 Cu2 O4 94.8(3) . 2_765
O14 Cu2 O11 114.0(3) . 2_765
O14 Cu2 O11 169.8(3) . .
O14 Cu2 O11 96.8(3) 2_665 .
O14 Cu2 O11 80.8(3) 2_665 2_765
O14 Cu2 O14 81.6(3) . 2_665
O7 Cu3 O12 74.6(2) 1_445 2_666
O7 Cu3 O15 83.4(3) 1_445 .
O10 Cu3 O7 178.5(3) . 1_445
O10 Cu3 O12 105.7(2) . 2_666
O10 Cu3 O15 96.2(3) . .
O12 Cu3 O7 97.9(3) . 1_445
O12 Cu3 O10 80.6(3) . .
O12 Cu3 O12 86.5(3) . 2_666
O12 Cu3 O15 89.0(3) . .
O12 Cu3 O15 156.6(3) 2_666 .
O13 Cu3 O7 89.9(3) . 1_445
O13 Cu3 O10 91.6(3) . .
O13 Cu3 O12 93.2(3) . 2_666
O13 Cu3 O12 171.8(3) . .
O13 Cu3 O15 94.4(3) . .
Se1 O3 U1 119.4(4) . .
Se1 O4 Pb1 124.4(3) . 2_665
Se1 O4 Cu2 130.1(4) . 2_765
Cu2 O4 Pb1 99.9(2) 2_765 2_665
U1 O5 Pb1 105.6(3) 2_875 2_765
Se1 O5 U1 124.9(3) . 2_875
Se1 O5 Pb1 122.3(3) . 2_765
Se2 O6 U1 139.7(5) . .
Se2 O7 Cu1 129.6(4) . 1_565
Se2 O7 Cu3 121.9(4) . 1_665
Cu3 O7 Cu1 102.5(2) 1_665 1_565
Se2 O8 U1 144.3(4) . 2_776
Se3 O9 U1 126.4(4) . .
Se3 O10 Cu1 137.5(3) . .
Se3 O10 Cu3 117.2(4) . .
Cu3 O10 Cu1 95.2(3) . .
Se3 O11 Pb1 107.6(3) . 1_655
Se3 O11 Cu2 122.9(3) . 2_765
Se3 O11 Cu2 116.3(4) . .
Cu2 O11 Pb1 97.4(3) 2_765 1_655
Cu2 O11 Pb1 105.4(2) . 1_655
Cu2 O11 Cu2 104.5(3) . 2_765
Cu1 O12 Cu3 101.3(2) . 2_666
Cu1 O12 Cu3 107.9(3) . .
Cu1 O12 H12 93(7) . .
Cu3 O12 Cu3 93.5(3) . 2_666
Cu3 O12 H12 145(6) 2_666 .
Cu3 O12 H12 112(6) . .
Pb1 O13 H13 93(7) . .
Cu3 O13 Pb1 115.2(3) . .
Cu3 O13 H13 125(5) . .
Pb1 O14 H14 97(6) . .
Cu2 O14 Pb1 112.0(3) 2_665 .
Cu2 O14 Pb1 102.2(3) . .
Cu2 O14 Cu2 98.4(3) . 2_665
Cu2 O14 H14 138(6) 2_665 .
Cu2 O14 H14 105(7) . .
Cu3 O15 H15A 111.4 . .
Cu3 O15 H15B 111.4 . .
H15A O15 H15B 102.5 . .
loop_
_geom_bond_atom_site_label_1
_geom_bond_atom_site_label_2
_geom_bond_distance
_geom_bond_site_symmetry_2
U1 O1 1.776(8) .
U1 O2 1.791(8) .
U1 O3 2.396(6) .
U1 O5 2.472(6) 2_875
U1 O6 2.366(6) .
U1 O8 2.359(7) 2_776
U1 O9 2.368(6) .
Pb1 O4 2.756(7) 2_665
Pb1 O5 2.626(7) 2_765
Pb1 O11 2.567(6) 1_455
Pb1 O13 2.380(7) .
Pb1 O14 2.493(7) .
Se1 O3 1.723(7) .
Se1 O4 1.704(6) .
Se1 O5 1.726(7) .
Se2 O6 1.691(7) .
Se2 O7 1.703(6) .
Se2 O8 1.675(8) .
Se3 O9 1.675(7) .
Se3 O10 1.703(6) .
Se3 O11 1.719(6) .
Cu1 O7 2.229(7) 2_776
Cu1 O7 2.229(7) 1_545
Cu1 O10 2.221(7) .
Cu1 O10 2.221(7) 2_766
Cu1 O12 1.935(7) 2_766
Cu1 O12 1.935(7) .
Cu2 Cu2 2.985(2) 2_665
Cu2 O4 1.980(6) 2_765
Cu2 O11 2.389(7) 2_765
Cu2 O11 2.013(7) .
Cu2 O14 1.954(7) .
Cu2 O14 1.989(6) 2_665
Cu3 O7 2.050(8) 1_445
Cu3 O10 2.027(7) .
Cu3 O12 1.949(7) .
Cu3 O12 2.369(7) 2_666
Cu3 O13 1.945(7) .
Cu3 O15 2.391(8) .
O12 H12 0.95(2) .
O13 H13 0.932(18) .
O14 H14 0.95(2) .
O15 H15A 0.8916 .
O15 H15B 0.8922 .
loop_
_geom_hbond_atom_site_label_D
_geom_hbond_atom_site_label_H
_geom_hbond_atom_site_label_A
_geom_hbond_distance_DH
_geom_hbond_distance_HA
_geom_hbond_distance_DA
_geom_hbond_angle_DHA
_geom_hbond_site_symmetry_A
_geom_hbond_publ_flag
O12 H12 O8 0.95(2) 2.02(3) 2.953(10) 168(10) 1_545 yes
O13 H13 O9 0.932(18) 1.997(18) 2.902(9) 163(7) 1_455 yes
O14 H14 O3 0.95(2) 1.80(3) 2.730(8) 168(10) 2_765 yes
O15 H15A O5 0.89 2.00 2.841(11) 156.0 2_765 yes
O15 H15B O6 0.89 2.04 2.843(14) 149.7 1_545 yes
loop_
_geom_torsion_atom_site_label_1
_geom_torsion_atom_site_label_2
_geom_torsion_atom_site_label_3
_geom_torsion_atom_site_label_4
_geom_torsion
_geom_torsion_site_symmetry_1
_geom_torsion_site_symmetry_2
_geom_torsion_site_symmetry_3
_geom_torsion_site_symmetry_4
O3 Se1 O4 Pb1 172.4(4) . . . 2_665
O3 Se1 O4 Cu2 -39.7(5) . . . 2_765
O3 Se1 O5 U1 -92.7(4) . . . 2_875
O3 Se1 O5 Pb1 53.4(4) . . . 2_765
O4 Se1 O3 U1 -93.4(4) . . . .
O4 Se1 O5 U1 161.1(4) . . . 2_875
O4 Se1 O5 Pb1 -52.9(4) . . . 2_765
O5 Se1 O3 U1 163.2(3) . . . .
O5 Se1 O4 Pb1 -84.2(4) . . . 2_665
O5 Se1 O4 Cu2 63.7(5) . . . 2_765
O6 Se2 O7 Cu1 111.1(5) . . . 1_565
O6 Se2 O7 Cu3 -101.1(5) . . . 1_665
O6 Se2 O8 U1 117.5(6) . . . 2_776
O7 Se2 O6 U1 137.1(6) . . . .
O7 Se2 O8 U1 -141.9(6) . . . 2_776
O8 Se2 O6 U1 -120.6(6) . . . .
O8 Se2 O7 Cu1 7.5(6) . . . 1_565
O8 Se2 O7 Cu3 155.4(4) . . . 1_665
O9 Se3 O10 Cu1 35.2(6) . . . .
O9 Se3 O10 Cu3 170.5(3) . . . .
O9 Se3 O11 Pb1 78.5(3) . . . 1_655
O9 Se3 O11 Cu2 -33.0(5) . . . 2_765
O9 Se3 O11 Cu2 -163.7(3) . . . .
O10 Se3 O9 U1 -118.9(4) . . . .
O10 Se3 O11 Pb1 -23.6(4) . . . 1_655
O10 Se3 O11 Cu2 94.2(4) . . . .
O10 Se3 O11 Cu2 -135.1(4) . . . 2_765
O11 Se3 O9 U1 141.4(4) . . . .
O11 Se3 O10 Cu1 136.7(6) . . . .
O11 Se3 O10 Cu3 -88.0(4) . . . .
loop_
_exptl_oxdiff_crystal_face_indexfrac_h
_exptl_oxdiff_crystal_face_indexfrac_k
_exptl_oxdiff_crystal_face_indexfrac_l
_exptl_oxdiff_crystal_face_x
_exptl_oxdiff_crystal_face_y
_exptl_oxdiff_crystal_face_z
2.7488 -12.7968 5.0768 -0.0421 -0.1495 0.9879
2.6772 1.8415 -14.4772 0.2308 0.9686 -0.0923
-2.3407 12.5631 -6.5853 0.0675 0.2571 -0.9640
-3.7935 3.0340 12.8520 -0.2198 -0.9329 -0.2852
7.3134 -2.4873 8.6646 -0.7969 0.1932 0.5724
-2.2948 -13.4171 -4.0183 0.6757 -0.1557 0.7205
-7.2355 -2.7805 -9.0520 0.9455 -0.2263 -0.2340
0.1619 14.1853 1.4952 -0.4446 0.0996 -0.8902
