#------------------------------------------------------------------------------
#$Date: 2022-01-20 11:41:19 +0200 (Thu, 20 Jan 2022) $
#$Revision: 272153 $
#$URL: file:///home/coder/svn-repositories/cod/cif/1/56/60/1566059.cif $
#------------------------------------------------------------------------------
#
# This file is available in the Crystallography Open Database (COD),
# http://www.crystallography.net/
#
# All data on this site have been placed in the public domain by the
# contributors.
#
data_1566059
loop_
_publ_author_name
'Long, Jingwen'
'Huang, Xing'
'Cui, Meiyan'
'Zhao, Zhiying'
'He, Zhangzhen'
_publ_section_title
;
 Synthesis, structure and magnetic behaviors of a new fluorophosphate
 PbCuPO4F
;
_journal_name_full               'Journal of Solid State Chemistry'
_journal_page_first              122666
_journal_paper_doi               10.1016/j.jssc.2021.122666
_journal_volume                  305
_journal_year                    2022
_chemical_formula_moiety         'Cu F O4 P Pb'
_chemical_formula_sum            'Cu F O4 P Pb'
_chemical_formula_weight         384.70
_space_group_crystal_system      monoclinic
_space_group_IT_number           14
_space_group_name_Hall           '-P 2ybc'
_space_group_name_H-M_alt        'P 1 21/c 1'
_atom_sites_solution_hydrogens   .
_atom_sites_solution_primary     dual
_cell_angle_alpha                90
_cell_angle_beta                 90.075(2)
_cell_angle_gamma                90
_cell_formula_units_Z            4
_cell_length_a                   4.93230(10)
_cell_length_b                   9.2826(2)
_cell_length_c                   8.8000(2)
_cell_measurement_reflns_used    3916
_cell_measurement_temperature    293(2)
_cell_measurement_theta_max      33.0860
_cell_measurement_theta_min      2.2020
_cell_volume                     402.904(15)
_computing_cell_refinement       'CrysAlisPro 1.171.39.46c (Rigaku OD, 2018)'
_computing_data_collection       'CrysAlisPro 1.171.39.46c (Rigaku OD, 2018)'
_computing_data_reduction        'CrysAlisPro 1.171.39.46c (Rigaku OD, 2018)'
_computing_molecular_graphics    'Olex2 1.3 (Dolomanov et al., 2009)'
_computing_publication_material  'Olex2 1.3 (Dolomanov et al., 2009)'
_computing_structure_refinement  'SHELXL 2018/3 (Sheldrick, 2015)'
_computing_structure_solution    'SHELXT 2018/2 (Sheldrick, 2018)'
_diffrn_ambient_temperature      293(2)
_diffrn_detector                 'CCD plate'
_diffrn_measured_fraction_theta_full 0.999
_diffrn_measured_fraction_theta_max 0.999
_diffrn_measurement_details
;
List of Runs (angles in degrees, time in seconds):

  # Type    Start    End  Width  t~exp~   \w     \q     \k     \f   Frames
--------------------------------------------------------------------------
  1  \w   -118.00  62.00   0.50    5.00    --  -28.00  45.00 180.00  360
  2  \w   -118.00  22.00   0.50    5.00    --  -28.00  45.00  90.00  280
  3  \w   -118.00 -38.00   0.50    5.00    --  -28.00  45.00   0.00  160
;
_diffrn_measurement_device       'abstract diffractometer'
_diffrn_measurement_device_type
'dtrek-CrysAlisPro-abstract goniometer imported rigaku-d*trek images'
_diffrn_measurement_method       '\w scans'
_diffrn_orient_matrix_type
'CrysAlisPro convention (1999,Acta A55,543-557)'
_diffrn_orient_matrix_UB_11      -0.0824781000
_diffrn_orient_matrix_UB_12      -0.0507350000
_diffrn_orient_matrix_UB_13      -0.0387814000
_diffrn_orient_matrix_UB_21      -0.1169024000
_diffrn_orient_matrix_UB_22      0.0296099000
_diffrn_orient_matrix_UB_23      0.0349912000
_diffrn_orient_matrix_UB_31      -0.0147828000
_diffrn_orient_matrix_UB_32      0.0488507000
_diffrn_orient_matrix_UB_33      -0.0613830000
_diffrn_radiation_monochromator  graphite
_diffrn_radiation_probe          x-ray
_diffrn_radiation_type           'Mo K\a'
_diffrn_radiation_wavelength     0.71073
_diffrn_reflns_av_R_equivalents  0.0244
_diffrn_reflns_av_unetI/netI     0.0172
_diffrn_reflns_Laue_measured_fraction_full 0.999
_diffrn_reflns_Laue_measured_fraction_max 0.999
_diffrn_reflns_limit_h_max       5
_diffrn_reflns_limit_h_min       -5
_diffrn_reflns_limit_k_max       11
_diffrn_reflns_limit_k_min       -10
_diffrn_reflns_limit_l_max       9
_diffrn_reflns_limit_l_min       -10
_diffrn_reflns_number            2191
_diffrn_reflns_point_group_measured_fraction_full 0.999
_diffrn_reflns_point_group_measured_fraction_max 0.999
_diffrn_reflns_theta_full        24.998
_diffrn_reflns_theta_max         24.998
_diffrn_reflns_theta_min         3.190
_diffrn_source                   'fine-focus sealed X-ray tube'
_diffrn_source_type              'Enhance (Mo) X-ray Source'
_exptl_absorpt_coefficient_mu    47.328
_exptl_absorpt_correction_T_max  1.00000
_exptl_absorpt_correction_T_min  0.24487
_exptl_absorpt_correction_type   multi-scan
_exptl_absorpt_process_details
;
CrysAlisPro 1.171.39.46c (Rigaku Oxford Diffraction, 2018)
Empirical absorption correction using spherical harmonics,
 implemented in SCALE3 ABSPACK scaling algorithm.
;
_exptl_crystal_density_diffrn    6.342
_exptl_crystal_F_000             668
_refine_diff_density_max         1.776
_refine_diff_density_min         -1.466
_refine_diff_density_rms         0.374
_refine_ls_extinction_coef       0.0063(6)
_refine_ls_extinction_expression Fc^*^=kFc[1+0.001xFc^2^\l^3^/sin(2\q)]^-1/4^
_refine_ls_extinction_method     'SHELXL-2018/3 (Sheldrick 2018)'
_refine_ls_goodness_of_fit_ref   1.248
_refine_ls_hydrogen_treatment    undef
_refine_ls_matrix_type           full
_refine_ls_number_parameters     74
_refine_ls_number_reflns         705
_refine_ls_number_restraints     36
_refine_ls_restrained_S_all      1.217
_refine_ls_R_factor_all          0.0365
_refine_ls_R_factor_gt           0.0364
_refine_ls_shift/su_max          0.000
_refine_ls_shift/su_mean         0.000
_refine_ls_structure_factor_coef Fsqd
_refine_ls_weighting_details
'w=1/[\s^2^(Fo^2^)+33.2624P] where P=(Fo^2^+2Fc^2^)/3'
_refine_ls_weighting_scheme      calc
_refine_ls_wR_factor_gt          0.0778
_refine_ls_wR_factor_ref         0.0778
_reflns_Friedel_coverage         0.000
_reflns_Friedel_fraction_full    .
_reflns_Friedel_fraction_max     .
_reflns_number_gt                702
_reflns_number_total             705
_reflns_threshold_expression     'I > 2\s(I)'
_cod_data_source_file            JSSC-2022-305-122666.cif
_cod_data_source_block           ljw
_cod_database_code               1566059
_shelx_space_group_comment
;
The symmetry employed for this shelxl refinement is uniquely defined
by the following loop, which should always be used as a source of
symmetry information in preference to the above space-group names.
They are only intended as comments.
;
_reflns_odcompleteness_completeness 94.93
_reflns_odcompleteness_iscentric 1
_reflns_odcompleteness_theta     33.09
_olex2_refinement_description
;
1. Uiso/Uaniso restraints and constraints
Uanis(O008) \\sim Ueq, Uanis(O006) \\sim Ueq: with sigma of 0.001 and sigma for
terminal atoms of 0.002
Uanis(P003) \\sim Ueq: with sigma of 0.001 and sigma for terminal atoms of 0.002
Uanis(O005) \\sim Ueq, Uanis(O008) \\sim Ueq: with sigma of 0.001 and sigma for
terminal atoms of 0.002
Uanis(F004) \\sim Ueq: with sigma of 0.001 and sigma for terminal atoms of 0.002
Uanis(O007) \\sim Ueq: with sigma of 0.001 and sigma for terminal atoms of 0.002
;
_shelx_res_file
;
TITL ljw_a.res in P2(1)/c
    ljw.res
    created by SHELXL-2018/3 at 20:00:06 on 28-Nov-2020
REM Old TITL ljw_c.res in P2(1)
REM SHELXT solution in P2(1)/c: R1 0.085, Rweak 0.006, Alpha 0.014
REM <I/s> 2.611 for 57 systematic absences, Orientation as input
REM Formula found by SHELXT: Cu F O4 P Pb
CELL 0.71073 4.9323 9.2826 8.8 90 90.075 90
ZERR 4 0.0001 0.0002 0.0002 0 0.002 0
LATT 1
SYMM -X,0.5+Y,0.5-Z
SFAC Cu F O P Pb
UNIT 4 4 16 4 4
ISOR 0.001 0.002 O008 O006
ISOR 0.001 0.002 P003
ISOR 0.001 0.002 O005 O008
ISOR 0.001 0.002 F004
ISOR 0.001 0.002 O007

L.S. 10
PLAN  10
CONF
LIST 6
MORE -1
fmap 2
acta
SHEL 999 0.84
OMIT 0 50
OMIT -1 0 4
REM <olex2.extras>
REM <HklSrc "%.\\ljw.hkl">
REM </olex2.extras>

WGHT    0.000000   33.262402
EXTI    0.006314
FVAR       0.32576
PB01  5    0.321321    0.696046    1.012653    11.00000    0.01466    0.01002 =
         0.01816    0.00192   -0.00256   -0.00024
CU02  1    0.742002    0.592629    0.704211    11.00000    0.01615    0.00361 =
         0.00662   -0.00034   -0.00121    0.00165
P003  4    0.797140    0.588990    0.327974    11.00000    0.00498    0.00385 =
         0.00547   -0.00028    0.00070   -0.00036
F004  2    0.727314    0.567499    0.923550    11.00000    0.01556    0.01518 =
         0.01471    0.00004   -0.00007    0.00030
O005  3    1.113174    0.602861    0.314303    11.00000    0.00906    0.00896 =
         0.00924   -0.00009   -0.00040   -0.00006
O006  3    0.661973    0.700387    0.223902    11.00000    0.01041    0.01009 =
         0.01004    0.00006    0.00003   -0.00006
O007  3    0.710862    0.629039    0.488931    11.00000    0.01276    0.01224 =
         0.01224    0.00015    0.00008    0.00018
O008  3    0.720850    0.434885    0.285930    11.00000    0.01185    0.01117 =
         0.01143   -0.00023   -0.00002    0.00023
HKLF 4




REM  ljw_a.res in P2(1)/c
REM wR2 = 0.0778, GooF = S = 1.248, Restrained GooF = 1.217 for all data
REM R1 = 0.0364 for 702 Fo > 4sig(Fo) and 0.0365 for all 705 data
REM 74 parameters refined using 36 restraints

END

WGHT      0.0000     33.2602

REM Highest difference peak  1.776,  deepest hole -1.466,  1-sigma level  0.374
Q1    1   0.7257  0.5998  0.2474  11.00000  0.05    1.78
Q2    1   0.2542  0.6930  0.9289  11.00000  0.05    1.71
Q3    1   0.5909  0.4115  0.3410  11.00000  0.05    1.50
Q4    1   0.5909  0.7007  1.0568  11.00000  0.05    1.43
Q5    1   0.4806  0.6945  1.0746  11.00000  0.05    1.30
Q6    1   0.5322  0.6828  0.6164  11.00000  0.05    1.19
Q7    1   0.9874  0.5823  0.7540  11.00000  0.05    1.18
Q8    1   0.1886  0.7993  0.9992  11.00000  0.05    1.16
Q9    1   0.5967  0.6167  0.4726  11.00000  0.05    1.10
Q10   1   0.3583  0.8827  1.0006  11.00000  0.05    1.03
;
_shelx_res_checksum              31007
_shelx_hkl_file
;
   0   0   1    0.04    0.14
   0   0   1   -0.07    0.23
   0   0  -1    0.43    0.24
   0   0  -2 2101.03    9.82
   0   0   2 2111.08   10.87
   0   0   3    9.00    1.08
   0   0  -3    3.95    0.77
   0   0   4 7632.16   28.78
   0   0  -4 6650.61   28.77
   0   0   5    0.04    0.82
   0   0  -5    1.19    0.93
   0   0  -6 4005.92   27.47
   0   0   6 4191.59   25.81
   0   0   7    4.64    1.58
   0   0  -7    3.35    1.41
   0   0   8  351.03    8.72
   0   0  -8  314.25    8.80
   0   0  -9    0.80    1.66
   0   0 -10 1562.26   21.41
   0   0 -11   -0.65    2.03
   0   0 -12  113.23    7.32
   0   0 -13    0.55    3.09
   0   1   0    1.29    0.33
   0  -1   0   -0.01    0.15
   0   1  -1  201.61    3.01
   0   1   1  257.74    3.37
   0   1  -1  194.83    3.50
   0  -1   1  214.90    3.29
   0  -1   1  235.31    3.44
   0  -1   1  245.14    3.59
   0   1  -1  198.57    3.09
   0   1  -2  178.73    3.70
   0  -1   2  175.45    2.81
   0   1   2  188.64    3.65
   0   1  -2  190.65    3.13
   0  -1  -2  191.14    3.59
   0  -1  -3 3561.49   17.95
   0   1  -3 3547.72   20.03
   0   1  -4   83.65    3.44
   0  -1  -4   78.82    3.12
   0  -1   4   80.23    2.92
   0   1   4   81.77    3.22
   0   1   5  437.26    8.20
   0   1  -5  412.41    8.32
   0  -1   5  435.20    7.73
   0   1  -6 1506.63   17.29
   0  -1  -6 1499.52   16.58
   0   1   6 1588.73   16.91
   0  -1   6 1615.23   16.61
   0  -1   7  655.87   10.89
   0  -1  -7  638.52   12.13
   0   1   7  653.21   11.52
   0  -1  -8  184.03    6.93
   0  -1   8  181.96    5.93
   0   1   8  199.79    6.91
   0   1  -8  175.79    6.50
   0  -1  -9   55.00    4.01
   0   1  -9   41.47    3.66
   0  -1 -10 1180.09   19.71
   0   1 -10 1119.66   18.94
   0   1 -11    3.58    2.44
   0  -1 -11    7.04    2.62
   0   1 -12  370.08   12.24
   0  -1 -12  363.34   12.07
   0  -1 -13   91.37    7.17
   0   1 -13   82.15    6.61
   0   2   0 2001.36   12.53
   0  -2   0 2053.54    6.64
   0   2  -1   82.37    2.69
   0   2   1   89.42    2.81
   0  -2   1   88.64    1.78
   0   2  -1   87.34    1.90
   0   2  -2 4934.54   21.33
   0   2  -2 4992.96   24.75
   0   2  -2 5010.07   23.35
   0   2  -3  460.98    6.60
   0  -2  -3  460.07    6.83
   0   2  -3  461.30    7.86
   0   2   3  463.15    7.43
   0   2   4 2887.11   20.34
   0  -2  -4 2924.76   19.47
   0  -2   4 2932.60   17.36
   0   2  -4 2926.34   22.01
   0  -2  -5   13.48    1.67
   0   2   5   14.99    1.86
   0   2  -5   14.00    1.90
   0  -2   5   15.65    1.57
   0  -2  -6 1346.35   16.04
   0   2  -6 1331.83   16.91
   0   2   6 1336.66   16.04
   0  -2   6 1300.29   14.57
   0  -2   7  461.78    9.35
   0   2   7  458.59    9.96
   0  -2  -7  465.19   10.16
   0   2  -7  469.60   10.73
   0  -2  -8 1482.27   19.51
   0  -2   8 1452.43   16.95
   0   2   8 1454.53   18.73
   0  -2  -9  871.86   15.73
   0   2  -9  818.16   15.88
   0  -2 -10  157.48    7.11
   0   2 -10  161.26    7.31
   0  -2 -11   16.20    3.44
   0   2 -11   16.36    3.20
   0   2 -12  158.53    8.66
   0  -2 -12  154.26    8.36
   0   2 -13  609.68   16.60
   0   3   0    1.62    0.34
   0  -3   0    1.26    0.39
   0   3   0    0.60    0.72
   0   3  -1 3464.64   20.06
   0  -3   1 3507.45   11.20
   0   3   1 3637.61   20.64
   0   3  -1 3466.50   10.83
   0   3   1 3728.84   13.86
   0   3  -2  163.16    4.60
   0   3  -2  161.05    4.16
   0   3  -3 3769.20   22.80
   0   3  -3 3800.12   23.91
   0  -3  -4  865.34   11.37
   0   3   4  859.71   12.70
   0   3  -4  865.97   12.71
   0   3  -4  902.55   11.58
   0   3  -5 2059.28   20.94
   0  -3  -5 2080.91   19.13
   0  -3   5 2026.48   16.86
   0   3  -6    6.24    1.82
   0  -3   6    5.00    1.38
   0  -3  -6    3.84    1.42
   0  -3   7 1230.88   15.54
   0  -3  -7 1255.68   17.12
   0   3   7 1248.53   18.18
   0   3  -8 1013.76   17.40
   0  -3  -8 1029.56   16.53
   0   3  -9  655.06   14.70
   0   3   9  664.92   14.29
   0  -3 -10   22.46    3.42
   0   3 -10   26.18    3.52
   0   3 -11  155.50    7.90
   0  -3 -11  143.77    7.47
   0  -3 -12  163.74    9.09
   0   3 -12  108.21    6.87
   0   3 -13   87.58    7.05
   0   4   0  569.90    4.60
   0   4   0  582.47    9.64
   0   4  -1  902.47    5.81
   0   4   1  934.95    7.31
   0   4  -1  926.27   11.54
   0  -4   1  916.25    6.01
   0   4  -2  839.80   11.31
   0   4  -2  854.99    9.06
   0   4   3   22.36    2.38
   0   4  -3   20.34    1.99
   0   4  -3   19.47    2.03
   0   4   4   30.50    2.87
   0   4  -4   29.40    2.68
   0   4  -4   36.19    2.94
   0   4  -4   38.36    2.89
   0  -4  -4   33.05    2.47
   0   4  -5 1744.49   18.09
   0   4   5 1577.75   20.29
   0  -4  -5 1598.18   17.77
   0   4  -5 1817.28   21.26
   0   4   6   12.99    2.58
   0  -4   6   14.74    1.92
   0   4  -7  482.87   11.86
   0   4   7  454.68   12.18
   0  -4  -7  471.46   10.93
   0   4   8  279.58    9.63
   0   4  -8  294.15    9.60
   0   4  -9  216.08    8.61
   0   4   9  233.32    9.11
   0   4 -10   44.67    4.53
   0  -4 -10   41.85    4.44
   0  -4 -11 1095.85   20.83
   0   4 -11 1068.71   20.67
   0  -4 -12   16.02    3.88
   0   4 -12   22.03    4.13
   0   4 -13   51.69    6.09
   0   5   0    1.61    1.13
   0   5   0   10.88    0.75
   0   5  -1 6833.66   16.39
   0   5  -1 6803.13   34.97
   0  -5   1 6796.17   17.71
   0   5   2    9.63    1.82
   0   5   2   11.52    1.18
   0   5  -2    9.74    1.12
   0   5  -2    7.77    1.53
   0   5  -3  975.13   11.31
   0   5   3 1004.24   15.67
   0   5  -3 1009.10   14.52
   0   5  -4   92.25    4.56
   0   5   4   80.62    4.89
   0   5  -4   83.95    3.92
   0  -5  -4   89.50    4.27
   0   5   5 7288.94   47.22
   0   5  -5 7242.61   40.03
   0  -5  -5 7161.79   40.21
   0   5  -6   27.63    3.30
   0  -5  -6   30.62    3.06
   0   5  -6   30.31    3.22
   0   5   6   25.26    3.33
   0   5  -7  630.57   13.44
   0  -5  -7  596.56   12.91
   0   5   7  603.06   14.74
   0  -5  -8   32.31    3.61
   0   5   8   31.74    3.98
   0   5  -8   35.89    3.87
   0   5  -9 1001.26   18.32
   0  -5  -9  956.13   18.17
   0   5 -10   33.25    4.10
   0  -5 -10   30.78    4.18
   0  -5 -11  412.49   13.33
   0   5 -11  411.62   12.86
   0   5 -12    0.93    2.95
   0  -5 -12    4.43    3.27
   0   6   0  170.33    6.32
   0   6   0  177.00    2.90
   0   6   1   61.21    2.10
   0   6  -1   61.07    3.88
   0   6   1   66.61    4.35
   0   6  -1   65.77    1.74
   0   6  -2 2939.04   15.40
   0   6   2 2948.35   28.65
   0   6  -2 2924.86   25.52
   0   6   2 2922.28   17.39
   0   6   3   30.54    3.48
   0   6   3   38.36    2.47
   0   6  -3   37.42    2.38
   0   6  -3   30.73    2.95
   0   6   4  496.99   10.16
   0  -6  -4  477.60   10.37
   0   6  -4  463.73   10.80
   0   6  -4  504.87    8.66
   0   6   4  505.25   13.08
   0   6   5  448.63   12.65
   0  -6  -5  435.09   10.56
   0   6  -5  449.25   10.77
   0   6  -6  142.97    6.40
   0   6   6  148.00    7.50
   0  -6  -6  126.14    6.08
   0  -6  -7  382.05   10.85
   0   6   7  351.75   11.85
   0  -6  -8 1029.66   18.58
   0   6   8 1019.53   21.21
   0   6   9  346.61   12.82
   0  -6  -9  370.82   12.04
   0  -6 -10    5.69    2.94
   0  -6 -11  514.74   15.76
   0   7   0    0.63    1.50
   0   7   0    1.79    0.53
   0   7   1 1668.50   11.14
   0   7   1 1670.59   22.46
   0   7  -1 1649.55    8.57
   0   7   2   36.70    1.99
   0   7   2   43.46    4.06
   0   7  -2   39.70    1.80
   0   7  -2   42.40    3.54
   0   7  -3 3332.98   29.72
   0   7   3 3377.62   34.64
   0   7  -3 3411.83   18.17
   0  -7  -4  201.81    7.29
   0   7   4  189.72    5.96
   0   7  -4  219.88    7.74
   0   7   4  221.67    9.44
   0   7   5  230.66    7.74
   0   7  -5  216.89    8.01
   0  -7  -5  226.03    8.13
   0   7  -6   50.09    4.17
   0   7   6   33.35    4.49
   0   7   6   37.20    4.04
   0  -7  -6   49.52    4.35
   0  -7  -7  795.61   16.64
   0   7   7  856.84   20.05
   0  -7  -8  620.92   15.56
   0   7   8  640.82   17.77
   0   7   9  283.33   12.30
   0  -7  -9  278.81   10.92
   0  -7 -10   75.20    6.54
   0   7  10   77.14    8.30
   0  -7 -11   75.05    7.24
   0   7  11   64.24    8.45
   0   8   0 3374.91   31.90
   0   8  -1   32.68    3.49
   0   8   1   26.72    3.37
   0   8   1   24.73    1.50
   0   8   2 1594.34   12.90
   0   8  -2 1645.58   21.55
   0   8   3  190.51    8.97
   0   8   3  192.82    5.33
   0  -8  -4 1669.42   22.10
   0   8  -4 1741.87   22.89
   0   8   4 1707.51   18.42
   0   8   4 1749.04   27.27
   0   8  -5    7.77    2.28
   0   8   5   16.99    2.56
   0  -8  -5    5.79    2.22
   0   8   5   13.82    3.52
   0   8  -6  818.45   15.85
   0   8   6  798.43   15.57
   0  -8  -6  813.65   17.32
   0  -8  -7  121.02    7.21
   0   8   7  112.46    6.74
   0   8   8  471.20   16.27
   0   8   8  430.10   14.44
   0  -8  -8  452.78   14.16
   0  -8  -9  284.92   11.78
   0   8   9  292.04   13.22
   0   8   9  282.33   12.87
   0   8  10  248.88   13.25
   0  -8 -10  284.31   12.41
   0   8  11   10.82    5.40
   0   9   0   -0.08    2.16
   0   9  -1   15.69    2.91
   0   9   1   10.71    2.55
   0   9  -2   75.03    5.26
   0   9   2   75.66    5.85
   0   9  -3  168.10    7.75
   0   9   3  149.83    8.30
   0   9   4   32.03    4.60
   0   9  -4   46.60    4.45
   0   9   4   34.81    2.84
   0  -9  -4   42.03    4.25
   0  -9  -5   22.02    3.67
   0   9   5   24.02    2.98
   0   9  -5   30.98    3.70
   0  -9  -6  895.97   19.56
   0   9  -6  860.57   16.76
   0   9   6  914.89   16.97
   0   9   7   33.04    5.48
   0   9   7   35.15    4.52
   0  -9  -7   35.76    4.75
   0   9   8   46.01    6.29
   0  -9  -8   40.64    5.34
   0   9   8   42.94    5.53
   0   9   9    8.04    4.63
   0   9   9    1.11    3.99
   0  -9  -9    0.13    3.24
   0  -9 -10  796.84   21.66
   0   9  10  762.00   22.94
   0  10   0 4302.65   41.50
   0  10   1   32.24    4.33
   0  10  -1   44.03    4.56
   0  10  -2  616.86   15.34
   0  10   2  584.45   15.80
   0  10  -3   15.01    3.12
   0  10   3   24.49    4.41
   0  10   4 1696.10   29.46
   0 -10  -4 1669.35   26.62
   0 -10  -5   22.31    4.16
   0  10  -5   29.43    4.04
   0  10   5   25.44    4.73
   0 -10  -6 1290.56   24.92
   0  10  -6 1337.41   21.97
   0  10   7   18.37    4.90
   0 -10  -7    7.60    3.60
   0  10   8  158.57   10.85
   0 -10  -8  135.22    9.54
   0 -10  -9   41.77    6.32
   0  10   9   44.45    6.71
   0  11   0    1.58    2.50
   0  11   1  301.44   12.29
   0  11  -1  292.33   11.18
   0  11  -2   94.39    6.69
   0  11   2   63.11    6.42
   0  11  -3 1724.47   26.05
   0  11   3 1656.36   29.40
   0  11  -4  148.49    8.00
   0  11   4  145.29    9.34
   0  11  -5   21.78    3.78
   0  11   5   19.41    4.85
   0 -11  -5   20.25    4.70
   0  11   6  215.04   12.55
   0 -11  -6  200.37   10.97
   0  11   7  588.12   20.75
   0 -11  -7  497.77   17.66
   0  11   8  178.78   12.42
   0 -11  -8  158.83   11.10
   0  12   0   76.87    6.80
   0  12   1    5.10    3.25
   0  12  -1    5.95    3.37
   0  12   2 1150.09   25.68
   0  12  -2 1241.92   24.52
   0  12  -3   94.05    7.00
   0  12   3   84.48    7.88
   0  12   4  460.67   17.67
   0  12  -4  439.81   14.45
   0  12   5   61.78    7.48
   0  12  -5   66.07    6.29
   0  12   6  115.00    9.88
   0  13   0    1.25    3.58
   0  13  -1 1158.57   24.70
   0  13   1 1147.28   25.97
   0  13   2    3.69    3.88
   0  13  -2    2.83    3.45
   0  13  -3  528.53   16.32
   0  13  -4   29.93    4.97
   0  13   4   33.18    6.48
   1   0 -12  234.13   10.42
   1   0 -11    2.95    2.50
   1   0 -10   39.33    4.70
   1   0  -9    0.63    1.84
   1   0  -8  569.82   13.34
   1   0  -7    0.16    1.43
  -1   0   7    2.30    0.88
  -1   0   6   94.01    2.57
   1   0  -6  103.23    5.14
   1   0  -5    2.20    0.37
   1   0  -5    1.99    1.20
   1   0  -4  268.54    7.25
   1   0  -3   12.27    1.69
   1   0  -2  834.06    4.47
   1   0  -2  788.08   10.72
   1   0  -1    1.98    0.38
   1   0  -1    1.33    0.41
  -1   0   1    1.72    0.52
   1   0  -1    1.74    0.67
  -1   0   0 1583.42    8.83
   1   0   0 1587.99   10.01
   1   0   1    0.72    0.59
  -1   0  -1    0.55    0.59
   1   0   2 2752.53   18.54
  -1   0  -2 2723.36   19.64
  -1   0  -3    0.81    1.33
  -1   0  -3    0.24    0.43
   1   0   4 5901.13   34.37
  -1   0  -4 5783.78   42.28
  -1   0  -5    0.10    1.95
  -1   0  -5    5.11    1.00
   1   0   6  655.04   13.76
  -1   0  -6  622.76    9.89
  -1   0  -6  676.83   16.78
  -1   0  -7    2.00    1.35
   1   0   7    2.37    1.90
   1   0   8 3828.44   34.75
  -1   0  -8 3628.38   28.48
  -1   0  -9    2.42    1.64
   1   0   9   -0.82    2.12
  -1   0 -10  587.89   12.63
  -1   0 -11    6.46    2.59
  -1   0 -12  548.37   14.01
  -1   0 -13   -1.02    2.87
   1   1 -13   35.11    5.35
   1  -1 -12  506.66   15.31
   1   1 -12  495.25   14.94
   1  -1 -11  157.51    8.59
   1   1 -11  151.58    8.43
   1  -1 -10  490.71   13.42
   1   1 -10  434.71   12.62
   1   1  -9   34.71    3.83
   1  -1  -9   25.46    3.25
   1   1  -8 1929.48   24.23
   1  -1  -8 2064.92   24.11
   1  -1  -7   11.07    2.27
   1   1  -7   12.92    2.52
   1   1  -6 2605.79   26.58
  -1   1   6 2579.58   17.46
   1   1  -5   39.27    3.29
   1  -1  -5   41.93    3.21
  -1   1   5   40.84    2.35
   1  -1  -4 2483.21   21.33
  -1   1   4 2498.38   15.60
  -1   1   3   12.24    1.23
   1   1  -3   14.50    1.95
  -1   1   2 7633.07   25.20
  -1   1   2 7591.28   26.14
  -1  -1   2 7123.05   21.75
   1  -1  -2 6398.11   27.32
   1  -1  -2 7361.46   22.72
   1   1  -2 6765.75   31.21
  -1   1   1   15.67    1.21
  -1  -1   1   15.51    1.15
  -1   1   1  100.73    2.50
   1  -1  -1   26.34    1.56
  -1  -1   1   92.62    2.00
   1   1  -1   51.43    1.64
  -1  -1   0 1667.43    8.52
   1   1   0 1668.85    8.33
  -1   1   0 1661.63    9.67
  -1   1   0 1605.05   10.76
   1   1   0 1621.10   11.29
  -1   1   0 1617.81    8.21
   1   1   1  929.58   10.34
  -1  -1  -1  948.49    8.80
  -1   1  -1  939.45    8.09
   1   1   2 4565.45   25.85
  -1   1  -2 4696.88   22.86
  -1  -1  -2 4409.98   28.32
   1  -1   2 4518.63   23.10
  -1   1  -2 4646.72   13.96
  -1   1  -3   47.99    1.83
  -1  -1  -3   44.21    3.54
  -1   1  -3   50.71    3.28
   1  -1   3   46.73    2.74
  -1  -1  -4 2372.96   28.25
   1   1   4 2345.12   22.14
  -1   1  -4 2296.41   14.67
  -1   1  -4 2279.53   25.65
  -1  -1  -4 2344.59   16.10
   1  -1   4 2307.45   20.39
  -1   1  -5  699.14   15.39
   1   1   5  693.58   13.06
   1  -1   5  640.01   11.87
  -1  -1  -5  715.02   16.57
  -1  -1  -5  677.46    9.68
  -1   1  -5  666.37    9.10
  -1   1  -6  682.37   16.44
  -1  -1  -6  691.80   10.66
   1  -1   6  645.18   13.39
  -1   1  -6  716.90   10.46
   1   1   6  637.85   13.24
  -1   1  -7  205.84    9.50
  -1   1  -7  210.81    6.18
  -1  -1  -7  209.01    6.50
   1   1   7  200.33    7.94
   1  -1   8  790.25   16.63
  -1   1  -8  786.27   12.92
  -1  -1  -8  826.94   13.78
  -1   1  -9   14.97    2.41
  -1  -1  -9   13.81    2.37
   1   1   9   11.50    2.85
   1  -1   9   14.28    3.04
  -1   1 -10   33.96    3.76
  -1  -1 -10   31.69    3.51
  -1  -1 -11  437.95   11.90
  -1   1 -11  425.07   11.42
  -1   1 -12   45.52    4.77
  -1  -1 -12   43.96    4.93
  -1   1 -13    5.19    3.38
  -1  -1 -13   11.27    3.54
   1  -2 -12  187.71   10.02
   1   2 -12  162.74    8.90
   1   2 -11  510.91   14.78
   1  -2 -11  525.81   14.76
   1  -2 -10  224.99    9.23
   1   2 -10  195.70    8.81
   1   2  -9  711.23   15.75
   1  -2  -9  826.07   16.65
   1   2  -8   46.78    4.31
   1  -2  -8   66.87    5.12
  -1   2   7  506.76    9.64
   1  -2  -7  521.01   11.61
   1   2  -6   52.21    4.17
  -1   2   6   43.09    3.31
   1   2  -5 4666.82   34.96
  -1   2   5 4613.03   27.10
  -1   2   4  187.15    5.42
   1   2  -4  183.78    6.85
  -1  -2   4  168.84    2.64
   1  -2  -4  166.28    5.42
   1   2  -3 1118.16    7.75
   1   2  -3 1121.00   14.91
   1  -2  -3 1088.10   12.57
  -1   2   3 1113.16   12.01
  -1   2   3 1092.81   12.18
   1  -2  -2  405.95    6.71
  -1  -2   2  427.15    4.91
  -1  -2   2  451.46    5.66
   1   2  -2  412.90    4.53
  -1   2   2  459.22    6.58
  -1   2   2  403.71    7.36
  -1  -2   1 2787.66    9.82
   1   2  -1 2775.85   13.06
  -1   2   1 2797.99   13.71
   1  -2  -1 2796.77   13.87
  -1   2   0 1141.44    8.60
  -1  -2   0 1176.76    7.13
  -1   2   0 1143.23   12.26
   1   2   0 1173.63    6.23
  -1  -2  -1 3782.06   21.30
  -1   2  -1 3805.52   21.94
  -1   2  -2  719.67    8.58
  -1   2  -2  737.84    5.56
   1   2   2  718.06   10.45
  -1   2  -2  709.79    9.58
  -1   2  -3  453.23    8.71
   1  -2   3  454.37    8.44
   1   2   3  445.70    9.05
  -1   2  -3  464.81    5.91
   1   2   4 1195.09   16.15
  -1   2  -4 1208.43   17.70
   1  -2   4 1157.18   14.20
  -1  -2  -4 1208.48   19.09
  -1   2  -4 1190.02   10.84
  -1   2  -5 2585.10   28.91
   1   2   5 2501.90   25.26
   1  -2   5 2333.62   22.36
  -1  -2  -5 2398.84   19.35
  -1   2  -5 2271.84   16.90
   1  -2   6 1570.10   19.62
  -1  -2  -6 1567.58   16.63
   1   2   6 1569.82   20.79
  -1   2  -6 1533.84   15.16
   1  -2   7  316.74    9.92
  -1  -2  -7  325.78    8.11
  -1   2  -7  317.00    8.01
   1   2   7  333.43   10.56
  -1   2  -7  341.95   11.76
  -1   2  -8  831.72   13.52
  -1  -2  -8  859.88   14.35
   1  -2   8  837.93   16.66
   1  -2   9   70.83    5.47
   1   2   9   75.79    5.66
  -1  -2 -10  809.33   15.87
  -1   2 -10  811.01   15.12
  -1  -2 -11  101.08    6.21
  -1   2 -11  108.26    6.45
  -1  -2 -12  525.93   14.16
  -1   2 -12  540.15   14.41
  -1   2 -13    8.17    3.37
   1  -3 -12   55.17    5.76
   1   3 -12   62.73    6.08
  -1   3  12   50.66    6.93
   1   3 -11  165.80    8.90
   1  -3 -11  176.46    8.75
   1   3 -10  831.29   18.35
   1  -3 -10  918.22   18.76
   1  -3  -9   68.46    5.35
   1   3  -9   41.82    4.44
  -1   3   8   42.15    3.58
   1  -3  -8   42.54    3.95
   1   3  -8   47.12    4.46
   1   3  -7   85.06    5.71
  -1   3   7   71.86    4.60
   1  -3  -6 1350.29   18.36
  -1   3   6 1296.78   17.17
   1   3  -6 1362.78   20.84
   1   3  -5  143.83    7.07
   1  -3  -5  134.80    5.60
  -1   3   4 2133.64   20.69
   1   3  -4 2277.02   24.27
  -1   3   4 2161.02   20.43
   1   3  -4 2213.97   14.24
   1  -3  -4 2068.09   19.11
   1   3  -3  198.57    4.16
   1  -3  -3  220.10    5.62
  -1   3   3  211.65    6.27
  -1   3   2  600.59    7.78
   1  -3  -2  577.70    7.85
  -1   3   2  584.93   10.22
   1   3  -2  580.97    7.16
  -1  -3   2  599.73    5.21
   1   3  -1  639.67    8.04
   1  -3  -1  626.53    6.55
  -1   3   1  633.24    7.08
  -1  -3   0 5541.76   17.57
   1  -3   0 5657.45   13.36
  -1   3   0 5700.34   20.36
   1   3   0 5411.10   11.37
   1   3   0 5251.46   23.45
  -1  -3  -1 1392.60   12.13
  -1   3  -1 1403.92   16.24
   1  -3   2  969.86    7.12
  -1   3  -2  943.62   12.95
  -1  -3  -2  913.37   11.84
  -1   3  -2  907.40    9.67
  -1   3  -2  875.49    6.80
   1   3   2  923.47   12.67
  -1   3  -3  966.90   12.19
   1   3   3  960.70   14.16
  -1   3  -3 1017.95   13.76
  -1   3  -3 1044.78   10.03
   1  -3   4  385.72    8.80
  -1   3  -4  398.07    9.64
   1   3   4  402.88   10.13
   1   3   5 1527.64   20.71
  -1  -3  -5 1504.26   16.16
  -1   3  -5 1510.39   20.79
  -1   3  -5 1519.44   14.84
   1   3   6  856.97   16.42
  -1   3  -6  836.81   17.01
  -1   3  -6  803.13   11.76
   1  -3   6  805.68   14.20
  -1  -3  -7 1170.32   16.42
   1  -3   7 1214.98   18.54
  -1   3  -7 1186.26   15.57
  -1   3  -7 1195.90   20.82
  -1  -3  -8   19.75    2.68
  -1   3  -8   20.90    2.57
   1   3   8   21.71    4.10
   1  -3   8   13.46    2.71
  -1   3  -9  776.03   14.66
  -1  -3  -9  745.63   14.68
   1   3   9  790.10   17.51
  -1   3 -10  168.95    7.28
  -1  -3 -10  165.48    7.62
  -1  -3 -11  708.84   16.67
  -1   3 -11  644.79   14.78
  -1  -3 -12    5.73    3.09
  -1   3 -12    6.85    3.07
   1  -4 -12   15.65    3.92
  -1   4  12   14.22    4.87
   1   4 -12   11.41    3.68
  -1   4  11  486.55   17.91
   1   4 -11  523.96   14.92
   1  -4 -10   75.23    6.12
   1   4 -10   71.23    5.94
   1   4  -9  992.59   19.80
   1  -4  -9  884.03   17.45
  -1   4   8   36.30    3.82
   1   4  -8   37.76    4.28
   1  -4  -8   38.03    3.82
  -1   4   7 2927.09   29.21
   1   4  -7 2882.19   31.49
  -1   4   6  129.90    6.73
  -1   4   6  116.76    5.97
  -1  -4   6  131.29    3.80
   1   4  -6  133.96    6.80
  -1   4   5 1308.84   18.74
   1   4  -5 1353.14   13.10
  -1   4   5 1309.56   18.30
   1   4  -4  119.27    3.98
  -1   4   4  119.55    4.85
  -1   4   4  139.82    6.04
   1  -4  -4  133.17    5.10
   1  -4  -3 6280.29   30.78
  -1   4   3 6389.69   30.12
  -1   4   3 6329.76   37.68
  -1  -4   2   39.55    1.05
  -1   4   2   43.59    3.30
   1  -4  -2   51.40    2.53
  -1  -4   2   51.17    1.57
   1   4  -2   40.75    2.28
  -1   4   2   43.25    2.29
  -1   4   1 5252.52   21.52
   1   4  -1 5193.61   25.29
  -1   4   0  148.55    3.51
  -1   4   0  140.32    5.69
   1   4   0  155.69    4.89
   1  -4   1 2525.21   10.01
  -1   4  -1 2670.55   13.77
  -1   4  -1 2483.11   23.00
   1   4   1 2708.49   21.33
  -1   4  -2   65.87    2.62
  -1   4  -2   73.97    4.20
   1   4   2   65.77    3.71
   1   4   3 5273.35   34.59
  -1   4  -3 5328.71   34.19
  -1   4  -4   26.04    2.26
  -1   4  -4   16.66    2.29
   1   4   4   21.41    2.71
  -1   4  -4   23.13    2.74
   1  -4   5  392.19    9.70
   1   4   5  350.07   10.60
  -1  -4  -5  380.06    8.59
  -1   4  -5  344.78    9.81
  -1   4  -5  398.74    8.63
  -1   4  -6  476.85   12.32
  -1   4  -6  533.41   10.36
   1  -4   6  565.85   12.00
   1   4   6  510.41   13.30
  -1  -4  -6  507.38   10.74
   1   4   7  774.82   16.87
  -1   4  -7  820.63   16.66
  -1   4  -7  781.03   13.71
  -1  -4  -8   27.95    3.11
   1   4   8   25.78    3.86
   1  -4   8   35.82    3.82
  -1   4  -8   31.83    3.36
  -1  -4  -9  245.76    8.96
   1   4   9  226.94   10.00
  -1   4  -9  233.00    8.24
  -1  -4 -10  107.87    6.70
  -1   4 -10  109.14    6.10
   1   4  10  105.40    7.23
  -1   4 -11   50.02    4.91
  -1  -4 -11   47.75    5.04
  -1  -4 -12   61.14    5.81
   1  -5 -12   13.87    4.20
   1   5 -12   14.94    3.96
  -1   5  12   15.09    5.53
  -1   5  11   14.73    5.00
   1   5 -11   12.20    3.70
   1  -5 -11   20.64    4.64
  -1   5  10   23.01    5.10
   1   5 -10   22.78    3.77
   1  -5 -10   21.71    3.78
  -1   5   9  301.09   13.18
   1   5  -9  336.59   11.85
  -1   5   8    9.93    2.91
  -1   5   8   10.72    3.43
   1  -5  -8   12.29    2.85
   1   5  -8    9.18    2.95
  -1   5   7   79.17    6.28
  -1   5   7   85.03    6.04
  -1   5   6   22.87    3.10
   1  -5  -6   22.35    2.98
   1   5  -6   25.27    2.38
  -1   5   6   21.37    3.26
  -1   5   5  182.41    6.91
   1  -5  -5  193.91    7.11
   1   5  -5  172.59    5.55
  -1   5   4   18.20    2.22
   1  -5  -4   15.87    2.18
  -1   5   4   12.97    2.44
   1   5  -4   18.68    1.98
  -1  -5   3  269.41    3.80
   1  -5  -3  168.79    5.60
   1   5  -3  135.16    4.79
  -1   5   3  260.08    6.62
  -1   5   3  113.91    6.16
   1  -5  -2   14.72    1.68
  -1   5   2   14.31    1.48
   1   5  -2   17.91    1.85
   1   5  -1 1864.18   17.88
  -1   5   1 1975.76   22.29
  -1   5   1 1903.62   14.20
   1  -5  -1 2010.97   14.01
  -1   5   0  205.03    4.29
   1   5   0  200.83    6.07
   1   5   1  254.67    7.50
  -1   5  -1  262.56    4.81
   1   5   2   16.85    2.26
  -1   5  -2   25.15    1.69
  -1   5  -3 3492.82   30.69
  -1   5  -3 3405.05   21.73
  -1   5  -4    7.18    1.74
  -1   5  -4    3.09    1.70
   1   5   5  966.55   18.33
  -1   5  -5 1125.22   14.85
  -1   5  -5 1125.19   18.50
  -1   5  -5  998.57   16.01
  -1  -5  -6   28.09    3.05
   1   5   6   26.98    3.64
  -1   5  -6   26.94    3.25
   1  -5   6   31.88    3.25
  -1   5  -6   32.94    3.20
  -1  -5  -7 1407.29   20.60
   1   5   7 1370.49   23.64
  -1   5  -7 1413.98   19.30
   1  -5   8   28.08    3.52
   1   5   8   13.03    3.34
  -1   5  -8   28.57    3.41
  -1  -5  -8    6.78    2.12
   1   5   9 2335.79   33.11
  -1  -5  -9 2342.37   28.63
  -1   5  -9 2364.70   27.29
  -1  -5 -10   12.57    3.17
   1   5  10   10.28    3.66
  -1  -5 -11  150.01    8.37
  -1  -5 -12    9.78    3.83
   1  -6 -11  389.94   14.38
  -1   6  11  338.49   15.52
   1  -6 -10  160.84    8.93
  -1   6  10  119.49    8.80
  -1   6   9  431.69   14.73
   1  -6  -9  471.04   13.94
   1  -6  -8   58.62    5.12
  -1   6   8   43.32    4.71
  -1   6   8   47.25    4.94
   1  -6  -7 1956.02   25.60
  -1   6   7 2093.56   28.34
  -1   6   6   71.37    5.63
   1   6  -6   70.07    3.94
  -1   6   5 1265.78   20.96
  -1   6   5 1102.20   16.85
   1  -6  -5 1207.91   18.15
   1   6  -5 1119.02   14.94
   1  -6  -4  202.53    7.03
  -1   6   4  192.14    6.52
  -1   6   4  208.63    8.57
  -1  -6   4  197.67    4.26
   1   6  -4  196.56    6.15
  -1   6   3 2901.62   21.86
   1   6  -3 2906.97   22.73
   1  -6  -3 2945.70   24.05
   1   6  -2   38.24    2.80
  -1   6   2   48.54    2.59
  -1   6   2   51.26    4.34
   1  -6  -2   41.89    2.85
  -1   6   1 2226.24   15.66
   1   6  -1 2193.50   21.36
  -1   6   0  304.83    5.33
  -1   6   0  292.33    9.16
   1   6   1 1283.18   17.65
   1   6   1 1252.26    7.66
  -1   6  -1 1251.89   19.27
   1   6   2  160.77    6.73
  -1   6  -2  177.08    4.27
  -1   6  -2  158.36    6.86
   1   6   3 2394.82   27.63
  -1   6  -3 2458.16   18.07
  -1   6  -4   27.39    3.26
   1   6   4   23.72    3.44
  -1   6  -4   29.10    2.73
  -1   6  -5  442.30   12.17
  -1   6  -5  451.22   10.42
  -1   6  -6 1132.94   19.82
  -1  -6  -6  977.72   17.06
  -1   6  -6 1114.42   17.14
   1   6   6 1033.13   21.11
  -1  -6  -7  682.62   14.99
  -1   6  -7  711.74   14.03
   1   6   7  660.76   17.61
  -1  -6  -8   12.97    2.90
   1   6   8    9.58    3.63
   1  -6   8   18.35    3.23
  -1  -6  -9   63.00    5.21
   1   6   9   46.16    5.81
   1   6  10  338.37   13.53
  -1  -6 -10  383.96   12.91
  -1  -6 -11   40.36    5.09
  -1   7  11  164.09   11.84
   1  -7 -11  230.57   11.57
  -1   7  10  786.93   22.68
   1  -7 -10  833.90   20.31
  -1   7   9    7.15    3.91
   1  -7  -9   17.61    4.02
  -1   7   8  243.71   10.97
   1  -7  -8  253.59   10.54
  -1   7   7   21.05    3.87
  -1   7   7   28.25    4.23
  -1   7   6 1382.57   21.40
   1  -7  -6 1476.40   22.56
  -1   7   5   78.81    5.19
  -1   7   5   38.12    4.75
   1  -7  -5   78.29    5.41
   1   7  -5   41.68    3.40
   1  -7  -4 2003.99   23.37
   1   7  -4 2059.83   21.16
  -1   7   4 2090.01   27.49
   1  -7  -3   45.18    3.65
  -1   7   3   52.46    3.31
   1   7  -3   43.15    3.30
  -1   7   2  522.09    8.61
   1  -7  -2  541.92   10.30
   1   7  -2  516.52   10.85
  -1   7   1  220.59    5.36
   1   7  -1  202.49    7.19
  -1   7   1  206.53    8.32
  -1   7   0 3554.56   18.67
  -1   7   0 3495.87   33.16
   1   7   0 3456.41   30.54
  -1   7  -1  650.37    7.65
   1   7   1  630.10   13.66
  -1   7  -2  590.83    7.54
  -1   7  -2  604.69   13.76
  -1   7  -3  634.64    9.23
   1   7   3  621.60   14.85
  -1   7  -4  836.14   16.87
   1   7   4  803.83   17.70
  -1   7  -5 1076.68   19.26
   1   7   5 1025.96   20.74
   1   7   6  787.04   18.96
  -1  -7  -6  823.69   16.72
  -1   7  -6  906.67   18.40
  -1   7  -6  956.62   15.29
  -1  -7  -7  546.14   14.18
   1   7   7  583.93   17.03
  -1  -7  -8   43.27    4.69
   1  -7   8   49.42    4.60
   1   7   9  221.24   11.59
  -1  -7  -9  210.27    9.60
   1   7  10  125.95    9.17
  -1  -7 -10  184.70    9.76
  -1  -7 -11  597.41   18.06
  -1   8  10    5.62    4.53
   1  -8 -10   30.04    5.56
  -1   8   9  165.70   10.34
   1  -8  -9  183.17   10.31
  -1   8   8   23.58    4.43
  -1   8   8   27.61    5.04
  -1   8   7   12.29    3.58
  -1   8   7   15.62    3.49
   1  -8  -7   22.09    3.96
   1  -8  -6   50.50    5.18
  -1   8   6   38.41    4.25
  -1   8   5 1370.18   19.39
   1  -8  -5 1362.98   21.22
  -1   8   4   87.66    4.61
   1   8  -4   69.99    4.49
  -1   8   4   73.21    6.01
  -1   8   3   19.58    2.17
  -1   8   3   18.32    3.57
   1  -8  -3   15.64    2.86
   1   8  -3   18.55    2.61
   1   8  -2   63.22    4.20
   1  -8  -2   86.25    4.77
  -1   8   2   78.35    3.79
  -1   8   2   67.00    5.51
  -1   8   1  545.43    8.15
   1   8  -1  518.87   12.00
  -1   8   0  563.43    7.57
   1   8   0  519.54   12.68
  -1   8  -1  970.47   18.32
   1   8   1  928.97   17.69
  -1   8  -2  796.00    9.14
   1   8   2  781.47   17.06
  -1   8  -3   32.30    3.94
  -1   8  -3   31.92    2.27
   1   8   3   24.55    3.72
   1   8   4  885.98   13.03
   1   8   4  838.97   18.93
  -1   8  -4  860.21   17.76
   1   8   5  614.08   16.92
  -1   8  -5  620.47   14.91
   1   8   6  767.69   19.55
  -1   8  -6  778.74   17.25
  -1  -8  -6  802.99   17.30
  -1  -8  -7    5.40    2.79
   1   8   7   10.43    3.75
  -1  -8  -8  588.28   16.17
   1   8   8  578.52   18.20
   1   8   9    5.48    3.75
  -1  -8  -9    7.27    3.31
   1   8  10  360.68   15.99
  -1  -8 -10  358.24   13.95
  -1   9  10  224.85   13.05
   1  -9 -10  251.06   13.52
  -1   9   9    4.42    4.31
   1  -9  -9    3.57    4.19
   1  -9  -8 1663.35   29.46
  -1   9   8 1553.98   27.07
  -1   9   7   28.26    5.11
  -1   9   7   22.42    3.74
   1  -9  -7   34.53    5.07
   1  -9  -6 1234.92   23.45
  -1   9   6 1164.23   19.44
  -1   9   5    2.51    2.82
  -1   9   5    3.90    2.07
   1  -9  -5    6.37    2.84
   1   9  -5    1.99    1.91
  -1   9   4 1260.33   16.68
   1  -9  -4 1346.91   22.37
   1   9  -4 1477.45   20.52
  -1   9   4 1554.53   27.55
   1   9  -3   38.81    3.75
   1  -9  -3   30.53    3.80
  -1   9   3   41.70    4.95
  -1   9   3   35.70    2.95
  -1   9   2 4165.85   26.08
  -1   9   2 4533.26   43.59
   1  -9  -2 4138.66   34.65
   1   9  -2 4517.24   37.48
  -1   9   1   35.78    2.27
   1  -9  -1   42.08    3.53
   1   9  -1   43.72    4.12
  -1   9   1   38.91    4.51
  -1   9   0  613.30   15.95
   1   9   0  499.70   13.29
  -1   9  -1  123.78    7.34
   1   9   1  109.51    6.72
  -1   9  -2 2862.16   32.54
   1   9   2 2775.22   33.86
   1   9   3   75.64    6.26
  -1   9  -3   80.66    5.98
  -1   9  -4 1241.46   22.32
   1   9   4 1204.74   24.89
  -1   9  -5   51.00    4.81
   1   9   5   49.89    5.86
  -1  -9  -6  289.88   11.52
  -1   9  -6  261.40   10.49
   1   9   6  257.48   12.64
  -1   9  -7   24.35    4.36
  -1  -9  -7   31.53    4.79
   1   9   7   24.12    5.00
   1   9   8  670.41   21.50
  -1  -9  -8  678.73   18.50
   1   9   9    3.62    4.33
  -1  -9  -9    3.35    3.47
   1   9  10    6.51    5.40
  -1  10   8  298.40   14.28
   1 -10  -8  340.39   15.07
   1 -10  -7   25.53    5.11
  -1  10   7   22.61    5.13
  -1  10   6   97.68    8.25
   1 -10  -6   77.90    7.06
   1 -10  -5  270.83   11.38
   1  10  -5  296.90   10.08
  -1  10   4   30.80    5.12
   1  10  -4   48.75    4.51
  -1  10   3   60.40    6.19
   1  10  -3   27.84    3.45
  -1  10   2  373.46   13.63
   1  10  -2  347.50   11.10
   1  10  -1   61.50    4.99
  -1  10   1   64.52    5.80
   1  10   0  264.90   10.21
  -1  10   0  349.62   13.17
   1  10   1  120.55    7.40
  -1  10  -1  191.91    9.45
  -1  10  -2  386.04   12.61
   1  10   2  359.07   13.13
  -1  10  -3    5.92    2.77
   1  10   3    6.30    3.29
  -1  10  -4 1521.80   25.59
   1  10   4 1397.59   27.95
  -1  10  -5  193.44    9.13
   1  10   5  184.89   10.89
  -1 -10  -6  130.09    8.61
  -1  10  -6  138.26    8.01
   1  10   7   34.16    5.89
  -1 -10  -7   21.26    4.64
  -1  10  -7   27.03    4.65
   1  10   8 1602.58   34.35
  -1 -10  -8 1318.81   27.20
  -1 -10  -9    2.29    3.96
   1  10   9    9.10    5.37
  -1  11   8  363.79   16.46
  -1  11   7   -1.26    4.31
  -1  11   6  836.31   23.62
  -1  11   5   11.48    4.59
   1  11  -4  685.69   16.34
  -1  11   4  658.88   19.83
   1  11  -3  123.09    7.30
  -1  11   3  131.97    9.21
   1  11  -2 1389.46   23.03
  -1  11   2 1441.26   27.54
  -1  11   1   17.81    4.24
   1  11  -1   15.57    3.41
   1  11   0  752.00   17.74
  -1  11   0  866.30   20.40
   1  11   1  390.44   13.61
  -1  11  -1  469.78   15.08
   1  11   2  894.67   21.27
  -1  11  -2  996.34   21.26
   1  11   3   10.89    4.24
  -1  11  -3   16.88    3.82
  -1  11  -4  325.59   12.54
   1  11   4  300.94   14.05
   1  11   5  465.50   17.89
  -1 -11  -5  416.35   15.09
  -1  11  -5  458.42   14.31
   1  11   6  220.05   13.07
  -1  11  -6  198.45    9.80
  -1 -11  -6  213.70   11.70
   1  11   7  191.06   12.70
  -1 -11  -7  170.12   11.42
  -1 -11  -8   69.02    7.85
   1  11   8   61.65    8.61
  -1  12   6   52.29    7.53
  -1  12   5 1232.69   29.69
   1  12  -4   18.01    3.81
  -1  12   4   13.79    4.92
   1  12  -3  376.93   12.85
  -1  12   3  400.71   15.94
   1  12  -2   26.09    4.32
  -1  12   2   37.15    6.02
   1  12  -1  942.09   21.03
  -1  12   1 1043.93   24.44
   1  12   0  153.76    9.10
  -1  12   0  187.59   10.80
   1  12   1  965.24   21.95
  -1  12  -1 1019.17   22.63
   1  12   2  126.06    9.05
  -1  12  -2  142.27    8.87
   1  12   3  196.35   11.31
  -1  12  -3  217.87   10.50
  -1  12  -4  170.33    9.61
   1  12   4  157.70   10.74
   1  12   5  504.66   19.46
  -1  12  -5  473.82   15.05
  -1 -12  -5  469.45   17.69
  -1  12  -6  489.08   15.42
   1  12   6  534.93   20.82
  -1 -12  -7   35.35    6.82
  -1  13   4  211.52   13.45
  -1  13   3   37.23    6.60
   1  13  -3   35.58    5.48
   1  13  -2   54.02    6.23
   1  13  -1  132.53    8.82
  -1  13   1  171.73   11.20
   1  13   0  499.82   16.64
  -1  13   0  544.37   18.01
   1  13   1  206.27   11.39
  -1  13  -1  235.83   12.03
   1  13   2   19.17    5.10
  -1  13  -2   20.10    5.03
  -1  13  -3  371.42   14.80
   1  13   3  332.43   14.88
  -1  13  -4   30.88    5.34
  -1  13  -5  280.69   12.13
  -2   0  12  473.82   16.58
   2   0 -12  354.46   13.43
   2   0 -11    0.27    2.78
  -2   0  11    0.69    2.97
   2   0 -10 2017.76   29.85
  -2   0  10 1673.78   27.99
  -2   0   9    3.39    2.89
   2   0  -9    2.49    2.51
  -2   0   8  558.24   14.71
   2   0  -8  607.50   15.93
   2   0  -7   -0.14    2.05
  -2   0   7    1.39    2.03
   2   0  -6 2757.70   31.77
  -2   0   6 2618.40   27.26
   2   0  -5    2.05    1.99
  -2   0   5    2.00    1.61
  -2   0   4 5178.06   30.90
   2   0  -4 5112.73   39.03
   2   0  -3    0.35    0.38
  -2   0   3    1.86    0.91
   2   0  -3    0.66    1.43
  -2   0   2  822.89    9.65
   2   0  -2  851.98    8.13
   2   0  -1    5.16    0.87
  -2   0   1    0.01    0.64
   2   0   0 9127.34   34.13
  -2   0   0 9999.00   32.30
  -2   0  -1    1.89    0.80
   2   0   1   12.13    1.58
   2   0   2  220.96    6.82
  -2   0  -2  251.72    6.17
   2   0   3    9.64    1.90
  -2   0  -3    0.90    1.15
   2   0   4  967.04   17.01
  -2   0  -4 1077.59   18.61
  -2   0  -5    3.67    2.46
  -2   0  -5    0.37    0.79
   2   0   5    3.32    1.96
  -2   0  -6  426.91    8.18
   2   0   6  399.23   13.40
  -2   0  -7    3.57    3.10
   2   0   7    0.46    2.39
  -2   0  -7    0.74    1.13
   2   0   8  192.58    9.70
  -2   0  -8  209.52    6.79
  -2   0  -9    0.31    1.54
   2   0   9    0.25    2.68
   2   0  10   61.86    6.03
  -2   0 -10  146.64    6.68
  -2   0 -11    1.18    2.03
  -2   0 -12  197.81    9.03
  -2   0 -13    4.17    3.32
  -2  -1  12   19.68    5.06
   2   1 -12   26.46    5.44
  -2   1  12   16.46    5.42
   2  -1 -12   35.33    5.73
  -2  -1  11   32.02    4.98
  -2   1  11   24.89    4.43
   2  -1 -11   24.90    4.60
   2   1 -11   24.74    4.38
   2  -1 -10   83.98    6.92
   2   1 -10   69.71    6.01
  -2  -1  10   53.73    5.95
  -2   1  10   44.39    5.63
  -2   1   9   31.03    4.37
   2  -1  -9   33.90    4.35
  -2  -1   9   27.01    4.19
   2   1  -9   26.62    3.95
   2   1  -8  372.83   12.27
   2  -1  -8  357.89   11.96
  -2  -1   8  339.79   11.62
  -2   1   8  321.55   11.37
   2   1  -7  623.94   15.45
   2  -1  -7  594.95   14.88
  -2  -1   7  604.83   14.10
   2   1  -6  245.37    9.85
  -2  -1   6  350.40    9.72
  -2   1   6  376.63   10.39
   2  -1  -6  243.06    9.33
  -2   1   6  123.84    1.91
  -2   1   5  290.38    8.43
   2  -1  -5  279.83    9.69
  -2   1   5  270.63    3.54
  -2  -1   5  299.15    8.24
   2   1  -4 1817.35   23.83
  -2  -1   4 1747.14   17.32
  -2   1   4 1832.09   19.08
   2  -1  -4 1823.80   23.70
  -2   1   4 1741.17   10.05
  -2  -1   3 1847.66   15.24
   2   1  -3 1858.93    9.22
   2  -1  -3 1784.92   20.30
   2   1  -3 1782.73   10.72
  -2   1   3 1834.56   11.00
   2   1  -3 1839.36   21.03
   2   1  -2 2367.40   14.35
   2  -1  -2 2395.07   21.22
   2   1  -1   71.03    2.91
  -2   1   1   61.00    2.67
  -2  -1   1   64.31    2.56
   2  -1  -1   63.29    2.74
   2   1   0 2258.09   18.07
  -2   1   0 2215.51   15.24
  -2  -1   0 2199.97   14.65
   2  -1   0 2217.87   17.63
   2  -1   1   37.08    2.48
   2   1   1   43.52    2.91
  -2   1  -1   45.38    2.36
  -2  -1  -1   46.50    2.45
  -2   1  -2 4199.57   24.58
  -2  -1  -2 4223.97   26.31
   2   1   2 4282.87   29.79
   2  -1   3  907.39   14.50
  -2   1  -3  895.64   13.23
   2  -1   4 1654.31   21.21
   2   1   4 1670.17   22.96
  -2   1  -4 1690.04   12.59
  -2   1  -4 1610.87   20.71
  -2  -1  -4 1664.02   24.69
   2   1   5  457.61   13.02
   2  -1   5  425.56   11.77
  -2   1  -5  430.43    7.20
  -2   1  -5  403.52   12.60
  -2  -1  -5  446.55   14.20
  -2  -1  -5  461.07    8.22
   2   1   6 4087.85   40.11
  -2   1  -6 4065.99   24.43
   2  -1   6 4171.43   39.83
  -2   1  -6 4132.09   42.76
  -2  -1  -6 4016.65   26.70
   2  -1   7   68.61    5.74
   2   1   7   77.57    6.12
  -2   1  -7   76.52    6.63
  -2  -1  -7   86.44    7.34
  -2  -1  -7   87.80    4.41
  -2   1  -8  937.54   13.89
   2  -1   8  911.61   20.81
  -2  -1  -8 1081.16   24.78
   2   1   8  933.85   20.40
  -2   1  -8 1068.61   23.35
  -2  -1  -8  956.32   14.84
  -2  -1  -9   13.31    2.36
   2   1   9   17.12    3.89
  -2   1  -9   17.71    2.47
  -2   1  -9   10.49    3.58
   2  -1   9   12.61    3.73
   2  -1  10 1129.36   23.50
  -2  -1 -10 1236.60   19.04
   2   1  10 1118.82   23.40
  -2   1 -10 1207.85   17.72
  -2  -1 -11    7.24    2.69
  -2   1 -11    4.58    2.57
  -2   1 -12  544.37   13.83
  -2  -1 -12  605.58   15.17
   2  -2 -12  483.75   16.60
   2   2 -12  458.12   16.46
   2  -2 -11  160.29    9.31
  -2   2  11  108.23    8.23
  -2  -2  11  194.19   10.08
   2   2 -11  143.93    8.96
   2  -2 -10  283.40   11.54
  -2   2  10  243.84   11.34
   2   2 -10  271.97   11.52
   2   2  -9   69.00    6.08
  -2  -2   9   77.51    6.44
  -2   2   9   55.15    5.69
  -2  -2   8 1504.61   23.52
  -2   2   8 1503.86   24.71
   2  -2  -7  129.34    7.39
  -2  -2   7  136.33    6.90
  -2   2   7  152.76    7.52
  -2  -2   6 1137.24   17.30
  -2   2   6 1093.82   18.37
   2   2  -6 1259.04   22.41
   2  -2  -6 1070.21   19.68
  -2   2   6 1202.12   11.86
   2  -2  -5  863.62   16.95
  -2   2   5  839.14   14.40
  -2  -2   5  810.15   13.04
   2   2  -5  861.25   17.23
   2  -2  -4 1634.73   22.02
  -2   2   4 1724.95   14.96
   2   2  -4 1701.46   23.01
  -2  -2   4 1597.82   16.10
  -2   2   4 1587.17   17.75
  -2   2   3  419.00    7.73
  -2   2   3  522.04    8.81
   2  -2  -3  445.46   10.20
   2   2  -3  489.92    4.93
  -2  -2   3  531.97    8.01
  -2   2   2 2557.67   18.61
  -2   2   2 2555.05   18.27
  -2  -2   2 2506.65   15.81
   2   2  -2 2544.72   14.69
  -2   2   1 2921.14   18.68
   2  -2  -1 2741.43   16.17
  -2  -2   1 2871.95   15.93
  -2   2   1 3067.56   20.93
   2   2  -1 2906.19   18.03
  -2   2   0  309.72    5.92
   2   2   0  310.18    6.82
  -2  -2   0  309.05    5.44
  -2   2   0  328.10    6.93
   2   2   1  393.67    8.60
  -2   2  -1  419.70    8.47
  -2   2  -1  524.62    7.54
  -2  -2  -1  547.90    8.28
   2  -2   2 1528.12   18.16
   2   2   2 1533.61   18.50
  -2  -2  -2 1569.95   17.46
   2  -2   3 2777.72   25.55
  -2   2  -3 2973.95   13.19
   2   2   3 3102.62   28.73
  -2   2  -3 2886.48   23.46
  -2  -2  -3 2918.18   30.10
  -2   2  -4  303.24    5.06
   2  -2   4  336.77   10.56
  -2   2  -4  328.52    9.41
  -2  -2  -4  346.38   11.89
   2   2   4  306.19    9.78
   2  -2   5  841.75   16.22
  -2   2  -5  852.79    9.56
   2   2   5  851.20   17.29
  -2  -2  -5  805.25   19.33
   2  -2   6   82.68    5.58
   2   2   6   74.91    5.64
  -2  -2  -6  107.26    4.79
  -2  -2  -6   97.60    7.68
  -2   2  -6   82.09    6.36
  -2   2  -6   95.03    3.71
  -2   2  -7  934.74   12.41
  -2  -2  -7 1036.58   23.61
   2   2   7  942.36   19.87
   2  -2   7  889.81   19.00
  -2   2  -7  984.69   21.12
  -2  -2  -7  976.68   14.84
   2  -2   8   30.41    4.37
   2   2   8   27.65    4.31
  -2  -2  -8   71.16    4.58
  -2   2  -8   32.59    4.79
  -2   2  -8   72.70    3.97
  -2   2  -9 1520.88   18.67
   2  -2   9 1522.22   28.50
  -2   2  -9 1575.05   27.72
  -2  -2  -9 1502.65   20.41
  -2   2 -10   55.56    4.30
   2  -2  10   57.57    6.16
  -2  -2 -10   59.64    4.82
  -2   2 -11   66.06    4.89
  -2  -2 -11   72.24    5.57
  -2   2 -12   60.80    5.50
  -2  -2 -12   62.73    5.55
  -2   3  12    5.28    4.57
  -2  -3  12   13.64    4.53
   2  -3 -12    9.33    4.29
   2   3 -12   13.58    4.02
   2   3 -11  376.95   13.57
   2  -3 -11  388.30   14.48
   2   3 -10  150.49    8.61
  -2   3  10  153.12    9.63
  -2   3   9  720.82   18.78
   2   3  -9  764.23   18.29
   2  -3  -8  180.25    8.77
  -2  -3   8  170.62    8.10
   2   3  -8  159.63    8.40
   2  -3  -7 1147.07   20.50
  -2   3   7 1186.75   21.07
  -2  -3   7 1143.36   18.31
   2  -3  -6  543.76   13.34
  -2  -3   6  592.90   11.88
  -2   3   6  626.88   14.02
   2   3  -6  708.27   16.71
  -2   3   6  723.44   12.66
  -2  -3   5 1277.75   15.76
  -2   3   5 1269.41   18.28
  -2   3   4  214.78    6.64
   2   3  -4  122.25    2.74
   2  -3  -4  106.50    5.49
  -2  -3   4  252.42    6.16
  -2   3   4   43.29    3.34
  -2  -3   3 1828.31   13.64
  -2   3   3 1826.86   17.12
   2   3  -3 1847.80   11.78
   2  -3  -2  965.78   12.76
  -2  -3   2 1018.98    9.47
  -2   3   2 1060.07   15.06
  -2   3   2 1037.72   12.04
   2   3  -2  990.71    9.71
   2  -3  -1  982.38    9.80
  -2   3   1 1029.02   11.41
  -2  -3   1  993.27    8.83
   2   3  -1 1030.70   11.49
  -2   3   0  903.64   13.53
  -2   3   0  946.17   10.51
  -2  -3   0  878.56    9.44
   2   3   0  885.18   11.90
  -2   3   0  950.60    5.29
  -2   3  -1 1140.23   11.77
   2   3   1 1115.67   14.59
  -2   3  -2 1170.26    5.05
   2   3   2 1117.47   16.05
  -2  -3  -2 1065.82   16.18
  -2   3  -2 1235.53   16.96
  -2   3  -2 1146.40   12.69
  -2   3  -3  466.29    4.94
   2   3   3  455.59   11.11
  -2   3  -3  499.30    9.30
  -2  -3  -3  412.16   11.47
   2  -3   3  439.73   10.76
  -2  -3  -4 2540.26   30.99
   2  -3   4 2517.96   27.14
  -2   3  -4 2525.51   24.14
  -2   3  -4 2560.92   14.31
   2  -3   5  150.46    7.25
   2   3   5  168.14    8.00
  -2   3  -5  154.89    4.05
  -2   3  -5  167.39    7.39
  -2  -3  -5  172.13    9.04
   2  -3   6   80.74    5.50
  -2   3  -6   92.48    3.65
  -2   3  -6   84.21    6.05
   2   3   6  108.69    6.93
  -2  -3  -6  117.14    5.16
  -2  -3  -6  106.49    7.65
   2  -3   7   31.15    3.96
  -2   3  -7   48.38    3.11
   2   3   7   26.40    4.00
  -2   3  -7   67.86    5.75
  -2  -3  -7   62.54    4.21
  -2   3  -8 1356.72   16.39
   2  -3   8 1322.84   23.83
   2   3   8 1344.73   25.40
  -2  -3  -8 1330.52   18.77
  -2   3  -9   29.87    3.05
   2   3   9    6.05    3.73
   2  -3   9   17.27    3.88
  -2  -3  -9   29.84    3.41
  -2   3  -9   12.78    3.49
  -2   3 -10  114.30    5.96
   2   3  10  110.32    8.26
  -2  -3 -11   60.23    5.37
  -2  -3 -12   94.19    7.03
   2  -4 -12   51.64    6.81
  -2   4  11   48.77    6.95
   2   4 -11   82.69    7.09
   2  -4 -10   26.25    4.45
  -2  -4  10   28.62    4.36
   2   4 -10   23.33    4.19
  -2   4  10   16.86    4.50
  -2   4   9  126.81    8.41
   2   4  -9  127.58    8.01
   2  -4  -8  267.57   10.54
  -2   4   8  248.66   10.65
  -2  -4   7  424.62   11.04
  -2   4   7  393.69   12.48
   2  -4  -7  416.84   12.96
  -2  -4   6    5.73    1.94
  -2   4   6    6.48    2.26
   2  -4  -6    5.58    2.49
  -2  -4   5  460.38    9.39
  -2   4   5  419.86   10.72
   2  -4  -5  274.96    9.90
  -2   4   5  200.27    8.18
   2   4  -5  214.78    4.35
   2  -4  -4   15.92    2.73
  -2   4   4   13.67    2.53
   2   4  -4   11.30    1.21
  -2   4   4   13.91    2.16
   2  -4  -3 2130.02   22.59
   2   4  -3 2104.13   15.18
  -2   4   3 2190.60   19.46
  -2  -4   3 2161.45   14.16
   2  -4  -2  505.16    9.33
   2   4  -2  517.50    8.21
  -2   4   2  531.42    9.08
  -2   4   2  511.78   12.03
   2  -4  -1 1241.20   11.43
  -2  -4   1 1202.01    9.30
   2   4  -1 1229.90   13.46
  -2   4   0  324.59    9.72
  -2  -4   0  317.38    5.69
   2   4   0  338.05    8.58
   2   4   1 5471.17   33.83
  -2  -4  -1 5505.83   29.90
  -2   4  -2  315.28    9.47
   2   4   2  321.14    9.17
  -2  -4  -2  316.04    8.44
  -2   4  -2  342.90    6.99
  -2   4  -3 2162.17    9.92
  -2   4  -3 2114.19   18.59
  -2   4  -3 2246.40   25.44
  -2  -4  -3 2040.35   23.32
  -2  -4  -4    3.22    2.10
   2  -4   4    3.76    1.89
  -2   4  -4    7.74    1.23
  -2   4  -4    7.75    1.86
   2   4   4    5.78    2.51
   2  -4   5 3568.67   34.38
  -2   4  -5 3555.42   21.27
  -2  -4  -5 3486.86   36.47
  -2   4  -6   38.65    2.71
   2   4   6   27.69    3.97
   2  -4   6   25.89    3.47
  -2   4  -6   36.68    4.13
  -2  -4  -7 2153.68   24.15
   2   4   7 2186.29   31.95
  -2   4  -7 2138.61   20.23
   2  -4   8   41.75    4.73
   2   4   8   38.39    5.13
  -2  -4  -8   36.26    3.77
  -2   4  -8   31.57    3.01
  -2   4  -8   35.76    4.71
   2  -4   9  615.77   17.00
  -2   4  -9  496.51   14.90
   2   4   9  600.90   20.41
  -2  -4  -9  464.47   12.56
   2   4  10   66.53    6.72
  -2  -4 -10   72.46    5.66
  -2  -4 -11 1538.13   25.42
  -2  -4 -12    2.48    3.30
   2  -5 -11  834.93   22.07
  -2   5  11  733.52   22.50
   2  -5 -10   50.14    5.82
  -2   5  10   42.07    6.06
   2  -5  -9 1379.08   24.91
  -2   5   9 1207.90   25.07
   2  -5  -8    5.05    2.99
  -2  -5   8    8.55    2.87
  -2   5   8    6.10    2.98
   2  -5  -7  731.76   17.84
  -2  -5   7  770.02   14.20
  -2   5   7  675.35   16.51
  -2   5   7  642.01   14.82
  -2  -5   6   33.20    3.01
  -2   5   6   39.42    4.02
  -2   5   6   34.20    4.00
   2  -5  -6   44.71    4.52
   2  -5  -5 4085.75   36.54
  -2  -5   5 4210.20   24.06
  -2   5   5 3900.74   38.24
   2   5  -5 4086.64   22.66
  -2   5   5 4333.13   32.92
  -2   5   4   15.51    2.19
   2   5  -4   11.72    1.39
  -2   5   4   11.43    2.68
   2  -5  -4   10.69    2.41
   2   5  -3  707.01    9.84
  -2  -5   3  664.07    7.04
  -2   5   3  598.17   14.49
  -2   5   3  626.56   10.66
   2  -5  -3  678.98   12.67
   2   5  -2   37.00    2.56
   2  -5  -2   40.13    3.03
  -2  -5   2   31.18    1.29
  -2   5   2   34.24    3.82
  -2   5   2   44.08    2.89
   2  -5  -1 2652.32   17.06
  -2   5   1 2454.70   19.41
  -2  -5   1 2555.79   10.64
   2   5  -1 2330.20   20.69
  -2   5   1 2143.79   27.03
  -2   5   0   12.77    2.57
  -2   5   0   10.64    1.45
  -2  -5   0   12.36    1.24
   2   5   0   14.48    2.03
  -2   5  -1 2632.90   17.88
   2   5   1 2622.94   24.34
  -2   5  -2   87.04    5.43
  -2   5  -2   86.81    3.64
   2   5   2   80.19    4.96
  -2  -5  -2   74.11    3.59
  -2  -5  -3   22.38    2.61
  -2   5  -3   31.37    3.64
   2   5   3   26.19    3.80
  -2   5  -4  128.74    5.40
   2   5   4  148.77    8.61
  -2   5  -4  148.16    7.43
   2  -5   5 1812.74   24.45
  -2   5  -5 1776.64   15.80
   2  -5   6   16.26    2.95
   2   5   6   13.82    4.59
  -2   5  -6   23.87    3.39
   2  -5   7   58.93    5.46
   2   5   7   37.19    5.16
  -2   5  -7   37.75    4.26
  -2  -5  -7   61.13    4.81
   2   5   8   64.33    6.38
  -2   5  -8   68.57    5.69
  -2  -5  -8   60.94    4.97
   2  -5   9   67.36    6.41
   2   5   9    1.12    3.23
  -2   5  -9   26.63    4.09
  -2  -5  -9   47.98    4.74
  -2  -5 -10    9.00    3.14
   2   5  10   16.95    4.39
  -2  -5 -11   73.82    6.43
   2  -6 -11   55.06    7.17
  -2   6  11    9.06    5.40
   2  -6 -10   11.62    3.97
  -2   6  10    6.07    4.52
   2  -6  -9   60.40    6.64
  -2   6   9   22.08    5.09
   2  -6  -8 1083.79   23.67
  -2   6   8  923.73   21.30
  -2   6   7  206.73    9.67
   2  -6  -7  245.12   10.72
  -2   6   6  115.51    7.16
  -2   6   6  119.15    6.34
  -2   6   5  286.68    8.99
   2   6  -5  261.11    6.70
   2  -6  -5  280.14    9.99
  -2   6   4  120.50    5.45
  -2   6   4  124.66    7.51
   2  -6  -4  136.18    7.00
   2  -6  -3 1261.28   18.28
  -2   6   3 1277.76   22.64
   2   6  -2 1584.48   17.57
  -2   6   2 1615.72   16.57
  -2   6   2 1606.42   25.61
   2  -6  -2 1550.62   17.90
  -2   6   1 1078.70   12.94
   2  -6  -1 1116.47   12.08
  -2   6   0  242.34    5.91
   2   6   0  232.08    7.66
  -2   6   0  238.58    9.63
  -2   6  -1 2003.60   16.58
   2   6   1 1993.17   23.26
  -2   6  -2  994.10   19.17
  -2   6  -2 1017.14   12.25
  -2   6  -3 1696.05   24.51
  -2   6  -3 1629.73   16.29
  -2   6  -4   76.99    5.70
   2   6   4   79.00    5.79
  -2   6  -4   88.80    4.50
  -2   6  -5 1578.11   25.24
  -2   6  -5 1532.03   19.92
   2  -6   6    7.33    2.76
   2   6   6    0.70    2.76
  -2   6  -6    4.19    2.16
   2   6   7 1536.59   27.92
  -2  -6  -7 1616.85   23.61
  -2  -6  -8  183.05    8.64
   2  -6   8  219.14    9.97
   2   6   8  155.32    9.65
  -2   6  -8  190.58    8.70
   2   6   9  530.45   18.02
  -2   6  -9  570.90   14.64
  -2  -6  -9  535.71   14.83
   2   6  10   46.39    6.55
  -2  -6 -10   53.18    5.52
  -2  -6 -11  677.56   18.44
   2   6  11  556.69   19.84
   2  -7 -11  187.70   11.80
  -2   7  10   63.07    7.39
   2  -7 -10   97.71    8.57
   2  -7  -9  399.01   15.46
  -2   7   9  309.05   13.50
   2  -7  -8   84.03    7.64
  -2   7   8   34.75    5.33
  -2   7   7 1051.43   20.89
   2  -7  -7 1112.24   22.72
  -2   7   7 1047.40   21.66
  -2   7   6  459.82   12.49
  -2   7   6  467.28   14.65
   2  -7  -6  485.78   14.47
  -2   7   5  118.50    6.11
   2  -7  -5  128.83    7.48
  -2   7   4  262.73    8.38
   2   7  -4  230.49    6.73
  -2   7   4  220.92   10.31
   2  -7  -4  249.99    9.52
  -2   7   3 2044.13   21.07
   2   7  -3 2003.07   20.34
   2   7  -2  914.02   14.46
  -2   7   2  931.23   13.27
   2  -7  -2  891.66   14.72
   2   7  -1  683.36   13.13
  -2   7   1  716.24   10.84
  -2   7   1  680.61   16.33
   2   7   0  944.96   16.25
  -2   7   0  943.94   19.49
  -2   7  -1  377.43   12.19
  -2   7  -1  410.65    7.60
   2   7   1  399.33   11.05
  -2   7  -2  948.35   12.02
  -2   7  -2  917.57   19.20
  -2   7  -3  823.88   11.77
   2   7   3  843.85   18.18
  -2   7  -4 1682.30   25.99
   2   7   4 1717.66   27.09
   2   7   5    9.96    3.10
  -2   7  -5   13.69    3.24
  -2   7  -5   16.55    2.60
  -2   7  -6  456.06   11.92
   2   7   6  409.37   14.61
   2  -7   7   59.47    5.51
   2   7   7   36.56    5.40
  -2   7  -7   21.09    3.40
  -2  -7  -7   66.44    5.65
  -2   7  -8 1278.79   20.71
   2   7   8 1224.28   27.47
  -2   7  -9    7.90    2.83
   2   7   9    8.14    4.67
   2   7  10  308.57   15.31
  -2  -7 -10  321.99   12.95
   2   7  11   16.99    5.43
  -2   8  10  428.30   17.38
   2  -8 -10  480.46   18.55
   2  -8  -9   69.17    8.13
  -2   8   9   48.80    6.75
  -2   8   8  477.66   15.47
   2  -8  -8  510.69   17.33
  -2   8   7    9.17    3.18
  -2   8   7    5.81    3.40
   2  -8  -7   14.94    4.34
   2  -8  -6  715.35   18.86
  -2   8   6  791.28   20.33
  -2   8   5  142.47    6.67
   2  -8  -5  152.60    8.55
  -2   8   4 1121.51   17.32
   2   8  -4 1280.47   16.99
  -2   8   4 1369.54   26.16
   2  -8  -4 1193.99   21.94
   2   8  -3   38.56    3.36
   2  -8  -3   51.25    4.61
  -2   8   3   45.52    5.28
   2   8  -2  651.37   13.24
  -2   8   2  674.68   11.74
   2   8  -1  564.56   13.00
  -2   8   1  575.00    9.93
   2   8   0 1240.83   20.08
  -2   8   0 1279.25   14.02
   2   8   1   50.31    4.48
  -2   8  -1   42.36    4.77
  -2   8  -1   53.55    3.01
  -2   8  -2  362.61   12.71
  -2   8  -2  376.96    7.83
   2   8   2  350.51   11.68
  -2   8  -3  806.98   18.36
   2   8   3  838.78   18.70
  -2   8  -4  126.19    7.68
   2   8   4  123.68    7.95
  -2   8  -5  134.51    6.22
  -2   8  -5  109.33    7.21
   2   8   5  123.75    8.49
  -2   8  -6   64.29    6.05
  -2   8  -6   56.41    4.41
   2  -8   7  204.22    9.55
  -2  -8  -7  172.91    9.13
   2   8   7  176.49   11.01
   2  -8   8   21.77    4.23
  -2  -8  -8   24.26    4.63
  -2  -8  -9  482.08   16.12
   2   8   9  482.47   18.65
  -2  -8 -10   13.80    4.32
   2  -9  -9   11.69    5.63
  -2   9   9    3.67    4.18
   2  -9  -8  291.37   14.25
  -2   9   8  242.87   11.50
  -2   9   7   57.56    6.76
  -2   9   7   44.49    5.11
   2  -9  -7   51.70    6.70
  -2   9   6   61.62    6.98
  -2   9   6  168.92    8.44
  -2   9   5   10.07    3.89
  -2   9   5    8.22    2.71
  -2   9   4  756.28   14.55
   2   9  -4  796.96   14.37
  -2   9   3   68.31    4.35
   2   9  -3   77.18    4.76
  -2   9   3   77.16    6.86
   2   9  -2  864.07   15.96
  -2   9   2  882.17   13.39
   2   9  -1    3.57    2.12
  -2   9   1   12.36    1.86
  -2   9   1    8.60    3.09
   2   9   0 1316.63   22.00
  -2   9   0 1354.46   14.54
  -2   9  -1    9.34    3.15
  -2   9  -1    8.67    1.59
   2   9   1    6.31    2.77
  -2   9  -2 1789.70   28.43
   2   9   2 1715.23   26.68
  -2   9  -2 1769.45   16.71
   2   9   3   35.91    4.72
  -2   9  -3   39.12    4.67
   2   9   4  585.79   17.55
  -2   9  -4  742.08   18.18
  -2   9  -5   30.00    4.55
   2   9   5   26.42    4.80
   2   9   6 2648.60   40.69
  -2   9  -6 2575.88   36.19
   2  -9   7   11.77    3.23
  -2  -9  -7    7.86    3.51
   2   9   7    4.25    3.99
   2  -9   8  439.24   14.38
  -2  -9  -8  398.44   15.12
   2   9   8  387.51   17.23
  -2  -9  -9    5.91    4.14
   2   9   9    7.11    4.76
  -2  10   8  251.81   11.74
  -2  10   7    6.86    4.56
  -2  10   7   16.59    4.11
  -2  10   6  887.98   18.75
  -2  10   6 1220.53   28.35
  -2  10   5   65.90    5.22
  -2  10   5  105.97    9.17
   2  10  -4 1353.55   20.16
  -2  10   4 1470.46   29.21
  -2  10   3   42.93    3.66
   2  10  -3   46.48    4.30
  -2  10   3   45.58    5.93
   2  10  -2  189.80    8.22
  -2  10   2  213.61   11.18
   2  10  -1  103.93    6.62
  -2  10   1  127.01    8.36
   2  10   0 1652.79   25.96
  -2  10   0 1658.87   28.73
  -2  10  -1    3.39    2.84
   2  10   1    2.98    2.53
   2  10   2   95.21    7.24
  -2  10  -2   91.12    7.07
  -2  10  -3  167.55    9.38
   2  10   3  162.19    9.76
   2  10   4  167.52   10.21
  -2  10  -4  151.83    8.69
   2  10   5   44.34    5.90
  -2  10  -5    8.03    3.34
   2  10   6  187.85   11.78
  -2  10  -6  168.90    9.78
   2 -10   7   47.89    5.62
   2  10   7   50.18    7.16
  -2 -10  -7   51.23    6.68
   2  10   8   61.59    8.16
  -2 -10  -8   71.14    7.76
  -2  11   7  674.20   21.80
  -2  11   6   47.34    7.02
  -2  11   5   10.50    4.71
  -2  11   4  206.80   12.32
   2  11  -3  938.96   18.45
  -2  11   3 1122.21   27.21
   2  11  -2  460.54   13.43
  -2  11   2  532.11   17.73
   2  11  -1  164.49    8.62
  -2  11   1  192.76   10.76
   2  11   0  436.22   14.32
  -2  11   0  482.54   16.38
  -2  11  -1   20.91    4.36
   2  11   1   24.65    4.53
  -2  11  -2 1249.52   25.53
   2  11   2 1106.14   24.48
   2  11   3  612.21   19.07
  -2  11  -3  691.46   18.91
   2  11   4  671.86   20.99
  -2  11  -4  697.24   18.72
   2  11   5   24.11    5.50
  -2  11  -5   19.72    4.34
  -2 -11  -6  579.62   18.95
  -2  11  -6  595.39   17.89
   2 -11   7   84.28    7.63
   2  11   7   87.25    9.64
  -2 -11  -7   93.40    8.87
  -2  12   6  210.32   13.94
  -2  12   5  221.16   13.92
  -2  12   4  222.69   13.54
   2  12  -3  148.44    8.29
  -2  12   3  164.25   11.15
   2  12  -2  848.61   19.42
  -2  12   2  926.74   24.39
   2  12  -1  545.60   15.74
  -2  12   1  661.24   20.66
  -2  12   0    4.98    4.10
   2  12   0    5.29    3.38
  -2  12  -1  473.50   16.57
   2  12   1  417.25   15.09
  -2  12  -2  319.49   13.99
   2  12   2  290.78   13.78
   2  12   3  761.98   22.43
  -2  12  -3  828.68   21.39
   2  12   4   60.64    7.60
  -2  12  -4   63.69    6.79
   2  12   5  559.80   21.20
  -2  12  -5  521.01   17.00
  -2  12  -6   11.47    4.41
  -2 -12  -6   15.77    5.70
   2  13  -2   63.42    6.29
  -2  13   2   73.75    8.42
   2  13  -1  294.00   12.67
  -2  13   1  370.07   16.14
  -2  13   0   45.47    6.73
   2  13   0   29.81    5.21
   2  13   1  478.19   16.91
  -2  13  -1  535.85   18.72
  -2  13  -2   38.83    6.39
   2  13   2   28.90    5.64
  -2  13  -3   48.33    6.36
  -3   0  12   19.53    5.53
   3   0 -11   -0.64    3.74
  -3   0  11    2.27    3.93
  -3   0  10  560.58   17.52
   3   0 -10  699.28   20.55
   3   0  -9    4.81    3.50
  -3   0   9    0.47    2.85
  -3   0   8  406.01   13.17
   3   0  -8  400.86   15.18
   3   0  -7    1.48    3.00
  -3   0   7    1.27    1.98
   3   0  -6 1648.23   28.59
  -3   0   6 1413.93   21.09
   3   0  -5   -0.09    2.08
  -3   0   5    0.85    1.59
   3   0  -4 2247.20   28.08
   3   0  -4 2312.77   14.73
  -3   0   3    8.83    1.86
   3   0  -3    2.48    0.87
   3   0  -2 3332.25   22.52
  -3   0   2 3491.53   24.81
   3   0  -1    1.58    1.02
  -3   0   1   13.21    1.71
   3   0   0 4587.09   30.96
  -3   0   0 4568.08   26.58
   3   0   1    2.00    1.31
  -3   0  -1    0.70    0.95
   3   0   2 4274.07   34.55
  -3   0  -2 4011.88   28.67
   3   0   3   10.52    2.46
  -3   0  -3    1.51    1.52
   3   0   4 5980.25   48.96
  -3   0  -4 5926.67   44.15
   3   0   5    1.37    2.68
  -3   0  -5    9.96    2.99
   3   0   6  948.58   22.02
  -3   0  -6 1011.97   23.40
  -3   0  -6  972.46   13.14
   3   0   7    0.64    2.81
  -3   0  -7   10.04    1.88
  -3   0  -7    3.34    3.33
   3   0   8 2560.40   38.92
  -3   0  -8 2694.07   24.46
  -3   0  -9    3.30    3.84
  -3   0  -9    3.65    1.96
   3   0   9    0.07    3.09
  -3   0 -10  626.25   20.72
  -3   0 -10  592.60   13.24
  -3   0 -11    1.15    2.46
   3   0  11   -0.20    3.72
  -3   0 -12  122.08    7.18
  -3  -1  12  490.83   17.63
  -3   1  12  383.14   16.11
   3   1 -11   10.82    4.04
  -3  -1  11    1.30    3.79
  -3   1  11    0.14    3.83
   3  -1 -11   17.57    5.20
   3   1 -10  238.02   11.73
   3  -1 -10  237.41   12.14
  -3  -1  10  213.20   11.10
  -3   1  10  216.31   11.22
   3  -1  -9   72.76    6.87
   3   1  -9   78.93    7.02
  -3  -1   9   65.80    6.09
  -3   1   9   67.97    6.22
   3  -1  -8  975.06   23.07
  -3  -1   8  946.61   19.36
  -3   1   8  926.35   19.92
  -3  -1   7  144.48    7.05
  -3   1   7  149.46    7.37
   3  -1  -6  868.72   21.14
   3   1  -6  839.35   19.87
  -3   1   6  800.23   15.79
   3  -1  -5   83.15    6.72
  -3   1   5   89.07    5.15
  -3  -1   5   92.81    5.07
   3  -1  -4  216.22    4.95
  -3   1   4  204.56    6.86
  -3  -1   4  204.38    6.57
   3  -1  -4  204.68    8.47
   3   1  -4  201.06    3.64
  -3  -1   3  226.75    6.64
   3   1  -3  238.15    5.32
   3  -1  -3  231.96    5.54
   3  -1  -2 1355.16   14.65
  -3  -1   2 1325.64   15.02
   3  -1  -1  233.83    6.81
   3   1  -1  213.63    6.20
  -3  -1   1  276.35    6.44
  -3   1   1  282.24    6.79
   3   1   0   56.21    3.59
   3  -1   0   48.82    3.45
  -3   1   0   55.75    3.09
  -3  -1   0   52.18    2.90
   3  -1   1 1057.79   16.29
   3   1   1 1080.08   16.53
   3  -1   2   66.73    4.60
   3   1   2   63.44    4.62
  -3   1  -2  122.86    5.22
  -3  -1  -2  118.96    5.34
   3  -1   3   92.09    5.76
   3   1   3   86.60    5.68
  -3   1  -3  106.18    5.12
  -3  -1  -3  108.40    5.81
   3  -1   4   15.72    3.17
   3   1   4   12.81    3.08
  -3   1  -4   14.88    2.88
  -3  -1  -4    6.67    2.65
   3  -1   5  584.42   16.01
   3   1   5  601.21   16.78
  -3  -1  -5  637.48   17.40
  -3   1  -5  602.45    8.92
   3  -1   6  514.53   16.10
   3   1   6  534.42   16.72
  -3   1  -6  528.99   16.08
  -3  -1  -6  545.79   17.52
  -3  -1  -6  546.83   10.38
  -3   1  -6  503.59    8.71
   3  -1   7  214.73   10.90
   3   1   7  231.16   11.39
  -3   1  -7  233.41   11.67
  -3  -1  -7  227.21    7.22
  -3   1  -7  224.59    6.39
  -3   1  -8   95.03    4.67
   3  -1   8   62.97    7.04
   3   1   8   62.54    6.64
  -3   1  -8   61.14    6.75
  -3  -1  -8   80.48    8.35
  -3  -1  -8   87.55    4.98
   3  -1   9   23.51    5.09
  -3   1  -9   24.66    5.02
   3   1   9   13.36    4.20
  -3  -1  -9   22.78    5.28
  -3  -1  -9   26.70    3.27
  -3   1  -9   25.32    2.97
   3  -1  10  446.38   16.75
   3   1  10  468.67   17.05
  -3   1 -10  586.77   19.54
  -3  -1 -10  570.46   13.51
  -3   1 -10  534.97   12.22
  -3  -1 -11  321.10   10.96
  -3  -1 -12  190.75    9.06
  -3  -2  12   62.92    7.39
   3   2 -11  345.40   14.28
  -3   2  11  314.05   14.25
   3  -2 -10   58.33    6.60
  -3  -2  10   60.55    6.44
  -3   2  10   50.72    6.47
   3   2 -10   54.61    6.32
   3  -2  -9  516.02   17.12
  -3  -2   9  508.09   15.03
  -3   2   9  503.00   15.90
   3  -2  -8  427.81   15.86
  -3  -2   8  414.01   12.73
  -3   2   8  388.41   13.03
   3   2  -7   26.31    4.40
  -3  -2   7   27.00    3.44
  -3   2   7   21.71    3.42
  -3   2   6  760.54   15.66
  -3  -2   6  739.27   14.24
  -3  -2   5 2030.95   22.17
   3  -2  -5 2057.30   15.74
   3  -2  -4 1707.19   25.53
  -3   2   4 1705.82   20.10
   3   2  -4 1717.54   10.54
  -3   2   3   43.95    3.30
  -3  -2   3   42.10    2.92
   3   2  -3   34.97    2.08
   3  -2  -2 1818.88   19.17
  -3  -2   2 1804.65   16.42
   3   2  -2 1804.78   15.77
   3  -2  -1  122.58    5.33
  -3   2   1  158.68    5.32
   3   2  -1  121.08    4.78
  -3  -2   1  163.82    4.88
   3  -2   0 2628.26   25.43
   3   2   0 2563.42   23.53
  -3   2   0 2534.11   20.78
  -3  -2   0 2661.76   20.16
   3  -2   1  650.86   13.22
   3   2   1  650.82   12.75
  -3  -2  -1  649.28   11.14
   3  -2   2 1869.09   24.13
   3   2   2 1890.09   23.51
  -3  -2  -2 1902.08   20.94
   3  -2   3  416.78   12.27
   3   2   3  424.58   12.18
  -3  -2  -3  437.06   11.79
   3  -2   4 1563.85   24.42
   3   2   4 1632.40   25.45
  -3   2  -4 1673.20   12.34
  -3   2  -4 1524.44   20.67
  -3  -2  -4 1659.65   26.27
   3   2   5  188.50    9.41
  -3   2  -5  199.71    8.75
  -3  -2  -5  201.04   10.65
  -3   2  -5  195.69    4.85
   3   2   6 1967.69   31.10
  -3   2  -6 1970.90   30.31
  -3   2  -6 1973.09   16.25
   3  -2   7   95.80    7.46
   3   2   7  106.42    7.83
  -3   2  -7   91.55    7.27
  -3  -2  -7  107.34    8.93
  -3  -2  -7  107.74    5.30
  -3   2  -7   97.89    4.23
   3   2   8  560.38   17.49
   3  -2   8  576.43   18.20
  -3   2  -8  635.80   19.02
  -3  -2  -8  677.66   21.31
  -3  -2  -8  630.43   13.32
  -3   2  -8  649.75   11.31
   3  -2   9  154.29   10.33
  -3  -2  -9  182.01    7.75
  -3  -2  -9  193.97   12.10
   3   2   9  155.80   10.00
  -3   2  -9  168.56   10.51
  -3   2  -9  184.53    6.83
   3  -2  10  509.76   18.24
  -3  -2 -10  516.24   13.34
  -3   2 -10  508.03   17.73
   3   2  11   69.49    7.63
  -3  -2 -11   89.78    6.46
  -3  -2 -12  249.89   10.65
   3  -3 -11   54.02    7.27
  -3  -3  11   62.56    6.81
  -3   3  11   41.58    6.60
   3  -3 -10  766.79   21.81
  -3   3  10  666.88   19.66
  -3   3   9  283.22   12.14
   3  -3  -9  322.51   14.11
   3  -3  -8   25.44    4.74
  -3  -3   8   32.10    4.00
  -3   3   8   20.64    3.82
   3  -3  -7  486.58   16.38
  -3   3   7  517.58   14.53
   3  -3  -6  360.89   13.59
  -3   3   6  340.33   10.52
  -3  -3   6  343.40    9.61
   3  -3  -5 1262.08   24.33
  -3  -3   5 1279.86   16.78
  -3   3   5 1306.91   14.73
  -3  -3   4  988.88   13.80
   3  -3  -4  958.58   18.99
   3   3  -4  988.02    8.88
   3  -3  -3 2043.24   24.37
  -3   3   3 1894.43   20.80
  -3  -3   3 1912.11   17.74
  -3   3   3 1949.79   19.86
   3   3  -3 2057.02   15.80
  -3   3   2  139.35    5.37
  -3  -3   2  140.74    4.53
   3   3  -2  132.59    4.52
  -3   3   2  145.58    5.63
  -3   3   1 2194.68   19.81
  -3  -3   1 2217.34   17.39
  -3   3   1 2226.65   22.33
  -3   3   0 1681.15   17.18
  -3  -3   0 1651.87   16.06
  -3   3  -1 2480.50   19.83
  -3  -3  -1 2529.73   21.49
   3  -3   2   32.77    3.70
   3   3   2   35.84    3.51
  -3   3  -2   33.53    2.79
  -3  -3  -2   40.30    3.53
   3  -3   3 1533.26   23.45
   3   3   3 1568.57   22.85
  -3   3  -3 1631.73   19.21
  -3  -3  -3 1581.13   23.25
  -3   3  -3 1617.55    9.07
   3  -3   4  134.96    7.73
   3   3   4  126.86    7.17
  -3   3  -4  153.26    6.58
  -3  -3  -4  149.57    8.74
  -3   3  -4  145.73    3.31
   3  -3   5 1941.51   28.71
   3   3   5 2024.91   28.96
  -3   3  -5 1905.22   25.50
  -3  -3  -5 2016.65   32.03
  -3   3  -5 2060.19   14.28
   3  -3   6   20.43    3.66
  -3   3  -6   17.77    3.55
  -3  -3  -6   26.71    4.87
  -3   3  -6   26.82    2.15
   3  -3   7  969.40   22.65
   3   3   7 1044.72   23.65
  -3   3  -7  972.10   21.95
  -3  -3  -7 1094.65   25.69
  -3  -3  -7 1114.82   17.65
   3  -3   8  350.66   14.04
   3   3   8  377.54   14.99
  -3   3  -8  352.00   13.67
  -3  -3  -8  398.89   11.27
   3   3   9  588.85   19.22
  -3   3  -9  616.95   18.81
  -3  -3  -9  619.44   14.52
   3  -3  10   48.05    7.04
   3   3  10   23.57    5.43
  -3   3 -10   28.05    5.20
  -3  -3 -10   44.63    4.64
  -3  -3 -11  351.83   12.32
   3   3  11  277.89   14.20
   3  -4 -11  345.72   15.89
  -3   4  11  268.10   13.20
   3  -4 -10   13.28    4.88
  -3   4  10   22.48    4.64
   3  -4  -9  383.81   16.03
  -3   4   9  259.62   11.68
   3  -4  -8   73.75    7.35
  -3   4   8   74.77    6.64
  -3  -4   8   96.23    6.24
  -3   4   7 1133.81   21.09
  -3  -4   7 1169.81   18.03
   3  -4  -6   23.01    4.39
  -3   4   6   22.76    3.53
  -3  -4   6   34.21    3.41
   3  -4  -5  153.81    9.08
  -3   4   5  162.76    7.04
  -3  -4   5  162.82    5.85
  -3   4   5  139.02    6.10
   3   4  -4  139.30    3.74
   3  -4  -4  149.86    7.93
  -3   4   4  148.07    6.30
  -3  -4   4  144.70    5.13
   3  -4  -3 1108.64   17.56
  -3   4   3 1059.06   15.53
  -3   4   3 1166.47   17.80
  -3  -4   3 1053.05   12.28
   3   4  -3 1158.12   12.08
   3  -4  -2   30.11    2.39
  -3   4   2   27.67    2.64
  -3  -4   2   22.45    1.97
  -3   4   2   26.34    3.05
  -3   4   1  830.16   12.36
  -3  -4   1  794.52   10.21
  -3   4   0  264.54    7.02
   3   4   0  272.29    8.08
  -3   4   0  264.82    9.16
   3   4   1   87.93    5.07
  -3  -4  -1  105.90    4.90
  -3   4  -1   95.09    5.73
   3  -4   2   81.93    5.94
  -3   4  -2   91.86    4.35
   3   4   2   79.22    5.00
  -3  -4  -2   84.77    4.96
   3  -4   3  390.86   12.60
   3   4   3  371.43   11.37
  -3  -4  -3  350.58   11.61
  -3   4  -4    8.99    2.01
   3   4   4    7.08    2.68
  -3  -4  -4    3.57    2.83
   3  -4   5  462.77   14.32
   3   4   5  455.64   14.10
  -3   4  -5  481.92   12.41
  -3  -4  -5  477.17   15.20
   3  -4   6  347.07   12.85
   3   4   6  380.37   13.93
  -3   4  -6  362.53   11.85
  -3  -4  -6  388.77   14.24
   3  -4   7  193.96    9.92
  -3  -4  -7  183.77   10.53
   3   4   7  189.71   10.57
  -3   4  -7  197.36    9.81
   3  -4   8   26.79    4.71
  -3   4  -8   21.68    4.20
  -3  -4  -8   21.19    3.37
   3   4   9  189.94   11.48
  -3   4  -9  171.12    9.96
  -3  -4  -9  194.39    8.85
   3  -4  10   65.32    7.21
  -3  -4 -10   57.39    5.36
   3   4  10   53.91    7.14
  -3   4 -10   53.08    6.16
   3   4  11  460.90   23.30
  -3  -4 -11  349.90   12.73
   3  -5 -11  233.54   14.48
   3  -5 -10    9.44    4.95
  -3   5  10    5.87    4.54
   3  -5  -9  370.41   16.14
  -3   5   9  288.70   13.11
   3  -5  -8   15.24    4.54
  -3   5   8   14.10    3.69
   3  -5  -7  420.53   15.84
  -3   5   7  450.34   13.75
   3  -5  -6    2.84    3.16
  -3   5   6    5.20    2.32
  -3   5   6    4.90    2.40
   3  -5  -5 1709.34   28.64
  -3   5   5 1742.49   22.85
  -3  -5   5 1740.75   17.66
   3  -5  -4   16.66    3.65
   3   5  -4   19.92    1.84
  -3   5   4   16.52    3.40
  -3   5   4   14.17    2.59
  -3  -5   4   16.79    1.90
   3  -5  -3 1957.70   23.09
  -3   5   3 1963.43   27.29
  -3   5   3 2004.73   21.56
   3   5  -3 2030.45   17.54
   3  -5  -2   10.78    1.73
  -3   5   2   10.29    2.84
  -3   5   2   13.86    2.20
  -3  -5   2    8.72    1.29
  -3   5   1 3576.82   26.23
  -3   5   1 3582.61   35.76
  -3  -5   1 3490.39   20.83
   3   5  -1 3579.66   27.06
  -3   5   0   43.13    3.09
  -3   5   0   44.78    4.58
  -3  -5   0   43.02    2.79
   3   5   0   43.32    3.97
  -3   5  -1 2120.20   19.70
  -3   5  -1 2097.09   28.25
   3   5   2    0.59    1.64
  -3   5  -2    0.26    2.08
  -3   5  -2    0.97    1.20
  -3  -5  -2    1.34    1.98
   3  -5   3 4118.68   41.61
  -3   5  -3 4085.63   29.91
   3   5   3 3968.35   38.54
  -3  -5  -3 3993.25   35.86
   3  -5   4   59.92    5.54
  -3   5  -4   47.48    3.70
   3   5   4   47.31    4.84
  -3  -5  -4   55.10    5.10
   3   5   5 1736.40   28.82
  -3   5  -5 1748.18   22.93
  -3  -5  -6    1.13    2.41
   3   5   6    9.79    3.39
   3  -5   6    4.29    3.04
  -3   5  -6    2.79    2.05
   3   5   7 1106.92   25.11
  -3   5  -7 1176.74   23.16
   3  -5   8   24.36    4.56
   3   5   8   16.25    4.73
  -3   5  -8   25.85    4.44
  -3  -5  -8   14.95    3.30
   3  -5   9 2573.13   38.09
   3   5   9 2454.04   45.96
  -3   5  -9 2087.10   32.21
  -3  -5  -9 2061.32   29.97
  -3   5 -10   -1.05    3.14
  -3  -5 -10    1.38    3.02
   3   5  10    2.34    4.27
   3  -5  10    1.03    3.81
   3   5  11   35.82    6.51
  -3  -5 -11   51.91    5.97
   3  -6 -10   21.95    6.54
  -3   6  10    9.41    4.85
   3  -6  -9  290.21   14.88
  -3   6   9  259.61   12.28
   3  -6  -8  240.19   13.30
  -3   6   8  255.57   11.55
   3  -6  -7  649.10   20.62
  -3   6   7  713.47   17.71
   3  -6  -6  158.09   10.21
  -3   6   6  169.29    8.16
   3  -6  -5  181.55   10.03
  -3   6   5  176.51    8.90
  -3   6   5  180.76    7.83
   3  -6  -4  511.42   14.51
  -3   6   4  490.21   14.82
   3   6  -4  514.26    9.06
  -3   6   4  498.51   12.18
   3   6  -3  496.18    9.45
   3  -6  -3  458.18   11.46
  -3   6   3  490.83   14.89
  -3   6   3  486.86   11.07
  -3   6   2  358.51   12.79
  -3   6   2  365.65    9.19
  -3   6   1  141.20    5.47
   3   6  -1  150.73    6.19
  -3   6   0  704.12   17.13
  -3   6   0  707.75   11.50
   3   6   0  693.98   13.47
   3   6   1   19.04    2.86
  -3  -6  -1   21.66    2.19
  -3   6  -2  472.55    9.80
   3   6   2  449.81   12.68
  -3   6  -2  490.84   14.64
  -3   6  -3   89.77    4.71
   3   6   3   80.58    6.23
  -3   6  -3   72.14    6.04
  -3  -6  -4   90.17    5.27
  -3   6  -4  104.55    5.20
   3  -6   5  250.07   11.00
  -3   6  -5  239.14    8.72
   3  -6   6 1281.56   24.40
  -3   6  -6 1184.25   20.45
   3  -6   7  109.65    8.08
  -3   6  -7  100.70    6.95
   3  -6   8   28.02    5.12
  -3  -6  -8   25.53    4.09
   3   6   8   24.63    5.19
  -3   6  -8   17.40    3.69
   3   6   9  247.82   13.32
  -3   6  -9  265.43   11.49
  -3  -6  -9  259.65   11.35
   3   6  10  235.72   13.67
  -3   6 -10  214.40   10.51
  -3  -6 -10  234.82   11.20
   3   6  11  201.27   13.56
   3  -7 -10  601.89   22.92
  -3   7  10  568.53   19.92
   3  -7  -9  116.40   10.76
  -3   7   9  115.23    9.21
   3  -7  -8   42.85    7.23
  -3   7   8   36.69    5.52
   3  -7  -7  248.31   13.99
  -3   7   7  282.23   11.45
  -3   7   6  392.83   14.17
  -3   7   6  398.96   12.70
   3  -7  -5  353.16   14.25
  -3   7   5  365.19   11.35
  -3   7   4  570.37   17.15
  -3   7   4  588.12   13.30
  -3   7   3  646.64   17.99
  -3   7   3  692.07   13.48
   3   7  -2   48.32    3.63
  -3   7   2   53.92    5.55
  -3   7   2   52.32    3.81
  -3   7   1  981.67   22.12
  -3   7   1 1009.26   14.56
   3   7  -1 1033.73   16.61
  -3   7   0  801.78   19.48
   3   7   0  833.79   16.15
  -3   7  -1 1780.56   28.67
  -3   7  -1 1790.70   18.49
   3   7   1 1843.15   25.06
  -3   7  -2   36.55    3.03
  -3   7  -2   41.85    5.02
   3   7   2   44.01    4.60
  -3   7  -3  885.51   14.32
   3   7   3  831.91   17.96
  -3   7  -3  885.90   20.43
  -3   7  -4   15.85    3.80
  -3   7  -4   22.43    2.84
   3   7   4   11.96    3.51
   3  -7   5 1494.43   26.45
  -3   7  -5 1390.06   20.69
   3   7   6    3.60    3.08
  -3   7  -6    7.29    2.76
  -3   7  -7  721.80   17.39
   3   7   7  637.91   20.07
  -3   7  -8  237.55   10.37
   3   7   8  206.71   12.22
  -3  -7  -8  217.18   10.68
   3  -7   9  129.69    9.04
   3   7   9  142.47   11.13
  -3  -7  -9  146.79    9.20
   3   7  10   45.57    7.77
  -3   8   9  168.52   10.88
  -3   8   8  286.98   12.82
  -3   8   7   37.20    5.10
  -3   8   6  413.14   13.41
  -3   8   6  333.93   13.75
  -3   8   5  884.35   17.91
  -3   8   5  817.55   21.46
  -3   8   4  914.38   22.90
  -3   8   4  937.09   17.30
   3   8  -3   68.54    4.42
  -3   8   3   74.53    4.90
  -3   8   2  920.45   22.77
  -3   8   2  904.97   14.86
   3   8  -1   36.70    3.73
  -3   8   1   25.14    4.52
  -3   8   1   32.57    3.10
  -3   8   0 1676.97   29.79
  -3   8   0 1778.86   18.85
  -3   8  -1  242.50   11.01
  -3   8  -1  244.51    7.06
  -3   8  -2 1531.35   17.97
   3   8   2 1585.64   26.07
  -3   8  -3  352.50    8.73
  -3   8  -3  333.40   13.20
   3   8   3  356.22   13.10
  -3   8  -4 1598.84   20.14
   3   8   4 1554.61   28.02
  -3   8  -4 1514.80   27.99
  -3   8  -5   61.68    4.71
   3   8   5   63.69    6.76
  -3   8  -6  953.75   18.75
   3   8   6  905.81   23.95
   3  -8   7  105.61    7.84
  -3   8  -7   83.14    6.23
   3   8   7   85.41    8.40
  -3  -8  -8  528.71   17.49
   3   8   8  531.33   20.42
   3  -8   9   97.61    8.15
   3   8   9   82.68    9.27
  -3  -8  -9   84.78    7.96
  -3   9   8  754.36   20.91
  -3   9   7    0.75    3.39
  -3   9   6  450.78   14.20
  -3   9   6  413.73   16.00
  -3   9   5    2.56    3.49
  -3   9   5   19.52    3.70
  -3   9   4   96.20    8.33
  -3   9   4  103.25    6.28
  -3   9   3   22.49    4.80
   3   9  -3   29.71    3.45
  -3   9   3   35.03    3.71
  -3   9   2 1105.62   25.44
  -3   9   2 1063.58   16.32
  -3   9   1    4.95    3.18
   3   9  -1    5.88    2.49
   3   9   0   38.37    4.37
  -3   9   0   43.04    5.57
  -3   9   0   49.09    3.33
  -3   9  -1   74.87    6.68
  -3   9  -1   74.18    4.22
   3   9   1   70.35    5.89
  -3   9  -2   88.82    7.30
  -3   9  -2   97.13    4.93
   3   9   2   87.25    6.71
  -3   9  -3   43.40    3.56
  -3   9  -3   42.41    5.43
   3   9   3   39.11    5.11
  -3   9  -4   30.13    3.35
  -3   9  -4   25.14    4.60
   3   9   4   28.68    5.01
  -3   9  -5   53.82    6.27
   3   9   5   58.17    6.99
   3  -9   6  377.19   14.37
   3   9   6  322.26   15.45
   3  -9   7    5.11    3.53
   3   9   7    7.82    5.18
   3  -9   8   37.65    6.41
  -3  -9  -8   31.54    5.93
  -3  10   8   91.14    8.82
  -3  10   7    2.58    3.74
  -3  10   6  528.70   15.63
  -3  10   6  598.80   20.26
  -3  10   5   78.11    6.19
  -3  10   5   96.97    8.95
  -3  10   4  711.04   22.09
  -3  10   4  650.27   15.02
  -3  10   3   10.53    4.43
  -3  10   3    8.38    2.48
  -3  10   2 1410.30   29.85
   3  10  -2 1383.42   22.59
   3  10  -1   16.83    3.47
  -3  10   1    8.46    2.21
  -3  10   1   13.59    4.40
   3  10   0 1195.01   22.83
  -3  10   0 1242.75   27.28
   3  10   1   77.47    6.68
  -3  10  -1   62.52    6.52
   3  10   2 1086.00   23.06
  -3  10  -2 1091.82   24.69
   3  10   3   41.64    5.54
  -3  10  -3   45.85    5.96
  -3  10  -4 1719.99   30.75
   3  10   4 1857.10   33.74
  -3  10  -5   22.46    5.01
   3  10   5   19.38    5.29
   3 -10   6  332.25   14.08
   3  10   6  282.16   14.81
  -3 -10  -7    3.45    4.28
   3 -10   7    6.97    3.93
   3  10   7    4.44    5.10
   3 -10   8 1215.74   26.38
  -3  11   6  191.70   12.66
  -3  11   5  165.47   11.80
  -3  11   4  146.99   10.99
  -3  11   3  412.34   16.80
  -3  11   2  258.78   14.01
   3  11  -2  216.55    9.46
  -3  11   1  234.16   13.01
   3  11  -1  229.67   10.46
   3  11   0   21.12    4.09
  -3  11   0   20.17    4.91
   3  11   1  879.40   21.68
  -3  11  -1  892.60   23.36
   3  11   2   33.11    5.40
  -3  11  -2   20.87    4.92
   3  11   3   87.57    8.23
  -3  11  -3   79.41    7.55
   3  11   4   33.03    5.64
  -3  11  -4   42.05    5.92
  -3  11  -5  632.08   20.26
   3  11   5  604.84   21.00
   3 -11   6  110.59    9.07
  -3  12   4  325.98   16.01
  -3  12   3    4.71    4.84
  -3  12   2  228.98   13.38
   3  12  -2  202.53    9.45
  -3  12   1  134.21   10.67
   3  12  -1  117.53    7.94
   3  12   0  597.13   18.04
  -3  12   0  656.89   21.37
   3  12   1   92.90    8.12
  -3  12  -1   83.89    8.02
   3  12   2  354.73   15.30
  -3  12  -2  330.32   14.74
   3  12   3   71.68    8.09
  -3  12  -3   77.96    7.64
   3  13  -1  575.78   16.92
   3  13   0  194.25   10.91
   4   0 -11   -0.71    4.29
  -4   0  11    0.82    4.29
   4   0 -10  746.94   23.24
  -4   0  10  650.78   19.61
   4   0  -9    1.16    3.90
  -4   0   9    0.38    3.34
  -4   0   8   66.55    6.42
  -4   0   7    4.61    2.81
  -4   0   6  109.02    6.61
  -4   0   5    3.72    2.21
   4   0  -4  530.89    8.90
  -4   0   4  597.71   12.97
   4   0  -3    4.04    1.38
  -4   0   3    2.24    1.82
   4   0  -2  462.84   10.20
  -4   0   2  504.08   10.79
   4   0  -1    4.27    1.69
  -4   0   1   11.00    1.95
   4   0   0  139.94    6.64
  -4   0   0  120.97    4.98
   4   0   1    1.62    1.92
  -4   0  -1    4.11    1.72
  -4   0  -2  525.03   11.90
   4   0   2  552.06   14.86
   4   0   3    0.43    2.14
  -4   0  -3    1.31    1.65
   4   0   4 1093.61   23.68
  -4   0  -4 1026.78   19.79
   4   0   5    4.38    3.01
  -4   0  -5    7.81    3.03
   4   0   6  561.37   19.84
  -4   0  -6  557.34   18.36
  -4   0  -6  551.63   10.69
  -4   0  -7    7.69    1.92
   4   0   7    3.30    3.45
  -4   0  -7    2.51    4.00
  -4   0  -8 1290.38   30.27
  -4   0  -8 1233.59   17.77
  -4   0  -9    0.39    4.30
  -4   0  -9    2.63    2.28
   4   0   9    2.99    4.08
   4   0  10  358.59   17.12
  -4   0 -10  434.90   18.74
   4   0  11   -1.72    4.52
   4  -1 -11   14.23    5.60
  -4   1  11    5.13    4.59
  -4  -1  11    9.41    5.10
  -4   1  10  185.12   11.12
  -4  -1  10  203.88   11.12
   4  -1  -9   37.28    6.32
  -4   1   9   32.68    5.17
  -4  -1   9   33.26    5.05
  -4   1   8  722.10   18.44
  -4  -1   8  728.24   17.94
  -4   1   7  288.47   11.26
  -4  -1   7  297.58   11.03
  -4   1   6 1116.41   20.24
  -4  -1   6 1082.07   19.66
  -4   1   5  385.91   11.62
  -4  -1   5  360.30   10.78
   4  -1  -4 2214.90   18.75
  -4   1   4 2241.35   25.55
   4  -1  -3  139.79    5.27
  -4   1   3  131.85    6.19
  -4  -1   3  127.67    5.79
   4   1  -3  132.35    4.93
   4  -1  -2 1825.19   20.04
  -4   1   2 1842.64   20.60
  -4  -1   2 1884.88   20.65
   4  -1  -1    5.94    1.77
   4   1  -1    9.80    2.13
  -4   1   1   24.86    2.81
  -4  -1   1   21.87    2.68
   4  -1   0 2386.55   26.87
   4   1   0 2385.75   26.30
  -4   1   0 2344.36   22.52
  -4  -1   0 2417.76   22.58
   4  -1   1  287.65   10.15
   4   1   1  251.57    9.12
  -4   1  -1  246.82    7.51
  -4  -1  -1  289.32    8.41
   4  -1   2 2322.96   29.91
   4   1   2 2354.88   29.89
  -4  -1  -2 2425.72   26.31
   4  -1   3   21.02    3.69
  -4   1  -3   17.57    2.62
  -4  -1  -3   21.60    3.18
   4  -1   4  781.05   19.93
   4   1   4  775.70   20.11
  -4   1  -4  728.98   15.80
   4  -1   5  368.57   14.69
   4   1   5  389.55   15.07
  -4   1  -5  349.79   12.57
  -4  -1  -5  386.79   13.96
  -4   1  -5  402.83    7.78
   4  -1   6 1641.05   32.44
   4   1   6 1764.56   33.41
  -4   1  -6 1672.99   29.19
  -4  -1  -6 1740.23   32.96
   4  -1   7   66.11    7.33
   4   1   7   80.82    7.85
  -4  -1  -7   66.66    7.57
  -4  -1  -7   72.10    4.52
  -4   1  -7   65.45    3.82
   4  -1   8  223.90   13.15
   4   1   8  225.69   13.02
  -4   1  -8  251.39   13.49
  -4  -1  -8  276.63   14.73
  -4  -1  -8  256.76    8.70
   4  -1   9   98.69    9.41
   4   1   9   87.59    8.83
  -4   1  -9  115.23    9.71
  -4  -1  -9  132.94   11.14
  -4  -1  -9  112.58    6.19
   4  -1  10  135.96   10.96
   4   1  10  155.16   11.29
  -4   1 -10  182.60   12.14
  -4  -1 -10  193.09   13.20
  -4  -1 -10  165.49    7.95
   4  -1  11   25.41    6.39
   4   1  11   15.37    5.78
   4  -2 -11  274.93   15.17
  -4  -2  11  349.81   14.70
   4  -2 -10   36.91    6.80
  -4   2  10   30.88    6.12
  -4  -2  10   38.57    5.86
   4  -2  -9  148.71   11.02
  -4   2   9  128.41    9.05
  -4  -2   9  134.09    8.66
  -4   2   8  290.62   12.10
  -4  -2   8  298.05   11.61
   4  -2  -7  603.37   19.03
  -4   2   7  555.41   15.59
  -4  -2   7  571.29   14.77
   4  -2  -6   93.40    7.73
  -4  -2   6  104.48    6.35
  -4   2   5  844.41   17.39
  -4  -2   5  786.34   15.47
  -4   2   4   41.33    3.91
  -4  -2   4   44.60    4.06
  -4  -2   3  911.12   14.35
   4   2  -3  873.92   11.55
   4  -2  -2   57.44    4.21
  -4   2   2   61.69    4.01
  -4  -2   2   56.55    3.75
   4   2  -2   57.08    3.53
   4   2  -1 2242.48   23.01
  -4   2   1 2210.75   22.33
  -4  -2   1 2191.32   21.33
   4  -2   0  429.71   12.33
   4   2   0  425.18   10.98
  -4   2   0  410.19    9.51
  -4  -2   0  451.19    9.97
   4  -2   1  172.80    8.22
   4   2   1  163.87    7.60
  -4   2  -1  281.38    8.22
  -4  -2  -1  268.36    8.58
   4  -2   2  103.41    6.75
   4   2   2  105.43    6.54
  -4   2  -2   83.05    4.72
  -4  -2  -2   92.51    5.36
   4  -2   3 2197.24   31.32
   4   2   3 2252.82   30.58
  -4  -2  -3 2180.79   27.94
   4  -2   4  375.59   13.93
  -4   2  -4  332.21   10.37
  -4  -2  -4  369.00   12.81
   4  -2   5  306.29   13.41
   4   2   5  306.76   12.96
  -4   2  -5  327.13   11.45
  -4  -2  -5  331.30   14.02
   4  -2   6  406.42   15.95
   4   2   6  417.46   16.00
  -4   2  -6  395.06   13.68
   4  -2   7  207.76   12.13
   4   2   7  212.65   12.10
  -4   2  -7  198.75   11.16
  -4  -2  -7  243.03   13.51
  -4  -2  -7  252.88    8.60
   4  -2   8  419.75   17.38
   4   2   8  437.53   17.39
  -4   2  -8  450.45   17.21
   4  -2   9  790.27   25.77
   4   2   9  737.95   23.28
  -4   2  -9  756.25   22.95
  -4  -2  -9  763.40   16.20
   4  -2  10  417.62   18.75
   4   2  10  363.44   17.14
  -4   2 -10  434.44   18.33
  -4  -2 -10  471.54   19.95
  -4  -2 -10  407.92   12.59
   4   2  11    9.47    5.49
   4  -2  11   25.03    6.69
  -4  -2 -11   23.02    4.32
   4  -3 -10  341.02   18.22
  -4   3  10  296.19   14.08
   4  -3  -9  111.41   11.06
  -4   3   9   79.08    7.54
  -4  -3   9   97.56    7.48
   4  -3  -8   90.76    9.30
  -4   3   8   70.65    6.70
  -4  -3   8   83.08    6.52
   4  -3  -7  182.36   11.50
  -4  -3   7  177.13    8.37
   4  -3  -6  789.13   21.11
  -4   3   6  722.64   17.09
  -4  -3   6  758.79   15.82
   4  -3  -5   41.60    5.27
  -4   3   5   51.35    4.92
  -4  -3   5   48.96    4.26
  -4   3   4  239.50    8.76
  -4  -3   4  218.43    7.73
  -4   3   3   41.39    3.81
  -4  -3   3   33.93    3.15
   4  -3  -2 1515.45   21.81
  -4   3   2 1566.29   19.62
   4   3  -2 1542.47   17.27
   4  -3  -1   76.90    5.51
  -4   3   1   82.09    4.54
  -4  -3   1   82.24    4.30
   4   3  -1   74.14    4.32
   4  -3   0  417.14   12.65
  -4   3   0  449.21   10.05
   4   3   0  444.44   10.84
   4  -3   1  207.81    9.29
   4   3   1  206.46    8.17
  -4   3  -1  207.66    6.91
  -4  -3  -1  221.64    7.65
   4  -3   2  643.46   17.55
   4   3   2  619.24   14.80
  -4   3  -2  621.69   12.45
  -4  -3  -2  586.17   13.25
   4  -3   3  289.58   12.08
   4   3   3  312.51   11.28
  -4   3  -3  285.76    9.01
  -4  -3  -3  295.96   10.86
   4  -3   4 1572.76   28.55
  -4   3  -4 1532.28   22.40
  -4  -3  -4 1623.44   27.70
   4  -3   5  462.88   16.08
  -4   3  -5  504.83   13.94
  -4  -3  -5  498.00   17.21
   4  -3   6   28.14    4.90
   4   3   6   40.07    5.47
  -4   3  -6   29.20    4.10
  -4  -3  -6   32.84    5.82
   4  -3   7  414.14   16.56
   4   3   7  488.10   17.91
  -4   3  -7  439.38   15.55
  -4  -3  -7  497.70   18.63
   4  -3   8  564.28   20.11
   4   3   8  617.69   20.90
  -4   3  -8  592.39   19.09
  -4  -3  -8  673.21   22.28
  -4  -3  -8  664.59   15.25
   4  -3   9  538.57   20.07
   4   3   9  493.90   19.30
  -4   3  -9  522.11   18.56
  -4  -3  -9  518.62   14.24
  -4   3 -10   24.37    5.63
   4   3  10   20.54    5.82
   4  -3  10   26.57    6.78
  -4  -3 -10   24.72    4.22
   4   3  11  323.57   17.71
  -4  -3 -11  320.44   12.29
   4  -4 -10   46.60    8.65
  -4   4  10   32.57    6.07
   4  -4  -9  610.26   23.14
  -4   4   9  560.58   18.23
   4  -4  -8   81.88    9.39
  -4   4   8   75.75    7.02
   4  -4  -7 1025.65   28.31
  -4   4   7  867.56   20.02
   4  -4  -6   13.10    4.55
  -4  -4   6   17.90    3.28
  -4   4   6    8.47    2.90
   4  -4  -5 1271.80   23.44
  -4   4   5 1270.67   21.60
  -4  -4   5 1286.01   18.46
  -4   4   4   90.81    5.63
  -4  -4   4   88.86    4.65
  -4   4   3 2067.62   24.46
   4   4  -3 2072.79   18.34
   4  -4  -2  145.74    7.76
  -4   4   2  142.95    6.11
  -4  -4   2  145.40    5.30
   4   4  -2  152.10    5.64
  -4   4   1 1672.00   19.82
   4   4  -1 1652.79   20.16
   4  -4   0  218.80   10.12
  -4   4   0  230.07    7.34
  -4  -4   0  218.12    7.07
   4   4   0  221.92    7.94
   4  -4   1 3411.54   39.65
  -4   4  -1 3436.18   27.77
   4   4   1 3438.41   33.13
  -4  -4  -1 3322.03   29.12
   4  -4   2    5.19    2.73
   4   4   2    6.60    2.38
  -4   4  -2    7.00    1.99
  -4  -4  -2   11.90    2.64
   4  -4   3 1013.12   22.79
   4   4   3 1027.60   20.55
  -4   4  -3 1069.62   17.05
   4   4   4   18.06    3.90
  -4   4  -4   21.31    3.08
  -4  -4  -4   19.53    4.30
   4  -4   5 1287.10   27.29
   4   4   5 1494.44   28.04
  -4   4  -5 1448.63   23.23
  -4  -4  -5 1355.64   27.62
   4  -4   6   81.33    7.41
   4   4   6   94.79    7.96
  -4   4  -6   95.92    6.73
  -4  -4  -6  102.57    8.54
   4  -4   7  881.78   23.58
   4   4   7  895.01   23.71
  -4  -4  -7  943.06   24.77
  -4  -4  -8   12.70    5.11
   4   4   8   16.45    4.97
   4  -4   8   16.50    4.81
  -4  -4  -8   20.89    3.88
  -4   4  -8   16.86    4.32
   4   4   9   22.09    5.97
   4  -4   9   64.87    8.17
  -4   4  -9   25.87    5.46
  -4  -4  -9   51.84    5.52
   4  -4  10   78.01    8.94
   4   4  10   68.97    8.78
  -4   4 -10   81.10    8.27
  -4  -4 -10   70.86    6.48
   4  -5 -10   33.63    8.65
   4  -5  -9  369.10   19.49
  -4   5   9  395.68   16.18
   4  -5  -8   16.12    6.59
  -4   5   8    1.33    3.28
   4  -5  -7   53.26    7.82
  -4   5   7   49.04    5.91
   4  -5  -6   27.36    5.78
  -4   5   6   22.24    4.10
   4  -5  -5  554.07   16.35
  -4   5   5  572.39   14.63
   4  -5  -4    9.12    2.84
  -4   5   4    8.55    2.54
  -4   5   4    5.65    2.41
  -4   5   3  113.70    6.10
   4   5  -3   86.66    4.32
  -4   5   2   50.11    3.83
  -4  -5   2   38.07    2.77
   4   5  -2   43.09    3.24
  -4   5   2   47.34    4.53
  -4   5   1  220.21    9.92
  -4   5   1  177.32    6.75
  -4  -5   1  175.50    5.78
   4   5  -1  243.52    9.06
  -4  -5   0   10.91    2.08
   4   5   0   10.77    2.33
  -4   5   0    4.37    1.72
   4  -5   1   14.74    3.43
   4   5   1    8.81    2.40
  -4   5  -1   17.12    2.51
  -4  -5  -1   12.39    2.57
   4  -5   2   44.21    5.39
  -4   5  -2   42.29    3.58
   4   5   2   35.87    4.16
  -4  -5  -2   46.21    4.30
  -4   5  -3 1036.26   16.80
  -4  -5  -3 1060.32   20.79
   4  -5   4   51.16    5.82
   4   5   4   59.09    5.83
  -4   5  -4   66.04    5.01
  -4  -5  -4   60.04    5.73
   4  -5   5  247.61   13.20
   4   5   5  255.88   12.03
  -4   5  -5  264.42    9.98
  -4  -5  -6   10.55    3.78
   4  -5   6   16.86    4.43
   4   5   6   29.09    5.36
  -4   5  -6   24.09    3.96
   4  -5   7  811.77   22.36
   4   5   7  748.41   23.11
  -4   5  -7  806.54   20.80
   4  -5   8   30.04    5.53
   4   5   8   25.87    5.61
  -4   5  -8   26.94    5.12
  -4  -5  -8   27.95    4.41
   4   5   9  592.18   21.83
  -4   5  -9  621.06   19.39
  -4  -5  -9  595.41   17.05
  -4   5 -10    4.43    4.42
  -4  -5 -10    2.43    3.49
   4   5  10   -0.65    6.47
   4  -5  10    4.90    4.92
  -4   6   9  282.07   13.98
  -4   6   8  205.95   11.27
  -4   6   7  595.05   17.66
  -4   6   6   46.08    5.18
  -4   6   5  915.74   18.95
  -4   6   5  943.37   19.15
  -4   6   4  138.61    7.16
  -4   6   4  139.49    7.88
  -4   6   3 1423.35   20.84
  -4   6   3 1491.48   25.86
  -4   6   2  271.78    8.77
  -4   6   2  293.59   11.76
   4   6  -2  287.90    8.38
  -4   6   1 1211.71   17.75
   4   6  -1 1249.12   18.25
  -4   6   1 1264.28   24.01
  -4   6   0  440.61   10.28
   4   6   0  469.74   12.05
  -4   6  -1 1611.17   28.37
  -4   6  -1 1547.64   19.50
   4  -6   2    8.66    3.44
   4   6   2    7.28    2.96
   4  -6   3  965.14   24.04
  -4   6  -3  972.69   16.57
   4   6   3  946.51   20.71
   4  -6   4   31.94    5.29
  -4   6  -4   28.73    3.57
   4   6   4   28.15    4.60
  -4  -6  -4   26.81    3.95
   4  -6   5  669.76   20.07
  -4   6  -5  663.64   15.69
   4   6   5  654.48   19.47
   4   6   6  179.03   11.28
  -4   6  -6  165.28    8.46
   4  -6   7  809.92   22.76
   4   6   7  805.06   25.76
  -4   6  -7  791.81   20.28
   4  -6   8   49.03    6.87
   4   6   8   50.39    8.66
  -4   6  -8   29.20    5.12
  -4  -6  -8   43.61    5.38
  -4  -6  -9   78.35    7.05
   4   6   9   68.50    9.05
  -4   6  -9   59.18    6.70
   4  -6  10  197.85   13.08
  -4   7   8  186.81   11.36
  -4   7   7  342.05   14.14
  -4   7   6  723.57   18.13
  -4   7   5   84.91    6.36
  -4   7   5   50.26    5.48
  -4   7   4  453.67   13.11
  -4   7   4  410.26   14.47
  -4   7   3  136.97    6.77
  -4   7   3  141.47    8.95
  -4   7   2 1320.07   19.30
  -4   7   2 1289.69   25.67
  -4   7   1   16.13    2.66
   4   7  -1   12.82    2.78
  -4   7   0  697.71   13.38
   4   7   0  706.48   15.54
  -4   7   0  693.21   19.26
  -4   7  -1  174.53    6.79
   4   7   1  196.70    8.74
  -4   7  -1  204.68   10.90
  -4   7  -2  624.01   18.86
  -4   7  -2  633.15   13.01
   4   7   2  588.53   15.44
  -4   7  -3   37.76    3.73
   4   7   3   36.70    4.62
  -4   7  -4 1421.35   21.31
   4   7   4 1326.21   26.36
   4  -7   5  533.44   18.51
  -4   7  -5  492.14   13.45
   4   7   5  502.88   17.33
  -4   7  -6   56.88    5.34
   4   7   6   62.93    7.24
   4  -7   7  324.75   15.01
  -4   7  -7  290.38   12.07
   4   7   7  288.20   14.58
   4   7   8  555.99   20.81
  -4   7  -8  575.19   17.48
  -4  -7  -8  541.01   17.22
   4  -7   9  378.11   16.92
  -4   7  -9  311.17   13.33
  -4   8   8   29.16    6.04
  -4   8   7  113.42    8.44
  -4   8   6   39.55    5.45
  -4   8   5  189.40    9.53
  -4   8   5  149.66    9.33
  -4   8   4   37.59    4.55
  -4   8   4   12.80    4.13
  -4   8   3  158.89    7.43
  -4   8   3  115.69    8.56
   4   8  -2   32.18    3.54
  -4   8   2   32.29    3.60
  -4   8   2   21.96    4.72
  -4   8   1  638.98   13.29
  -4   8   1  613.30   18.89
  -4   8   0   29.78    3.06
  -4   8   0   30.95    5.26
   4   8   0   30.69    3.97
  -4   8  -1   31.12    3.40
  -4   8  -1   18.55    4.29
   4   8   1   22.97    3.88
  -4   8  -2  198.76   11.50
  -4   8  -2  192.26    7.50
   4   8   2  182.71    9.14
  -4   8  -3  786.95   15.58
   4   8   3  771.91   19.94
  -4   8  -4  399.81   11.42
   4   8   4  387.49   14.75
   4  -8   5   50.63    6.77
  -4   8  -5   50.95    4.81
   4   8   5   40.84    5.79
  -4   8  -6  339.10   11.68
   4   8   6  378.50   16.15
   4  -8   7   17.67    5.25
   4   8   7   11.46    5.43
  -4   8  -7    8.84    3.72
   4  -8   8  515.90   19.30
  -4   8  -8  416.39   14.78
  -4   9   7   54.13    6.59
  -4   9   6  569.88   17.40
  -4   9   5    9.35    4.19
  -4   9   5    9.32    3.59
  -4   9   4 1234.70   21.75
  -4   9   4 1050.57   25.35
  -4   9   3   -0.29    3.45
  -4   9   3    5.07    2.49
   4   9  -2 1031.90   18.97
  -4   9   2 1011.94   18.08
  -4   9   1    3.39    3.60
   4   9  -1    4.51    2.33
  -4   9   1   -0.43    1.99
  -4   9   0 1429.94   19.59
  -4   9   0 1399.05   29.75
  -4   9  -1   51.01    4.26
  -4   9  -1   58.70    6.81
   4   9   1   54.42    5.43
  -4   9  -2 1429.13   20.62
   4   9   2 1508.28   27.68
  -4   9  -3    4.95    3.75
   4   9   3   10.33    4.04
  -4   9  -3    6.12    2.40
  -4   9  -4  377.54   11.07
   4   9   4  373.68   15.37
   4  -9   5   11.86    4.71
  -4   9  -5   18.61    3.70
   4  -9   6 1628.23   33.23
   4   9   6 1473.58   33.30
   4  -9   7    6.55    4.55
  -4  10   6   30.91    5.34
  -4  10   5   33.73    6.25
  -4  10   5   53.05    5.81
  -4  10   4  107.36    9.31
  -4  10   4  141.22    8.01
  -4  10   3   43.85    6.69
  -4  10   3   59.80    5.27
  -4  10   2  188.56    8.08
  -4  10   2  214.33   12.41
   4  10  -1   96.61    7.04
  -4  10   1   73.72    4.88
  -4  10   1   88.72    8.63
  -4  10   0    6.18    4.13
  -4  10   0    0.17    2.12
  -4  10  -1    3.98    3.89
   4  10   1    6.78    3.34
  -4  10  -1    4.69    2.47
  -4  10  -2  191.02   11.89
   4  10   2  171.77   10.05
  -4  10  -3  129.34   10.34
   4  10   3  126.95    9.01
   4 -10   4  546.66   20.55
   4  10   4  440.03   17.04
   4 -10   5    6.25    4.74
   4  10   5    3.24    4.25
  -4  11   4  328.95   15.94
  -4  11   3   36.82    6.65
  -4  11   2  557.73   20.38
  -4  11   1   10.06    4.92
   4  11  -1   11.63    3.72
   4  11   0  521.14   16.33
  -4  11   0  526.16   19.41
   4  11   1  201.91   11.04
  -4  11  -1  219.63   13.19
   4  11   2  744.33   20.84
  -4  11  -2  752.63   23.25
   4  11   3   23.13    5.34
  -4  11  -3   24.35    5.71
   4  12   0  157.37    9.77
  -5   0  10  572.51   20.44
  -5   0   9   -1.50    4.11
  -5   0   8  456.02   16.13
  -5   0   7   -0.27    3.17
  -5   0   6 1098.13   21.31
  -5   0   5    0.58    2.28
  -5   0   4 1015.48   18.45
   5   0  -3    2.19    1.65
  -5   0   3    2.39    1.91
   5   0  -2 1487.91   21.01
  -5   0   2 1469.68   20.24
   5   0  -1    1.49    1.85
  -5   0   1    0.07    1.58
   5   0   0 1490.15   24.40
  -5   0   0 1516.84   20.48
   5   0   1    0.50    2.23
  -5   0  -1    0.51    1.76
   5   0   2  681.77   18.52
  -5   0  -2  683.05   14.89
   5   0   3    5.55    3.44
  -5   0  -3    0.21    2.07
   5   0   4 1405.80   28.96
  -5   0  -4 1406.18   24.65
   5   0   5    8.80    4.62
  -5   0  -5    0.00    2.81
   5   0   6   40.59    7.08
  -5   0  -6   26.69    5.34
   5   0   7   -1.07    4.42
  -5   0  -7   -2.13    3.83
   5   0   8  165.57   12.64
  -5   0  -8  169.89   12.57
   5   0   9    3.16    5.33
  -5   0  -9    6.18    5.34
  -5  -1  10   27.53    6.65
  -5   1   9   63.94    7.61
  -5  -1   9   63.38    7.41
  -5   1   8   36.97    5.92
  -5  -1   8   40.64    5.93
  -5   1   7  107.60    7.81
  -5  -1   7  106.36    7.70
  -5   1   6  122.23    7.90
  -5  -1   6  129.67    8.26
  -5   1   5   36.16    4.56
  -5  -1   5   52.68    5.00
  -5   1   4  386.70   11.80
  -5  -1   4  370.67   10.87
   5  -1  -3  209.28    7.76
  -5   1   3  201.00    8.02
  -5  -1   3  194.70    7.73
   5  -1  -2  169.36    7.49
   5   1  -2  171.27    7.18
   5  -1  -1   18.16    3.16
   5   1  -1   21.15    3.27
  -5   1   1   32.17    3.56
  -5  -1   1   32.37    3.44
   5  -1   0 1004.05   20.15
   5   1   0 1006.90   19.86
  -5  -1   0 1051.61   17.28
   5  -1   1  438.47   14.41
   5   1   1  460.54   14.45
  -5   1  -1  416.63   11.13
  -5  -1  -1  463.11   11.94
   5  -1   2  878.68   21.55
   5   1   2  914.92   21.54
  -5  -1  -2  868.34   17.18
   5  -1   3   11.08    3.93
  -5  -1  -3   12.21    2.93
   5   1   3    7.46    3.40
  -5   1  -3    9.30    2.68
   5  -1   4  839.42   23.62
   5   1   4  804.12   22.50
  -5  -1  -4  784.51   18.89
   5  -1   5   36.85    6.01
   5   1   5   36.52    6.01
  -5   1  -5   36.82    4.89
  -5  -1  -5   32.84    4.88
   5  -1   6 1261.50   31.66
   5   1   6 1290.95   30.66
  -5  -1  -6 1309.77   30.29
   5  -1   7  102.51   10.85
   5   1   7   86.43    9.08
  -5   1  -7   86.48    8.35
  -5  -1  -7   99.13    9.48
  -5  -1  -7  107.15    6.08
   5  -1   8  564.17   23.10
   5   1   8  595.24   23.09
  -5   1  -8  625.02   22.02
  -5  -1  -8  661.41   23.35
   5  -1   9   96.78   10.81
   5   1   9  110.39   10.75
  -5   1  -9  132.33   11.17
  -5  -1  -9  123.09   11.18
  -5   2   9   73.27    8.27
  -5  -2   9   76.95    7.54
  -5   2   8  478.91   17.04
  -5  -2   8  483.51   15.95
  -5   2   7  191.13   10.29
  -5  -2   7  201.40   10.04
  -5   2   6  518.16   15.45
  -5  -2   6  518.60   14.82
  -5   2   5  114.16    7.30
  -5  -2   5  103.50    6.46
  -5   2   4  887.85   17.95
  -5  -2   4  916.25   16.92
  -5   2   3  340.47   10.65
  -5  -2   3  368.41   10.62
   5  -2  -2  677.66   15.23
  -5   2   2  700.13   14.60
   5   2  -2  663.88   13.01
  -5  -2   2  718.47   13.95
   5  -2  -1  369.78   12.03
   5   2  -1  356.69   10.48
  -5  -2   1  357.16    9.84
   5  -2   0  671.53   17.33
   5   2   0  687.15   15.56
  -5  -2   0  728.46   14.48
   5  -2   1   70.59    6.37
   5   2   1   76.08    5.87
  -5   2  -1   69.12    4.85
  -5  -2  -1   74.86    5.08
   5  -2   2  591.00   17.87
   5   2   2  597.85   16.73
  -5   2  -2  557.01   13.43
  -5  -2  -2  586.12   14.22
   5  -2   3  915.10   23.81
   5   2   3  988.01   22.52
  -5   2  -3  933.21   18.45
  -5  -2  -3  966.51   19.86
   5  -2   4  118.36    9.21
   5   2   4  133.26    9.11
  -5   2  -4  123.04    7.08
  -5  -2  -4  134.40    8.53
   5   2   5  148.22   10.29
  -5   2  -5  129.66    8.03
  -5  -2  -5  138.51    9.50
   5  -2   6  342.67   16.91
   5   2   6  348.29   16.17
  -5   2  -6  307.13   12.88
  -5  -2  -6  362.29   16.52
   5   2   7  546.97   20.84
  -5   2  -7  565.91   19.84
  -5  -2  -7  580.26   21.86
  -5  -2  -7  597.15   13.87
   5  -2   8   13.73    5.72
   5   2   8   17.69    5.73
  -5  -2  -8   22.85    3.83
  -5   2  -8    5.80    4.53
  -5  -2  -8    7.47    5.41
   5  -2   9  228.31   15.37
   5   2   9  234.02   15.05
  -5   2  -9  230.69   13.78
  -5   3   9  330.69   15.65
  -5   3   8   67.54    7.52
  -5   3   7  504.95   16.50
  -5   3   6   43.30    5.30
  -5  -3   6   40.36    4.75
  -5   3   5  722.73   17.76
  -5  -3   5  632.20   14.56
  -5   3   4   92.66    6.26
  -5  -3   4   89.18    5.63
   5  -3  -3  896.51   17.75
  -5   3   3  936.72   17.68
  -5  -3   3  931.75   15.90
   5  -3  -2  599.79   15.54
  -5   3   2  633.10   14.02
  -5  -3   2  618.62   12.93
   5   3  -2  623.25   12.43
  -5   3   1  625.33   13.48
   5   3  -1  600.42   13.08
  -5  -3   1  635.51   13.22
   5  -3   0   14.41    3.49
   5   3   0   15.71    2.75
  -5  -3   0   11.64    2.57
  -5   3   0    9.46    2.23
   5  -3   1  801.07   20.61
   5   3   1  754.65   16.98
  -5   3  -1  800.72   15.27
  -5  -3  -1  793.73   15.56
   5  -3   2  404.47   15.38
   5   3   2  414.41   13.48
  -5   3  -2  401.92   11.34
  -5  -3  -2  412.27   12.37
   5  -3   3  279.34   13.41
   5   3   3  275.43   11.76
  -5   3  -3  274.23    9.93
  -5  -3  -3  303.63   11.59
   5  -3   4  467.22   18.37
   5   3   4  476.39   16.29
  -5   3  -4  449.89   13.37
  -5  -3  -4  485.36   15.83
   5  -3   5  242.16   13.89
   5   3   5  269.49   13.04
  -5   3  -5  247.62   10.91
  -5  -3  -5  263.05   13.16
   5  -3   6  183.18   12.53
  -5   3  -6  161.81    9.49
  -5  -3  -6  193.38   12.25
   5  -3   7   91.31    9.79
   5   3   7   91.55    9.07
  -5   3  -7   82.37    8.36
  -5  -3  -7   92.74    9.52
   5  -3   8  396.45   19.08
   5   3   8  496.29   20.53
  -5   3  -8  419.57   17.55
  -5  -3  -8  475.59   20.72
  -5  -3  -8  469.37   14.01
  -5  -3  -9   11.79    6.46
  -5  -3  -9   18.59    4.27
   5  -3   9   14.88    6.46
   5   3   9   13.75    6.11
  -5   3  -9   11.08    5.10
  -5   4   8   81.40    7.91
  -5   4   7   57.69    6.87
  -5   4   6    7.99    3.54
  -5   4   5  384.58   13.27
  -5   4   4  116.10    6.93
   5  -4  -3  125.07    7.41
  -5   4   3  128.57    6.85
  -5  -4   3  130.06    5.88
   5  -4  -2    8.66    3.07
   5   4  -2   14.86    2.58
  -5   4   2   10.03    2.66
  -5  -4   2    9.47    2.33
  -5  -4   1  212.49    7.81
   5   4  -1  209.97    8.03
   5  -4   0   34.67    5.10
  -5   4   0   32.77    3.48
   5   4   0   41.54    4.05
  -5  -4   0   40.88    3.97
  -5   4  -1 1208.05   18.80
   5   4   1 1257.89   21.92
  -5  -4  -1 1197.83   19.30
   5  -4   2   72.43    7.39
   5   4   2   79.15    6.17
  -5   4  -2   58.21    4.66
  -5  -4  -2   68.51    5.57
   5  -4   3  443.09   17.55
   5   4   3  467.36   15.09
  -5   4  -3  483.55   12.93
   5  -4   4   44.12    6.43
   5   4   4   40.46    5.41
  -5   4  -4   41.34    4.53
  -5  -4  -4   30.10    5.17
   5  -4   5 1269.29   30.95
  -5   4  -5 1210.11   23.01
  -5  -4  -5 1229.43   28.01
   5  -4   6  102.32    9.90
   5   4   6  108.61    9.36
  -5   4  -6   96.00    7.45
  -5  -4  -6   96.25    8.93
   5  -4   7  850.91   26.90
   5   4   7  917.41   26.37
  -5   4  -7  894.67   22.90
  -5  -4  -7  921.45   25.99
   5  -4   8   26.23    6.93
   5   4   8   29.92    6.78
  -5   4  -8   33.43    6.12
  -5  -4  -8   29.31    6.68
  -5  -4  -8   30.75    4.73
  -5  -4  -9  545.18   21.56
  -5  -4  -9  546.13   16.58
  -5   5   8   19.70    5.18
  -5   5   7  609.76   18.79
  -5   5   6   25.98    4.67
  -5   5   5 1125.91   22.39
  -5   5   4   12.89    3.22
   5  -5  -3  804.28   20.37
  -5   5   3  887.10   17.56
   5  -5  -2   29.41    4.91
  -5   5   2   37.85    3.97
   5   5  -2   38.59    3.69
  -5   5   1 1516.67   21.41
   5   5  -1 1570.66   21.92
   5   5   0    1.50    2.01
   5  -5   0    2.85    3.14
  -5   5  -1  456.48   11.86
   5   5   1  420.89   13.15
   5   5   2    4.90    2.74
   5  -5   2    0.76    3.32
  -5   5  -2    3.37    2.18
  -5  -5  -2    5.22    2.60
  -5   5  -3  840.19   16.99
   5   5   3  854.81   20.54
  -5  -5  -3  829.05   19.54
   5  -5   4   69.30    7.98
   5   5   4   68.01    6.72
  -5   5  -4   71.07    5.75
  -5  -5  -4   53.94    6.34
   5  -5   5  312.88   15.87
   5   5   5  322.88   14.52
  -5   5  -5  342.64   12.35
  -5  -5  -5  297.51   13.41
  -5  -5  -6    1.47    3.71
   5   5   6    3.78    4.20
   5  -5   6    4.58    4.33
  -5   5  -6    0.24    3.12
  -5  -5  -7    3.18    4.43
   5   5   7   22.57    6.26
  -5   5  -7   13.39    4.47
  -5  -5  -8   21.18    5.88
   5   5   8   27.27    6.60
   5  -5   8   24.59    6.67
  -5  -5  -8   22.95    4.53
  -5   5  -8   11.89    4.98
  -5   6   7   24.09    5.54
  -5   6   6   93.02    7.93
  -5   6   5  167.07    9.20
   5  -6  -4  296.77   13.35
  -5   6   4  322.16   11.44
   5  -6  -3  115.24    9.03
  -5   6   3  136.16    7.28
   5  -6  -2   98.38    8.85
  -5   6   2  119.20    6.70
  -5   6   1  435.42   11.79
   5   6  -1  424.70   11.55
   5  -6   0  166.68   11.41
  -5   6   0  185.57    7.76
   5  -6   1  557.89   20.62
  -5   6  -1  616.60   13.87
  -5   6  -2  250.19    9.17
   5   6   2  242.68   10.72
   5  -6   3  484.80   19.66
  -5   6  -3  521.17   13.65
   5   6   3  499.93   16.02
   5  -6   4   30.31    6.53
  -5   6  -4   24.29    4.05
   5   6   4   21.63    4.62
  -5   6  -5  853.06   19.35
   5   6   5  824.52   22.91
   5  -6   6  425.32   18.92
   5   6   6  380.03   16.71
  -5   6  -6  389.85   14.14
   5  -6   7  697.18   24.44
  -5   6  -7  571.93   18.02
  -5   6  -8    2.75    4.40
  -5   7   6   27.44    5.25
  -5   7   5  263.66   11.51
  -5   7   4   22.57    4.12
  -5   7   3  497.79   13.71
   5  -7  -2  490.60   20.18
  -5   7   2  544.05   13.66
  -5   7   1  293.05    9.82
   5   7  -1  298.93   10.09
   5  -7   0   38.20    6.97
  -5   7   0   39.30    3.96
   5   7   0   38.96    4.24
  -5   7  -1  758.55   15.68
   5   7   1  724.16   17.20
  -5   7  -2  593.40   14.27
   5   7   2  590.29   16.79
   5  -7   3  134.49   11.01
  -5   7  -3  144.45    7.65
   5   7   3  133.98    9.07
  -5   7  -4  361.49   12.19
   5   7   4  385.52   15.89
  -5   7  -5  155.61    8.80
   5   7   5  167.36   11.40
   5  -7   6  382.34   18.57
  -5   7  -6  331.16   12.94
   5   7   6  361.19   17.33
   5  -7   7  141.16   11.76
  -5   7  -7  123.83    9.34
  -5   8   6  266.68   12.69
  -5   8   5  105.47    7.74
  -5   8   4  544.71   19.08
  -5   8   4  551.21   15.62
  -5   8   3  156.32   10.83
  -5   8   3  169.67    8.63
  -5   8   2  493.01   18.12
  -5   8   2  507.52   13.71
  -5   8   1   99.39    5.97
   5   8  -1  126.88    7.42
  -5   8   0  555.77   13.79
   5   8   0  602.72   16.02
   5  -8   1    3.90    5.15
   5   8   1    8.26    3.40
  -5   8  -1    6.85    2.85
  -5   8  -2  422.88   12.40
   5   8   2  407.76   14.37
  -5   8  -3  428.75   12.32
   5   8   3  414.38   14.69
  -5   8  -4  255.59   10.13
   5   8   4  260.31   12.91
  -5   8  -5   32.61    4.86
   5   8   5   33.95    6.03
  -5   8  -6   65.54    6.34
  -5   9   4  255.44   10.99
  -5   9   4  234.26   13.03
  -5   9   3   33.80    4.65
  -5   9   3   34.88    6.24
  -5   9   2   41.51    4.84
  -5   9   2   17.25    5.69
  -5   9   1   18.35    3.51
  -5   9   1   11.47    5.13
  -5   9   0  640.19   14.99
   5   9   0  664.64   17.18
   5  -9   1   47.53    8.82
  -5   9  -1   33.76    4.14
   5   9   1   32.35    5.08
  -5   9  -2  493.25   13.34
   5   9   2  527.80   17.13
   5  -9   3   35.33    7.62
   5   9   3   19.60    4.73
  -5   9  -3   27.48    4.18
  -5   9  -4  351.89   12.16
   5   9   4  372.49   15.82
  -5   9  -5    1.49    3.38
  -5  10   3   25.60    6.45
  -5  10   3   18.57    3.95
  -5  10   2  612.21   15.69
  -5  10   2  552.08   21.09
  -5  10   1  103.99   10.19
  -5  10   1   84.71    6.12
   5  10   0  378.38   13.62
  -5  10   0  349.81   17.19
  -5  10   0  385.66   12.03
   5  10   1    7.29    3.67
  -5  10  -1    4.59    3.09
  -5  10  -2  184.48    8.75
   5  10   2  200.35   11.09
  -6   0   7    2.91    3.91
  -6   0   6  324.79   13.09
  -6   0   5    3.58    3.14
  -6   0   4  180.27    8.99
  -6   0   3   12.11    3.17
  -6   0   2 1352.06   21.23
   6   0  -1    1.04    2.84
  -6   0   1    6.55    2.50
   6   0   0  518.19   16.83
  -6   0   0  519.70   13.65
   6   0   1    1.31    3.58
  -6   0  -1    5.31    2.73
   6   0   2 1301.23   30.82
  -6   0  -2 1207.28   22.73
   6   0   3   -3.17    4.11
  -6   0  -3    2.04    2.60
   6   0   4 1571.19   35.83
  -6   0  -4 1524.09   27.99
   6   0   5    2.96    4.99
  -6   0  -5    2.91    3.96
   6   0   6  812.67   28.34
  -6   0  -6  762.56   23.08
   6   0   7   -4.07    5.20
  -6   0  -7   -0.63    5.07
  -6  -1   8  266.30   13.30
  -6   1   7   52.73    6.60
  -6  -1   7   48.84    6.16
  -6   1   6  284.15   12.35
  -6  -1   6  291.38   12.26
  -6   1   5  322.82   12.40
  -6  -1   5  304.83   11.82
  -6   1   4  491.84   14.48
  -6  -1   4  477.98   13.72
  -6   1   3   13.11    3.25
  -6  -1   3    9.56    2.86
   6  -1  -2  144.16    8.05
  -6   1   2  147.26    7.63
  -6  -1   2  155.14    7.65
   6  -1  -1   23.24    4.21
   6   1  -1   29.69    4.05
  -6   1   1   35.80    4.20
  -6  -1   1   39.08    4.24
   6  -1   0  285.78   12.84
   6   1   0  263.53   11.47
  -6   1   0  262.60    9.99
  -6  -1   0  285.59   10.20
   6  -1   1  403.48   16.12
   6   1   1  380.55   14.62
  -6  -1  -1  369.13   11.82
   6  -1   2   85.19    8.33
  -6   1  -2  100.50    6.73
  -6  -1  -2   92.90    6.39
   6   1   3   23.48    5.42
   6  -1   3   15.35    4.80
  -6   1  -3   19.45    3.88
  -6  -1  -3   16.98    3.87
   6  -1   4   25.51    6.29
   6   1   4   17.83    5.54
  -6   1  -4   14.08    3.83
  -6  -1  -4   18.09    4.29
   6  -1   5  261.97   16.32
   6   1   5  261.03   15.10
  -6   1  -5  251.81   12.29
  -6  -1  -5  221.76   11.86
   6  -1   6   27.72    7.44
  -6   1  -6   21.14    4.82
  -6  -1  -6   27.19    6.47
   6  -1   7   68.89   10.07
   6   1   7   60.62    9.42
  -6   1  -7   62.53    8.19
  -6  -1  -7   72.78    9.27
  -6   2   7  207.13   11.72
  -6   2   6  109.01    8.30
  -6  -2   6  111.92    7.83
  -6   2   5  178.54    9.58
  -6  -2   5  173.04    8.93
  -6   2   4  503.51   14.66
  -6  -2   4  499.41   13.95
  -6   2   3  154.71    7.95
  -6  -2   3  155.69    7.46
   6  -2  -2  216.44   10.24
  -6   2   2  231.83    9.40
  -6  -2   2  231.50    9.24
   6  -2  -1  379.22   14.06
   6   2  -1  376.28   11.85
  -6   2   1  368.33   11.51
   6  -2   0  883.59   22.68
   6   2   0  855.75   19.13
  -6   2   0  841.07   17.24
   6  -2   1   33.33    5.68
   6   2   1   32.73    4.78
  -6   2  -1   40.81    4.48
  -6  -2  -1   39.32    4.75
   6  -2   2  587.31   20.96
   6   2   2  581.79   18.19
  -6   2  -2  532.43   14.41
  -6  -2  -2  593.65   16.26
   6  -2   3  268.20   15.10
   6   2   3  285.45   13.59
  -6   2  -3  241.96   10.14
  -6  -2  -3  282.10   11.96
   6  -2   4  640.59   24.01
   6   2   4  604.27   20.61
  -6  -2  -4  631.43   19.09
   6  -2   5    6.18    5.24
   6   2   5    6.21    5.09
  -6   2  -5    3.65    3.45
  -6  -2  -5    3.97    4.29
   6  -2   6  505.53   23.02
   6   2   6  567.02   22.33
  -6   2  -6  474.81   16.94
  -6  -2  -6  576.10   21.85
   6   2   7   44.74    8.08
   6  -2   7   32.17    8.73
  -6   2  -7   41.86    7.26
  -6  -2  -7   37.74    7.35
  -6   3   7   69.08    7.77
  -6   3   6  212.77   11.20
  -6   3   5  381.75   14.01
  -6   3   4   26.64    4.54
  -6   3   3  382.70   12.38
  -6  -3   3  342.15   10.90
   6  -3  -2  348.87   13.54
  -6   3   2  352.47   11.68
  -6  -3   2  356.63   11.19
   6  -3  -1  553.57   17.99
  -6   3   1  578.74   14.45
  -6  -3   1  565.16   14.08
   6  -3   0   34.28    5.64
   6   3   0   24.79    3.77
  -6   3   0   24.55    3.50
  -6  -3   0   24.95    3.91
   6  -3   1  908.35   25.44
   6   3   1  791.06   18.68
  -6   3  -1  825.70   17.40
  -6  -3  -1  865.87   18.57
   6  -3   2   19.98    5.86
   6   3   2   19.87    3.90
  -6   3  -2   26.93    4.06
  -6  -3  -2   18.46    4.04
   6  -3   3  585.38   22.27
   6   3   3  584.43   18.22
  -6  -3  -3  638.24   18.23
   6  -3   4  223.60   14.66
   6   3   4  215.16   12.00
  -6   3  -4  204.97   10.13
  -6  -3  -4  244.98   12.42
   6  -3   5  791.77   28.39
   6   3   5  777.50   23.64
  -6   3  -5  706.73   19.44
  -6  -3  -5  789.37   23.77
   6  -3   6  219.71   16.01
   6   3   6  235.05   14.32
  -6   3  -6  195.52   11.25
  -6  -3  -6  244.31   14.94
  -6  -3  -7  449.55   20.22
  -6   4   6   15.39    4.64
  -6   4   5  414.06   14.73
  -6   4   4  182.91    9.30
  -6   4   3  293.52   11.05
   6  -4  -2   20.88    4.73
  -6   4   2   27.87    4.02
   6  -4  -1  153.02   10.43
  -6   4   1  163.39    8.05
   6  -4   0  168.95   11.41
   6   4   0  169.82    8.40
   6  -4   1  447.11   18.49
  -6   4  -1  438.52   12.92
   6   4   1  436.56   14.09
  -6  -4  -1  391.72   12.46
   6  -4   2   36.14    6.53
   6   4   2   32.11    4.89
  -6   4  -2   30.02    4.22
  -6  -4  -2   31.22    4.63
   6  -4   3   10.60    5.37
   6   4   3   15.63    4.30
  -6   4  -3    8.71    3.18
  -6  -4  -3    8.26    3.64
   6  -4   4   25.25    6.82
   6   4   4   27.65    5.56
  -6   4  -4   22.01    3.99
  -6  -4  -4   24.60    5.79
   6  -4   5   23.49    6.88
   6   4   5   26.95    5.94
  -6   4  -5   23.50    4.88
  -6  -4  -5    8.58    5.17
   6  -4   6   81.50   10.95
   6   4   6   74.87    8.76
  -6   4  -6   68.68    7.36
  -6  -4  -6   71.98    8.76
  -6  -4  -7    3.02    5.45
  -6   5   5   79.57    7.21
  -6   5   4    8.27    3.48
  -6   5   3  681.42   16.86
   6  -5  -2   12.10    4.75
  -6   5   2   16.05    3.53
   6  -5  -1  923.29   26.22
  -6   5   1 1019.11   19.64
   6   5   0    1.91    2.76
   6  -5   0    5.48    4.67
  -6   5   0    0.08    2.45
   6  -5   1  446.35   19.89
  -6   5  -1  461.15   13.42
   6   5   1  468.38   15.30
   6   5   2    1.48    3.19
   6  -5   2    5.92    5.00
  -6   5  -2    0.00    2.77
   6  -5   3 1331.44   35.09
  -6   5  -3 1345.14   23.89
   6   5   3 1375.75   28.11
   6   5   4   12.56    4.51
   6  -5   4   13.12    5.93
  -6   5  -4   10.71    3.57
   6  -5   5  673.47   26.58
   6   5   5  645.94   21.92
  -6   5  -5  641.68   18.68
  -6   6   4  374.57   13.75
  -6   6   3  213.64    9.85
   6  -6  -2    6.76    5.20
  -6   6   2   26.01    4.05
   6  -6  -1  121.42   11.46
  -6   6   1  136.05    7.65
  -6   6   0  457.31   13.33
   6   6   0  473.93   15.46
   6  -6   1   88.67   10.58
  -6   6  -1  108.81    7.03
   6  -6   2  134.05   12.42
  -6   6  -2  116.15    7.40
   6   6   2  109.02    8.08
   6   6   3   13.08    4.31
   6  -6   3   22.51    6.94
  -6   6  -3   14.13    3.49
   6  -6   4   86.88   10.60
  -6   6  -4   90.25    7.07
   6   6   4   83.99    8.12
  -6   6  -5    3.29    3.56
  -6   7   3  112.75    7.68
   6  -7  -2  191.08   13.54
  -6   7   2  262.84   10.84
   6  -7  -1  154.09   12.80
  -6   7   1  170.25    8.56
   6  -7   0   36.73    8.16
  -6   7   0   50.65    5.29
   6  -7   1  489.20   23.71
   6   7   1  527.76   15.68
   6  -7   2   22.78    7.81
   6   7   2   16.83    4.50
  -6   7  -2   28.76    4.38
   6  -7   3  248.17   17.09
  -6   7  -3  235.15   10.30
   6   7   3  252.96   13.00
  -6   7  -4  125.43    8.29
   6  -8  -2  251.85   17.12
   6  -8  -1  112.57   12.56
  -6   8   1  151.16    8.37
  -6   8   0  500.55   14.63
   6  -8   1   51.78    9.67
  -6   8  -1   45.96    5.34
   6   8   1   56.86    6.18
  -6   8  -2  478.79   14.58
   6   8   2  466.25   15.85
  -7   0   4    3.58    3.72
  -7   0   3    0.45    3.18
  -7   0   2  118.12    7.77
  -7   0   1    2.44    3.35
   7   0   0    6.45    4.29
  -7   0   0    2.70    3.15
   7   0   1   -2.02    4.36
  -7   0  -1    4.32    3.31
   7   0   2   98.94    9.97
  -7   0  -2   92.35    7.37
   7   0   3    8.77    5.89
  -7   0  -3    8.64    4.07
  -7   0  -4   23.97    5.42
   7   0   4   32.04    7.83
  -7  -1   5    1.76    3.69
  -7   1   4  585.31   17.39
  -7  -1   4  549.00   15.74
  -7   1   3   24.77    4.62
  -7  -1   3   24.05    4.61
  -7   1   2  435.95   14.27
  -7  -1   2  464.06   14.80
  -7   1   1   66.96    6.15
  -7  -1   1   63.59    6.10
   7  -1   0  749.33   23.90
   7   1   0  723.39   20.11
  -7   1   0  726.39   18.11
  -7  -1   0  739.39   18.42
  -7   1  -1   83.05    6.82
  -7  -1  -1   78.88    6.65
   7   1   2  699.75   22.21
  -7   1  -2  638.82   17.48
  -7  -1  -2  699.19   19.13
   7  -1   3   52.77    8.75
   7   1   3   46.78    7.65
  -7   1  -3   42.11    5.57
  -7  -1  -3   46.78    6.25
   7  -1   4  505.28   23.60
   7   1   4  564.21   22.69
  -7  -1  -4  512.05   18.97
  -7   2   3  195.46    9.66
  -7   2   2    5.34    3.37
  -7  -2   2    7.22    3.53
  -7   2   1  503.17   15.06
  -7  -2   1  500.08   15.47
   7  -2   0    8.34    5.12
  -7   2   0    3.65    3.01
   7  -2   1  122.52   10.94
   7   2   1  118.67    8.83
  -7   2  -1  131.20    8.37
  -7  -2  -1  122.07    8.42
   7  -2   2    5.06    5.26
   7   2   2    7.34    4.33
  -7   2  -2   -0.15    3.09
  -7  -2  -2    2.30    3.68
   7  -2   3  454.03   22.06
  -7   2  -3  406.92   15.10
  -7  -2  -3  427.85   16.41
  -7  -2  -4  147.98   10.73
  -7   3   2  395.49   13.70
  -7   3   1    2.38    3.02
   7  -3   0  102.93   10.16
  -7   3   0  102.95    7.33
   7  -3   1    5.17    5.88
   7   3   1    2.41    3.52
  -7   3  -1    4.28    3.36
   7   3   2  158.66   10.47
  -7   3  -2  187.23   10.40
  -7  -3  -2  191.82   10.93
   7  -3   3   56.00   10.08
   7   3   3   60.48    7.50
  -7  -3  -3   47.49    6.98
  -7  -3  -4  262.47   14.41
   7  -4   0    1.16    4.97
  -7   4   0    3.23    3.10
   7  -4   1  831.24   28.38
   7   4   1  821.76   20.93
   7  -4   2   16.86    7.20
   7   4   2    9.71    4.20
   7  -5   0   11.75    6.58
   7  -5   1  130.93   13.10
   7   5   2    7.88    4.27
   0   0   0    0.00    0.00




TITL ljw in P2(1)/c
REM P2(1)/c (#14 in standard setting)
CELL 0.71073   4.932346   9.282619   8.799978  90.0000  90.0751  90.0000
ZERR    2.00   0.000105   0.000216   0.000192   0.0000   0.0019   0.0000
LATT  1
SYMM -x, y+1/2,-z+1/2
SFAC C H N O
UNIT 22.00 20.00 2.00 2.00
TREF
HKLF 4
END
_computing_structure_solution     'SHELXT 2018/2 (Sheldrick, 2018)'
_computing_structure_solution     'SHELXT 2018/2 (Sheldrick, 2018)'
_computing_structure_solution     'SHELXT 2018/2 (Sheldrick, 2018)'
;
_shelx_hkl_checksum              88623
_olex2_submission_special_instructions 'No special instructions were received'
_oxdiff_exptl_absorpt_empirical_details
;
Empirical correction (ABSPACK) includes:
- Absorption correction using spherical harmonics
- Frame scaling
- Detector area scaling
;
_oxdiff_exptl_absorpt_empirical_full_max 1.879
_oxdiff_exptl_absorpt_empirical_full_min 0.514
loop_
_space_group_symop_operation_xyz
'x, y, z'
'-x, y+1/2, -z+1/2'
'-x, -y, -z'
'x, -y-1/2, z-1/2'
loop_
_atom_site_label
_atom_site_type_symbol
_atom_site_fract_x
_atom_site_fract_y
_atom_site_fract_z
_atom_site_U_iso_or_equiv
_atom_site_adp_type
_atom_site_occupancy
_atom_site_site_symmetry_order
_atom_site_calc_flag
_atom_site_refinement_flags_posn
_atom_site_refinement_flags_adp
_atom_site_refinement_flags_occupancy
_atom_site_disorder_assembly
_atom_site_disorder_group
Pb01 Pb 0.32132(12) 0.69605(7) 1.01265(7) 0.0143(3) Uani 1 1 d . . . . .
Cu02 Cu 0.7420(4) 0.59263(19) 0.7042(2) 0.0088(4) Uani 1 1 d . . . . .
P003 P 0.7971(7) 0.5890(4) 0.3280(4) 0.0048(7) Uani 1 1 d . U . . .
F004 F 0.7273(18) 0.5675(10) 0.9235(10) 0.015(2) Uani 1 1 d . U . . .
O005 O 1.113(2) 0.6029(11) 0.3143(12) 0.009(2) Uani 1 1 d . U . . .
O006 O 0.662(2) 0.7004(11) 0.2239(12) 0.010(2) Uani 1 1 d . U . . .
O007 O 0.711(2) 0.6290(12) 0.4889(12) 0.012(2) Uani 1 1 d . U . . .
O008 O 0.721(2) 0.4349(12) 0.2859(12) 0.011(2) Uani 1 1 d . U . . .
loop_
_atom_site_aniso_label
_atom_site_aniso_U_11
_atom_site_aniso_U_22
_atom_site_aniso_U_33
_atom_site_aniso_U_23
_atom_site_aniso_U_13
_atom_site_aniso_U_12
Pb01 0.0147(4) 0.0100(4) 0.0182(4) 0.0019(2) -0.0026(2) -0.0002(2)
Cu02 0.0161(10) 0.0036(9) 0.0066(9) -0.0003(7) -0.0012(7) 0.0016(7)
P003 0.0050(11) 0.0038(11) 0.0055(11) -0.0003(8) 0.0007(8) -0.0004(8)
F004 0.016(2) 0.015(2) 0.015(2) 0.0000(10) -0.0001(10) 0.0003(10)
O005 0.009(2) 0.009(2) 0.009(2) -0.0001(10) -0.0004(10) -0.0001(10)
O006 0.010(2) 0.010(2) 0.010(2) 0.0001(10) 0.0000(10) -0.0001(10)
O007 0.013(2) 0.012(2) 0.012(2) 0.0001(10) 0.0001(10) 0.0002(10)
O008 0.012(2) 0.011(2) 0.011(2) -0.0002(10) 0.0000(10) 0.0002(10)
loop_
_atom_type_symbol
_atom_type_description
_atom_type_scat_dispersion_real
_atom_type_scat_dispersion_imag
_atom_type_scat_source
Cu Cu 0.3201 1.2651 'International Tables Vol C Tables 4.2.6.8 and 6.1.1.4'
F F 0.0171 0.0103 'International Tables Vol C Tables 4.2.6.8 and 6.1.1.4'
O O 0.0106 0.0060 'International Tables Vol C Tables 4.2.6.8 and 6.1.1.4'
P P 0.1023 0.0942 'International Tables Vol C Tables 4.2.6.8 and 6.1.1.4'
Pb Pb -3.3944 10.1111 'International Tables Vol C Tables 4.2.6.8 and 6.1.1.4'
loop_
_geom_angle_atom_site_label_1
_geom_angle_atom_site_label_2
_geom_angle_atom_site_label_3
_geom_angle
_geom_angle_site_symmetry_1
_geom_angle_site_symmetry_3
F004 Pb01 Cu02 86.6(2) . 4_576
F004 Pb01 Cu02 121.4(2) 3_667 4_576
F004 Pb01 F004 71.2(3) . 3_667
F004 Pb01 O005 115.5(3) . 4_476
F004 Pb01 O005 139.8(3) 3_667 4_476
F004 Pb01 O006 72.5(3) . 1_556
F004 Pb01 O007 135.7(3) 3_667 4_576
F004 Pb01 O007 70.5(3) . 4_576
O005 Pb01 Cu02 98.8(2) 4_476 4_576
O006 Pb01 Cu02 36.3(2) 1_556 4_576
O006 Pb01 F004 85.1(3) 1_556 3_667
O006 Pb01 O005 135.1(3) 1_556 4_476
O006 Pb01 O007 62.7(3) 1_556 4_576
O007 Pb01 Cu02 35.4(2) 4_576 4_576
O007 Pb01 O005 78.2(3) 4_576 4_476
P003 Cu02 Pb01 143.12(10) 3_766 4_575
F004 Cu02 Pb01 123.5(3) . 4_575
F004 Cu02 P003 93.4(3) . 3_766
F004 Cu02 O005 89.2(4) . 3_766
F004 Cu02 O006 91.3(4) . 4_576
F004 Cu02 O008 84.9(4) . 3_666
O005 Cu02 Pb01 137.3(3) 3_766 4_575
O005 Cu02 P003 31.8(3) 3_766 3_766
O005 Cu02 O006 170.2(4) 3_766 4_576
O005 Cu02 O008 105.2(4) 3_766 3_666
O006 Cu02 Pb01 48.8(3) 4_576 4_575
O006 Cu02 P003 138.4(3) 4_576 3_766
O006 Cu02 O008 84.6(4) 4_576 3_666
O007 Cu02 Pb01 49.3(3) . 4_575
O007 Cu02 P003 93.9(3) . 3_766
O007 Cu02 F004 172.6(4) . .
O007 Cu02 O005 96.3(4) . 3_766
O007 Cu02 O006 84.3(4) . 4_576
O007 Cu02 O008 88.8(4) . 3_666
O008 Cu02 Pb01 57.6(3) 3_666 4_575
O008 Cu02 P003 137.0(3) 3_666 3_766
O005 P003 Cu02 41.1(4) . 3_766
O006 P003 Cu02 133.4(4) . 3_766
O006 P003 O005 109.3(6) . .
O007 P003 Cu02 117.4(4) . 3_766
O007 P003 O005 109.2(6) . .
O007 P003 O006 105.6(6) . .
O008 P003 Cu02 67.5(4) . 3_766
O008 P003 O005 107.7(6) . .
O008 P003 O006 112.4(6) . .
O008 P003 O007 112.6(6) . .
Pb01 F004 Pb01 108.8(3) . 3_667
Cu02 F004 Pb01 106.8(4) . .
Cu02 F004 Pb01 109.9(4) . 3_667
Cu02 O005 Pb01 123.1(4) 3_766 4_675
P003 O005 Pb01 112.1(5) . 4_675
P003 O005 Cu02 107.0(6) . 3_766
Cu02 O006 Pb01 94.9(4) 4_575 1_554
P003 O006 Pb01 136.3(6) . 1_554
P003 O006 Cu02 128.6(6) . 4_575
Cu02 O007 Pb01 95.2(4) . 4_575
P003 O007 Pb01 116.5(6) . 4_575
P003 O007 Cu02 147.9(7) . .
P003 O008 Cu02 109.9(6) . 3_666
loop_
_geom_bond_atom_site_label_1
_geom_bond_atom_site_label_2
_geom_bond_distance
_geom_bond_site_symmetry_2
Pb01 Cu02 3.3145(19) 4_576
Pb01 F004 2.460(9) .
Pb01 F004 2.521(9) 3_667
Pb01 O005 2.753(10) 4_476
Pb01 O006 2.504(10) 1_556
Pb01 O007 2.524(11) 4_576
Cu02 P003 2.844(4) 3_766
Cu02 F004 1.946(9) .
Cu02 O005 1.957(10) 3_766
Cu02 O006 1.969(11) 4_576
Cu02 O007 1.930(11) .
Cu02 O008 2.299(11) 3_666
P003 O005 1.569(11) .
P003 O006 1.533(11) .
P003 O007 1.525(11) .
P003 O008 1.525(11) .
loop_
_geom_torsion_atom_site_label_1
_geom_torsion_atom_site_label_2
_geom_torsion_atom_site_label_3
_geom_torsion_atom_site_label_4
_geom_torsion
_geom_torsion_site_symmetry_1
_geom_torsion_site_symmetry_2
_geom_torsion_site_symmetry_3
_geom_torsion_site_symmetry_4
Cu02 P003 O005 Pb01 -137.8(8) 3_766 . . 4_675
Cu02 P003 O006 Pb01 84.9(9) 3_766 . . 1_554
Cu02 P003 O006 Cu02 -88.1(8) 3_766 . . 4_575
Cu02 P003 O007 Pb01 175.9(3) 3_766 . . 4_575
Cu02 P003 O007 Cu02 -13.7(15) 3_766 . . .
Cu02 P003 O008 Cu02 172.8(6) 3_766 . . 3_666
O005 P003 O006 Pb01 124.7(8) . . . 1_554
O005 P003 O006 Cu02 -48.2(9) . . . 4_575
O005 P003 O007 Pb01 131.8(6) . . . 4_575
O005 P003 O007 Cu02 -57.9(14) . . . .
O005 P003 O008 Cu02 -178.2(5) . . . 3_666
O006 P003 O005 Pb01 87.3(6) . . . 4_675
O006 P003 O005 Cu02 -134.9(6) . . . 3_766
O006 P003 O007 Pb01 14.4(7) . . . 4_575
O006 P003 O007 Cu02 -175.3(12) . . . .
O006 P003 O008 Cu02 -57.8(7) . . . 3_666
O007 P003 O005 Pb01 -27.8(7) . . . 4_675
O007 P003 O005 Cu02 110.0(6) . . . 3_766
O007 P003 O006 Pb01 -117.9(8) . . . 1_554
O007 P003 O006 Cu02 69.2(9) . . . 4_575
O007 P003 O008 Cu02 61.3(7) . . . 3_666
O008 P003 O005 Pb01 -150.4(5) . . . 4_675
O008 P003 O005 Cu02 -12.6(7) . . . 3_766
O008 P003 O006 Pb01 5.3(11) . . . 1_554
O008 P003 O006 Cu02 -167.6(7) . . . 4_575
O008 P003 O007 Pb01 -108.6(6) . . . 4_575
O008 P003 O007 Cu02 61.7(14) . . . .
