#------------------------------------------------------------------------------
#$Date: 2022-02-01 10:52:43 +0200 (Tue, 01 Feb 2022) $
#$Revision: 272370 $
#$URL: file:///home/coder/svn-repositories/cod/cif/1/56/62/1566217.cif $
#------------------------------------------------------------------------------
#
# This file is available in the Crystallography Open Database (COD),
# http://www.crystallography.net/
#
# All data on this site have been placed in the public domain by the
# contributors.
#
data_1566217
loop_
_publ_author_name
'Vladislav V. Gurzhiy'
'Alina R. Izatulina'
'Maria G. Krzhizhanovskaya'
'Mikhail N. Murashko'
'Dar-ya V. Spiridonova'
'Vladimir V. Shilovskikh'
'Sergey V. Krivovichev'
_publ_section_title
;
 Thermal behavior of uranyl selenite minerals derriksite and
 demesmaekerite
;
_journal_name_full               'Journal of GeoSciences'
_journal_page_first              249
_journal_page_last               259
_journal_paper_doi               10.3190/jgeosci.315
_journal_volume                  65
_journal_year                    2020
_chemical_formula_moiety         'Cu5 H10 O30 Pb2 Se6 U2'
_chemical_formula_sum            'Cu5 H10 O30 Pb2 Se6 U2'
_chemical_formula_weight         2171.98
_space_group_crystal_system      triclinic
_space_group_IT_number           2
_space_group_name_Hall           '-P 1'
_space_group_name_H-M_alt        'P -1'
_atom_sites_solution_hydrogens   difmap
_atom_sites_solution_primary     dual
_cell_angle_alpha                88.622(3)
_cell_angle_beta                 79.572(4)
_cell_angle_gamma                89.699(4)
_cell_formula_units_Z            1
_cell_length_a                   5.6320(4)
_cell_length_b                   10.0417(3)
_cell_length_c                   11.9844(4)
_cell_measurement_reflns_used    2912
_cell_measurement_temperature    100(2)
_cell_measurement_theta_max      30.7290
_cell_measurement_theta_min      3.6750
_cell_volume                     666.39(6)
_computing_cell_refinement       'CrysAlisPro 1.171.39.44a (Rigaku OD, 2018)'
_computing_data_collection       'CrysAlisPro 1.171.39.44a (Rigaku OD, 2018)'
_computing_data_reduction        'CrysAlisPro 1.171.39.44a (Rigaku OD, 2018)'
_computing_molecular_graphics    'Olex2 1.3 (Dolomanov et al., 2009)'
_computing_publication_material  'Olex2 1.3 (Dolomanov et al., 2009)'
_computing_structure_refinement  'SHELXL 2018/3 (Sheldrick, 2015)'
_computing_structure_solution    'SHELXT 2018/3 (Sheldrick, 2015)'
_diffrn_ambient_environment      N~2~
_diffrn_ambient_temperature      100(2)
_diffrn_detector                 'CCD plate'
_diffrn_detector_area_resol_mean 10.3829
_diffrn_detector_type            Atlas
_diffrn_measured_fraction_theta_full 0.997
_diffrn_measured_fraction_theta_max 0.997
_diffrn_measurement_details
;
List of Runs (angles in degrees, time in seconds):

  # Type    Start    End  Width  t~exp~   \w     \q     \k     \f   Frames
--------------------------------------------------------------------------
  1  \w    -26.00   1.00   1.00   22.50    --  -15.14 -77.00-150.00   27
  2  \w    -40.00  17.00   1.00   22.50    --  -15.14 -77.00 -30.00   57
  3  \w     39.00 102.00   1.00   22.50    --   16.86 178.00  60.00   63
  4  \w     -2.00  93.00   1.00   22.50    --   16.86  38.00-120.00   95
  5  \w    -57.00  41.00   1.00   22.50    --   16.86 -57.00  90.00   98
;
_diffrn_measurement_device       'four-circle diffractometer'
_diffrn_measurement_device_type  'SuperNova, Dual, Cu at home/near, Atlas'
_diffrn_measurement_method       '\w scans'
_diffrn_orient_matrix_type
'CrysAlisPro convention (1999,Acta A55,543-557)'
_diffrn_orient_matrix_UB_11      -0.0856349000
_diffrn_orient_matrix_UB_12      -0.0271059000
_diffrn_orient_matrix_UB_13      -0.0298610000
_diffrn_orient_matrix_UB_21      0.0825721000
_diffrn_orient_matrix_UB_22      0.0088741000
_diffrn_orient_matrix_UB_23      -0.0518098000
_diffrn_orient_matrix_UB_31      0.0473988000
_diffrn_orient_matrix_UB_32      -0.0646415000
_diffrn_orient_matrix_UB_33      0.0068844000
_diffrn_radiation_monochromator  mirror
_diffrn_radiation_probe          x-ray
_diffrn_radiation_type           'Mo K\a'
_diffrn_radiation_wavelength     0.71073
_diffrn_reflns_av_R_equivalents  0.0399
_diffrn_reflns_av_unetI/netI     0.0610
_diffrn_reflns_Laue_measured_fraction_full 0.997
_diffrn_reflns_Laue_measured_fraction_max 0.997
_diffrn_reflns_limit_h_max       7
_diffrn_reflns_limit_h_min       -7
_diffrn_reflns_limit_k_max       13
_diffrn_reflns_limit_k_min       -13
_diffrn_reflns_limit_l_max       14
_diffrn_reflns_limit_l_min       -15
_diffrn_reflns_number            5475
_diffrn_reflns_point_group_measured_fraction_full 0.997
_diffrn_reflns_point_group_measured_fraction_max 0.997
_diffrn_reflns_theta_full        25.242
_diffrn_reflns_theta_max         27.496
_diffrn_reflns_theta_min         3.458
_diffrn_source                   'micro-focus sealed X-ray tube'
_diffrn_source_type              'SuperNova (Mo) X-ray Source'
_exptl_absorpt_coefficient_mu    36.907
_exptl_absorpt_correction_T_max  0.289
_exptl_absorpt_correction_T_min  0.089
_exptl_absorpt_correction_type   analytical
_exptl_absorpt_process_details
;
CrysAlisPro 1.171.39.44a (Rigaku Oxford Diffraction, 2018)
Analytical numeric absorption correction using a multifaceted crystal
			model based on expressions derived by R.C. Clark & J.S. Reid.
(Clark, R. C. & Reid, J. S. (1995). Acta Cryst. A51, 887-897)
Empirical absorption correction using spherical harmonics,
 implemented in SCALE3 ABSPACK scaling algorithm.
;
_exptl_crystal_colour            brown
_exptl_crystal_density_diffrn    5.412
_exptl_crystal_description       prism
_exptl_crystal_F_000             947
_exptl_crystal_size_max          0.12
_exptl_crystal_size_mid          0.063
_exptl_crystal_size_min          0.055
_refine_diff_density_max         3.021
_refine_diff_density_min         -2.491
_refine_diff_density_rms         0.416
_refine_ls_extinction_coef       .
_refine_ls_extinction_method     none
_refine_ls_goodness_of_fit_ref   1.020
_refine_ls_hydrogen_treatment    mixed
_refine_ls_matrix_type           full
_refine_ls_number_parameters     179
_refine_ls_number_reflns         3053
_refine_ls_number_restraints     5
_refine_ls_restrained_S_all      1.020
_refine_ls_R_factor_all          0.0430
_refine_ls_R_factor_gt           0.0337
_refine_ls_shift/su_max          0.000
_refine_ls_shift/su_mean         0.000
_refine_ls_structure_factor_coef Fsqd
_refine_ls_weighting_details
'w=1/[\s^2^(Fo^2^)+(0.0270P)^2^] where P=(Fo^2^+2Fc^2^)/3'
_refine_ls_weighting_scheme      calc
_refine_ls_wR_factor_gt          0.0707
_refine_ls_wR_factor_ref         0.0755
_reflns_Friedel_coverage         0.000
_reflns_Friedel_fraction_full    .
_reflns_Friedel_fraction_max     .
_reflns_number_gt                2611
_reflns_number_total             3053
_reflns_threshold_expression     'I > 2\s(I)'
_cod_data_source_file            Demesmaekerite_SN_-173C_last.cif
_cod_data_source_block           demesmaekerite_sn_-173C
_cod_database_code               1566217
_chemical_oxdiff_formula         'Pb2 Cu5 U2 Se6 O30'
_shelx_space_group_comment
;
The symmetry employed for this shelxl refinement is uniquely defined
by the following loop, which should always be used as a source of
symmetry information in preference to the above space-group names.
They are only intended as comments.
;
_reflns_odcompleteness_completeness 99.88
_reflns_odcompleteness_iscentric 1
_reflns_odcompleteness_theta     28.51
_olex2_refinement_description
;
1. Fixed Uiso
 At 1.5 times of:
  All O(H) groups, All O(H,H) groups
2. Restrained distances
 O14-H14
 0.95 with sigma of 0.02
 O13-H13
 0.95 with sigma of 0.02
 O12-H12
 0.95 with sigma of 0.02
 H15A-O5_$3
 2 with sigma of 0.02
 H13-O9_$2
 2 with sigma of 0.02
3. Uiso/Uaniso restraints and constraints
Uanis(O9) = Uanis(O3) = Uanis(O10)
Uanis(O5) = Uanis(O4)
Uanis(O12) = Uanis(O14) = Uanis(O13)
Uanis(O7) = Uanis(O8)
4.a Rotating group:
 O15(H15A,H15B)
;
_shelx_res_file
;
TITL demesmaekerite_sn_100k_a.res in P-1
    demesmaekerite_sn_100k.res
    created by SHELXL-2018/3 at 01:56:04 on 09-Sep-2020
REM Old TITL Demesmaekerite_SN_100K in P-1
REM SHELXT solution in P-1: R1 0.058, Rweak 0.005, Alpha 0.022
REM <I/s> 0.000 for 0 systematic absences, Orientation as input
REM Formula found by SHELXT: O30 Cu5 Se6 Pb4
CELL 0.71073 5.632 10.0417 11.9844 88.622 79.572 89.699
ZERR 1 0.0004 0.0003 0.0004 0.003 0.004 0.004
LATT 1
SFAC Cu H O Pb Se U
UNIT 5 10 30 2 6 2
EQIV $1 +X,-1+Y,+Z
EQIV $2 -1+X,+Y,+Z
EQIV $3 2-X,1-Y,-Z
DFIX 0.95 O14 H14
DFIX 0.95 O13 H13
DFIX 0.95 O12 H12
DFIX 2 H15a O5_$3
EADP O9 O3 O10
EADP O5 O4
EADP O12 O14 O13
DFIX 2 H13 O9_$2
EADP O7 O8

L.S. 20
PLAN  20
CONF
HTAB O12 O8_$1
HTAB O13 O9_$2
HTAB O14 O3_$3
HTAB O15 O5_$3
HTAB O15 O6_$1
Htab
BOND $H
MORE -1
fmap 2
acta
OMIT -4 55
OMIT 1 2 11
OMIT -1 1 0
OMIT 1 -12 5
OMIT -1 2 4
REM <olex2.extras>
REM <HklSrc "%.\\Demesmaekerite_SN_100K.hkl">
REM </olex2.extras>

WGHT    0.027000
FVAR       0.23705
U1    6    1.261158    0.916686    0.252405    11.00000    0.00804    0.00513 =
         0.00155   -0.00030   -0.00051   -0.00350
PB1   4    0.171366    0.311837    0.194145    11.00000    0.00881    0.00798 =
         0.00595    0.00057   -0.00129   -0.00331
SE1   5    1.287193    0.889612   -0.046049    11.00000    0.00835    0.00572 =
         0.00239   -0.00027   -0.00091   -0.00304
SE2   5    1.225981    1.169925    0.487118    11.00000    0.01336    0.00954 =
         0.00388   -0.00019   -0.00108   -0.00387
SE3   5    0.905836    0.625821    0.220535    11.00000    0.00894    0.00568 =
         0.00568   -0.00227    0.00011   -0.00319
CU1   1    1.000000    0.500000    0.500000    10.50000    0.00758    0.00706 =
         0.00259   -0.00140   -0.00016   -0.00363
CU2   1    0.707716    0.443005    0.046318    11.00000    0.00747    0.00535 =
         0.00551    0.00021   -0.00231   -0.00231
CU3   1    0.563558    0.424538    0.384209    11.00000    0.00852    0.01075 =
         0.00231   -0.00092   -0.00063   -0.00577
O1    3    1.523144    0.865761    0.305335    11.00000    0.00585    0.02033 =
         0.00960    0.00486   -0.00230   -0.00530
O2    3    1.000943    0.967224    0.195291    11.00000    0.00369    0.01153 =
         0.01595    0.00041   -0.00042    0.00168
O3    3    1.446182    0.865197    0.062440    11.00000    0.01047    0.00998 =
         0.00263    0.00163   -0.00140   -0.00768
O4    3    1.158665    0.739019   -0.057420    11.00000    0.00760    0.00915 =
         0.00654   -0.00265   -0.00201   -0.00427
O5    3    1.515820    0.886672   -0.162364    11.00000    0.00760    0.00915 =
         0.00654   -0.00265   -0.00201   -0.00427
O6    3    1.152233    1.100753    0.368911    11.00000    0.02896    0.01340 =
         0.00339   -0.00111   -0.00127   -0.01082
O7    3    1.238796    1.332828    0.441496    11.00000    0.01784    0.00976 =
         0.00986    0.00095    0.00593   -0.00513
O8    3    0.956080    1.170956    0.575916    11.00000    0.01784    0.00976 =
         0.00986    0.00095    0.00593   -0.00513
O9    3    1.182036    0.690038    0.220652    11.00000    0.01047    0.00998 =
         0.00263    0.00163   -0.00140   -0.00768
O10   3    0.886654    0.514593    0.331884    11.00000    0.01047    0.00998 =
         0.00263    0.00163   -0.00140   -0.00768
O11   3    0.981732    0.513340    0.113253    11.00000    0.00561    0.00857 =
         0.00221   -0.00235   -0.00022   -0.00208
O12   3    0.693203    0.408071    0.524734    11.00000    0.01417    0.00590 =
         0.00418   -0.00097   -0.00293   -0.00302
H12   2    0.705939    0.316993    0.542999    11.00000   -1.50000
O13   3    0.471580    0.458386    0.236137    11.00000    0.01417    0.00590 =
         0.00418   -0.00097   -0.00293   -0.00302
H13   2    0.366684    0.529760    0.261756    11.00000   -1.50000
O14   3    0.404740    0.383093    0.006269    11.00000    0.01417    0.00590 =
         0.00418   -0.00097   -0.00293   -0.00302
H14   2    0.435417    0.296450   -0.022456    11.00000   -1.50000
O15   3    0.698971    0.203118    0.340745    11.00000    0.01970    0.02757 =
         0.01994   -0.01472   -0.00339   -0.00005
AFIX   7
H15A  2    0.687790    0.182734    0.269908    11.00000   -1.50000
H15B  2    0.856095    0.195171    0.340514    11.00000   -1.50000
AFIX   0
HKLF 4




REM  demesmaekerite_sn_100k_a.res in P-1
REM wR2 = 0.0755, GooF = S = 1.020, Restrained GooF = 1.020 for all data
REM R1 = 0.0337 for 2611 Fo > 4sig(Fo) and 0.0430 for all 3053 data
REM 179 parameters refined using 5 restraints

END

WGHT      0.0270      0.0000

REM Instructions for potential hydrogen bonds
HTAB O12 O8_$1
HTAB O13 Se3_$2
HTAB O13 O9_$2
EQIV $10 -x+1, -y+1, -z+1
HTAB O13 O12_$10
HTAB O14 Se1_$3
HTAB O14 O3_$3
HTAB O15 Se1_$3
HTAB O15 O4_$3
HTAB O15 O5_$3
HTAB O15 Se2_$1
HTAB O15 O6_$1

REM Highest difference peak  3.021,  deepest hole -2.491,  1-sigma level  0.416
Q1    1   1.0712  1.1792  0.4622  11.00000  0.05    3.02
Q2    1   0.0384  0.2363  0.2185  11.00000  0.05    2.22
Q3    1   0.0358  0.3397  0.1670  11.00000  0.05    2.20
Q4    1   1.3839  0.8957  0.2814  11.00000  0.05    2.19
Q5    1   1.1096  0.9567  0.2342  11.00000  0.05    2.15
Q6    1   1.1391  0.8432  0.2707  11.00000  0.05    1.97
Q7    1   1.3880  0.9844  0.2409  11.00000  0.05    1.84
Q8    1   0.1145  0.2475  0.1619  11.00000  0.05    1.83
Q9    1   0.2972  0.3840  0.1719  11.00000  0.05    1.80
Q10   1   1.1112  1.0961  0.5005  11.00000  0.05    1.68
Q11   1   1.5386  1.0983  0.4763  11.00000  0.05    1.50
Q12   1   0.3086  0.2626  0.1651  11.00000  0.05    1.49
Q13   1   0.2622  0.3617  0.2366  11.00000  0.05    1.47
Q14   1   1.3978  1.1194  0.4893  11.00000  0.05    1.45
Q15   1   1.4105  0.8744  0.2223  11.00000  0.05    1.45
Q16   1   0.9203  0.6824  0.1471  11.00000  0.05    1.34
Q17   1   0.1643  0.2913 -0.0605  11.00000  0.05    1.33
Q18   1   1.1288  0.8097 -0.0960  11.00000  0.05    1.32
Q19   1   0.1913  0.2217  0.2521  11.00000  0.05    1.31
Q20   1   1.4310  0.7224 -0.0984  11.00000  0.05    1.31
;
_shelx_res_checksum              18136
_shelx_hkl_file
;
   0   0   2  986.04   35.05
   0   0   3  781.93   31.66
   0   0  -3  821.24   36.05
   0   0   4 4488.18  140.34
   0   0  -4 4634.62  148.08
   0   0   5 1297.07   50.82
   0   0  -5 1333.22   57.86
   0   0  -6  101.65   14.44
   0   0  -6   83.99    8.10
   0   0   7 2971.54  112.20
   0   0  -7 3117.76  122.95
   0   0  -8   69.22   14.26
   0   0  -9  561.53   44.20
   0   0 -10   44.59   15.33
   0   0 -11  179.79   27.81
   0   0 -12   20.75   14.46
   0   0 -13  775.63   64.39
   0   0 -14  416.57   48.24
   0   0 -15   71.85   23.45
   0   0 -15   64.71   24.41
   0   1 -15   55.35   20.83
   0   1 -14 1299.88   90.10
   0   1 -13  105.70   24.35
   0   1 -12 1248.96   81.16
   0   1 -11 1047.58   70.20
   0   1 -10 2894.83  130.81
   0   1  -9  875.53   57.12
   0   1  -8  404.66   34.10
   0   1  -8  350.55   24.92
   0   1  -7 3521.84  135.24
   0   1  -7 4433.50  151.80
   0   1  -6   31.54    7.12
   0   1  -6   31.33    8.99
   0   1  -6   39.34    7.70
   0  -1   5 1777.46   61.67
   0   1  -5 1733.23   72.28
   0   1  -5 1754.81   67.10
   0  -1   4   60.19    6.79
   0   1  -4   48.31    8.62
   0   1  -4   57.17    8.91
   0  -1   3 2032.99   70.58
   0   1  -3 1979.71   73.64
   0   1  -3 1987.58   75.05
   0  -1   2    8.07    3.26
   0   1  -2    9.60    3.25
   0  -1  -2 1163.14   43.22
   0  -1  -3  482.76   25.11
   0  -1  -4 1478.79   60.96
   0   1   5   52.49    8.00
   0  -1  -5   68.16   11.03
   0   1   6 3018.95  109.83
   0  -1  -6 2968.77  116.60
   0  -1  -7  864.59   49.96
   0   1   7  825.13   43.33
   0  -1  -8  252.84   26.75
   0   1   8  272.31   23.32
   0  -1  -9  128.69   21.09
   0   1   9  106.98   15.74
   0  -1 -10  258.25   30.65
   0  -1 -11  654.03   53.14
   0  -1 -12  276.52   35.63
   0  -1 -13   10.76   14.17
   0  -1 -14   35.28   14.27
   0  -1 -14   70.53   24.83
   0  -1 -15   38.91   22.68
   0  -1 -15   21.97   17.82
   0   2 -15  560.24   56.32
   0   2 -14   58.07   20.47
   0   2 -13   41.11   17.22
   0   2 -12  217.28   30.61
   0   2 -11   -4.39   10.26
   0   2 -10  242.15   29.33
   0   2  -9   18.66    9.37
   0   2  -9   40.53   12.88
   0   2  -9   19.73    7.39
   0   2  -8  275.90   26.21
   0   2  -8  363.83   31.93
   0   2  -8  318.63   26.89
   0  -2   7  838.70   47.06
   0  -2   7  839.66   38.52
   0   2  -7  940.60   51.05
   0  -2   6 1269.37   52.39
   0   2  -6 1386.84   61.97
   0   2  -5  874.67   48.48
   0  -2   5  859.68   41.19
   0   2  -5  960.03   45.85
   0   2  -4  417.13   29.99
   0  -2   4  410.64   21.43
   0  -2   4  409.46   25.04
   0   2  -4  411.96   25.09
   0   2  -3 3148.81  120.70
   0  -2   3 3372.55  116.46
   0  -2   3 3195.38  109.85
   0   2  -3 3295.94  111.97
   0  -2   2   28.38    6.54
   0   2  -2   32.51    5.44
   0   2  -2   37.67    5.27
   0  -2   2   34.17    5.67
   0  -2   1 1868.81   68.90
   0   2  -1 1841.75   61.21
   0  -2   1 1960.78   73.20
   0  -2   0  202.00   16.35
   0  -2   0  227.90   17.04
   0   2   1 1807.11   59.00
   0   2   1 1802.93   60.31
   0  -2  -1 1773.08   69.26
   0  -2  -1 1793.71   58.42
   0  -2  -1 1898.27   60.28
   0   2   2    4.87    2.70
   0  -2  -2    7.76    3.05
   0  -2  -2    8.03    2.80
   0  -2  -2    7.97    4.04
   0   2   2    8.95    3.26
   0  -2  -3   17.20    4.53
   0  -2  -3   12.95    3.90
   0   2   3    8.08    3.65
   0   2   4   21.93    5.58
   0  -2  -4   14.32    5.05
   0  -2  -4   13.50    3.44
   0  -2  -5   19.83    7.10
   0   2   5   16.31    5.23
   0  -2  -6  257.78   23.10
   0   2   6  198.07   18.75
   0  -2  -7  263.44   24.75
   0   2   7  236.96   21.95
   0   2   7  264.11   21.65
   0  -2  -8 2684.68  112.80
   0   2   8 2540.75  103.48
   0   2   9  312.50   26.87
   0  -2  -9  290.26   30.50
   0  -2 -10 1861.22   95.70
   0  -2 -11  773.72   57.68
   0  -2 -12 1204.83   78.83
   0  -2 -13  563.07   53.39
   0  -2 -13  474.64   53.99
   0  -2 -14  415.04   52.83
   0  -2 -14  514.32   53.02
   0  -2 -15 1988.72  117.78
   0  -2 -15 1693.62  119.73
   0   3 -15  519.30   52.27
   0   3 -14   55.37   18.95
   0   3 -13  510.41   48.25
   0   3 -12  709.79   55.66
   0   3 -11 1742.81   92.49
   0   3 -11 2053.22   99.83
   0   3 -10  406.13   36.40
   0   3 -10  344.83   32.69
   0   3 -10  301.34   31.66
   0  -3  10  333.64   24.30
   0   3  -9  530.07   39.57
   0  -3   9  419.83   27.37
   0   3  -9  484.54   36.93
   0   3  -8    8.31    9.07
   0  -3   8   13.01    6.16
   0   3  -8    7.42    6.81
   0   3  -8    5.34    7.91
   0  -3   8    9.87    5.09
   0  -3   7  303.92   23.11
   0   3  -7  352.54   27.83
   0   3  -7  328.57   27.41
   0  -3   7  323.88   26.58
   0  -3   7  291.87   21.17
   0   3  -7  267.55   28.88
   0   3  -6  168.36   17.78
   0  -3   6  178.70   15.68
   0   3  -6  164.29   21.61
   0  -3   6  176.29   17.71
   0  -3   5  984.18   47.65
   0   3  -5 1021.25   48.09
   0  -3   5 1024.23   50.92
   0   3  -5 1096.87   59.10
   0  -3   5  951.21   45.00
   0  -3   4  683.95   34.20
   0   3  -4  658.53   33.22
   0   3  -4  679.12   43.25
   0  -3   4  660.17   39.10
   0  -3   4  641.44   33.56
   0   3  -3 1663.76   73.30
   0   3  -3 1525.01   57.79
   0  -3   3 1441.60   60.78
   0  -3   3 1581.78   58.99
   0  -3   3 1438.30   67.25
   0   3  -3 1545.82   62.27
   0  -3   2 4603.48  145.68
   0   3  -2 4624.62  157.02
   0  -3   2 4333.11  161.34
   0   3  -2 4438.67  144.30
   0  -3   2 4390.69  154.00
   0   3  -1  368.01   14.90
   0   3  -1  370.84   25.03
   0  -3   1  424.50   29.34
   0  -3   1  366.48   15.60
   0  -3   1  373.59   25.49
   0   3   0   23.14    3.29
   0  -3   0   20.57    7.28
   0  -3   0   31.69    8.83
   0  -3   0   25.96    3.81
   0  -3  -1 4261.38  134.43
   0   3   1 4119.25  134.55
   0   3   1 4293.07  132.01
   0  -3  -1 4073.85  151.25
   0  -3  -2 2142.44   72.67
   0   3   2 2181.74   73.39
   0  -3  -2 2125.22   86.25
   0  -3  -2 2144.67   74.68
   0   3   2 2314.59   83.26
   0  -3  -3 8492.69  287.81
   0  -3  -3 8625.95  281.15
   0   3   3 8745.69  279.02
   0   3   3 9144.02  283.05
   0  -3  -3 9029.90  279.85
   0  -3  -4  534.51   30.35
   0  -3  -4  602.09   31.04
   0   3   4  601.14   29.74
   0  -3  -4  559.06   31.12
   0  -3  -5 6224.91  202.80
   0  -3  -5 5831.70  193.83
   0   3   5 5941.32  199.05
   0   3   6  376.00   26.13
   0  -3  -6  416.75   29.77
   0  -3  -7  739.09   45.16
   0   3   7  728.05   41.09
   0  -3  -8 2850.22  119.99
   0   3   9  677.76   42.60
   0  -3  -9  873.33   54.46
   0  -3 -10  399.04   38.14
   0  -3 -11   44.84   14.76
   0  -3 -11   40.18   16.49
   0  -3 -12   10.34   11.98
   0  -3 -12   12.63   12.21
   0  -3 -13  392.38   48.41
   0  -3 -13  481.56   47.98
   0  -3 -14   55.73   19.32
   0  -3 -14   50.83   20.47
   0  -3 -15  119.62   30.92
   0   4 -15   90.80   22.85
   0   4 -14    9.53   11.81
   0   4 -13  724.29   56.40
   0   4 -12  638.24   50.61
   0   4 -12  657.11   54.27
   0   4 -11  829.79   59.12
   0   4 -11  855.27   56.78
   0   4 -10  341.75   34.12
   0   4 -10  359.71   33.19
   0  -4  10  296.45   24.62
   0   4  -9 2308.24   98.27
   0   4  -9 2165.63  100.05
   0  -4   9 2131.70   87.71
   0   4  -8  366.05   29.45
   0   4  -8  275.15   32.72
   0   4  -8  343.36   30.66
   0  -4   8  312.70   24.91
   0  -4   8  338.90   27.65
   0  -4   7 2271.34   92.86
   0  -4   7 2296.83   97.37
   0   4  -7 2237.34  111.52
   0   4  -7 2297.95   99.87
   0   4  -7 2546.66   97.77
   0  -4   7 2399.22   98.20
   0  -4   6  835.70   49.50
   0  -4   6  867.03   45.24
   0   4  -6  999.68   60.97
   0   4  -6  879.93   45.05
   0   4  -5 2394.58   88.42
   0  -4   5 2259.60   97.99
   0  -4   5 2211.33   89.96
   0  -4   5 2209.06   88.76
   0   4  -4 3085.07  107.99
   0  -4   4 2865.49  113.54
   0  -4   4 3020.53  109.40
   0  -4   4 3126.95  124.35
   0  -4   3   13.95    6.94
   0   4  -3   16.82    4.21
   0  -4   3   16.98    6.14
   0  -4   3   12.42    3.92
   0   4  -3   14.59    6.79
   0   4  -2 1311.29   61.96
   0   4  -2 1221.60   43.38
   0  -4   2 1137.66   55.37
   0  -4   2 1179.19   44.28
   0  -4   2 1223.70   63.98
   0  -4   1  249.05   11.83
   0  -4   1  283.12   26.29
   0  -4   1  291.02   25.08
   0   4  -1  250.09   10.50
   0   4  -1  229.19   21.79
   0   4  -1  245.23   15.69
   0  -4   0 2238.44   96.72
   0   4   0 2246.52   74.95
   0   4   1   22.76    3.66
   0  -4  -1   30.42    4.30
   0  -4  -1   35.64   10.18
   0  -4  -2  154.51   10.85
   0  -4  -2  137.83   17.89
   0   4   2  160.82    9.85
   0   4   2  172.99   17.21
   0   4   3  167.55   12.20
   0  -4  -3  173.18   19.39
   0  -4  -3  173.00   12.29
   0   4   3  187.81   17.27
   0  -4  -3  184.98   13.73
   0   4   4   14.03    4.41
   0  -4  -4   22.33    5.75
   0   4   4   19.07    6.25
   0  -4  -4   18.15    7.91
   0  -4  -4   22.06    6.17
   0  -4  -5  433.42   26.46
   0   4   5  378.45   23.74
   0  -4  -5  355.05   26.52
   0  -4  -5  382.49   26.67
   0  -4  -6   94.11   13.69
   0  -4  -6   79.31    9.97
   0  -4  -6   81.00   13.36
   0   4   6   74.91   10.70
   0  -4  -7 1181.11   63.77
   0   4   7 1162.78   56.17
   0  -4  -7 1312.52   62.22
   0  -4  -8   -6.49    9.13
   0  -4  -8    4.95    6.99
   0  -4  -9 3050.17  136.16
   0  -4  -9 3155.58  129.89
   0  -4 -10  177.62   24.49
   0  -4 -10  141.74   24.23
   0  -4 -11  189.92   26.26
   0  -4 -11  165.93   28.45
   0  -4 -12  536.22   53.20
   0  -4 -12  438.15   42.60
   0  -4 -13  297.21   41.59
   0  -4 -13  297.12   36.67
   0  -4 -14  284.53   43.69
   0  -4 -15   41.81   22.46
   0   5 -14 1154.42   74.34
   0   5 -13  106.04   21.01
   0   5 -13  115.27   26.23
   0   5 -12  429.88   44.40
   0   5 -12  472.91   41.04
   0   5 -11   35.12   13.87
   0   5 -11   38.42   11.98
   0   5 -10  550.89   40.77
   0   5 -10  576.94   46.83
   0  -5   9    9.18    7.24
   0   5  -9   25.51   12.45
   0  -5   9    4.78    5.50
   0   5  -9    2.68    6.65
   0  -5   8  233.16   25.45
   0   5  -8  227.43   26.59
   0   5  -8  265.63   23.85
   0  -5   8  232.31   22.90
   0   5  -7   39.48    9.43
   0  -5   7   46.78   10.92
   0  -5   7   23.96    9.46
   0  -5   7   28.81    8.73
   0  -5   6  667.98   45.91
   0   5  -6  658.97   35.95
   0  -5   6  645.84   40.24
   0   5  -5  211.57   17.01
   0  -5   5  260.16   23.42
   0  -5   5  249.63   27.33
   0  -5   5  205.23   17.80
   0   5  -5  276.81   31.02
   0  -5   4  129.27   19.88
   0   5  -4  105.03   10.65
   0  -5   4  133.36   12.32
   0  -5   4  118.18   15.60
   0   5  -4  122.30   19.89
   0   5  -4  129.69   17.40
   0  -5   3 1178.37   58.62
   0   5  -3 1177.60   44.62
   0  -5   3 1114.48   45.64
   0  -5   3 1258.39   68.25
   0   5  -3 1200.76   63.45
   0   5  -2 1070.87   59.74
   0   5  -2 1140.07   39.78
   0   5  -2 1152.72   48.50
   0  -5   2 1161.18   59.13
   0  -5   2 1045.05   41.13
   0  -5   2 1255.41   66.85
   0  -5   1 1200.08   66.70
   0   5  -1 1105.21   59.06
   0   5  -1 1130.56   45.46
   0   5   0 2766.87   91.66
   0  -5   0 2790.64  119.30
   0   5   1  278.63   14.89
   0   5   1  317.56   27.56
   0  -5  -1  247.97   27.00
   0  -5  -1  285.56   15.39
   0  -5  -2 1921.73   90.95
   0  -5  -2 1907.05   67.79
   0   5   2 1858.45   63.68
   0   5   3   23.86    4.33
   0   5   3   36.60    9.05
   0  -5  -3   19.45    9.25
   0  -5  -3   34.27    6.02
   0   5   4 1694.15   64.20
   0  -5  -4 1783.92   68.73
   0  -5  -4 1574.40   79.78
   0   5   4 1821.86   75.43
   0  -5  -5   63.50    9.37
   0   5   5   62.59    8.59
   0  -5  -5   71.42   10.91
   0   5   6   40.17    7.79
   0  -5  -6   51.33    9.72
   0  -5  -6   61.45   11.69
   0  -5  -6   46.14   10.54
   0  -5  -7   84.59   11.13
   0  -5  -7  126.66   17.70
   0   5   7  107.49   13.54
   0  -5  -7   96.27   13.90
   0  -5  -8   36.53   12.20
   0  -5  -8   25.70    9.10
   0  -5  -9  342.13   34.60
   0  -5  -9  293.76   28.60
   0  -5 -10    5.35    8.36
   0  -5 -10   -9.99   10.02
   0  -5 -11  273.97   36.08
   0  -5 -11  263.05   29.94
   0  -5 -12   50.41   19.79
   0   5  13 2264.86  112.59
   0  -5 -13 2518.82  137.03
   0   5  14   52.14   15.28
   0  -5 -14   38.27   20.74
   0  -5 -15  248.16   43.98
   0   6 -14 1429.70   95.93
   0   6 -13   -3.58    9.37
   0   6 -13    5.58   14.58
   0   6 -12  111.96   24.06
   0   6 -12  127.70   20.66
   0   6 -11   80.56   20.31
   0   6 -11   92.04   16.78
   0   6 -10 1830.15   85.14
   0   6 -10 1871.60   98.93
   0   6  -9  361.82   37.05
   0  -6   9  364.73   34.37
   0   6  -9  399.00   30.52
   0   6  -8  775.92   54.26
   0   6  -8  809.65   44.38
   0  -6   8  780.98   52.89
   0  -6   8  783.64   48.66
   0  -6   7 1099.93   59.65
   0  -6   7 1149.62   66.91
   0  -6   7 1025.08   54.12
   0   6  -7 1153.87   53.06
   0  -6   6   17.21   10.74
   0  -6   6   17.03    7.58
   0   6  -6   24.32    6.67
   0  -6   5  282.25   30.93
   0  -6   5  291.83   21.19
   0   6  -5  306.56   19.97
   0  -6   5  288.09   26.83
   0   6  -4  104.89    9.96
   0   6  -4   89.75   16.76
   0  -6   4   88.20   10.03
   0  -6   4  106.99   19.66
   0  -6   4  100.21   15.75
   0   6  -3 1386.26   59.39
   0   6  -3 1313.67   73.21
   0  -6   3 1423.19   78.34
   0  -6   3 1265.63   50.77
   0  -6   3 1363.43   69.90
   0   6  -3 1369.40   49.06
   0  -6   2  109.44   17.97
   0  -6   2  105.75    8.09
   0   6  -2  102.26   11.42
   0   6  -2   75.44   15.10
   0  -6   2   73.17   16.80
   0  -6   1 2408.02  112.15
   0   6  -1 2320.52   81.25
   0   6  -1 2396.45  103.35
   0  -6   0   96.61   18.21
   0   6   0   76.46    6.91
   0   6   0   75.56   14.17
   0  -6  -1  433.87   39.17
   0  -6  -1  383.53   19.29
   0   6   1  429.64   19.72
   0  -6  -2 1563.89   56.18
   0  -6  -2 1604.42   83.33
   0   6   2 1484.88   49.91
   0  -6  -3 2212.01   79.29
   0   6   3 2222.89   75.56
   0  -6  -3 2197.22  104.37
   0  -6  -4  618.07   31.49
   0   6   4  629.97   43.38
   0  -6  -4  603.23   45.75
   0   6   4  594.94   28.01
   0   6   5  210.89   24.41
   0  -6  -5  202.57   17.86
   0   6   5  191.11   14.95
   0  -6  -5  171.03   23.25
   0   6   6 6888.96  231.35
   0   6   6 7160.78  252.20
   0  -6  -6 6391.70  246.29
   0   6   7   10.07    7.33
   0  -6  -7    9.16    6.08
   0   6   7   13.37    4.67
   0  -6  -8  985.94   57.96
   0   6   8  960.26   60.23
   0   6   9   25.78   10.48
   0  -6  -9   20.41   10.97
   0   6  10 2048.23  103.30
   0  -6 -10 2327.38  112.41
   0  -6 -11  228.28   32.84
   0   6  11  242.15   30.31
   0  -6 -12   58.09   19.72
   0   6  12   29.90   12.62
   0  -6 -13  835.51   70.81
   0   6  13  697.82   55.70
   0   6  14  161.81   26.91
   0  -6 -14  284.11   42.63
   0  -6 -15   66.16   25.20
   0   7 -14  100.47   31.32
   0   7 -13   30.24   16.70
   0   7 -12  369.28   43.75
   0   7 -11  128.88   25.96
   0   7 -11   81.62   15.68
   0   7 -10  115.85   24.45
   0   7 -10   93.89   15.34
   0   7  -9  409.85   41.46
   0  -7   9  384.42   37.91
   0   7  -9  412.73   30.37
   0  -7   8 2160.97  107.57
   0   7  -8 2195.85   88.72
   0  -7   7   20.42   10.96
   0   7  -7   18.10    6.58
   0   7  -6  838.40   39.87
   0  -7   6  827.50   59.14
   0  -7   5  707.90   36.80
   0  -7   5  785.60   56.68
   0   7  -5  700.55   33.35
   0   7  -5  724.66   51.38
   0  -7   4 2972.81  105.11
   0   7  -4 3058.09  134.66
   0  -7   4 3110.49  139.29
   0   7  -4 2716.28  112.69
   0   7  -4 3097.72  101.65
   0  -7   3  992.61   66.78
   0  -7   3  954.47   38.00
   0   7  -3  888.14   59.89
   0   7  -3  880.12   44.29
   0   7  -2 1416.92   77.15
   0   7  -2 1426.25   56.99
   0  -7   2 1472.83   85.91
   0   7  -1 1626.99   59.04
   0  -7   1 1578.03   90.41
   0   7  -1 1677.85   83.08
   0   7   0   14.23    8.67
   0   7   0   10.25    2.83
   0  -7   0   14.18    9.93
   0   7   1  796.06   51.89
   0   7   1  783.80   30.87
   0  -7  -1  681.27   55.90
   0   7   2  295.97   29.89
   0  -7  -2  288.71   16.87
   0  -7  -2  324.32   35.96
   0   7   3 1247.69   68.32
   0  -7  -3 1189.38   73.93
   0  -7  -3 1228.03   48.29
   0   7   3 1149.23   42.60
   0   7   4   21.15    8.72
   0   7   4   21.02    4.34
   0  -7  -4   19.86    5.45
   0   7   4    1.96    6.66
   0  -7  -4   10.06    8.12
   0  -7  -5    2.27    6.66
   0  -7  -5    1.09    3.97
   0   7   5   -1.48    6.35
   0   7   5    1.40    2.76
   0   7   6  159.14   22.96
   0  -7  -6  146.47   21.79
   0  -7  -6  154.93   16.34
   0   7   6  132.24   13.13
   0   7   7   74.26   16.71
   0  -7  -7   88.95   14.02
   0  -7  -7   49.07   13.04
   0   7   7   94.29   11.83
   0  -7  -8   98.58   16.56
   0   7   8   72.92   16.50
   0  -7  -9  189.06   23.76
   0   7   9  148.94   24.19
   0  -7 -10  754.01   54.37
   0   7  10  667.13   53.18
   0   7  11   43.37   14.59
   0  -7 -11   62.54   17.78
   0   7  12  958.40   69.07
   0  -7 -12 1210.23   79.39
   0  -7 -13  142.50   28.68
   0   7  13  119.06   22.63
   0   7  14  303.90   37.99
   0  -7 -14  339.65   46.51
   0  -7 -15   15.62   17.45
   0   8 -13 1332.58   95.53
   0   8 -12   11.78   13.51
   0   8 -11  613.98   57.23
   0   8 -10  222.79   32.87
   0   8  -9  680.78   55.66
   0  -8   9  672.98   55.16
   0  -8   8   18.25   12.41
   0  -8   7  329.04   37.74
   0  -8   6   39.56   15.13
   0   8  -5   73.33   18.25
   0  -8   5   84.98   21.34
   0   8  -5   78.61   13.05
   0  -8   5   70.96   10.18
   0   8  -4  144.87   24.96
   0  -8   4  165.42   27.46
   0  -8   4  140.92   12.19
   0   8  -4  154.31   16.65
   0  -8   3   32.80   15.79
   0   8  -3   38.52   14.78
   0   8  -3   27.86    5.87
   0   8  -2  128.50   11.28
   0   8  -2  146.34   22.74
   0   8  -1  534.91   42.77
   0  -8   1  557.89   50.40
   0   8  -1  441.54   21.20
   0   8   0  868.76   33.35
   0   8   0  941.48   58.69
   0  -8   0  970.17   69.30
   0  -8  -1  182.30   28.89
   0   8   1  153.36   22.49
   0   8   2  749.35   52.22
   0  -8  -2  748.94   59.89
   0  -8  -3 1348.48   84.86
   0   8   3 1407.59   76.08
   0  -8  -3 1359.91   53.06
   0   8   4    0.17    7.17
   0   8   4    1.07    2.03
   0  -8  -4    2.47    3.28
   0  -8  -4    3.02    8.12
   0  -8  -5  789.68   57.68
   0   8   5  820.47   53.77
   0  -8  -5  796.45   35.25
   0  -8  -6   58.74    9.73
   0  -8  -6   54.67   15.41
   0   8   6   59.38    8.28
   0   8   6   43.90   13.46
   0   8   7  939.73   63.79
   0  -8  -7  831.32   59.27
   0   8   8   38.20   13.60
   0  -8  -8   51.46   11.63
   0  -8  -9   51.50   12.88
   0   8   9   22.67   13.18
   0   8  10   10.54    9.83
   0  -8 -10    4.91    8.09
   0  -8 -11  130.76   22.47
   0   8  11   79.45   20.37
   0  -8 -12   13.19   13.25
   0   8  12    6.30   10.93
   0  -8 -13   46.83   18.21
   0   8  13   47.13   17.40
   0  -8 -14  406.60   47.83
   0   8  14  348.46   42.86
   0   9 -11  962.67   74.98
   0   9 -10  110.18   24.64
   0   9  -9  530.09   50.04
   0  -9   9  498.20   48.95
   0  -9   8   60.58   19.74
   0  -9   7  754.41   62.07
   0  -9   6  978.61   72.04
   0   9  -5 1546.91   92.90
   0  -9   5 1692.68   99.12
   0  -9   4  149.72   28.09
   0   9  -4  153.06   26.72
   0   9  -3   18.78    5.48
   0   9  -3    1.79    8.84
   0  -9   3    2.46   10.26
   0   9  -2   91.13   19.73
   0  -9   2  118.46   25.97
   0   9  -2   79.78    7.91
   0  -9   1  255.88   36.25
   0   9  -1  178.26   10.44
   0   9  -1  234.19   29.12
   0  -9   0   63.67   19.03
   0   9   0   92.04   19.14
   0   9   1 1010.63   64.61
   0  -9  -1 1068.97   76.99
   0  -9  -2   51.87   18.06
   0   9   2   58.75   14.38
   0  -9  -3  921.16   72.10
   0  -9  -3 1013.02   40.09
   0   9   3  924.39   62.18
   0  -9  -4  912.57   70.22
   0   9   4 1045.15   65.72
   0  -9  -4 1047.29   43.73
   0   9   5   69.30   16.50
   0  -9  -5   77.67   19.49
   0  -9  -5   66.70    8.94
   0   9   6  353.25   37.14
   0  -9  -6  363.49   23.45
   0  -9  -6  283.35   36.06
   0   9   7  840.59   60.97
   0  -9  -7  918.09   44.35
   0   9   8  907.50   65.44
   0  -9  -8  984.14   50.84
   0  -9  -9 2023.22   88.41
   0   9   9 1865.04  104.32
   0   9  10  255.07   34.39
   0   9  11 1264.38   82.60
   0   9  12  126.39   25.18
   0   9  13  658.20   58.52
   0  10 -10   20.31   15.07
   0  10  -9   -9.76   12.31
   0 -10   9  -30.18   15.37
   0 -10   8   39.81   18.25
   0 -10   7  385.52   45.06
   0 -10   6  684.70   60.65
   0  10  -5  832.56   65.62
   0 -10   5  896.87   71.46
   0  10  -4    1.13   11.49
   0 -10   4   -2.39   13.15
   0 -10   3 1118.34   81.79
   0  10  -3  970.32   69.86
   0  10  -2   95.69   20.40
   0 -10   2  156.40   30.61
   0  10  -1 2106.90  107.61
   0 -10   1 1981.90  118.28
   0 -10   0  712.06   64.44
   0  10   0  706.92   54.38
   0  10   1 1610.56   86.73
   0 -10  -1 1380.46   95.28
   0  10   2  711.40   53.92
   0 -10  -2  696.21   62.35
   0 -10  -3   60.98   16.76
   0  10   3   58.88   16.10
   0  10   4  472.20   43.68
   0 -10  -4  478.85   49.94
   0 -10  -5   49.90   17.79
   0  10   5   65.66   16.21
   0 -10  -6  519.32   51.32
   0  10   6  551.11   48.11
   0 -10  -7    0.71   10.72
   0  10   7   10.98   10.36
   0  10   8   11.33    9.97
   0  10   9   36.49   14.89
   0  10  10   -3.18   10.03
   0  10  11  135.86   26.47
   0  10  12   11.16   12.70
   0  11  -9  -32.00   15.71
   0 -11   8  981.52   77.93
   0 -11   7   28.79   16.16
   0 -11   6  416.97   50.03
   0  11  -5   51.43   17.71
   0 -11   5   51.07   20.79
   0  11  -4  441.22   47.15
   0 -11   4  529.76   57.20
   0 -11   3   11.88   11.82
   0  11  -3    5.98   10.56
   0  11  -2   31.44   14.80
   0 -11   2   16.02   14.55
   0 -11   1   95.69   23.96
   0  11  -1   86.71   21.00
   0  11   0   73.74   18.95
   0 -11   0   74.36   22.80
   0 -11  -1   68.95   21.25
   0  11   1   74.25   18.09
   0 -11  -2   69.09   21.92
   0  11   2  112.89   22.08
   0 -11  -3  555.94   56.38
   0  11   3  584.97   50.09
   0  11   4  405.53   41.34
   0 -11  -4  337.93   43.92
   0  11   5  326.63   37.49
   0 -11  -5  312.31   41.68
   0 -11  -6  644.77   58.80
   0  11   6  691.53   56.96
   0  11   7   22.74   14.55
   0  11   8  289.00   36.94
   0  11   9   23.35   12.83
   0  11  10  754.92   63.74
   0 -12   7  -12.28   14.83
   0 -12   6  114.72   28.57
   0  12  -5   14.33   12.40
   0 -12   5  -38.82   18.70
   0 -12   4 1390.70   99.39
   0  12  -4 1394.98   91.62
   0 -12   3  199.25   37.72
   0  12  -3  185.57   31.37
   0  12  -2  153.12   28.27
   0 -12   2  148.58   31.80
   0  12  -1  730.64   60.83
   0 -12   1  721.47   68.19
   0  12   0  277.15   36.25
   0 -12   0  227.07   37.76
   0 -12  -1  145.56   30.71
   0  12   1  124.08   25.18
   0  12   2    8.63   10.62
   0 -12  -2  -37.89   17.44
   0  12   3  593.79   51.81
   0 -12  -3  489.21   54.68
   0  12   4  130.62   24.72
   0 -12  -4  119.09   27.33
   0 -12  -5  437.05   50.32
   0  12   5  545.12   50.40
   0  12   6   39.97   16.56
   0 -12  -6   17.73   15.33
   0  12   7   54.90   20.82
   0  13  -5   29.86   16.84
   0  13  -4   99.56   25.02
   0 -13   4   85.48   26.49
   0 -13   3  169.12   34.99
   0  13  -3  175.43   31.91
   0 -13   2  794.07   74.92
   0  13  -2  961.40   72.88
   0 -13   1   -9.97   14.03
   0  13  -1   24.64   14.03
   0 -13   0  305.73   45.56
   0  13   0  468.16   48.22
   0 -13  -1   39.82   21.92
   0  13   1   52.19   17.64
   0 -13  -2 1257.19   93.42
   0  13   2 1315.32   85.59
   0 -13  -3  319.56   44.85
   0  13   3  364.32   42.57
   0 -13  -4  725.98   68.57
   0  13   4  972.20   70.23
   0 -13  -5  228.12   36.68
   0  14  -4    8.20   19.30
   0  14  -3  463.99   52.43
   0 -14  -3   53.60   18.86
  -1  14  -2   72.76   20.80
  -1  14  -3   41.42   18.93
  -1  14  -4  301.26   42.71
  -1  13   4   64.89   18.84
  -1  13   3  284.66   36.62
  -1  13   2   85.15   20.88
  -1  13   1  370.77   41.59
  -1  13   0  135.60   25.73
  -1  13  -1  414.61   44.73
  -1  13  -2   -8.15   14.08
  -1  13  -3    5.14   11.56
  -1  13  -4   30.47   16.86
  -1  13  -5  -27.66   15.54
  -1  12   7  115.19   24.87
  -1  12   6  122.31   25.25
  -1  12   5   -0.64   10.66
  -1  12   4   53.45   17.67
  -1  12   3  154.33   27.14
  -1  12   2  309.63   36.64
  -1  12   1  188.43   28.42
  -1  12   0  517.90   47.37
  -1  12  -1 1967.63  104.80
  -1  12  -2   64.37   18.29
  -1  12  -3  280.76   35.68
  -1  12  -4    4.51   10.50
  -1  12  -5 1666.72   97.75
  -1  12  -6   29.72   15.81
  -1  12  -7  217.48   33.25
  -1  11   9  960.52   74.10
  -1  11   8   84.60   23.14
  -1  11   7  514.94   50.04
  -1  11   6 1303.34   82.89
  -1  11   5  605.00   52.25
  -1  11   4  148.32   25.57
  -1  11   3   37.61   13.90
  -1  11   2  806.31   59.11
  -1  11   1  -25.23   12.21
  -1  11   0   51.37   15.74
  -1  11  -1    8.77    9.69
   1 -11   1   -6.00   12.36
   1 -11   2   83.66   24.80
  -1  11  -2   70.92   18.34
  -1  11  -3  356.32   38.74
  -1  11  -4  139.46   25.02
  -1  11  -5   27.74   14.01
  -1  11  -6   26.92   12.09
  -1  11  -7  607.45   53.39
  -1  11  -8   23.37   14.86
  -1  11  -9  499.02   51.47
  -1  10  10  159.75   29.75
  -1  10   9   85.06   22.78
  -1  10   8   48.44   17.92
  -1  10   7   23.35   12.11
  -1  10   6    3.14    9.28
  -1  10   5  186.42   27.88
   1 -10  -5  207.26   19.40
  -1  10   4   46.55   15.51
   1 -10  -4   58.83   11.17
  -1  10   3  337.87   36.27
   1 -10  -3  353.82   26.28
   1 -10  -2 1376.24   60.46
  -1  10   2 1226.58   75.27
  -1  10   1  267.53   31.45
   1 -10  -1  262.29   37.66
   1 -10   0  273.85   38.58
  -1  10   0  279.47   32.19
  -1  10  -1   98.43   19.29
   1 -10   1   81.53   21.62
   1 -10   2 1235.19   87.05
  -1  10  -2 1265.38   73.66
   1 -10   3   40.07   17.27
  -1  10  -3   65.53   15.87
   1 -10   4  170.40   31.37
  -1  10  -4  177.97   26.45
  -1  10  -5   54.55   16.54
  -1  10  -6  204.55   28.58
  -1  10  -7   37.52   14.33
  -1  10  -8   85.65   21.30
  -1  10  -9   16.45   11.35
  -1  10 -10  171.10   31.41
  -1   9  12 1217.08   85.12
   1  -9 -11   47.13   15.05
  -1   9  11    2.15   10.67
   1  -9 -10  410.31   38.25
  -1   9  10  400.44   45.18
   1  -9  -9  253.22   28.54
  -1   9   9  279.35   36.12
  -1   9   8   85.42   20.54
   1  -9  -8   78.98   15.23
  -1   9   7  135.61   24.52
   1  -9  -7  173.29   20.25
   1  -9  -6  488.09   33.17
  -1   9   6  475.53   44.83
  -1   9   5  338.67   36.77
   1  -9  -5  355.83   26.15
   1  -9  -4  255.76   21.43
  -1   9   4  254.10   30.74
  -1   9   3  145.82   23.24
  -1   9   3  180.55   10.51
  -1   9   2   24.60   11.19
  -1   9   2   22.86    6.77
   1  -9  -2   31.51    7.69
   1  -9  -2   21.31   14.07
   1  -9  -1  122.29   25.98
  -1   9   1  174.07   15.44
  -1   9   1  168.37   24.10
  -1   9   0   14.18    9.49
  -1   9   0   11.14    3.60
  -1   9  -1  464.07   39.16
   1  -9   1  401.20   44.80
  -1   9  -1  402.31   25.27
  -1   9  -2  831.92   54.83
   1  -9   2  834.09   65.95
  -1   9  -2  814.75   40.95
  -1   9  -3 2506.43  106.85
  -1   9  -3 2354.95   86.65
   1  -9   3 2289.17  118.30
   1  -9   4 1943.98  107.42
  -1   9  -4 1725.61   62.55
  -1   9  -4 1983.42   96.45
  -1   9  -5    6.29    4.21
   1  -9   5    1.80    9.08
  -1   9  -5    3.10    9.65
  -1   9  -6  859.80   39.07
  -1   9  -6  816.28   59.11
  -1   9  -7  365.38   23.89
  -1   9  -7  342.15   37.60
  -1   9  -8 2147.64  112.25
  -1   9  -8 2173.15   85.97
  -1   9  -9  667.44   57.24
  -1   9  -9  658.25   38.51
  -1   9 -10 1043.43   76.48
  -1   9 -10 1012.19   53.29
  -1   9 -11  -12.73   13.97
  -1   9 -11   24.28    9.42
  -1   8  13   29.98   15.82
   1  -8 -13   44.34   19.10
  -1   8  12   61.78   18.55
   1  -8 -12   60.55   18.96
   1  -8 -11  386.54   41.02
  -1   8  11  400.46   43.59
   1  -8 -10  352.71   37.66
  -1   8  10  431.56   44.09
   1  -8  -9   21.59   10.69
   1  -8  -8 2072.04   96.70
   1  -8  -7  532.99   38.11
  -1   8   7  524.77   46.41
   1  -8  -6  989.41   53.07
  -1   8   6  984.49   64.70
  -1   8   5  797.43   36.97
   1  -8  -5  793.99   43.67
  -1   8   5  730.78   53.63
  -1   8   4 2121.09   96.78
   1  -8  -4 2283.60   80.94
  -1   8   3  900.93   55.93
  -1   8   3  929.38   42.96
   1  -8  -3  881.22   42.21
   1  -8  -2  819.15   40.67
  -1   8   2  532.77   33.69
   1  -8  -2  694.84   55.27
  -1   8   2  646.63   47.53
  -1   8   2  685.05   26.57
  -1   8   1 1197.19   40.34
   1  -8  -1 1359.23   55.83
  -1   8   1  983.97   49.75
  -1   8   1 1399.91   71.08
  -1   8   1 1134.49   39.35
   1  -8  -1 1326.51   79.34
  -1   8   0 1023.77   57.14
   1  -8   0  866.98   62.60
  -1   8  -1  588.06   21.31
  -1   8  -1  798.44   49.67
  -1   8  -1  533.59   31.41
   1  -8   1  740.30   56.74
   1  -8   2  192.49   29.17
  -1   8  -2  138.10   14.99
  -1   8  -2  190.46   10.27
   1  -8   3  388.10   41.57
  -1   8  -3  433.98   28.96
  -1   8  -3  416.55   35.85
  -1   8  -3  376.31   18.82
  -1   8  -4  108.90   18.97
  -1   8  -4  129.44   16.55
   1  -8   4  122.07   23.43
  -1   8  -4   95.84    9.34
  -1   8  -5   39.44    6.77
   1  -8   5   28.08   12.79
  -1   8  -5   36.37   12.58
  -1   8  -6   57.99   15.50
  -1   8  -6   82.03   10.45
  -1   8  -7   19.73   10.57
  -1   8  -7    9.96    5.45
  -1   8  -8  289.75   34.20
  -1   8  -8  301.14   23.76
  -1   8  -9  167.43   27.75
  -1   8  -9  178.35   18.97
  -1   8 -10  500.97   35.16
  -1   8 -10  430.77   46.68
  -1   8 -11  139.94   28.68
  -1   8 -11  153.79   19.68
  -1   8 -12  314.38   30.68
  -1   8 -12  503.13   53.13
  -1   8 -13   24.27   11.70
  -1   8 -13   -8.26   14.06
  -1   8 -14  784.49   54.40
   1  -7 -14  164.22   32.88
  -1   7  14  150.90   26.60
   1  -7 -13 1345.90   95.21
   1  -7 -12   42.72   14.90
   1  -7 -11  729.99   59.58
   1  -7 -10   10.90   11.65
   1  -7  -9  797.64   56.72
   1  -7  -8  562.25   43.75
   1  -7  -7   88.56   16.50
  -1   7   6   22.79    7.05
   1  -7  -6   12.29    7.99
   1  -7  -5  300.55   25.73
  -1   7   5  372.19   30.23
  -1   7   5  320.00   21.86
  -1   7   4  428.99   33.05
   1  -7  -4  346.68   25.37
   1  -7  -3   84.16   12.42
  -1   7   3   97.34   17.29
  -1   7   3  103.35   13.12
  -1   7   3   96.25    9.24
  -1   7   2  248.85   26.68
  -1   7   2  258.57   14.51
  -1   7   2  308.63   22.43
   1  -7  -2  232.87   28.54
   1  -7  -2  286.11   22.09
  -1   7   1  215.77   24.56
   1  -7  -1  218.88   19.37
   1  -7  -1  191.94   26.50
  -1   7   1  203.88   17.36
  -1   7   1  195.12   10.99
  -1   7   0  622.71   25.28
  -1   7   0  694.62   34.74
  -1   7   0  598.15   42.85
   1  -7   0  649.68   35.03
   1  -7   0  574.34   47.56
   1  -7   1  690.39   53.83
  -1   7  -1  844.24   39.82
  -1   7  -1  749.97   29.32
  -1   7  -1  781.68   48.56
  -1   7  -2  103.60   12.72
  -1   7  -2   98.66   16.67
  -1   7  -2   80.82    7.36
   1  -7   2   94.51   19.13
   1  -7   3 1196.59   73.62
  -1   7  -3 1329.69   67.32
  -1   7  -3 1202.55   58.95
  -1   7  -3 1231.47   47.58
   1  -7   4  853.99   58.00
  -1   7  -4  814.87   47.45
  -1   7  -4  798.83   36.23
  -1   7  -4  775.55   50.79
  -1   7  -5  887.37   51.68
  -1   7  -5  750.27   51.82
  -1   7  -5  835.10   39.31
   1  -7   5  851.30   44.15
   1  -7   5  849.44   58.86
  -1   7  -6  229.03   25.70
  -1   7  -6  257.08   19.97
  -1   7  -7  444.00   39.44
  -1   7  -7  402.11   27.46
  -1   7  -8  -10.81    6.47
  -1   7  -8    1.85    8.24
  -1   7  -9   80.82   13.27
  -1   7  -9   86.83   19.34
  -1   7 -10   13.65    7.67
  -1   7 -10   14.93   11.70
  -1   7 -11   -0.31    8.01
  -1   7 -11    1.20   12.91
  -1   7 -12   70.47   20.34
  -1   7 -12   99.58   17.82
  -1   7 -13  356.53   45.05
  -1   7 -13  295.60   32.15
  -1   7 -14  224.36   38.65
  -1   7 -14  271.23   32.31
   1  -6 -14  327.02   47.57
   1  -6 -13  599.42   63.55
   1  -6 -12   62.41   20.46
   1  -6 -11  289.01   38.57
   1  -6 -10   71.44   19.63
   1  -6  -9 2565.49  120.24
   1  -6  -8   40.92   11.78
   1  -6  -7 1172.10   66.23
  -1   6   7 1362.21   59.61
  -1   6   6  595.57   36.02
   1  -6  -6  542.32   38.00
  -1   6   6  534.38   31.96
  -1   6   5   76.76   10.03
  -1   6   5   90.19   13.05
   1  -6  -5   62.29   12.81
  -1   6   4  150.21   13.08
   1  -6  -4  181.13   18.07
  -1   6   3  704.79   37.68
  -1   6   3  606.66   28.80
   1  -6  -3  624.95   35.56
   1  -6  -2 1886.77   75.65
   1  -6  -2 1824.50   88.47
  -1   6   2 1796.77   65.27
  -1   6   2 2023.30   76.78
  -1   6   1  193.66   21.67
  -1   6   1  183.18   20.70
   1  -6  -1  154.06   15.84
   1  -6  -1  144.58   20.97
  -1   6   1  189.31   16.39
  -1   6   0 1438.61   57.81
  -1   6   0 1483.98   70.87
  -1   6   0 1293.77   49.92
   1  -6   0 1270.85   57.78
  -1   6   0 1381.41   67.74
   1  -6   0 1329.36   72.09
  -1   6  -1    4.22    2.40
   1  -6   1    4.96    8.18
  -1   6  -1   11.29    5.58
  -1   6  -1    6.40    6.13
  -1   6  -2    9.09    4.37
  -1   6  -2    5.63    3.03
  -1   6  -3   60.48    7.65
   1  -6   3   55.73   13.74
  -1   6  -3   59.79   11.45
  -1   6  -3   69.73   13.12
  -1   6  -4 1512.70   57.82
   1  -6   4 1342.28   74.30
  -1   6  -4 1417.82   68.96
   1  -6   4 1416.95   61.97
  -1   6  -4 1367.58   70.09
   1  -6   5  170.72   22.61
  -1   6  -5  168.18   20.01
   1  -6   5  147.08   16.39
  -1   6  -5  124.69   18.07
  -1   6  -5  140.44   13.99
  -1   6  -6 1632.35   79.13
  -1   6  -6 1447.01   70.14
  -1   6  -6 1558.95   66.05
  -1   6  -7 3520.33  130.56
  -1   6  -7 3501.31  145.44
  -1   6  -8  555.61   45.00
  -1   6  -8  512.44   34.79
  -1   6  -9  488.40   35.12
  -1   6  -9  493.61   44.32
  -1   6 -10   67.14   13.81
  -1   6 -10   72.22   18.45
  -1   6 -11 3783.49  166.35
  -1   6 -11 3573.10  146.77
  -1   6 -12   93.82   23.86
  -1   6 -12   84.12   17.70
  -1   6 -13  517.97   53.72
  -1   6 -13  530.98   44.55
  -1   6 -14  134.93   23.55
  -1   6 -15  467.62   45.27
   1  -5 -14   99.59   27.97
   1  -5 -13   39.19   19.20
   1  -5 -12  299.16   42.45
   1  -5 -11   51.81   18.47
   1  -5 -10  281.45   35.10
  -1   5   9  188.47   17.76
   1  -5  -9  254.73   31.27
   1  -5  -8   11.33    8.76
  -1   5   7 2107.43   78.68
   1  -5  -7 2014.95   94.64
   1  -5  -6  451.94   34.19
  -1   5   6  411.81   27.80
   1  -5  -5  595.66   38.42
  -1   5   5  626.83   33.41
  -1   5   4  159.03   16.87
   1  -5  -4  114.66   14.74
  -1   5   4  125.48   12.02
   1  -5  -3 4674.88  165.51
  -1   5   3 4545.30  156.90
  -1   5   3 4997.34  168.16
  -1   5   2   46.20    8.29
  -1   5   2   45.72    9.77
  -1   5   2   36.79    5.47
   1  -5  -2   43.86    8.21
   1  -5  -1 1414.43   60.78
   1  -5  -1 1431.56   69.14
  -1   5   1 1476.76   60.16
  -1   5   0 3955.83  141.76
  -1   5   0 3904.72  133.11
   1  -5   0 3683.20  144.78
   1  -5   0 3676.28  135.62
   1  -5   1 2840.61  105.75
  -1   5  -1 2770.69   96.11
  -1   5  -1 2919.97  104.10
   1  -5   1 2927.51  116.00
  -1   5  -1 2763.97  110.95
   1  -5   2  247.32   24.33
  -1   5  -2  231.14   15.06
  -1   5  -2  250.15   20.93
  -1   5  -2  238.90   21.96
  -1   5  -3 1189.70   48.60
   1  -5   3 1198.58   62.77
  -1   5  -3 1266.14   61.21
  -1   5  -3 1210.48   58.98
  -1   5  -4 2460.31   99.92
  -1   5  -4 2639.11  107.06
  -1   5  -4 2498.32   88.40
  -1   5  -4 2126.00   96.25
   1  -5   4 2406.35  101.90
   1  -5   4 2258.50   91.24
  -1   5  -5   18.12    7.14
   1  -5   5   14.29    6.03
  -1   5  -5   19.21    8.87
  -1   5  -5    9.33    4.60
  -1   5  -6   47.51    9.89
  -1   5  -6   48.04   12.36
  -1   5  -7   12.08    8.14
  -1   5  -7   13.67    8.08
  -1   5  -8  459.28   39.41
  -1   5  -8  474.27   34.22
  -1   5  -9  184.81   21.91
  -1   5  -9  173.14   25.03
  -1   5 -10   71.36   17.35
  -1   5 -10   63.53   13.71
  -1   5 -11  388.12   41.05
  -1   5 -11  338.14   32.89
  -1   5 -12  241.29   33.99
  -1   5 -12  244.26   29.27
  -1   5 -13  507.42   44.82
  -1   5 -14   63.21   19.50
  -1   5 -15  356.42   40.35
   1  -4 -15  518.82   63.90
   1  -4 -14  114.43   35.24
   1  -4 -13  904.98   78.06
   1  -4 -12 1356.78   93.73
   1  -4 -11  274.83   37.59
  -1   4  10 1674.88   72.38
   1  -4 -10 1787.21   99.58
  -1   4   9  288.51   22.09
   1  -4  -9  307.06   34.84
  -1   4   8 1769.82   72.04
   1  -4  -8 1886.87   92.97
   1  -4  -7   45.93   12.19
   1  -4  -6 1130.39   59.99
  -1   4   6 1020.17   51.25
  -1   4   5  459.52   26.47
  -1   4   5  434.27   26.52
   1  -4  -5  424.76   31.17
  -1   4   4  621.02   32.76
  -1   4   4  575.16   29.88
   1  -4  -4  573.66   34.63
  -1   4   3   25.76    7.21
  -1   4   3   13.99    5.40
  -1   4   3   19.57    4.42
   1  -4  -3   30.22    7.00
   1  -4  -2 1167.21   51.97
  -1   4   2 1237.18   54.11
  -1   4   2 1215.04   52.79
  -1   4   1  203.98   16.38
   1  -4  -1  200.77   16.95
  -1   4   1  229.21   18.94
  -1   4   0  319.14   20.90
   1  -4   0  306.30   22.21
   1  -4   1 2535.56   94.46
  -1   4  -1 2399.39   86.09
  -1   4  -1 2425.56   91.23
  -1   4  -2   78.18   11.85
  -1   4  -2   80.97    8.93
  -1   4  -2   81.37   11.88
   1  -4   2   79.41   12.21
  -1   4  -3  144.60   15.75
   1  -4   3  105.75   12.68
  -1   4  -3  145.95   17.17
  -1   4  -3  145.09   12.62
  -1   4  -4 2497.10   91.34
   1  -4   4 2411.06   94.17
  -1   4  -4 2371.23   95.08
  -1   4  -4 2690.68  103.78
  -1   4  -5  692.58   37.52
  -1   4  -5  723.62   35.88
   1  -4   5  729.07   39.92
  -1   4  -5  764.14   45.98
  -1   4  -6 1523.82   74.58
  -1   4  -6 1469.59   66.28
   1  -4   7  465.66   35.16
  -1   4  -7  521.86   34.86
  -1   4  -7  482.43   39.15
  -1   4  -7  498.81   37.44
   1  -4   7  501.33   28.77
  -1   4  -8 2288.28  104.50
   1  -4   8 2421.35   87.95
  -1   4  -8 2228.30  107.45
  -1   4  -8 2295.11   99.87
   1  -4   9   25.95    5.92
  -1   4  -9   34.90   11.26
  -1   4  -9   28.69   10.93
   1  -4  10  186.18   14.60
  -1   4 -10  221.59   25.44
  -1   4 -10  174.46   25.24
  -1   4 -11  110.69   21.20
  -1   4 -11  102.84   19.66
  -1   4 -12  318.99   34.63
  -1   4 -13   13.97   12.45
  -1   4 -14   26.10   14.76
  -1   4 -15   27.31   15.47
   1  -3 -15  495.17   63.32
   1  -3 -14  222.68   41.14
   1  -3 -13   28.75   17.33
   1  -3 -12   20.38   13.99
   1  -3 -11  284.56   39.12
   1  -3 -10  823.22   63.88
   1  -3  -9   19.66   11.73
  -1   3   9   27.30    7.63
  -1   3   8  427.56   26.24
   1  -3  -8  433.98   39.21
  -1   3   7  229.72   17.36
   1  -3  -7  233.08   26.10
   1  -3  -6 5119.66  189.63
  -1   3   6 5292.45  172.17
  -1   3   6 4746.30  177.86
  -1   3   6 5356.89  166.60
   1  -3  -5  348.95   27.75
  -1   3   5  400.99   20.59
  -1   3   5  369.37   24.46
   1  -3  -4 2433.28   98.31
  -1   3   4 2682.36   90.00
  -1   3   4 2467.11   92.32
   1  -3  -3   83.18   10.98
  -1   3   3   93.23    9.72
  -1   3   3  111.57   10.30
  -1   3   3   98.04   12.44
   1  -3  -2   87.33   10.65
  -1   3   2  110.78   10.75
  -1   3   2   87.53   10.71
   1  -3  -1 2721.73  100.06
  -1   3   1 2643.87   98.68
   1  -3   0 1302.41   56.16
  -1   3   0 1394.11   55.12
   1  -3   1 1996.61   78.00
  -1   3  -1 1815.69   71.11
  -1   3  -1 1986.02   76.01
  -1   3  -2 1525.24   60.74
  -1   3  -2 1656.39   63.20
  -1   3  -2 1609.77   70.10
   1  -3   3  113.04   13.07
  -1   3  -3  121.35   12.28
  -1   3  -3  124.76   12.11
  -1   3  -3  130.43   15.60
  -1   3  -4   97.12   10.02
  -1   3  -4   93.53   11.23
   1  -3   4  116.23   13.76
  -1   3  -4  117.12   14.20
  -1   3  -5  453.94   31.07
  -1   3  -5  454.96   29.00
   1  -3   5  463.75   31.17
  -1   3  -6  911.85   48.93
   1  -3   6  978.34   40.21
  -1   3  -6  947.54   51.46
   1  -3   7  918.14   51.49
  -1   3  -7  916.99   49.85
  -1   3  -7  785.23   47.77
  -1   3  -7  859.65   50.82
   1  -3   7  824.51   35.62
  -1   3  -8 1178.65   64.15
   1  -3   8 1098.05   43.83
  -1   3  -8 1175.83   62.09
  -1   3  -8 1134.01   61.50
  -1   3  -9 2193.11  100.89
   1  -3   9 2234.52   78.05
  -1   3  -9 2037.28  102.09
   1  -3  10  785.89   33.43
  -1   3 -10  833.38   54.56
  -1   3 -10  825.59   56.35
  -1   3 -11  114.17   20.34
  -1   3 -12 1238.97   75.72
  -1   3 -13  987.08   69.12
  -1   3 -14 1473.77   91.38
  -1   3 -15  471.80   49.71
   1  -2 -15  452.90   60.19
   1  -2 -14  537.99   62.56
   1  -2 -13  673.95   66.86
   1  -2 -12  193.67   34.14
   1  -2 -11 1486.21   95.55
   1  -2 -10  208.44   31.23
   1  -2  -9   50.51   15.02
   1  -2  -8  409.53   38.50
  -1   2   7   69.63    9.09
   1  -2  -7   57.70   13.65
  -1   2   6   27.83    7.41
   1  -2  -6   10.94    7.52
  -1   2   6   22.82    4.83
   1  -2  -5 2542.86  105.32
  -1   2   5 2744.17   85.31
  -1   2   5 2535.80   88.46
  -1   2   5 2409.87   96.42
  -1   2   4  539.58   29.58
  -1   2   4  582.00   23.54
   1  -2  -4  524.82   33.42
  -1   2   4  581.22   23.70
   1  -2  -3  125.74   13.42
  -1   2   3  109.90   10.53
   1  -2  -2 4080.48  139.59
   1  -2  -1 3136.52  109.40
   1  -2   0 4312.35  146.52
  -1   2  -1  248.68   14.63
   1  -2   1  244.52   20.48
  -1   2  -2 4133.89  140.49
  -1   2  -3  353.14   18.11
  -1   2  -3  344.59   22.21
  -1   2  -4 1412.01   61.16
  -1   2  -4 1531.37   60.38
  -1   2  -5 2544.46   99.74
  -1   2  -5 2656.76   97.60
  -1   2  -6 4150.87  156.28
   1  -2   6 4330.44  136.40
  -1   2  -6 4289.34  152.37
  -1   2  -7  490.93   33.76
   1  -2   7  568.99   37.78
  -1   2  -7  526.71   34.26
  -1   2  -7  533.22   37.02
   1  -2   7  476.97   20.71
  -1   2  -8   24.69    9.75
  -1   2  -8   16.51    7.48
   1  -2   8   12.28    3.24
  -1   2  -9  169.55   20.97
   1  -2   9  205.42   12.84
  -1   2  -9  207.35   25.73
  -1   2 -10  214.57   26.36
   1  -2  10  252.16   15.27
  -1   2 -10  263.78   29.81
  -1   2 -11  174.65   23.06
  -1   2 -11  206.67   27.68
  -1   2 -12   74.40   19.21
  -1   2 -13  -13.23   11.86
  -1   2 -14  450.08   47.93
  -1   2 -15  135.31   28.20
   1  -1 -15  -13.03   16.77
   1  -1 -14  439.73   57.14
   1  -1 -13  219.81   39.47
   1  -1 -12  827.32   72.81
   1  -1 -11   11.13   11.21
   1  -1 -10 1938.57  108.92
   1  -1  -9 1565.75   90.80
   1  -1  -8   49.08   14.01
   1  -1  -7 2874.26  126.13
   1  -1  -6  820.80   51.69
   1  -1  -5 3560.08  136.89
   1  -1  -4   17.75    6.24
   1  -1  -3 1984.28   78.16
   1  -1  -2  248.43   17.41
   1  -1  -1   31.59    5.85
   1  -1   0   34.22    6.16
   1  -1   0   33.29    3.33
   1  -1   1 2493.80   83.43
   1  -1   1 2611.08   95.10
  -1   1  -2  667.30   32.54
   1  -1   2  618.54   27.29
  -1   1  -3  143.90   14.03
   1  -1   3  150.34   12.03
  -1   1  -4  712.85   38.77
   1  -1   4  811.26   36.63
  -1   1  -5    7.23    3.66
  -1   1  -5    3.57    3.80
   1  -1   5    7.94    4.52
   1  -1   6  841.99   43.93
  -1   1  -6  893.22   40.07
  -1   1  -6  857.10   47.86
  -1   1  -7 1416.74   72.39
  -1   1  -7 1542.49   63.75
   1  -1   7 1527.52   68.41
  -1   1  -8  234.54   20.49
  -1   1  -8  190.94   23.65
  -1   1  -9 1491.33   69.39
  -1   1  -9 1542.16   80.81
  -1   1 -10 1000.57   60.37
  -1   1 -10  547.96   40.25
  -1   1 -11 1477.17   80.14
  -1   1 -11 1013.33   58.83
  -1   1 -12   26.73   13.43
  -1   1 -13  277.16   36.83
  -1   1 -14    1.72   14.62
  -1   1 -15  118.15   27.83
  -1   1 -16   52.04   22.86
   1   0 -15   91.80   30.35
   1   0 -14   -8.48   17.78
   1   0 -13  241.31   42.30
   1   0 -12  354.11   47.50
   1   0 -11   22.20   13.97
   1   0 -10    7.92   10.64
   1   0  -9  335.61   38.34
  -1   0   8  967.99   34.66
   1   0  -8  941.57   64.38
   1   0  -7 1182.80   72.04
  -1   0   7 1374.96   49.65
   1   0  -6   35.74    6.46
  -1   0   6   31.20    5.24
   1   0  -6   38.74   10.92
   1   0  -5  426.75   22.32
   1   0  -5  468.85   33.95
  -1   0   5  474.73   22.59
   1   0  -4 1768.30   73.52
   1   0  -4 1641.87   59.10
   1   0  -3 9999.00  322.59
   1   0  -2  268.11   17.85
   1   0  -1 2018.19   71.88
   1   0   0  250.57   15.13
   1   0   1 2779.54   99.42
  -1   0  -2  453.10   25.66
  -1   0  -2  421.45   17.50
  -1   0  -3  329.08   22.05
   1   0   3  326.03   14.06
  -1   0  -3  331.39   15.18
  -1   0  -4 5163.00  184.20
   1   0   4 5542.56  171.18
   1   0   4 5339.91  180.74
  -1   0  -5   34.57    8.67
   1   0   5   41.53    5.71
   1   0   5   38.60    7.84
  -1   0  -6  892.66   50.19
   1   0   6  947.47   47.09
  -1   0  -7    2.13    6.08
  -1   0  -7    6.13    3.34
   1   0   8   83.73   14.26
  -1   0  -8   87.81   16.65
  -1   0  -8   83.59   10.31
  -1   0  -9  178.03   24.88
  -1   0  -9  148.73   15.05
  -1   0 -10 1115.53   57.13
  -1   0 -10 1786.14   85.95
  -1   0 -11    8.53    5.66
  -1   0 -11    7.32    9.02
  -1   0 -12  477.32   47.08
  -1   0 -13 2322.45  124.44
  -1   0 -14  751.29   66.91
  -1   0 -15  152.07   31.64
  -1   0 -16  196.56   37.65
   1   1 -15  326.78   54.98
   1   1 -14  662.29   73.86
   1   1 -13 1314.56  101.86
   1   1 -12   68.52   23.84
   1   1 -11  390.13   47.27
   1   1 -10 2856.16  143.73
   1   1  -9   41.76   10.18
  -1  -1   9   29.05    5.40
   1   1  -9   21.40   10.52
  -1  -1   8  581.41   29.46
  -1  -1   7   30.91    6.88
  -1  -1   6 2209.83   84.13
   1   1  -6 2196.61   83.60
   1   1  -5  224.03   23.34
   1   1  -5  270.39   18.09
  -1  -1   5  264.90   18.62
  -1  -1   4    6.73    3.50
   1   1  -4    6.87    5.58
   1   1  -3 1396.41   59.35
   1   1  -2  204.00   15.11
   1   1  -1 1184.70   45.23
   1   1   0  374.07   18.19
   1   1   1  657.70   30.10
  -1  -1  -1  652.95   28.55
  -1  -1  -2  412.31   23.87
  -1  -1  -2  408.75   21.80
  -1  -1  -3 8163.11  275.43
  -1  -1  -3 8776.81  278.81
   1   1   3 8834.10  273.58
  -1  -1  -4  501.10   30.10
   1   1   4  471.05   25.51
   1   1   5  960.41   43.60
  -1  -1  -5 1009.43   50.60
  -1  -1  -6 1544.82   73.27
   1   1   6 1618.48   64.03
   1   1   7 1976.29   85.46
  -1  -1  -7 2138.87   93.63
  -1  -1  -8  683.05   30.49
   1   1   8  749.86   44.79
  -1  -1  -8  760.01   49.91
  -1  -1  -9 1447.12   76.23
  -1  -1  -9 1187.62   49.37
  -1  -1 -10  521.07   28.16
  -1  -1 -10 1087.12   63.39
  -1  -1 -11  124.00   23.38
  -1  -1 -12    9.17   12.46
  -1  -1 -13    0.20   13.43
  -1  -1 -14  219.76   36.33
  -1  -1 -15   63.47   23.86
  -1  -1 -16   17.48   18.02
   1   2 -15   59.51   28.60
   1   2 -14  145.14   36.91
   1   2 -13   34.64   22.33
   1   2 -12   -3.30   16.18
   1   2 -11  281.21   40.12
   1   2 -10   82.96   15.18
  -1  -2  10  104.52   11.57
   1   2  -9 1825.48   83.48
  -1  -2   9 1873.20   75.18
   1   2  -8   12.81    6.81
  -1  -2   8    8.64    5.53
  -1  -2   7 2481.53   97.91
  -1  -2   6 1141.40   56.02
  -1  -2   6 1209.27   55.65
  -1  -2   5  482.04   31.00
  -1  -2   4 3128.07  114.02
  -1  -2   4 3473.52  120.88
   1   2  -3  407.45   26.01
  -1  -2   3  426.63   22.78
  -1  -2   3  418.64   26.21
   1   2  -2 5441.64  182.53
  -1  -2   2 5746.06  187.54
   1   2  -1  740.44   31.59
  -1  -2   1  850.01   36.85
  -1  -2   1  776.92   31.37
  -1  -2   0 1175.56   41.31
   1   2   0 1155.21   41.98
  -1  -2   0 1233.81   49.83
  -1  -2  -1  471.07   20.69
  -1  -2  -1  457.51   26.19
  -1  -2  -1  485.67   24.49
  -1  -2  -2  276.20   17.59
   1   2   2  291.13   18.36
  -1  -2  -2  283.35   20.99
   1   2   3  211.40   18.18
   1   2   3  191.31   15.25
  -1  -2  -3  230.44   17.13
  -1  -2  -3  214.62   19.66
   1   2   4   13.37    4.96
   1   2   4   11.98    5.82
  -1  -2  -4   15.24    6.59
  -1  -2  -5  109.11   14.22
   1   2   5  101.54   13.01
   1   2   5   90.66   12.26
   1   2   6   37.62    9.15
  -1  -2  -6   25.98    8.63
   1   2   6   37.43    8.49
   1   2   7 3095.40  122.64
   1   2   7 3113.77  117.67
  -1  -2  -7 3253.17  127.92
   1   2   8   11.80    4.59
  -1  -2  -8   22.26    9.74
  -1  -2  -9  278.97   14.63
  -1  -2  -9  385.17   34.84
  -1  -2 -10  751.38   54.34
  -1  -2 -11  618.16   51.94
  -1  -2 -12 1264.83   81.98
   1   2  13  631.05   42.25
  -1  -2 -13  620.14   57.82
  -1  -2 -14 1553.88  101.49
  -1  -2 -15   33.62   17.63
  -1  -2 -16  175.49   37.08
   1   3 -15   48.21   24.71
   1   3 -14 1533.58  118.55
   1   3 -13  321.97   49.03
   1   3 -12  222.34   39.05
   1   3 -12  338.10   35.78
   1   3 -11   13.88    8.00
   1   3 -11   18.09   11.93
   1   3 -10  455.91   37.86
  -1  -3  10  467.26   31.40
  -1  -3   9 1248.96   61.78
   1   3  -9 1266.33   66.73
   1   3  -8    3.16    5.53
  -1  -3   8   12.59    7.05
  -1  -3   7   11.19    7.61
  -1  -3   6  501.73   32.19
  -1  -3   6  555.90   37.67
  -1  -3   5  846.30   43.18
  -1  -3   5  838.49   48.37
  -1  -3   4 1785.97   72.45
  -1  -3   4 1743.18   68.23
  -1  -3   4 1790.63   78.99
  -1  -3   3  142.73   14.47
  -1  -3   3  135.20   11.62
  -1  -3   3  134.21   16.33
  -1  -3   2 1171.00   51.56
   1   3  -2 1075.40   45.63
  -1  -3   2 1133.90   43.07
  -1  -3   2 1099.87   53.30
   1   3  -1 1552.08   55.95
  -1  -3   1 1601.83   66.51
  -1  -3   1 1633.40   68.90
   1   3   0 6588.17  205.08
  -1  -3   0 6565.52  221.10
  -1  -3   0 6705.67  222.62
  -1  -3  -1  886.57   44.51
  -1  -3  -1  935.45   37.07
  -1  -3  -1  878.78   46.30
  -1  -3  -2 3329.91  120.96
  -1  -3  -2 3191.65  125.84
   1   3   2 3443.40  114.39
  -1  -3  -2 3327.18  112.18
  -1  -3  -3   10.79    6.43
  -1  -3  -3    0.05    3.10
   1   3   3    3.80    3.44
  -1  -3  -4 1467.89   60.85
   1   3   4 1475.21   60.86
   1   3   4 1558.30   69.31
  -1  -3  -5 1364.97   60.34
   1   3   5 1358.63   64.24
   1   3   5 1320.87   58.85
   1   3   6 1181.02   56.68
   1   3   6 1142.08   58.81
  -1  -3  -6 1270.17   59.69
   1   3   7 1670.60   73.08
  -1  -3  -7 1480.26   63.48
  -1  -3  -7 1627.90   75.14
  -1  -3  -8  191.88   15.90
  -1  -3  -8  269.18   26.72
  -1  -3  -9   10.91    3.85
  -1  -3  -9   25.95   10.17
  -1  -3 -10  629.22   47.72
   1   3  10  635.11   42.44
  -1  -3 -11   56.96   15.27
   1   3  11   78.30   14.86
  -1  -3 -12  995.85   68.77
   1   3  12 1009.40   58.44
  -1  -3 -13  195.34   31.05
   1   3  13  199.25   23.82
  -1  -3 -14  297.57   40.95
  -1  -3 -15  845.48   70.99
  -1  -3 -16  228.47   38.74
  -1  -3 -16  211.56   41.21
   1   4 -14  100.50   32.75
   1   4 -13  119.17   34.66
   1   4 -13  190.17   30.30
   1   4 -12 1132.47   92.77
   1   4 -12 1410.17   81.87
  -1  -4  11   63.61   12.05
   1   4 -11   67.82   16.86
   1   4 -10  431.54   39.28
  -1  -4  10  522.35   37.22
   1   4  -9 1192.43   66.49
  -1  -4   9 1186.50   64.18
  -1  -4   8 2727.21  113.19
  -1  -4   8 2457.97  104.32
   1   4  -8 2634.49  110.90
  -1  -4   7  659.90   44.40
  -1  -4   7  577.98   37.69
  -1  -4   6  380.01   33.05
  -1  -4   6  426.77   28.74
  -1  -4   6  319.70   26.53
  -1  -4   5 3006.54  123.77
  -1  -4   5 2876.34  113.22
  -1  -4   4  440.83   34.81
  -1  -4   4  391.33   28.55
  -1  -4   4  396.62   24.25
  -1  -4   3  616.90   29.31
  -1  -4   3  623.79   42.07
  -1  -4   3  595.92   36.72
   1   4  -2  303.20   25.96
  -1  -4   2  292.89   24.19
   1   4  -2  266.91   17.60
  -1  -4   2  283.89   25.95
  -1  -4   2  281.89   15.95
  -1  -4   1    5.38    2.46
  -1  -4   1    1.57    5.33
   1   4  -1    3.42    1.89
  -1  -4   1    9.92    6.49
  -1  -4   0  147.67   17.34
  -1  -4   0  149.46   17.90
  -1  -4  -1  700.92   28.14
  -1  -4  -1  741.23   42.87
  -1  -4  -1  672.06   41.54
  -1  -4  -2   12.10    3.44
  -1  -4  -2   12.99    6.38
  -1  -4  -2   10.30    6.06
  -1  -4  -3    3.42    4.63
   1   4   3    3.01    2.90
  -1  -4  -3    6.24    6.80
  -1  -4  -3    4.96    3.30
   1   4   4 1609.37   64.08
  -1  -4  -4 1569.43   71.89
  -1  -4  -4 1675.23   64.44
   1   4   5 1615.84   66.09
  -1  -4  -5 1514.86   70.09
  -1  -4  -5 1641.00   67.09
   1   4   6 2831.52  104.31
  -1  -4  -6 2866.75  105.72
   1   4   7   13.93    6.25
  -1  -4  -7   15.05    5.99
  -1  -4  -7   26.36    8.56
  -1  -4  -8 1699.18   73.75
   1   4   8 1835.32   85.44
  -1  -4  -9   18.31    9.18
   1   4   9    9.86    7.88
  -1  -4  -9   10.31    4.94
   1   4  10  939.83   57.14
  -1  -4 -10  996.52   59.75
  -1  -4 -11  930.45   60.26
   1   4  11  846.36   54.68
   1   4  12 1241.85   69.75
  -1  -4 -12 1269.37   76.37
   1   4  13  531.45   42.05
  -1  -4 -13  501.41   47.24
  -1  -4 -14  140.20   26.70
  -1  -4 -15   10.71   13.46
  -1  -4 -15   12.26   19.31
  -1  -4 -16   75.61   25.74
   1   5 -14   25.69   17.47
   1   5 -14   -3.98   16.60
   1   5 -13  129.45   26.04
   1   5 -13  131.11   33.85
   1   5 -12  172.40   34.05
   1   5 -12  147.23   26.32
  -1  -5  11   84.78   16.94
   1   5 -11  105.46   20.92
  -1  -5  10   16.18    9.90
   1   5 -10   20.13   10.75
  -1  -5   9   30.54   11.26
   1   5  -9   20.86   11.26
  -1  -5   8  171.91   24.90
  -1  -5   7  102.17   18.91
  -1  -5   6 1677.10   85.19
  -1  -5   6 1675.70   70.65
  -1  -5   6 1546.94   75.84
  -1  -5   5   15.26    7.28
  -1  -5   5   15.81    9.37
  -1  -5   4 3755.58  156.17
  -1  -5   4 3766.34  132.03
  -1  -5   4 3949.06  146.48
   1   5  -3  971.61   60.72
  -1  -5   3  870.70   56.44
  -1  -5   3  891.36   51.12
  -1  -5   3  884.06   38.55
   1   5  -2  271.41   28.17
  -1  -5   2  275.96   25.47
  -1  -5   2  230.80   13.95
   1   5  -2  222.04   15.29
  -1  -5   2  243.08   26.76
   1   5  -1 2824.61   91.60
  -1  -5   1 2922.89  120.32
  -1  -5   1 2751.20   91.50
  -1  -5   1 3038.66  117.78
  -1  -5   0 1100.93   61.46
  -1  -5   0 1125.71   59.42
  -1  -5  -1 4093.15  129.91
  -1  -5  -1 4220.62  159.04
  -1  -5  -1 4349.50  159.58
  -1  -5  -2   56.22    5.54
  -1  -5  -2   68.09   14.46
  -1  -5  -2   57.30   12.54
  -1  -5  -3 2152.29   74.54
   1   5   3 2020.14   75.07
  -1  -5  -3 2147.75   71.99
  -1  -5  -3 1962.60   90.94
  -1  -5  -4   45.83   11.57
   1   5   4   61.56    8.04
  -1  -5  -4   56.87    8.12
  -1  -5  -5    0.15    5.53
  -1  -5  -5    7.65    4.62
   1   5   5   14.35    8.08
   1   5   5    8.49    4.71
   1   5   6   49.66    9.21
  -1  -5  -6   39.33   10.53
  -1  -5  -6   45.76    9.47
   1   5   6   27.53    8.71
   1   5   7  648.75   37.44
   1   5   7  600.22   43.52
  -1  -5  -7  657.64   38.49
  -1  -5  -7  556.26   38.79
  -1  -5  -8    2.20    5.82
  -1  -5  -8    9.45    8.39
   1   5   8    9.11    9.19
  -1  -5  -9   63.67   12.48
  -1  -5  -9   59.08   13.39
   1   5   9   70.30   15.27
  -1  -5 -10  752.69   38.16
   1   5  10  908.61   56.92
   1   5  11  145.40   22.37
  -1  -5 -11  182.26   24.63
   1   5  12  700.71   51.03
  -1  -5 -12  667.83   51.76
  -1  -5 -12  794.43   63.20
  -1  -5 -13  112.70   22.50
   1   5  13  129.36   21.24
  -1  -5 -13  142.07   28.53
  -1  -5 -14  153.78   26.90
  -1  -5 -14  203.80   36.04
  -1  -5 -15  959.87   81.55
  -1  -5 -15  808.49   65.55
  -1  -5 -16  498.55   60.87
   1   6 -14  160.58   34.23
   1   6 -14  151.67   30.80
   1   6 -13  617.27   65.02
   1   6 -13  599.90   56.66
   1   6 -12   -1.29   15.17
   1   6 -12    2.67   11.07
   1   6 -11 2074.84  109.24
   1   6 -11 2000.26  119.00
  -1  -6  11 2093.72  102.25
   1   6 -10  450.20   43.36
  -1  -6  10  476.87   42.28
   1   6  -9  218.07   28.35
  -1  -6   9  215.71   29.27
  -1  -6   8   24.22   12.80
  -1  -6   7  784.29   56.22
  -1  -6   6  908.54   45.78
  -1  -6   6  853.84   59.05
  -1  -6   5   13.23    9.68
  -1  -6   4   64.22   16.08
  -1  -6   4   60.89    8.37
   1   6  -3  273.21   31.24
  -1  -6   3  270.95   31.23
  -1  -6   3  261.43   16.78
   1   6  -2  294.15   32.64
   1   6  -2  250.48   15.66
  -1  -6   2  286.87   28.59
  -1  -6   2  266.72   30.85
  -1  -6   2  260.31   14.71
  -1  -6   1 1680.47   56.56
   1   6  -1 1924.10   93.82
  -1  -6   1 1634.09   87.36
  -1  -6   1 1688.56   82.86
  -1  -6   0  539.33   40.93
  -1  -6   0  578.95   45.26
  -1  -6  -1   14.23    8.89
  -1  -6  -2  825.12   29.49
  -1  -6  -2  886.44   56.10
  -1  -6  -3 5550.07  175.40
  -1  -6  -3 5553.44  210.84
  -1  -6  -3 5760.77  179.42
  -1  -6  -4   63.48   16.03
  -1  -6  -4   89.86    8.75
   1   6   4  108.53   18.56
   1   6   4   91.38    9.65
  -1  -6  -4   96.21    9.69
   1   6   5  858.85   41.92
  -1  -6  -5  925.00   57.78
  -1  -6  -5 1011.34   43.96
   1   6   5 1016.23   60.15
  -1  -6  -5  932.98   42.51
  -1  -6  -6   52.92   13.43
  -1  -6  -6   71.77   10.66
   1   6   6   50.05    8.96
   1   6   6   44.49   12.17
  -1  -6  -6   87.85   12.27
   1   6   7 2169.30  102.15
   1   6   7 2085.76   86.93
  -1  -6  -7 2010.94   98.24
  -1  -6  -7 2364.65   93.78
  -1  -6  -7 2259.67   89.77
  -1  -6  -8   58.84   13.35
  -1  -6  -8   93.56   14.93
   1   6   8   82.89   16.42
  -1  -6  -8   81.05   14.98
   1   6   9  191.25   24.88
  -1  -6  -9  164.28   22.69
  -1  -6  -9  167.91   20.74
  -1  -6  -9  139.45   19.59
  -1  -6 -10 1503.12   72.73
  -1  -6 -10 1651.15   82.45
  -1  -6 -11   53.73   16.27
  -1  -6 -11   19.79   12.55
   1   6  11   39.40   13.86
  -1  -6 -12  125.73   22.55
   1   6  12   97.79   19.71
  -1  -6 -12  150.83   27.57
  -1  -6 -13   -2.38   10.78
   1   6  13   -7.15    8.77
  -1  -6 -13  -23.61   14.87
  -1  -6 -14   46.83   16.73
  -1  -6 -14   56.94   23.70
  -1  -6 -15   50.92   17.86
  -1  -6 -15   89.45   27.43
   1   7 -14   -6.71   13.14
   1   7 -14   89.88   26.51
   1   7 -13   -4.87   13.73
   1   7 -13    4.88   15.09
  -1  -7  12   32.00   13.54
   1   7 -12    1.82   12.94
   1   7 -12   15.82   17.18
   1   7 -11 1219.40   80.39
   1   7 -11 1100.66   80.16
  -1  -7  11 1132.70   72.22
  -1  -7  10   28.52   12.53
   1   7 -10   25.44   14.25
   1   7 -10   30.29   14.80
  -1  -7   9  216.59   30.85
  -1  -7   8  617.29   51.60
  -1  -7   7 2869.72  134.46
  -1  -7   6  103.40   21.91
  -1  -7   5  766.84   38.82
  -1  -7   5  879.26   62.87
  -1  -7   4 2693.46   97.11
  -1  -7   4 2827.17  132.04
  -1  -7   3  260.17   15.93
  -1  -7   3  255.50   32.50
   1   7  -3  244.76   17.64
   1   7  -3  243.22   32.33
   1   7  -2  292.65   35.06
  -1  -7   2  325.77   15.65
  -1  -7   2  363.99   38.19
   1   7  -2  330.60   17.09
   1   7  -2  317.00   17.22
   1   7  -1   -0.66    7.84
  -1  -7   1   15.73    9.54
  -1  -7   0 3383.56  151.99
   1   7   0 3522.48  151.16
  -1  -7  -1   54.53   15.48
   1   7   1   71.95   16.66
   1   7   2  112.44   19.77
  -1  -7  -2  115.81   21.53
   1   7   3  397.23   36.45
  -1  -7  -3  373.27   37.84
  -1  -7  -4  116.15   22.09
   1   7   4  145.58   22.09
  -1  -7  -4  152.19   11.01
  -1  -7  -4  121.13    8.76
   1   7   5  482.62   40.98
  -1  -7  -5  474.80   24.15
  -1  -7  -5  462.98   41.74
  -1  -7  -5  501.14   25.73
   1   7   6  160.94   15.21
  -1  -7  -6  174.78   24.73
  -1  -7  -6  246.33   18.75
   1   7   6  215.69   27.33
  -1  -7  -6  217.74   17.95
   1   7   7   67.51   10.51
  -1  -7  -7   65.20   16.13
  -1  -7  -7   94.68   13.03
   1   7   7   67.75   16.04
  -1  -7  -7   64.26   11.22
  -1  -7  -8  314.22   25.77
   1   7   8  234.65   29.74
  -1  -7  -8  217.58   27.11
  -1  -7  -8  311.54   27.24
  -1  -7  -9 2432.45  118.69
  -1  -7  -9 3089.13  121.20
   1   7   9 2557.64  123.80
  -1  -7  -9 2857.62  114.10
  -1  -7 -10   30.12   10.59
   1   7  10   34.98   13.66
  -1  -7 -11  800.62   58.13
   1   7  11  677.36   54.20
  -1  -7 -11  779.69   52.32
  -1  -7 -12   13.18   10.89
   1   7  12  -10.34   13.04
  -1  -7 -12   22.30   11.42
   1   7  13  835.32   61.78
  -1  -7 -13  763.39   57.81
  -1  -7 -14  354.49   45.57
  -1  -7 -15  827.38   75.25
   1   8 -13  153.22   31.53
   1   8 -13  140.97   32.28
   1   8 -12  415.41   48.10
   1   8 -12  463.51   50.52
  -1  -8  12  477.54   46.65
  -1  -8  11  121.09   23.61
   1   8 -11  115.69   25.92
   1   8 -11  138.36   26.00
   1   8 -10  340.15   40.27
   1   8 -10  337.89   38.40
  -1  -8  10  390.57   41.52
   1   8  -9  265.66   31.29
  -1  -8   9  268.31   35.95
   1   8  -8   96.84   18.06
  -1  -8   8  110.22   24.08
  -1  -8   7    5.32    9.77
  -1  -8   6  146.60   26.94
  -1  -8   5   84.21   20.91
   1   8  -5   83.49   13.23
  -1  -8   4   15.73   12.70
  -1  -8   4    9.36    3.47
   1   8  -4   -4.00    4.28
  -1  -8   3 1003.62   70.59
   1   8  -3  938.08   41.85
  -1  -8   3 1043.37   38.79
   1   8  -3 1059.91   74.32
   1   8  -3  945.96   40.93
  -1  -8   2   30.17   16.04
   1   8  -2   14.94    2.54
   1   8  -2   11.21    2.33
   1   8  -2   24.54   13.31
  -1  -8   1 2465.17  125.51
   1   8  -1 2631.10  126.59
  -1  -8   0  654.59   55.85
   1   8   0  674.90   54.14
  -1  -8  -1  520.23   48.60
   1   8   1  595.70   49.17
  -1  -8  -2  486.12   46.44
   1   8   2  547.66   45.97
  -1  -8  -3  395.42   41.33
   1   8   3  386.09   37.68
  -1  -8  -4 3156.82  149.28
   1   8   4 3573.81  148.21
  -1  -8  -5  220.94   30.07
   1   8   5  233.23   29.12
  -1  -8  -5  207.41   12.84
   1   8   6  407.82   25.04
  -1  -8  -6  409.48   40.94
  -1  -8  -6  448.18   24.23
   1   8   6  467.69   42.70
  -1  -8  -7    4.70    4.80
  -1  -8  -7    1.64    8.63
  -1  -8  -7   20.40    7.12
   1   8   7   24.76   11.95
   1   8   8   83.53   18.55
  -1  -8  -8   70.05   16.63
  -1  -8  -8   82.25   12.78
  -1  -8  -8   88.19   13.37
  -1  -8  -9   34.00   12.92
   1   8   9   28.46   13.24
  -1  -8  -9   27.24   10.09
  -1  -8  -9   35.98   10.17
   1   8  10   56.28   16.14
  -1  -8 -10   85.78   15.57
  -1  -8 -10   84.67   16.36
   1   8  11    1.20   10.64
  -1  -8 -11   18.98   11.99
  -1  -8 -12   28.38   13.04
   1   8  12   40.10   15.98
   1   8  13  676.45   57.09
  -1  -9  11  205.15   32.43
   1   9 -11  204.98   33.99
   1   9 -11  148.90   26.42
  -1  -9  10  743.83   61.87
   1   9 -10  749.95   62.89
   1   9 -10  808.31   58.08
  -1  -9   9   35.62   16.58
   1   9  -9   41.49   13.60
  -1  -9   8 1380.79   91.02
   1   9  -8 1318.39   71.29
   1   9  -7  336.44   29.77
  -1  -9   7  330.53   40.74
   1   9  -6  498.16   34.42
  -1  -9   6  489.86   50.79
  -1  -9   5    7.61   13.05
   1   9  -5   16.10    6.01
  -1  -9   4  746.60   61.66
   1   9  -4  723.36   35.43
   1   9  -4  702.78   61.77
   1   9  -3  264.14   14.46
  -1  -9   3  282.24   37.63
   1   9  -3  220.09   32.99
  -1  -9   2   23.18   15.22
   1   9  -2   20.40   13.33
  -1  -9   1   10.86    9.84
   1   9  -1   17.36   12.27
  -1  -9   0  719.48   60.91
   1   9   0  773.95   60.31
  -1  -9  -1  264.83   36.60
   1   9   1  344.47   38.60
  -1  -9  -2  538.48   51.90
   1   9   2  590.06   50.31
   1   9   3  118.21   21.99
  -1  -9  -3  135.03   25.87
   1   9   4  394.34   39.51
  -1  -9  -4  342.84   40.57
  -1  -9  -5  928.80   68.63
   1   9   5 1026.85   67.29
  -1  -9  -6 1608.93   94.13
   1   9   6 1725.15   93.95
   1   9   7  287.38   34.99
  -1  -9  -7  273.45   34.21
   1   9   8 1433.29   85.10
  -1  -9  -8 1341.18   81.87
  -1  -9  -9  119.79   22.56
   1   9   9  151.67   26.24
   1   9  10 1040.73   72.63
   1   9  11  517.52   50.36
   1   9  12  531.61   51.68
   1   9  13   79.90   22.14
  -1 -10  11  223.18   35.68
  -1 -10  10  254.58   38.68
   1  10 -10  223.35   34.59
  -1 -10   9  279.57   39.37
  -1 -10   8  287.05   40.45
  -1 -10   7  143.50   29.46
  -1 -10   6 1176.93   84.55
  -1 -10   5    0.96   10.95
   1  10  -4  625.26   59.34
  -1 -10   4  699.50   61.79
   1  10  -3  825.38   68.25
  -1 -10   3  696.96   62.67
   1  10  -2 2386.79  126.17
  -1 -10   2 2297.01  126.66
  -1 -10   1  633.69   59.76
   1  10  -1  735.03   61.69
  -1 -10   0   11.85   11.06
   1  10   0   12.26   11.54
  -1 -10  -1 1122.90   81.45
   1  10   1 1216.57   79.21
  -1 -10  -2  156.50   29.57
   1  10   2  198.91   30.72
  -1 -10  -3  694.40   62.47
   1  10   3  812.86   61.51
  -1 -10  -4  147.85   28.05
   1  10   4  202.54   29.66
  -1 -10  -5  252.34   36.72
   1  10   5  298.39   35.21
   1  10   6   16.71   11.18
  -1 -10  -6    9.75   10.88
  -1 -10  -7  313.42   38.40
   1  10   7  352.98   39.34
  -1 -10  -8   58.95   18.06
   1  10   8   39.29   16.21
   1  10   9   45.48   17.98
   1  10  10  107.58   24.10
   1  10  11  362.01   41.41
   1  10  12  726.29   61.75
  -1 -11   9  410.88   50.89
  -1 -11   8   60.94   22.93
  -1 -11   7  658.86   62.95
  -1 -11   6  234.39   38.00
  -1 -11   5   65.11   23.36
  -1 -11   4  -21.45   14.76
   1  11  -3   39.15   18.04
  -1 -11   3    5.04   13.16
   1  11  -2   35.98   15.99
  -1 -11   2   31.08   15.98
  -1 -11   1   70.01   21.52
   1  11  -1   96.28   24.65
  -1 -11   0  355.16   45.27
   1  11   0  384.69   44.18
  -1 -11  -1   43.57   16.60
   1  11   1   54.09   18.83
  -1 -11  -2 1996.51  122.44
   1  11   2 2449.98  123.77
   1  11   3  215.83   33.12
  -1 -11  -3  226.38   35.43
  -1 -11  -4  348.83   44.92
   1  11   4  340.90   39.82
   1  11   5  380.03   42.06
  -1 -11  -5  371.45   45.16
  -1 -11  -6  418.73   47.33
   1  11   6  458.27   46.72
  -1 -11  -7  871.58   68.88
   1  11   7 1035.61   71.82
  -1 -11  -8   46.60   16.47
   1  11   8   72.74   21.24
   1  11   9  533.36   51.15
   1  11  10   45.50   16.12
  -1 -12   6   -1.40   12.26
  -1 -12   5  961.15   79.14
  -1 -12   4  140.61   30.05
   1  12  -3  308.83   42.64
  -1 -12   3  301.33   43.31
  -1 -12   2    6.53   13.87
   1  12  -2   29.80   16.01
  -1 -12   1  689.29   68.01
   1  12  -1  844.01   69.32
  -1 -12   0  379.13   49.73
   1  12   0  474.27   50.65
  -1 -12  -1   27.59   16.47
   1  12   1   15.05   14.07
  -1 -12  -2  113.79   27.89
   1  12   2  123.22   26.06
  -1 -12  -3  112.19   28.09
   1  12   3  147.62   28.38
  -1 -12  -4   21.24   14.98
   1  12   4   16.46   14.20
   1  12   5  413.71   45.81
  -1 -12  -5  319.22   43.82
   1  12   6  409.70   45.92
  -1 -12  -6  420.10   47.92
  -1 -12  -7   56.25   18.70
   1  12   7  112.50   23.89
   1  12   8  276.26   37.19
   1  13  -3  287.94   42.07
  -1 -13   3  248.54   40.80
  -1 -13   2   86.28   25.81
   1  13  -2   62.56   22.38
   1  13  -1 1460.05   97.29
  -1 -13   1 1238.24   97.06
  -1 -13   0   96.70   26.85
   1  13   0   64.71   23.39
  -1 -13  -1  772.35   73.87
   1  13   1  752.60   66.15
  -1 -13  -2  931.06   82.55
   1  13   2 1135.28   81.85
  -1 -13  -3  340.61   48.44
   1  13   3  409.77   47.75
  -1 -13  -4  111.85   28.77
   1  13   4  159.43   30.92
  -1 -13  -5   32.34   18.15
  -1 -13  -6 1009.35   79.02
  -1 -13  -7  -59.39   20.42
  -1 -14  -5  496.95   57.32
  -2  13   2  510.38   48.49
  -2  13   1    9.65   12.79
  -2  13   0  284.30   35.11
  -2  13  -1   20.48    9.56
  -2  13  -2   85.67   22.75
  -2  13  -3    6.75   10.37
  -2  13  -3    8.18   11.61
  -2  13  -4   15.34   12.68
  -2  13  -4   43.70   17.03
  -2  13  -5   68.44   19.75
  -2  12   5   42.29   16.48
  -2  12   4  199.05   30.94
  -2  12   3  636.37   53.60
  -2  12   2  688.33   55.41
  -2  12   1   24.64   13.34
  -2  12   0  419.81   42.38
  -2  12  -1   17.00   11.26
  -2  12  -2 1068.09   70.32
  -2  12  -3  124.04   22.91
  -2  12  -4  774.59   56.84
  -2  12  -4  508.82   47.81
  -2  12  -5  162.84   26.59
  -2  12  -5  207.44   30.34
  -2  12  -6  -17.60   12.73
  -2  12  -7   22.15   14.77
  -2  11   7  186.07   32.05
  -2  11   6   80.84   20.81
  -2  11   5  597.87   53.49
  -2  11   4    5.52   10.64
  -2  11   3   28.46   13.06
  -2  11   2  239.91   30.90
  -2  11   1   62.29   17.03
  -2  11   0   89.90   18.84
  -2  11  -1  139.60   23.81
  -2  11  -2    9.49   10.55
  -2  11  -3  299.33   33.64
  -2  11  -4  742.36   56.60
  -2  11  -4  861.72   59.98
  -2  11  -5  167.60   27.64
  -2  11  -5  185.92   26.82
  -2  11  -6  259.66   34.10
  -2  11  -6  236.31   30.03
  -2  11  -7   18.70   15.27
  -2  11  -8 1391.38   90.05
  -2  10   9  219.82   34.82
  -2  10   8   35.72   15.48
   2 -10  -7   21.93   11.06
  -2  10   7   27.89   15.19
   2 -10  -6 1018.69   57.80
  -2  10   6 1006.10   71.11
  -2  10   5  213.93   30.47
   2 -10  -5  231.61   24.41
  -2  10   4  376.30   39.39
   2 -10  -4  356.68   31.30
  -2  10   3  326.11   36.64
   2 -10  -3  386.56   32.98
   2 -10  -2 1618.84   76.79
  -2  10   2 1448.09   83.78
   2 -10  -1  758.33   46.64
  -2  10   1  687.61   52.72
  -2  10   0   47.01   14.16
  -2  10  -1  835.77   57.50
  -2  10  -2   53.42   15.38
  -2  10  -3  492.58   41.93
  -2  10  -4   85.58   17.87
  -2  10  -4  105.05   19.38
  -2  10  -5  182.15   26.45
  -2  10  -5  247.83   29.48
  -2  10  -6    3.43    8.91
  -2  10  -6   18.71    8.94
  -2  10  -7   14.74   10.52
  -2  10  -7    9.71    9.40
  -2  10  -8  174.78   29.75
  -2  10  -9   33.76   16.40
  -2  10 -10  185.47   32.77
   2  -9 -11  308.46   39.65
   2  -9 -10   12.62   12.56
   2  -9  -9  843.12   60.15
   2  -9  -8  436.27   39.42
   2  -9  -7  144.13   21.32
   2  -9  -6   92.40   16.82
   2  -9  -5   26.28   10.29
   2  -9  -4   16.85    7.02
   2  -9  -3  172.66   21.40
  -2   9   3  154.23   23.31
  -2   9   2    6.57    7.58
   2  -9  -2   10.40    8.80
  -2   9   1  131.04   12.58
  -2   9   1  144.90   22.33
   2  -9  -1  149.01   19.75
  -2   9   0  873.92   37.97
  -2   9   0  857.34   57.43
   2  -9   0  916.75   51.90
  -2   9  -1 1971.55   71.91
  -2   9  -1 2144.45   99.64
  -2   9  -2   22.29    5.03
  -2   9  -2   26.46   10.99
  -2   9  -3  200.57   14.56
  -2   9  -3  228.44   26.63
  -2   9  -4  108.08   11.10
  -2   9  -4  125.20   20.21
  -2   9  -4  121.79   19.61
  -2   9  -5 2045.57  100.82
  -2   9  -5 2166.79   99.09
  -2   9  -5 1995.68   77.69
  -2   9  -6  165.43   25.81
  -2   9  -6  139.33   21.96
  -2   9  -6  180.23   16.53
  -2   9  -7  769.76   53.86
  -2   9  -7  890.68   62.97
  -2   9  -7  861.58   43.64
  -2   9  -8  274.22   35.74
  -2   9  -8  250.05   21.98
  -2   9  -9  161.98   29.10
  -2   9  -9  112.63   15.74
  -2   9 -10   23.36    9.19
  -2   9 -10   28.73   16.86
  -2   9 -11   27.40    9.74
  -2   9 -11   19.95   14.56
   2  -8 -13  283.83   46.62
   2  -8 -12   50.13   18.31
   2  -8 -11  717.81   62.23
   2  -8 -10   47.20   17.78
   2  -8  -9  628.96   51.97
   2  -8  -8  162.75   24.86
   2  -8  -7 1566.39   83.09
   2  -8  -6  688.05   48.00
   2  -8  -5  223.25   25.30
   2  -8  -4 1163.88   61.71
  -2   8   4 1108.99   48.40
   2  -8  -3 1720.78   78.23
  -2   8   3 1573.52   61.99
   2  -8  -2  575.61   40.06
  -2   8   2  510.73   25.68
  -2   8   1  247.93   27.41
   2  -8  -1  229.82   25.41
  -2   8   1  254.34   23.57
  -2   8   0  890.65   41.15
  -2   8   0  912.33   48.89
   2  -8   0  811.05   49.75
  -2   8   0  822.90   53.85
  -2   8  -1    5.82    7.28
  -2   8  -1    8.37    4.32
  -2   8  -1    1.81    5.23
  -2   8  -2    4.69    7.99
  -2   8  -2   -1.37    3.22
  -2   8  -3   51.32    7.93
  -2   8  -3   57.91   13.17
  -2   8  -4   37.04   11.65
  -2   8  -4   55.12    8.46
  -2   8  -4   49.92   12.75
  -2   8  -5  163.19   15.41
  -2   8  -5  154.86   22.57
  -2   8  -5  160.77   21.01
  -2   8  -6 1506.65   63.29
  -2   8  -6 1390.77   79.53
  -2   8  -6 1363.72   74.13
  -2   8  -7  179.18   18.27
  -2   8  -7  194.53   27.71
  -2   8  -7  141.65   20.44
  -2   8  -8   -9.18   13.36
  -2   8  -8   19.87    8.24
  -2   8  -9  941.54   68.48
  -2   8  -9  896.58   50.34
  -2   8 -10  218.60   33.50
  -2   8 -10  209.57   23.36
  -2   8 -11  888.66   53.31
  -2   8 -11  941.73   74.18
  -2   8 -12  106.78   18.74
  -2   8 -12  114.56   28.56
  -2   8 -13  973.16   60.66
  -2   8 -14   43.19   15.64
   2  -7 -13  109.50   30.38
   2  -7 -12  582.44   59.74
   2  -7 -11  867.25   70.64
   2  -7 -10  200.56   31.00
   2  -7  -9   -3.09    9.52
   2  -7  -8    3.44    9.27
   2  -7  -7  100.35   19.08
   2  -7  -6   19.67   10.46
   2  -7  -5  304.70   29.51
   2  -7  -4  598.35   40.46
  -2   7   4  513.71   29.62
   2  -7  -3  311.14   27.88
  -2   7   3  305.49   20.17
  -2   7   2  651.80   41.18
   2  -7  -2  552.11   39.29
   2  -7  -1 1544.96   76.81
  -2   7   1 1628.74   73.66
   2  -7   0  225.58   25.22
  -2   7   0  298.21   25.00
  -2   7  -1 1934.81   87.39
  -2   7  -1 1878.34   74.49
   2  -7   1 1808.87   83.98
  -2   7  -1 1897.98   81.49
  -2   7  -2 1146.33   63.15
  -2   7  -2 1186.13   51.44
  -2   7  -2 1212.67   60.16
  -2   7  -3  337.46   22.23
  -2   7  -3  299.42   27.68
  -2   7  -3  339.33   29.64
  -2   7  -4  951.15   44.99
  -2   7  -4  923.69   55.16
  -2   7  -4 1008.50   55.57
  -2   7  -5    4.68    4.36
  -2   7  -5    0.46    6.34
  -2   7  -5    4.62    7.36
  -2   7  -6  519.18   31.69
  -2   7  -6  502.40   41.21
  -2   7  -6  417.14   34.28
  -2   7  -7   74.76   17.39
  -2   7  -7   66.08   11.86
  -2   7  -7   73.68   12.36
  -2   7  -8  182.65   26.68
  -2   7  -8  195.23   20.99
  -2   7  -9   17.58    9.12
  -2   7  -9    3.27    9.43
  -2   7 -10   48.97   18.96
  -2   7 -10   57.72   13.34
  -2   7 -11  116.10   18.74
  -2   7 -11  123.26   26.67
  -2   7 -12   56.06   20.74
  -2   7 -12   53.16   14.25
  -2   7 -13  263.73   30.29
  -2   7 -14    9.88   12.26
   2  -6 -13  349.39   49.30
   2  -6 -12  670.84   64.37
   2  -6 -11  229.81   36.55
   2  -6 -10 1393.72   88.95
   2  -6  -9    5.94    9.99
   2  -6  -8  200.06   28.22
   2  -6  -7   11.67   10.00
   2  -6  -6 2450.00  110.47
   2  -6  -5  642.73   44.99
  -2   6   4   11.14    5.95
  -2   6   4    5.36    4.51
   2  -6  -4    5.50    7.15
  -2   6   3  149.66   19.54
   2  -6  -3  124.94   18.16
  -2   6   3  146.54   17.97
  -2   6   2  462.12   33.25
  -2   6   2  462.38   34.18
   2  -6  -1   86.04   14.47
  -2   6   1   81.26   13.26
   2  -6   0    6.33    6.94
  -2   6   0    9.38    5.46
  -2   6  -1   16.71    6.26
   2  -6   1   19.28    9.21
  -2   6  -1   31.13    7.30
  -2   6  -2  371.71   28.17
  -2   6  -2  340.72   24.15
  -2   6  -2  388.71   29.83
  -2   6  -2  415.48   31.06
  -2   6  -3 1698.25   69.40
  -2   6  -3 1758.94   78.22
  -2   6  -3 1661.68   76.71
  -2   6  -3 1674.37   78.97
  -2   6  -4 3217.34  117.98
  -2   6  -4 3233.39  129.80
  -2   6  -4 3296.63  125.47
  -2   6  -5  261.82   21.08
  -2   6  -5  219.69   21.69
  -2   6  -5  226.00   25.34
  -2   6  -6  744.60   39.91
  -2   6  -6  707.23   49.05
  -2   6  -7  382.42   28.79
  -2   6  -7  334.37   23.99
  -2   6  -7  398.57   36.85
  -2   6  -8 2426.54  101.32
  -2   6  -8 2364.58  114.74
  -2   6  -9  218.00   30.47
  -2   6  -9  256.25   25.89
  -2   6 -10 1419.75   85.77
  -2   6 -10 1339.05   71.71
  -2   6 -11  239.41   34.45
  -2   6 -11  218.45   26.16
  -2   6 -12  288.00   31.49
  -2   6 -13    2.03    8.97
  -2   6 -14   47.12   15.88
  -2   6 -15  476.80   46.52
   2  -5 -13   41.11   19.93
   2  -5 -12   -3.33   12.94
   2  -5 -11   22.34   14.09
   2  -5 -10  380.95   42.82
   2  -5  -9    0.11    8.37
   2  -5  -8  573.29   47.63
  -2   5   7    2.00    4.05
   2  -5  -7   -4.70    9.08
  -2   5   6 2544.22   89.81
   2  -5  -6 2717.23  109.39
  -2   5   5   38.31    8.29
   2  -5  -5   50.82   13.33
   2  -5  -4 1659.28   78.13
  -2   5   4 1649.45   68.36
   2  -5  -3 2437.47  105.94
  -2   5   3 2795.40  109.72
   2  -5  -2 1666.83   78.88
  -2   5   2 1881.93   80.22
   2  -5  -1  911.21   52.02
  -2   5   1 1026.42   52.22
   2  -5   0  810.46   50.71
  -2   5   0  891.22   47.96
  -2   5  -1 3229.40  117.23
   2  -5   1 3012.23  125.94
  -2   5  -1 3217.96  122.15
  -2   5  -2  199.35   18.36
  -2   5  -2  214.35   20.07
  -2   5  -2  190.35   20.35
   2  -5   2  184.45   21.60
  -2   5  -3   55.62   10.49
  -2   5  -3   60.48   11.49
  -2   5  -3   55.80    9.85
  -2   5  -3   49.42   12.13
  -2   5  -4  640.03   36.28
  -2   5  -4  698.54   47.31
  -2   5  -4  626.48   36.70
  -2   5  -4  636.80   41.04
  -2   5  -5 1747.24   73.96
  -2   5  -5 1778.42   81.86
  -2   5  -5 1630.77   71.48
  -2   5  -6  104.37   17.47
   2  -5   6   98.60   16.41
  -2   5  -6   89.33   13.38
  -2   5  -6   91.10   12.07
  -2   5  -7  240.83   23.13
  -2   5  -7  200.06   25.56
  -2   5  -8   47.00   14.58
  -2   5  -8   57.39   13.07
  -2   5  -9  219.49   29.04
  -2   5  -9  239.95   25.96
  -2   5 -10  745.57   57.87
  -2   5 -10  796.80   52.32
  -2   5 -11  525.61   43.57
  -2   5 -12   88.19   19.16
  -2   5 -13   -8.87    9.65
  -2   5 -14 1590.03   91.30
  -2   5 -15   14.59   12.79
   2  -4 -14   46.25   21.50
   2  -4 -13 2465.02  144.62
   2  -4 -12  143.88   30.95
   2  -4 -11 1145.71   82.96
   2  -4 -10   18.69   11.32
   2  -4  -9 1502.92   88.65
   2  -4  -8  222.02   29.43
  -2   4   8  275.72   16.90
  -2   4   7   12.12    4.40
   2  -4  -7   21.37    9.61
   2  -4  -6  366.78   33.22
  -2   4   6  399.96   23.14
   2  -4  -5  333.83   29.89
  -2   4   5  340.06   21.84
  -2   4   4    6.04    3.30
  -2   4   4    3.92    4.05
   2  -4  -4    2.11    5.24
  -2   4   4   14.12    8.08
  -2   4   3  852.82   47.58
  -2   4   3  864.08   40.60
   2  -4  -3  750.33   45.49
  -2   4   3  761.73   29.61
  -2   4   2  109.36    8.99
  -2   4   2  127.00   16.04
  -2   4   2  123.30   13.69
   2  -4  -2  103.94   15.14
  -2   4   1   43.34    6.47
   2  -4  -1   30.44    9.18
  -2   4   1   35.22    9.19
  -2   4   0 1239.15   51.34
  -2   4   0 1318.10   60.57
   2  -4   0 1259.38   63.64
   2  -4   1  107.62   16.69
  -2   4  -1   83.56   10.38
  -2   4  -1   82.15   12.92
  -2   4  -2  911.57   47.94
  -2   4  -2  955.36   45.85
   2  -4   2  927.77   53.35
  -2   4  -2 1026.23   53.91
  -2   4  -3  654.95   38.24
  -2   4  -3  664.30   37.97
  -2   4  -3  721.28   46.76
  -2   4  -4 4157.43  149.85
  -2   4  -4 4335.51  165.35
  -2   4  -4 3978.41  143.46
  -2   4  -4 4251.50  152.02
  -2   4  -4 4133.36  150.93
  -2   4  -5 1194.35   56.78
  -2   4  -5 1138.91   64.69
  -2   4  -5 1042.34   48.58
  -2   4  -5 1223.69   59.35
  -2   4  -5 1131.08   58.37
  -2   4  -6  470.01   32.28
   2  -4   6  456.90   35.25
  -2   4  -6  385.38   21.14
  -2   4  -6  453.46   34.48
  -2   4  -7  657.14   45.42
  -2   4  -7  665.72   41.91
  -2   4  -8   82.68   16.80
  -2   4  -8   88.55   15.71
  -2   4  -9  991.35   58.56
  -2   4  -9  960.83   61.79
  -2   4 -10   26.57   10.33
  -2   4 -11  240.35   29.62
  -2   4 -12    6.07    8.47
  -2   4 -13   74.89   19.01
  -2   4 -14  344.41   39.73
  -2   4 -15   39.86   18.09
   2  -3 -14  187.92   39.15
   2  -3 -13  132.45   30.19
   2  -3 -12   43.39   20.06
   2  -3 -11   -1.95   13.21
   2  -3 -10  276.97   37.39
   2  -3  -9 2190.49  113.87
   2  -3  -8  366.76   37.48
  -2   3   8  406.03   18.94
   2  -3  -7  972.01   61.14
  -2   3   7  995.53   39.14
  -2   3   6    1.70    2.65
   2  -3  -6   10.61    7.72
   2  -3  -5  854.58   51.05
   2  -3  -4  178.84   20.29
  -2   3   4  189.57   21.00
  -2   3   3 2575.70  103.04
   2  -3  -3 2423.98  100.98
   2  -3  -2 2564.58  105.82
  -2   3   2 2802.51  106.77
   2  -3  -1  338.76   26.75
  -2   3   1  290.65   23.77
  -2   3   1  306.99   16.51
  -2   3   0  195.28   13.79
  -2   3   0  198.54   19.24
   2  -3   0  172.73   19.78
   2  -3   1  376.43   31.75
  -2   3  -1  390.47   22.57
  -2   3  -1  357.35   27.77
  -2   3  -2    5.92    4.78
  -2   3  -2    5.52    4.77
   2  -3   2   -2.42    5.52
  -2   3  -2    0.66    3.52
  -2   3  -3   23.89    7.07
  -2   3  -3   25.92    8.20
  -2   3  -3   22.29    9.61
  -2   3  -4   98.84   14.26
  -2   3  -4  102.22   17.48
  -2   3  -4  111.60   14.19
  -2   3  -5   70.02   10.71
  -2   3  -5   65.19    7.39
  -2   3  -5   64.89   13.92
  -2   3  -5   79.15   13.17
  -2   3  -6 1239.26   61.29
   2  -3   6 1288.24   67.59
  -2   3  -6 1084.69   55.82
  -2   3  -7 3915.22  146.92
  -2   3  -7 3729.48  142.70
  -2   3  -8  394.58   33.48
  -2   3  -8  413.23   32.78
  -2   3  -9  525.75   41.40
  -2   3 -10 1109.10   67.16
  -2   3 -11 2257.99  110.95
  -2   3 -12  296.59   35.30
  -2   3 -13 1280.19   81.87
  -2   3 -14   73.71   20.41
  -2   3 -15  208.35   33.61
   2  -2 -14  376.72   54.51
   2  -2 -13  242.42   43.00
   2  -2 -12  302.57   44.29
   2  -2 -11  155.62   30.22
   2  -2 -10   71.37   19.42
   2  -2  -9  -26.41   13.16
   2  -2  -8  452.17   42.55
  -2   2   8  397.23   19.17
   2  -2  -7   60.67   16.34
   2  -2  -6  321.73   31.08
   2  -2  -5 1043.93   57.91
  -2   2   5 1016.62   50.77
   2  -2  -4  861.89   49.16
   2  -2  -3 3319.53  127.03
   2  -2  -2   11.93    6.53
   2  -2  -1 4208.06  153.37
   2  -2   0   69.27    6.82
   2  -2   0   77.69   13.15
   2  -2   1 1115.14   44.83
   2  -2   1 1265.20   63.42
  -2   2  -2 2756.96  109.80
   2  -2   2 2751.39  115.54
   2  -2   2 2761.08   96.85
   2  -2   3 4554.66  158.19
  -2   2  -3 4979.71  172.91
  -2   2  -4 2028.76   84.88
   2  -2   4 1841.60   75.50
  -2   2  -5  114.53   16.12
   2  -2   5   87.29   12.10
  -2   2  -6  936.63   51.98
   2  -2   6  975.98   56.42
   2  -2   6  804.56   45.80
  -2   2  -7  132.78   18.47
  -2   2  -7  121.96   14.44
  -2   2  -8   36.88    9.13
  -2   2  -8   54.75   13.04
  -2   2  -9  203.46   25.64
  -2   2  -9  236.77   23.12
  -2   2 -10  260.45   26.21
  -2   2 -10  243.37   30.04
  -2   2 -11  253.08   32.39
  -2   2 -12 1305.89   81.97
  -2   2 -13  153.43   27.85
  -2   2 -14   -9.68   14.08
  -2   2 -15  411.60   47.88
   2  -1 -14   16.20   21.69
   2  -1 -13  637.12   71.04
   2  -1 -12 1248.72   97.31
   2  -1 -11  671.36   65.65
   2  -1 -10 1365.37   92.29
  -2   1   9   40.20    4.92
   2  -1  -9   63.49   19.49
   2  -1  -8 4792.51  197.06
  -2   1   8 4753.26  157.27
   2  -1  -7  466.97   41.58
   2  -1  -6 1390.43   74.19
   2  -1  -5 1389.39   70.11
   2  -1  -4  397.00   30.49
   2  -1  -3   62.82   11.25
   2  -1  -2   33.90    8.17
   2  -1  -1  489.04   31.20
   2  -1   0   56.14   10.32
   2  -1   1  254.42   23.57
   2  -1   2  228.42   16.51
   2  -1   2  195.17   21.74
   2  -1   3 1679.01   66.98
  -2   1  -3 1727.48   79.12
  -2   1  -4  370.53   30.22
   2  -1   4  359.98   24.89
  -2   1  -5 1043.11   55.68
   2  -1   5  982.88   49.02
  -2   1  -6  522.86   38.04
   2  -1   6  484.83   32.87
  -2   1  -7 3308.43  134.50
  -2   1  -8 1714.49   85.25
  -2   1  -9  308.39   32.89
  -2   1  -9  331.51   25.44
  -2   1 -10  272.69   24.38
  -2   1 -10  306.00   34.71
  -2   1 -11   55.14   12.41
  -2   1 -11   62.58   18.35
  -2   1 -12  584.36   53.44
  -2   1 -13   20.96   16.17
  -2   1 -14  398.53   47.07
  -2   1 -15   -2.42   14.23
  -2   1 -16   28.63   18.98
   2   0 -14   86.38   34.05
   2   0 -13  502.32   63.65
   2   0 -12   32.97   21.42
   2   0 -11  299.67   43.62
   2   0 -10  115.92   28.25
  -2   0   9    0.09    4.16
   2   0  -9    5.27    9.13
  -2   0   8   51.18    8.78
   2   0  -8   63.57   17.72
   2   0  -7 1260.36   74.54
   2   0  -7 1272.01   52.44
  -2   0   7 1240.27   54.95
   2   0  -6 1477.60   55.80
   2   0  -6 1321.92   74.07
   2   0  -5   93.72    8.69
   2   0  -5   85.43   14.97
   2   0  -4 3880.29  145.23
   2   0  -3  347.04   26.00
   2   0  -2  294.82   22.99
   2   0  -1    2.89    3.72
   2   0   0 2976.11  110.76
   2   0   1  935.14   48.61
   2   0   2   52.01   10.61
  -2   0  -3   82.40   14.03
  -2   0  -4 1227.22   62.11
  -2   0  -4 1136.13   45.38
  -2   0  -5   77.66    8.65
  -2   0  -5  111.64   17.05
  -2   0  -6  151.66   20.20
   2   0   6  130.99   15.97
  -2   0  -7   85.17   16.16
  -2   0  -8   83.91   16.98
  -2   0  -9 1000.23   64.15
  -2   0 -10 1844.49   78.58
  -2   0 -10 2067.06  103.63
  -2   0 -11  329.91   26.72
  -2   0 -11  354.09   39.97
  -2   0 -12  436.85   46.52
  -2   0 -13 1048.90   78.00
  -2   0 -14 1600.07  102.76
  -2   0 -15   24.76   16.61
  -2   0 -16  510.76   58.89
   2   1 -14 1140.66  103.24
   2   1 -13  529.05   64.79
   2   1 -12  265.97   44.39
   2   1 -11  310.47   46.11
   2   1 -10  172.82   32.26
  -2  -1  10  180.55   16.48
   2   1  -9 1152.82   81.55
  -2  -1   9 1264.40   58.36
   2   1  -8 1012.39   70.36
  -2  -1   8 1014.49   50.79
  -2  -1   7   17.54    7.81
   2   1  -7   23.02    6.17
   2   1  -7   12.45    9.71
  -2  -1   6   79.07   11.93
   2   1  -6  101.68   18.04
   2   1  -5  105.82   17.42
   2   1  -4  593.70   38.10
   2   1  -3   10.88    5.57
   2   1  -2  321.94   23.39
   2   1  -1   10.70    4.96
  -2  -1   1    7.00    3.99
  -2  -1   0 6994.85  218.32
   2   1   0 6176.45  217.85
   2   1   1  535.93   33.07
  -2  -1  -1  574.40   31.32
  -2  -1  -2 2744.31   97.43
  -2  -1  -2 2961.16  106.77
  -2  -1  -3 1555.44   72.67
  -2  -1  -3 1704.95   74.82
  -2  -1  -3 1676.46   64.75
  -2  -1  -4 2454.14  102.01
  -2  -1  -4 2593.54  103.69
  -2  -1  -4 2503.85   93.46
   2   1   5  280.06   18.52
  -2  -1  -5  239.09   24.27
  -2  -1  -5  243.42   20.53
  -2  -1  -6 1931.29   87.80
   2   1   6 1774.79   68.83
  -2  -1  -7 5591.57  200.39
   2   1   7 5181.71  175.18
  -2  -1  -8 1098.30   63.73
   2   1   8  935.83   42.60
   2   1   9  127.96   12.84
  -2  -1  -9  134.23   22.61
  -2  -1 -10  111.99   22.02
   2   1  10  110.04   11.95
  -2  -1 -11  627.89   36.65
   2   1  11  722.24   35.18
  -2  -1 -11  789.14   61.69
  -2  -1 -12  -12.01   13.60
  -2  -1 -13   33.90   20.26
  -2  -1 -14    8.10   18.37
  -2  -1 -15   75.73   25.32
  -2  -1 -16  550.05   63.15
   2   2 -14  421.15   62.99
   2   2 -13   -6.51   16.37
   2   2 -12  182.58   37.36
   2   2 -11  412.59   35.93
   2   2 -11  352.54   49.02
  -2  -2  10 3045.77  115.36
   2   2 -10 2886.65  120.60
   2   2  -9  587.92   38.70
   2   2  -9  460.83   49.32
  -2  -2   9  528.45   36.74
  -2  -2   8  104.12   15.83
   2   2  -8  111.45   22.92
   2   2  -7 3439.34  152.76
  -2  -2   7 3679.39  137.86
   2   2  -6  756.51   52.25
  -2  -2   6  789.06   44.76
   2   2  -5 2499.16  110.67
  -2  -2   5 2797.46  103.87
  -2  -2   5 2668.48  105.63
   2   2  -4   45.33   11.27
   2   2  -3 4820.35  169.45
   2   2  -2  105.50   12.70
  -2  -2   2  104.41   12.03
   2   2  -1   49.15    8.31
  -2  -2   1   47.55    7.84
  -2  -2   0 1263.40   56.18
   2   2   0 1284.01   54.92
  -2  -2   0 1374.38   54.03
  -2  -2  -1  673.81   35.77
   2   2   1  670.47   36.19
  -2  -2  -1  717.54   33.69
  -2  -2  -2  805.22   42.38
  -2  -2  -2  812.70   39.01
   2   2   2  746.35   39.65
  -2  -2  -2  751.51   39.04
   2   2   3  680.92   37.28
  -2  -2  -3  661.25   38.81
  -2  -2  -3  706.09   38.71
  -2  -2  -3  678.31   37.14
   2   2   4  394.65   26.67
  -2  -2  -4  359.64   27.49
   2   2   4  379.95   29.29
  -2  -2  -4  353.52   27.20
  -2  -2  -4  372.61   27.75
  -2  -2  -5  144.82   17.52
   2   2   5  138.10   17.62
  -2  -2  -5  134.59   17.72
   2   2   5  139.30   15.19
  -2  -2  -6 1041.82   57.42
   2   2   6 1112.66   58.86
   2   2   6 1066.34   51.54
  -2  -2  -7    7.73    8.61
   2   2   7    2.48    4.44
  -2  -2  -8 1140.77   65.02
   2   2   8 1059.28   52.52
  -2  -2  -9  144.94   23.46
   2   2   9  120.49   14.92
   2   2  10 2192.60   91.08
  -2  -2 -10 2411.61  115.28
   2   2  11 1074.95   54.42
  -2  -2 -11 1208.49   77.53
   2   2  12  607.40   36.82
  -2  -2 -12  617.54   55.42
  -2  -2 -13  181.72   32.16
  -2  -2 -14   20.51   14.97
  -2  -2 -15  521.93   57.74
  -2  -2 -16    2.61   14.81
   2   3 -14   42.54   24.20
   2   3 -13  402.82   58.29
   2   3 -12  985.11   64.78
   2   3 -12  883.06   84.45
   2   3 -11   77.96   17.19
   2   3 -11   88.41   25.68
   2   3 -10  459.74   37.60
  -2  -3  10  454.33   35.27
  -2  -3   9    8.96    7.06
   2   3  -9    3.74    6.70
   2   3  -9   15.73   11.26
  -2  -3   8   38.64   10.23
   2   3  -8   32.29   13.59
   2   3  -7  287.22   33.41
  -2  -3   7  324.42   29.71
   2   3  -6  202.67   25.37
  -2  -3   6  215.74   23.22
   2   3  -5  400.89   32.89
  -2  -3   5  412.05   28.10
  -2  -3   5  381.61   30.98
   2   3  -4  932.25   50.96
  -2  -3   4  991.05   53.59
   2   3  -3 2088.48   84.45
  -2  -3   3 2106.32   89.01
  -2  -3   2  160.97   16.96
   2   3  -2  165.51   15.49
  -2  -3   2  177.34   15.44
  -2  -3   1 2217.56   89.21
   2   3  -1 2122.83   82.32
  -2  -3   1 2317.35   82.28
  -2  -3   0 1045.78   42.93
   2   3   0 1065.08   45.49
  -2  -3   0 1018.19   50.95
  -2  -3  -1 2149.66   76.62
   2   3   1 2146.99   80.80
  -2  -3  -1 2073.62   86.39
  -2  -3  -2  243.72   19.64
  -2  -3  -2  194.64   14.59
  -2  -3  -2  223.60   20.66
   2   3   3 2497.44  100.68
  -2  -3  -3 2441.68   94.87
  -2  -3  -3 2393.22   91.93
  -2  -3  -3 2498.56  100.98
  -2  -3  -4 2060.29   85.54
   2   3   4 2146.85   89.38
  -2  -3  -4 2261.65   87.04
  -2  -3  -4 1966.64   90.25
   2   3   4 2242.67   92.24
  -2  -3  -5   93.70   15.72
  -2  -3  -5   74.99   12.24
   2   3   5   83.23   13.03
   2   3   5   74.23   13.37
  -2  -3  -6  372.16   29.44
   2   3   6  401.58   31.25
   2   3   6  428.58   32.13
  -2  -3  -7 1055.46   57.46
  -2  -3  -8   50.29   11.93
  -2  -3  -9   32.16   12.03
  -2  -3 -10  626.20   49.19
  -2  -3 -11   91.17   19.32
  -2  -3 -12  319.06   37.24
  -2  -3 -13 1096.12   75.50
  -2  -3 -14  224.64   34.31
  -2  -3 -15  479.48   52.70
  -2  -3 -16  958.68   79.28
   2   4 -14   39.32   23.53
   2   4 -13  475.90   47.92
   2   4 -13  441.01   60.83
   2   4 -12   -3.12    9.57
   2   4 -12   -0.48   13.47
   2   4 -11 1629.71  112.85
   2   4 -11 1778.19   93.78
  -2  -4  11 1839.01   88.03
   2   4 -10  198.89   25.93
  -2  -4  10  240.17   27.24
   2   4 -10  186.54   33.79
   2   4  -9  192.90   24.13
  -2  -4   9  229.33   26.94
   2   4  -9  167.81   28.59
  -2  -4   8  660.81   48.25
   2   4  -8  599.53   52.40
   2   4  -7  651.59   50.61
  -2  -4   7  682.93   49.14
   2   4  -6  687.81   48.88
  -2  -4   6  730.74   49.01
  -2  -4   5   27.28    7.41
  -2  -4   5   39.55   11.47
   2   4  -5   31.53    9.74
   2   4  -4  575.71   36.57
  -2  -4   4  586.65   41.48
  -2  -4   3  259.66   24.26
   2   4  -3  262.64   20.95
  -2  -4   3  252.69   18.57
  -2  -4   3  223.00   23.92
   2   4  -2 1196.66   52.14
  -2  -4   2 1261.67   64.22
  -2  -4   2 1180.82   59.81
  -2  -4   1    7.94    7.70
  -2  -4   1    0.84    4.83
   2   4  -1    3.47    2.62
   2   4   0  148.82   12.02
  -2  -4   0  134.67   10.75
  -2  -4   0  139.33   17.27
   2   4   1  995.73   41.37
  -2  -4  -1  979.28   38.41
  -2  -4  -1  986.15   53.12
  -2  -4  -2  844.74   40.71
  -2  -4  -2  797.99   33.91
  -2  -4  -2  881.77   50.07
  -2  -4  -3 2270.33   85.69
  -2  -4  -3 2156.25   80.43
  -2  -4  -3 2271.52   98.06
  -2  -4  -4   36.60   10.16
  -2  -4  -4   41.90    8.40
  -2  -4  -4   52.81    8.79
  -2  -4  -5 5043.24  180.55
   2   4   5 5199.96  184.65
  -2  -4  -5 5575.35  202.46
  -2  -4  -6   24.00    7.87
   2   4   6   33.68    9.43
  -2  -4  -7  585.78   38.29
  -2  -4  -8 1610.74   78.91
   2   4   8 1737.51   83.72
   2   4   9 2652.63  115.32
  -2  -4  -9 2615.33  114.76
   2   4  10 1079.29   63.02
  -2  -4 -10 1132.93   57.32
  -2  -4 -10 1016.67   63.50
  -2  -4 -11   14.03    9.00
  -2  -4 -11   30.97    9.05
   2   4  11   24.99   10.74
   2   4  12  507.18   40.20
  -2  -4 -12  488.93   44.96
  -2  -4 -13  311.07   36.59
  -2  -4 -14   99.45   23.64
  -2  -4 -15  303.89   40.41
   2   5 -14   63.36   28.59
   2   5 -13   65.51   25.22
   2   5 -13   84.71   21.01
   2   5 -12  276.18   34.93
   2   5 -12  269.95   45.06
  -2  -5  11   28.73   11.59
   2   5 -11   29.07   16.54
   2   5 -11   38.74   14.41
   2   5 -10  279.75   31.98
  -2  -5  10  333.97   34.37
   2   5 -10  255.88   38.40
   2   5  -9  907.74   69.21
  -2  -5   9  987.80   64.16
  -2  -5   8   20.02   11.74
   2   5  -8   22.73   11.91
  -2  -5   7 2050.88  103.68
   2   5  -7 1944.11   98.59
   2   5  -6 2025.74   95.80
  -2  -5   6 2105.04  102.84
   2   5  -5 2260.54   95.59
  -2  -5   5 2159.65  102.84
  -2  -5   5 2154.08   86.22
   2   5  -4 1232.23   58.64
  -2  -5   4 1234.50   69.18
   2   5  -3  164.04   15.75
  -2  -5   3  165.31   14.31
  -2  -5   3  157.83   21.49
   2   5  -2 6195.06  202.50
  -2  -5   2 6008.94  223.95
   2   5  -1  785.26   34.35
  -2  -5   1  717.03   48.64
   2   5   0 2207.87   77.86
  -2  -5   0 2275.57   98.45
  -2  -5   0 2308.20  101.65
  -2  -5  -1  292.25   28.32
  -2  -5  -1  330.18   20.99
  -2  -5  -1  279.81   13.88
  -2  -5  -1  295.45   28.34
  -2  -5  -2  341.82   21.72
  -2  -5  -2  356.45   32.00
  -2  -5  -2  339.37   15.90
  -2  -5  -2  356.51   30.90
  -2  -5  -3  137.15   13.02
  -2  -5  -3  135.75   19.84
  -2  -5  -3  131.56   10.01
   2   5   3  134.55   21.49
  -2  -5  -3  161.53   20.41
  -2  -5  -4  411.19   37.16
  -2  -5  -4  358.07   23.37
   2   5   4  328.45   33.75
  -2  -5  -4  359.28   22.11
  -2  -5  -4  363.01   32.01
  -2  -5  -5  688.94   37.03
   2   5   5  708.34   40.33
   2   5   5  756.26   52.43
  -2  -5  -5  686.82   46.28
  -2  -5  -6    8.15    5.37
  -2  -5  -6   18.49    9.03
   2   5   6   14.27    6.47
   2   5   6   13.81    9.75
  -2  -5  -7  278.37   24.99
   2   5   7  268.73   30.59
  -2  -5  -7  321.86   29.89
  -2  -5  -8  128.47   17.77
   2   5   8  157.48   22.87
  -2  -5  -8  152.74   20.96
   2   5   9  435.95   39.72
  -2  -5  -9  527.25   38.43
  -2  -5  -9  506.15   38.54
  -2  -5 -10    3.26    7.36
  -2  -5 -10   10.74    6.16
   2   5  10    4.33    8.58
   2   5  11  474.07   40.73
  -2  -5 -11  411.80   31.06
  -2  -5 -11  463.39   39.79
  -2  -5 -12   64.34   16.45
   2   5  12   58.55   14.27
  -2  -5 -13 1059.94   69.65
  -2  -5 -14  410.48   43.20
  -2  -5 -15  341.95   40.07
   2   6 -13  395.80   44.84
   2   6 -13  413.26   54.54
   2   6 -12  652.24   56.97
   2   6 -12  611.64   63.91
  -2  -6  11   98.76   21.02
   2   6 -11   80.67   20.27
   2   6 -11  106.46   26.15
   2   6 -10 1094.27   71.70
   2   6 -10 1169.19   81.45
  -2  -6  10 1154.72   74.74
   2   6  -9  780.46   61.51
  -2  -6   9  819.97   60.41
  -2  -6   8   16.12   13.12
   2   6  -8   12.17   11.27
   2   6  -7 1048.20   64.39
  -2  -6   7 1160.07   74.91
  -2  -6   6   58.66   16.97
   2   6  -6   53.42   12.95
  -2  -6   5  158.40   25.00
   2   6  -5  150.32   18.19
  -2  -6   5  128.07   14.61
  -2  -6   4  160.65   24.42
   2   6  -4  183.65   17.82
  -2  -6   3  108.99   20.19
   2   6  -3  108.98   12.01
  -2  -6   3  107.05   11.14
   2   6  -2  293.53   18.35
  -2  -6   2  261.84   17.34
  -2  -6   2  298.98   31.58
   2   6  -1 1774.16   63.30
  -2  -6   1 1727.22   89.69
   2   6   0 1345.84   79.85
  -2  -6   0 1051.07   66.02
  -2  -6  -1   83.98    9.35
  -2  -6  -1   67.42   14.99
   2   6   1   82.92   19.66
  -2  -6  -2 1294.26   51.47
  -2  -6  -2 1292.80   72.49
   2   6   2 1392.20   81.70
  -2  -6  -3  555.98   27.54
  -2  -6  -3  521.60   20.67
   2   6   3  611.77   49.33
  -2  -6  -3  498.69   41.69
  -2  -6  -4  893.74   40.12
  -2  -6  -4  850.89   36.05
   2   6   4  890.88   62.08
  -2  -6  -4  885.03   57.01
  -2  -6  -5  272.08   20.96
  -2  -6  -5  326.31   22.07
   2   6   5  330.34   36.13
  -2  -6  -5  303.36   32.33
  -2  -6  -6 1275.74   57.36
   2   6   6 1102.30   56.69
   2   6   6 1363.29   78.47
  -2  -6  -6 1274.06   71.95
   2   6   7  478.34   34.56
   2   6   7  618.63   49.53
  -2  -6  -7  564.92   44.17
  -2  -6  -7  583.78   36.76
  -2  -6  -8   21.96    9.82
  -2  -6  -8   26.23    8.87
   2   6   8   20.82   12.55
  -2  -6  -9   13.25    7.25
  -2  -6  -9   23.28    9.16
   2   6   9    7.74    9.55
   2   6  10  661.35   51.78
  -2  -6 -10  592.32   43.62
  -2  -6 -10  658.93   45.81
  -2  -6 -11   32.25   12.84
   2   6  11   23.61   11.08
  -2  -6 -12   15.93   12.04
   2   6  12   27.42   12.31
   2   6  13  405.33   39.75
  -2  -6 -13  400.11   39.75
  -2  -6 -14    9.33   12.97
  -2  -6 -15  273.52   36.50
  -2  -6 -15  390.20   48.81
   2   7 -13   69.25   22.74
   2   7 -13   37.90   19.52
   2   7 -12   72.05   22.89
   2   7 -12   54.31   18.71
  -2  -7  11   10.83   10.44
   2   7 -11    6.50   11.83
  -2  -7  10  418.27   44.26
   2   7 -10  456.56   47.34
  -2  -7   9   12.89   11.38
   2   7  -9    1.88    8.89
   2   7  -8 1389.01   78.02
  -2  -7   8 1349.34   86.93
  -2  -7   7  326.01   40.01
   2   7  -7  301.24   30.41
   2   7  -6  549.33   38.58
  -2  -7   6  501.77   48.28
  -2  -7   5   32.91   15.32
  -2  -7   5   38.50    8.99
   2   7  -5   46.73   10.48
  -2  -7   4  158.22   25.64
   2   7  -4  166.81   16.23
   2   7  -3 1112.57   47.07
  -2  -7   3 1121.20   72.38
  -2  -7   3 1061.22   46.02
   2   7  -2  430.22   21.29
  -2  -7   2  461.25   42.79
  -2  -7   2  438.02   22.85
   2   7  -1  123.66   24.88
  -2  -7   1  101.88   20.52
  -2  -7   1  127.88   10.09
  -2  -7   0   14.93    9.49
  -2  -7   0   11.57    3.59
   2   7   0   14.57   10.49
  -2  -7  -1  144.47   10.59
  -2  -7  -1  151.08   24.29
   2   7   1  145.29   26.56
  -2  -7  -2  601.14   26.96
  -2  -7  -2  647.11   50.33
   2   7   2  649.09   54.51
  -2  -7  -3  509.92   25.10
  -2  -7  -3  503.70   44.48
   2   7   3  517.87   48.59
  -2  -7  -4   29.58    6.23
  -2  -7  -4   34.15    3.51
  -2  -7  -4   55.24   14.71
  -2  -7  -4   29.09    3.06
   2   7   4   50.25   17.13
  -2  -7  -5   19.33   12.58
  -2  -7  -5   57.60    9.41
  -2  -7  -5   49.48    7.12
   2   7   5   41.18   13.82
  -2  -7  -5   42.32    6.30
   2   7   6 4762.09  198.89
  -2  -7  -6 4373.11  191.06
  -2  -7  -6 4652.61  169.11
   2   7   7  295.22   24.71
   2   7   7  368.72   39.61
  -2  -7  -7  319.94   35.57
  -2  -7  -7  308.74   25.54
   2   7   8 1278.33   79.88
  -2  -7  -8 1253.18   75.98
  -2  -7  -8 1342.67   64.79
  -2  -7  -9   55.48   14.75
  -2  -7  -9   87.48   15.29
   2   7   9   76.06   18.10
  -2  -7 -10 2179.91  108.45
   2   7  10 2451.49  119.86
  -2  -7 -10 2544.46  106.81
  -2  -7 -11   86.56   17.59
   2   7  11   90.42   19.94
  -2  -7 -11  118.63   21.18
  -2  -7 -12  893.48   62.46
   2   7  12  751.54   58.37
  -2  -7 -12  758.64   54.46
   2   7  13 1729.23   98.82
  -2  -7 -13 2053.87  108.32
  -2  -7 -13 1830.38   97.41
  -2  -7 -14  736.65   62.06
  -2  -7 -14  534.71   49.47
  -2  -7 -15   42.33   15.46
   2   8 -12   15.25   12.67
   2   8 -12   31.28   16.47
  -2  -8  11   23.98   16.56
   2   8 -11    6.51   11.63
   2   8 -11   31.75   17.91
  -2  -8  10   -2.44    9.21
   2   8 -10   34.89   15.04
  -2  -8   9   14.64   14.15
   2   8  -9   12.47   14.21
  -2  -8   8  255.19   36.20
   2   8  -8  242.12   28.65
  -2  -8   7   33.66   15.31
   2   8  -7   51.49   12.96
  -2  -8   6  203.89   31.92
   2   8  -6  196.52   21.04
  -2  -8   5  230.60   33.46
   2   8  -5  229.88   20.62
  -2  -8   4 3247.19  154.09
   2   8  -4 3248.13  115.71
   2   8  -3  377.00   20.24
  -2  -8   3  374.56   42.25
  -2  -8   2  832.13   64.49
  -2  -8   2  859.70   36.20
  -2  -8   1 1375.18   87.58
  -2  -8   1 1451.58   52.30
   2   8   0 1582.80   96.41
  -2  -8   0 1473.62   49.31
  -2  -8   0 1609.46   92.15
  -2  -8   0 1378.94   48.39
  -2  -8  -1 2596.18   80.32
  -2  -8  -1 2905.57  132.66
  -2  -8  -1 2359.98   79.33
   2   8   1 2979.25  136.94
  -2  -8  -2   43.28   14.34
  -2  -8  -2   39.99    4.50
   2   8   2   66.06   17.87
  -2  -8  -3 2665.57  134.60
   2   8   3 3066.27  143.05
  -2  -8  -3 2867.38   96.21
  -2  -8  -4    1.32    9.30
  -2  -8  -4    1.87    3.18
   2   8   4    8.87    8.90
   2   8   5  387.80   42.25
  -2  -8  -5  311.64   38.19
  -2  -8  -5  348.48   22.17
  -2  -8  -6  184.10   30.72
  -2  -8  -6  226.19   14.85
   2   8   6  318.99   37.36
  -2  -8  -6  285.62   20.84
   2   8   7  320.59   38.22
  -2  -8  -7  369.75   23.56
  -2  -8  -7  359.46   41.64
  -2  -8  -7  375.50   26.79
  -2  -8  -8  249.08   33.65
  -2  -8  -8  279.73   22.64
   2   8   8  248.82   33.82
  -2  -8  -8  281.03   24.34
  -2  -8  -9    3.24    7.94
  -2  -8  -9    9.08    7.51
  -2  -8  -9   -0.88    6.88
  -2  -8 -10   70.66   16.62
  -2  -8 -10  114.10   17.76
   2   8  10  118.24   23.71
  -2  -8 -11    7.98    9.82
   2   8  11   -2.62   13.00
   2   8  12  227.96   31.40
  -2  -8 -12  245.95   29.46
  -2  -8 -13   10.29   10.20
   2   8  13   21.31   13.87
   2   9 -11 1506.52   99.01
  -2  -9  11 1612.78  100.56
  -2  -9  10  338.34   44.47
  -2  -9   9 1169.85   86.49
  -2  -9   8   17.24   16.03
  -2  -9   7 1149.68   82.70
  -2  -9   6 1071.46   79.01
  -2  -9   5  123.10   26.27
  -2  -9   4  200.59   31.96
  -2  -9   3    3.45   10.01
  -2  -9   2   24.74   13.98
   2   9  -1  381.81   46.50
  -2  -9   1  367.15   44.08
  -2  -9   0   19.64   14.39
   2   9   0    8.99   12.98
  -2  -9  -1  212.85   32.97
   2   9   1  180.81   30.88
  -2  -9  -2  719.99   63.37
   2   9   2  795.11   65.18
  -2  -9  -3  855.28   70.73
   2   9   3 1070.63   75.73
  -2  -9  -4   17.38   12.45
   2   9   4   21.43   15.26
  -2  -9  -5  430.57   48.22
   2   9   5  461.87   47.95
  -2  -9  -6  150.36   27.39
   2   9   6  156.05   28.62
  -2  -9  -7 1401.99   91.60
   2   9   7 1487.17   91.16
  -2  -9  -8  159.74   27.72
   2   9   8  173.79   29.94
   2   9   9  373.90   42.05
  -2  -9  -9  335.36   38.32
   2   9  10  126.70   25.97
   2   9  11   24.56   15.31
   2   9  12  -11.18   12.68
   2   9  13  537.29   52.23
  -2 -10  10   53.81   20.15
  -2 -10   9   73.24   24.03
  -2 -10   8  -13.21   13.21
  -2 -10   7  233.16   36.94
  -2 -10   6   70.50   21.24
  -2 -10   5 2044.37  119.41
  -2 -10   4  217.73   36.01
  -2 -10   3  191.06   33.51
  -2 -10   2  275.17   39.90
   2  10  -1  485.61   54.18
  -2 -10   1  497.35   53.31
   2  10   0  572.40   58.40
  -2 -10   0  581.57   58.90
  -2 -10  -1    8.25   12.15
   2  10   1   11.36   12.90
  -2 -10  -2  404.10   48.42
   2  10   2  422.42   47.84
  -2 -10  -3  218.79   36.33
   2  10   3  294.53   39.88
  -2 -10  -4  242.86   39.74
   2  10   4  336.88   41.93
  -2 -10  -5   16.71   16.09
   2  10   5   30.95   14.27
  -2 -10  -6    0.07   11.40
   2  10   6    5.69   11.15
  -2 -10  -7  129.43   26.89
   2  10   7   98.11   24.78
  -2 -10  -8  597.71   57.17
   2  10   8  647.14   58.44
  -2 -10  -9  578.32   53.51
   2  10   9  631.27   57.69
   2  10  10   34.81   16.66
   2  10  11 1510.89   96.51
   2  10  12  126.75   25.82
  -2 -11   8   98.21   26.28
  -2 -11   7  222.24   37.50
  -2 -11   6  187.77   34.91
  -2 -11   5   27.74   16.99
  -2 -11   4    1.85   14.86
  -2 -11   3  452.28   53.20
  -2 -11   2    2.09   13.56
   2  11  -1 1561.70  104.01
  -2 -11   1 1444.14  101.09
   2  11   0  639.17   63.24
  -2 -11   0  717.19   67.82
   2  11   1 1315.99   92.91
  -2 -11  -1 1352.34   97.03
  -2 -11  -2  280.20   43.13
   2  11   2  333.88   44.31
  -2 -11  -3  729.98   69.86
   2  11   3  834.70   70.47
  -2 -11  -4 1592.27  107.87
   2  11   4 1540.03  100.34
  -2 -11  -5  297.81   44.08
   2  11   5  308.84   41.76
  -2 -11  -6 1447.61  100.90
   2  11   6 1592.17  100.14
  -2 -11  -7    1.86   12.12
   2  11   7    4.43   14.30
  -2 -11  -8  257.59   37.67
   2  11   8  422.00   48.36
   2  11   9   13.93   16.91
   2  11  10  221.84   35.34
  -2 -12   5   -1.91   14.06
  -2 -12   4 1790.47  116.36
  -2 -12   3  247.88   41.01
  -2 -12   2   42.97   21.66
   2  12  -1  322.75   45.86
  -2 -12   1  257.44   42.41
  -2 -12   0  122.73   30.68
   2  12   0  104.66   28.04
  -2 -12  -1    8.61   13.88
   2  12   1    5.82   14.39
  -2 -12  -2   56.75   22.22
   2  12   2   98.25   25.82
  -2 -12  -3   -1.91   13.60
   2  12   3   -1.00   13.47
  -2 -12  -4   17.69   16.22
   2  12   4  -32.68   19.56
  -2 -12  -5  661.02   66.72
   2  12   5  692.80   64.92
  -2 -12  -6  291.45   43.70
   2  12   6  386.38   47.97
  -2 -12  -7  -37.02   17.51
   2  12   7  -12.56   12.16
  -2 -12  -8  283.91   41.99
   2  13  -1  438.52   55.32
   2  13   0  657.52   66.36
  -2 -13   0  522.53   62.93
  -2 -13  -1   -3.18   14.04
   2  13   1   -1.93   15.00
  -2 -13  -2   98.35   28.95
   2  13   2  110.78   28.50
  -2 -13  -3  872.08   80.81
  -2 -13  -4   89.72   30.31
  -2 -13  -5    9.70   13.70
  -2 -13  -6   33.78   18.69
  -2 -13  -7  -11.20   13.93
  -3  13   0  231.52   32.41
  -3  13  -1   -2.73    9.17
  -3  13  -2   12.02    9.90
  -3  13  -2   56.26   16.97
  -3  13  -3   -1.55   10.91
  -3  13  -3   80.97   19.64
  -3  13  -4  -11.44   12.10
  -3  12   3   11.72   12.25
  -3  12   2  157.39   27.02
  -3  12   1  294.10   35.27
  -3  12   0   32.23   13.70
  -3  12  -1  796.06   58.51
  -3  12  -1 1020.75   66.62
  -3  12  -2   25.93   11.88
  -3  12  -2   34.60   12.31
  -3  12  -3   43.10   14.32
  -3  12  -3   47.11   15.00
  -3  12  -4   22.38   12.32
  -3  12  -4   39.29   15.33
  -3  12  -5  247.86   34.57
  -3  12  -6   69.17   20.81
  -3  11   5   -7.87   15.68
  -3  11   4   32.65   15.22
  -3  11   3   77.81   20.56
  -3  11   2   -2.86    9.78
  -3  11   1   -4.05   11.24
   3 -11  -1   10.86    9.42
  -3  11   1   13.47    9.17
  -3  11   0  346.45   33.57
  -3  11   0  385.22   38.60
  -3  11  -1  258.87   30.36
  -3  11  -1  311.42   34.63
  -3  11  -2   59.08   15.29
  -3  11  -2   60.26   16.65
  -3  11  -3  351.36   38.06
  -3  11  -3  399.81   39.71
  -3  11  -4   14.26    9.72
  -3  11  -4  -10.66   10.27
  -3  11  -5 1336.56   84.32
  -3  11  -5 1460.48   81.11
  -3  11  -6   -6.28   10.67
  -3  11  -7  728.55   61.59
  -3  11  -8  308.92   41.82
   3 -10  -8   41.39   14.59
   3 -10  -7  295.45   35.56
   3 -10  -6  499.98   44.12
   3 -10  -5 1795.73   93.14
   3 -10  -4  372.84   36.74
   3 -10  -3   86.99   19.38
  -3  10   2 1532.19   76.25
   3 -10  -2 1636.22   86.52
  -3  10   2 1616.31   87.95
  -3  10   1   43.03   14.37
  -3  10   1   27.74   10.61
   3 -10  -1   63.08   16.29
  -3  10   0  473.68   38.75
  -3  10   0  464.90   42.08
   3 -10   0  468.94   40.85
  -3  10  -1   23.84   12.59
  -3  10  -1   30.26   11.35
  -3  10  -2 1153.82   68.47
  -3  10  -2 1123.24   69.11
  -3  10  -3   -7.53    8.74
  -3  10  -3    9.62   10.11
  -3  10  -4  115.32   21.97
  -3  10  -4  108.23   20.78
  -3  10  -5   93.91   20.80
  -3  10  -5  113.49   18.61
  -3  10  -6   25.95   11.90
  -3  10  -6   54.22   13.63
  -3  10  -7  114.70   24.28
  -3  10  -8   11.63   12.03
  -3  10  -9   72.34   22.56
   3  -9 -10  392.42   47.09
   3  -9  -9  293.23   39.07
   3  -9  -8  129.70   25.85
   3  -9  -7   17.48   12.64
   3  -9  -6   34.36   13.29
   3  -9  -5  168.89   25.47
   3  -9  -4   72.44   16.43
  -3   9   3  401.77   30.17
   3  -9  -3  390.86   37.76
  -3   9   2  585.40   39.32
   3  -9  -2  619.88   49.12
  -3   9   1   83.37   14.82
   3  -9  -1   83.85   19.28
  -3   9   0   75.55   16.18
  -3   9   0   50.16   10.67
  -3   9   0   58.45   13.37
   3  -9   0   39.66   13.99
  -3   9  -1  252.53   21.35
   3  -9   1  236.66   29.14
  -3   9  -1  306.95   29.67
  -3   9  -1  204.56   26.29
  -3   9  -2  455.71   29.12
  -3   9  -2  428.10   38.75
  -3   9  -2  435.55   37.59
  -3   9  -3   21.33   11.00
  -3   9  -3   30.21    8.04
  -3   9  -3   23.71   11.45
  -3   9  -4 1248.49   57.20
  -3   9  -4 1213.47   72.84
  -3   9  -4 1293.19   71.32
  -3   9  -5   81.05   19.10
  -3   9  -5   83.58   12.62
  -3   9  -5  105.03   18.10
  -3   9  -6  253.77   22.05
  -3   9  -6  232.11   31.18
  -3   9  -6  231.40   26.31
  -3   9  -7   94.23   14.08
  -3   9  -7  114.69   23.58
  -3   9  -8  219.88   33.17
  -3   9  -8  234.30   23.18
  -3   9  -9  297.89   27.41
  -3   9  -9  327.73   41.29
  -3   9 -10   -1.28   12.64
  -3   9 -10   -8.56    7.52
  -3   9 -11   71.29   23.13
  -3   9 -11   83.14   16.87
   3  -8 -11  203.37   35.13
   3  -8 -10  318.27   42.41
   3  -8  -9  260.13   37.11
   3  -8  -8  248.91   36.14
   3  -8  -7   32.97   15.51
   3  -8  -6  753.07   57.23
   3  -8  -5  522.29   45.52
   3  -8  -4  109.88   20.41
  -3   8   4   93.54   12.39
  -3   8   3  177.20   17.97
   3  -8  -3  170.27   24.19
   3  -8  -2   -4.30    8.01
  -3   8   2   17.86    7.21
   3  -8  -1   45.38   16.18
  -3   8   1   70.16   12.72
  -3   8   0  147.63   18.05
   3  -8   0  136.18   23.04
  -3   8   0  139.78   18.45
  -3   8  -1    5.37    5.49
   3  -8   1   10.45    9.39
  -3   8  -1   12.88    7.63
  -3   8  -2   54.77   13.05
  -3   8  -2   26.40    8.69
  -3   8  -2   30.90   10.58
  -3   8  -3 1068.21   52.40
  -3   8  -3 1005.97   60.46
  -3   8  -3  933.96   58.70
  -3   8  -4  262.30   22.94
  -3   8  -4  277.71   28.22
  -3   8  -4  254.79   29.39
  -3   8  -5   75.76   15.02
  -3   8  -5   82.84   13.33
  -3   8  -5   89.23   18.54
  -3   8  -6  637.30   38.56
  -3   8  -6  561.12   39.78
  -3   8  -6  569.03   48.42
  -3   8  -7  119.16   16.63
  -3   8  -7   80.97   14.39
  -3   8  -7  116.66   23.81
  -3   8  -8 1212.78   61.70
  -3   8  -8 1111.90   76.76
  -3   8  -9   12.77    8.42
  -3   8  -9   14.33   14.27
  -3   8 -10 2378.19  129.45
  -3   8 -10 2407.95  106.37
  -3   8 -11  129.61   20.77
  -3   8 -12  194.38   25.58
  -3   8 -13  310.03   33.91
   3  -7 -12    3.67   13.61
   3  -7 -11   31.81   20.50
   3  -7 -10    9.57   13.50
   3  -7  -9   34.90   17.40
   3  -7  -8  355.28   41.13
   3  -7  -7  318.56   37.83
   3  -7  -6  334.44   37.93
   3  -7  -5  532.24   45.74
   3  -7  -4 1547.85   83.31
  -3   7   4 1500.71   58.18
  -3   7   3   79.96   11.24
   3  -7  -3   84.05   18.14
   3  -7  -2 1380.66   79.61
  -3   7   2 1551.72   66.25
   3  -7  -1 1848.49   96.98
  -3   7   1 1978.66   82.49
  -3   7   0 1802.17   80.61
   3  -7   0 1888.06   97.60
  -3   7  -1  860.19   50.42
   3  -7   1  981.81   61.93
  -3   7  -1  930.28   52.41
  -3   7  -2   91.88   14.49
  -3   7  -2   79.87   14.95
   3  -7   2   74.42   17.37
  -3   7  -3 2426.37  103.75
  -3   7  -3 2390.64   98.94
  -3   7  -3 2373.18  106.16
  -3   7  -4  147.98   17.80
  -3   7  -4  138.95   19.07
  -3   7  -4  157.13   22.36
  -3   7  -5  893.91   49.38
  -3   7  -5  888.50   51.13
  -3   7  -5  900.08   58.83
  -3   7  -6  291.59   26.15
  -3   7  -6  308.44   26.34
  -3   7  -6  259.27   31.99
  -3   7  -7   72.91   19.79
  -3   7  -7   57.27   12.28
  -3   7  -7   48.00   10.30
  -3   7  -8   47.03   12.49
  -3   7  -8   28.05   12.98
  -3   7  -9   51.67   12.97
  -3   7  -9   69.62   20.89
  -3   7 -10  101.12   18.23
  -3   7 -11   29.72   12.22
  -3   7 -12  521.06   44.30
  -3   7 -13   43.06   15.78
  -3   7 -14  449.86   43.06
   3  -6 -12  -30.88   20.25
   3  -6 -11  583.57   60.58
   3  -6 -10   45.74   20.96
   3  -6  -9 1473.15   94.19
   3  -6  -8  970.84   69.96
   3  -6  -7  813.00   61.19
   3  -6  -6  114.81   21.46
   3  -6  -5  397.33   38.67
   3  -6  -4   62.47   16.04
   3  -6  -3   46.29   14.32
   3  -6  -2  224.83   27.41
  -3   6   2  298.77   20.99
   3  -6  -1   99.00   18.90
  -3   6   1  110.93   13.75
   3  -6   0  441.60   40.53
  -3   6   0  397.78   28.78
   3  -6   1  486.44   43.60
  -3   6  -1  541.80   35.69
  -3   6  -2  147.24   18.85
   3  -6   2  148.27   23.04
  -3   6  -2  157.12   19.06
  -3   6  -3   98.35   15.38
  -3   6  -3   85.06   15.17
  -3   6  -4 1236.22   62.85
  -3   6  -4 1294.39   62.84
  -3   6  -4 1189.15   66.22
  -3   6  -5  677.24   42.59
  -3   6  -5  624.33   39.39
  -3   6  -5  679.78   47.68
  -3   6  -6   12.86    6.88
  -3   6  -6   18.57    8.75
  -3   6  -6    9.66    9.52
  -3   6  -7 1689.48   74.05
  -3   6  -7 1588.90   83.40
  -3   6  -8    9.25    9.16
  -3   6  -8    2.31   11.42
  -3   6  -9  219.40   25.18
  -3   6 -10   58.85   14.41
  -3   6 -11  664.91   50.03
  -3   6 -12  181.98   26.71
  -3   6 -13  101.01   20.56
  -3   6 -14   42.06   14.86
   3  -5 -12  214.96   40.94
   3  -5 -11   92.69   26.19
   3  -5 -10   52.13   21.31
   3  -5  -9  157.36   28.47
   3  -5  -8  171.80   27.84
   3  -5  -7 1015.38   68.24
   3  -5  -6   58.57   15.60
   3  -5  -5  411.39   38.32
  -3   5   5  433.65   28.79
  -3   5   4  357.06   26.81
   3  -5  -4  307.32   32.31
   3  -5  -3 2047.12   98.38
   3  -5  -2  606.40   46.06
   3  -5  -1  286.26   30.80
  -3   5   0  607.00   34.59
   3  -5   0  610.68   48.52
   3  -5   1   31.70   12.31
  -3   5  -1   38.78    8.89
  -3   5  -2  181.86   19.07
  -3   5  -2  152.06   19.92
   3  -5   2  165.19   23.82
  -3   5  -3   58.40   12.11
   3  -5   3   31.15   12.10
  -3   5  -3   55.10   11.46
  -3   5  -4   18.07    8.18
  -3   5  -4    8.50    7.70
  -3   5  -5    5.28    4.26
  -3   5  -5    4.01    7.19
  -3   5  -5    2.88    6.14
  -3   5  -6  665.31   44.02
  -3   5  -6  642.26   46.78
  -3   5  -6  729.39   37.51
  -3   5  -7  629.43   41.39
  -3   5  -7  439.90   24.59
  -3   5  -8  553.39   40.71
  -3   5  -9  260.30   28.07
  -3   5 -10    0.17    8.08
  -3   5 -11 1920.93   97.69
  -3   5 -12   -1.51   10.15
  -3   5 -13 1388.23   84.32
  -3   5 -14  182.12   29.50
   3  -4 -12  890.53   80.21
   3  -4 -11   13.82   16.75
   3  -4 -10    3.70   12.82
   3  -4  -9  319.56   39.38
   3  -4  -8  354.16   39.49
   3  -4  -7   45.34   15.61
   3  -4  -6  124.11   21.70
   3  -4  -5   23.81   12.46
   3  -4  -4  171.27   23.94
   3  -4  -3 2626.82  116.34
   3  -4  -2    9.97    8.25
   3  -4  -1  497.32   40.54
   3  -4   0  988.55   62.49
   3  -4   1 5709.11  220.47
   3  -4   2  855.49   58.68
  -3   4  -3  697.74   45.38
   3  -4   3  684.21   50.98
  -3   4  -4 2147.42   96.25
  -3   4  -5  322.27   29.78
  -3   4  -6  935.64   55.32
  -3   4  -6  915.94   41.08
  -3   4  -7   57.51   14.12
  -3   4  -8 2902.56  124.63
  -3   4  -9   12.14    9.73
  -3   4 -10   64.06   16.59
  -3   4 -11   21.48   11.41
  -3   4 -12   16.88   13.64
  -3   4 -13   10.73   11.40
  -3   4 -14   43.76   18.21
  -3   4 -15   95.98   25.43
   3  -3 -13  707.42   74.60
   3  -3 -12  282.73   44.61
   3  -3 -11  197.44   34.58
   3  -3 -10 2425.82  133.40
   3  -3  -9  242.59   34.82
   3  -3  -8  601.91   52.72
   3  -3  -7  125.99   22.78
   3  -3  -6 3233.61  141.14
   3  -3  -5 1499.46   80.90
   3  -3  -4 1018.40   61.55
   3  -3  -3  182.45   23.65
   3  -3  -2 1294.96   70.48
   3  -3  -1  101.20   18.47
   3  -3   0  129.56   20.66
   3  -3   1  312.06   33.93
   3  -3   2  231.29   18.61
   3  -3   2  228.84   30.08
   3  -3   3  533.17   32.24
  -3   3  -3  463.48   37.06
   3  -3   3  563.15   45.55
  -3   3  -4 1650.92   82.79
   3  -3   4 1714.74   73.10
  -3   3  -5   20.05    9.39
  -3   3  -6   17.81    8.61
  -3   3  -7 1520.51   78.93
  -3   3  -8 1397.80   76.51
  -3   3  -9  181.87   25.18
  -3   3 -10  774.42   56.44
  -3   3 -11  133.32   23.37
  -3   3 -12  767.42   60.79
  -3   3 -13  153.59   27.38
  -3   3 -14  496.26   51.38
  -3   3 -15  288.34   40.80
   3  -2 -13  513.35   63.94
   3  -2 -12   66.25   22.00
   3  -2 -11   73.51   20.74
   3  -2 -10   24.40   15.86
   3  -2  -9  133.43   26.00
   3  -2  -8   17.89   12.46
   3  -2  -7   10.96    9.59
   3  -2  -6  585.83   47.22
   3  -2  -5  244.70   28.59
   3  -2  -4  648.30   46.27
   3  -2  -3   27.91   10.42
   3  -2  -2  526.36   39.78
   3  -2  -1  148.71   20.57
   3  -2  -1  140.56   10.57
   3  -2   0 2602.42   91.51
   3  -2   0 2539.99  112.72
   3  -2   1 1342.93   76.81
   3  -2   1 1487.02   59.44
   3  -2   2  670.20   51.13
   3  -2   2  715.17   37.25
  -3   2  -3  297.67   29.95
   3  -2   3  305.71   32.55
   3  -2   3  380.37   25.75
   3  -2   4   74.72   11.75
  -3   2  -4   58.51   14.36
  -3   2  -5   69.34   16.05
  -3   2  -6    4.55    6.73
  -3   2  -6    8.12    2.80
  -3   2  -7  151.58   22.26
  -3   2  -8    4.25    7.37
  -3   2  -9 1230.35   73.18
  -3   2 -10  354.59   37.50
  -3   2 -11  245.77   32.96
  -3   2 -12  277.78   36.78
  -3   2 -13  551.56   54.17
  -3   2 -14 1252.75   88.31
  -3   2 -15   57.15   24.14
   3  -1 -13  246.76   45.24
   3  -1 -12  -12.33   20.84
   3  -1 -11  943.38   81.12
   3  -1 -10  556.46   57.86
   3  -1  -9  485.66   50.82
  -3   1   9  509.64   31.43
   3  -1  -8  217.23   31.55
   3  -1  -7  325.32   35.87
   3  -1  -6    3.48    7.52
   3  -1  -5    9.30    7.90
   3  -1  -4  331.85   30.93
   3  -1  -3  449.85   35.64
   3  -1  -2 1652.74   79.34
   3  -1  -1 1793.87   83.88
   3  -1   0  658.32   44.26
   3  -1   1   93.47   16.98
   3  -1   2 3040.77  131.24
  -3   1  -3   25.03    8.63
   3  -1   3   24.19    9.54
   3  -1   4 3580.97  131.37
  -3   1  -4 3399.11  144.08
   3  -1   5 3654.85  133.33
  -3   1  -5 3407.29  119.45
  -3   1  -5 3819.61  152.14
  -3   1  -6 2861.75  121.80
  -3   1  -6 2551.71   89.68
  -3   1  -7  751.14   53.75
  -3   1  -8  106.10   21.22
  -3   1  -9 2612.63  123.64
  -3   1 -10  121.84   23.43
  -3   1 -11 1028.35   72.41
  -3   1 -12  107.64   24.82
  -3   1 -13  218.94   34.68
  -3   1 -14  128.22   29.49
  -3   1 -15   34.17   22.91
   3   0 -13  382.86   56.77
   3   0 -12  131.51   30.95
   3   0 -11  183.11   35.50
   3   0 -10  317.45   43.45
   3   0  -9  590.28   56.65
  -3   0   9  612.91   37.93
   3   0  -8  996.87   72.93
  -3   0   8 1127.01   55.74
   3   0  -7 2157.80  114.00
   3   0  -7 2491.60   87.42
   3   0  -6  127.29   11.12
   3   0  -6  117.63   21.33
   3   0  -5 1649.17   84.12
   3   0  -4  959.32   56.65
   3   0  -3 4033.19  154.83
   3   0  -2 2140.85   93.94
   3   0  -1 1421.36   70.09
   3   0   0  308.02   27.83
   3   0   1 1838.50   87.08
   3   0   2  287.79   29.61
  -3   0  -3  142.15   19.73
   3   0   3  156.71   20.94
  -3   0  -4  345.57   22.30
  -3   0  -4  336.79   31.40
  -3   0  -5  194.08   24.05
  -3   0  -5  221.45   26.84
  -3   0  -5  171.18   15.15
  -3   0  -6  454.37   39.03
  -3   0  -6  446.44   26.61
  -3   0  -7  555.69   45.96
  -3   0  -8    2.71    7.56
  -3   0  -9  181.12   27.23
  -3   0 -10 1636.34   94.85
  -3   0 -11  461.03   47.35
  -3   0 -12   34.71   17.53
  -3   0 -13  739.24   67.14
  -3   0 -14    7.51   14.51
  -3   0 -15  369.92   49.32
   3   1 -13  674.74   76.09
   3   1 -12  623.30   69.50
   3   1 -11  302.49   47.11
   3   1 -10 1289.58   93.09
  -3  -1   9   26.63    8.94
   3   1  -9   53.35   18.19
  -3  -1   8   60.91   12.70
   3   1  -8   67.44   19.44
   3   1  -7   -0.75    4.44
  -3  -1   7    1.44    5.38
   3   1  -7   -1.23    9.86
   3   1  -6  182.27   25.03
   3   1  -5   17.60    9.20
   3   1  -4   76.78   14.87
   3   1  -3  564.42   40.19
  -3  -1   3  714.60   44.05
   3   1  -2  268.93   25.16
   3   1  -1 2029.22   88.37
   3   1   0   27.66    8.53
   3   1   1  376.01   30.85
  -3  -1  -1  302.99   24.98
   3   1   2  153.74   20.36
  -3  -1  -3 2556.78   96.19
  -3  -1  -3 2485.21  106.47
   3   1   3 2458.33  105.93
  -3  -1  -4 1887.90   88.55
  -3  -1  -4 1899.35   76.63
  -3  -1  -5 1099.05   62.43
  -3  -1  -5 1134.13   65.32
  -3  -1  -5 1070.50   51.37
  -3  -1  -6   12.70    5.04
  -3  -1  -6   16.79    8.33
  -3  -1  -7   56.75   10.71
  -3  -1  -7   55.06   14.24
  -3  -1  -8  320.66   33.73
  -3  -1  -9   18.66   13.23
  -3  -1 -10   12.78   12.83
  -3  -1 -11   21.98   13.53
  -3  -1 -12  253.16   36.60
  -3  -1 -13  686.08   63.31
  -3  -1 -14  475.16   55.01
  -3  -1 -15   55.98   23.49
   3   2 -13  828.62   85.57
   3   2 -12   20.05   17.85
   3   2 -11  164.23   36.43
   3   2 -10  727.16   70.75
   3   2 -10 1078.51   58.64
   3   2  -9  425.24   48.18
   3   2  -9  440.49   33.55
  -3  -2   9  381.91   34.00
   3   2  -8  698.04   58.95
  -3  -2   8  783.22   49.02
  -3  -2   7   50.04   12.19
   3   2  -7   41.76   14.49
   3   2  -6 2356.32  109.84
  -3  -2   6 2285.92   99.50
   3   2  -5    7.22    8.00
   3   2  -4   76.41   14.69
  -3  -2   3  817.95   46.39
   3   2  -3  690.58   44.64
   3   2  -2 1284.92   63.64
   3   2  -1   79.60   13.58
   3   2   0  493.78   33.90
  -3  -2   0  476.70   31.22
  -3  -2  -1  219.25   20.31
   3   2   1  204.50   22.23
  -3  -2  -1  192.27   18.31
   3   2   2    9.77    6.14
  -3  -2  -2    4.09    3.67
  -3  -2  -2   15.01    6.71
  -3  -2  -3 3055.62  122.31
   3   2   3 2833.31  119.37
  -3  -2  -3 3269.68  119.22
  -3  -2  -3 3017.66  115.86
  -3  -2  -4  773.04   47.30
  -3  -2  -4  724.58   41.98
  -3  -2  -5  161.37   20.63
  -3  -2  -5  163.34   18.80
  -3  -2  -6  279.26   28.06
  -3  -2  -6  297.36   29.67
  -3  -2  -6  243.76   23.73
  -3  -2  -7 5246.72  197.77
  -3  -2  -7 5252.65  194.67
  -3  -2  -8  694.36   50.20
  -3  -2  -9 1046.41   65.84
  -3  -2 -10 1709.28   93.00
  -3  -2 -11 1208.66   78.58
  -3  -2 -12  523.23   50.97
  -3  -2 -13   -3.67   13.96
  -3  -2 -14 1687.74  107.08
  -3  -2 -15    5.66   16.32
   3   3 -13  701.08   78.12
   3   3 -12    3.75   19.37
   3   3 -11  192.67   37.52
  -3  -3  10   26.94   11.98
   3   3 -10   70.05   22.45
   3   3 -10   63.30   14.54
  -3  -3   9   18.57    9.47
   3   3  -9   41.16   12.22
   3   3  -9   57.59   20.09
  -3  -3   8   87.07   17.44
   3   3  -8  104.02   22.14
   3   3  -7 1420.85   84.39
  -3  -3   7 1568.24   78.91
   3   3  -6  253.60   29.38
  -3  -3   6  219.66   25.56
   3   3  -5  556.21   41.76
  -3  -3   5  528.65   39.65
   3   3  -4 1728.37   81.84
   3   3  -3  720.54   44.27
   3   3  -2 1728.73   77.07
   3   3  -1 1926.17   80.77
  -3  -3   1 1803.72   76.53
  -3  -3   0 5152.12  192.15
   3   3   0 5576.40  192.17
  -3  -3   0 5550.21  186.41
  -3  -3  -1  584.47   33.26
   3   3   1  657.94   39.79
  -3  -3  -1  572.29   37.85
  -3  -3  -2  717.79   37.25
   3   3   2  666.25   40.00
  -3  -3  -2  662.50   41.49
  -3  -3  -3   99.18   12.64
  -3  -3  -3  106.81   15.68
  -3  -3  -3  102.57   15.15
  -3  -3  -4 3707.40  140.85
  -3  -3  -4 3633.59  136.88
  -3  -3  -4 3646.41  140.77
  -3  -3  -5  364.64   30.40
  -3  -3  -5  412.76   33.99
  -3  -3  -6  325.03   29.43
  -3  -3  -6  340.61   31.37
  -3  -3  -6  299.37   29.26
  -3  -3  -7   26.33   10.13
  -3  -3  -7   10.71    7.76
  -3  -3  -8   45.44   12.94
  -3  -3  -9   61.78   14.80
  -3  -3 -10  559.83   46.61
  -3  -3 -11   46.93   15.46
  -3  -3 -12    6.59   10.03
  -3  -3 -13  964.59   72.11
  -3  -3 -14 1108.03   80.99
  -3  -3 -15  143.72   31.36
   3   4 -13  184.47   40.27
   3   4 -12 1154.21   96.04
   3   4 -11   72.31   18.66
   3   4 -11   37.54   18.87
   3   4 -10  638.85   48.38
   3   4 -10  528.17   56.30
  -3  -4  10  690.70   52.53
   3   4  -9 1255.76   86.64
  -3  -4   9 1523.18   85.06
   3   4  -8 1089.45   73.65
  -3  -4   8 1137.32   69.69
   3   4  -7 1165.07   73.28
  -3  -4   7 1288.26   72.50
  -3  -4   6   17.66    8.68
   3   4  -6    3.08    7.24
  -3  -4   5  129.86   20.14
   3   4  -5  134.21   19.71
   3   4  -4  408.80   32.20
  -3  -4   4  389.58   34.50
   3   4  -3  271.55   24.86
   3   4  -2  129.83   15.97
   3   4  -1    2.58    5.01
  -3  -4   1    9.23    3.75
   3   4   0  695.92   39.46
  -3  -4   0  662.38   34.89
   3   4   1  131.87   15.79
  -3  -4  -1  130.50   13.15
  -3  -4  -2 1670.18   73.23
  -3  -4  -2 1562.77   64.28
   3   4   2 1610.64   69.48
  -3  -4  -3    4.08    4.84
  -3  -4  -3   12.27    8.17
  -3  -4  -3    5.90    4.12
  -3  -4  -4  547.95   35.93
  -3  -4  -4  495.54   30.74
  -3  -4  -4  568.49   41.73
   3   4   5  231.15   26.15
  -3  -4  -5  233.31   22.85
  -3  -4  -5  215.23   25.55
   3   4   6 2791.89  117.39
  -3  -4  -6 2722.09  110.10
  -3  -4  -6 2430.39  115.88
   3   4   7 1689.08   84.48
  -3  -4  -7 1575.86   78.69
  -3  -4  -7 1547.92   87.59
  -3  -4  -8  302.63   29.24
   3   4   8  310.76   31.40
  -3  -4  -9  250.24   28.34
   3   4   9  270.06   29.24
  -3  -4 -10  215.75   27.79
   3   4  10  271.75   28.87
  -3  -4 -11   53.34   15.61
   3   4  11   57.82   13.88
  -3  -4 -12  127.45   24.50
  -3  -4 -13  134.88   24.89
  -3  -4 -14    0.44   12.60
  -3  -4 -15  403.30   46.80
   3   5 -13  321.30   51.09
   3   5 -12   33.94   18.68
   3   5 -11  -14.06   13.85
   3   5 -11    8.37   13.57
   3   5 -10  607.37   49.65
   3   5 -10  588.53   57.74
  -3  -5  10  701.06   55.66
  -3  -5   9  282.63   35.82
   3   5  -9  277.92   36.35
   3   5  -8  802.19   60.93
  -3  -5   8  948.69   65.63
  -3  -5   7  131.20   22.69
   3   5  -7  118.30   20.00
  -3  -5   6   82.79   18.03
   3   5  -6   71.34   15.32
   3   5  -5 2291.62   98.83
  -3  -5   5 2110.30  105.81
   3   5  -4  848.91   48.98
  -3  -5   4  874.95   58.20
   3   5  -3 1194.12   57.61
  -3  -5   3 1111.11   67.28
   3   5  -2  481.33   31.03
  -3  -5   2  457.38   38.30
  -3  -5   1  623.39   43.94
   3   5  -1  652.29   36.30
  -3  -5   1  608.16   32.80
   3   5   0    2.28    4.12
  -3  -5   0   -1.51    2.74
   3   5   1    4.46    4.34
  -3  -5  -1   12.86    4.31
  -3  -5  -2  985.05   42.95
  -3  -5  -2 1054.08   51.85
   3   5   3  120.54   20.83
  -3  -5  -3  182.18   18.36
  -3  -5  -3  148.27   13.20
   3   5   4  386.90   37.41
  -3  -5  -4  445.42   30.11
  -3  -5  -4  378.54   24.09
  -3  -5  -5 1127.42   56.85
  -3  -5  -5 1073.19   52.44
   3   5   6  949.13   62.56
  -3  -5  -6  875.72   49.61
  -3  -5  -7   28.83    9.27
  -3  -5  -7   20.48    8.88
   3   5   7   15.03    8.93
  -3  -5  -8 1400.51   71.84
   3   5   8 1558.52   85.07
  -3  -5  -9  179.39   23.37
   3   5   9  158.15   24.99
  -3  -5 -10 1120.27   66.00
   3   5  10 1072.62   68.90
   3   5  11 1401.30   80.30
  -3  -5 -11 1349.78   73.62
  -3  -5 -11 1315.58   77.09
   3   5  12 2151.92  104.78
  -3  -5 -12 1978.85  104.25
  -3  -5 -13  155.47   27.04
  -3  -5 -14  372.23   42.38
  -3  -5 -15  700.05   59.78
   3   6 -12  362.93   48.86
   3   6 -11  264.02   34.89
   3   6 -11  246.47   37.10
   3   6 -10  470.61   48.77
  -3  -6  10  538.83   51.36
  -3  -6   9   87.54   22.90
   3   6  -9   97.74   22.16
  -3  -6   8   27.93   14.48
   3   6  -8   26.99   12.28
   3   6  -7  354.94   34.29
  -3  -6   7  375.06   40.50
  -3  -6   6   38.08   14.10
   3   6  -6   49.35   12.40
   3   6  -5  495.95   36.14
  -3  -6   5  477.79   44.57
   3   6  -4 1780.50   78.86
  -3  -6   4 1815.64   96.17
  -3  -6   3  294.99   22.33
  -3  -6   3  293.01   32.76
   3   6  -3  306.61   23.82
   3   6  -2  601.96   33.67
  -3  -6   2  573.83   46.87
   3   6  -1 1079.51   48.61
  -3  -6   1 1133.00   67.79
   3   6   0  596.97   31.98
  -3  -6   0  601.92   46.49
  -3  -6  -1 1698.85   62.09
  -3  -6  -1 1727.73   87.43
  -3  -6  -2 1161.34   52.62
  -3  -6  -2 1013.95   40.87
  -3  -6  -2 1058.38   63.53
   3   6   3 3644.95  157.35
  -3  -6  -3 3678.60  126.39
  -3  -6  -3 3255.49  113.58
  -3  -6  -3 3225.07  140.57
  -3  -6  -4  147.93   21.55
  -3  -6  -4  150.11   16.44
  -3  -6  -4  120.74   11.36
   3   6   4  149.78   25.16
   3   6   5  471.76   45.24
  -3  -6  -5  458.14   30.13
  -3  -6  -5  397.19   25.15
  -3  -6  -6   90.56   13.58
  -3  -6  -6   72.82   16.13
  -3  -6  -6   79.81   12.01
   3   6   6  116.52   23.27
  -3  -6  -7 2568.76  105.77
   3   6   7 2754.95  131.23
  -3  -6  -7 2618.35  120.01
  -3  -6  -8  176.97   21.45
   3   6   8  195.56   29.94
  -3  -6  -8  197.71   26.18
  -3  -6  -9  192.13   23.09
   3   6   9  147.28   25.96
  -3  -6  -9  182.48   26.02
  -3  -6 -10   11.80    9.31
  -3  -6 -10    9.70    9.58
   3   6  10    4.75    9.84
  -3  -6 -11    3.76    9.00
  -3  -6 -11   -3.87    7.20
  -3  -6 -12  176.65   25.73
   3   6  12  194.70   29.52
  -3  -6 -13  245.10   32.10
  -3  -6 -14   31.80   14.63
  -3  -6 -15   22.06   15.05
   3   7 -12   91.59   25.34
   3   7 -11 1851.34  107.20
   3   7 -11 1850.02  108.85
  -3  -7  10  -19.83   15.11
   3   7 -10   18.24   13.11
   3   7  -9  971.03   66.38
  -3  -7   9 1095.97   79.09
  -3  -7   8  133.98   27.37
   3   7  -8  109.93   20.19
   3   7  -7  949.70   57.74
  -3  -7   7  879.10   69.35
   3   7  -6  517.53   37.95
  -3  -7   6  504.82   50.05
   3   7  -5  592.69   38.49
  -3  -7   5  616.04   54.13
   3   7  -4 1763.19   75.78
  -3  -7   4 1807.94   99.44
  -3  -7   3  188.81   28.28
   3   7  -3  180.82   16.66
  -3  -7   2    0.62    9.41
   3   7  -2    3.30    3.70
  -3  -7   1   55.67   15.99
   3   7  -1   75.32    9.11
  -3  -7   0  156.16   24.99
  -3  -7  -1    2.51    8.06
  -3  -7  -1    1.64    4.37
   3   7   2   79.81   21.90
  -3  -7  -2   83.10   18.58
  -3  -7  -2   91.34   11.54
   3   7   3  442.14   46.28
  -3  -7  -3  441.25   25.99
  -3  -7  -3  319.89   14.75
  -3  -7  -3  436.22   40.60
  -3  -7  -4    0.44   10.75
  -3  -7  -4   17.13    6.52
  -3  -7  -4   14.45    3.34
   3   7   4   20.94   11.63
   3   7   5 1111.90   78.58
  -3  -7  -5 1088.06   51.07
  -3  -7  -5  986.52   68.08
  -3  -7  -6   10.12    8.65
  -3  -7  -6   15.48    6.66
   3   7   6    7.91   12.90
  -3  -7  -7  887.54   48.59
  -3  -7  -7  896.23   63.64
   3   7   7  921.27   70.83
  -3  -7  -8    5.90    9.46
  -3  -7  -8    2.97    7.21
   3   7   8   -2.27   11.47
  -3  -7  -9 1147.13   72.44
   3   7   9 1039.14   77.59
  -3  -7  -9 1085.34   60.52
  -3  -7 -10  892.25   62.47
   3   7  10  858.94   68.37
  -3  -7 -10  890.81   55.42
   3   7  11  771.74   63.64
  -3  -7 -11  705.98   50.92
  -3  -7 -12  119.91   22.00
   3   7  12  132.72   27.29
  -3  -7 -13   80.86   18.73
  -3  -7 -14  194.64   29.65
   3   8 -11   35.16   18.33
  -3  -8  10   25.19   18.69
  -3  -8   9    4.51   10.68
   3   8  -9  -13.37   10.55
  -3  -8   8  224.80   34.79
   3   8  -8  173.31   24.03
   3   8  -7 1462.80   74.55
  -3  -8   7 1463.73   96.39
  -3  -8   6   25.85   15.37
   3   8  -6   61.01   12.83
  -3  -8   5  290.71   38.29
   3   8  -5  320.26   25.15
   3   8  -4  481.69   29.06
  -3  -8   4  518.82   51.12
   3   8  -3  765.42   36.02
  -3  -8   3  825.99   64.13
   3   8  -2  517.13   25.41
  -3  -8   2  582.90   51.72
  -3  -8   1   39.50   16.07
  -3  -8   0 3272.57  116.45
  -3  -8   0 3069.66  145.94
  -3  -8  -1  118.96   12.30
  -3  -8  -1  148.29   25.90
   3   8   2  166.80   31.20
  -3  -8  -2  140.98   12.95
  -3  -8  -2  142.36   24.92
   3   8   3  181.48   32.22
  -3  -8  -3  174.14   14.84
  -3  -8  -3  192.61   29.54
   3   8   4  626.65   61.24
  -3  -8  -4  700.69   35.08
  -3  -8  -4  658.33   56.15
  -3  -8  -5   76.20   20.57
  -3  -8  -5   88.08   11.78
   3   8   5   76.17   22.24
  -3  -8  -6   64.52   17.74
  -3  -8  -6   69.31   11.63
   3   8   6   37.83   16.89
  -3  -8  -7   41.74   16.01
  -3  -8  -7   28.47    9.28
   3   8   7   14.68   14.91
  -3  -8  -8   17.91   13.41
  -3  -8  -8    3.98    8.14
   3   8   8  -12.93   15.36
  -3  -8  -9 1066.89   72.75
   3   8   9  992.15   77.25
  -3  -8  -9  992.89   56.76
  -3  -8 -10  467.87   45.97
   3   8  10  390.60   47.97
  -3  -8 -10  470.04   37.59
  -3  -8 -11  169.52   23.31
   3   8  11  168.05   30.65
  -3  -8 -12   12.21   10.59
   3   8  12  -15.06   13.79
  -3  -9  10 1559.91  103.97
  -3  -9   9  129.08   29.44
  -3  -9   8   26.43   16.30
  -3  -9   7  600.59   59.44
  -3  -9   6    4.33   12.87
  -3  -9   5   -1.41   14.86
  -3  -9   4  114.32   25.86
  -3  -9   3   43.83   17.26
  -3  -9   2  172.52   30.81
  -3  -9   1 1589.05   97.75
  -3  -9   0   59.19   19.82
   3   9   1  330.81   45.42
  -3  -9  -1  309.65   39.09
   3   9   2  327.03   45.38
  -3  -9  -2  313.36   38.97
   3   9   3  739.68   68.10
  -3  -9  -3  653.18   57.97
   3   9   4 1402.65   97.70
  -3  -9  -4 1302.35   87.00
   3   9   5 1164.90   87.13
  -3  -9  -5  953.01   72.90
  -3  -9  -6 2263.86  124.27
   3   9   6 2321.78  133.25
  -3  -9  -7  164.39   30.54
   3   9   7  157.07   32.59
  -3  -9  -8  388.10   44.64
   3   9   8  400.27   49.44
  -3  -9  -9   38.54   17.57
   3   9   9   69.55   24.39
  -3  -9 -10 1106.84   78.38
   3   9  10 1089.66   84.25
   3   9  11  357.76   45.35
   3   9  12  205.60   33.19
  -3 -10   9  175.30   33.79
  -3 -10   8 1207.81   92.10
  -3 -10   7   74.69   22.71
  -3 -10   6 1459.94  101.58
  -3 -10   5   18.78   15.70
  -3 -10   4 1066.17   83.85
  -3 -10   3  782.81   70.40
  -3 -10   2  520.70   56.30
  -3 -10   1  672.87   63.65
  -3 -10   0  195.55   34.43
   3  10   1  121.60   30.76
  -3 -10  -1  109.52   24.91
   3  10   2  140.63   30.88
  -3 -10  -2  191.70   32.91
  -3 -10  -3   43.05   16.47
   3  10   3   60.74   21.39
  -3 -10  -4   22.85   15.19
   3  10   4   -3.93   14.81
  -3 -10  -5   81.99   23.57
   3  10   5   94.43   27.87
  -3 -10  -6  331.40   45.66
   3  10   6  446.19   54.14
  -3 -10  -7    3.46   17.85
   3  10   7  -27.56   18.15
  -3 -10  -8  936.20   77.40
   3  10   8  921.72   78.94
  -3 -10  -9   36.35   17.83
   3  10   9    1.15   20.32
   3  10  10  544.60   59.46
   3  10  11  -10.02   18.24
  -3 -11   6   52.95   21.96
  -3 -11   5   40.53   19.33
  -3 -11   4  286.59   43.68
  -3 -11   3  460.18   55.01
  -3 -11   2 1429.91  101.09
  -3 -11   1   22.52   19.06
  -3 -11   0   88.81   26.45
   3  11   1 1352.63  100.05
  -3 -11  -1 1232.91   93.78
   3  11   2  470.32   56.11
  -3 -11  -2  430.49   52.91
   3  11   3 1002.15   84.38
  -3 -11  -3  922.60   79.90
  -3 -11  -4   45.08   20.03
   3  11   4   34.83   17.00
   3  11   5  656.20   67.32
  -3 -11  -5  717.04   70.11
  -3 -11  -6   92.08   27.48
   3  11   6  103.86   28.45
  -3 -11  -7   15.79   17.12
   3  11   7   38.28   20.48
  -3 -11  -8  490.46   56.38
   3  11   8  537.17   59.62
  -3 -11  -9   41.00   19.89
   3  11   9   27.97   18.57
   3  11  10   73.86   24.04
  -3 -12   2   79.25   26.64
  -3 -12   1  200.80   39.05
  -3 -12   0   15.11   17.31
  -3 -12  -1  135.59   30.74
   3  12   2 1197.51   94.06
  -3 -12  -2 1007.69   86.19
   3  12   3  119.18   30.61
  -3 -12  -3   92.09   28.22
  -3 -12  -4  342.80   49.25
   3  12   4  310.68   48.12
  -3 -12  -5  134.30   31.93
   3  12   5   95.13   28.42
  -3 -12  -6  506.01   59.23
   3  12   6  419.18   53.54
  -3 -12  -7  694.44   69.77
  -3 -12  -8  582.87   62.88
  -4  12   1  -15.32   12.99
  -4  12   0  440.40   43.85
  -4  12  -1  135.48   23.36
  -4  12  -2  334.96   37.57
  -4  12  -4  198.49   31.04
  -4  12  -5   52.07   19.28
  -4  11   3   97.70   23.80
   4 -11  -3   19.78   12.29
  -4  11   2   10.77   10.31
   4 -11  -2   63.59   17.66
  -4  11   1  -17.87   10.86
   4 -11  -1   -1.62   10.26
  -4  11   0  115.30   22.86
   4 -11   0  122.33   24.30
  -4  11  -1  -17.92    9.16
  -4  11  -2  170.16   26.03
  -4  11  -2  314.81   36.34
  -4  11  -3    6.49   10.54
  -4  11  -3   14.76    9.70
  -4  11  -4  848.87   65.53
  -4  11  -5   48.70   17.00
  -4  11  -6  210.02   33.68
  -4  11  -7   87.42   23.81
   4 -10  -7  112.50   25.51
   4 -10  -6  289.88   39.43
   4 -10  -5  430.27   46.63
   4 -10  -4   13.59   12.32
   4 -10  -3  222.38   33.53
   4 -10  -2  -28.66   15.04
   4 -10  -1  680.00   56.85
  -4  10   0   22.48   11.98
   4 -10   0   17.27   12.78
  -4  10  -1   17.19   10.31
  -4  10  -1   17.69   11.13
  -4  10  -2   56.25   15.68
  -4  10  -2   83.56   19.85
  -4  10  -3    5.60    8.59
  -4  10  -3    3.03    9.98
  -4  10  -4   44.83   13.82
  -4  10  -4   63.64   18.12
  -4  10  -5   34.87   15.58
  -4  10  -6   59.02   19.01
  -4  10  -7   15.39   14.48
  -4  10  -8 1418.31   94.76
   4  -9  -9  -10.17   16.48
   4  -9  -8  429.73   51.99
   4  -9  -7   84.90   24.55
   4  -9  -6  382.79   45.51
   4  -9  -5   32.12   18.18
   4  -9  -4  120.65   24.85
   4  -9  -3  118.86   25.13
   4  -9  -2  785.03   63.63
   4  -9  -1   23.08   12.60
  -4   9   0  488.34   40.82
  -4   9   0  434.97   36.18
   4  -9   0  397.22   44.06
  -4   9  -1 2425.34  113.35
  -4   9  -1 2413.89  104.38
   4  -9   1 2302.92  119.79
  -4   9  -2   41.28   14.87
  -4   9  -2   49.09   13.10
  -4   9  -2    3.09   10.03
  -4   9  -3  384.84   39.90
  -4   9  -3  411.96   32.56
  -4   9  -3  348.17   35.08
  -4   9  -4   55.93   14.30
  -4   9  -4   82.87   20.19
  -4   9  -4   81.30   14.53
  -4   9  -5 1524.90   73.99
  -4   9  -5 1590.66   91.88
  -4   9  -5 1554.47   81.05
  -4   9  -6  127.80   18.46
  -4   9  -6  152.76   27.66
  -4   9  -7   79.63   15.01
  -4   9  -7   76.44   21.55
  -4   9  -8  184.28   23.14
  -4   9  -9  162.79   22.08
  -4   9 -10   35.23   13.04
  -4   9 -11  102.09   21.21
   4  -8  -9 1324.29   96.68
   4  -8  -8  185.28   34.77
   4  -8  -7 1036.70   79.29
   4  -8  -6  186.27   32.13
   4  -8  -5   68.32   21.75
   4  -8  -4  431.56   45.00
   4  -8  -3  189.92   30.55
   4  -8  -2  275.62   37.11
   4  -8  -1   17.11   14.94
   4  -8   0    2.42   11.78
  -4   8  -1  167.87   22.59
   4  -8   1  134.86   26.98
  -4   8  -2  133.37   21.47
  -4   8  -2  129.84   19.62
   4  -8   2  113.35   24.15
  -4   8  -3   14.80    8.82
  -4   8  -3   63.65   16.46
  -4   8  -4   13.93    8.33
  -4   8  -4   19.97    9.33
  -4   8  -4    4.07    9.32
  -4   8  -5  572.76   41.34
  -4   8  -5  536.66   48.33
  -4   8  -5  539.55   41.32
  -4   8  -6   85.12   15.42
  -4   8  -6   68.08   14.37
  -4   8  -7 1515.73   76.95
  -4   8  -8  106.24   18.30
  -4   8  -9  390.12   35.24
  -4   8 -10   -4.39   11.40
  -4   8 -11  205.00   27.83
  -4   8 -12  502.26   44.67
  -4   8 -13   76.83   20.50
   4  -7 -10   50.49   21.02
   4  -7  -9  173.05   34.51
   4  -7  -8   44.55   19.92
   4  -7  -7  138.67   28.04
   4  -7  -6  160.83   30.29
   4  -7  -5  758.38   63.06
   4  -7  -4  385.84   42.57
   4  -7  -3  932.23   67.70
   4  -7  -2  504.96   49.65
   4  -7  -1   37.21   16.55
   4  -7   0  837.01   67.92
  -4   7  -1   76.52   16.71
   4  -7   1   45.88   17.07
  -4   7  -2  735.12   51.11
   4  -7   2  791.51   62.03
  -4   7  -3  206.22   25.23
  -4   7  -4   65.17   15.93
  -4   7  -5   52.77   12.28
  -4   7  -5   44.91   12.10
  -4   7  -6   35.88   10.68
  -4   7  -6   10.01    7.71
  -4   7  -7   89.51   17.67
  -4   7  -8    7.16    8.81
  -4   7  -9  372.81   34.98
  -4   7 -10  258.35   30.32
  -4   7 -11  739.76   54.34
  -4   7 -12   74.53   18.79
  -4   7 -13  963.10   67.56
   4  -6 -10  994.29   82.96
   4  -6  -9   44.44   18.29
   4  -6  -8   28.12   17.28
   4  -6  -7   89.69   22.24
   4  -6  -6  189.81   31.67
   4  -6  -5   90.75   22.51
   4  -6  -4  614.89   53.93
   4  -6  -3   25.57   14.66
   4  -6  -2  370.71   41.13
   4  -6  -1  633.64   54.92
   4  -6   0   51.74   17.55
   4  -6   1  824.35   65.64
  -4   6  -2  428.56   37.61
   4  -6   2  422.50   45.56
  -4   6  -3 1433.03   75.88
   4  -6   3 1292.59   83.61
  -4   6  -4 1128.28   66.06
  -4   6  -5   13.56    8.20
  -4   6  -6 1078.30   63.78
  -4   6  -6 1055.73   55.44
  -4   6  -7  481.62   40.47
  -4   6  -7  475.56   30.32
  -4   6  -8 1754.05   89.83
  -4   6  -9  204.73   26.87
  -4   6 -10  177.00   25.66
  -4   6 -11   59.52   17.30
  -4   6 -12  216.76   30.55
  -4   6 -13   11.04   10.59
   4  -5 -11  421.12   55.57
   4  -5 -10  417.80   53.12
   4  -5  -9   41.95   19.05
   4  -5  -8  479.44   51.67
   4  -5  -7   11.03   11.06
   4  -5  -6 2115.06  114.71
   4  -5  -5  183.95   30.86
   4  -5  -4 1855.01  101.83
   4  -5  -3  232.64   31.85
   4  -5  -2  467.08   45.36
   4  -5  -1  140.70   25.73
   4  -5   0  213.24   32.10
   4  -5   1 1535.28   95.57
   4  -5   2   23.44   14.84
  -4   5  -3   78.46   16.17
   4  -5   3   71.01   19.30
  -4   5  -4   88.75   17.82
  -4   5  -5   17.28    9.23
  -4   5  -6  216.71   27.09
  -4   5  -7  124.00   20.52
  -4   5  -7  121.96   13.43
  -4   5  -8  351.63   35.78
  -4   5  -9   15.87   10.71
  -4   5 -10 2141.83  106.10
  -4   5 -11   29.13   13.20
  -4   5 -12  429.47   43.33
  -4   5 -13   37.06   17.03
  -4   5 -14  519.70   52.11
   4  -4 -11  425.87   56.67
   4  -4 -10   -3.75   13.76
   4  -4  -9  474.37   52.90
   4  -4  -8    1.16   10.81
   4  -4  -7   18.84   13.23
   4  -4  -6  473.14   47.24
   4  -4  -5   55.46   16.95
   4  -4  -4   31.42   13.48
   4  -4  -3  241.70   31.75
   4  -4  -2 1675.41   93.89
   4  -4  -1  596.94   51.51
   4  -4   0  781.80   61.94
   4  -4   1 1347.72   87.70
   4  -4   2  171.70   29.60
  -4   4  -3  440.92   39.15
   4  -4   3  558.36   51.27
  -4   4  -4   -2.61    7.66
  -4   4  -5 2101.59  102.52
  -4   4  -6   77.59   17.09
  -4   4  -7   10.09    5.27
  -4   4  -7    4.63    8.07
  -4   4  -8  143.83   23.61
  -4   4  -9    3.63    8.92
  -4   4 -10   55.44   16.71
  -4   4 -11  237.80   32.15
  -4   4 -12    6.66    9.40
  -4   4 -13    5.12   13.03
  -4   4 -14 1467.39   95.01
   4  -3 -11   85.60   27.56
   4  -3 -10    4.16   14.98
   4  -3  -9 2305.70  132.13
   4  -3  -8   45.94   17.70
   4  -3  -7  357.52   42.51
   4  -3  -6  803.15   63.21
   4  -3  -5  818.33   62.49
   4  -3  -4    9.17   10.01
   4  -3  -3   11.13   10.87
   4  -3  -2 1240.89   76.46
   4  -3  -1  384.61   39.22
   4  -3   0  985.30   68.79
   4  -3   1   46.15    8.97
   4  -3   1   34.11   13.45
   4  -3   2    0.21    4.52
   4  -3   2    6.49   10.01
  -4   3  -3   41.24   12.29
   4  -3   3   26.68    8.58
   4  -3   3   51.44   16.68
  -4   3  -4 3383.15  144.13
   4  -3   4 3328.57  154.45
  -4   3  -5   23.57   11.02
  -4   3  -6  816.93   57.57
  -4   3  -7 1416.92   54.65
  -4   3  -7 1901.74   92.21
  -4   3  -8  137.45   23.74
  -4   3  -9  775.22   59.32
  -4   3 -10  402.22   42.02
  -4   3 -11 2515.16  126.60
  -4   3 -12   31.30   15.02
  -4   3 -13  116.43   26.94
  -4   3 -14   42.49   18.81
   4  -2 -11   32.53   19.98
   4  -2 -10   -5.77   14.72
   4  -2  -9   12.74   16.37
   4  -2  -8  661.43   60.73
   4  -2  -7  765.47   62.19
   4  -2  -6   90.54   21.67
   4  -2  -5  520.92   47.18
   4  -2  -4  115.18   22.53
   4  -2  -3 2758.68  127.60
   4  -2  -2  452.52   22.18
   4  -2  -2  438.72   41.54
   4  -2  -1 3559.29  155.84
   4  -2  -1 3704.84  127.13
   4  -2   0  170.64   26.36
   4  -2   0  206.12   18.07
   4  -2   1  322.09   38.13
   4  -2   1  363.25   26.81
   4  -2   2  104.57   22.27
   4  -2   2  142.30   17.71
  -4   2  -3  414.29   37.67
   4  -2   3  351.15   39.15
   4  -2   3  415.10   31.46
  -4   2  -4  999.80   62.19
   4  -2   4  844.01   63.14
  -4   2  -5    1.14    6.83
  -4   2  -6   11.01    9.54
  -4   2  -7  575.99   48.99
  -4   2  -7  437.54   23.44
  -4   2  -8  109.41   23.49
  -4   2  -9   36.10   15.41
  -4   2 -10  104.73   22.69
  -4   2 -11  671.07   57.87
  -4   2 -12   51.39   18.31
  -4   2 -13 1187.51   84.99
  -4   2 -14   93.61   26.16
   4  -1 -11  205.27   39.52
   4  -1 -10  229.78   40.23
   4  -1  -9   -2.57   12.40
   4  -1  -8  385.64   45.59
   4  -1  -7    0.86   12.20
   4  -1  -6  411.71   42.44
   4  -1  -5   56.24   16.07
   4  -1  -4    5.35    8.64
   4  -1  -3  495.88   43.28
   4  -1  -2   61.32   15.85
   4  -1  -1  531.06   44.65
   4  -1   0   -0.14    7.52
   4  -1   1 1012.15   67.54
   4  -1   2 1593.78   91.70
  -4   1  -3 2388.48  107.29
   4  -1   3 2208.08  112.74
  -4   1  -4  512.94   42.06
   4  -1   4  493.42   44.70
  -4   1  -5  121.17   20.74
  -4   1  -6 1319.84   77.03
  -4   1  -6 1168.88   53.01
  -4   1  -7  166.45   26.65
  -4   1  -7  166.86   14.44
  -4   1  -8  971.30   67.93
  -4   1  -8  781.71   34.43
  -4   1  -9  400.50   43.54
  -4   1 -10  625.24   56.62
  -4   1 -11   38.76   15.52
  -4   1 -12   82.28   23.70
  -4   1 -13  202.23   36.16
  -4   1 -14   14.03   20.18
   4   0 -12  199.23   42.62
   4   0 -11  461.74   59.88
   4   0 -10  771.27   73.62
   4   0  -9    8.31   12.03
   4   0  -8 1135.01   82.16
   4   0  -7  898.19   67.47
   4   0  -6 1665.45   95.10
   4   0  -5  907.44   63.18
   4   0  -4 1468.62   82.47
   4   0  -3   43.02   13.58
   4   0  -2  658.03   49.22
   4   0  -1  820.89   55.86
   4   0   0  975.03   62.34
   4   0   1  200.57   27.86
   4   0   2 1565.70   88.59
   4   0   3   22.81   10.95
  -4   0  -4  364.66   34.91
   4   0   4  325.96   34.39
  -4   0  -5  220.13   20.12
  -4   0  -5  199.09   26.16
  -4   0  -6  194.11   26.44
  -4   0  -6  203.49   18.60
  -4   0  -7 1497.33   85.72
  -4   0  -7 1553.70   66.31
  -4   0  -8  292.23   34.38
  -4   0  -8  247.43   21.59
  -4   0  -9 1330.31   82.76
  -4   0 -10  470.00   46.90
  -4   0 -11   12.76   14.20
  -4   0 -12  894.38   71.47
  -4   0 -13  472.78   53.38
  -4   0 -14 1894.82  119.82
  -4   0 -15   90.20   28.34
   4   1 -12   30.48   19.83
   4   1 -11   82.13   28.14
   4   1 -10   36.20   20.06
   4   1  -9  143.90   30.27
   4   1  -8  208.58   33.82
  -4  -1   8  239.83   26.51
   4   1  -7   -6.81    8.62
   4   1  -6   -4.85   10.18
   4   1  -5  503.52   44.99
   4   1  -4  840.95   57.89
   4   1  -3  417.16   38.30
   4   1  -2  388.56   36.22
   4   1  -1  109.97   18.72
   4   1   0 3496.05  146.17
   4   1   1   76.59   17.51
   4   1   2 2171.17  107.78
  -4  -1  -3  143.55   17.66
  -4  -1  -3  140.87   20.81
   4   1   3  143.62   22.72
  -4  -1  -4 1624.93   73.88
  -4  -1  -4 1636.58   83.74
  -4  -1  -5   50.88   13.42
  -4  -1  -5   48.30   11.17
  -4  -1  -6   22.72   11.06
  -4  -1  -6   16.51    7.37
  -4  -1  -7  586.04   47.99
  -4  -1  -7  704.74   42.30
  -4  -1  -8    4.41    7.91
  -4  -1  -8   27.18    8.55
  -4  -1  -9   12.64   10.65
  -4  -1 -10  424.94   43.74
  -4  -1 -11   11.90   11.87
  -4  -1 -12  235.56   34.95
  -4  -1 -13  377.79   45.87
  -4  -1 -14  386.32   48.15
  -4  -1 -15   14.40   17.27
   4   2 -12  191.31   42.57
   4   2 -11  282.44   46.40
   4   2 -10  870.01   77.85
   4   2  -9  885.84   76.77
  -4  -2   9 1131.91   66.60
   4   2  -8  280.92   38.74
  -4  -2   8  340.12   33.92
   4   2  -7  454.09   46.05
  -4  -2   7  445.23   37.75
   4   2  -6  137.78   24.96
   4   2  -5  660.93   51.21
   4   2  -4   19.01    9.35
   4   2  -3  276.23   30.04
   4   2  -2   32.80   11.52
   4   2  -1   18.32    9.29
   4   2   0 1147.76   66.33
   4   2   1   -2.54    9.13
  -4  -2  -2  299.93   26.82
   4   2   2  373.68   35.66
  -4  -2  -3   46.64   12.89
   4   2   3   27.09   10.54
  -4  -2  -4 2033.36   95.00
  -4  -2  -4 1972.24   88.20
  -4  -2  -5  758.37   50.90
  -4  -2  -5  751.53   46.43
  -4  -2  -6 1242.27   68.97
  -4  -2  -6 1115.47   60.51
  -4  -2  -7 1512.51   80.31
  -4  -2  -7 1408.98   71.44
  -4  -2  -8 1225.85   71.76
  -4  -2  -8 1114.61   63.35
  -4  -2  -9  250.26   31.31
  -4  -2 -10    7.47   11.05
  -4  -2 -11 2332.19  118.58
  -4  -2 -12    0.78   10.78
  -4  -2 -13   25.39   14.19
  -4  -2 -14   18.92   14.81
  -4  -2 -15  258.97   41.25
   4   3 -12  118.86   34.86
   4   3 -11   42.72   21.44
   4   3 -10  610.40   63.77
  -4  -3   9   -6.55   10.07
   4   3  -9   24.33   16.61
  -4  -3   8   56.31   15.71
   4   3  -8   62.13   18.66
   4   3  -7 1699.84   99.66
  -4  -3   7 1931.08   95.99
   4   3  -6  204.83   28.78
  -4  -3   6  242.98   28.21
   4   3  -5  318.04   33.82
   4   3  -4  676.01   49.32
   4   3  -3 4682.72  182.29
   4   3  -2  146.24   20.70
   4   3  -1  408.73   35.04
   4   3   0  800.55   52.41
  -4  -3   0  832.84   47.37
  -4  -3  -1 2396.45   98.51
   4   3   1 2407.28  109.83
   4   3   2   38.71   12.25
  -4  -3  -2   59.16   10.99
  -4  -3  -3  146.20   17.29
   4   3   3  151.46   20.58
  -4  -3  -3  149.01   20.41
  -4  -3  -4  876.25   54.49
  -4  -3  -4  892.75   49.71
  -4  -3  -5  180.46   22.87
  -4  -3  -6  335.04   32.03
  -4  -3  -7   11.66    6.97
  -4  -3  -7    2.69    7.76
  -4  -3  -8   95.88   19.26
  -4  -3  -8   95.40   17.94
  -4  -3  -9   18.62   11.48
  -4  -3 -10 2105.61  105.81
  -4  -3 -11   39.11   14.79
  -4  -3 -12  812.79   62.86
  -4  -3 -13  426.55   46.53
  -4  -3 -14  169.91   30.64
  -4  -3 -15  278.69   40.87
   4   4 -11  485.62   58.83
   4   4 -10 1556.80  103.54
  -4  -4   9   31.10   15.17
   4   4  -9   60.13   20.41
  -4  -4   8   53.52   15.22
   4   4  -8   30.30   14.41
  -4  -4   7   -4.74    9.07
   4   4  -7   13.44   11.84
  -4  -4   6  153.36   23.67
   4   4  -6  140.40   23.30
   4   4  -5  408.62   36.91
  -4  -4   5  367.57   35.49
   4   4  -4   14.63    9.57
   4   4  -3   61.98   13.79
   4   4  -2  369.45   32.58
   4   4  -1  656.53   44.95
  -4  -4   1  707.93   42.04
   4   4   0  157.74   21.24
  -4  -4   0  155.60   17.25
   4   4   1  865.70   54.12
   4   4   2  761.03   47.74
  -4  -4  -3 2158.86   96.47
  -4  -4  -4  494.98   37.25
  -4  -4  -4  438.89   30.98
  -4  -4  -5 2161.74   95.66
  -4  -4  -5 1998.79   87.64
  -4  -4  -6   31.40   10.81
  -4  -4  -7 1005.53   59.90
  -4  -4  -8  149.02   21.99
  -4  -4  -9  480.77   41.67
  -4  -4 -10  371.56   37.25
  -4  -4 -11   77.14   19.79
  -4  -4 -12   39.90   17.27
  -4  -4 -13  507.66   50.08
  -4  -4 -14   61.76   20.96
   4   5 -11  413.33   52.05
   4   5 -10   14.21   14.32
   4   5  -9  466.90   47.59
  -4  -5   9  491.24   48.71
  -4  -5   8  152.96   25.98
   4   5  -8  121.76   24.59
   4   5  -7  584.14   48.44
  -4  -5   7  543.49   48.59
   4   5  -6 1216.99   71.40
  -4  -5   6 1148.81   74.16
   4   5  -5  382.32   35.00
  -4  -5   5  335.49   35.74
   4   5  -4  477.82   38.03
  -4  -5   4  454.55   40.77
   4   5  -3  305.06   28.78
  -4  -5   3  281.74   30.51
   4   5  -2  332.95   29.45
  -4  -5   2  301.62   24.92
   4   5  -1   72.53   13.48
  -4  -5   1   69.77   11.23
   4   5   0  628.77   42.25
   4   5   1    6.11    6.29
  -4  -5  -2   10.64    8.31
   4   5   2    6.40    6.91
  -4  -5  -3  390.67   32.06
  -4  -5  -4    4.78    5.63
  -4  -5  -5  554.93   39.31
  -4  -5  -5  512.15   33.04
  -4  -5  -6  159.84   20.60
  -4  -5  -7 1161.27   63.98
  -4  -5  -8  943.46   57.90
  -4  -5  -9 1724.63   87.44
  -4  -5 -10  201.17   26.67
  -4  -5 -11  541.12   46.73
  -4  -5 -12  798.56   60.54
  -4  -5 -13  315.32   38.80
  -4  -5 -14  429.23   46.57
   4   6 -11   83.60   24.94
   4   6 -10  746.72   64.14
  -4  -6   9   31.02   11.70
   4   6  -9   10.40   15.04
  -4  -6   8  110.18   24.37
   4   6  -8   93.33   20.55
  -4  -6   7   84.48   21.13
   4   6  -7  108.29   19.91
  -4  -6   6  166.39   26.69
   4   6  -6  156.11   22.33
   4   6  -5  838.13   52.89
  -4  -6   5  808.22   61.07
   4   6  -4  323.19   29.68
  -4  -6   4  316.81   35.77
  -4  -6   3   13.14   10.38
   4   6  -3   13.16    7.39
   4   6  -2 1816.00   79.10
  -4  -6   2 1670.26   90.86
   4   6  -1 1921.02   82.51
  -4  -6   1 1786.90   93.24
   4   6   0 2081.90   88.78
   4   6   1  326.62   25.43
  -4  -6  -1  295.12   20.86
  -4  -6  -2 1841.18   81.23
  -4  -6  -2 1697.39   68.63
  -4  -6  -3    4.48    6.47
  -4  -6  -3    6.17    3.76
  -4  -6  -4 1229.49   62.67
  -4  -6  -5  887.49   51.02
  -4  -6  -6  862.83   50.83
  -4  -6  -7  107.41   17.04
  -4  -6  -8  353.61   32.06
  -4  -6  -9   25.60   11.77
   4   6  10   56.04   20.26
  -4  -6 -10   51.61   14.76
  -4  -6 -11   10.16   10.01
  -4  -6 -11    3.75    9.47
  -4  -6 -12   56.04   16.59
  -4  -6 -13  798.38   60.88
  -4  -6 -14  282.09   36.64
   4   7 -10  590.36   54.09
   4   7  -9  502.14   46.70
  -4  -7   9  422.73   49.79
   4   7  -8  813.67   58.94
  -4  -7   8  892.92   72.01
   4   7  -7 1471.97   79.00
  -4  -7   7 1375.80   92.13
  -4  -7   6   40.89   15.11
   4   7  -6   25.18    8.75
   4   7  -5  256.54   26.62
  -4  -7   5  344.25   39.07
  -4  -7   4   12.61   12.11
   4   7  -4   16.66    7.09
  -4  -7   3  162.42   25.24
   4   7  -3  126.38   15.82
   4   7  -2  359.46   26.48
  -4  -7   2  341.25   37.03
  -4  -7   1   13.77    9.95
   4   7  -1   10.22    6.69
  -4  -7   0   22.04   11.68
   4   7   0   24.11    7.25
  -4  -7  -1   50.82   15.19
  -4  -7  -1   58.70   12.09
  -4  -7  -2 1022.15   53.50
  -4  -7  -2  874.92   63.26
  -4  -7  -3  429.79   31.23
  -4  -7  -3  394.71   40.78
  -4  -7  -4  325.30   26.78
  -4  -7  -4  312.92   36.00
  -4  -7  -5  425.16   31.20
  -4  -7  -5  377.31   40.47
  -4  -7  -6 1834.33   81.25
  -4  -7  -6 1746.33   98.42
  -4  -7  -7   34.85   11.38
  -4  -7  -7   16.67   11.34
  -4  -7  -8  811.12   49.06
   4   7   8  799.75   66.43
  -4  -7  -8  729.34   58.64
  -4  -7  -9  210.05   24.54
   4   7   9  216.82   34.79
  -4  -7  -9  184.04   28.56
  -4  -7 -10 1207.95   68.48
   4   7  10 1228.35   84.93
  -4  -7 -10 1180.61   78.58
  -4  -7 -11   15.88   10.45
  -4  -7 -11   16.47   11.47
  -4  -7 -12  117.98   23.05
  -4  -7 -13  196.51   29.51
  -4  -7 -14   39.51   16.11
  -4  -8   9  -46.92   19.55
  -4  -8   8  623.21   62.37
  -4  -8   7   -4.63   14.50
  -4  -8   6  455.09   50.69
  -4  -8   5   25.05   15.12
  -4  -8   4  685.70   59.88
  -4  -8   3 1429.00   88.85
  -4  -8   2  418.82   44.70
  -4  -8   1  277.87   35.95
  -4  -8   0  316.08   38.09
  -4  -8  -1  599.61   37.33
  -4  -8  -1  508.32   48.18
  -4  -8  -2   17.76   13.35
  -4  -8  -2   -0.19    5.44
  -4  -8  -3   93.08   21.21
  -4  -8  -3   89.98   13.55
  -4  -8  -4   -3.42    8.99
  -4  -8  -4    6.21    5.98
  -4  -8  -5  146.21   16.65
  -4  -8  -5  141.12   28.07
  -4  -8  -6  762.25   43.07
  -4  -8  -6  651.95   58.60
   4   8   7  -23.46   16.41
  -4  -8  -7    7.38   12.16
  -4  -8  -7    1.82    6.19
   4   8   8  121.32   28.47
  -4  -8  -8   97.22   22.43
  -4  -8  -8  102.13   16.36
   4   8   9    0.55   14.49
  -4  -8  -9   22.45   14.80
  -4  -8  -9    7.93    8.88
   4   8  10 1472.76   99.76
  -4  -8 -10 1392.76   89.41
  -4  -8 -10 1405.08   74.81
   4   8  11   72.58   22.64
  -4  -9   8   34.99   16.15
  -4  -9   7  108.23   26.40
  -4  -9   6  252.78   38.22
  -4  -9   5   33.57   17.65
  -4  -9   4  759.19   66.53
  -4  -9   3  -15.85   12.62
  -4  -9   2   54.04   19.11
  -4  -9   1  720.90   61.20
  -4  -9   0  357.59   42.15
  -4  -9  -1  332.67   40.56
  -4  -9  -2  474.51   48.69
  -4  -9  -3 3791.19  174.89
  -4  -9  -4    6.80   12.62
  -4  -9  -5  186.89   31.52
   4   9   6   69.43   26.56
  -4  -9  -6   74.75   21.47
   4   9   7 2176.76  134.47
  -4  -9  -7 2205.49  122.17
   4   9   8  253.30   41.80
  -4  -9  -8  243.02   35.57
   4   9   9  186.58   36.35
  -4  -9  -9  175.43   30.79
   4   9  10  229.75   38.57
  -4  -9 -10  282.69   38.65
   4   9  11  -48.13   20.57
  -4 -10   5  561.70   60.19
  -4 -10   4 1004.60   81.48
  -4 -10   3   41.47   17.92
  -4 -10   2  400.61   48.24
  -4 -10   1   88.88   23.52
  -4 -10   0  134.23   28.60
  -4 -10  -1  342.51   42.92
  -4 -10  -2   -3.65   14.30
  -4 -10  -3   17.13   13.45
  -4 -10  -4   84.37   22.71
  -4 -10  -5  356.19   46.29
   4  10   6  181.27   36.83
  -4 -10  -6  139.98   30.12
   4  10   7  510.29   62.97
  -4 -10  -7  530.09   55.73
   4  10   8  695.21   72.08
  -4 -10  -8  636.20   61.66
   4  10   9  872.74   81.93
  -4 -10  -9  836.68   72.83
   4  10  10   46.65   20.19
  -4 -11   2   22.20   14.94
  -4 -11   1  638.72   63.41
  -4 -11   0  589.45   60.37
  -4 -11  -1  207.98   37.30
  -4 -11  -2  572.45   60.36
  -4 -11  -3  520.38   58.01
  -4 -11  -4  254.08   39.14
  -4 -11  -5   17.60   14.31
   4  11   6  196.23   41.62
  -4 -11  -6  174.21   35.90
   4  11   7   50.20   31.48
  -4 -11  -7   40.48   21.91
   4  11   8   -5.93   24.01
  -4 -11  -8  -35.24   19.01
  -4 -11  -9   53.93   21.81
   5 -11  -1   75.55   24.12
  -5  11   0  230.85   33.36
   5 -11   0  181.03   32.26
  -5  11  -1  655.04   53.89
  -5  11  -2  -12.93   10.83
   5 -10  -4  320.96   45.50
   5 -10  -3   71.22   24.17
   5 -10  -2  143.22   31.45
   5 -10  -1   29.83   17.03
   5 -10   0    4.53   13.79
   5 -10   1   -5.71   14.39
  -5  10  -2   51.21   15.22
  -5  10  -3   75.99   18.26
   5  -9  -6  304.47   48.07
   5  -9  -5  276.62   44.04
   5  -9  -4   17.32   16.88
   5  -9  -3  370.83   49.80
   5  -9  -2 1380.89   98.71
   5  -9  -1  -17.26   20.73
  -5   9   0  386.36   38.90
   5  -9   0  292.92   42.75
  -5   9  -1   29.28   13.82
   5  -9   1   40.09   20.20
  -5   9  -2 2014.55   99.60
   5  -9   2 1967.34  117.86
  -5   9  -3   13.21   11.03
  -5   9  -4  164.79   23.72
  -5   9  -4  132.10   22.30
  -5   9  -5  523.72   42.12
  -5   9  -6  121.58   21.54
  -5   9  -7   18.48   10.96
  -5   9  -8   15.05    9.96
  -5   9  -9  127.99   22.00
   5  -8  -6   -4.98   15.30
   5  -8  -5  995.40   82.03
   5  -8  -4   17.35   19.26
   5  -8  -3   12.65   15.66
   5  -8  -2   27.28   17.92
   5  -8  -1    0.32   17.23
   5  -8   0    8.86   16.47
  -5   8  -1   68.18   17.37
   5  -8   1   81.68   26.53
  -5   8  -2   -2.97   14.14
   5  -8   2   36.10   18.32
  -5   8  -3  350.89   36.70
  -5   8  -4 1017.41   65.36
  -5   8  -5   50.46   15.04
  -5   8  -6  534.71   45.22
  -5   8  -7   18.54   11.97
  -5   8  -8  717.23   53.40
  -5   8  -9  136.28   23.37
  -5   8 -10  386.46   38.88
  -5   8 -11   84.60   20.84
   5  -7  -7   21.19   20.75
   5  -7  -6  613.67   64.61
   5  -7  -5   86.26   26.04
   5  -7  -4  396.12   50.02
   5  -7  -3   74.74   24.75
   5  -7  -2  148.49   33.91
   5  -7  -1  986.12   82.03
   5  -7   0   86.28   24.51
   5  -7   1  101.13   27.06
  -5   7  -2   58.56   16.49
   5  -7   2   27.66   15.06
  -5   7  -3   36.33   13.93
   5  -7   3    9.59   12.73
  -5   7  -4   15.28   10.99
  -5   7  -5   10.86    9.31
  -5   7  -6    2.48   10.51
  -5   7  -7   -9.02   11.67
  -5   7  -8  987.19   65.56
  -5   7  -9  -33.50   13.60
  -5   7 -10  666.23   54.05
  -5   7 -11   11.36   12.13
  -5   7 -12  485.72   47.74
   5  -6  -8   72.19   24.80
   5  -6  -7   75.27   24.66
   5  -6  -6   21.53   16.28
   5  -6  -5  233.49   38.05
   5  -6  -4  181.55   33.39
   5  -6  -3   31.75   16.93
   5  -6  -2  311.83   43.14
   5  -6  -1  202.45   35.88
   5  -6   0 1623.14  107.99
   5  -6   1  897.20   77.10
  -5   6  -2  188.87   27.88
   5  -6   2  158.65   32.45
  -5   6  -3 1651.25   90.76
   5  -6   3 1617.84  104.98
  -5   6  -4  571.00   48.52
  -5   6  -5 1484.70   85.27
  -5   6  -6  284.74   33.84
  -5   6  -7  894.35   63.12
  -5   6  -8   55.11   16.70
  -5   6  -9   -0.37   10.28
  -5   6 -10  195.89   30.90
  -5   6 -11  321.58   39.07
  -5   6 -12   30.60   15.00
   5  -5  -8  355.36   49.19
   5  -5  -7 1721.31  112.44
   5  -5  -6  188.19   34.99
   5  -5  -5  148.42   31.38
   5  -5  -4  496.72   53.71
   5  -5  -3  399.43   47.50
   5  -5  -2  867.62   72.27
   5  -5  -1  123.75   27.63
   5  -5   0  176.57   34.55
   5  -5   1   65.09   21.73
   5  -5   2   31.91   19.29
  -5   5  -3   21.43   11.55
   5  -5   3    9.22   13.26
  -5   5  -4   69.28   18.00
   5  -5   4   85.96   23.96
  -5   5  -5   21.23   11.81
  -5   5  -6  348.37   37.78
  -5   5  -7  858.47   63.09
  -5   5  -8   12.93    9.82
  -5   5  -9  562.86   50.09
  -5   5 -10  156.90   27.81
  -5   5 -11 1049.68   73.46
  -5   5 -12   56.64   20.20
   5  -4  -9   26.13   21.84
   5  -4  -8   -3.60   15.13
   5  -4  -7   48.23   23.84
   5  -4  -6   29.31   15.91
   5  -4  -5  148.16   28.77
   5  -4  -4   48.51   19.29
   5  -4  -3  907.18   73.48
   5  -4  -2   32.68   16.00
   5  -4  -1  314.42   43.15
   5  -4   0  128.62   30.19
   5  -4   1  589.64   62.67
   5  -4   2 1034.90   83.24
  -5   4  -3   26.22   11.80
   5  -4   3   28.00   15.98
  -5   4  -4  527.16   46.82
   5  -4   4  508.96   55.21
  -5   4  -5  110.09   21.50
  -5   4  -6    9.75    9.38
  -5   4  -7    0.48    9.82
  -5   4  -8    7.51    9.55
  -5   4  -9  -11.44   15.49
  -5   4 -10   24.10   14.57
  -5   4 -11  893.59   68.84
  -5   4 -12   34.61   18.25
  -5   4 -13  547.84   55.82
   5  -3  -9   98.09   29.04
   5  -3  -8  562.18   61.89
   5  -3  -7   89.98   25.82
   5  -3  -6  484.17   54.35
   5  -3  -5  329.76   42.99
   5  -3  -4   61.18   18.86
   5  -3  -3  270.09   37.82
   5  -3  -2   12.43   11.36
   5  -3  -1    7.81   11.56
   5  -3   0  170.76   32.28
   5  -3   1 1670.36   73.89
   5  -3   1 1509.01  103.10
   5  -3   2   24.12   14.41
  -5   3  -3  920.50   63.46
   5  -3   3 1035.04   78.79
  -5   3  -4 1882.69  100.24
   5  -3   4 1788.74  109.57
  -5   3  -5  249.55   32.60
  -5   3  -6  589.15   51.21
  -5   3  -7   97.15   21.65
  -5   3  -8 4230.12  183.41
  -5   3  -9   12.69   12.08
  -5   3 -10  230.28   35.26
  -5   3 -11  370.39   44.60
  -5   3 -12  364.99   46.21
  -5   3 -13    0.51   13.78
   5  -2  -9  287.71   45.57
   5  -2  -8  158.31   33.37
   5  -2  -7   29.20   16.95
   5  -2  -6 2298.55  128.07
   5  -2  -5    9.58   13.90
   5  -2  -4 2035.50  114.52
   5  -2  -3  846.25   67.08
   5  -2  -2 1162.71   79.62
   5  -2  -1  231.88   19.52
   5  -2  -1  188.18   31.19
   5  -2   0  365.50   44.92
   5  -2   0  452.32   31.27
   5  -2   1 2030.53  120.59
   5  -2   1 2264.36   95.23
   5  -2   2    7.03   11.45
  -5   2  -3  191.22   26.72
   5  -2   3  149.42   29.26
  -5   2  -4   19.80   11.16
   5  -2   4   18.72   15.42
  -5   2  -5    9.47   10.56
  -5   2  -6   -0.21    8.87
  -5   2  -7  169.34   27.53
  -5   2  -8    6.04    9.94
  -5   2  -9  186.12   32.33
  -5   2 -10  925.07   73.13
  -5   2 -11   16.63   12.03
  -5   2 -12  796.23   69.52
  -5   2 -13  145.24   31.91
   5  -1 -10   19.94   24.06
   5  -1  -9  656.99   69.34
   5  -1  -8  135.04   31.69
   5  -1  -7  118.41   28.10
   5  -1  -6   80.76   23.34
   5  -1  -5   24.79   16.13
   5  -1  -4   51.92   17.98
   5  -1  -3   21.58   12.88
   5  -1  -2  395.42   43.80
   5  -1  -1  -29.55   14.25
   5  -1   0  858.39   67.54
   5  -1   1  334.51   42.91
   5  -1   2  650.28   60.39
   5  -1   3    8.35   13.05
  -5   1  -4  266.90   31.65
   5  -1   4  236.83   35.03
  -5   1  -5 1093.52   70.58
  -5   1  -6   49.43   15.95
  -5   1  -6   65.31   11.71
  -5   1  -7  244.29   32.26
  -5   1  -8  108.85   23.99
  -5   1  -9   63.49   18.90
  -5   1 -10   29.02   16.40
  -5   1 -11   -1.50   13.22
  -5   1 -12   -0.22   16.85
  -5   1 -13   75.86   21.53
   5   0 -10  870.24   84.37
   5   0  -9  634.77   68.66
   5   0  -8   -1.15   14.48
   5   0  -7  566.88   58.01
   5   0  -6   30.59   15.90
   5   0  -5  583.99   55.38
   5   0  -4   11.35   10.35
   5   0  -3 1219.54   80.61
   5   0  -2   26.51   14.19
   5   0  -1  292.52   36.53
   5   0   0   23.51   13.51
   5   0   1  228.99   33.71
   5   0   2  120.59   25.50
   5   0   3   44.55   16.49
  -5   0  -4  439.73   41.08
   5   0   4  473.08   46.92
  -5   0  -5  452.61   42.29
  -5   0  -6 2397.38  115.94
  -5   0  -6 2292.21   98.67
  -5   0  -7  422.91   41.33
  -5   0  -7  387.47   29.79
  -5   0  -8   16.81   12.68
  -5   0  -9 1004.43   70.98
  -5   0 -10 1031.17   74.12
  -5   0 -11 2606.46  135.77
  -5   0 -12  106.81   25.69
  -5   0 -13  965.22   77.04
   5   1 -10   84.30   30.72
   5   1  -9   56.00   24.01
   5   1  -8  492.54   56.05
   5   1  -7  411.23   48.52
   5   1  -6   43.17   19.38
   5   1  -5  897.52   68.97
   5   1  -4  578.64   53.24
   5   1  -3 1152.11   76.81
   5   1  -2  217.52   31.06
   5   1  -1 2820.28  134.78
   5   1   0  177.63   28.62
   5   1   1 1169.60   79.26
   5   1   2  473.31   48.23
   5   1   3  817.85   63.03
  -5  -1  -4 1164.18   70.51
   5   1   4 1095.86   73.25
  -5  -1  -5    7.72    8.45
  -5  -1  -6  315.44   34.57
  -5  -1  -7   51.07   14.89
  -5  -1  -8   21.89   13.36
  -5  -1  -9   13.01    9.53
  -5  -1 -10  192.58   30.31
  -5  -1 -11   -4.78   12.37
  -5  -1 -12  174.28   29.77
  -5  -1 -13  660.54   60.54
   5   2 -10  590.60   66.92
   5   2  -9  182.09   37.51
   5   2  -8  573.79   59.99
  -5  -2   8  608.85   50.03
   5   2  -7   21.49   11.53
   5   2  -6 1240.14   84.19
   5   2  -5   57.97   18.65
   5   2  -4   42.65   15.19
   5   2  -3   72.53   18.83
   5   2  -2   21.17   12.50
   5   2  -1   -1.04    8.82
   5   2   0  189.05   28.94
   5   2   1   81.07   20.29
   5   2   2   20.13   11.63
  -5  -2  -3 1737.30   89.14
   5   2   3 1559.25   90.42
  -5  -2  -4   25.10   11.09
  -5  -2  -5  693.32   51.77
  -5  -2  -6  124.27   21.49
  -5  -2  -7  828.86   58.20
  -5  -2  -8  711.21   54.61
  -5  -2  -9    2.47    9.41
  -5  -2 -10  531.75   48.93
  -5  -2 -11  192.76   29.59
  -5  -2 -12  142.26   26.74
  -5  -2 -13   53.16   21.78
   5   3 -10  200.81   39.69
   5   3  -9   24.63   17.99
  -5  -3   8    6.33    9.97
   5   3  -8   49.86   22.01
   5   3  -7  770.52   65.02
  -5  -3   7  809.86   58.82
   5   3  -6 1257.46   83.58
   5   3  -5  162.95   27.30
   5   3  -4  342.65   38.38
   5   3  -3  188.05   28.15
   5   3  -2 1459.95   84.28
   5   3  -1   28.48   12.75
   5   3   0 1020.01   68.48
   5   3   1  603.43   52.13
   5   3   2   25.42   11.75
  -5  -3  -3  677.11   49.58
   5   3   3  635.00   50.70
  -5  -3  -4   17.80    9.52
  -5  -3  -5  214.58   27.31
  -5  -3  -6   24.65   11.67
  -5  -3  -7 1229.16   72.60
  -5  -3  -8   -5.94   10.70
  -5  -3  -9 1047.67   68.46
  -5  -3 -10 1371.46   82.53
  -5  -3 -11  425.48   43.28
  -5  -3 -12  128.11   25.58
  -5  -3 -13  226.65   33.92
   5   4 -10   -2.53   13.00
   5   4  -9  231.61   36.87
  -5  -4   8   25.75   15.11
   5   4  -8   40.98   18.19
  -5  -4   7   59.42   17.28
   5   4  -7   19.75   12.80
  -5  -4   6  124.44   23.09
   5   4  -6   88.85   21.53
   5   4  -5   77.96   22.60
   5   4  -4 1336.39   80.36
   5   4  -3  637.74   50.94
   5   4  -2  419.74   39.57
   5   4  -1  503.76   43.64
   5   4   0 2469.33  117.91
   5   4   1  -26.44   12.34
   5   4   2 1737.61   90.05
  -5  -4  -3  558.00   43.50
   5   4   3  534.15   43.01
  -5  -4  -4 1803.42   90.18
  -5  -4  -5   63.01   15.21
  -5  -4  -6  787.39   54.15
  -5  -4  -7 1093.05   66.73
  -5  -4  -8   -4.24    9.28
  -5  -4  -9  123.42   22.14
  -5  -4 -10   91.47   19.30
  -5  -4 -11   91.13   20.63
  -5  -4 -12   15.63   12.35
  -5  -4 -13  112.23   24.91
   5   5 -10  695.49   66.36
   5   5  -9  936.58   74.94
   5   5  -8  658.01   58.80
  -5  -5   8  703.44   59.99
   5   5  -7  878.24   64.89
  -5  -5   7  718.55   60.03
  -5  -5   6  167.38   27.23
   5   5  -6  161.80   27.12
   5   5  -5 1202.85   72.27
  -5  -5   5  947.91   66.72
  -5  -5   4   17.81   11.10
   5   5  -4    8.19    8.83
   5   5  -3 1009.71   63.83
   5   5  -2  166.69   24.09
   5   5  -1  426.61   38.73
   5   5   0   74.45   17.50
   5   5   1    7.78    9.50
  -5  -5  -2   31.35   11.69
   5   5   2   21.65   10.83
  -5  -5  -3  114.46   19.27
  -5  -5  -4  257.54   28.64
  -5  -5  -5    6.90   10.28
  -5  -5  -6  323.21   32.43
  -5  -5  -7   51.84   14.78
  -5  -5  -8  945.09   60.82
  -5  -5  -9   34.80   13.38
  -5  -5 -10  466.14   43.08
  -5  -5 -11  502.01   45.14
  -5  -5 -12   15.52   10.09
  -5  -5 -13  364.84   42.16
   5   6  -9   32.48   16.26
  -5  -6   8  120.00   26.29
   5   6  -8  178.79   29.17
  -5  -6   7   28.28   13.44
   5   6  -7   66.50   17.83
  -5  -6   6    5.94   10.39
   5   6  -6   10.77   11.42
  -5  -6   5   35.30   14.70
   5   6  -5   65.08   15.87
   5   6  -4 1056.96   64.14
  -5  -6   4  960.85   67.52
   5   6  -3  792.76   51.48
  -5  -6   3  702.24   55.29
  -5  -6   2   23.94   11.89
   5   6  -2   25.22    9.11
   5   6  -1  570.56   42.14
   5   6   0   95.00   17.16
   5   6   1  369.50   31.59
  -5  -6  -2  140.08   20.32
  -5  -6  -3 2065.81   96.61
  -5  -6  -4   -4.24    8.88
  -5  -6  -5  263.30   28.40
  -5  -6  -6   32.27   11.89
  -5  -6  -7  151.35   22.47
  -5  -6  -8   23.82   10.89
  -5  -6  -9  304.31   32.52
  -5  -6 -10  288.99   32.86
  -5  -6 -11  446.90   42.22
  -5  -6 -12 1594.00   91.39
  -5  -6 -13  103.24   23.71
  -5  -7   8  359.08   45.88
  -5  -7   7  308.68   41.39
  -5  -7   6    1.27   13.44
  -5  -7   5   95.24   22.27
  -5  -7   4   45.13   16.81
  -5  -7   3   31.92   14.77
  -5  -7   2  291.93   35.62
  -5  -7   1  255.19   32.65
  -5  -7   0   58.46   16.81
  -5  -7  -1  714.39   47.35
  -5  -7  -1  645.64   54.78
  -5  -7  -2 1296.58   69.26
  -5  -7  -3 1316.65   69.86
  -5  -7  -4   35.52   10.03
  -5  -7  -5 1931.33   90.62
  -5  -7  -6   99.60   17.47
  -5  -7  -7 1671.64   82.53
  -5  -7  -8  345.34   32.97
  -5  -7  -9  915.83   57.66
  -5  -7 -10  522.55   42.99
  -5  -7 -10  548.72   53.81
  -5  -7 -11  -10.13    9.82
  -5  -7 -11  -11.56   13.56
  -5  -7 -12  126.90   23.90
  -5  -8   7 1216.37   88.61
  -5  -8   6  450.54   49.16
  -5  -8   5  439.29   47.31
  -5  -8   4  747.48   62.18
  -5  -8   3  690.45   59.03
  -5  -8   2  795.73   63.82
  -5  -8   1  -11.23   14.17
  -5  -8   0  964.47   70.71
  -5  -8  -1   34.47   16.35
  -5  -8  -1   19.75   10.01
  -5  -8  -2  233.46   24.71
  -5  -8  -2  193.37   31.73
  -5  -8  -3    9.18   13.70
  -5  -8  -3   -0.55    7.92
  -5  -8  -4  240.62   25.05
  -5  -8  -4  236.60   35.08
  -5  -8  -5   45.58   20.36
  -5  -8  -5    3.02    7.27
  -5  -8  -6  298.55   27.63
  -5  -8  -6  272.57   39.86
  -5  -8  -7   85.67   24.12
  -5  -8  -7  115.94   18.15
  -5  -8  -8  -16.52   14.10
  -5  -8  -9  370.31   46.51
  -5  -8 -10   30.06   16.80
  -5  -8 -11  481.22   52.61
  -5  -9   4   74.88   22.28
  -5  -9   3    9.76   12.29
  -5  -9   2   -8.38   11.80
  -5  -9   1  553.80   54.12
  -5  -9   0 1686.68  102.74
  -5  -9  -1  104.12   25.97
  -5  -9  -2  109.27   25.87
  -5  -9  -3    9.29   15.73
  -5  -9  -4 1161.96   85.99
  -5  -9  -5   12.40   15.24
  -5  -9  -6  476.79   54.87
  -5  -9  -7  281.82   41.93
  -5  -9  -8   39.93   19.61
  -5  -9  -9  267.54   39.87
  -5  -9 -10   89.24   24.61
  -5 -10   0   96.23   24.90
  -5 -10  -1  165.31   32.01
  -5 -10  -2  266.25   40.22
  -5 -10  -3  212.99   37.08
  -5 -10  -4  171.02   34.42
  -5 -10  -5  723.78   68.93
  -5 -10  -6 1445.51  102.69
  -5 -10  -7   66.42   23.29
  -5 -10  -8  749.94   70.47
  -5 -10  -9   10.88   17.34
  -6   9   0    0.12   17.06
   6  -9   0   51.53   23.94
  -6   9  -1  222.77   33.42
   6  -9   1  229.12   41.80
  -6   9  -2   86.40   22.09
   6  -9   2   44.80   22.91
  -6   9  -3  -24.18   15.20
  -6   9  -4   21.49   14.17
  -6   9  -5  103.65   22.19
  -6   9  -6    2.97   12.74
   6  -8  -2  159.43   38.49
   6  -8  -1  -20.19   21.04
  -6   8   0   72.48   22.42
   6  -8   0   42.02   23.10
  -6   8  -1 1078.97   76.53
   6  -8   1 1026.08   89.90
  -6   8  -2  255.49   35.55
   6  -8   2  262.29   45.77
  -6   8  -3  524.70   50.16
  -6   8  -4  -62.25   19.86
  -6   8  -5 1289.14   83.02
  -6   8  -6  -45.21   16.46
  -6   8  -7  500.47   48.22
  -6   8  -8  573.99   52.04
   6  -7  -3  173.48   38.57
   6  -7  -2  795.82   80.65
   6  -7  -1   63.89   23.88
   6  -7   0  231.62   45.48
  -6   7  -1   21.79   13.77
   6  -7   1    2.80   18.85
  -6   7  -2  244.74   34.97
   6  -7   2  266.50   46.22
  -6   7  -3  129.92   25.37
   6  -7   3   81.56   26.00
  -6   7  -4  -19.51   13.46
  -6   7  -5  132.08   26.43
  -6   7  -6   16.41   12.72
  -6   7  -7  188.94   30.55
  -6   7  -8   23.01   14.53
  -6   7  -9  348.84   41.16
   6  -6  -4   37.53   22.06
   6  -6  -3  447.66   59.92
   6  -6  -2  438.97   58.50
   6  -6  -1   15.36   19.65
   6  -6   0  204.83   42.46
   6  -6   1  241.88   45.01
  -6   6  -2  924.28   69.24
   6  -6   2 1040.33   90.67
  -6   6  -3   52.27   18.45
   6  -6   3   -5.29   19.87
  -6   6  -4  638.37   56.10
  -6   6  -5   44.41   18.22
  -6   6  -6   17.12   14.01
  -6   6  -7   15.02   14.99
  -6   6  -8  477.12   48.56
  -6   6  -9   23.56   12.05
  -6   6 -10  202.35   32.66
   6  -5  -5  265.32   45.10
   6  -5  -4   87.81   30.93
   6  -5  -3  299.98   47.19
   6  -5  -2   27.78   21.13
   6  -5  -1   68.05   25.62
   6  -5   0   33.55   20.87
   6  -5   1   -5.54   21.06
  -6   5  -2   19.33   13.31
   6  -5   2   25.37   19.53
  -6   5  -3  737.36   60.19
   6  -5   3  772.64   76.48
  -6   5  -4  305.96   37.64
   6  -5   4  325.49   51.05
  -6   5  -5   -4.91   13.35
  -6   5  -6 1342.26   86.54
  -6   5  -7  600.93   54.99
  -6   5  -8  637.55   57.09
  -6   5  -9   33.08   14.92
  -6   5 -10 1271.74   86.13
   6  -4  -6  990.28   89.08
   6  -4  -5   25.49   21.72
   6  -4  -4 1005.83   86.69
   6  -4  -3   30.92   20.70
   6  -4  -2  878.62   80.77
   6  -4  -1  674.11   72.12
   6  -4   0  358.85   53.77
   6  -4   1 1145.06   96.48
   6  -4   2  164.98   36.02
  -6   4  -3  328.48   39.23
   6  -4   3  361.80   51.65
  -6   4  -4   13.48   11.55
   6  -4   4    0.61   17.17
  -6   4  -5  326.63   39.53
  -6   4  -6   -3.79   10.39
  -6   4  -7    6.39   10.34
  -6   4  -8   26.02   16.51
  -6   4  -9   42.72   17.02
  -6   4 -10  255.61   36.88
  -6   4 -11  122.35   28.15
   6  -3  -6   35.42   22.15
   6  -3  -5   97.62   28.07
   6  -3  -4   -0.77   14.92
   6  -3  -3  111.27   30.39
   6  -3  -2   13.38   14.99
   6  -3  -1   11.30   15.99
   6  -3   0  813.19   77.91
   6  -3   1  366.81   52.72
   6  -3   2   23.72   18.39
  -6   3  -3  134.65   24.70
   6  -3   3  191.65   37.24
  -6   3  -4  334.85   38.38
   6  -3   4  338.09   48.19
  -6   3  -5 1412.74   87.77
  -6   3  -6   73.19   20.22
  -6   3  -7  590.79   55.20
  -6   3  -8   45.58   18.01
  -6   3  -9   50.31   17.95
  -6   3 -10  -38.18   18.20
  -6   3 -11  267.49   39.69
   6  -2  -7  546.95   64.80
   6  -2  -6  222.34   40.25
   6  -2  -5  777.90   74.89
   6  -2  -4   17.15   17.08
   6  -2  -3   71.95   23.72
   6  -2  -2  887.67   76.96
   6  -2  -1   17.55   17.93
   6  -2   0   61.83   23.49
   6  -2   1    1.06   15.42
   6  -2   2   37.39   19.36
  -6   2  -3  109.18   22.11
   6  -2   3   83.61   24.83
  -6   2  -4  296.61   35.81
   6  -2   4  261.24   41.31
  -6   2  -5  177.01   28.51
  -6   2  -6  255.76   34.20
  -6   2  -7  959.20   70.42
  -6   2  -8  355.02   42.15
  -6   2  -9  576.22   55.54
  -6   2 -10  147.31   28.94
  -6   2 -11 1914.13  115.56
   6  -1  -7  -13.35   19.20
   6  -1  -6  184.27   37.89
   6  -1  -5   20.19   18.38
   6  -1  -4   27.04   17.65
   6  -1  -3 1069.15   83.98
   6  -1  -2   13.36   15.79
   6  -1  -1 1097.66   86.10
   6  -1   0   -9.42   17.39
   6  -1   1 1408.04  102.39
   6  -1   2  785.58   73.04
  -6   1  -3  275.25   33.89
   6  -1   3  276.49   42.18
  -6   1  -4  777.62   59.42
   6  -1   4  749.49   67.89
  -6   1  -5  195.49   29.57
  -6   1  -6  891.34   65.46
  -6   1  -7   77.37   19.60
  -6   1  -8  136.78   24.96
  -6   1  -9   96.97   21.81
  -6   1 -10    7.56   13.90
  -6   1 -11   95.43   24.24
   6   0  -7  130.82   33.44
   6   0  -6 1383.72  101.84
   6   0  -5  157.64   33.44
   6   0  -4  151.69   33.39
   6   0  -3   -4.60   13.69
   6   0  -2   45.57   18.83
   6   0  -1  188.29   34.49
   6   0   0   50.15   20.09
   6   0   1   15.63   17.30
   6   0   2    2.73   15.31
  -6   0  -3  923.23   65.66
   6   0   3 1036.91   79.79
  -6   0  -4  423.38   42.47
   6   0   4  446.55   50.85
  -6   0  -5   40.73   14.14
  -6   0  -6   75.32   18.17
  -6   0  -7  628.82   53.87
  -6   0  -8 1359.87   85.52
  -6   0  -9    0.12   13.51
  -6   0 -10  553.78   52.83
  -6   0 -11   15.66   15.16
  -6   0 -12   68.88   22.67
   6   1  -7  307.69   47.36
   6   1  -6  188.57   35.03
   6   1  -5   84.78   27.39
   6   1  -4 1557.97  103.75
   6   1  -3   11.76   15.46
   6   1  -2  374.13   46.35
   6   1  -1  176.51   33.56
   6   1   0 1116.41   84.95
   6   1   1  345.62   46.42
   6   1   2  219.24   36.51
  -6  -1  -3  575.51   49.54
   6   1   3  613.21   59.28
  -6  -1  -4  207.51   28.65
   6   1   4  119.89   26.78
  -6  -1  -5   32.05   14.76
  -6  -1  -6   26.04   14.98
  -6  -1  -7    6.73    9.31
  -6  -1  -8   -2.79   10.85
  -6  -1  -9  965.29   69.67
  -6  -1 -10  132.31   26.29
  -6  -1 -11   22.69   15.73
  -6  -1 -12  727.65   62.93
   6   2  -8  188.00   39.21
   6   2  -7  106.73   28.39
   6   2  -6   22.26   17.17
   6   2  -5    5.01   17.01
   6   2  -4   14.81   16.04
   6   2  -3  125.91   27.74
   6   2  -2   81.91   21.44
   6   2  -1  211.21   34.51
   6   2   0  785.08   68.66
   6   2   1   14.79   15.86
   6   2   2 1417.39   94.53
  -6  -2  -3   26.60   13.16
   6   2   3   19.91   12.42
  -6  -2  -4 1783.35   97.66
  -6  -2  -5  348.83   38.45
  -6  -2  -6  393.48   40.65
  -6  -2  -7 1040.27   70.02
  -6  -2  -8  366.34   39.87
  -6  -2  -9  561.65   50.95
  -6  -2 -10  171.88   28.90
  -6  -2 -11  425.28   45.99
  -6  -2 -12   -5.87   10.74
   6   3  -8  466.69   56.07
   6   3  -7  878.02   77.35
  -6  -3   7  866.01   64.99
   6   3  -6  229.82   39.45
   6   3  -5  551.46   56.06
   6   3  -4   65.82   19.31
   6   3  -3 2308.73  125.36
   6   3  -2   85.11   20.99
   6   3  -1  112.71   26.80
   6   3   0    2.49   13.84
   6   3   1  312.49   41.81
   6   3   2  273.03   37.27
  -6  -3  -3   55.02   15.62
   6   3   3   40.84   16.90
  -6  -3  -4    1.30   10.33
  -6  -3  -5   21.77   12.48
  -6  -3  -6  681.32   53.78
  -6  -3  -7  360.22   38.14
  -6  -3  -8  158.95   26.97
  -6  -3  -9   23.29   12.29
  -6  -3 -10  432.35   43.84
  -6  -3 -11 1661.69   97.31
  -6  -3 -12   41.90   16.59
   6   4  -8   78.20   24.29
   6   4  -7  370.98   46.51
  -6  -4   7  380.59   43.90
  -6  -4   6   40.41   17.13
   6   4  -6   41.35   18.73
   6   4  -5   22.60   15.19
   6   4  -4   42.14   19.24
   6   4  -3  618.00   55.87
   6   4  -2  124.87   25.17
   6   4  -1  660.65   58.46
   6   4   0  536.51   51.51
   6   4   1 1326.20   84.25
   6   4   2   32.12   12.73
  -6  -4  -3  334.60   36.56
   6   4   3  380.57   39.51
  -6  -4  -4  925.85   63.05
  -6  -4  -5   57.09   16.98
  -6  -4  -6   51.95   16.05
  -6  -4  -7   76.86   18.81
  -6  -4  -8  318.77   35.54
  -6  -4  -9   65.70   18.74
  -6  -4 -10  405.97   42.61
  -6  -4 -11  111.51   23.75
  -6  -4 -12  253.29   35.32
  -6  -5   7   -5.19   11.12
   6   5  -7  -11.79   14.27
   6   5  -6  755.10   63.28
  -6  -5   6  789.81   63.72
  -6  -5   5   71.79   19.55
   6   5  -5   51.30   19.28
  -6  -5   4  159.15   25.91
   6   5  -4  155.48   27.09
   6   5  -3   -2.71   10.26
   6   5  -2   38.71   15.42
   6   5  -1   -2.83    9.32
   6   5   0  316.88   36.63
   6   5   1   43.88   13.99
  -6  -5  -2  173.17   25.57
   6   5   2  172.40   25.22
  -6  -5  -3  456.63   41.77
  -6  -5  -4   11.79   10.99
  -6  -5  -5 1328.98   77.14
  -6  -5  -6   11.18    9.59
  -6  -5  -7 1442.99   82.15
  -6  -5  -8  232.03   30.31
  -6  -5  -9  579.29   48.83
  -6  -5 -10  499.99   46.73
  -6  -5 -11  273.82   34.89
  -6  -6   6  648.09   59.69
  -6  -6   5  666.97   59.09
  -6  -6   4  218.46   31.43
  -6  -6   3  159.13   26.71
   6   6  -3  160.34   25.58
  -6  -6   2  691.35   57.39
   6   6  -2  762.06   55.32
   6   6  -1  226.60   29.48
   6   6   0 1374.47   76.56
   6   6   1  129.11   20.67
  -6  -6  -2  117.49   20.91
  -6  -6  -3   88.80   18.45
  -6  -6  -4  282.61   31.44
  -6  -6  -5  101.01   20.12
  -6  -6  -6   26.83   12.90
  -6  -6  -7    3.38    9.19
  -6  -6  -8   60.84   15.73
  -6  -6  -9  731.20   55.53
  -6  -6 -10  196.83   28.47
  -6  -6 -11   81.71   21.56
  -6  -7   4  128.47   26.05
  -6  -7   3   43.36   17.60
  -6  -7   2  306.99   37.84
  -6  -7   1  472.87   47.95
  -6  -7   0  286.02   37.71
  -6  -7  -1    5.88   11.68
  -6  -7  -2 1071.44   65.59
  -6  -7  -3    8.13    8.90
  -6  -7  -4  650.33   48.88
  -6  -7  -5  235.47   28.36
  -6  -7  -6 1537.53   83.12
  -6  -7  -7  102.43   19.84
  -6  -7  -8   38.41   13.88
  -6  -7  -9  453.61   42.24
  -6  -7 -10  181.83   26.62
  -6  -8   0   -2.55   10.14
  -6  -8  -1   81.93   22.46
  -6  -8  -2   33.29   18.24
  -6  -8  -3  205.43   35.95
  -6  -8  -4   -8.11   13.61
  -6  -8  -5  208.79   38.04
  -6  -8  -6  292.71   44.46
  -6  -8  -7  -13.04   15.02
  -6  -8  -8  569.33   63.90
  -7   6  -1  703.60   63.62
  -7   6  -2  -20.68   20.50
  -7   6  -3  179.50   31.70
  -7   6  -4   58.01   20.75
  -7   6  -5  652.12   60.99
   7  -5   1   93.45   34.86
  -7   5  -2   -1.48   14.51
   7  -5   2    0.11   20.52
  -7   5  -3  507.40   53.35
   7  -5   3  454.08   66.64
  -7   5  -4   95.87   24.44
  -7   5  -5  330.10   42.41
  -7   5  -6    3.86   13.42
   7  -4  -1   22.98   22.88
   7  -4   0  723.23   81.31
   7  -4   1  125.71   37.46
  -7   4  -2   22.97   15.06
   7  -4   2   76.43   29.21
  -7   4  -3  258.71   37.56
   7  -4   3  178.34   41.25
  -7   4  -4    5.21   12.17
   7  -4   4   15.19   20.05
  -7   4  -5   10.47   11.24
  -7   4  -6   37.77   17.18
  -7   4  -7   12.17   12.45
   7  -3  -2   -1.20   20.42
   7  -3  -1  115.35   35.89
   7  -3   0  -51.46   28.06
   7  -3   1  600.27   72.60
  -7   3  -2  464.68   48.04
   7  -3   2  386.58   58.35
  -7   3  -3  378.70   42.89
   7  -3   3  315.90   51.47
  -7   3  -4  999.67   73.31
   7  -3   4  920.65   87.81
  -7   3  -5   36.76   16.56
  -7   3  -6  105.34   24.97
  -7   3  -7   44.34   18.48
   7  -2  -3  178.04   39.41
   7  -2  -2  127.42   36.79
   7  -2  -1   41.81   24.70
   7  -2   0  302.86   53.66
   7  -2   1   18.53   20.95
   7  -2   2   -3.68   21.59
  -7   2  -3   32.97   15.27
   7  -2   3   58.22   26.34
  -7   2  -4  206.06   32.95
   7  -2   4  258.65   45.45
  -7   2  -5   34.93   14.86
  -7   2  -6  192.31   31.64
  -7   2  -7   57.73   19.75
  -7   2  -8 1028.57   76.39
   7  -1  -3   96.61   33.23
   7  -1  -2 1264.74  104.68
   7  -1  -1  104.83   32.81
   7  -1   0  113.30   32.38
   7  -1   1 1294.44  106.51
   7  -1   2  496.07   62.75
  -7   1  -3  351.11   40.46
   7  -1   3  393.90   53.96
  -7   1  -4   24.63   13.78
   7  -1   4  -37.04   22.41
  -7   1  -5  522.83   50.08
  -7   1  -6   53.35   19.05
  -7   1  -7    5.79   12.47
  -7   1  -8   87.70   21.70
   7   0  -4  166.55   39.30
   7   0  -3  123.80   35.54
   7   0  -2  104.59   31.24
   7   0  -1  146.08   36.58
   7   0   0  547.08   66.03
   7   0   1   24.26   21.53
   7   0   2  105.96   31.31
  -7   0  -3   73.72   20.08
   7   0   3   56.03   24.08
  -7   0  -4  513.04   50.07
   7   0   4  573.15   63.39
  -7   0  -5  452.15   46.68
  -7   0  -6  597.34   54.06
  -7   0  -7  736.79   61.23
  -7   0  -8   82.25   22.17
   7   1  -4  120.31   32.81
   7   1  -3 1168.81   96.18
   7   1  -2   47.46   24.00
   7   1  -1  166.44   36.83
   7   1   0  162.08   37.40
   7   1   1  203.03   40.97
   7   1   2  -20.07   20.79
  -7  -1  -3  165.10   28.03
   7   1   3  160.43   34.81
  -7  -1  -4   21.26   13.85
  -7  -1  -5   21.39   14.90
  -7  -1  -6  460.04   47.17
  -7  -1  -7   59.70   19.51
  -7  -1  -8   13.49   12.34
  -7  -1  -9  472.90   49.17
   7   2  -4  171.69   36.72
   7   2  -3   91.77   26.69
   7   2  -2   79.44   26.35
   7   2  -1 1165.03   94.46
   7   2   0    2.70   16.69
   7   2   1  804.98   75.62
   7   2   2  589.62   62.60
  -7  -2  -3  763.27   61.77
   7   2   3  757.94   69.69
  -7  -2  -4  569.08   52.79
  -7  -2  -5   98.55   22.83
  -7  -2  -6 1107.32   76.54
  -7  -2  -7  332.26   39.17
  -7  -2  -8  257.02   35.22
  -7  -2  -9  141.69   26.92
   7   3  -5   77.20   27.74
   7   3  -4  246.01   41.31
   7   3  -3   33.09   21.92
   7   3  -2  224.92   39.88
   7   3  -1  107.95   27.94
   7   3   0   11.39   15.49
   7   3   1  148.26   31.18
  -7  -3  -2    8.15   11.53
   7   3   2  -12.47   17.40
  -7  -3  -3  428.02   45.36
   7   3   3  344.87   44.86
  -7  -3  -4    0.06   10.45
  -7  -3  -5  119.60   22.97
  -7  -3  -6   25.42   13.46
  -7  -3  -7  666.65   56.22
  -7  -3  -8  248.68   34.39
  -7  -3  -9  130.77   26.17
   7   4  -5  261.67   42.57
   7   4  -4  244.80   40.87
   7   4  -3   30.02   18.39
   7   4  -2  317.74   44.56
   7   4  -1   79.61   25.19
   7   4   0  937.57   75.73
   7   4   1   21.21   12.65
  -7  -4  -2  240.86   33.39
   7   4   2  189.86   31.22
  -7  -4  -3   43.00   17.29
  -7  -4  -4   67.53   17.44
  -7  -4  -5  171.35   27.59
  -7  -4  -6  273.19   35.04
  -7  -4  -7   12.26   11.48
  -7  -4  -8   -7.72   12.90
   7   5  -2   51.29   18.85
   7   5  -1    7.45   12.24
   7   5   0  396.06   44.72
   7   5   1    2.08    9.66
  -7  -5  -2  317.38   37.68
   7   5   2  254.12   33.66
  -7  -5  -3    6.57   11.76
  -7  -5  -4 1914.95  102.80
  -7  -5  -5   87.92   20.54
  -7  -5  -6  514.72   47.26
  -7  -5  -7  683.39   55.70
  -7  -5  -8  484.02   45.99
  -7  -6  -1  199.86   29.13
  -7  -6  -2  311.97   36.00
  -7  -6  -3    2.04   10.38
  -7  -6  -4   47.58   16.13
  -7  -6  -5   59.04   17.58
  -7  -6  -6  133.25   25.78
  -7  -6  -7  119.91   23.39
  -7  -6  -8  119.77   23.48
  -7  -7  -1  300.73   35.18
  -7  -7  -2   25.55   11.74
  -7  -7  -3 1243.87   75.74
  -7  -7  -4  -30.71   14.23
   8   2   3  371.88   53.54
   8   3   2  245.86   39.57
   0   0   0    0.00    0.00
;
_shelx_hkl_checksum              40807
_olex2_submission_special_instructions 'No special instructions were received'
_oxdiff_exptl_absorpt_empirical_details
;
Empirical correction (ABSPACK) includes:
- Absorption correction using spherical harmonics
- Frame scaling
;
_oxdiff_exptl_absorpt_empirical_full_max 1.721
_oxdiff_exptl_absorpt_empirical_full_min 0.552
loop_
_space_group_symop_operation_xyz
'x, y, z'
'-x, -y, -z'
loop_
_atom_site_label
_atom_site_type_symbol
_atom_site_fract_x
_atom_site_fract_y
_atom_site_fract_z
_atom_site_U_iso_or_equiv
_atom_site_adp_type
_atom_site_occupancy
_atom_site_site_symmetry_order
_atom_site_calc_flag
_atom_site_refinement_flags_posn
_atom_site_refinement_flags_adp
_atom_site_refinement_flags_occupancy
_atom_site_disorder_assembly
_atom_site_disorder_group
U1 U 1.26116(7) 0.91669(3) 0.25240(3) 0.00494(10) Uani 1 1 d . . . . .
Pb1 Pb 0.17137(7) 0.31184(3) 0.19415(3) 0.00759(10) Uani 1 1 d . . . . .
Se1 Se 1.28719(18) 0.88961(8) -0.04605(7) 0.00548(19) Uani 1 1 d . . . . .
Se2 Se 1.22598(19) 1.16992(8) 0.48712(8) 0.0090(2) Uani 1 1 d . . . . .
Se3 Se 0.90584(18) 0.62582(8) 0.22053(8) 0.0069(2) Uani 1 1 d . . . . .
Cu1 Cu 1.000000 0.500000 0.500000 0.0058(3) Uani 1 2 d S . P . .
Cu2 Cu 0.7077(2) 0.44300(10) 0.04632(9) 0.0060(2) Uani 1 1 d . . . . .
Cu3 Cu 0.5636(2) 0.42454(10) 0.38421(9) 0.0072(2) Uani 1 1 d . . . . .
O1 O 1.5231(13) 0.8658(6) 0.3053(6) 0.0119(15) Uani 1 1 d . . . . .
O2 O 1.0009(13) 0.9672(6) 0.1953(6) 0.0106(14) Uani 1 1 d . . . . .
O3 O 1.4462(13) 0.8652(6) 0.0624(5) 0.0077(8) Uani 1 1 d . . . . .
O4 O 1.1587(12) 0.7390(6) -0.0574(5) 0.0076(10) Uani 1 1 d . . . . .
O5 O 1.5158(12) 0.8867(5) -0.1624(5) 0.0076(10) Uani 1 1 d . . . . .
O6 O 1.1522(15) 1.1008(6) 0.3689(5) 0.0154(17) Uani 1 1 d . . . . .
O7 O 1.2388(14) 1.3328(6) 0.4415(6) 0.0135(11) Uani 1 1 d . . . . .
O8 O 0.9561(14) 1.1710(6) 0.5759(6) 0.0135(11) Uani 1 1 d . . . . .
O9 O 1.1820(13) 0.6900(6) 0.2207(5) 0.0077(8) Uani 1 1 d . . . . .
O10 O 0.8867(13) 0.5146(6) 0.3319(5) 0.0077(8) Uani 1 1 d . . . . .
O11 O 0.9817(12) 0.5133(5) 0.1133(5) 0.0055(13) Uani 1 1 d . . . . .
O12 O 0.6932(13) 0.4081(5) 0.5247(5) 0.0079(8) Uani 1 1 d D . . . .
H12 H 0.71(2) 0.317(3) 0.543(8) 0.012 Uiso 1 1 d D U . . .
O13 O 0.4716(13) 0.4584(5) 0.2361(5) 0.0079(8) Uani 1 1 d D . . . .
H13 H 0.367(15) 0.530(6) 0.262(4) 0.012 Uiso 1 1 d D U . . .
O14 O 0.4047(13) 0.3831(5) 0.0063(5) 0.0079(8) Uani 1 1 d D . . . .
H14 H 0.44(2) 0.296(4) -0.022(8) 0.012 Uiso 1 1 d D U . . .
O15 O 0.6990(15) 0.2031(7) 0.3407(6) 0.0222(18) Uani 1 1 d . . . . .
H15A H 0.687790 0.182734 0.269908 0.033 Uiso 1 1 d DR U . . .
H15B H 0.856095 0.195171 0.340514 0.033 Uiso 1 1 d R U . . .
loop_
_atom_site_aniso_label
_atom_site_aniso_U_11
_atom_site_aniso_U_22
_atom_site_aniso_U_33
_atom_site_aniso_U_23
_atom_site_aniso_U_13
_atom_site_aniso_U_12
U1 0.0080(2) 0.00513(16) 0.00155(17) -0.00030(11) -0.00051(14) -0.00350(12)
Pb1 0.0088(2) 0.00798(17) 0.00595(19) 0.00057(12) -0.00129(15) -0.00331(13)
Se1 0.0083(5) 0.0057(4) 0.0024(4) -0.0003(3) -0.0009(4) -0.0030(3)
Se2 0.0134(6) 0.0095(4) 0.0039(5) -0.0002(3) -0.0011(4) -0.0039(4)
Se3 0.0089(5) 0.0057(4) 0.0057(5) -0.0023(3) 0.0001(4) -0.0032(3)
Cu1 0.0076(9) 0.0071(7) 0.0026(8) -0.0014(5) -0.0002(7) -0.0036(6)
Cu2 0.0075(6) 0.0054(5) 0.0055(6) 0.0002(4) -0.0023(5) -0.0023(4)
Cu3 0.0085(6) 0.0108(5) 0.0023(5) -0.0009(4) -0.0006(5) -0.0058(4)
O1 0.006(4) 0.020(3) 0.010(4) 0.005(3) -0.002(3) -0.005(3)
O2 0.004(4) 0.012(3) 0.016(4) 0.000(3) 0.000(3) 0.002(3)
O3 0.010(2) 0.0100(17) 0.0026(18) 0.0016(13) -0.0014(16) -0.0077(15)
O4 0.008(3) 0.009(2) 0.007(2) -0.0026(16) -0.002(2) -0.0043(18)
O5 0.008(3) 0.009(2) 0.007(2) -0.0026(16) -0.002(2) -0.0043(18)
O6 0.029(5) 0.013(3) 0.003(3) -0.001(2) -0.001(3) -0.011(3)
O7 0.018(3) 0.010(2) 0.010(3) 0.0009(17) 0.006(2) -0.005(2)
O8 0.018(3) 0.010(2) 0.010(3) 0.0009(17) 0.006(2) -0.005(2)
O9 0.010(2) 0.0100(17) 0.0026(18) 0.0016(13) -0.0014(16) -0.0077(15)
O10 0.010(2) 0.0100(17) 0.0026(18) 0.0016(13) -0.0014(16) -0.0077(15)
O11 0.006(4) 0.009(3) 0.002(3) -0.002(2) 0.000(3) -0.002(2)
O12 0.014(2) 0.0059(17) 0.0042(19) -0.0010(13) -0.0029(17) -0.0030(15)
O13 0.014(2) 0.0059(17) 0.0042(19) -0.0010(13) -0.0029(17) -0.0030(15)
O14 0.014(2) 0.0059(17) 0.0042(19) -0.0010(13) -0.0029(17) -0.0030(15)
O15 0.020(5) 0.028(4) 0.020(4) -0.015(3) -0.003(4) 0.000(3)
loop_
_atom_type_symbol
_atom_type_description
_atom_type_scat_dispersion_real
_atom_type_scat_dispersion_imag
_atom_type_scat_source
Cu Cu 0.3201 1.2651 'International Tables Vol C Tables 4.2.6.8 and 6.1.1.4'
H H 0.0000 0.0000 'International Tables Vol C Tables 4.2.6.8 and 6.1.1.4'
O O 0.0106 0.0060 'International Tables Vol C Tables 4.2.6.8 and 6.1.1.4'
Pb Pb -3.3944 10.1111 'International Tables Vol C Tables 4.2.6.8 and 6.1.1.4'
Se Se -0.0929 2.2259 'International Tables Vol C Tables 4.2.6.8 and 6.1.1.4'
U U -9.6767 9.6646 'International Tables Vol C Tables 4.2.6.8 and 6.1.1.4'
loop_
_exptl_crystal_face_index_h
_exptl_crystal_face_index_k
_exptl_crystal_face_index_l
_exptl_crystal_face_perp_dist
3 -13 5 0.0399
3 2 -14 0.0592
-2 13 -7 0.0239
-4 3 13 0.0446
7 -2 9 0.0377
-2 -13 -4 0.0406
-7 -3 -9 0.0219
0 14 1 0.0073
loop_
_geom_angle_atom_site_label_1
_geom_angle_atom_site_label_2
_geom_angle_atom_site_label_3
_geom_angle
_geom_angle_site_symmetry_1
_geom_angle_site_symmetry_3
O1 U1 O2 178.5(3) . .
O1 U1 O3 91.6(3) . .
O1 U1 O5 89.1(3) . 2_875
O1 U1 O6 98.7(3) . .
O1 U1 O8 85.6(3) . 2_776
O1 U1 O9 89.1(3) . .
O2 U1 O3 86.9(3) . .
O2 U1 O5 90.4(2) . 2_875
O2 U1 O6 82.4(3) . .
O2 U1 O8 95.6(3) . 2_776
O2 U1 O9 90.5(3) . .
O3 U1 O5 70.8(2) . 2_875
O6 U1 O3 140.8(2) . .
O6 U1 O5 71.6(2) . 2_875
O6 U1 O9 145.8(2) . .
O8 U1 O3 144.7(2) 2_776 .
O8 U1 O5 144.0(2) 2_776 2_875
O8 U1 O6 74.1(2) 2_776 .
O8 U1 O9 73.4(2) 2_776 .
O9 U1 O3 71.4(2) . .
O9 U1 O5 142.2(2) . 2_875
O5 Pb1 O4 105.41(18) 2_765 2_665
O11 Pb1 O4 63.61(18) 1_455 2_665
O11 Pb1 O5 148.7(2) 1_455 2_765
O13 Pb1 O4 146.92(19) . 2_665
O13 Pb1 O5 91.3(2) . 2_765
O13 Pb1 O11 87.2(2) . 1_455
O13 Pb1 O14 75.1(2) . .
O14 Pb1 O4 79.6(2) . 2_665
O14 Pb1 O5 80.9(2) . 2_765
O14 Pb1 O11 68.4(2) . 1_455
O4 Se1 O3 103.9(3) . .
O4 Se1 O5 100.0(3) . .
O5 Se1 O3 101.1(3) . .
O7 Se2 O6 98.2(3) . .
O8 Se2 O6 101.7(4) . .
O8 Se2 O7 99.6(3) . .
O9 Se3 O10 100.0(3) . .
O9 Se3 O11 99.0(3) . .
O10 Se3 O11 97.3(3) . .
O7 Cu1 O7 180.0 2_776 1_545
O7 Cu1 O10 90.2(2) 1_545 .
O7 Cu1 O10 89.8(2) 1_545 2_766
O7 Cu1 O10 89.8(2) 2_776 .
O7 Cu1 O10 90.2(2) 2_776 2_766
O10 Cu1 O10 180.00(9) . 2_766
O12 Cu1 O7 80.8(3) 2_766 1_545
O12 Cu1 O7 80.8(3) . 2_776
O12 Cu1 O7 99.2(3) . 1_545
O12 Cu1 O7 99.2(3) 2_766 2_776
O12 Cu1 O10 103.6(2) 2_766 .
O12 Cu1 O10 76.4(2) . .
O12 Cu1 O10 76.4(2) 2_766 2_766
O12 Cu1 O10 103.6(2) . 2_766
O12 Cu1 O12 180.0 2_766 .
O4 Cu2 Cu2 134.34(19) 2_765 2_665
O4 Cu2 O11 88.6(2) 2_765 2_765
O4 Cu2 O11 88.9(2) 2_765 .
O4 Cu2 O13 99.4(2) 2_765 .
O11 Cu2 Cu2 136.68(17) . 2_665
O11 Cu2 Cu2 98.67(16) 2_765 2_665
O11 Cu2 O11 75.7(3) . 2_765
O11 Cu2 O13 159.6(2) 2_765 .
O11 Cu2 O13 85.7(2) . .
O13 Cu2 Cu2 89.08(17) . 2_665
O14 Cu2 Cu2 40.54(19) 2_665 2_665
O14 Cu2 Cu2 41.19(17) . 2_665
O14 Cu2 O4 94.8(3) . 2_765
O14 Cu2 O4 165.6(3) 2_665 2_765
O14 Cu2 O11 169.9(3) . .
O14 Cu2 O11 113.8(2) . 2_765
O14 Cu2 O11 97.0(2) 2_665 .
O14 Cu2 O11 80.1(2) 2_665 2_765
O14 Cu2 O13 84.4(2) . .
O14 Cu2 O13 94.2(2) 2_665 .
O14 Cu2 O14 81.7(3) . 2_665
O7 Cu3 O12 74.4(2) 1_445 2_666
O7 Cu3 O15 83.5(3) 1_445 .
O10 Cu3 O7 178.4(3) . 1_445
O10 Cu3 O12 105.3(2) . 2_666
O10 Cu3 O15 96.5(3) . .
O12 Cu3 O7 97.7(3) . 1_445
O12 Cu3 O10 80.8(3) . .
O12 Cu3 O12 86.5(3) . 2_666
O12 Cu3 O13 171.9(3) . .
O12 Cu3 O15 156.5(3) 2_666 .
O12 Cu3 O15 88.6(3) . .
O13 Cu3 O7 90.2(3) . 1_445
O13 Cu3 O10 91.3(3) . .
O13 Cu3 O12 94.0(2) . 2_666
O13 Cu3 O15 94.0(3) . .
Se1 O3 U1 119.6(4) . .
Se1 O4 Pb1 125.0(3) . 2_665
Se1 O4 Cu2 130.0(4) . 2_765
Cu2 O4 Pb1 99.1(2) 2_765 2_665
U1 O5 Pb1 105.2(2) 2_875 2_765
Se1 O5 U1 125.2(3) . 2_875
Se1 O5 Pb1 121.6(3) . 2_765
Se2 O6 U1 139.1(4) . .
Se2 O7 Cu1 129.8(4) . 1_565
Se2 O7 Cu3 120.9(4) . 1_665
Cu3 O7 Cu1 102.8(2) 1_665 1_565
Se2 O8 U1 144.3(4) . 2_776
Se3 O9 U1 124.9(3) . .
Se3 O10 Cu1 138.3(3) . .
Se3 O10 Cu3 116.8(4) . .
Cu3 O10 Cu1 95.2(2) . .
Se3 O11 Pb1 107.9(3) . 1_655
Se3 O11 Cu2 116.1(4) . .
Se3 O11 Cu2 122.1(3) . 2_765
Cu2 O11 Pb1 105.9(2) . 1_655
Cu2 O11 Pb1 98.1(2) 2_765 1_655
Cu2 O11 Cu2 104.3(3) . 2_765
Cu1 O12 Cu3 100.5(2) . 2_666
Cu1 O12 Cu3 107.5(3) . .
Cu1 O12 H12 113(7) . .
Cu3 O12 Cu3 93.5(3) . 2_666
Cu3 O12 H12 108(6) . .
Cu3 O12 H12 131(7) 2_666 .
Pb1 O13 Cu2 92.3(2) . .
Pb1 O13 H13 97(6) . .
Cu2 O13 H13 125(3) . .
Cu3 O13 Pb1 114.3(3) . .
Cu3 O13 Cu2 130.3(4) . .
Cu3 O13 H13 94(3) . .
Pb1 O14 H14 96(6) . .
Cu2 O14 Pb1 101.8(2) . .
Cu2 O14 Pb1 112.1(3) 2_665 .
Cu2 O14 Cu2 98.3(3) . 2_665
Cu2 O14 H14 138(6) 2_665 .
Cu2 O14 H14 106(7) . .
Cu3 O15 H15A 111.7 . .
Cu3 O15 H15B 111.0 . .
H15A O15 H15B 102.6 . .
loop_
_geom_bond_atom_site_label_1
_geom_bond_atom_site_label_2
_geom_bond_distance
_geom_bond_site_symmetry_2
U1 O1 1.777(7) .
U1 O2 1.792(7) .
U1 O3 2.393(6) .
U1 O5 2.465(6) 2_875
U1 O6 2.355(6) .
U1 O8 2.349(7) 2_776
U1 O9 2.374(6) .
Pb1 O4 2.748(6) 2_665
Pb1 O5 2.642(6) 2_765
Pb1 O6 2.932(6) 1_445
Pb1 O7 3.068(7) 1_445
Pb1 O10 2.934(6) 1_455
Pb1 O11 2.536(6) 1_455
Pb1 O13 2.376(6) .
Pb1 O14 2.484(6) .
Pb1 O15 3.099(8) 1_455
Se1 O3 1.719(6) .
Se1 O4 1.699(6) .
Se1 O5 1.719(7) .
Se2 O6 1.710(6) .
Se2 O7 1.710(6) .
Se2 O8 1.691(7) .
Se3 O9 1.687(7) .
Se3 O10 1.708(6) .
Se3 O11 1.725(6) .
Cu1 O7 2.193(7) 1_545
Cu1 O7 2.193(7) 2_776
Cu1 O10 2.222(6) 2_766
Cu1 O10 2.222(6) .
Cu1 O12 1.935(7) 2_766
Cu1 O12 1.935(7) .
Cu2 Cu2 2.978(2) 2_665
Cu2 O4 1.984(6) 2_765
Cu2 O11 2.380(6) 2_765
Cu2 O11 2.003(6) .
Cu2 O13 2.426(7) .
Cu2 O14 1.982(6) 2_665
Cu2 O14 1.956(7) .
Cu3 O7 2.049(7) 1_445
Cu3 O10 2.025(7) .
Cu3 O12 2.366(6) 2_666
Cu3 O12 1.956(6) .
Cu3 O13 1.958(6) .
Cu3 O15 2.386(7) .
O12 H12 0.94(2) .
O13 H13 0.95(2) .
O14 H14 0.95(2) .
O15 H15A 0.8913 .
O15 H15B 0.8876 .
loop_
_geom_hbond_atom_site_label_D
_geom_hbond_atom_site_label_H
_geom_hbond_atom_site_label_A
_geom_hbond_distance_DH
_geom_hbond_distance_HA
_geom_hbond_distance_DA
_geom_hbond_angle_DHA
_geom_hbond_site_symmetry_A
_geom_hbond_publ_flag
O12 H12 O8 0.94(2) 2.11(7) 2.908(9) 142(9) 1_545 yes
O13 H13 O9 0.95(2) 2.011(19) 2.855(9) 147(4) 1_455 yes
O14 H14 O3 0.95(2) 1.79(3) 2.725(8) 167(10) 2_765 yes
O15 H15A O5 0.89 2.01 2.808(10) 148.1 2_765 yes
O15 H15B O6 0.89 1.99 2.820(12) 154.7 1_545 yes
loop_
_geom_torsion_atom_site_label_1
_geom_torsion_atom_site_label_2
_geom_torsion_atom_site_label_3
_geom_torsion_atom_site_label_4
_geom_torsion
_geom_torsion_site_symmetry_1
_geom_torsion_site_symmetry_2
_geom_torsion_site_symmetry_3
_geom_torsion_site_symmetry_4
O3 Se1 O4 Pb1 173.0(4) . . . 2_665
O3 Se1 O4 Cu2 -39.7(5) . . . 2_765
O3 Se1 O5 U1 -91.6(4) . . . 2_875
O3 Se1 O5 Pb1 52.5(4) . . . 2_765
O4 Se1 O3 U1 -93.5(3) . . . .
O4 Se1 O5 U1 162.0(4) . . . 2_875
O4 Se1 O5 Pb1 -53.9(4) . . . 2_765
O5 Se1 O3 U1 163.2(3) . . . .
O5 Se1 O4 Pb1 -82.8(4) . . . 2_665
O5 Se1 O4 Cu2 64.5(5) . . . 2_765
O6 Se2 O7 Cu1 111.2(5) . . . 1_565
O6 Se2 O7 Cu3 -101.9(5) . . . 1_665
O6 Se2 O8 U1 115.1(6) . . . 2_776
O7 Se2 O6 U1 136.2(5) . . . .
O7 Se2 O8 U1 -144.4(6) . . . 2_776
O8 Se2 O6 U1 -122.1(5) . . . .
O8 Se2 O7 Cu1 7.8(5) . . . 1_565
O8 Se2 O7 Cu3 154.7(4) . . . 1_665
O9 Se3 O10 Cu1 36.0(6) . . . .
O9 Se3 O10 Cu3 171.9(3) . . . .
O9 Se3 O11 Pb1 78.0(3) . . . 1_655
O9 Se3 O11 Cu2 -34.2(4) . . . 2_765
O9 Se3 O11 Cu2 -163.5(3) . . . .
O10 Se3 O9 U1 -117.7(4) . . . .
O10 Se3 O11 Pb1 -23.4(3) . . . 1_655
O10 Se3 O11 Cu2 95.1(4) . . . .
O10 Se3 O11 Cu2 -135.6(4) . . . 2_765
O11 Se3 O9 U1 143.2(4) . . . .
O11 Se3 O10 Cu1 136.5(6) . . . .
O11 Se3 O10 Cu3 -87.6(4) . . . .
loop_
_exptl_oxdiff_crystal_face_indexfrac_h
_exptl_oxdiff_crystal_face_indexfrac_k
_exptl_oxdiff_crystal_face_indexfrac_l
_exptl_oxdiff_crystal_face_x
_exptl_oxdiff_crystal_face_y
_exptl_oxdiff_crystal_face_z
2.7488 -12.7968 5.0768 -0.0421 -0.1495 0.9879
2.6772 1.8415 -14.4772 0.2308 0.9686 -0.0923
-2.3407 12.5631 -6.5853 0.0675 0.2571 -0.9640
-3.7935 3.0340 12.8520 -0.2198 -0.9329 -0.2852
7.3134 -2.4873 8.6646 -0.7969 0.1932 0.5724
-2.2948 -13.4171 -4.0183 0.6757 -0.1557 0.7205
-7.2355 -2.7805 -9.0520 0.9455 -0.2263 -0.2340
0.1619 14.1853 1.4952 -0.4446 0.0996 -0.8902
