#------------------------------------------------------------------------------
#$Date: 2022-03-22 01:14:23 +0200 (Tue, 22 Mar 2022) $
#$Revision: 273877 $
#$URL: file:///home/coder/svn-repositories/cod/cif/1/56/66/1566671.cif $
#------------------------------------------------------------------------------
#
# This file is available in the Crystallography Open Database (COD),
# http://www.crystallography.net/
#
# All data on this site have been placed in the public domain by the
# contributors.
#
data_1566671
loop_
_publ_author_name
'Nguyen, Vu T.'
'Haug, Graham C.'
'Nguyen, Viet D.'
'Vuong, Ngan T. H.'
'Karki, Guna B.'
'Arman, Hadi'
'Larionov, Oleg V.'
_publ_section_title
;
 Functional Group Divergence and the Structural Basis of Acridine
 Photocatalysis Revealed by Direct Decarboxysulfonylation
;
_journal_name_full               'Chemical Science'
_journal_paper_doi               10.1039/D2SC00789D
_journal_year                    2022
_chemical_formula_moiety         'C10 H18 O4 S2'
_chemical_formula_sum            'C10 H18 O4 S2'
_chemical_formula_weight         266.36
_space_group_crystal_system      monoclinic
_space_group_IT_number           14
_space_group_name_Hall           '-P 2yn'
_space_group_name_H-M_alt        'P 1 21/n 1'
_atom_sites_solution_hydrogens   geom
_atom_sites_solution_primary     dual
_audit_creation_date             2020-06-24
_audit_creation_method
;
Olex2 1.3-ac4
(compiled 2019.10.09 svn.r3662 for Rigaku Oxford Diffraction, GUI svn.r5959)
;
_audit_update_record
;
2020-11-05 deposited with the CCDC.	2022-03-21 downloaded from the CCDC.
;
_cell_angle_alpha                90
_cell_angle_beta                 102.114(2)
_cell_angle_gamma                90
_cell_formula_units_Z            2
_cell_length_a                   6.46910(10)
_cell_length_b                   11.4368(2)
_cell_length_c                   8.73870(10)
_cell_measurement_reflns_used    4860
_cell_measurement_temperature    99.99(10)
_cell_measurement_theta_max      76.2320
_cell_measurement_theta_min      6.4440
_cell_volume                     632.143(17)
_computing_cell_refinement       'CrysAlisPro 1.171.40.63a (Rigaku OD, 2019)'
_computing_data_collection       'CrysAlisPro 1.171.40.63a (Rigaku OD, 2019)'
_computing_data_reduction        'CrysAlisPro 1.171.40.63a (Rigaku OD, 2019)'
_computing_molecular_graphics    'Olex2 1.3-ac4 (Dolomanov et al., 2009)'
_computing_publication_material  'Olex2 1.3-ac4 (Dolomanov et al., 2009)'
_computing_structure_refinement  'ShelXL 2018/3 (Sheldrick, 2015)'
_computing_structure_solution    'ShelXT n/a (Sheldrick, 2015)'
_diffrn_ambient_environment      N~2~
_diffrn_ambient_temperature      99.99(10)
_diffrn_detector                 'Hybrid Pixel Array Detector'
_diffrn_detector_area_resol_mean 10.0000
_diffrn_detector_type            HyPix
_diffrn_measured_fraction_theta_full 0.998
_diffrn_measured_fraction_theta_max 0.958
_diffrn_measurement_details
;
List of Runs (angles in degrees, time in seconds):

  # Type    Start    End  Width  t~exp~   \w     \q     \k     \f   Frames
#--------------------------------------------------------------------------
  1  \w    -25.00  72.00   0.50    0.05    --   46.87 -79.00  -2.00  194
  2  \w     34.00 109.00   0.50    0.05    --  106.69 -79.00  -2.00  150
  3  \w     34.00  71.00   0.50    0.05    --  106.69 -61.00  30.00   74
  4  \w     34.00  71.00   0.50    0.05    --  106.69 -61.00  60.00   74
  5  \w     34.00 101.00   0.50    0.05    --  106.69 -77.00  30.00  134
  6  \w     34.00  71.00   0.50    0.05    --  106.69 -61.00 -90.00   74
  7  \w     34.00 105.00   0.50    0.05    --  106.69 -94.00-150.00  142
  8  \w     34.00 105.00   0.50    0.05    --  106.69 -94.00-120.00  142
  9  \w     32.00 121.00   0.50    0.05    --   46.87  37.00 -90.00  178
 10  \w     83.00 120.00   0.50    0.05    --   46.87  57.00  30.00   74
 11  \w     82.00 178.00   0.50    0.05    --  106.69  79.00 121.00  192
 12  \w     34.00  71.00   0.50    0.05    --  106.69 -61.00 150.00   74
 13  \w     32.00  89.00   0.50    0.05    --   46.87  37.00  30.00  114
 14  \w     22.00 120.00   0.50    0.05    --   46.87  79.00 121.00  196
 15  \w    -51.00 -16.00   0.50    0.05    --  -88.50  45.00-180.00   70
 16  \w    -51.00 -16.00   0.50    0.05    --  -88.50  45.00 -30.00   70
 17  \w    -71.00  26.00   0.50    0.05    --  -46.87  79.00 121.00  194
 18  \w   -109.00 -15.00   0.50    0.05    --  -88.50  79.00 121.00  188
 19  \w   -120.00 -22.00   0.50    0.05    --  -46.87 -79.00  -2.00  196
 20  \w   -120.00 -87.00   0.50    0.05    --  -46.87-125.00 150.00   66
 21  \w   -160.00-101.00   0.50    0.05    --  -88.50 -77.00 120.00  118
 22  \w   -160.00-101.00   0.50    0.05    --  -88.50 -77.00-120.00  118
 23  \w   -120.00 -87.00   0.50    0.05    --  -46.87-125.00-180.00   66
;
_diffrn_measurement_device       'four-circle diffractometer'
_diffrn_measurement_device_type  'XtaLAB Synergy, Dualflex, HyPix'
_diffrn_measurement_method       '\w scans'
_diffrn_orient_matrix_type
'CrysAlisPro convention (1999,Acta A55,543-557)'
_diffrn_orient_matrix_UB_11      0.2013653000
_diffrn_orient_matrix_UB_12      -0.0586475000
_diffrn_orient_matrix_UB_13      0.0940030000
_diffrn_orient_matrix_UB_21      -0.0237690000
_diffrn_orient_matrix_UB_22      -0.0988662000
_diffrn_orient_matrix_UB_23      -0.1222397000
_diffrn_orient_matrix_UB_31      0.1348227000
_diffrn_orient_matrix_UB_32      0.0702779000
_diffrn_orient_matrix_UB_33      -0.0934918000
_diffrn_radiation_monochromator  mirror
_diffrn_radiation_probe          x-ray
_diffrn_radiation_type           'Cu K\a'
_diffrn_radiation_wavelength     1.54184
_diffrn_reflns_av_R_equivalents  0.0300
_diffrn_reflns_av_unetI/netI     0.0200
_diffrn_reflns_Laue_measured_fraction_full 0.998
_diffrn_reflns_Laue_measured_fraction_max 0.958
_diffrn_reflns_limit_h_max       8
_diffrn_reflns_limit_h_min       -6
_diffrn_reflns_limit_k_max       14
_diffrn_reflns_limit_k_min       -13
_diffrn_reflns_limit_l_max       11
_diffrn_reflns_limit_l_min       -10
_diffrn_reflns_number            6099
_diffrn_reflns_point_group_measured_fraction_full 0.998
_diffrn_reflns_point_group_measured_fraction_max 0.958
_diffrn_reflns_theta_full        67.684
_diffrn_reflns_theta_max         76.450
_diffrn_reflns_theta_min         6.467
_diffrn_source                   'micro-focus sealed X-ray tube'
_diffrn_source_type              'PhotonJet (Cu) X-ray Source'
_exptl_absorpt_coefficient_mu    3.818
_exptl_absorpt_correction_T_max  1.000
_exptl_absorpt_correction_T_min  0.732
_exptl_absorpt_correction_type   gaussian
_exptl_absorpt_process_details
;
CrysAlisPro 1.171.40.63a (Rigaku Oxford Diffraction, 2019)
Numerical absorption correction based on gaussian integration over
			a multifaceted crystal model
Empirical absorption correction using spherical harmonics,
 implemented in SCALE3 ABSPACK scaling algorithm.
;
_exptl_crystal_colour            'clear colourless'
_exptl_crystal_colour_lustre     clear
_exptl_crystal_colour_primary    colourless
_exptl_crystal_density_diffrn    1.399
_exptl_crystal_description       plate
_exptl_crystal_F_000             284
_exptl_crystal_size_max          0.223
_exptl_crystal_size_mid          0.145
_exptl_crystal_size_min          0.109
_refine_diff_density_max         0.360
_refine_diff_density_min         -0.372
_refine_diff_density_rms         0.057
_refine_ls_extinction_coef       0.0044(7)
_refine_ls_extinction_expression Fc^*^=kFc[1+0.001xFc^2^\l^3^/sin(2\q)]^-1/4^
_refine_ls_extinction_method     'SHELXL-2018/3 (Sheldrick 2018)'
_refine_ls_goodness_of_fit_ref   1.051
_refine_ls_hydrogen_treatment    constr
_refine_ls_matrix_type           full
_refine_ls_number_parameters     74
_refine_ls_number_reflns         1265
_refine_ls_number_restraints     0
_refine_ls_restrained_S_all      1.051
_refine_ls_R_factor_all          0.0294
_refine_ls_R_factor_gt           0.0290
_refine_ls_shift/su_max          0.001
_refine_ls_shift/su_mean         0.000
_refine_ls_structure_factor_coef Fsqd
_refine_ls_weighting_details
'w=1/[\s^2^(Fo^2^)+(0.0387P)^2^+0.4333P] where P=(Fo^2^+2Fc^2^)/3'
_refine_ls_weighting_scheme      calc
_refine_ls_wR_factor_gt          0.0774
_refine_ls_wR_factor_ref         0.0777
_reflns_Friedel_coverage         0.000
_reflns_number_gt                1234
_reflns_number_total             1265
_reflns_threshold_expression     'I > 2\s(I)'
_cod_data_source_file            d2sc00789d2.cif
_cod_data_source_block           hpd132
_cod_original_cell_volume        632.142(17)
_cod_database_code               1566671
_shelx_shelxl_version_number     2018/3
_chemical_oxdiff_formula         'C H S O'
_chemical_oxdiff_usercomment     'Alkene sulfone'
_shelx_space_group_comment
;
The symmetry employed for this shelxl refinement is uniquely defined
by the following loop, which should always be used as a source of
symmetry information in preference to the above space-group names.
They are only intended as comments.
;
_shelx_estimated_absorpt_t_max   0.681
_shelx_estimated_absorpt_t_min   0.483
_reflns_odcompleteness_completeness 100.00
_reflns_odcompleteness_iscentric 1
_reflns_odcompleteness_theta     66.97
_olex2_refinement_description
;
1. Fixed Uiso
 At 1.2 times of:
  All C(H) groups, All C(H,H) groups
2.a Secondary CH2 refined with riding coordinates:
 C4(H4A,H4B), C5(H5A,H5B), C3(H3A,H3B)
2.b Aromatic/amide H refined with riding coordinates:
 C2(H2)
2.c X=CH2 refined with riding coordinates:
 C1(H1A,H1B)
;
_shelx_res_file
;
TITL hpd132_a.res in P2(1)/n
    hpd132.res
    created by SHELXL-2018/3 at 15:17:10 on 24-Jun-2020
REM Old TITL hpd132 in P2(1)/n
REM SHELXT solution in P2(1)/n: R1 0.103, Rweak 0.037, Alpha 0.024
REM <I/s> 0.820 for 72 systematic absences, Orientation as input
REM Formula found by SHELXT: C2 C1 S
CELL 1.54184 6.4691 11.4368 8.7387 90 102.114 90
ZERR 2 0.0001 0.0002 0.0001 0 0.002 0
LATT 1
SYMM 0.5-X,0.5+Y,0.5-Z
SFAC C H O S
UNIT 20 36 8 4

L.S. 6
PLAN  5
SIZE 0.109 0.145 0.223
TEMP -173.16(10)
CONF
MORE -1
BOND $H
fmap 2
acta
REM <olex2.extras>
REM <HklSrc "%.\\hpd132.hkl">
REM </olex2.extras>

WGHT    0.038700    0.433300
EXTI    0.004407
FVAR      10.57090
S1    4    0.596371    0.696089    0.402374    11.00000    0.01615    0.01492 =
         0.01262   -0.00056    0.00127    0.00152
O2    3    0.697997    0.765816    0.301094    11.00000    0.02271    0.02247 =
         0.01778    0.00377    0.00665    0.00325
O1    3    0.425679    0.620567    0.326416    11.00000    0.02055    0.02066 =
         0.02168   -0.00332   -0.00276   -0.00162
C4    1    0.788976    0.611333    0.529396    11.00000    0.01891    0.01761 =
         0.01471    0.00075    0.00089    0.00215
AFIX  23
H4A   2    0.885964    0.664283    0.600178    11.00000   -1.20000
H4B   2    0.717571    0.561083    0.594711    11.00000   -1.20000
AFIX   0
C5    1    0.917524    0.534521    0.441251    11.00000    0.01985    0.01922 =
         0.01543    0.00016    0.00046    0.00412
AFIX  23
H5A   2    0.989301    0.583897    0.375204    11.00000   -1.20000
H5B   2    0.822447    0.479718    0.372125    11.00000   -1.20000
AFIX   0
C3    1    0.501593    0.792644    0.532940    11.00000    0.02052    0.02004 =
         0.01407   -0.00173    0.00257    0.00230
AFIX  23
H3A   2    0.426194    0.747424    0.600937    11.00000   -1.20000
H3B   2    0.622112    0.833352    0.600517    11.00000   -1.20000
AFIX   0
C2    1    0.354662    0.880406    0.439983    11.00000    0.02581    0.01629 =
         0.01489   -0.00222    0.00327    0.00035
AFIX  43
H2    2    0.411318    0.934308    0.376952    11.00000   -1.20000
AFIX   0
C1    1    0.152327    0.887126    0.440587    11.00000    0.02626    0.02596 =
         0.02349    0.00228    0.00440    0.00566
AFIX  93
H1A   2    0.091172    0.834397    0.502477    11.00000   -1.20000
H1B   2    0.067008    0.944720    0.379134    11.00000   -1.20000
AFIX   0
HKLF 4




REM  hpd132_a.res in P2(1)/n
REM wR2 = 0.0777, GooF = S = 1.051, Restrained GooF = 1.051 for all data
REM R1 = 0.0290 for 1234 Fo > 4sig(Fo) and 0.0294 for all 1265 data
REM 74 parameters refined using 0 restraints

END

WGHT      0.0367      0.4563

REM Highest difference peak  0.360,  deepest hole -0.372,  1-sigma level  0.057
Q1    1   0.5432  0.7454  0.4748  11.00000  0.05    0.36
Q2    1   1.0000  0.5000  0.5000  10.50000  0.05    0.33
Q3    1   0.2621  0.9144  0.4834  11.00000  0.05    0.29
Q4    1   0.7052  0.6559  0.4679  11.00000  0.05    0.24
Q5    1   0.4284  0.8316  0.4849  11.00000  0.05    0.23
;
_shelx_res_checksum              1104
_shelx_hkl_file
;
   0   0  -1 35.5421 17.0734  19
   0   0  -1 37.7475 17.2474  17
   0   0  -2 451773. 9420.91  19
   0   0  -2 442227. 9431.32  17
   0   0  -3 35.0752 40.4054  17
   0   0  -3 33.2077 38.2542  19
   0   0   3-10.3541 33.7363  14
   0   0   4 59103.2 1608.06  14
   0   0  -4 54001.1 1607.94  15
   0   0  -4 56247.6 1640.68  17
   0   0   5 22.4112 63.2379  14
   0   0  -5-24.3607 56.1249  17
   0   0  -5 22.5955 45.0836  15
   0   0   6 48717.4 1837.60  14
   0   0  -6 50348.1 1759.62  15
   0   0  -6 49027.1 1721.33   4
   0   0  -6 47500.5 1760.49  17
   0   0  -6 47844.9 1747.69   5
   0   0  -7 36.5764 94.2155   5
   0   0  -7-35.8399 82.5719  15
   0   0  -7 69.9564 80.5868   4
   0   0  -7 36.8964 85.0061  17
   0   0   7-48.7519 202.488  14
   0   0  -8 44744.0 1788.94  17
   0   0  -8 49513.3 1860.63  15
   0   0  -8 44730.9 1753.93   4
   0   0  -8 48377.6 1834.68  18
   0   0  -9-32.7202 65.2876  15
   0   0  -9 286.614 132.272  18
   0   0 -10 13641.7 696.237  18
   0   0  10 15931.5 726.556  11
   0   1   0 16.6848 9.22406  23
   0   1   1 77656.4 1667.85  14
   0  -1  -1 78258.2 1667.93  19
   0  -1  -1 75002.2 1671.81  17
   0   1  -1 78816.9 1679.73  17
   0   1  -1 74937.8 1669.83  19
   0  -1   1 76020.1 1665.70  14
   0   1   1 77062.3 1677.92  10
   0  -1  -1 80367.6 1707.52   9
   0   1  -1 74528.9 1636.67  13
   0   1  -1 72427.7 1620.14  10
   0   1   2 671152. 13665.2  14
   0  -1  -2 648359. 13663.5  19
   0  -1   2 647832. 13668.7  14
   0   1  -2 645267. 13536.6  13
   0  -1  -2 666798. 13678.2  17
   0  -1  -3 35248.3 1016.68  17
   0  -1  -3 34710.3 1001.32  19
   0  -1   3 34227.0 983.402  14
   0   1  -3 32791.6 805.626  13
   0   1  -4 2937.73 142.302  13
   0  -1   4 3775.70 289.102  14
   0  -1  -4 3005.78 282.098  17
   0  -1  -4 2990.35 271.755  15
   0  -1  -5 625.344 155.176  17
   0  -1  -5 893.447 177.196  15
   0  -1   5 1004.51 184.406  14
   0   1  -6 1181.74 236.007   4
   0  -1  -6 1714.49 273.548  15
   0  -1  -6 1647.70 278.970  17
   0  -1  -6 1533.28 254.584   4
   0  -1   6 1135.73 249.342  14
   0  -1  -6 1341.91 249.466   5
   0   1  -6 1680.21 286.750   5
   0   1   7 50.0896 208.131  14
   0  -1   7 146.067 137.517  14
   0   1  -7 334.252 154.372  17
   0  -1  -7 386.771 156.986  15
   0  -1  -7 269.255 128.730   4
   0   1  -7 253.405 132.009   4
   0  -1  -7 246.392 128.363   5
   0  -1  -7 329.085 139.830  17
   0  -1   8 75869.2 2979.69  14
   0   1  -8 89914.0 2895.78  17
   0   1   8 82675.8 3082.59  14
   0  -1  -8 96241.7 2945.99  17
   0  -1  -8 97719.5 2892.74   4
   0  -1  -8 99341.0 2956.23  18
   0  -1  -8 107257. 3024.72  15
   0  -1  -9 967.968 219.698  18
   0   1 -10 25260.9 991.235  18
   0  -1 -10 23154.9 959.521  18
   0   2   0 356063. 7401.01  23
   0  -2   0 349972. 7454.34   9
   0   2   0 356517. 7430.75  20
   0   2   1 65614.3 1452.60  14
   0   2  -1 64222.8 1459.99  17
   0   2  -1 63799.3 1487.82  10
   0   2   1 65974.5 1547.75  10
   0  -2   1 65664.5 1446.07  14
   0  -2  -1 66855.6 1459.81  17
   0   2  -1 67582.6 1461.41  19
   0  -2  -1 64227.3 1446.72  19
   0   2   2 7184.05 298.052  14
   0   2  -2 6706.07 302.897  17
   0  -2  -2 6633.55 285.927  19
   0  -2   2 7027.42 287.567  14
   0  -2  -2 6933.21 300.155  17
   0   2  -2 7375.04 309.656  19
   0   2  -3 342.625 89.0512  17
   0  -2   3 176.691 58.8566  14
   0  -2  -3 233.105 71.2116  17
   0   2   3 260.921 73.1869  14
   0  -2  -4 12000.6 590.040   9
   0  -2  -4 11336.4 577.272  15
   0   2   4 12758.2 593.596  14
   0   2  -4 12082.5 614.147  17
   0  -2  -4 13430.9 619.077  17
   0  -2   4 12856.5 584.697  14
   0  -2  -5 66417.9 2069.88  15
   0   2  -5 70560.4 2149.63  17
   0   2   5 81511.8 2249.36  14
   0  -2   5 77244.0 2163.00  14
   0  -2  -5 67239.4 2094.83  17
   0   2   6 9869.43 778.621  14
   0   2  -6 13251.8 824.432   5
   0  -2  -6 13978.5 806.905  17
   0   2  -6 13262.6 808.903  17
   0  -2   6 9953.67 749.862  14
   0  -2  -6 13253.7 757.266   4
   0   2  -6 12477.2 788.184   4
   0  -2  -6 13571.4 790.270  15
   0   2  -6 14407.7 830.808  15
   0  -2  -6 14322.7 801.591   5
   0  -2  -7 26896.5 1222.12  15
   0  -2  -7 23046.1 1108.66   4
   0   2  -7 24444.9 1195.84  18
   0   2  -7 24225.4 1197.63  17
   0   2  -7 24951.1 1207.50  15
   0  -2  -7 24345.5 1181.92  18
   0  -2  -7 25485.1 1211.74  17
   0  -2  -7 26462.4 1184.75   5
   0   2  -7 25504.4 1227.29   4
   0  -2  -8 903.798 222.110   4
   0   2  -8 926.603 242.074  18
   0  -2  -8 870.612 225.621  18
   0   2  -8 554.209 195.719  15
   0   2  -9 12530.0 771.082  18
   0  -2  -9 12321.4 759.735  18
   0   2  -9 13390.3 802.632  15
   0   2  10 55382.9 1587.93  11
   0  -2  10 56872.9 1583.81  11
   0  -2 -10 51549.0 1592.80  18
   0   2 -10 51116.7 1589.95  18
   0   3   0 1069.28 104.077  20
   0   3   1 509.338 62.0759  14
   0  -3  -1 537.253 85.5025   9
   0  -3  -1 1173.18 72.4045  17
   0   3   1 498.059 87.2920  10
   0  -3   1 985.709 75.7130  14
   0   3  -1 545.271 81.1281  10
   0   3  -1 430.393 48.5889  17
   0   3   2 6790.34 293.741  14
   0   3  -2 6446.66 296.070  17
   0  -3   2 6482.61 278.992  14
   0  -3  -2 6780.23 349.328   9
   0  -3  -2 6183.60 281.844  17
   0  -3  -3 112613. 2744.59  17
   0   3  -3 110290. 2771.70  17
   0   3   3 118721. 2762.70  14
   0  -3   3 122936. 2749.07  14
   0   3   4 25080.2 925.366  14
   0  -3  -4 21506.4 859.550  17
   0   3  -4 22862.3 897.824  17
   0  -3  -4 22694.2 887.817  15
   0  -3   4 24689.3 894.868  14
   0  -3   5 59907.0 1908.43  14
   0  -3  -5 58129.3 1866.07   9
   0  -3  -5 59344.8 1841.32  17
   0   3   5 59055.2 1953.70  14
   0  -3  -5 59997.9 1859.75  15
   0   3  -5 62596.6 1907.63  17
   0  -3  -6 8677.35 608.718   4
   0   3  -6 10809.6 706.118  17
   0  -3   6 5401.97 567.502  14
   0  -3  -6 10588.1 680.420  17
   0   3   6 6169.08 666.380  14
   0  -3  -6 9910.24 661.963  15
   0   3  -6 10853.1 711.533  15
   0   3  -6 9188.25 691.027   5
   0   3  -6 9147.51 675.274   4
   0  -3  -7 1022.77 236.534  18
   0   3  -7 859.980 223.236  17
   0   3  -7 1004.43 248.794  15
   0  -3   7 762.586 243.246  14
   0   3   7 1027.10 414.534  14
   0  -3  -7 1199.87 242.151   4
   0   3  -7 782.115 221.495  18
   0  -3  -7 1579.44 283.215  17
   0   3  -8 45384.6 1744.79  15
   0   3  -8 43165.0 1700.60  18
   0  -3  -8 42788.3 1631.08   4
   0  -3  -8 45860.9 1715.89  18
   0   3   9 42618.1 1480.23  11
   0   3  -9 36657.7 1441.75  15
   0  -3   9 44516.4 1478.29  11
   0  -3  -9 35225.4 1392.52  18
   0   3  -9 37755.8 1432.04  18
   0  -3  10 5320.36 330.371  11
   0   3  10 4980.07 328.349  11
   0   4   0 37185.1 1085.42  10
   0   4   0 37134.0 1034.40  20
   0  -4   0 37223.9 1060.32   9
   0  -4  -1 40507.9 912.540  17
   0   4   1 40363.9 908.180  14
   0   4   1 44452.3 1085.16  23
   0   4  -1 42145.4 1164.48  10
   0   4  -1 41186.1 917.133  17
   0   4   1 45946.5 1234.93  10
   0  -4   1 43379.5 917.652  14
   0  -4  -1 45058.1 1206.25   9
   0   4  -2 42185.0 995.987  17
   0  -4  -2 42892.5 982.713  17
   0  -4  -2 43381.3 1203.55   9
   0  -4  -3 248159. 5499.44  17
   0   4  -3 246722. 5516.16  17
   0   4   3 241067. 5580.95  14
   0   4   4 504.184 104.099  16
   0  -4  -4 547.261 119.709  17
   0   4   4 268.838 134.462  14
   0   4  -4 473.230 118.141  17
   0  -4   4 574.777 138.237  14
   0   4   5 5454.83 549.618  14
   0  -4  -5 8151.36 520.962  17
   0  -4  -5 9639.43 619.245   9
   0  -4   5 4655.81 463.134  14
   0   4  -5 9207.59 564.338  17
   0  -4  -6 6653.06 520.945   4
   0   4  -6 7009.93 548.582  18
   0  -4  -6 6405.31 519.427  17
   0  -4  -6 7716.67 565.254  18
   0   4  -6 7231.22 582.187  15
   0   4  -6 6909.12 547.615  17
   0  -4  -7 48977.3 1752.91  18
   0  -4  -7 47786.6 1718.43   4
   0   4  -7 49234.9 1823.74  15
   0   4  -7 49428.1 1802.45  17
   0   4  -7 44130.4 1599.17   7
   0  -4  -7 49254.1 1765.98  17
   0   4   7 49831.3 1996.23  14
   0   4  -7 51683.7 1809.64  18
   0  -4  -8 3106.16 364.025   4
   0  -4  -8 3612.76 403.052  18
   0   4  -8 3686.01 413.068  18
   0   4  -8 4053.47 452.306  15
   0   4  -9 3901.62 378.134  12
   0   4  -9 3968.14 390.748  15
   0   4   9 4354.06 368.221  11
   0  -4  -9 4195.70 374.629  18
   0  -4   9 4016.55 353.100  11
   0   4  -9 4033.64 373.887  18
   0  -5   0 41.7117 48.0503   9
   0   5   0-12.1427 37.0086  20
   0  -5  -1 61096.2 1701.83   9
   0   5   1 62442.0 1662.89  20
   0   5   1 61897.5 1535.02  23
   0  -5   1 60572.5 1685.27   9
   0   5   2 586.285 75.6278  14
   0  -5  -2 355.166 105.034   9
   0   5  -2 566.836 128.025  21
   0   5   2 259.594 82.3150  16
   0   5   2 436.546 87.9680  23
   0   5   3 384.281 146.127  14
   0   5  -3 332.360 75.7164  17
   0   5   3 341.507 94.7931  16
   0  -5  -3 336.212 113.681   9
   0  -5   3 154.286 64.3345  14
   0  -5  -3 293.644 70.2173  17
   0   5   4 5065.02 354.248  16
   0  -5  -4 4886.29 335.924  17
   0   5  -4 4873.57 342.802  17
   0   5   4 3039.50 361.788  14
   0  -5   4 2174.40 279.997  14
   0  -5  -5 298153. 5958.28  17
   0   5  -5 299269. 5983.70  18
   0   5  -5 287180. 5955.85  17
   0  -5  -6 5422.48 461.949  18
   0   5  -6 4975.47 446.542  18
   0   5  -6 4885.90 449.288  17
   0   5   6 6397.92 615.003  14
   0   5  -6 6025.71 534.323  15
   0  -5  -6 6086.71 506.771   4
   0   5  -7 43552.7 1619.43   7
   0   5  -7 47372.4 1641.85  18
   0  -5  -7 44530.4 1616.44   4
   0  -5  -7 46834.0 1615.62  18
   0   5  -7 46333.2 1737.54  15
   0   5  -8 299.082 124.540  15
   0  -5  -8 238.094 110.069  18
   0   5  -8 269.328 109.598  18
   0   5  -9 12629.4 655.242  12
   0   5  -9 11539.1 629.382  15
   0   6   0 9663.29 531.571  21
   0   6   0 9811.75 495.244  20
   0  -6   0 8624.02 509.140   9
   0  -6   1 5420.92 393.911   9
   0   6   1 5726.24 384.926  20
   0   6   1 6305.24 422.776  21
   0   6   1 6429.58 424.587  16
   0  -6  -1 5904.45 420.845   9
   0   6  -1 6585.83 447.959  21
   0  -6  -2 15015.8 742.471   9
   0   6   2 14943.4 688.644  16
   0   6   2 15029.4 716.173  21
   0   6   2 14776.4 585.691  23
   0   6  -2 14720.6 734.782  21
   0   6   3 394119. 8718.72  23
   0   6   3 411194. 8865.22  16
   0   6   3 402313. 8972.89  21
   0  -6  -3 396497. 9053.26   9
   0   6   4 18089.3 806.524  16
   0   6   4 18719.0 788.892  23
   0   6   5 147448. 3674.04  16
   0   6  -6 18790.0 988.534  15
   0  -6  -6 21043.6 1127.64   9
   0   6  -7 13687.8 821.193  15
   0   6  -7 13930.3 880.799  12
   0   6  -7 15328.1 857.019   7
   0   6  -8 5453.14 460.388  15
   0   6  -8 5898.06 504.807  12
   0   6  -9 395.190 108.715  12
   0   7   0-18.9520 48.8186  20
   0  -7   0-23.0597 59.3991   9
   0   7   0 68.0142 82.5881  21
   0   7   1 7869.54 530.749  21
   0  -7   1 8527.70 548.758   9
   0  -7  -1 8046.61 547.602   9
   0   7   1 8761.27 555.529  16
   0   7   1 8830.49 533.392  20
   0   7  -1 8734.77 568.410  21
   0   7   2 1491.30 233.181  21
   0   7  -2 1065.18 210.206  12
   0   7   2 1435.14 222.537  16
   0  -7  -2 1170.37 220.911   9
   0  -7   2 908.520 188.477   9
   0   7   2 1442.54 229.220  20
   0   7  -3 1518.41 268.586  12
   0  -7  -3 1360.49 250.280   9
   0   7   3 1424.75 228.426  16
   0   7   3 1177.05 225.200  21
   0   7   4 73291.7 2170.12  16
   0  -7  -4 73642.6 2406.55   9
   0   7   4 74784.9 2316.55  21
   0   7   5 111837. 2959.27  16
   0   7   5 114159. 3221.22  21
   0   7  -5 106449. 3007.47   8
   0   7  -5 106796. 3263.41  12
   0   7   6 24583.6 1191.99  21
   0   7  -6 23757.0 1082.74  15
   0   7  -6 23300.5 1169.96   7
   0   7  -6 23943.2 1226.28  12
   0  -7  -6 22444.9 1213.32   9
   0   7  -7 5933.88 484.714  15
   0   7  -7 6334.84 561.461  12
   0   7  -7 5682.51 508.088   7
   0   7  -8 14602.1 772.200  12
   0   7  -9 9372.49 445.379  12
   0   8   0 2188.11 302.267  21
   0  -8   0 1584.60 264.747   9
   0   8   0 1126.80 204.888   7
   0   8   0 1783.12 248.352  20
   0   8  -1 333.778 135.615  12
   0  -8  -1 383.220 140.242   9
   0   8   1 288.083 107.407  20
   0   8  -1 516.004 150.252   7
   0   8  -1 529.335 157.429  21
   0  -8   1 414.553 135.309   9
   0   8   1 386.679 138.919  21
   0   8  -2 15977.2 906.658  12
   0   8   2 16813.5 849.621  20
   0  -8  -2 17107.9 945.852   9
   0   8   2 16740.5 883.830  21
   0   8  -2 17267.0 915.836   7
   0  -8   2 16733.4 883.460   9
   0  -8   3 4725.18 451.622   9
   0  -8  -3 3960.43 452.324   9
   0   8  -3 4026.81 462.597  12
   0   8   3 3381.33 387.434  20
   0   8   3 4203.67 430.655  21
   0   8  -3 4522.27 468.948   7
   0   8   3 4669.51 439.038  16
   0   8   4 47434.3 1732.52  20
   0   8   4 45994.5 1715.28  21
   0  -8  -4 44293.7 1814.37   9
   0   8   4 48309.0 1653.00  16
   0  -8   4 46674.8 1706.22   9
   0   8  -4 45220.2 1756.05   7
   0  -8   5 8252.62 629.699   9
   0   8   5 7994.10 661.796  20
   0   8  -5 9001.09 639.055   8
   0   8   5 8660.51 664.479  21
   0   8  -5 8283.37 669.761   7
   0   8  -6 53500.0 1893.68   7
   0   8   6 50054.6 1830.63  21
   0   8  -6 48223.2 1861.01  12
   0   8   7 18053.0 909.407  21
   0   8  -7 18840.8 919.816   7
   0   8  -7 18058.9 939.016  12
   0   8  -8 24903.8 967.706  12
   0   9   0 26.3112 60.6187   7
   0   9   0 31.7176 81.7000  21
   0  -9   0-33.4170 54.4401   9
   0  -9   1 4488.64 473.338   9
   0  -9  -1 5016.77 506.939   9
   0   9  -1 5464.12 499.039   7
   0   9   1 4010.07 405.784  20
   0   9  -1 4460.25 460.795  21
   0   9  -1 3913.26 462.023  12
   0   9   1 5358.85 503.324  21
   0   9   2 15472.0 848.468  20
   0  -9  -2 16179.7 960.189   9
   0   9  -2 15526.6 910.950   7
   0   9  -2 14518.8 918.917  12
   0  -9   2 16972.5 922.525   9
   0   9   2 16113.5 912.510  21
   0  -9  -3 3160.23 437.107   9
   0   9  -3 3279.51 438.646  12
   0  -9   3 3538.70 413.663   9
   0   9   3 3371.14 412.460  21
   0   9   3 3641.69 409.912  20
   0   9  -3 4193.77 470.909   7
   0   9   4 16339.3 937.730  20
   0  -9   4 15835.0 913.472   9
   0   9  -4 18075.8 1013.22   7
   0   9   4 18302.8 991.801  21
   0   9  -4 20112.4 1118.25  12
   0   9  -4 18863.3 1009.57   8
   0  -9  -4 16405.4 1024.83   9
   0   9   5 229.924 136.510  21
   0   9  -5 237.477 123.387   8
   0   9  -6 67968.4 2210.32   7
   0   9   6 68674.9 2184.42  21
   0   9  -6 68816.5 2244.81  12
   0   9  -7 17085.9 802.531   7
   0   9   7 16260.3 795.248  21
   0   9  -7 17499.3 838.781  12
   0   9  -8 41055.3 1218.39  12
   0  10   0 125656. 3424.91  21
   0 -10   0 109009. 3363.68   9
   0  10  -1 2355.26 332.099   7
   0 -10  -1 2289.26 366.885   9
   0  10  -1 2835.18 389.701  21
   0 -10   1 3082.55 407.942   9
   0  10   1 2369.54 359.874  21
   0  10   2 43614.6 1540.51   8
   0 -10  -2 39509.2 1689.27   9
   0 -10   2 38109.0 1603.11   9
   0  10  -2 44321.6 1693.46   7
   0  10  -2 42254.8 1734.90  12
   0  10   2 38299.2 1510.74  20
   0  10   2 44075.6 1671.28  21
   0  10  -3 6326.00 610.342  12
   0  10  -3 6229.52 584.717   7
   0 -10  -3 6228.20 614.882   9
   0  10   3 6588.15 553.617  20
   0  10   3 6670.09 581.500  21
   0 -10   3 5462.01 528.758   9
   0  10   4 20893.0 1051.90  21
   0  10  -4 19804.7 1111.84  12
   0  10  -4 20269.2 1048.71   8
   0  10  -4 19174.1 1038.82   7
   0  10   5 6946.30 559.183  21
   0  10  -5 6864.97 564.826   7
   0  10  -5 7149.22 539.100   8
   0  10  -6 18931.7 906.437   7
   0  10   6 20476.1 921.612  21
   0  10  -7 1722.96 219.194  12
   0  10  -7 1461.59 190.094   7
   0  10   7 1237.17 178.382  21
   0  11   0 449.162 173.489   8
   0  11   0-33.8329 95.4666  21
   0  11   1 13667.6 848.116  21
   0  11  -1 12699.3 769.645   7
   0  11   1 14999.2 857.133   8
   0  11  -1 15462.2 914.037   8
   0  11  -2 78337.7 2394.37   7
   0  11   2 70652.8 2165.17   8
   0  11  -2 70694.3 2372.41   8
   0  11   2 73745.0 2362.54  21
   0  11  -3 2365.78 347.746   8
   0  11  -3 2392.27 347.484   7
   0  11   3 2480.52 350.964  21
   0  11  -4 22393.9 1111.47  12
   0  11   4 21288.2 1014.99  21
   0  11  -4 21009.1 1031.38   7
   0  11  -4 20675.8 998.706   8
   0  11  -5 5916.61 474.970   7
   0  11  -5 6153.93 443.217   8
   0  11   5 5421.14 450.853  21
   0  11  -5 6416.80 520.022  12
   0  11   6 8074.26 475.661  21
   0  12   0 120205. 3333.03   8
   0  12   1 22901.7 1072.67  21
   0  12  -1 21690.4 936.648   7
   0  12   1 25670.5 1077.40   8
   0  12  -1 26605.8 1176.08   8
   0  12  -2 28243.8 1203.88   8
   0  12   2 26414.4 1142.53  21
   0  12  -2 26494.3 1105.21   7
   0  12   3 8893.22 587.231  21
   0  12  -3 9006.24 593.965   7
   0  12  -4 3923.85 361.684   7
   0  12  -4 4679.34 386.944   8
   0  12   4 4374.04 376.647  21
   0  12  -5 2503.73 249.702   7
   0  13   0-21.6863 55.8623   8
   0  13   1 32733.0 1113.52   8
   0  13  -1 36836.7 1287.70   8
   0  13  -2 2841.64 301.274   8
   0  13  -2 2994.81 253.174   7
   0  13  -3 13278.8 582.911   7
   0  13   3 13985.1 640.481  21
   0  13  -4 45.4020 43.3692   7
   0  13  -4 11.7257 38.2087   8
   0  14   0 11475.8 460.651   8
   0  14  -1 23795.6 796.199   8
   0  14  -2 2723.08 217.181   8
   1   0 -10 94.0797 71.7099  18
   1   0  -9 83732.8 2634.79  18
   1   0  -9 84325.6 2639.13   4
  -1   0   8 101.412 261.224  14
   1   0  -8 38.2117 76.2453   4
   1   0  -8 111.008 112.779   5
   1   0  -8-40.3482 113.853  17
   1   0  -8 38.0268 115.900  18
   1   0  -7 21723.9 1139.16  17
   1   0  -7 23134.6 1166.53   2
   1   0  -7 22411.0 1143.17  18
   1   0  -7 23834.3 1164.88   5
   1   0  -7 24242.6 1188.16   4
  -1   0   7 26646.7 1242.15  14
   1   0  -6-28.3443 65.3028   4
   1   0  -6 27.8691 55.6057   3
  -1   0   6 25.4736 71.8790  14
   1   0  -6 57.0858 98.6405  18
   1   0  -6-27.7267 45.1701   5
   1   0  -6 28.4236 73.2150  17
   1   0  -6 86.5211 81.3790   2
   1   0  -5 844.450 178.392  17
  -1   0   5 840.667 157.841  14
   1   0  -5 973.709 178.553  15
   1   0  -5 1149.63 205.364  18
   1   0  -4-17.1082 39.4176  18
  -1   0   4 55.0052 52.5397  14
   1   0  -4 46.3249 47.0644  15
   1   0  -4 16.7768 43.2164  17
   1   0  -3 41999.1 1108.32   1
   1   0  -3 40630.1 1119.21  17
   1   0  -2-22.4392 29.8514  17
  -1   0   1 104165. 2134.92  13
   1   0  -1 104604. 2192.46  17
  -1   0   0 25.9581 24.9986  19
   1   0   0 69.1658 21.0056  20
  -1   0  -1 381018. 8080.78  19
  -1   0  -2 44.0590 35.1712  19
   1   0   2 14.2870 57.0170  14
   1   0   3 96556.8 3286.91  14
  -1   0  -3 179289. 3311.44  19
   1   0   4-29.4195 95.8555  14
  -1   0  -4-18.8873 43.5148  17
  -1   0  -4 17.9452 41.3444  19
  -1   0  -5 47941.3 1308.45  13
  -1   0  -5 51567.8 1624.72  19
  -1   0  -5 50425.9 1638.15  17
  -1   0  -6-31.7487 63.3466  15
  -1   0  -6 103.753 97.5873  17
  -1   0  -6-29.9773 48.8366   4
   1   0   7 85392.6 2775.62  14
  -1   0  -7 79295.4 2663.67  17
  -1   0  -7 84266.6 2680.08  15
   1   0   8-34.1307 124.335  11
  -1   0  -8 36.7137 73.2586  15
  -1   0  -8-72.3116 110.199  18
  -1   0  -9 2703.12 342.353  18
   1   0   9 3027.31 347.954  11
  -1   0  -9 3012.95 364.724  15
   1   0  10 29.5324 51.0336  11
   1   1 -10 20914.4 931.633  18
   1  -1 -10 22927.1 962.164  18
   1  -1  -9 1097.95 243.263   4
   1  -1  -9 908.090 223.504  18
   1   1  -8 11266.2 825.214   4
  -1  -1   8 8300.35 829.686  14
  -1   1   8 9089.53 876.642  14
   1   1  -8 12106.8 862.070  17
   1  -1  -8 12625.1 868.534  17
   1   1  -8 12307.1 840.555  15
   1  -1  -8 13693.4 871.447   4
   1  -1  -8 11481.4 807.318  18
   1  -1  -8 12253.8 813.925   5
   1   1  -8 14478.0 910.955   5
   1  -1  -7 72481.2 2407.54   2
   1  -1  -7 70520.1 2361.39  15
   1   1  -7 69643.4 2361.99   5
  -1  -1   7 81120.6 2464.80  14
   1   1  -7 72119.4 2378.79  15
   1  -1  -7 69383.9 2333.93   4
   1   1  -7 71531.4 2408.99   4
   1  -1  -7 67804.4 2337.89  17
   1  -1  -7 67343.5 2317.77  18
  -1   1   7 86520.0 2565.95  14
   1  -1  -7 66910.5 2293.70   5
   1  -1  -6 1536.25 269.774   2
   1  -1  -6 1378.79 241.233   5
   1  -1  -6 1836.51 281.708   4
   1  -1  -6 1122.66 220.741   3
   1  -1  -6 1673.52 273.197  15
  -1  -1   6 1619.54 256.028  14
   1   1  -6 1219.05 236.110   4
   1   1  -6 1784.43 281.094   5
   1   1  -6 1503.92 254.528  15
   1  -1  -6 1804.14 269.316  17
   1  -1  -6 1477.19 254.719  18
   1   1  -6 1585.51 262.769   2
   1  -1  -5 23382.1 959.237  15
  -1  -1   5 22453.5 888.870  14
   1   1  -5 21584.5 913.465  15
   1  -1  -5 23509.7 949.479  17
   1   1  -5 22409.3 960.608  18
   1  -1  -5 21374.3 923.819  18
   1  -1  -4 169037. 3964.27  17
   1   1  -4 163587. 3982.38  18
  -1  -1   4 168727. 3887.90  14
   1  -1  -4 171687. 3980.06  18
   1  -1  -3 232.633 59.3283   9
  -1   1   3 196.023 48.1461  10
   1  -1  -3 125.441 52.6804  17
   1  -1  -3 184.002 63.6441   1
   1  -1  -2 170599. 3904.72   1
   1  -1  -2 183431. 3917.64  17
   1  -1  -2 181444. 3869.80   9
  -1   1   1 447951. 9165.57  13
   1  -1  -1 414132. 9118.44   1
   1  -1  -1 468376. 9148.34  17
   1  -1  -1 449615. 9079.55   9
   1   1  -1 417021. 9112.30   1
   1   1  -1 419712. 9137.00  17
  -1  -1   0 1025.61 81.9878  19
   1   1   0 1104.76 85.4121   1
  -1   1   0 989.959 81.0619  19
   1   1   0 942.664 80.1974  14
   1  -1   0 1062.42 84.7187   1
   1   1   0 980.833 82.5587  20
   1  -1   0 949.396 78.8083  14
  -1  -1   0 1078.42 68.7307   9
  -1  -1  -1 36892.2 958.685   9
   1  -1   1 40385.6 1002.97  14
  -1   1  -1 36657.0 970.857  13
  -1  -1  -1 38044.1 1000.09  19
   1   1   1 40331.1 1002.93  14
  -1  -1  -2 1892.98 157.609  19
  -1  -1  -2 1888.39 164.745   9
  -1   1  -2 1873.87 145.827  13
  -1  -1  -3 99997.8 2208.88  19
  -1   1  -3 105212. 2112.11  13
  -1   1  -4 8914.75 399.823  13
  -1  -1  -4 9872.16 522.584  19
  -1  -1  -4 9593.02 527.845  17
  -1  -1  -5 6486.43 485.726  15
  -1  -1  -5 7507.95 524.790  19
  -1  -1  -5 6900.04 517.152  17
  -1  -1  -6 153.288 93.5615  15
  -1  -1  -6 232.281 115.964   4
  -1   1  -6 392.890 155.581  15
  -1   1  -6 155.212 94.7327   4
   1  -1   6 525.562 228.201  14
  -1  -1  -6 381.511 154.812  17
  -1   1  -7 10342.7 764.474  15
  -1  -1  -7 10651.0 758.268  15
  -1   1  -7 8883.39 727.955  17
   1   1   7 11605.6 852.038  14
  -1  -1  -7 10708.4 783.272  17
  -1  -1  -7 8899.23 675.657   4
   1  -1   7 11633.4 844.533  14
   1  -1   8 3569.45 424.722  11
  -1   1  -8 2801.18 400.477  15
  -1  -1  -8 3102.07 408.892  15
  -1  -1  -8 2352.33 353.435  18
  -1   1  -9 117244. 3225.99  15
  -1  -1  -9 111280. 3152.48  18
   1  -1   9 120606. 3148.77  11
   1   1  10 1203.44 163.372  11
   1  -1  10 1222.97 166.701  11
   1   2 -10 386.489 126.282  18
   1  -2 -10 252.980 108.793  18
   1  -2  -9 33597.1 1404.02   4
   1  -2  -9 33694.2 1403.83  18
   1   2  -9 34860.4 1436.08  18
   1   2  -8 7058.32 614.322  15
  -1   2   8 3803.19 611.292  14
   1  -2  -8 7193.09 649.283  17
   1  -2  -8 7285.89 620.009   4
   1   2  -8 6504.05 628.725  17
   1   2  -8 6721.64 627.730   4
   1  -2  -8 7400.73 600.818   5
   1  -2  -8 7616.39 633.340  18
   1   2  -8 6318.34 595.781  18
   1   2  -8 7191.37 641.532   5
  -1  -2   8 3781.23 562.154  14
   1   2  -7 6159.82 577.092  17
   1  -2  -7 6923.14 617.365   2
   1  -2  -7 6524.50 573.258   3
  -1   2   7 7938.85 673.332  14
   1   2  -7 6526.29 602.836   5
   1  -2  -7 6520.43 562.768   5
   1   2  -7 7206.39 615.611  18
   1  -2  -7 6580.73 582.242  17
   1  -2  -7 6090.14 557.372   4
   1   2  -7 6711.27 587.030  15
   1  -2  -7 6349.69 566.117  18
  -1  -2   7 8887.70 682.612  14
   1  -2  -6 59436.5 1950.31  18
   1  -2  -6 63454.3 2037.28  15
   1   2  -6 59980.9 1998.76  18
   1   2  -6 60423.3 1973.18  15
  -1   2   6 68237.2 2013.60  14
   1   2  -6 59450.4 2020.06   5
   1  -2  -6 62624.6 2045.00   2
   1  -2  -6 58697.1 1927.55   5
   1   2  -6 57531.6 1975.47  17
   1  -2  -6 57669.8 1932.05  17
   1   2  -6 62546.0 1993.86   2
  -1  -2   6 65976.2 1968.70  14
   1  -2  -6 55965.4 1922.93   3
   1  -2  -5 28578.4 1082.33  18
   1   2  -5 29182.7 1088.71  15
   1   2  -5 28586.9 1109.33  17
   1  -2  -5 27287.0 1102.47  15
  -1  -2   5 27507.8 1023.67  14
   1   2  -5 28885.6 1119.30  18
   1  -2  -5 28473.9 1076.89  17
  -1   2   5 28737.1 1055.77  14
  -1  -2   4 418.646 101.220  14
   1   2  -4 310.471 89.3128  18
  -1   2   4 437.410 99.2782  14
   1   2  -4 389.093 107.117  17
   1  -2  -4 516.948 114.484  17
   1  -2  -4 432.963 104.882  18
  -1   2   4 474.901 84.2603  10
   1  -2  -4 521.701 110.314   9
   1  -2  -4 499.374 117.698  15
  -1   2   3 1893.08 167.168  10
   1  -2  -3 2074.72 182.840  17
   1   2  -3 1860.13 181.249  17
   1  -2  -3 1580.44 165.042   9
  -1   2   2 903228. 19213.0  10
   1  -2  -2 893814. 19165.3   9
   1   2  -2 944546. 19166.2  17
   1  -2  -2 903814. 19147.8  17
   1  -2  -2 933211. 19152.7   1
   1   2  -2 932932. 19138.8   1
   1   2  -1 72448.7 1698.47  17
   1  -2  -1 75298.4 1695.67  17
   1  -2  -1 73891.3 1685.17   1
   1  -2  -1 78375.2 1726.73   9
   1   2  -1 72343.2 1671.42   1
  -1   2   0 336491. 7295.00  19
   1   2   0 346415. 7299.74   1
  -1  -2   0 353483. 7312.09   9
   1   2   0 356162. 7386.74  23
   1  -2   0 352016. 7309.62   1
  -1  -2   0 350986. 7297.24  19
   1   2   0 346044. 7304.80  14
   1  -2   0 344522. 7298.67  14
   1  -2   1 952473. 20351.0  14
  -1   2  -1 993004. 20374.2  19
  -1   2  -1 968755. 20445.5  13
   1   2   1 987261. 20362.3  14
  -1  -2  -1 999999. 20360.8  19
  -1  -2  -1 974340. 20392.1   9
  -1  -2  -2 15081.9 573.901   9
   1   2   2 15487.3 627.562  14
  -1   2  -2 15407.4 541.547  19
  -1  -2  -2 15277.5 532.069  19
  -1   2  -2 16891.5 573.613  13
  -1   2  -3 4666.32 273.867  13
  -1  -2  -3 4082.81 278.311  19
  -1  -2  -3 4237.35 308.291   9
  -1   2  -3 3689.43 273.603  19
  -1  -2  -3 4056.62 284.510  17
  -1   2  -3 4114.05 295.785  17
   1   2   3 3232.50 330.684  14
  -1  -2  -4 73.3973 66.9059  19
   1   2   4 289.253 152.722  14
  -1   2  -4 159.371 76.1672  17
   1  -2   4 81.2240 76.4517  14
  -1  -2  -4 173.549 86.0809  17
  -1  -2  -4 213.034 84.3696  15
  -1   2  -4 113.790 69.1468  19
  -1   2  -4 165.689 61.0392  13
  -1   2  -5 32842.6 1269.36  17
  -1   2  -5 33750.3 1255.38  19
  -1  -2  -5 31262.1 1238.61  17
  -1  -2  -5 31293.0 1180.64  15
  -1  -2  -5 32450.1 1226.53  19
  -1   2  -6 28571.7 1301.70  17
  -1  -2  -6 26071.7 1245.49  17
   1   2   6 26273.1 1317.49  14
  -1  -2  -6 27567.1 1198.53  15
   1  -2   6 27601.7 1340.48  14
  -1  -2  -6 26329.1 1150.89   4
   1   2   7 40562.6 1649.16  14
   1  -2   7 39501.0 1604.30  14
  -1   2  -7 33789.3 1536.60  17
  -1   2  -7 34986.9 1555.57  15
  -1  -2  -7 35843.1 1460.83   4
  -1  -2  -7 35660.5 1554.13  17
  -1  -2  -7 39125.8 1556.25  15
   1  -2   8 584.983 181.093  11
   1   2   8 388.256 149.383  11
  -1   2  -8 313.837 133.561  18
  -1  -2  -8 838.013 208.157  15
  -1  -2  -8 550.157 181.760  18
  -1   2  -8 359.594 155.280  15
  -1  -2  -9 2409.09 302.703  18
   1  -2   9 2568.21 303.464  11
  -1   2  -9 2424.46 320.227  15
  -1   2  -9 2525.82 315.846  18
   1   2   9 2429.71 302.765  11
   1  -2  10 208.363 69.3871  11
   1   2  10 155.165 63.1158  11
  -1   3  10 26915.3 937.298  11
   1  -3 -10 24483.3 933.465  18
   1   3 -10 23212.7 926.486  18
  -1  -3  10 26231.0 916.158  11
   1  -3  -9 9949.15 679.482   4
   1  -3  -9 11614.4 720.897  18
   1   3  -9 10809.1 709.502  18
   1   3  -8 18268.6 1007.62  18
   1  -3  -8 16331.6 950.355   4
   1   3  -8 16426.5 956.092  15
   1  -3  -8 17412.2 970.344  18
   1  -3  -8 17603.3 924.545   5
   1   3  -7 112804. 3398.73  17
  -1  -3   7 132005. 3592.08  14
  -1   3   7 127984. 3633.68  14
   1  -3  -7 112799. 3316.33   3
   1  -3  -7 115125. 3311.11  18
   1  -3  -7 116130. 3281.08   5
   1   3  -7 119056. 3362.35  15
   1  -3  -7 113175. 3327.35   4
   1   3  -7 116988. 3374.34  18
   1  -3  -7 115823. 3352.81  17
   1   3  -6 3512.21 384.038  15
   1   3  -6 3669.01 422.143   5
   1   3  -6 3121.05 362.957   2
   1  -3  -6 3003.35 376.339   2
   1  -3  -6 3290.43 364.020  18
   1  -3  -6 3032.29 350.350   5
   1  -3  -6 2196.60 306.986   3
  -1   3   6 3332.91 384.197  14
   1  -3  -6 2976.23 349.094  17
   1   3  -6 3069.31 366.547  18
  -1  -3   6 3621.70 369.307  14
   1   3  -6 2846.60 352.328  17
   1   3  -6 2763.83 361.456   4
   1   3  -5 1987.01 256.791  17
  -1  -3   5 2119.31 241.894  14
   1  -3  -5 1861.74 243.268  18
   1   3  -5 1668.35 240.226  18
  -1   3   5 2154.92 256.156  14
   1  -3  -5 1891.64 249.060   9
   1  -3  -5 1963.97 246.469  17
   1   3  -5 1794.19 242.105  15
  -1   3   4 256588. 5803.79  14
  -1  -3   4 256303. 5779.02  14
   1   3  -4 254637. 5882.11  17
  -1   3   4 262262. 5764.19  10
   1   3  -4 249892. 5865.60  18
   1  -3  -4 268401. 5916.15   9
   1  -3  -4 270249. 5848.47  17
   1   3  -4 262972. 5853.71  15
   1  -3  -4 259642. 5839.36  18
   1  -3  -3 25989.1 830.417  17
  -1   3   3 26575.5 825.425  14
  -1  -3   3 26310.4 813.451  14
  -1   3   3 25810.9 875.251  10
   1   3  -3 26682.9 855.177  17
   1  -3  -2 14365.9 494.049   1
   1   3  -2 13798.4 489.708  17
  -1   3   2 13553.9 564.299  10
   1  -3  -2 14898.5 548.970   9
   1  -3  -2 14360.3 482.291  17
   1   3  -2 13939.9 469.496   1
   1   3  -1 88954.3 1971.22   1
   1  -3  -1 90642.9 2109.70   9
   1  -3  -1 88472.5 1988.66  17
  -1   3   1 95389.7 2219.46  10
  -1  -3   1 88625.6 2044.77   9
   1  -3  -1 86548.4 1988.45   1
   1   3  -1 88537.4 2003.37  17
  -1  -3   0 188492. 4029.79  19
   1   3   0 189306. 4153.46  20
   1  -3   0 192351. 4026.35   1
   1   3   0 192211. 4155.42  23
   1   3   0 187559. 3997.83   1
  -1   3   0 182042. 4031.36  19
  -1  -3   0 183938. 4090.30   9
  -1   3   0 187457. 4000.68  20
   1  -3   1 39720.4 1012.04  14
  -1  -3  -1 40491.3 1107.94   9
  -1   3  -1 42641.4 1174.49  13
   1   3   1 40635.8 1118.18  23
  -1   3  -1 41658.3 1028.23  19
   1   3   1 39990.0 1013.35  14
  -1  -3  -1 39581.1 1002.33  19
  -1  -3  -2 14696.2 536.267  19
  -1  -3  -2 15982.8 629.723   9
   1   3   2 18886.6 637.042  14
  -1   3  -2 16717.5 628.534  13
   1  -3   2 17910.0 618.816  14
  -1   3  -2 15498.9 560.466  19
   1   3   3 188907. 4359.76  14
  -1   3  -3 185181. 4128.25  13
  -1  -3  -3 183332. 4271.71   9
  -1  -3  -3 184091. 4171.79  17
  -1  -3  -3 185647. 4145.51  19
  -1   3  -3 183536. 4185.91  17
  -1   3  -3 187950. 4174.51  19
  -1   3  -3 173804. 3976.80  10
   1  -3   4 1172.33 219.515  14
  -1  -3  -4 1359.99 201.190  17
  -1   3  -4 1467.39 213.674  19
  -1  -3  -4 1603.33 210.092  19
  -1   3  -4 1401.73 158.511  13
   1   3   4 1344.84 252.047  14
  -1  -3  -4 1173.01 197.822   9
  -1   3  -4 1646.81 222.942  17
  -1  -3  -4 1162.58 178.247  15
  -1  -3  -5 4592.23 406.832  15
  -1   3  -5 6110.52 503.656  17
   1   3   5 5082.10 530.017  14
  -1  -3  -5 4723.68 438.618  17
   1  -3   5 4588.79 464.708  14
  -1  -3  -6 70743.2 2243.82  15
   1  -3   6 74190.6 2374.89  14
  -1   3  -6 70919.6 2377.12  17
  -1  -3  -6 69209.4 2328.78  17
   1  -3   7 1909.03 312.248  14
   1   3   7 1534.21 309.481  14
  -1   3  -7 1439.83 287.350  17
  -1  -3  -7 1735.82 288.876  15
  -1  -3  -7 1759.41 305.883  17
   1   3   8 26575.8 1178.32  11
  -1  -3  -8 25202.2 1183.95  18
  -1   3  -8 24527.3 1175.84  18
   1  -3   8 28870.2 1179.98  11
   1   3   9 13704.9 698.108  11
  -1  -3  -9 12946.3 704.070  18
   1  -3   9 13716.7 677.182  11
  -1   3  -9 14446.9 733.060  18
  -1  -4  10 10679.0 445.937  11
   1   4  -9 23733.6 1031.53  18
   1  -4  -9 23334.9 1007.11  18
   1  -4  -9 25319.7 1077.04   4
   1   4  -8 4824.54 483.576  18
   1  -4  -8 4241.60 459.332   4
   1  -4  -8 4755.31 468.853  18
   1   4  -8 4630.20 475.126  15
   1   4  -7 29103.7 1361.20   5
   1   4  -7 30723.6 1280.83  18
   1   4  -7 27263.7 1238.52  15
   1   4  -7 27794.4 1260.49  17
   1  -4  -7 27406.8 1252.91   4
   1  -4  -7 29493.6 1269.94   3
   1  -4  -7 27660.5 1209.39  18
   1  -4  -7 28128.1 1239.32  17
  -1   4   7 19418.6 1253.42  14
  -1  -4   7 19057.5 1183.46  14
   1   4  -6 33830.6 1367.07  17
   1   4  -6 33846.9 1348.17  15
   1  -4  -6 30529.9 1273.92  18
   1   4  -6 35075.7 1359.58  18
   1   4  -6 31620.9 1277.63   7
  -1   4   6 44912.1 1561.39  14
   1  -4  -6 36854.1 1453.55   2
   1   4  -6 34342.7 1459.84   5
  -1  -4   6 41083.3 1450.95  14
   1  -4  -6 33674.1 1350.12   3
   1  -4  -6 34741.3 1349.99  17
   1   4  -5 43906.9 1467.46  15
   1   4  -5 42401.7 1443.57  18
  -1  -4   5 46633.8 1435.10  14
   1  -4  -5 41194.6 1413.03  18
  -1   4   5 48543.8 1494.63  14
   1  -4  -5 44926.9 1455.33  17
   1   4  -5 44271.5 1472.22  17
   1   4  -5 44399.3 1565.45   5
   1  -4  -5 43672.7 1526.07   9
   1   4  -5 39110.6 1486.39   4
   1  -4  -4 28410.2 1053.06   9
   1   4  -4 27392.5 963.124  15
   1  -4  -4 27340.3 939.321  17
   1   4  -4 25812.3 945.012  18
   1   4  -4 26005.5 963.868  17
  -1  -4   4 25722.9 891.041  14
   1  -4  -4 25828.4 921.169  18
  -1   4   4 28780.0 949.253  14
  -1  -4   3 6320.77 323.455  14
   1  -4  -3 7113.00 432.200   9
  -1   4   3 6747.42 341.694  14
   1  -4  -3 7262.06 358.609  17
   1   4  -3 7134.65 377.334  17
  -1   4   3 7553.38 433.567  10
   1  -4  -2 215668. 4666.58   9
  -1   4   2 208608. 4727.75  10
   1  -4  -2 203335. 4447.72  17
   1   4  -2 199010. 4464.92  17
  -1   4   1 189754. 4138.13  10
   1   4  -1 174042. 3753.34   1
  -1  -4   1 171722. 3757.40  19
   1  -4  -1 175998. 3778.90   1
   1  -4  -1 184013. 4046.26   9
  -1  -4   1 181770. 3952.31   9
  -1   4   1 176576. 3765.20  19
  -1   4   0 126.660 60.7699  10
  -1   4   0 220.384 44.3653  19
  -1  -4   0 123.034 48.8352   9
  -1  -4   0 282.996 40.9024  19
   1   4   0 142.018 59.1405  23
   1   4   0 119.376 53.3857  20
   1  -4   0 198.722 36.5243   1
   1   4   0 170.531 30.2218   1
  -1   4   0 138.566 39.6660  20
  -1   4  -1 238899. 5077.21  10
  -1  -4  -1 216409. 4800.94  19
  -1   4  -1 224199. 4827.46  19
   1   4   1 225952. 4818.44   1
   1   4   1 234240. 5090.00  20
   1  -4   1 223418. 4834.92   1
  -1  -4  -1 232270. 5048.51   9
   1  -4   1 223999. 4815.20  14
   1   4   1 233577. 5053.08  23
   1   4   1 225437. 4818.47  14
  -1  -4  -2 147515. 3350.98  19
   1  -4   2 158221. 3385.62  14
  -1  -4  -2 150332. 3563.92   9
  -1   4  -2 145074. 3367.14  19
  -1   4  -2 146479. 3379.91  17
  -1   4  -2 149924. 3461.87  10
  -1  -4  -2 145608. 3370.48  17
   1   4   2 157233. 3395.57  14
   1   4   3 130211. 2901.08  14
  -1   4  -3 105907. 2670.21  10
  -1   4  -3 115490. 2804.60  19
  -1  -4  -3 113916. 2777.37  19
  -1   4  -3 108004. 2789.33  17
  -1  -4  -3 116773. 2956.07   9
  -1  -4  -3 113551. 2799.02  17
   1  -4   3 133110. 2895.11  14
  -1   4  -4 262251. 6092.16  19
  -1  -4  -4 259286. 6091.07  17
  -1  -4  -4 251576. 6196.29   9
  -1   4  -4 260570. 6114.47  17
  -1  -4  -4 254525. 6010.39  15
  -1  -4  -5 8498.68 553.652  15
  -1  -4  -5 9124.74 610.786  17
   1  -4   5 9853.77 630.821  14
   1   4   5 9856.75 646.647  14
  -1   4  -5 8261.45 592.472  17
   1   4   6 5414.59 520.360  14
   1  -4   6 5108.75 472.649  14
  -1  -4  -6 5138.13 498.572  17
  -1  -4  -6 4509.79 433.255  15
  -1   4  -6 5538.57 520.163  17
  -1   4  -7 18281.5 981.140  18
   1   4   7 17911.3 964.340  14
  -1   4  -7 17891.0 1013.46  15
  -1   4  -7 16811.3 963.515  17
   1  -4   7 17227.5 903.935  14
  -1  -4  -7 17337.6 945.942  18
  -1  -4  -7 14846.3 901.443  17
   1  -4   7 18181.1 908.706  11
   1   4   7 19342.9 977.856  11
  -1  -4  -8 51311.7 1746.17  18
   1   4   8 51815.7 1722.48  11
  -1   4  -8 48435.3 1805.29  15
  -1   4  -8 53394.2 1771.60  18
   1  -4   8 50408.8 1661.36  11
  -1   4  -9 2326.39 249.135  18
  -1   4  -9 2229.86 277.686  15
  -1  -4  -9 1973.84 234.257  18
   1  -4   9 2532.75 244.076  11
   1   4   9 2146.99 258.029  21
   1   4   9 2565.64 249.412  11
  -1  -5   9 2480.38 245.682  11
   1  -5  -9 2101.86 264.588   4
   1  -5  -8 26038.2 1080.30  18
   1   5  -8 23864.1 1110.44  12
   1   5  -8 25754.1 1131.74  15
   1   5  -8 26844.1 1111.52  18
   1  -5  -8 25888.1 1156.18   4
   1   5  -7 21821.2 1059.95  15
   1   5  -7 21577.7 1087.42  12
   1   5  -7 21560.2 1012.37  18
   1  -5  -7 22434.6 1019.27  18
   1   5  -7 20401.9 993.119   7
   1  -5  -7 20550.7 1064.31   4
   1  -5  -7 23635.4 1094.70   3
  -1   5   6 16999.3 1029.37  14
  -1  -5   6 16773.0 979.530  14
   1   5  -6 21425.2 1033.52   7
   1  -5  -6 21349.3 957.158  18
   1   5  -6 23549.7 1145.70   5
   1   5  -6 21263.8 986.790  17
   1  -5  -6 22285.8 1024.56   3
   1   5  -6 22381.8 1022.00  15
   1  -5  -6 23193.2 1111.63   9
   1   5  -6 22205.3 986.255  18
   1  -5  -5 5128.29 430.540   3
   1   5  -5 4409.81 392.924  15
   1   5  -5 4511.31 382.258  18
   1   5  -5 5217.28 468.406   5
   1  -5  -5 4341.50 371.457  17
   1  -5  -5 4080.94 421.390   9
  -1   5   5 6081.00 481.932  14
   1   5  -5 4467.59 384.580  17
   1   5  -5 4678.41 442.870   7
  -1  -5   5 5811.43 436.883  14
   1  -5  -4 116007. 3063.22   9
  -1   5   4 124754. 2852.70  14
  -1  -5   4 116950. 2786.04  14
   1   5  -4 105735. 2816.65  15
   1   5  -4 110944. 2836.34  17
   1  -5  -4 108525. 2779.22  17
   1  -5  -3 81615.7 1975.11  17
  -1  -5   3 77779.5 1937.64  14
  -1   5   3 80834.1 1964.71  14
   1  -5  -3 82705.8 2277.00   9
  -1   5   3 80299.1 2220.42  10
   1   5  -3 80722.6 2001.54  17
  -1   5   3 79813.5 2059.55  16
   1   5  -2 6850.44 428.852  21
  -1   5   2 6839.96 270.129  14
  -1  -5   2 7236.96 417.848   9
  -1   5   2 7684.25 478.658  10
  -1   5   2 7161.57 422.391  21
   1   5  -2 6592.92 280.975  17
   1  -5  -2 7764.71 457.253   9
  -1  -5   2 6410.85 263.508  14
  -1   5   1 37.2469 60.6947  10
  -1  -5   1 53.6974 48.9213   9
   1   5   0 835.633 142.813  21
   1   5   0 1127.89 165.241  20
  -1   5   0 1172.91 176.028  10
  -1   5   0 1077.95 125.123  20
  -1  -5   0 1222.96 158.393   9
   1   5   1 61880.3 1412.80   1
  -1   5  -1 70532.7 1805.61  10
   1   5   1 69632.8 1740.63  23
   1   5   1 63996.1 1749.76  16
   1   5   1 65376.1 1796.06  20
  -1  -5  -1 67164.1 1777.03   9
  -1   5  -1 61598.4 1436.93  17
   1   5   1 63860.7 1752.55  21
  -1   5  -1 61444.0 1443.68  19
  -1   5  -2 70375.8 1704.96  17
   1   5   2 69290.2 1938.75  21
  -1  -5  -2 70826.1 1682.47  19
   1   5   2 68672.4 1669.41  14
  -1   5  -2 68583.4 1867.26  10
  -1  -5  -2 68954.5 1956.40   9
  -1   5  -2 68656.4 1697.99  19
   1   5   2 68139.1 1671.78   1
  -1  -5  -2 69986.5 1700.27  17
   1   5   2 74732.2 1917.47  23
   1   5   2 71385.9 1914.97  16
   1  -5   2 68641.9 1664.28  14
   1  -5   3 3810.53 267.706  14
  -1   5  -3 3309.03 252.428  10
  -1  -5  -3 3621.52 347.677   9
  -1   5  -3 4178.22 296.263  17
  -1  -5  -3 3020.20 254.170  17
   1   5   3 3656.20 318.137  16
   1   5   3 3332.02 255.732  14
  -1  -5  -4 17661.9 771.634  17
   1   5   4 15987.1 759.621  16
  -1   5  -4 16055.5 743.516  17
   1   5   4 17025.1 736.877  14
   1  -5   4 16485.3 716.582  14
  -1  -5  -4 16183.5 863.517   9
  -1  -5  -5 21040.3 1069.80   9
  -1  -5  -5 21178.0 963.053  17
   1  -5   5 23769.3 965.874  14
   1   5   5 22421.2 974.327  11
   1   5   5 21625.1 945.489  16
  -1   5  -5 21996.1 983.434  17
   1   5   5 23682.9 986.450  14
   1   5   6 138106. 3612.81  14
   1   5   6 143815. 3639.17  11
  -1   5  -6 131567. 3609.29  17
   1  -5   6 141594. 3574.30  11
   1   5   6 131164. 3488.25  16
   1  -5   7 2583.48 308.180  11
  -1   5  -7 2480.98 321.754  18
   1   5   7 2695.69 327.788  11
  -1  -5  -7 2541.26 320.345  18
  -1   5  -7 2938.19 385.736  15
  -1   5  -8 1618.38 266.198  15
   1  -5   8 1482.66 210.560  11
   1   5   8 1575.44 258.142  21
  -1   5  -8 1658.55 230.732  18
   1   5   8 1536.50 216.816  11
  -1   5  -9 3428.03 312.408  15
   1   5   9 3366.48 293.350  21
  -1   5  -9 3663.99 325.465  12
  -1   6   9 1793.74 235.911  21
   1  -6  -8 7643.07 543.233   4
   1   6  -8 6299.18 510.498  12
  -1   6   8 5896.00 512.298  21
   1  -6  -7 779.089 197.398   4
   1   6  -7 789.916 211.817  12
   1   6  -7 780.195 196.317   7
   1   6  -7 1045.60 205.602  15
   1   6  -6 45490.9 1729.28   7
   1   6  -6 46372.4 1770.17  12
   1  -6  -6 48238.5 1815.62   9
   1   6  -6 46761.5 1609.37  15
   1   6  -5 38549.3 1414.36   8
   1   6  -5 40128.9 1572.46  12
   1  -6  -5 40172.5 1571.51   9
   1   6  -5 38188.3 1524.42   7
   1   6  -4 1839.24 267.621   8
   1   6  -4 2035.81 313.836  12
   1  -6  -4 2401.16 329.640   9
   1   6  -4 1891.26 286.948   7
  -1   6   3 41178.6 1407.33  21
   1  -6  -3 42243.0 1494.63   9
  -1   6   3 40657.4 1449.79  10
  -1  -6   3 43607.3 1425.93   9
   1  -6  -2 2969.75 314.081   9
  -1  -6   2 2107.24 249.986   9
  -1   6   2 2615.54 274.728  21
  -1   6   2 2958.28 316.287  10
  -1   6   1 9316.01 524.560  21
  -1  -6   1 9385.00 521.250   9
   1   6  -1 9237.07 544.298  21
  -1   6   1 9250.98 459.657  20
   1   6  -1 9855.24 537.640  16
  -1   6   0 313.426 110.539  10
  -1   6   0 299.488 93.2774  21
   1   6   0 212.436 83.5523  21
  -1   6   0 446.026 93.9541  20
  -1  -6   0 310.637 98.9933   9
   1   6   1 2147.93 258.182  21
  -1   6  -1 1964.93 239.468  10
  -1   6  -1 2429.37 260.412  21
   1   6   1 2492.51 273.234  20
   1   6   1 2061.51 242.039  16
   1  -6   1 2250.64 260.977   9
  -1  -6  -1 2298.02 261.405   9
   1   6   1 2264.78 237.379  23
   1   6   2 26800.6 1056.84  21
   1   6   2 27900.3 1010.18  23
   1   6   2 30309.9 1131.01  20
  -1   6  -2 28344.7 1009.59  10
  -1  -6  -2 27236.5 1080.75   9
   1   6   2 26954.5 1043.16  16
   1   6   3 50708.9 1662.81  21
  -1  -6  -3 49201.1 1705.19   9
   1   6   3 50585.5 1606.18  16
   1   6   3 50725.7 1593.20  23
  -1  -6  -4 189969. 4943.74   9
   1   6   4 199768. 4918.55  21
   1   6   4 199443. 4813.85  23
   1   6   4 197593. 4780.51  16
   1   6   5 3209.47 353.954  16
   1   6   5 3791.18 408.344  23
  -1  -6  -5 3841.73 445.224   9
   1   6   6 1084.24 201.624  16
   1   6   6 1002.62 223.822  23
  -1   6  -7 3265.75 394.346  15
   1   6   7 3456.55 413.034  21
  -1   6  -8 47050.5 1634.03  12
   1   6   8 47185.4 1574.18  21
  -1   6  -8 47403.7 1592.27  15
  -1   6  -9 5217.61 350.558  12
  -1   7   8 10362.6 633.489  21
   1   7  -8 10382.0 623.669  12
   1  -7  -7 104098. 2929.25   4
   1   7  -7 102932. 3023.35  12
  -1   7   7 110490. 3053.18  21
   1   7  -7 102939. 2998.86   7
   1   7  -6 7619.26 635.044  12
   1  -7  -6 6780.02 617.439   9
  -1   7   6 6389.61 569.782  21
   1   7  -6 6677.58 596.667   7
  -1   7   5 68906.8 2203.51  21
   1   7  -5 67468.9 2267.02   7
   1  -7  -5 68630.2 2305.06   9
   1   7  -5 65063.1 2119.43   8
  -1  -7   5 64498.3 2049.83   9
   1   7  -5 67864.3 2309.35  12
   1   7  -4 49924.9 1855.72   7
   1   7  -4 58326.1 1996.78  12
  -1   7   4 54313.6 1823.57  21
  -1  -7   4 54536.8 1786.18   9
   1  -7  -4 56179.2 1955.17   9
   1   7  -4 51077.6 1822.89   8
   1   7  -3 16267.6 917.319  12
   1  -7  -3 16484.1 911.800   9
   1   7  -3 16804.4 889.615   7
  -1   7   3 17431.0 855.176  21
  -1  -7   3 18772.6 870.059   9
   1   7  -2 86.4965 93.9416  12
  -1   7   2 28.1741 64.9106  10
  -1   7   2 19.3081 44.4841  20
   1   7  -2 25.9705 73.2810   7
  -1  -7   2-23.2391 59.8604   9
  -1   7   2 46.6034 71.0187  21
  -1  -7   1 24573.8 1015.84   9
  -1   7   1 23484.9 972.011  21
  -1   7   1 23674.8 884.023  20
   1   7   0 1058.52 194.400  20
  -1   7   0 1099.21 153.414  20
  -1   7   0 1151.46 204.858  10
   1   7   0 1286.19 220.749  21
  -1  -7   0 1156.30 198.954   9
  -1   7   0 1149.46 201.239  21
   1   7   1 48127.2 1618.98  21
  -1   7  -1 46800.9 1575.64  10
   1   7   1 48442.5 1601.54  16
  -1   7  -1 51126.0 1601.99  21
  -1  -7  -1 51851.2 1678.33   9
   1  -7   1 47148.5 1615.61   9
   1   7   1 49332.4 1638.52  20
  -1   7  -2 16771.4 874.516  12
   1  -7   2 19227.1 908.537   9
  -1  -7  -2 18704.6 929.344   9
   1   7   2 18894.8 811.969  23
   1   7   2 17614.6 852.430  16
   1   7   2 18360.6 888.694  21
   1   7   2 19175.9 919.075  20
   1   7   3 18879.6 941.061  21
  -1   7  -3 18196.8 971.252  12
  -1  -7  -3 18838.4 986.893   9
   1   7   3 19172.0 912.283  16
   1   7   3 19905.7 981.339  20
   1   7   3 19921.4 871.888  23
   1   7   4 7558.45 541.130  23
   1   7   4 7618.26 612.685  20
   1   7   4 6939.75 570.171  21
  -1  -7  -4 7614.56 621.059   9
  -1   7  -4 6702.28 607.036  12
   1   7   4 8128.32 572.340  16
  -1   7  -5 37981.7 1646.18  12
   1   7   5 42920.4 1639.04  21
   1   7   5 41021.5 1482.22  16
  -1  -7  -5 39429.9 1645.36   9
   1   7   6 86348.2 2620.29  21
   1   7   6 80061.2 2331.93  16
  -1   7  -6 79367.4 2608.81  12
   1   7   7 19716.1 962.200  21
  -1   7  -7 17380.4 887.792   7
  -1   7  -7 17568.1 893.738  15
  -1   7  -8 17.6724 40.7158  15
   1   7   8-19.4741 59.3532  21
  -1   7  -8 22.1102 72.0401  12
   1   8  -8 2078.54 248.277  12
  -1   8   8 2212.52 259.213  21
   1   8  -7 197.614 107.932   7
   1   8  -7 199.162 122.699  12
  -1   8   7 189.193 107.928  21
   1   8  -6 701.368 198.645   7
   1   8  -6 1012.77 241.985  12
   1   8  -6 793.289 173.782   8
  -1   8   6 904.202 210.131  21
   1   8  -5 104993. 3191.93   7
   1   8  -5 109297. 3268.06  12
  -1   8   5 106841. 3092.95  21
   1  -8  -5 107815. 3253.08   9
   1   8  -5 107912. 3092.74   8
  -1   8   4 14760.5 826.972  20
  -1   8   4 15095.9 854.561  21
   1   8  -4 17275.8 1010.24  12
   1   8  -4 15100.0 895.829   8
   1  -8  -4 15227.2 950.233   9
  -1  -8   4 13112.3 778.607   9
   1   8  -3 38577.5 1549.79   8
  -1  -8   3 40748.1 1491.83   9
   1   8  -3 40770.9 1644.14  12
   1  -8  -3 40977.0 1634.61   9
  -1   8   3 38563.4 1481.16  21
  -1   8   3 36888.0 1387.12  20
   1   8  -3 40517.7 1576.01   7
  -1  -8   2 86296.9 2495.83   9
  -1   8   2 80692.9 2306.03  20
  -1   8   2 84931.5 2467.33  21
   1   8  -2 78160.9 2478.49   7
  -1  -8   1 4510.52 431.443   9
   1   8  -1 4050.82 407.672   7
  -1   8   1 3719.13 379.825  21
  -1   8   1 3025.81 301.041  20
   1   8   0 2020.60 290.238   8
   1   8   0 2129.54 283.872   7
   1  -8   0 2429.15 326.634   9
  -1   8   0 2367.45 304.684  21
  -1   8   0 2318.20 312.680  12
   1   8   0 2190.74 299.135  20
  -1  -8   0 2293.33 313.181   9
  -1  -8  -1 68685.3 2210.95   9
   1   8   1 68829.5 2159.08  20
   1   8   1 69077.4 2153.78  16
   1   8   1 67005.0 2150.22  21
   1   8   1 63067.3 2029.00   8
   1  -8   1 68304.6 2145.52   9
  -1   8  -1 65303.9 2126.84  12
  -1   8  -1 72131.2 2129.81  21
  -1   8  -2 985.669 213.433  12
   1   8   2 741.483 187.747  21
   1   8   2 997.294 215.136  20
   1   8   2 940.367 210.734  16
  -1  -8  -2 779.128 198.463   9
   1  -8   2 407.787 139.171   9
   1   8   3 118249. 3336.58  21
  -1  -8  -3 125142. 3475.96   9
   1   8   3 121846. 3388.97  20
  -1   8  -3 118124. 3399.08  12
   1  -8   3 118704. 3357.99   9
   1   8   3 117548. 3286.01  16
  -1   8  -4 37794.9 1584.21  12
   1   8   4 36594.5 1427.72  16
   1   8   4 33956.2 1492.76  20
   1   8   4 38844.9 1534.06  21
  -1  -8  -4 35437.0 1547.20   9
   1  -8   4 37068.9 1505.15   9
  -1   8  -5 17035.8 1011.11  12
  -1  -8  -5 15176.2 964.765   9
   1   8   5 17697.2 889.340  16
   1   8   5 18846.8 1046.53  20
   1   8   5 17056.1 965.874  21
  -1   8  -6 10542.0 734.045  12
   1   8   6 9950.60 697.703  21
  -1   8  -6 9820.10 696.321   7
  -1   8  -6 9769.48 641.067  15
  -1   8  -7 5577.76 447.658   7
   1   8   7 5728.59 464.932  21
  -1   8  -8 1514.34 200.105  12
   1   9  -7 51138.4 1666.68  12
  -1   9   7 49499.9 1624.35  21
   1   9  -7 53051.5 1682.41   7
   1   9  -6 2967.91 315.377   8
  -1   9   6 3385.40 382.186  21
   1   9  -6 3497.15 408.770   7
   1   9  -6 3480.61 415.121  12
   1   9  -5 22473.2 1174.10  12
  -1   9   5 20618.6 1038.28  21
   1   9  -5 20408.4 1041.96   8
   1   9  -4 43634.2 1693.10   8
  -1   9   4 36800.8 1470.90  20
   1  -9  -4 39993.4 1710.60   9
   1   9  -4 42963.9 1765.84  12
  -1   9   4 41449.7 1585.34  21
   1   9  -4 40288.2 1653.29   7
  -1   9   3 45894.1 1683.01  21
   1   9  -3 44835.9 1760.56   7
   1   9  -3 50113.2 1910.13  12
  -1   9   3 41028.7 1529.30  20
   1  -9  -3 41523.8 1762.44   9
   1   9  -3 45693.5 1775.02   8
  -1  -9   3 47071.2 1686.37   9
  -1   9   2 1217.22 245.147  21
   1   9  -2 1085.65 243.366   8
   1   9  -2 1179.46 257.117   7
  -1  -9   2 1455.14 269.794   9
  -1   9   1 47032.4 1683.41  21
   1   9  -1 41555.1 1633.39   7
  -1  -9   1 48325.1 1741.64   9
   1   9  -1 43173.4 1682.83   8
   1   9   0 1195.49 239.025   8
  -1   9   0 1225.09 244.736  21
  -1  -9   0 1472.00 277.228   9
   1  -9   0 1392.26 272.224   9
   1   9   0 1075.71 217.820   7
   1   9   1 2413.90 326.242   8
  -1   9  -1 2841.42 361.228   7
   1   9   1 2668.35 355.104  20
  -1   9  -1 2474.61 356.947  12
  -1   9  -1 3581.06 399.242  21
   1  -9   1 2419.71 353.825   9
  -1  -9  -1 3129.18 415.499   9
   1  -9   2 5328.01 504.607   9
  -1   9  -2 5348.03 519.410  12
   1   9   2 4953.22 498.405  20
  -1  -9  -2 4674.29 512.957   9
   1   9   2 5325.43 508.469  16
  -1   9  -3 63564.0 2220.60  12
  -1  -9  -3 60587.6 2244.46   9
   1   9   3 67626.5 2228.28  20
   1  -9   3 63880.3 2164.83   9
   1   9   3 65501.8 2196.23  21
   1   9   3 68083.7 2180.26  16
  -1   9  -4 2181.86 355.859  12
   1   9   4 2057.63 329.097  20
   1   9   4 1778.49 306.693  21
  -1  -9  -4 1611.05 308.442   9
   1  -9   4 1438.73 268.993   9
   1   9   4 2206.43 322.575  16
   1   9   5 38998.3 1533.24  21
  -1   9  -5 37736.5 1561.09  12
  -1   9  -5 37776.5 1399.95   8
  -1   9  -6 2609.15 334.671  12
  -1   9  -6 2671.32 336.768   7
   1   9   6 2341.98 311.738  21
  -1   9  -7 30800.9 1099.02   7
   1   9   7 31619.2 1113.59  21
  -1  10   7 10771.3 550.817  21
   1  10  -7 11767.0 581.031   7
   1  10  -6 1268.08 227.560   7
   1  10  -6 1533.54 257.218  12
  -1  10   6 1464.84 230.685  21
   1  10  -5 12045.0 809.521  12
  -1  10   5 11639.4 716.987  21
   1  10  -5 11851.7 726.493   8
  -1  10   4 1984.99 318.809  21
   1  10  -4 1465.62 293.568   7
   1  10  -4 1712.81 326.607  12
   1  10  -4 2225.05 344.219   8
   1  10  -3 12215.7 832.729   7
   1  10  -3 11145.1 794.455   8
   1 -10  -3 11278.3 836.510   9
  -1  10   3 12365.4 783.511  21
   1  10  -2 18694.3 1047.67   8
   1  10  -2 18290.3 1026.68   7
  -1  10   2 18729.6 993.608  21
  -1 -10   2 18011.9 998.531   9
   1  10  -1 51344.8 1859.27   7
  -1  10   1 53582.2 1877.80  21
   1 -10  -1 49291.1 1926.90   9
   1  10  -1 47761.2 1869.85   8
  -1 -10   1 54706.2 1952.02   9
   1  10   0 170.937 118.159   8
   1  10   0 142.906 98.7870   7
  -1 -10   0 115.706 99.3614   9
   1 -10   0 256.625 126.706   9
  -1  10   0-32.0765 82.6413  21
  -1 -10  -1 58639.8 2116.01   9
   1  10   1 57903.3 1968.90   8
   1 -10   1 56899.8 2044.38   9
  -1  10  -1 58327.6 1946.12   7
  -1  10  -2 32385.7 1383.72   7
  -1  10  -2 33016.9 1424.03  12
   1 -10   2 30248.4 1360.57   9
  -1 -10  -2 29812.2 1426.40   9
   1  10   2 31125.7 1352.58  20
  -1  10  -3 4294.23 471.491   7
  -1  10  -3 4406.88 482.016  12
   1  10   3 4149.34 460.929  21
   1  10   4 20528.9 1050.01  21
  -1  10  -4 22802.1 1131.37  12
  -1  10  -4 22238.0 1092.95   7
  -1  10  -5 52326.0 1673.70   8
  -1  10  -5 52300.1 1832.76  12
  -1  10  -5 52838.8 1800.51   7
   1  10   5 56040.1 1839.71  21
   1  10   6 3871.05 355.383  21
  -1  10  -6 3359.62 343.999  12
  -1  10  -7 46464.9 1340.94  12
  -1  10  -7 45358.1 1283.99   7
  -1  11   6 8311.27 477.502  21
   1  11  -5 26858.3 1125.63   7
  -1  11   5 26393.8 1058.75  21
   1  11  -5 27442.5 1073.72   8
   1  11  -4 185.158 117.966   7
  -1  11   4 158.172 100.793  21
   1  11  -4 237.124 123.171   8
   1  11  -3 23581.0 1155.87   7
  -1  11   3 23609.4 1084.62  21
  -1  11   2 388.544 136.811   8
  -1  11   2 122.430 117.022  21
   1  11  -2 201.730 134.239   7
   1  11  -2 174.347 139.216   8
   1  11  -1 34870.8 1406.40   7
   1  11  -1 34104.7 1478.10   8
  -1  11   1 36628.5 1448.48  21
   1  11   0 22362.8 1124.32   8
  -1  11  -1 2820.49 336.552   7
   1  11   1 2379.95 329.469   8
  -1  11  -2 27396.5 1192.37   7
  -1  11  -3 5517.79 492.963   7
  -1  11  -3 5615.99 519.634  12
  -1  11  -4 10352.4 655.347   7
  -1  11  -4 10615.7 685.605  12
   1  11   4 10587.1 668.376  21
  -1  11  -4 10292.9 632.144   8
  -1  11  -5 403.808 122.850   7
  -1  11  -5 619.560 158.939  12
   1  11   5 541.681 137.102  21
   1  12  -5 377.620 92.8407   8
   1  12  -5 330.314 100.401   7
  -1  12   4 932.647 167.139  21
   1  12  -4 1044.85 196.778   7
   1  12  -4 891.739 178.237   8
  -1  12   3 8862.16 560.550  21
   1  12  -3 8297.98 580.101   7
  -1  12   2 51430.9 1695.21  21
   1  12  -2 51911.6 1720.45   7
   1  12  -2 53265.3 1803.99   8
  -1  12   2 48441.3 1540.50   8
   1  12  -1 19290.2 876.390   7
  -1  12   1 20655.6 947.529   8
   1  12  -1 19585.1 999.690   8
  -1  12   0 53732.7 1821.54   8
   1  12   0 51665.1 1799.13   8
  -1  12  -1 11848.5 738.118   8
   1  12   1 13067.2 703.560   8
  -1  12  -2 6464.62 512.460   8
  -1  12  -2 6318.37 456.719   7
  -1  12  -3 23.2073 70.7476   8
  -1  12  -3 149.273 85.1100   7
  -1  12  -4 4832.98 362.066   8
   1  12   4 4573.52 372.387  21
  -1  12  -4 4805.01 367.129   7
  -1  12  -5 5088.93 322.041   7
   1  13  -4 44802.7 1289.28   7
   1  13  -4 47855.2 1313.11   8
   1  13  -3 1286.11 174.562   7
   1  13  -2 31095.5 1025.14   7
   1  13  -2 32642.0 1170.93   8
  -1  13   1 1328.41 184.104   8
   1  13  -1 1613.61 229.378   8
  -1  13   0 24266.7 964.016   8
   1  13   0 23401.9 933.060   8
  -1  13  -1 1984.79 254.891   8
  -1  13  -2 12369.6 622.953   8
  -1  13  -3 1764.30 169.753   7
  -1  13  -3 2192.28 222.847   8
   1  14  -2 39375.6 1102.36   8
   1  14  -1 1586.84 162.329   8
  -1  14   0 21715.1 689.793   8
  -1  14  -1 4016.90 259.918   8
  -2   0  11-26.5135 41.9801  11
   2   0 -10 1455.59 236.260  18
   2   0  -9 140.627 99.2424   4
   2   0  -9 303.720 140.193   5
   2   0  -9 69.1058 89.0484  18
   2   0  -8 103361. 3195.70   2
   2   0  -8 104261. 3237.57  18
   2   0  -8 107675. 3224.35   5
   2   0  -8 101423. 3253.91  17
  -2   0   7-32.6189 75.1513  14
   2   0  -7 100.694 94.7093   2
   2   0  -7 36.8284 59.9979  17
   2   0  -7-35.2088 90.6928  18
   2   0  -7 66.7898 101.781   5
   2   0  -6 3814.82 410.605   4
  -2   0   6 3949.64 396.523  14
   2   0  -6 3262.95 373.628   2
   2   0  -6 3647.33 409.771  17
   2   0  -6 3479.38 382.201   5
   2   0  -6 3419.73 385.640  18
   2   0  -5 21.2985 49.0698  15
   2   0  -5 121.062 83.6747  18
   2   0  -5-25.0059 49.8929  17
   2   0  -4 145775. 3529.78   1
   2   0  -4 144714. 3581.68  18
   2   0  -4 152428. 3623.06  17
   2   0  -3-12.4412 40.5372   1
   2   0  -3-13.8704 42.2749  17
  -2   0   2 13546.8 480.553  13
   2   0  -2 12672.5 523.232  17
   2   0  -2 13062.2 515.444   1
   2   0  -1 86.8326 44.4638   1
  -2   0   1 8.32756 31.8264  13
   2   0  -1 52.5123 46.8636  17
   2   0   0 29487.2 879.351  14
  -2   0   0 31916.0 900.492  19
  -2   0   0 30161.4 886.075  13
   2   0   0 30846.6 842.310  23
   2   0   0 30897.0 892.723   1
   2   0   1 105.501 52.9857  14
  -2   0  -1 104.758 73.1491  19
   2   0   1 36.4312 24.0056  20
   2   0   2 131146. 3186.83  14
  -2   0  -2 137287. 3186.50  19
  -2   0  -3-15.3095 39.4354  13
   2   0   3 18.5687 60.5013  14
  -2   0  -3 114.296 65.1569  19
   2   0   4 175.665 112.058  14
  -2   0  -4 252.727 88.3487  13
  -2   0  -4 231.761 90.9323  19
  -2   0  -5 144.730 88.2217  17
  -2   0  -5-27.6527 55.1745  19
  -2   0  -5 20.6819 41.2661  13
   2   0   5 122.779 111.815  11
   2   0   5 93.0207 107.156  14
   2   0   6 38295.4 1513.17  14
   2   0   6 37156.9 1501.02  11
  -2   0  -6 30995.6 1410.31  19
  -2   0  -6 35910.3 1496.88  15
  -2   0  -6 31407.3 1446.99  17
   2   0   7 33.6439 86.6622  11
  -2   0  -7 36.9850 73.7947  15
  -2   0  -7-39.8691 79.5491  17
  -2   0  -8 57602.2 1979.09  15
   2   0   8 55454.6 1886.60  11
  -2   0  -9 21.4920 65.5062  15
  -2   0  -9 68.0444 73.9041  18
   2   0   9 19.3750 59.0544  11
   2  -1 -10 39094.1 1397.17   4
   2   1 -10 36824.9 1353.53  18
   2  -1 -10 36977.7 1352.73  18
   2  -1  -9 1032.82 232.775   5
   2  -1  -9 868.158 216.053   4
   2  -1  -9 778.123 210.519  18
   2   1  -9 615.095 189.504   5
   2  -1  -8 74.5648 113.630   2
   2  -1  -8 113.412 106.672   4
  -2  -1   8 38.9669 148.878  14
  -2   1   8-39.8924 229.772  14
   2   1  -8 37.5554 96.7380   5
   2  -1  -8 37.1447 95.6802  18
   2  -1  -8 143.119 116.579   5
   2  -1  -8-39.0268 100.528  17
   2   1  -8 121.121 123.051  17
   2  -1  -7 3930.10 458.073   4
  -2  -1   7 4184.97 446.643  14
   2   1  -7 3381.01 425.330   3
   2  -1  -7 2783.63 378.812  18
   2  -1  -7 4022.22 439.201   5
   2   1  -7 3846.25 443.298   5
   2   1  -7 3561.11 431.196   2
   2  -1  -7 3996.61 447.401   3
   2  -1  -7 3475.47 422.061   2
   2  -1  -7 3496.06 431.953  17
  -2   1   7 4106.50 450.804  14
   2   1  -7 3158.97 419.058   4
   2   1  -7 3771.64 459.721  17
   2   1  -6 201212. 4854.01   4
   2   1  -6 193498. 4758.66  15
   2  -1  -6 189377. 4794.08   2
  -2  -1   6 201234. 4766.96  14
   2  -1  -6 184662. 4742.98   5
   2   1  -6 190107. 4762.70   2
   2   1  -6 192085. 4819.37   5
   2  -1  -6 186773. 4791.71  18
   2   1  -6 192055. 4806.66   3
   2  -1  -6 189265. 4833.37  17
   2  -1  -6 188086. 4774.47   3
   2   1  -5 7243.56 483.432  15
   2  -1  -5 7679.56 528.934  17
   2  -1  -5 8095.07 535.957  18
   2   1  -5 6462.06 496.907  18
   2   1  -4 14164.4 630.371  15
   2  -1  -4 14978.8 689.122  17
  -2   1   4 15037.5 577.910  10
   2  -1  -4 14935.9 660.458   1
   2   1  -4 13881.2 671.307  18
   2  -1  -4 14464.2 674.710  18
   2  -1  -3 52642.2 1433.13   1
   2  -1  -3 55987.0 1471.77  17
   2  -1  -3 53438.7 1268.44   9
  -2   1   2 12169.3 490.487  13
   2  -1  -2 12050.8 369.704   9
  -2  -1   2 12076.3 421.966  13
   2  -1  -2 12523.9 506.037  17
   2  -1  -2 12509.6 494.497   1
  -2   1   1 27246.6 848.853  13
   2   1  -1 26865.7 828.814   1
   2  -1  -1 27393.5 830.971   1
   2  -1  -1 27844.5 680.875   9
   2  -1   0 127892. 2927.91   1
   2  -1   0 127886. 2917.70  14
   2   1   0 118178. 2917.76   1
   2   1   0 133646. 2866.04  20
  -2  -1   0 132738. 2944.51  19
   2   1   0 127929. 2927.42  23
   2  -1   0 123790. 2806.50  23
  -2   1   0 132029. 2966.71  13
   2   1   1 1420.32 129.134  20
   2  -1   1 1470.36 155.267  14
   2   1   1 1415.35 151.860   1
   2  -1   1 1282.49 146.430   1
  -2   1  -2 522.456 105.841  13
  -2  -1  -2 650.202 119.843  19
   2  -1   2 409.094 94.8302  14
   2  -1   3 4179.21 342.895  14
  -2   1  -3 4155.90 311.300  13
  -2  -1  -3 4165.85 322.121  19
  -2   1  -4 71160.1 1990.11  13
  -2  -1  -4 67905.7 2073.64  17
  -2  -1  -4 69540.0 2058.02  19
  -2  -1  -5 328.722 126.312  15
   2  -1   5 296.678 149.044  14
  -2   1  -5 203.216 84.5352  13
  -2  -1  -5 131.978 84.1709  13
  -2  -1  -5 232.754 111.257  17
   2   1   5 245.407 127.497  11
  -2  -1  -5 333.576 128.175  19
   2  -1   5 237.952 132.786  11
   2  -1   6 9034.08 670.598  14
  -2  -1  -6 8004.30 627.732  15
  -2  -1  -6 7504.80 643.567  17
   2  -1   6 8051.32 630.008  11
   2   1   6 8299.50 648.988  14
  -2  -1  -6 8676.19 662.588  19
  -2   1  -6 7961.58 662.809  17
   2   1   7 36788.7 1517.76  14
   2  -1   7 35366.8 1481.76  14
  -2  -1  -7 36992.8 1615.75  17
   2  -1   7 37767.0 1516.70  11
  -2  -1  -7 39308.6 1578.92  15
  -2   1  -7 36349.8 1601.94  17
  -2   1  -7 39373.2 1630.95  15
  -2   1  -8 12612.3 808.583  15
  -2  -1  -8 11917.8 753.106  15
   2  -1   8 12162.2 736.740  11
  -2   1  -9 2253.59 277.834  15
  -2   1  -9 2277.75 278.609  18
   2  -1   9 2299.67 257.353  11
  -2  -1  -9 1698.26 242.241  18
   2  -2 -10 2624.53 299.901  18
   2   2 -10 2078.07 273.129  18
   2  -2 -10 2125.75 280.014   4
   2  -2  -9 21221.3 1066.25  18
   2   2  -9 20604.7 1082.84   5
   2   2  -9 21441.5 1088.39  18
   2  -2  -9 21008.4 1024.40   5
   2  -2  -9 22757.0 1126.38   4
   2  -2  -8 77872.1 2638.10  17
  -2   2   8 101617. 2929.95  14
  -2  -2   8 97286.1 2850.78  14
   2  -2  -8 86369.8 2736.37   4
   2   2  -8 80644.5 2621.59   2
   2  -2  -8 83716.3 2686.61   2
   2  -2  -8 80556.1 2591.64   5
   2   2  -8 79743.6 2704.25  17
   2  -2  -8 82567.6 2674.49   3
   2   2  -8 81883.0 2685.08  18
   2   2  -8 81888.3 2704.57   5
   2   2  -8 78846.8 2680.06   4
   2  -2  -8 79553.4 2622.67  18
   2   2  -7 2327.99 336.259  15
   2  -2  -7 1964.60 333.905   4
   2   2  -7 1516.95 286.985   4
  -2  -2   7 2207.36 318.939  14
  -2   2   7 1634.55 286.834  14
   2  -2  -7 1613.28 299.293  17
   2   2  -7 2073.39 314.532   2
   2  -2  -7 1971.14 321.928  18
   2  -2  -7 2066.45 334.097   2
   2   2  -7 1811.42 318.747  17
   2  -2  -7 1819.24 307.926   3
   2   2  -7 1868.54 325.511  18
   2  -2  -7 1472.07 273.537   5
   2   2  -6 2733.82 324.619  15
   2  -2  -6 2681.54 341.694  17
  -2  -2   6 2871.78 331.647  14
   2  -2  -6 2476.23 328.255   3
   2   2  -6 1991.06 299.951   3
   2  -2  -6 2749.49 343.259  18
   2   2  -6 2689.93 359.374  18
  -2   2   6 2311.12 304.265  14
   2  -2  -6 2323.65 310.885   5
   2   2  -6 2713.05 346.201   4
   2   2  -6 2636.62 332.458   2
   2   2  -6 2511.86 347.471  17
   2  -2  -6 2297.15 327.149   2
   2   2  -5 35853.4 1265.42  15
  -2   2   5 38765.0 1316.73  14
  -2  -2   5 37994.9 1290.97  14
   2  -2  -5 36636.5 1315.51  18
   2   2  -5 37145.9 1349.44  18
   2  -2  -5 38261.0 1344.48  17
   2   2  -5 35797.3 1350.09  17
  -2   2   4 35113.0 1097.18  10
   2  -2  -4 35617.0 1159.65   1
   2  -2  -4 35003.7 1051.72   9
   2  -2  -4 32866.9 1135.66  18
   2   2  -4 33930.8 1129.94   1
   2  -2  -4 34160.7 1160.65  17
   2   2  -4 33254.8 1168.30  17
   2   2  -4 33335.8 1160.45  18
   2   2  -3 86062.1 2120.59   1
   2  -2  -3 86626.8 2149.68   1
   2  -2  -3 84900.4 2049.20   9
   2  -2  -3 87855.3 2165.37  17
   2   2  -3 81202.8 2164.00  17
  -2   2   2 43867.7 1208.74  13
  -2  -2   2 38891.9 912.354   9
   2  -2  -2 42990.1 1178.54  17
   2  -2  -2 44218.9 1081.31   9
   2   2  -2 42875.7 1200.72  17
   2   2  -2 43090.7 1147.22   1
   2  -2  -2 43416.4 1169.29   1
  -2   2   1 87373.9 2071.97  13
   2  -2  -1 83095.0 1988.87   1
   2   2  -1 87105.5 1977.53   1
   2  -2  -1 83955.4 1889.49   9
  -2   2   0 2551.64 223.361  13
   2  -2   0 2320.89 186.722   1
  -2   2   0 2322.91 188.233  19
  -2  -2   0 2464.38 192.978  19
   2   2   0 2586.98 195.501  20
   2  -2   0 2150.85 116.463  23
  -2  -2   0 2390.60 143.898   9
   2   2   0 2219.62 180.460   1
   2   2   1 107056. 2457.86   1
   2   2   1 107691. 2445.51  20
   2  -2   1 106375. 2445.63  14
  -2  -2  -1 107999. 2402.84   9
   2  -2   1 106705. 2467.30   1
  -2   2  -1 112971. 2568.66  13
  -2   2  -1 84298.0 2479.62  19
   2   2   1 108081. 2451.42  14
  -2   2  -2 534544. 11468.0  13
  -2   2  -2 528951. 11408.5  19
  -2  -2  -2 532132. 11380.0  19
   2   2   2 527452. 11422.8  14
   2  -2   2 542373. 11409.9  14
  -2  -2  -3 34562.9 1171.57  19
   2   2   3 40220.3 1264.99  14
   2  -2   3 38865.6 1230.68  14
  -2   2  -3 37485.9 1206.89  13
  -2   2  -3 34818.6 1182.49  19
   2   2   4 12038.0 670.935  14
   2  -2   4 11426.2 640.115  14
  -2  -2  -4 9555.23 593.241  17
  -2   2  -4 10845.2 572.921  13
  -2   2  -4 10355.9 601.444  19
  -2  -2  -4 9637.52 580.294  19
  -2   2  -4 9744.74 597.314  17
  -2  -2  -4 11001.5 591.880  15
  -2  -2  -5 129942. 3536.22  19
   2   2   5 145303. 3654.24  14
   2  -2   5 138396. 3588.52  14
  -2   2  -5 126864. 3532.42  19
   2  -2   5 137861. 3587.74  11
   2   2   5 139604. 3628.32  11
  -2  -2  -5 124669. 3546.84  17
  -2   2  -5 122318. 3552.65  17
  -2  -2  -5 135425. 3495.84  15
   2   2   6 8590.28 663.800  14
   2  -2   6 9643.25 681.509  14
   2   2   6 8687.53 661.527  11
   2  -2   6 8724.59 649.512  11
  -2  -2  -6 7962.12 673.798  17
  -2   2  -6 8540.86 686.696  17
  -2  -2  -6 9091.36 644.327  15
  -2  -2  -7 28850.3 1265.12  15
   2   2   7 28500.5 1283.05  11
   2  -2   7 28665.4 1255.64  11
  -2   2  -7 28213.9 1358.99  15
  -2  -2  -8 13636.1 766.942  15
   2   2   8 13859.3 779.864  11
   2  -2   8 12951.9 742.834  11
  -2   2  -8 14319.0 858.611  15
  -2   2  -9 18053.4 819.642  15
   2   2   9 17283.7 738.111  11
   2  -2   9 17161.0 722.855  11
  -2  -2  -9 17415.9 784.818  18
  -2   2  -9 16999.6 772.048  18
   2   3 -10 2215.89 257.631  18
   2  -3 -10 2799.46 296.321   4
   2  -3 -10 2320.19 257.585  18
   2  -3  -9 20440.4 1007.16  18
   2   3  -9 22436.4 1065.88  18
   2  -3  -9 19874.3 936.685   5
   2  -3  -9 21437.2 1065.96   4
   2  -3  -8 32647.0 1433.71   4
   2   3  -8 30597.7 1387.73   4
   2  -3  -8 28749.9 1346.61   3
   2  -3  -8 28121.0 1267.18   5
   2  -3  -8 29904.9 1329.73  18
   2   3  -8 32062.7 1407.99  18
   2   3  -7 25187.4 1159.71  15
   2  -3  -7 26155.7 1232.75   3
   2  -3  -7 25745.1 1211.33  17
  -2   3   7 27654.3 1233.19  14
   2  -3  -7 25095.9 1185.39  18
  -2  -3   7 27852.6 1217.26  14
   2  -3  -7 26325.1 1188.78   5
   2   3  -7 25707.5 1195.00   2
   2   3  -7 27326.2 1294.06   5
   2   3  -7 25169.1 1222.88  18
   2   3  -7 26922.1 1264.89   4
   2  -3  -7 26805.4 1255.96   2
   2   3  -7 24444.9 1231.96  17
   2   3  -6 50476.8 1686.03  15
  -2   3   6 51580.3 1718.75  14
  -2  -3   6 51272.7 1691.10  14
   2  -3  -6 50770.6 1745.68  17
   2   3  -6 51091.5 1802.16  17
   2  -3  -6 51281.5 1767.79   3
   2   3  -6 47510.0 1685.24   2
   2   3  -6 47677.7 1744.82  18
   2   3  -6 51161.5 1812.14   5
   2  -3  -6 53369.1 1796.20   2
   2  -3  -6 48435.8 1692.83   5
   2  -3  -6 50086.4 1719.78  18
   2   3  -6 46959.2 1738.83   4
   2   3  -5 67940.2 1993.60  15
  -2   3   5 74706.3 2058.63  14
  -2  -3   5 71394.7 2019.21  14
  -2   3   5 68669.4 1900.07  10
   2   3  -5 69399.2 2111.15   5
   2  -3  -5 71538.9 1999.54   9
   2  -3  -5 68180.5 2078.13   3
   2  -3  -5 72601.2 2075.01  18
   2   3  -5 68079.7 2076.77  18
   2  -3  -5 67991.5 2061.83  17
   2   3  -5 71307.4 2124.39  17
   2  -3  -4 1180.90 181.677   1
  -2   3   4 989.162 164.589  10
   2  -3  -4 1187.48 173.448   9
   2  -3  -4 1229.13 180.806  18
   2   3  -4 809.486 156.403  18
   2   3  -4 1068.83 181.290  17
   2  -3  -4 1069.73 166.794  17
   2  -3  -3 580046. 11905.7   9
   2   3  -3 548896. 11879.7   1
   2  -3  -3 554195. 11922.0   1
  -2   3   3 555039. 12065.9  10
   2   3  -3 542798. 11945.9  17
   2  -3  -3 567541. 11922.6  17
  -2  -3   2 56356.3 1400.63   9
   2  -3  -2 59979.1 1559.33   9
   2   3  -2 60991.4 1540.24   1
   2  -3  -2 67404.0 1608.59  17
   2  -3  -2 59661.4 1558.59   1
   2   3  -2 63481.8 1616.64  17
   2   3  -1 19594.0 633.829   1
   2  -3  -1 19392.1 659.175   1
  -2   3   1 19124.9 746.602  13
  -2   3   1 19782.1 634.022  19
   2  -3  -1 18726.2 641.298   9
  -2  -3   1 19163.8 633.636  19
  -2  -3   1 19901.9 566.746   9
   2   3   0 339716. 7713.06  23
   2   3   0 336981. 7680.31  20
  -2  -3   0 351741. 7547.70   9
   2   3   0 348524. 7603.56   1
   2  -3   0 336124. 7611.20   1
   2   3   1 25941.7 832.325  14
   2  -3   1 26350.1 834.910  14
   2   3   1 25318.0 837.465   1
   2  -3   1 25995.8 846.317   1
   2   3   1 27335.0 941.100  23
   2   3   1 25486.1 883.516  20
  -2  -3  -1 27260.9 847.646   9
  -2   3  -1 28852.5 919.637  19
  -2   3  -1 29651.1 994.950  13
  -2  -3  -1 27099.7 887.724  19
   2  -3   2 40322.6 1201.15  14
   2   3   2 39961.1 1208.17  14
  -2   3  -2 39606.9 1205.55  19
  -2  -3  -2 41673.8 1249.29   9
  -2  -3  -2 39273.5 1186.40  19
  -2   3  -2 43185.2 1328.88  13
   2   3   2 39663.7 1251.91  20
   2   3   3 36574.2 1224.95  14
   2  -3   3 39239.1 1222.38  14
  -2  -3  -3 34071.3 1165.42  19
  -2   3  -3 37164.2 1245.27  13
  -2   3  -3 36937.0 1208.80  19
   2   3   4 47797.4 1535.62  14
   2  -3   4 46804.7 1491.08  14
  -2  -3  -4 41136.8 1439.73  19
  -2   3  -4 42501.2 1413.48  13
   2   3   4 46158.1 1527.23  11
  -2   3  -4 42969.5 1469.13  19
  -2  -3  -4 43114.9 1486.17  17
  -2   3  -4 43724.4 1502.80  17
  -2  -3  -4 44290.8 1404.59  15
  -2  -3  -5 1621.24 238.323  15
  -2   3  -5 1711.43 273.724  19
   2  -3   5 1743.60 265.405  14
   2   3   5 1366.13 247.334  11
  -2  -3  -5 1424.12 251.829  19
   2  -3   5 1705.37 265.900  11
  -2  -3  -5 1563.29 270.075  17
   2   3   5 1211.52 240.548  14
  -2   3  -5 1442.72 261.725  17
  -2  -3  -6 14003.6 775.535  15
   2   3   6 11959.1 776.931  14
   2  -3   6 12522.6 763.199  14
   2   3   6 13424.5 808.546  11
  -2  -3  -6 12061.8 826.962  17
  -2   3  -6 12336.5 839.232  17
   2  -3   6 12939.8 773.131  11
  -2  -3  -7 59386.6 1953.04  15
   2  -3   7 61068.7 1994.80  11
   2   3   7 61920.8 2046.82  11
  -2   3  -7 60258.8 2165.05  15
  -2   3  -8 1793.16 294.141  15
   2   3   8 1796.04 263.501  11
   2  -3   8 1537.07 234.377  11
  -2  -3  -8 1768.76 280.283  18
  -2   3  -8 1460.10 252.185  18
  -2   3  -9 1644.59 222.664  15
   2   3   9 1559.82 184.643  11
   2  -3   9 1461.71 176.487  11
   2  -4 -10 627.973 131.947   4
  -2  -4  10 227.043 81.0072  11
   2   4  -9 3098.06 348.314  18
   2  -4  -9 3823.89 371.200  18
   2  -4  -9 3165.72 371.689   4
   2  -4  -8 9940.09 741.347   4
   2   4  -8 10400.4 709.420  18
   2  -4  -8 9733.57 673.429  18
   2  -4  -8 9097.93 685.126   3
   2   4  -8 9436.72 727.082   5
   2  -4  -8 9002.32 620.351   5
   2   4  -7 22477.9 1074.66  15
  -2   4   7 30014.6 1281.34  14
  -2  -4   7 28284.4 1220.03  14
   2   4  -7 24617.8 1172.61  18
   2  -4  -7 25275.8 1202.50   3
   2   4  -7 24913.7 1156.39   2
   2  -4  -7 24979.6 1128.81   5
   2  -4  -7 25523.6 1201.61   2
   2   4  -7 25677.1 1263.45   5
   2  -4  -7 25586.7 1179.19  17
   2  -4  -7 25762.6 1164.48  18
   2   4  -7 24228.3 1186.56  17
   2   4  -6 8804.93 587.649  15
  -2   4   6 9671.10 624.682  14
  -2  -4   6 10042.8 622.304  14
   2   4  -6 9157.70 595.534   7
   2   4  -6 9701.51 663.743  17
   2   4  -6 9923.83 703.932   5
   2  -4  -6 9140.65 644.476   3
   2   4  -6 8954.84 611.049   2
   2  -4  -6 8733.75 603.980   5
   2   4  -6 9232.04 639.259  18
   2  -4  -6 9691.07 629.506  18
   2  -4  -6 9567.54 633.964  17
   2  -4  -6 9250.74 651.045   2
   2   4  -6 8610.31 638.910   4
   2   4  -5 82738.9 2271.68  15
   2  -4  -5 88170.9 2422.36   2
  -2   4   5 88778.3 2335.06  14
  -2  -4   5 84420.4 2291.40  14
   2   4  -5 82264.0 2318.12   2
   2  -4  -5 82032.1 2402.42   3
   2  -4  -5 83381.9 2331.16  17
   2  -4  -5 81874.5 2315.94  18
  -2   4   5 83172.5 2282.63  10
   2  -4  -5 86510.4 2371.29   9
   2   4  -5 80818.8 2364.59  18
   2  -4  -5 80362.9 2316.78   5
   2   4  -5 82427.7 2425.88   5
   2   4  -5 80378.8 2356.51   7
   2   4  -5 80268.4 2377.37  17
   2   4  -5 79086.8 2366.93   4
  -2   4   4 84244.6 2143.75  14
  -2   4   4 81676.6 2255.52  10
   2  -4  -4 80389.9 2191.42   9
   2  -4  -4 75712.1 2107.28  18
   2   4  -4 77991.6 2173.81  18
   2  -4  -4 77348.9 2122.10  17
   2   4  -4 77810.6 2181.85  17
   2  -4  -3 3458.89 288.803   9
  -2   4   3 3851.53 345.964  10
   2  -4  -3 3661.43 277.568   1
   2   4  -3 3051.90 242.277   1
  -2  -4   3 3112.99 225.157   9
   2  -4  -3 3203.64 257.936  17
   2   4  -3 3099.42 267.757  17
   2   4  -2 40721.2 1154.00  17
   2  -4  -2 40788.5 1203.07   9
   2   4  -2 38542.5 1082.77   1
  -2   4   2 42515.3 1376.28  10
  -2  -4   2 38112.1 1061.74   9
   2  -4  -2 40025.6 1139.36  17
   2  -4  -2 37931.9 1104.75   1
  -2   4   1 205673. 4508.16  19
   2  -4  -1 207983. 4642.99   9
   2   4  -1 208232. 4501.18   1
  -2  -4   1 206097. 4512.43  19
  -2  -4   1 201981. 4512.32   9
   2  -4  -1 201705. 4521.66   1
  -2  -4   0 1352.91 150.786   9
  -2   4   0 958.614 143.607  19
  -2  -4   0 846.514 130.782  19
   2   4   0 1248.29 132.050   1
   2   4   0 1543.36 189.353  23
   2  -4   0 1317.42 142.247   1
   2   4   1 58036.5 1532.27   1
   2   4   1 57136.2 1528.98  14
   2  -4   1 56930.0 1524.60  14
   2  -4   1 54018.1 1522.11   1
  -2   4  -1 58709.5 1741.35  13
   2   4   1 58866.7 1692.23  23
  -2  -4  -1 58955.1 1522.65  19
  -2   4  -1 59474.4 1549.55  19
  -2  -4  -1 58790.3 1612.10   9
   2   4   2 310264. 6836.89  14
   2  -4   2 309998. 6818.16  14
  -2   4  -2 308791. 7047.99  13
   2   4   2 299356. 7004.22  20
   2   4   2 313247. 6850.96   1
  -2  -4  -2 314593. 6817.60  19
  -2  -4  -2 320861. 6975.76   9
   2   4   2 298360. 6897.74  21
   2   4   2 319089. 7045.35  23
  -2   4  -2 313623. 6844.20  19
   2  -4   2 313279. 6852.86   1
   2   4   3 8389.98 483.254  14
   2  -4   3 7852.43 460.515  14
  -2   4  -3 8319.61 517.883  13
   2  -4   3 7940.30 488.264  22
  -2   4  -3 8029.32 473.834  19
  -2  -4  -3 7603.86 450.549  19
  -2   4  -3 7335.83 438.682  10
  -2  -4  -3 8953.90 559.291   9
  -2   4  -3 8044.44 481.200  17
   2  -4   4 10153.5 583.341  14
  -2   4  -4 9624.40 557.221  13
  -2  -4  -4 10068.2 594.216  19
   2  -4   4 10044.6 592.519  11
   2   4   4 10085.8 594.403  14
   2   4   4 9589.81 595.486  11
  -2   4  -4 9330.22 584.995  19
  -2  -4  -4 10422.3 617.427  17
  -2   4  -4 9607.98 602.368  17
   2  -4   5 85221.5 2406.44  11
   2   4   5 82101.9 2406.98  14
   2  -4   5 80790.5 2361.76  14
   2   4   5 82922.3 2425.93  11
  -2   4  -5 82595.4 2483.63  19
  -2  -4  -5 80888.2 2435.08  19
  -2  -4  -5 77733.0 2469.00  17
  -2   4  -5 80543.9 2493.18  17
   2   4   6 9419.08 665.913  14
   2  -4   6 10399.1 659.852  14
  -2  -4  -6 9373.56 717.193  17
  -2   4  -6 9895.32 727.738  17
   2   4   6 10396.6 688.073  11
   2  -4   6 9747.55 645.320  11
   2   4   7 2798.57 348.113  11
   2  -4   7 3139.50 345.563  11
   2   4   7 2024.23 265.820  16
   2  -4   8 1288.09 198.652  11
   2   4   8 953.124 178.191  21
   2   4   8 775.394 169.105  11
  -2   4  -8 984.562 186.999  18
  -2  -4  -8 1065.97 200.807  18
   2  -4   9 11950.6 449.766  11
   2  -5 -10 35.5387 45.2657   4
  -2   5   9 55549.9 1750.32  21
   2  -5  -9 58651.3 1851.22   4
   2  -5  -8 540.400 178.601   4
   2  -5  -8 555.720 157.048  18
   2  -5  -8 603.291 174.055   3
   2   5  -8 392.666 138.584  18
   2   5  -7 29525.4 1245.21  18
   2  -5  -7 31318.5 1330.79   3
   2   5  -7 30990.5 1226.60   7
   2   5  -7 27823.2 1202.97  12
   2   5  -7 31483.7 1392.80   5
   2  -5  -7 30654.4 1243.40  18
  -2   5   6 1752.45 291.839  14
   2   5  -6 1773.36 280.762   7
   2   5  -6 1726.65 271.553  12
   2  -5  -6 1656.07 277.916   3
   2   5  -6 1992.96 309.922   5
   2  -5  -6 1924.89 287.596   9
   2   5  -6 1852.52 272.683   2
   2   5  -6 2220.82 306.941  17
   2  -5  -6 1874.01 270.468  18
   2   5  -6 1788.30 272.964  18
  -2  -5   5 318.761 102.970  14
   2   5  -5 510.736 145.814   8
   2   5  -5 528.104 146.114  12
   2   5  -5 916.969 200.961   7
   2  -5  -5 237.266 109.810   3
   2  -5  -5 343.926 108.252  17
   2   5  -5 344.861 129.915   5
   2  -5  -5 604.320 160.375   9
   2   5  -5 331.810 112.875  18
   2   5  -5 283.907 105.880  17
  -2   5   5 779.971 157.059  14
   2   5  -4 31978.4 1156.61  18
  -2  -5   4 33180.3 1090.89  14
   2   5  -4 33636.3 1305.94   7
  -2   5   4 35452.4 1299.83  10
   2  -5  -4 33821.8 1247.60   9
   2  -5  -4 32880.3 1121.20  17
   2   5  -4 34151.8 1176.92  17
  -2   5   4 34279.6 1108.65  14
   2  -5  -3 94835.6 2586.46   9
  -2   5   3 100808. 2730.41  10
  -2   5   3 95984.9 2518.18  21
  -2  -5   3 93752.5 2391.25   9
   2   5  -3 96025.4 2434.85  17
   2  -5  -3 101710. 2430.97  17
   2  -5  -2 57857.4 1490.23   1
  -2   5   2 57575.3 1468.60  19
   2   5  -2 56115.5 1611.08  16
   2   5  -2 55252.9 1447.68   1
  -2   5   2 58685.5 1613.89  21
   2  -5  -2 60151.7 1703.78   9
  -2  -5   2 57915.6 1556.20   9
  -2  -5   2 55314.4 1455.56  19
   2   5  -1 32402.1 935.879   1
  -2  -5   1 37258.6 1008.65  19
   2   5  -1 35329.2 1147.75  21
  -2   5   1 34681.9 953.041  20
  -2  -5   1 37308.4 1097.97   9
   2   5  -1 35984.4 1141.46  16
   2  -5  -1 35689.5 1170.08   9
   2  -5  -1 34800.3 976.902   1
  -2   5   1 39641.3 1031.36  19
   2  -5   0 7306.39 455.361   9
   2   5   0 7130.83 315.076   1
   2  -5   0 6718.36 327.612   1
   2   5   0 6365.17 412.181  21
  -2  -5   0 7553.65 338.997  19
  -2   5   0 7816.45 518.523  10
  -2  -5   0 7578.75 425.504   9
   2   5   0 7101.22 458.802  23
  -2   5   0 8155.99 373.359  19
   2   5   0 7346.47 439.616  16
   2   5   1 67176.9 1952.56  21
  -2   5  -1 74671.9 1793.27  19
  -2   5  -1 73814.3 2085.54  10
  -2  -5  -1 64961.1 1725.04  19
   2   5   1 73706.8 1782.73   1
   2  -5   1 71596.2 1810.24   1
  -2  -5  -1 77885.1 2006.56   9
   2   5   1 73638.8 2044.85  23
   2   5   2 7500.51 397.564  14
   2  -5   2 7125.72 396.784   1
   2  -5   2 6929.24 378.499  14
   2   5   2 7077.05 387.093   1
  -2   5  -2 7567.90 399.388  19
   2   5   2 7293.78 469.811  21
  -2  -5  -2 7522.01 383.307  19
  -2   5  -2 6967.29 461.554  10
  -2  -5  -2 7443.53 489.188   9
   2   5   2 7678.79 518.385  20
   2   5   2 6766.29 483.692  23
   2  -5   3 56667.4 1624.11  14
   2   5   3 59036.2 1860.11  23
  -2   5  -3 60097.7 1679.22  19
  -2   5  -3 57254.6 1674.28  10
   2   5   3 55587.3 1774.94  21
   2   5   3 57691.3 1649.02   1
  -2  -5  -3 56223.8 1629.52  19
  -2  -5  -3 59363.4 1855.39   9
   2  -5   3 58214.6 1669.84   1
  -2  -5  -3 58628.2 1680.72  17
  -2   5  -3 55663.0 1658.11  17
   2   5   3 59162.1 1884.91  20
   2   5   3 56701.9 1636.42  14
   2   5   4 10714.0 605.067   1
   2   5   4 11263.6 615.281  14
  -2  -5  -4 11322.5 649.933  17
  -2   5  -4 11981.5 656.482  19
   2   5   4 10173.0 685.703  20
   2  -5   4 11814.7 616.544  14
  -2  -5  -4 11353.6 624.833  19
  -2  -5  -4 11194.3 722.970   9
   2   5   4 11828.9 738.397  23
   2   5   4 12374.1 714.383  21
  -2   5  -4 11674.5 657.826  17
   2   5   5 22867.8 1004.84  11
   2   5   5 20740.2 1076.20  20
  -2   5  -5 23514.0 1075.29  17
   2   5   5 23704.0 1167.86  23
   2   5   5 22383.7 986.375  14
   2   5   6 21879.5 1146.09  23
   2   5   6 19380.4 957.895  16
   2   5   6 22721.4 1019.25  11
   2  -5   6 22597.4 978.969  11
   2   5   6 23285.9 1108.71  21
   2   5   6 21340.2 1090.05  20
   2   5   7 60529.9 1969.80  21
   2   5   7 61878.6 1874.47  11
   2  -5   7 62568.8 1836.68  11
  -2  -5  -7 62344.4 1927.56  18
  -2   5  -7 59118.2 1885.16  18
  -2   5  -7 60434.6 2115.31  15
  -2   5  -8 731.514 169.808  15
   2   5   8 464.210 116.891  21
  -2   6   9 5924.93 412.473  21
   2  -6  -9 6875.05 461.143   4
   2  -6  -8 1922.07 294.527   4
  -2   6   8 2163.95 292.285  21
   2  -6  -7 4968.84 464.048   3
   2   6  -7 3807.25 406.428   7
   2   6  -7 3926.17 411.676  12
  -2   6   7 4628.84 459.638  21
   2   6  -6 11265.8 748.458   7
   2  -6  -6 11054.2 707.992   3
   2   6  -6 9879.55 690.930  12
   2   6  -6 11369.4 731.346   5
   2  -6  -6 10533.9 715.623   9
   2   6  -5 16353.6 934.807   7
   2   6  -5 16458.7 860.961   8
   2   6  -5 16838.1 900.225  12
   2  -6  -5 15683.5 835.209   3
   2   6  -5 15348.7 816.546   5
   2  -6  -5 17059.9 901.857   9
  -2   6   5 17278.4 875.268  21
   2  -6  -4 2108.49 297.959   9
  -2   6   4 2481.64 301.330  21
   2   6  -4 2010.98 312.209   7
   2   6  -4 2265.37 310.913  12
  -2   6   4 3214.45 364.989  10
   2   6  -4 1958.39 291.548   8
   2  -6  -3 3910.83 380.988   9
  -2   6   3 3159.21 322.216  21
  -2   6   3 4192.98 416.070  10
   2   6  -3 3680.02 382.239   8
   2  -6  -2 2445.07 284.224   9
  -2  -6   2 2575.10 254.938   9
   2   6  -2 2508.09 285.385  21
  -2   6   2 2746.07 338.374  10
  -2   6   2 2353.02 260.158  21
   2   6  -1 78195.6 2210.46  21
  -2   6   1 77694.7 2119.15  21
  -2  -6   1 82008.4 2150.67   9
   2  -6  -1 78777.6 2245.09   9
   2   6  -1 81917.4 2213.49  16
  -2  -6   0 37861.1 1259.34   9
   2   6   0 36259.3 1275.56  21
  -2   6   0 39229.7 1405.11  10
   2   6   0 36568.6 1325.88  20
  -2   6   0 35830.1 1182.93  21
   2   6   0 37658.0 1279.89  16
   2  -6   0 37169.7 1296.93   9
  -2   6  -1 33208.4 1261.26  10
  -2  -6  -1 32781.2 1214.53   9
   2   6   1 34994.1 1246.21  23
   2   6   1 32996.6 1209.83  21
   2   6   2 6961.53 505.778  21
  -2   6  -2 7806.17 519.140  10
   2   6   2 9316.41 574.977  16
  -2  -6  -2 10001.0 609.929   9
   2   6   2 7239.76 527.566  23
   2   6   3 48455.1 1655.16  21
   2   6   3 50055.7 1717.30  23
  -2  -6  -3 52405.9 1764.55   9
   2   6   3 47778.1 1727.67  20
   2   6   3 49602.7 1668.50  16
  -2  -6  -4 9854.81 708.408   9
   2   6   4 10519.3 717.445  23
   2   6   4 10743.2 732.724  20
   2   6   4 11306.3 697.637  16
   2   6   4 10615.6 687.239  21
   2   6   5 53611.3 1939.08  20
   2   6   5 53446.6 1812.08  16
   2   6   5 52980.0 1935.88  23
   2   6   5 53350.6 1873.73  21
   2   6   6 18620.3 959.305  21
   2   6   6 16690.3 847.470  16
   2   6   7 3992.96 389.972  21
  -2   6  -7 4023.74 430.200  15
  -2   6  -8 11448.2 620.820  12
  -2   6  -8 10142.0 578.968  15
   2  -7  -9 17231.1 654.489   4
   2  -7  -8 7133.66 517.010   4
  -2   7   8 6447.45 469.075  21
   2   7  -7 10475.4 663.782  12
   2   7  -7 9779.07 663.459   7
  -2   7   7 10354.3 670.163  21
   2  -7  -6 7241.13 548.253   3
   2   7  -6 9744.57 711.582   7
   2   7  -6 8569.50 644.090  12
  -2   7   6 8843.64 628.571  21
   2   7  -6 7534.09 549.216   8
   2  -7  -6 7363.48 603.099   9
   2   7  -5 123.468 94.1290   8
   2  -7  -5 52.9905 61.1243   3
   2   7  -5 430.861 162.012  12
  -2   7   5 200.029 118.729  21
   2  -7  -5 197.605 107.353   9
   2  -7  -4 15195.7 873.651   9
   2   7  -4 17343.6 967.144   7
   2   7  -4 16023.5 918.576  12
  -2   7   4 16537.2 853.101  21
   2   7  -4 16366.0 914.058   8
   2   7  -3 67344.7 2212.55   7
   2   7  -3 66978.9 2210.48  12
  -2   7   3 71060.2 2086.94  21
  -2   7   3 70595.2 2267.38  10
   2  -7  -3 68370.9 2192.59   9
   2   7  -3 66006.3 2192.53   8
   2   7  -2 29260.0 1260.56   8
  -2   7   2 30486.8 1325.85  10
   2   7  -2 29688.8 1239.83   7
   2   7  -2 29217.9 1271.96  12
   2  -7  -2 31055.9 1238.41   9
  -2  -7   2 28627.9 1090.27   9
  -2   7   2 30600.0 1143.64  21
   2   7  -1 19066.4 940.975   8
   2   7  -1 17872.1 886.746   7
   2   7  -1 17383.2 858.909  21
  -2   7   1 17949.0 806.373  21
   2   7  -1 17580.0 858.119  16
   2  -7  -1 17668.6 889.110   9
  -2  -7   1 18735.7 840.102   9
   2   7   0 50013.5 1701.93   7
   2   7   0 52951.4 1784.60  20
  -2   7   0 51936.2 1816.32  10
   2   7   0 52947.3 1733.28  21
  -2   7   0 52245.0 1605.73  21
  -2  -7   0 56089.5 1727.57   9
   2  -7   0 53914.0 1756.36   9
   2   7   0 53321.9 1747.01   8
   2  -7   1 11939.7 710.793   9
   2   7   1 12316.0 751.560  20
   2   7   1 12183.9 681.317   7
  -2   7  -1 10762.7 656.771  12
   2   7   1 10564.8 669.212  21
  -2  -7  -1 12529.8 716.625   9
  -2   7  -1 11907.2 716.019  10
   2   7   1 11448.9 656.893   8
   2   7   2 874.622 191.655  16
  -2   7  -2 1102.58 216.236  12
   2   7   2 845.842 188.706  23
   2   7   2 1169.55 224.597  21
  -2   7  -2 757.389 165.257  10
  -2  -7  -2 1146.96 228.092   9
  -2   7  -3 9133.56 666.918  12
   2   7   3 10136.8 675.264  23
   2   7   3 10991.8 695.749  21
  -2  -7  -3 11420.6 745.902   9
   2   7   3 9475.89 645.108  16
  -2   7  -4 43042.9 1712.15  12
   2   7   4 44291.2 1724.70  20
  -2  -7  -4 42184.1 1702.47   9
   2   7   4 44235.2 1648.83  21
   2   7   4 46590.7 1650.94  16
   2   7   4 47448.0 1697.57  23
  -2   7  -5 7896.75 650.846  12
   2   7   5 7451.65 599.760  21
   2   7   5 6861.56 616.580  20
   2   7   5 7128.68 552.078  16
  -2   7  -6 2366.96 348.047  12
   2   7   6 2613.63 339.561  21
   2   7   6 2402.20 294.325  16
  -2   7  -7 28872.9 1107.00   7
  -2   7  -7 28353.5 1165.31  12
   2   7   7 27663.4 1068.86  21
  -2   7  -7 27781.8 1127.24  15
  -2   7  -8 31226.0 1055.27  12
  -2   8   8 16207.2 717.366  21
   2  -8  -8 18317.4 747.055   4
   2   8  -7 187.151 102.174   7
   2   8  -7 48.5706 62.5986  12
  -2   8   7 214.019 102.523  21
  -2   8   6 2107.27 302.600  21
   2   8  -6 1899.40 303.070  12
   2   8  -6 1864.14 318.461   7
   2   8  -6 2323.96 298.335   8
  -2   8   5 13394.2 792.123  21
   2   8  -5 14200.5 907.249   7
   2   8  -5 13891.6 873.497  12
   2  -8  -5 13113.2 846.706   9
   2   8  -5 15297.8 879.819   8
   2   8  -4 8685.29 695.454  12
  -2   8   4 10319.7 664.524  21
   2  -8  -4 7543.57 632.596   9
   2   8  -4 8815.90 686.815   8
   2   8  -3 4523.18 489.088   7
   2   8  -3 4615.43 504.863  12
  -2   8   3 5474.83 536.717  10
   2  -8  -3 4973.78 497.875   9
  -2   8   3 4046.59 414.564  21
   2   8  -3 4711.73 503.974   8
   2  -8  -2 19970.0 1025.87   9
   2   8  -2 17645.6 978.474   7
  -2   8   2 19558.3 1062.72  10
  -2   8   2 19561.2 931.421  21
   2   8  -2 19222.1 1039.20   8
   2   8  -1 43826.9 1641.86   7
  -2   8   1 49034.9 1793.39  10
  -2   8   1 45374.9 1553.54  21
  -2  -8   1 44928.9 1584.92   9
   2   8  -1 43979.1 1635.96  21
   2  -8  -1 47387.3 1713.83   9
   2   8  -1 44196.3 1688.28   8
   2   8   0 50370.9 1747.84   7
  -2   8   0 49957.0 1652.34  21
   2   8   0 52408.1 1793.49  16
  -2   8   0 49950.0 1711.72  12
  -2  -8   0 50120.2 1737.24   9
   2   8   0 51892.5 1794.65  21
  -2   8   0 52795.7 1858.86  10
   2  -8   0 51621.2 1809.05   9
   2   8   0 47310.5 1735.84   8
   2   8   1 67.0892 86.4066  20
   2   8   1 53.7513 61.9200   8
   2   8   1 78.9841 90.9867   7
  -2   8  -1 56.8171 80.1612  12
   2   8   1 30.3628 78.2108  21
  -2   8  -1 87.9440 82.7180  10
  -2  -8  -1 184.810 100.359   9
   2  -8   1-60.6567 85.5783   9
  -2   8  -2 129572. 3604.80  12
  -2   8  -2 130411. 3487.47  10
   2   8   2 132136. 3730.28  20
  -2  -8  -2 141225. 3745.67   9
   2   8   2 136391. 3654.24  21
   2   8   2 134130. 3615.21  16
   2   8   3 1011.15 211.484  23
  -2   8  -3 988.035 231.689  12
   2   8   3 947.422 217.997  16
   2   8   3 1062.21 231.356  21
  -2  -8  -3 993.759 232.190   9
  -2   8  -4 10935.9 759.305  12
   2   8   4 11221.6 791.581  20
   2   8   4 9955.58 703.162  21
   2   8   4 10296.1 697.400  23
   2  -8   4 10941.4 761.196   9
  -2  -8  -4 11000.3 794.169   9
   2   8   4 11312.1 729.209  16
  -2   8  -5 36991.8 1513.68  12
   2   8   5 35759.6 1391.83  16
   2   8   5 40476.9 1517.43  21
   2   8   6 37811.4 1322.22  16
   2   8   6 40594.3 1447.22  21
  -2   8  -6 40690.4 1501.40  12
  -2   8  -7 11455.1 587.917   7
  -2   8  -7 12099.4 636.422  12
  -2   8  -8 16287.7 579.930  12
   2  -9  -7 38.1570 49.1441   4
   2   9  -7 44.5295 72.5440   7
  -2   9   7-18.9009 43.5468  21
   2   9  -6 69064.3 2225.80   7
   2   9  -6 71443.9 2180.67  12
  -2   9   6 66679.5 2051.66  21
   2   9  -6 66129.4 2007.66   8
   2   9  -5 3606.01 443.295   7
   2   9  -5 3798.08 451.157  12
  -2   9   5 3622.64 390.528  21
   2   9  -5 3278.09 400.307   8
   2   9  -4 37057.8 1583.47   7
   2   9  -4 39184.4 1640.62  12
  -2   9   4 38282.5 1457.38  21
   2  -9  -4 36012.3 1551.26   9
   2   9  -4 36607.2 1558.34   8
   2   9  -3 50431.5 1909.35   7
  -2   9   3 52790.7 1792.62  21
   2  -9  -3 47946.2 1880.56   9
   2   9  -2 46457.0 1794.66   7
  -2   9   2 49461.1 1699.48  21
   2  -9  -2 45490.0 1798.79   9
   2   9  -2 46578.2 1829.68   8
  -2   9   1 2349.55 312.393  21
   2   9  -1 2123.32 328.130   7
   2   9  -1 2366.87 344.971  21
   2  -9  -1 3038.27 397.734   9
   2   9  -1 2496.92 363.538   8
  -2   9   0 113712. 3009.16  21
   2   9   0 107619. 3078.48   7
   2   9   0 112941. 3177.54  21
  -2  -9   0 103905. 3075.68   9
   2  -9   0 109457. 3189.11   9
   2   9   0 100948. 3075.24   8
   2   9   1 7882.24 574.178   7
  -2   9  -1 8939.89 642.042  12
   2  -9   1 8210.54 651.070   9
   2   9   1 8971.98 676.946  21
  -2  -9  -1 7573.23 633.604   9
   2   9   1 7208.22 570.668   8
  -2   9  -2 4870.95 483.239  12
   2   9   2 4775.48 511.951  20
   2   9   2 4953.92 498.466  21
  -2  -9  -2 4843.38 516.199   9
   2   9   2 5173.78 500.298  16
   2   9   3 4277.33 452.248  21
  -2   9  -3 4891.71 497.324  12
   2   9   3 4371.29 496.178  20
  -2  -9  -3 3945.21 471.952   9
   2   9   3 5007.73 486.233  16
  -2   9  -4 32592.1 1382.30  12
   2   9   4 31789.8 1343.55  21
   2   9   4 33630.7 1346.12  16
  -2   9  -5 6832.79 536.002  12
   2   9   5 6064.31 506.031  21
   2   9   5 5215.67 447.149  16
  -2   9  -6 13211.9 692.322   7
  -2   9  -6 12982.8 692.510  12
   2   9   6 12852.4 663.487  21
  -2   9  -7 4949.01 313.634   7
  -2   9  -7 4945.13 333.156  12
   2  10  -7 25703.2 916.373   7
  -2  10   6 1762.32 229.161  21
   2  10  -6 1884.76 275.631   7
   2  10  -5 905.884 206.836   8
  -2  10   5 665.979 165.134  21
   2  10  -4 69718.7 2313.95   7
  -2  10   4 66386.0 2103.70  21
   2  10  -4 69516.5 2296.77   8
   2  10  -3 7891.59 660.438   7
  -2  10   3 7602.94 573.073  21
   2  10  -2 51626.3 1963.05   8
   2  10  -2 52244.2 1954.56   7
  -2  10   2 55921.4 1842.32  21
   2 -10  -2 53377.5 2017.76   9
   2  10  -1 235.416 128.648   7
  -2  10   1 448.521 154.999  21
   2  10  -1 536.821 175.024   8
   2 -10  -1 185.185 120.842   9
   2  10   0 10575.4 703.520   7
   2  10   0 11239.9 764.533  21
   2 -10   0 10662.7 769.030   9
   2  10   0 10536.1 733.757   8
  -2  10  -1 44202.3 1577.92   7
   2  10   1 46980.8 1734.45  21
   2 -10   1 42651.5 1707.28   9
   2  10   1 44389.5 1612.40   8
  -2  10  -2 35198.4 1425.15  12
  -2  10  -2 36081.2 1429.30   7
   2  10   2 34401.7 1430.57  21
  -2  10  -3 2510.59 342.447  12
   2  10   3 2496.31 342.308  21
   2 -10   3 3081.38 358.743  22
   2  10   3 2860.13 368.541  16
  -2  10  -4 21245.8 1009.88  12
  -2  10  -4 21318.3 1010.15   7
   2  10   4 22724.3 1029.04  21
  -2  10  -5 3784.68 362.404   7
  -2  10  -5 3290.63 343.402  12
   2  10   5 3941.02 360.876  21
  -2  10  -6 10902.2 533.185  12
   2  10   6 9170.09 452.945   6
   2  11  -6 26229.8 962.161   7
   2  11  -5 9516.04 596.680   7
  -2  11   5 7743.69 474.734  21
   2  11  -5 9194.27 559.942   8
   2  11  -4 26716.1 1171.47   7
  -2  11   4 25466.9 1022.40  21
   2  11  -4 26619.4 1156.30   8
   2  11  -3 5066.79 495.112   7
  -2  11   3 4888.95 422.907  21
   2  11  -2 19902.8 1037.79   7
  -2  11   2 19848.8 931.220  21
   2  11  -2 21182.2 1071.40   8
   2  11  -1 16423.8 892.078   7
   2  11  -1 16793.9 943.126   8
   2  11   0 3406.26 359.911   7
   2  11   0 3219.56 391.287  21
   2  11   0 3760.12 412.269   8
  -2  11  -1 14359.9 728.592   7
   2  11   1 14086.2 775.072   8
  -2  11  -2 893.092 190.835   7
   2  11   2 1370.57 248.470  21
   2 -11   3 15027.4 755.969  22
  -2  11  -3 15348.0 787.307   7
   2  11   3 16745.2 833.619  21
  -2  11  -4 13197.6 656.525   8
  -2  11  -4 13928.8 693.862   7
  -2  11  -4 14144.5 706.158  12
   2  11   4 14401.1 713.757  21
  -2  11  -5 4930.42 347.256   7
   2  12  -5 5457.07 365.835   7
   2  12  -5 5416.69 335.430   8
   2  12  -4 8546.13 526.640   7
   2  12  -4 7709.74 498.845   8
   2 -12  -3 1812.08 243.260  22
  -2  12   3 1632.73 206.721  21
   2  12  -3 1827.11 259.301   7
   2  12  -3 1737.95 254.729   8
  -2  12   2 1177.92 180.926   8
   2  12  -2 1243.05 224.221   7
   2  12  -2 1196.30 226.392   8
   2  12  -1 12020.1 647.162   7
   2  12  -1 11433.6 701.146   8
   2  12   0 11482.9 668.505   8
   2  12   1 3058.52 289.704   8
  -2  12  -2 1532.16 192.804   7
   2  12   2 1921.85 253.887  21
   2 -12   2 2129.03 270.439  22
  -2  12  -3 35785.5 1187.50   8
  -2  12  -3 34066.6 1113.73   7
   2  12   3 35251.3 1186.65  21
  -2  12  -4 2841.17 224.044   8
  -2  12  -4 2910.01 237.812   7
   2  13  -4 5822.74 316.111   7
   2  13  -4 6112.21 328.430   8
   2  13  -3 28257.0 924.169   7
   2  13  -3 28963.7 979.287   8
   2  13  -2 1509.70 175.995   7
   2  13  -2 1888.75 229.232   8
  -2  13   1 1704.44 196.087   8
   2 -13  -1 2029.46 250.280  22
   2  13  -1 1856.65 227.496   8
  -2  13   0 853.657 151.780   8
   2  13   0 737.337 127.683   8
   2 -13   0 574.285 136.516  22
  -2  13  -1 15747.0 688.414   8
   2 -13   1 15873.8 714.394  22
  -2  13  -2 997.675 149.762   8
   2  13   2 622.530 105.427   6
   2  13   3 6708.94 329.926   6
  -2  13  -3 7441.03 348.866   8
   3   0 -10 44.7925 85.5695   4
   3   0 -10 23.1130 59.5388  18
   3   0  -9 523.028 184.585   4
   3   0  -9 267.938 139.249  18
   3   0  -9 231.541 126.530   5
   3   0  -8-36.6985 84.5503   4
   3   0  -8 73.1091 103.146   2
   3   0  -8 36.6003 84.3240   3
   3   0  -8 38.1449 87.8825  18
   3   0  -8-36.8545 94.9318   5
   3   0  -7 161450. 4297.77   4
  -3   0   7 155628. 4205.84  14
   3   0  -7 157338. 4266.01   3
   3   0  -7 161583. 4292.92   2
   3   0  -7 164227. 4373.72  18
   3   0  -7 155413. 4260.32   5
   3   0  -7 155288. 4323.39  17
   3   0  -6 60.7079 78.1901   4
  -3   0   6 59.4492 76.5691  14
   3   0  -6 276.121 141.370   2
   3   0  -6-34.0246 78.3926  18
   3   0  -6 29.5596 68.1060   3
   3   0  -6 34.7425 89.4941  17
   3   0  -6 30.3878 70.0141   5
   3   0  -5 18902.1 887.532   3
   3   0  -5 18075.3 923.730  18
   3   0  -5 19243.2 907.178   2
   3   0  -5 18198.3 880.729   1
   3   0  -5 17480.0 913.901  17
   3   0  -4 22.4444 44.7827  17
   3   0  -4-14.4901 62.4559  22
   3   0  -4 40.7936 52.5397   1
   3   0  -4 45.3579 63.9937  18
  -3   0   3 45651.3 1325.62  13
   3   0  -3 47241.7 1480.87  18
   3   0  -3 49872.6 1472.23   1
   3   0  -3 46880.9 1472.14  17
   3   0  -3 46650.3 1379.93  22
  -3   0   2 29.0910 41.0431  13
   3   0  -2-16.2076 41.7485   1
   3   0  -2 15.6961 36.1624  22
   3   0  -2-17.7067 45.6098  18
  -3   0   1 12678.1 570.331  19
   3   0  -1 13181.4 592.301   1
  -3   0   1 13890.7 598.357  13
   3   0  -1 12945.4 615.480  18
  -3   0   0 15.7241 40.5031  13
   3   0   0-11.9869 30.8766  23
   3   0   0 34.4300 48.5756  22
  -3   0   0-17.2621 52.6112  19
   3   0   0 31.7709 44.8241   1
   3   0   0-17.3370 63.1554  18
   3   0   1 1936.29 218.882  14
   3   0   1 1463.46 203.920   1
  -3   0  -1 1906.57 220.707  13
   3   0   1 1678.72 194.159  23
   3   0   1 2053.02 234.478  22
   3   0   2 19.4963 50.2201  14
   3   0   2 20.2831 46.7310   1
  -3   0  -2 40.4977 61.7146  13
   3   0   2-7.17243 18.4766  20
  -3   0  -2 21.0598 48.5205  19
   3   0   3 408622. 9314.50  14
  -3   0  -3 425652. 9333.23  13
   3   0   3 402778. 9333.14  11
  -3   0  -3 428899. 9327.19  19
   3   0   4-28.6582 80.8652  14
  -3   0  -4 26.9315 53.7353  13
   3   0   4 88.8853 76.3187  11
  -3   0  -4 54.8122 54.6823  19
  -3   0  -5 59282.6 1949.55  13
  -3   0  -5 53733.7 1951.05  19
   3   0   5 57714.0 2013.49  14
   3   0   5 60514.7 2058.21  11
  -3   0  -5 55671.6 2002.65  17
   3   0   6 68.4177 78.8200  14
   3   0   6 137.789 104.992  11
  -3   0  -6-37.0418 60.3528  19
  -3   0  -6 38.9585 63.4749  17
   3   0   7 26908.6 1196.60  11
  -3   0  -7 27645.2 1227.58  15
  -3   0  -8 43.3689 61.1962  15
   3   0   8 63.8865 73.6020  11
   3   0   9 12761.4 515.708  11
   3  -1 -10 577.487 149.728  18
   3  -1 -10 569.085 142.141   5
   3   1 -10 721.586 162.714  18
   3  -1  -9 39798.8 1578.96  18
   3   1  -9 39744.7 1554.30   4
   3   1  -9 42576.1 1627.51   5
   3  -1  -9 38737.3 1553.59   5
   3  -1  -8 3219.18 421.226   2
   3   1  -8 3368.76 448.979   5
   3  -1  -8 3953.70 463.345   5
   3  -1  -8 3514.94 442.629  18
   3   1  -8 3201.13 416.432   4
   3  -1  -8 3871.04 461.080   4
   3  -1  -7 21433.8 1110.18   4
  -3   1   7 19126.6 1013.19  14
  -3  -1   7 18577.9 995.008  14
   3   1  -7 20037.4 1055.82   3
   3   1  -7 18321.0 1016.91   2
   3  -1  -7 20881.8 1084.72   2
   3  -1  -7 18018.4 1016.57   5
   3  -1  -7 18646.0 1049.61  18
   3  -1  -7 18609.8 1050.12  17
   3   1  -7 17883.3 1055.98  17
   3   1  -7 20611.2 1070.87   4
   3   1  -6 202.455 105.364   4
  -3   1   6 29.8128 59.4941  14
  -3  -1   6 58.1982 74.9630  14
   3   1  -6 30.1856 69.5536   2
   3  -1  -6 217.408 129.003   2
   3   1  -6-29.1581 58.1880   3
   3  -1  -6 65.7652 84.7078  18
   3  -1  -6 91.5089 78.5788   5
   3  -1  -6 99.3355 107.891  17
   3   1  -5 286933. 6668.76   3
   3  -1  -5 285083. 6715.28   3
   3   1  -5 285897. 6719.23   5
   3  -1  -5 302155. 6757.85   1
   3  -1  -5 286192. 6775.45  18
   3  -1  -5 291924. 6732.82   5
   3   1  -5 275447. 6667.81   2
   3  -1  -5 291049. 6728.73   2
   3  -1  -5 287801. 6779.68  17
   3  -1  -4 87968.3 2425.14   1
   3  -1  -4 90445.4 2469.29  18
   3  -1  -4 86878.8 2452.10  17
   3   1  -4 85727.7 2457.48  18
   3  -1  -4 90366.9 2281.58  22
  -3   1   3 2665.43 244.632  13
  -3  -1   3 2403.00 208.249  13
   3  -1  -3 2565.80 271.451  18
   3   1  -3 2702.77 286.495  18
   3  -1  -3 3271.19 295.731   1
   3  -1  -3 2947.01 273.031  22
   3  -1  -3 2951.64 283.891  17
   3   1  -3 3294.46 273.460  22
   3  -1  -2 46552.7 1393.96   1
   3  -1  -2 44926.8 1380.57  22
  -3   1   2 47454.5 1397.57  13
  -3  -1   2 47595.0 1327.23  13
   3  -1  -2 45666.0 1422.11  18
   3   1  -2 44462.9 1353.63  22
   3   1  -2 44080.8 1419.82  18
  -3   1   1 15801.6 667.276  13
  -3  -1   1 15446.7 630.379  13
   3  -1  -1 14216.8 631.849   1
   3   1  -1 15939.9 684.168  18
   3  -1  -1 15995.8 676.928  18
   3  -1  -1 13409.0 398.497   9
  -3  -1   1 15029.6 623.650  19
  -3   1   0 1634.88 204.639  13
  -3  -1   0 1879.32 210.767  13
   3   1   0 2253.36 214.881  23
   3  -1   0 1610.94 211.890  18
  -3  -1   0 1902.66 227.483  19
   3  -1   0 1709.75 160.916  23
   3  -1   0 1682.74 201.474   1
   3   1   0 1707.35 217.815  18
   3   1   0 1726.53 209.336  22
   3  -1   0 2363.04 250.563  22
   3  -1   1 105003. 2596.61  14
   3   1   1 100946. 2587.71   1
   3  -1   1 103636. 2612.42   1
   3  -1   1 105378. 2642.23  22
   3   1   1 104194. 2576.17  22
   3   1   1 101427. 2565.96  23
   3  -1   1 99372.4 2441.64  23
   3   1   1 102348. 2385.40  20
   3  -1   2 23428.3 924.211  14
  -3   1  -2 24731.9 971.976  13
   3   1   2 22153.8 755.882  20
   3   1   2 21919.1 853.890  22
   3   1   2 22086.7 924.694   1
  -3  -1  -2 26202.6 988.509  19
   3  -1   2 24105.2 946.388   1
   3  -1   2 24204.8 919.290  22
  -3   1  -3 14779.1 753.111  13
  -3  -1  -3 16125.3 784.277  13
   3   1   3 13744.4 745.305   1
   3   1   3 14075.4 749.877  11
   3  -1   3 14175.2 742.086  11
  -3  -1  -3 12597.1 700.809  19
   3   1   3 12932.4 563.114  20
   3  -1   3 14035.1 730.602  14
   3  -1   3 13966.9 752.121   1
   3  -1   4 92976.1 2696.97  14
  -3   1  -4 100710. 2735.39  13
  -3  -1  -4 95287.1 2701.23  13
   3   1   4 94681.1 2769.76  11
   3  -1   4 92399.2 2718.38  11
   3   1   5 83743.0 2602.55  14
   3  -1   5 81324.4 2559.35  14
  -3   1  -5 78428.8 2456.30  13
  -3  -1  -5 85084.6 2526.47  13
   3  -1   5 88034.6 2630.22  11
  -3  -1  -5 82619.0 2578.50  19
  -3  -1  -5 82249.5 2602.22  17
  -3   1  -5 81396.2 2595.35  17
  -3  -1  -5 85684.6 2527.98  15
   3  -1   6 4985.46 515.941   1
   3   1   6 5331.61 523.999  14
   3  -1   6 5340.63 518.022  14
   3  -1   6 5874.25 543.306  11
  -3  -1  -6 5828.74 564.241  19
  -3   1  -6 4980.95 521.043  19
  -3  -1  -6 4699.58 524.968  17
  -3   1  -6 4762.22 525.282  17
  -3   1  -6 5738.64 559.737  15
   3   1   6 5071.75 526.083   1
  -3  -1  -6 4727.15 473.963  15
  -3   1  -7 627.908 183.035  15
  -3  -1  -7 586.708 164.617  15
   3  -1   7 686.209 180.867  11
  -3   1  -8 4921.45 418.086  15
   3  -1   8 4260.28 366.835  11
   3  -1   9 21094.4 691.892  11
   3   1   9 20007.3 685.837  11
   3   2 -10 6851.43 474.744  18
   3  -2 -10 7007.26 469.259  18
   3  -2 -10 6832.29 478.733   4
   3   2  -9 948.193 210.888   4
   3  -2  -9 581.871 173.405  18
   3  -2  -9 596.714 175.819   5
   3   2  -9 709.411 193.532  18
   3   2  -8 1869.84 316.780   2
   3  -2  -8 2301.27 353.945  18
   3  -2  -8 2130.38 349.487   3
   3  -2  -8 2411.79 351.829   5
   3  -2  -8 2496.21 368.104   2
   3   2  -8 2703.36 390.189  18
   3   2  -8 2216.97 346.441   4
   3   2  -7 107432. 3158.94   3
  -3   2   7 107242. 3114.51  14
  -3  -2   7 110403. 3103.60  14
   3  -2  -7 110759. 3234.57   3
   3  -2  -7 104080. 3150.74  17
   3   2  -7 112210. 3235.10   5
   3   2  -7 107916. 3141.42   2
   3  -2  -7 111219. 3199.11   5
   3  -2  -7 108105. 3181.77   2
   3  -2  -7 103166. 3143.69  18
   3   2  -7 109993. 3267.05  18
   3   2  -7 102619. 3215.87  17
   3   2  -7 105562. 3127.63   4
  -3   2   6 62712.4 2049.01  14
  -3  -2   6 62218.2 2018.16  14
   3   2  -6 64343.5 2062.59   3
   3  -2  -6 64262.6 2128.18   3
   3   2  -6 64644.0 2121.89   5
   3   2  -6 61138.1 2039.57   2
   3  -2  -6 63129.0 2097.33   2
   3  -2  -6 62457.1 2087.30   5
   3  -2  -6 62775.2 2098.13  18
   3   2  -6 65570.7 2176.85  18
   3  -2  -6 63464.4 2105.14  17
   3   2  -6 60061.3 2128.31  17
   3   2  -6 60782.6 2017.18   4
   3   2  -5 1941.75 263.354   3
   3  -2  -5 3187.72 346.074   1
   3   2  -5 2007.71 280.146   5
   3  -2  -5 2375.61 310.705  18
   3   2  -5 2123.68 309.226  18
   3   2  -5 2228.20 291.473   2
   3  -2  -5 2606.30 318.035   2
   3   2  -5 1911.65 267.421   1
   3  -2  -5 2372.33 302.593  17
   3   2  -5 2206.57 303.743  17
   3  -2  -5 1911.90 275.175   5
   3   2  -5 1859.47 254.500   4
   3  -2  -4 62110.3 1739.26  22
   3   2  -4 61163.0 1801.89   1
   3  -2  -4 65533.5 1854.72   1
   3  -2  -4 63023.5 1868.81  18
   3   2  -4 59534.2 1874.16  18
   3  -2  -4 58433.3 1826.18  17
   3   2  -4 59032.8 1865.94  17
  -3  -2   3 2038.03 180.532  13
   3  -2  -3 2084.31 244.202  18
   3  -2  -3 1967.67 146.417   9
   3   2  -3 2417.39 270.291  18
   3  -2  -3 2320.85 255.365  17
   3   2  -3 2707.06 260.799   1
   3  -2  -3 2566.37 260.920   1
   3   2  -3 2291.89 263.487  17
   3  -2  -3 2469.10 259.621  22
   3  -2  -2 20185.5 787.930   1
  -3   2   2 17477.7 761.338  13
  -3  -2   2 18700.1 697.112  13
   3  -2  -2 17494.6 552.315   9
   3  -2  -2 18376.6 764.274  18
   3   2  -2 20170.5 808.656  18
   3  -2  -2 19056.0 782.823  22
   3   2  -2 18313.4 731.259  22
   3   2  -2 19302.7 748.332   1
  -3   2   1 7196.65 407.566  19
  -3   2   1 8134.49 480.286  13
   3  -2  -1 7353.24 309.917   9
   3   2  -1 7309.66 421.185   1
   3  -2  -1 7663.15 432.146   1
  -3  -2   1 7295.37 416.433  19
   3   2  -1 7288.01 452.889  18
   3  -2  -1 7428.12 443.177  18
   3  -2   0 17093.9 732.844  18
   3   2   0 16964.3 725.422  23
  -3   2   0 19205.5 805.592  13
   3   2   0 16526.5 718.848  22
   3  -2   0 17329.6 555.488  23
  -3   2   0 20950.1 811.656  19
  -3  -2   0 18887.3 793.125  19
   3  -2   0 19412.2 761.268   1
   3   2   0 18187.7 767.226  18
   3  -2   0 17697.6 779.378  22
   3   2   0 17097.1 727.139   1
   3   2   1 1472.57 197.108  14
   3  -2   1 1611.16 202.621  14
   3   2   1 1718.93 213.500   1
   3  -2   1 1343.01 190.179   1
   3   2   1 1449.30 177.073  20
   3   2   1 1276.69 196.217  23
   3  -2   1 1354.38 147.855  23
   3   2   1 1208.80 176.999  22
  -3   2  -1 1384.16 239.679  19
  -3  -2  -1 921.199 189.360  19
   3  -2   1 1184.07 190.157  22
   3   2   2 37807.7 1297.42  14
   3  -2   2 41146.7 1314.28  14
  -3   2  -2 40980.6 1387.40  13
   3  -2   2 37864.6 1302.85  22
   3  -2   2 39124.8 1314.65   1
   3   2   2 36187.6 1170.97  20
  -3   2  -2 38532.9 1314.16  19
  -3  -2  -2 42318.1 1351.11  19
   3   2   2 35825.3 1325.99  23
   3   2   2 37662.9 1311.58   1
   3  -2   3 145584. 3598.11  14
   3  -2   3 138444. 3476.52  22
  -3   2  -3 149615. 3692.41  13
   3   2   3 147260. 3669.06  11
   3  -2   3 143303. 3608.48  11
  -3  -2  -3 135306. 3575.75  19
  -3   2  -3 137997. 3597.11  19
   3   2   3 137559. 3638.93   1
   3  -2   3 147142. 3638.78   1
   3   2   3 144716. 3644.74  14
   3   2   3 132308. 3402.11  20
   3   2   4 3530.96 400.325   1
   3   2   4 4254.55 427.130  14
   3  -2   4 3822.62 393.795  14
   3  -2   4 3976.20 411.927   1
  -3  -2  -4 3989.11 406.798  19
  -3   2  -4 4772.10 445.352  13
  -3   2  -4 4345.65 417.736  19
  -3  -2  -4 4339.88 431.072  13
   3   2   4 3926.71 420.735  11
   3  -2   4 4088.04 417.178  11
   3   2   4 3910.29 350.882  20
   3   2   5 2591.32 357.763  14
   3  -2   5 2790.46 360.502  14
   3   2   5 2697.80 368.085   1
   3  -2   5 2425.48 349.346   1
  -3  -2  -5 2828.47 354.167  13
  -3   2  -5 2561.81 350.613  19
   3   2   5 2964.60 381.094  11
   3  -2   5 2274.72 338.801  11
  -3  -2  -5 2587.12 357.666  19
  -3  -2  -5 2598.18 369.405  17
  -3   2  -5 1841.68 311.195  17
  -3  -2  -5 2437.65 307.578  15
  -3  -2  -6 82249.9 2441.95  15
   3   2   6 78883.2 2538.13  14
   3  -2   6 80765.9 2517.36  14
   3   2   6 86781.0 2610.76  11
  -3   2  -6 85472.2 2665.51  19
  -3  -2  -6 87835.7 2695.26  19
   3  -2   6 84020.7 2549.51  11
  -3  -2  -6 83066.5 2699.13  17
  -3   2  -6 83846.0 2697.68  17
   3   2   6 80528.7 2571.72   1
   3  -2   6 77263.0 2534.60   1
   3   2   7 22511.3 1049.45  11
   3  -2   7 22913.3 1037.97  11
  -3   2  -7 24765.1 1181.90  15
  -3   2  -8 23.6673 47.2408  15
   3  -2   8 74.4477 60.6564  11
   3   2   8 195.738 90.2024  11
   3  -3 -10 1672.98 224.797   4
   3   3  -9 10503.1 697.086   5
   3   3  -9 11056.4 708.736  18
   3  -3  -9 10761.8 663.191   5
   3  -3  -9 11106.8 691.207  18
   3  -3  -9 10866.7 719.930   4
   3  -3  -8 30954.0 1401.14   4
   3  -3  -8 28265.6 1291.80  18
   3   3  -8 27099.0 1248.94   4
   3  -3  -8 30366.4 1375.32   3
   3   3  -8 29998.2 1353.56   5
   3  -3  -8 28965.7 1287.94   5
   3  -3  -8 28939.8 1308.24   2
   3   3  -8 28047.2 1260.34   2
   3   3  -8 28775.4 1332.36  18
   3   3  -7 193.743 128.944   4
   3   3  -7 318.562 151.381   2
   3  -3  -7 33.9992 78.4775   2
  -3   3   7 250.523 119.740  14
  -3  -3   7 332.083 134.775  14
   3   3  -7 331.935 153.261  17
   3  -3  -7 216.614 110.137   3
   3  -3  -7 403.585 150.126  18
   3   3  -7 291.704 145.584  18
   3   3  -7 178.645 116.511   5
   3  -3  -7 370.907 145.415   5
   3  -3  -7 407.989 146.622  17
   3   3  -6 27648.7 1175.91   3
  -3   3   6 29265.6 1204.22  14
  -3  -3   6 27292.8 1158.00  14
   3  -3  -6 27988.6 1257.89   3
   3   3  -6 26083.3 1155.16   4
   3   3  -6 25280.4 1149.77   2
   3   3  -6 27475.7 1237.36   5
   3  -3  -6 28741.0 1241.09   2
   3  -3  -6 26944.9 1210.41   5
   3  -3  -6 25196.9 1173.80  18
   3   3  -6 26390.2 1230.50  18
   3  -3  -6 27397.1 1210.77  17
   3   3  -6 26497.4 1234.43  17
   3   3  -5 22047.2 929.760   7
   3   3  -5 21479.7 934.009   3
  -3   3   5 23250.2 964.593  10
   3   3  -5 21274.2 990.967   5
   3   3  -5 20389.7 945.151   2
   3  -3  -5 22728.8 1013.38  18
   3   3  -5 21931.8 1034.05  18
   3  -3  -5 23427.0 1026.49   2
   3  -3  -5 22397.3 1021.17   5
   3   3  -5 21153.2 936.746   4
   3  -3  -5 21293.6 982.439  17
   3   3  -5 21355.7 1020.02  17
   3   3  -5 21951.5 923.127   8
   3  -3  -4 32649.7 1142.47  22
   3  -3  -4 32165.0 1173.83  17
   3   3  -4 32470.6 1147.02   1
   3  -3  -4 33467.4 1186.00   1
  -3   3   4 33340.7 1231.29  10
   3  -3  -4 31169.9 996.931   9
   3  -3  -4 31745.5 1175.72  18
   3   3  -4 31018.3 1208.56  18
   3   3  -4 31935.4 1218.12  17
   3  -3  -3 970.712 174.252  22
   3   3  -3 1073.94 165.852   1
   3  -3  -3 912.881 162.582  18
   3  -3  -3 1029.70 168.318   1
   3  -3  -3 1162.44 141.994   9
   3   3  -3 1453.07 215.079  18
   3  -3  -3 1241.69 186.553  17
   3   3  -3 1129.73 190.648  17
  -3   3   2 77801.1 2161.23  13
  -3  -3   2 76378.0 2054.07  19
  -3   3   2 75888.4 2039.47  19
   3   3  -2 78762.3 2116.81  18
   3  -3  -2 79951.7 2096.95  18
   3  -3  -2 72584.4 1880.27   9
   3  -3  -2 76086.7 2155.25  22
   3   3  -2 79158.0 2048.75   1
   3  -3  -2 80015.2 2085.69   1
   3   3  -1 5976.65 373.901   1
   3  -3  -1 5950.12 386.326   1
  -3   3   1 6388.63 450.917  13
  -3  -3   1 6452.26 390.239  19
  -3   3   1 5925.68 369.614  19
   3   3  -1 6007.20 409.047  18
   3  -3  -1 6018.57 392.877  18
   3  -3  -1 5983.83 319.055   9
   3   3   0 1891.67 240.086  18
  -3   3   0 2092.83 261.334  13
   3   3   0 1800.87 209.214   1
   3  -3   0 2087.32 224.153   1
  -3   3   0 1870.80 245.994  19
  -3  -3   0 1713.23 233.960  19
   3  -3   0 1638.59 210.021  18
   3  -3   0 1795.64 242.671  22
   3   3   1 178916. 4122.14  14
   3  -3   1 172751. 4092.19  14
  -3   3  -1 174342. 4250.18  13
   3  -3   1 160413. 3756.06  23
   3  -3   1 167427. 4184.51  22
  -3   3  -1 176497. 4204.74  19
   3   3   1 175792. 4082.45  20
  -3  -3  -1 171382. 4207.56  19
   3   3   1 176427. 4116.37   1
   3  -3   1 180059. 4119.50   1
   3  -3   2 10191.6 600.207   1
   3   3   2 10786.8 599.586  14
  -3   3  -2 10920.0 659.690  13
   3   3   2 10701.6 599.832   1
   3   3   2 10571.8 571.545  20
  -3  -3  -2 10562.1 586.732  19
  -3   3  -2 11985.9 619.201  19
   3  -3   2 11121.3 594.505  14
   3  -3   2 11094.1 628.835  22
   3   3   3 4564.98 405.118  14
   3  -3   3 4397.18 385.728  14
  -3   3  -3 4212.55 409.674  13
   3   3   3 4105.99 369.435  20
   3  -3   3 3796.59 372.274   1
   3   3   3 4234.00 396.805  11
   3  -3   3 3944.73 372.069  11
   3  -3   3 3747.80 353.416  22
  -3   3  -3 4299.97 385.117  19
  -3  -3  -3 4098.69 376.384  19
   3   3   3 3817.82 377.453   1
   3   3   4 51174.4 1715.48  14
   3  -3   4 48134.0 1647.64  14
  -3   3  -4 48629.2 1688.90  13
  -3   3  -4 49362.7 1689.07  19
   3   3   4 48985.0 1700.91  11
   3  -3   4 49342.4 1672.67  11
   3   3   4 45500.6 1584.28  20
  -3  -3  -4 47142.2 1670.34  19
   3   3   4 47561.4 1687.34   1
   3  -3   4 48868.2 1697.26   1
  -3  -3  -4 45952.0 1687.71  17
  -3   3  -4 49710.8 1711.81  17
   3   3   5 12566.5 789.720  14
   3  -3   5 14199.5 800.640  14
  -3  -3  -5 12579.7 799.004  13
   3   3   5 13695.5 822.359  11
   3  -3   5 14476.5 816.790  11
  -3   3  -5 13801.3 837.518  19
  -3  -3  -5 14031.9 845.349  19
   3   3   5 13539.1 824.916   1
   3  -3   5 13356.6 803.012   1
  -3  -3  -5 13254.0 850.822  17
  -3   3  -5 13363.3 842.197  17
   3   3   6 4234.06 443.413  11
   3  -3   6 3923.50 413.660  11
  -3   3  -7 499.065 180.055  15
   3   3   7 434.453 138.456  11
   3  -3   7 567.988 159.290  11
   3   3   8 40120.7 1282.20  11
   3  -3   8 42232.0 1273.50  11
  -3  -3  -8 39907.1 1355.72  18
  -3   3  -8 38244.4 1307.61  18
   3  -4 -10 64503.1 1798.69   4
   3  -4  -9 1236.04 230.173   4
   3  -4  -9 1381.55 205.220   5
  -3   4   9 1605.77 217.504  21
   3  -4  -9 887.568 176.996  18
   3   4  -9 1102.50 203.739  18
   3  -4  -8 31006.0 1379.10   4
   3  -4  -8 30242.7 1338.35   3
   3   4  -8 30588.3 1334.65   5
   3  -4  -8 28674.8 1231.02  18
   3   4  -8 27695.4 1245.56  18
   3  -4  -8 28999.2 1224.10   5
   3   4  -8 28438.5 1217.27   2
   3  -4  -8 26953.7 1213.87   2
  -3   4   7 2428.13 324.845  14
  -3  -4   7 2348.24 319.837  14
   3  -4  -7 1879.21 306.137   2
   3  -4  -7 2827.48 389.571   3
   3   4  -7 2542.69 339.095   2
   3   4  -7 2415.84 359.249   5
   3  -4  -7 2252.23 330.153   5
   3  -4  -7 2300.75 336.007  18
   3   4  -7 2449.09 350.939  18
   3  -4  -7 2046.07 315.958  17
   3   4  -7 1839.01 309.933  17
   3  -4  -6 1113.57 247.026   3
   3   4  -6 1235.72 230.029   4
  -3   4   6 1523.71 247.524  14
  -3  -4   6 1125.23 212.383  14
   3   4  -6 1091.17 219.919   2
   3  -4  -6 1287.60 247.514   2
   3   4  -6 1328.00 224.873   7
   3  -4  -6 1089.68 226.324  18
   3   4  -6 923.342 218.320  18
   3   4  -6 1070.30 227.739   5
   3  -4  -6 1555.39 268.640   5
   3  -4  -6 1093.07 224.455  17
   3   4  -6 990.806 225.248  17
   3   4  -5 6736.77 520.185   7
  -3   4   5 6965.79 520.709  10
   3   4  -5 6822.57 525.473   5
   3   4  -5 6244.42 488.882   2
   3  -4  -5 7944.61 560.409   2
   3  -4  -5 7591.84 538.551  18
   3   4  -5 6521.89 532.034  18
   3  -4  -5 6388.52 499.900  17
   3   4  -5 6017.58 517.062  17
   3   4  -5 6645.91 504.128   8
   3  -4  -5 7224.41 548.523   5
   3  -4  -4 48071.1 1571.34  18
   3   4  -4 48221.8 1632.10   7
   3   4  -4 49885.1 1545.71   1
   3  -4  -4 45086.8 1538.86   1
  -3   4   4 50257.8 1684.63  10
   3  -4  -4 49205.7 1470.03   9
   3   4  -4 51577.9 1660.98  18
   3  -4  -4 50562.7 1600.15  22
   3   4  -4 48148.5 1623.22  17
   3  -4  -4 50810.6 1589.39  17
   3   4  -4 47647.8 1611.55   8
   3  -4  -3 5015.19 338.917   9
   3  -4  -3 4637.71 377.352  18
   3  -4  -3 5163.75 374.733   1
   3   4  -3 4952.91 356.150   1
  -3   4   3 4789.77 438.901  10
   3  -4  -3 4891.96 412.354  22
   3   4  -3 4659.47 392.456  18
  -3   4   2 1871.88 207.953  19
   3   4  -2 1924.01 200.109  16
   3   4  -2 1569.40 211.255  18
   3  -4  -2 1909.98 222.218  18
   3  -4  -2 1915.32 199.474   9
   3   4  -2 1934.64 211.652   1
   3  -4  -2 2194.55 231.242   1
   3  -4  -2 1901.31 260.732  22
  -3  -4   2 1551.72 193.334  19
   3   4  -1 43937.4 1301.36   1
   3  -4  -1 46088.4 1347.54   1
  -3   4   1 41082.2 1453.62  13
  -3   4   1 48408.8 1369.92  19
  -3  -4   1 47919.9 1375.18  19
   3  -4  -1 40948.0 1261.18   9
   3   4  -1 42183.1 1347.55  18
   3  -4  -1 42206.4 1325.49  18
   3   4  -1 40868.7 1296.45  16
   3   4   0 102963. 2347.73   1
   3  -4   0 102322. 2371.43   1
   3   4   0 100246. 2529.29  23
   3  -4   0 94262.5 2529.77  22
   3  -4   0 98224.8 2351.91   9
  -3   4  -1 6227.33 491.077  13
   3   4   1 5806.70 466.334  23
   3   4   1 6196.01 448.373  20
  -3   4  -1 7116.44 450.434  19
  -3  -4  -1 6040.45 414.306  19
   3  -4   1 6491.43 486.898  22
   3  -4   1 6055.24 419.632   1
   3   4   1 6568.63 427.321   1
   3   4   2 4419.31 379.091  14
   3  -4   2 4684.84 376.831  14
   3   4   2 4622.89 382.374   1
   3  -4   2 4885.80 393.572   1
  -3   4  -2 4970.32 447.501  13
   3   4   2 4785.37 443.531  23
   3  -4   2 5224.46 435.372  22
   3   4   2 4078.05 380.926  20
  -3   4  -2 4522.74 367.072  19
  -3  -4  -2 4360.74 358.777  19
   3   4   3 51166.3 1654.99  14
   3  -4   3 50953.9 1633.31  14
  -3   4  -3 49821.6 1741.48  13
   3   4   3 50574.0 1793.11  23
   3   4   3 49537.0 1653.00   1
   3  -4   3 54487.5 1695.62   1
   3   4   3 50531.6 1653.14  11
   3  -4   3 48554.3 1619.41  11
   3  -4   3 49904.9 1659.03  22
   3   4   3 50134.7 1687.50  20
  -3   4  -3 50438.8 1635.51  19
  -3  -4  -3 51043.1 1630.77  19
   3   4   4 31228.0 1240.79  14
   3  -4   4 30438.6 1203.76  14
  -3   4  -4 28244.9 1211.66  13
  -3  -4  -4 30217.6 1225.93  19
   3   4   4 31404.2 1246.58   1
   3   4   4 29696.8 1133.64  21
   3   4   4 30074.1 1222.02  11
   3  -4   4 30823.9 1211.85  11
   3  -4   4 30422.2 1227.38   1
   3   4   4 29131.9 1338.58  23
   3   4   4 30329.0 1241.47  20
  -3   4  -4 31567.9 1248.83  19
  -3  -4  -4 29547.3 1252.15  17
  -3   4  -4 28921.3 1232.25  17
   3   4   5 7566.16 585.843  14
   3  -4   5 7806.11 575.061  14
   3   4   5 7387.75 526.237  21
   3   4   5 8844.89 620.947  11
   3  -4   5 7775.15 569.425  11
   3   4   5 7648.94 594.253   1
   3   4   5 7687.86 528.446   6
   3  -4   5 7182.54 573.408   1
   3   4   5 7476.98 574.137  20
  -3   4  -5 7513.81 599.718  19
  -3  -4  -5 8264.82 632.415  19
  -3  -4  -5 8176.54 642.361  17
  -3   4  -5 6826.02 587.417  17
   3   4   5 9309.04 717.662  23
   3   4   6 66547.4 2092.69  11
   3  -4   6 65670.6 2037.24  11
  -3   4  -7 409.046 145.226  15
   3  -4   7 342.164 109.071  11
   3   4   7 377.579 125.621  11
   3   4   7 537.958 137.175  16
  -3   4  -8 869.759 165.632  15
   3  -4   8 802.531 119.541  11
   3  -5 -10 5458.91 322.837   4
   3  -5  -9 4980.84 436.168   4
   3  -5  -8 40397.3 1576.38   4
   3   5  -8 35955.2 1351.92  18
   3  -5  -8 39428.5 1502.58   3
  -3   5   8 37293.2 1337.04  21
   3   5  -8 37203.6 1450.12   5
   3   5  -7 742.863 178.681   2
   3  -5  -7 889.735 197.869   2
   3  -5  -7 443.492 143.387  18
   3  -5  -7 650.633 189.629   3
   3   5  -7 520.999 153.347  18
   3   5  -7 611.774 182.174   5
   3  -5  -7 763.085 181.735   5
  -3   5   6 18833.7 897.396  14
   3   5  -6 18795.9 955.484   7
   3  -5  -6 21236.6 1078.27   3
   3  -5  -6 19736.6 954.566  18
   3  -5  -6 19665.3 950.171   2
   3   5  -6 19659.6 991.447   5
   3   5  -6 19634.5 932.798   2
   3  -5  -6 19795.7 977.252   5
   3   5  -6 20148.6 994.063  18
   3   5  -6 19004.1 984.652  17
   3   5  -6 19616.4 908.200   8
  -3   5   5 5905.54 446.329  14
  -3  -5   5 6285.02 462.761  14
   3   5  -5 6308.99 533.118   7
   3  -5  -5 6159.22 482.406  18
   3   5  -5 6202.52 491.633   5
   3   5  -5 5961.17 465.488   2
   3  -5  -5 6160.43 503.667   5
  -3   5   5 5719.51 495.704  10
   3   5  -5 6610.76 530.184  17
   3  -5  -5 6051.62 480.216  17
   3   5  -5 6224.19 513.522   8
   3   5  -5 6614.44 531.246  18
  -3   5   5 5850.77 459.618  21
   3   5  -4 4008.49 425.567   7
   3  -5  -4 3977.77 391.940  22
  -3   5   4 4011.20 428.880  10
   3  -5  -4 4836.79 388.682   9
   3   5  -4 4682.37 418.247  18
   3   5  -4 4439.58 428.916   8
   3   5  -3 19925.8 971.693   7
   3  -5  -3 21515.5 980.241  22
   3  -5  -3 19259.8 791.556   1
   3   5  -3 20059.5 786.781   1
  -3  -5   3 19959.6 807.485  19
  -3   5   3 20364.1 800.808  19
  -3   5   3 21413.5 1026.89  10
   3   5  -3 20394.4 855.684  18
   3  -5  -3 20770.9 849.127   9
   3   5  -3 19452.4 935.932   8
  -3  -5   2 283908. 6301.53  19
  -3   5   2 295502. 6321.91  19
   3   5  -2 277785. 6268.58   1
   3  -5  -2 282639. 6308.41   1
   3   5  -2 274013. 6352.81  18
   3  -5  -2 273590. 6362.99   9
   3   5  -2 278185. 6357.86  16
   3   5  -1 912.133 138.811   1
   3  -5  -1 983.056 150.970   1
   3   5  -1 733.600 142.881  21
  -3  -5   1 847.884 155.645  19
   3  -5  -1 1199.20 181.836   9
  -3   5   1 933.550 188.383  19
   3   5  -1 719.730 148.404  16
   3   5   0 22707.4 820.448   1
   3  -5   0 23466.8 857.041   1
  -3  -5   0 22599.8 892.914  19
   3   5   0 22539.3 876.421  21
  -3   5   0 23561.4 914.351  19
   3  -5   0 22887.1 917.999   9
   3   5   0 23425.1 933.298  16
   3   5   1 34407.3 1262.83   7
  -3   5  -1 35054.8 1360.70  13
   3   5   1 31306.7 1123.25  21
   3   5   1 33719.0 1108.07   1
   3  -5   1 32954.4 1124.21   1
   3  -5   1 32390.9 1293.53  22
   3   5   1 33608.2 1287.45  20
  -3   5  -1 34548.0 1115.19  19
  -3  -5  -1 31225.6 1095.77   9
  -3  -5  -1 32647.2 1081.74  19
   3   5   1 32744.5 1318.72  23
  -3   5  -2 40060.9 1508.30  13
   3   5   2 36800.3 1292.31  21
   3   5   2 38733.4 1491.83  23
   3   5   2 41242.2 1482.08  20
  -3   5  -2 39098.9 1279.58  19
  -3  -5  -2 37947.4 1252.13  19
  -3   5  -2 38363.2 1419.75  10
   3  -5   2 37792.7 1426.74  22
   3   5   2 39654.9 1310.56   1
   3  -5   2 39821.1 1323.01   1
   3   5   3 137.137 78.9910  14
   3  -5   3 88.8619 67.7117  14
  -3  -5  -3 23.0505 59.3787  17
   3   5   3 67.9107 63.8784   1
   3   5   3-32.2272 74.2519  23
   3   5   3 134.763 73.1846  11
   3   5   3 44.3753 51.1232  21
   3   5   3-29.6053 59.0740  20
  -3   5  -3 110.009 67.0602  19
   3  -5   3 46.4988 70.8627   1
   3  -5   3 26.3741 52.6275  22
  -3   5  -3 22.6571 36.9176  17
   3   5   4 753.538 174.319  14
   3   5   4 836.175 202.422  20
   3   5   4 1109.14 244.340  23
   3   5   4 711.022 164.566  21
   3   5   4 767.666 174.230  11
  -3   5  -4 703.509 170.518  19
   3   5   4 860.691 187.383   1
  -3   5  -4 616.515 161.217  17
   3   5   5 142.838 82.2915  21
   3   5   5 120.816 98.4281  20
   3   5   5 154.810 94.0081  11
   3  -5   5 24.3052 48.5288  11
   3   5   5 227.465 131.027  23
   3   5   6 10736.9 630.531  11
   3  -5   6 10798.8 609.231  11
   3   5   6 9399.95 627.021  16
   3  -5   7 334.182 91.2269  11
   3   5   7 307.207 95.6842  16
  -3   5  -8 40589.6 1255.06  12
   3  -6  -9 12055.4 626.173   4
   3  -6  -8 5375.07 489.796   4
   3  -6  -8 5573.26 461.580   3
   3   6  -7 2101.68 282.789   7
   3  -6  -7 1925.78 304.602   3
  -3   6   7 2278.13 286.082  21
   3   6  -6 1168.39 213.002   8
   3   6  -6 911.808 209.599   7
  -3   6   6 1371.74 227.637  21
   3   6  -6 1415.25 248.161   5
   3  -6  -6 1441.03 267.970   3
  -3   6   5 5309.19 445.761  21
   3   6  -5 5875.56 547.971   7
  -3   6   5 5197.81 486.706  10
   3   6  -5 5504.54 501.638   8
   3   6  -4 36820.2 1490.83   7
   3  -6  -4 35733.8 1373.55  22
  -3   6   4 36504.1 1460.13  10
   3  -6  -4 32819.3 1265.30   9
   3  -6  -4 33118.2 1291.15   5
   3   6  -4 35795.0 1418.69   8
   3   6  -3 36590.8 1452.00   7
   3  -6  -3 35414.0 1408.86  22
   3  -6  -3 34457.9 1271.42   9
  -3   6   3 34617.6 1451.08  10
   3   6  -3 33073.8 1374.75   8
   3   6  -2 2367.17 322.424   7
   3  -6  -2 1819.41 248.328   9
   3   6  -2 2079.30 263.089   6
  -3   6   2 2521.74 353.015  10
   3   6  -2 2627.15 289.300  16
   3   6  -2 2821.08 353.316   8
   3   6  -1 27829.4 1171.14   7
   3   6  -1 27933.7 1065.22  21
   3  -6  -1 27533.1 1082.04   9
   3   6  -1 27579.5 1077.02  16
   3   6  -1 27076.4 1170.94   8
   3   6   0 253088. 6063.55   7
   3   6   0 250374. 5914.33  21
  -3   6   0 268445. 6268.70  10
   3  -6   0 255889. 5977.76   9
   3   6   0 259013. 5984.63  16
   3   6   0 248827. 6025.23   8
   3   6   1 11324.9 698.025   7
   3   6   1 12630.0 764.502  23
   3   6   1 11399.6 652.434  21
   3   6   1 12969.3 780.217  20
  -3   6  -1 12875.1 771.138  10
   3  -6   1 10963.7 675.120   9
   3   6   1 11190.5 676.522  16
   3   6   1 12000.8 672.934   8
  -3   6  -2 4620.92 425.137  12
   3  -6   2 4788.24 464.497  22
   3   6   2 4811.97 425.785  21
   3   6   2 5201.64 494.107  20
  -3   6  -2 4462.84 433.128  10
  -3  -6  -2 5256.44 451.865   9
   3   6   2 5916.70 525.400  23
   3   6   3 422.749 134.437  21
   3   6   3 264.359 126.330  20
   3  -6   3 56.6102 73.0461  22
   3   6   3 336.849 150.351  23
   3   6   3 515.814 167.686  16
   3   6   4 30176.9 1369.96  23
   3   6   4 29453.8 1181.00  21
   3   6   4 27869.3 1287.54  20
   3   6   4 31430.5 1317.59  16
   3   6   5 1917.95 263.173  21
   3   6   5 1917.57 290.601  16
   3   6   6 42757.8 1471.45  16
   3   6   7 5952.85 383.911  16
  -3   6  -7 6657.77 493.141  15
  -3   6  -8 12712.3 508.553  12
   3  -7  -9 189.947 75.0575   4
   3  -7  -8 16891.1 836.184   4
   3   7  -7 4679.00 420.825   7
   3  -7  -7 5268.87 452.892   3
   3   7  -6 14081.2 843.489   7
   3  -7  -6 12915.1 771.301   3
  -3   7   6 12527.2 697.908  21
   3   7  -6 12250.9 717.689   8
   3   7  -5 11060.2 787.955   7
   3  -7  -5 11281.0 731.286   3
   3   7  -5 11317.4 746.901   8
   3   7  -4 33.9205 87.3838   8
   3   7  -4 184.737 127.692   7
  -3   7   4 34.2534 68.3565  10
   3  -7  -4 90.2313 84.8786  22
   3  -7  -4 165.553 95.3636   9
  -3   7   3 25992.2 1233.55  10
   3  -7  -3 24711.1 1161.26  22
   3   7  -3 23752.9 1172.03   8
  -3   7   2 163487. 4201.18  10
   3   7  -2 149646. 4024.04   7
   3   7  -2 142085. 3765.44   6
   3  -7  -2 143193. 3841.45   9
   3   7  -2 160254. 4116.56   8
   3   7  -1 152402. 4104.39   7
   3   7  -1 160227. 4011.07  21
  -3   7   1 165859. 4345.88  10
   3  -7  -1 165315. 4069.81   9
   3   7  -1 153885. 4013.65  16
   3   7  -1 149206. 4140.75   8
   3   7   0 13700.3 800.557   7
   3  -7   0 13155.8 761.900   9
   3   7   0 12651.5 736.063  21
   3   7   0 13908.8 773.169  16
   3   7   0 13949.3 801.029   8
   3   7   1 115732. 3303.01  20
   3   7   1 114803. 3151.81   7
   3   7   1 110857. 3070.44  21
  -3   7  -1 111842. 3228.65  10
   3  -7   1 119712. 3174.85   9
   3   7   1 105165. 3023.04   8
   3   7   1 113712. 3127.46  16
  -3   7  -2 12522.7 749.015  12
  -3   7  -2 13242.9 780.899  10
   3   7   2 15373.7 810.819  21
   3   7   2 14969.5 903.682  20
   3  -7   2 13590.6 830.090  22
   3   7   2 14162.8 861.156  23
   3  -7   2 14292.4 832.005   9
  -3   7  -3 29.9230 68.9599  12
   3   7   3 35.4555 81.7034  20
   3  -7   3 176.955 96.1072  22
   3   7   3 102.655 96.5686  23
   3   7   3 62.8418 95.7787  16
  -3   7  -4 1500.64 268.739  12
   3   7   4 1304.28 228.236  21
   3   7   4 1603.83 274.526  16
  -3   7  -5 14780.9 836.922  12
   3   7   5 13386.3 713.755  21
   3   7   5 15195.7 811.908  16
  -3   7  -6 988.067 199.986  12
   3   7   6 824.333 153.004   6
   3   7   6 839.508 167.740  16
  -3   7  -7 26121.3 906.563   7
  -3   7  -7 27059.7 959.191  12
   3  -8  -8 2566.67 266.809   4
   3   8  -7 8908.32 563.330   7
   3   8  -6 123.046 89.6661   8
   3   8  -6 93.6268 101.703   7
   3  -8  -6 71.9695 67.7182   3
   3   8  -5 11383.0 799.465   7
   3  -8  -5 10498.9 671.961   3
   3   8  -5 11968.1 773.690   8
  -3   8   4 20823.2 1081.46  10
   3  -8  -4 19900.8 1004.99  22
   3   8  -4 21863.9 1115.23   8
   3   8  -3 45804.5 1760.17   7
   3  -8  -3 43393.9 1682.02  22
  -3   8   3 45224.4 1751.39  10
   3   8  -2 1512.50 298.991   8
   3   8  -2 1151.08 252.733   7
   3   8  -2 1546.49 247.340   6
  -3   8   2 1566.85 300.093  10
   3  -8  -2 1594.57 272.998   9
   3   8  -1 82719.5 2604.70   7
  -3   8   1 90962.1 2789.58  10
   3  -8  -1 81264.5 2541.71   9
   3   8  -1 82984.4 2639.35   8
   3   8  -1 84503.1 2532.07  16
   3   8   0 2011.27 311.936   8
   3   8   0 1906.30 297.430   7
  -3   8   0 1782.15 307.683  10
   3  -8   0 2200.39 325.803   9
   3   8   0 2131.54 328.758  16
   3   8   0 1835.34 289.567  21
   3   8   1 39283.6 1510.86   7
   3   8   1 42643.7 1546.56  21
  -3   8  -1 39604.3 1564.46  10
   3  -8   1 38544.4 1534.97   9
   3   8   1 39385.6 1476.63   8
   3   8   1 40158.7 1541.78  16
   3  -8   2 3526.04 415.871  22
  -3   8  -2 3290.02 374.508  12
   3   8   2 3451.01 382.846  21
   3   8   2 2691.03 387.495  20
   3  -8   2 2696.16 359.986   9
  -3   8  -3 37551.1 1451.41  12
   3   8   3 35344.4 1389.05  21
   3   8   3 39082.5 1514.74  16
   3  -8   3 39055.5 1467.31  22
  -3   8  -4 1743.11 276.863  12
   3   8   4 1264.65 224.165  21
   3   8   4 1233.57 240.913  16
  -3   8  -5 3645.86 373.851  12
   3   8   5 2973.22 330.438  16
  -3   8  -6 12718.3 641.608  12
   3   8   6 11547.2 539.589   6
   3   8   6 12539.7 595.504  16
  -3   8  -6 13642.1 679.794  15
  -3   8  -7 11132.2 450.566   7
  -3   8  -7 11902.6 474.357  12
   3   9  -7 863.139 155.554   7
   3   9  -6 273.524 111.186   8
   3   9  -6 218.683 113.649   7
   3   9  -5 31839.7 1367.87   7
   3   9  -5 28820.4 1265.32   8
   3  -9  -4 2295.15 323.571  22
   3   9  -4 2545.37 367.586   8
   3   9  -3 45396.5 1784.22   7
   3  -9  -3 43603.1 1703.79  22
   3   9  -2 2900.41 399.978   7
   3   9  -2 3177.48 337.461   6
   3  -9  -2 2438.49 349.149   9
   3   9  -2 2916.54 415.069   8
   3   9  -1 37625.8 1527.60   7
  -3   9   1 38622.1 1609.59  10
   3  -9  -1 35899.6 1494.20   9
   3   9  -1 36912.5 1542.91   8
   3   9   0 2366.29 338.459   7
   3   9   0 2538.38 341.263  21
  -3   9   0 2296.01 348.551  10
   3  -9   0 2446.14 350.177   9
   3   9   0 2263.95 331.983   8
   3   9   0 2041.68 319.702  16
   3   9   1 35545.6 1395.39   7
   3   9   1 39394.6 1465.69  21
  -3   9  -1 35059.9 1428.90  10
   3  -9   1 36154.4 1474.31   9
   3   9   1 33369.3 1351.07   8
   3  -9   1 38253.7 1559.62  22
   3   9   1 36153.7 1462.50  16
  -3   9  -2 1007.55 208.591  12
   3   9   2 1141.82 221.288  21
   3  -9   2 1602.26 282.193  22
  -3   9  -3 2122.42 288.608  12
   3  -9   3 1564.49 250.755  22
   3   9   3 1532.10 243.015  21
   3   9   3 1976.97 313.486  16
  -3   9  -4 7225.50 517.969  12
   3   9   4 7161.57 491.679  21
   3   9   4 7687.01 556.585  16
  -3   9  -5 19484.5 826.981  12
   3   9   5 19321.4 827.360   6
   3   9   5 19334.8 833.993  16
   3   9   6 2515.60 192.860   6
  -3   9  -6 3777.07 269.076  12
   3 -10  -7 18303.5 631.853   4
   3  10  -7 18857.6 657.581   7
   3  10  -6 21.0765 54.2917   7
   3  10  -5 9744.23 622.158   8
   3  10  -4 811.506 207.350   8
   3  10  -4 921.624 223.434   7
   3 -10  -4 929.135 192.752  22
   3  10  -3 15163.7 896.120   7
   3 -10  -3 14357.8 850.385  22
   3  10  -2 5377.07 525.745   7
   3 -10  -2 6074.52 557.655  22
   3  10  -2 6817.75 592.409   8
   3  10  -1 5745.60 528.337   7
   3  10  -1 4373.40 417.710   6
   3  10  -1 4866.71 497.152   8
   3  10   0 1755.60 284.502   8
   3  10   0 1319.43 242.710   7
   3 -10   0 1766.27 306.232  22
   3  10   1 25623.3 1059.53   7
   3 -10   1 26631.3 1211.90  22
   3  10   1 26022.0 1118.58  21
   3  10   1 23609.0 1039.38   8
   3 -10   2 622.085 179.214  22
   3  10   2 1076.36 201.958  21
  -3  10  -3 45234.9 1471.51  12
   3 -10   3 45078.7 1481.44  22
   3  10   3 42400.7 1441.28  21
   3  10   3 47912.8 1622.33  16
  -3  10  -4 5131.78 377.994  12
  -3  10  -4 4854.18 397.066   7
  -3  10  -5 10951.9 493.885  12
  -3  10  -5 12719.7 578.064   7
   3  10   5 11639.3 538.340   6
   3  11  -6 8091.76 424.116   7
   3  11  -5 62452.6 1787.30   8
   3  11  -4 1092.88 206.462   8
   3  11  -4 791.308 183.387   7
   3  11  -3 18786.4 931.908   7
   3 -11  -3 18659.5 895.436  22
   3  11  -3 17710.3 910.189   8
   3  11  -2 4332.05 432.348   7
   3 -11  -2 3879.55 415.067  22
   3  11  -2 3284.87 383.882   8
   3  11  -1 7420.04 547.670   7
   3  11  -1 6776.83 544.258   8
   3  11   0 4817.87 409.425   7
   3  11   0 4787.81 411.665   6
   3 -11   0 5055.76 478.388  22
   3  11   0 4970.79 436.426   8
   3 -11   1 11016.8 686.585  22
   3  11   1 11699.9 606.262   8
  -3  11  -2 10303.8 551.663   7
   3 -11   2 10784.4 624.174  22
  -3  11  -3 5091.80 363.770   7
  -3  11  -4 2273.95 214.845   7
   3  11   4 2064.18 221.324   6
   3  12  -5 405.846 86.5467   7
   3  12  -4 19849.0 776.995   7
   3  12  -4 18414.5 744.803   8
   3  12  -3 9347.12 535.734   7
   3  12  -3 8458.34 513.086   8
   3  12  -2 169.116 91.1625   8
   3  12  -2 236.864 101.729   7
   3 -12  -2 87.1066 66.4345  22
   3  12  -1 267.365 108.814   8
   3  12  -1 466.641 124.546   7
   3 -12   0 12941.9 694.494  22
   3  12   0 12607.7 610.092   8
   3 -12   1 2902.68 296.758  22
   3  12   1 2485.05 246.331   6
   3  12   2 17702.4 713.061   6
  -3  12  -3 20108.2 686.990   8
   3  12   3 19235.0 704.581   6
   3  13  -3 2843.83 213.562   8
   3  13  -2 15967.2 608.818   8
   3  13  -1 227.729 68.5541   8
  -3  13   1 192.051 57.8589   8
  -3  13   0 2440.67 207.306   8
  -3  13  -1 1565.24 160.697   8
   4   0 -10 7985.25 477.124   5
   4   0  -9-26.4310 60.8947   4
   4   0  -9 28.4144 92.5805   2
   4   0  -9 58.5719 75.4362  18
   4   0  -9-29.0124 81.8644   5
   4   0  -8 67303.4 2254.54   3
   4   0  -8 70215.3 2305.52   2
   4   0  -8 68137.5 2292.81   5
   4   0  -8 66862.9 2328.16  18
   4   0  -8 68493.7 2239.96   4
   4   0  -7 33.0677 76.1852   4
  -4   0   7-32.1965 74.1780  14
   4   0  -7-36.8399 94.8942   2
   4   0  -7 34.1767 78.7402   3
   4   0  -7 80.8334 114.044  18
   4   0  -7 254.785 132.590   5
   4   0  -7 163.593 124.649  17
   4   0  -6 328883. 7812.41   4
   4   0  -6 333514. 7852.50   3
   4   0  -6 332776. 7947.20   2
   4   0  -6 344862. 8096.94  18
   4   0  -6 329715. 8055.16  17
   4   0  -5 61.2387 78.8764   1
   4   0  -5 30.8233 79.4018   2
   4   0  -5 83.2980 71.5272   3
   4   0  -5 33.9018 87.3310  18
   4   0  -5 29.9233 77.0835   5
   4   0  -5 33.9969 78.3314  17
   4   0  -4 1343.60 213.885  22
   4   0  -4 1578.76 256.453  11
   4   0  -4 1112.75 220.844   1
   4   0  -4 1599.97 271.790  18
   4   0  -4 1410.78 242.577   5
   4   0  -4 1905.79 278.145   2
   4   0  -4 1369.46 252.917  17
   4   0  -3-23.9488 55.1759   2
  -4   0   3 20.6787 41.2591  13
   4   0  -3-22.6097 73.6673  22
   4   0  -3 23.7432 54.7022  11
   4   0  -3 155.554 94.4419  18
   4   0  -3-24.1540 55.6487   1
   4   0  -2 4070.88 374.332   1
  -4   0   2 4716.61 405.165  13
  -4   0   2 4910.15 401.552  19
   4   0  -2 3788.52 381.518  18
   4   0  -2 4223.00 387.707  22
  -4   0   1 24.3981 79.4954  13
  -4   0   1-22.9903 64.8729  19
   4   0  -1-25.6253 88.5584  18
   4   0  -1-22.0938 56.9117   1
  -4   0   0 103832. 2794.12  13
   4   0   0 107015. 2824.59  22
   4   0   0 99557.1 2732.54   1
   4   0   0 105865. 2847.37  18
   4   0   1 26.8567 75.7833   1
  -4   0  -1 109.373 83.3380  13
   4   0   1 22.4621 51.7532   6
   4   0   1 52.0184 59.9250  11
  -4   0  -1 235.022 159.468  19
   4   0   1-20.1842 51.9941  23
   4   0   1 25.8505 78.7884  22
   4   0   2 15784.9 853.405  14
   4   0   2 14533.8 765.609  22
   4   0   2 15065.9 750.790   6
   4   0   2 14915.3 821.745  11
   4   0   2 13582.3 734.803  23
  -4   0  -2 14322.6 819.960  19
   4   0   2 14784.2 827.462   1
   4   0   3 31.3823 72.3025  14
  -4   0  -3 67.4793 86.9087  13
   4   0   3 110.618 80.5924  22
   4   0   3-27.7872 45.2691  23
   4   0   3-32.3043 52.6279   1
   4   0   3-31.0494 71.5354  11
  -4   0  -3-31.0301 79.9294  19
   4   0   4 188976. 4808.52  14
  -4   0  -4 194290. 4903.68  13
   4   0   4 185821. 4814.67   1
   4   0   4 185148. 4784.23  11
  -4   0  -4 175077. 4714.43  19
   4   0   4 171812. 4646.58  23
   4   0   5-35.6471 71.1277  14
   4   0   5-34.6315 79.7904  11
  -4   0  -5-36.2553 83.5314  19
   4   0   5 36.6648 84.4749   1
  -4   0  -5-38.0938 76.0092  17
  -4   0  -6 105.878 74.7178  15
   4   0   6 90.2985 104.040  11
   4   0   7-21.8254 66.5206  11
   4   0   8 16552.8 622.900  11
   4   1 -10 4072.04 332.067   5
   4  -1 -10 3577.78 306.753   5
   4  -1 -10 4016.68 313.586   4
   4   1  -9-24.7302 80.5773   4
   4  -1  -9-26.8533 75.7728   4
   4  -1  -9 111.937 101.942   2
   4  -1  -9 56.3708 85.9039  18
   4   1  -9 28.6039 73.6803   5
   4  -1  -9 84.7232 92.0164   5
   4   1  -8 35690.0 1471.63   3
   4  -1  -8 39172.1 1558.88   3
   4  -1  -8 38087.3 1569.86   2
   4  -1  -8 39407.6 1575.87   5
   4  -1  -8 36211.1 1543.22  18
   4   1  -8 37427.4 1478.42   4
   4  -1  -8 36822.5 1504.29   4
   4  -1  -7 21518.2 1100.86   4
  -4   1   7 18348.7 989.884  14
  -4  -1   7 17071.4 957.599  14
   4   1  -7 20313.7 1044.84   3
   4  -1  -7 22339.2 1121.06   3
   4  -1  -7 20404.0 1101.98   2
   4   1  -7 20652.2 1100.33   5
   4  -1  -7 18891.5 1067.43   5
   4  -1  -7 20762.1 1133.95  18
   4  -1  -7 18530.0 1086.21  17
   4   1  -7 18395.6 1112.73  17
   4   1  -7 18943.0 995.664   4
   4   1  -6 44965.1 1609.48   4
   4   1  -6 42499.0 1622.17   3
   4  -1  -6 45694.6 1709.70   3
   4   1  -6 43232.8 1705.69   2
   4   1  -6 46805.6 1732.09   5
   4  -1  -6 44365.9 1723.40   2
   4  -1  -6 45482.7 1746.53   5
   4  -1  -6 45617.0 1792.09  18
   4  -1  -6 45352.0 1789.39  17
   4   1  -6 42195.5 1773.85  17
   4   1  -5 4716.83 415.287   4
   4   1  -5 4163.79 411.922   3
   4   1  -5 5115.61 477.565   1
   4  -1  -5 5531.00 499.886   1
   4  -1  -5 4994.77 497.082  18
   4   1  -5 5326.96 491.380   5
   4  -1  -5 4951.78 480.744   5
   4   1  -5 5650.83 502.766   2
   4  -1  -5 4966.92 482.398   2
   4  -1  -5 4777.37 486.635  17
   4  -1  -4 163817. 4103.66  11
   4   1  -4 163730. 4100.09  11
   4  -1  -4 154763. 4111.70  18
   4  -1  -4 159800. 3966.29  22
   4   1  -4 160671. 4073.34   1
   4  -1  -4 157581. 4090.27   1
   4   1  -4 154550. 4019.49   5
   4   1  -4 166297. 4004.34   8
   4  -1  -4 155034. 4110.50  17
   4   1  -4 157113. 4071.10   2
   4  -1  -4 157490. 4091.91   2
   4   1  -3 5654.25 453.100   2
   4  -1  -3 5112.12 436.101   2
  -4   1   3 4982.87 415.716  13
  -4  -1   3 5428.54 402.494  13
   4  -1  -3 5513.52 443.069  22
   4   1  -3 4674.56 415.431  11
   4   1  -3 5271.21 423.993  22
   4  -1  -3 5114.05 445.515  18
   4  -1  -3 5339.23 440.043  11
   4   1  -3 5315.63 435.064   1
   4  -1  -3 5887.04 464.040   1
   4   1  -3 5670.21 445.266   8
   4   1  -2 2433.10 284.880   1
   4  -1  -2 3277.94 340.008   1
  -4   1   2 2546.78 309.059  13
  -4  -1   2 2548.09 293.299  13
   4   1  -2 2389.25 292.700  22
  -4  -1   2 2927.04 308.535  19
   4  -1  -2 2853.19 328.935  18
   4  -1  -2 2661.40 318.006  22
  -4   1   1 3419.97 361.777  13
   4   1  -1 3219.33 326.012   1
   4  -1  -1 3989.13 357.878   1
  -4  -1   1 3269.72 337.966  19
   4  -1  -1 3158.30 353.546  18
   4   1   0 145.780 84.0889   1
  -4   1   0 133.117 92.1191  13
  -4  -1   0 320.743 117.274  13
   4  -1   0 242.181 100.691   1
   4   1   0 122.964 74.7936  23
   4  -1   0 1126.67 216.360  22
  -4  -1   0 62.1646 107.512  19
   4   1   0 1174.81 213.593  22
   4  -1   0 265.279 133.281  18
  -4   1  -1 3550.99 391.326  13
  -4  -1  -1 3460.68 366.964  13
   4  -1   1 3223.36 328.369   6
   4   1   1 2865.17 314.263  23
   4  -1   1 2930.39 339.671  11
   4  -1   1 3826.16 398.051  22
   4   1   1 2592.80 316.407  22
   4   1   1 2686.31 324.145  11
   4   1   1 2935.11 345.654   1
   4  -1   1 3144.41 351.615   1
   4  -1   1 3126.21 286.716  23
   4   1   1 2960.27 323.436   6
  -4  -1  -1 2247.64 349.432  19
   4  -1   2 269087. 6381.26  14
  -4   1  -2 286230. 6528.67  13
   4  -1   2 269849. 6194.44   6
   4  -1   2 263277. 6306.12  22
   4   1   2 264781. 6372.28  11
   4  -1   2 263691. 6338.68  11
   4   1   2 267628. 6201.59  22
  -4  -1  -2 293086. 6461.50  19
   4  -1   2 248521. 6103.26  23
   4   1   2 257900. 6208.58   6
   4   1   2 266318. 6405.46   1
   4  -1   2 275615. 6411.76   1
   4   1   2 264664. 6319.80  23
   4  -1   3 5928.61 523.061  14
   4   1   3 6142.69 549.923   1
   4  -1   3 5891.42 534.922   1
  -4   1  -3 6738.91 583.961  13
  -4  -1  -3 5932.45 545.599  13
   4   1   3 4903.10 426.215   6
   4  -1   3 4799.31 423.197  22
   4   1   3 6418.72 559.275  11
   4  -1   3 5506.68 503.472  11
   4  -1   3 5095.98 444.890  23
   4   1   3 4775.95 476.321  23
  -4  -1  -3 5925.51 523.133  19
   4   1   4 21506.9 1115.24  14
   4  -1   4 21013.4 1088.88  14
  -4   1  -4 21684.0 1140.87  13
  -4  -1  -4 23843.8 1175.48  13
   4   1   4 20886.3 1115.49   1
   4  -1   4 22612.2 1137.33   1
   4  -1   4 21773.5 1091.95  11
  -4  -1  -4 22794.6 1121.97  19
   4   1   4 22395.1 1123.31  23
   4  -1   4 20503.0 1003.76  23
   4  -1   5 133.635 121.732  11
   4  -1   6 24949.9 1128.30  11
  -4   1  -6 24231.6 1113.71  15
   4  -1   7 16842.3 776.034  11
  -4   1  -7 16067.7 757.116  15
   4   1   8 1040.08 138.743  11
   4  -1   8 1201.63 144.561  11
   4  -2 -10 10119.9 485.117   5
   4  -2 -10 10239.1 512.705   4
   4  -2  -9 29548.8 1207.70   2
   4   2  -9 29386.2 1228.17  18
   4   2  -9 29161.8 1181.13   2
   4   2  -9 30461.8 1234.35   5
   4  -2  -9 30877.8 1223.93   5
   4  -2  -9 28767.7 1190.07  18
   4  -2  -9 30870.5 1221.39   4
   4   2  -8 169.478 97.6883   4
   4  -2  -8 363.173 147.348   4
   4   2  -8 95.2157 89.6358   2
   4  -2  -8 232.291 137.881   2
   4  -2  -8 265.200 142.933  18
   4   2  -8 215.469 124.162  18
   4   2  -8 334.964 154.391   5
   4  -2  -8 67.1181 102.350   5
  -4   2   7 4536.04 468.024  14
  -4  -2   7 4797.52 467.492  14
   4   2  -7 4709.86 471.435   3
   4   2  -7 5068.98 508.191   2
   4  -2  -7 5678.88 549.709   2
   4   2  -7 5645.67 545.836   5
   4  -2  -7 4734.15 506.800   5
   4   2  -7 6572.71 613.709  18
   4  -2  -7 4855.20 522.721  17
   4   2  -7 4736.13 537.269  17
   4  -2  -7 5489.80 544.660  18
   4   2  -7 4704.39 462.391   4
   4   2  -6 55938.7 1891.79   3
   4   2  -6 58849.6 2016.15   5
   4   2  -6 56873.9 1993.94   2
   4  -2  -6 60007.8 2062.01   2
   4  -2  -6 58598.0 2071.14  18
   4   2  -6 59156.5 2115.63  18
   4  -2  -6 60916.4 2079.32   5
   4  -2  -6 55332.1 2039.31  17
   4   2  -6 51335.4 2034.75  17
   4   2  -6 56541.5 1860.04   4
   4   2  -5 1313.75 223.403   8
   4   2  -5 1122.21 231.653   2
   4  -2  -5 1211.59 248.799   2
   4   2  -5 808.040 193.057   1
   4  -2  -5 1187.53 239.685   1
   4  -2  -5 954.018 226.763  18
   4   2  -5 775.882 213.845  18
   4   2  -5 830.393 174.659   3
   4   2  -5 924.849 206.270   5
   4  -2  -5 1158.62 237.442   5
   4   2  -5 1017.12 238.463  17
   4  -2  -5 1054.37 233.694  17
   4   2  -4 5781.34 447.045   7
   4   2  -4 6011.76 440.366   3
   4   2  -4 6612.60 505.856   1
   4  -2  -4 7382.26 547.179   1
   4  -2  -4 6104.62 505.752  18
   4   2  -4 6456.59 532.103  18
   4   2  -4 5359.44 458.289   5
   4   2  -4 6451.82 496.299   8
   4   2  -4 6029.80 494.555   2
   4  -2  -4 7378.87 551.220   2
   4  -2  -4 6186.13 484.643  22
   4  -2  -3 4118.70 396.901  11
   4   2  -3 4934.00 410.017   6
   4   2  -3 4103.25 387.353  11
  -4  -2   3 4397.84 411.795  19
  -4   2   3 5052.00 421.795  19
   4  -2  -3 5027.08 437.356  22
   4   2  -3 4195.20 418.048  18
   4  -2  -3 4634.17 425.050  18
   4   2  -3 4667.73 404.107   1
   4  -2  -3 5079.01 426.120   1
   4   2  -3 4721.81 417.472   8
   4   2  -3 4683.08 411.458   2
   4  -2  -3 4416.79 404.756   2
   4   2  -2 19573.1 876.821   1
   4  -2  -2 19203.7 877.409   1
  -4   2   2 20100.1 942.068  13
  -4  -2   2 21114.4 897.966  13
  -4  -2   2 18786.9 874.575  19
  -4   2   2 18821.6 851.784  19
   4   2  -2 19522.0 930.660  18
   4  -2  -2 19467.7 907.329  18
   4  -2  -2 19821.3 936.145  22
  -4   2   1 354.034 133.149  13
  -4  -2   1 232.243 110.368  13
   4   2  -1 262.084 102.760  22
  -4  -2   1 246.654 117.210  19
   4   2  -1 157.504 86.0444   1
   4  -2  -1 201.864 85.7726   1
   4   2  -1 78.6028 95.5157  18
   4  -2  -1 49.8876 81.3556  18
  -4   2   1 212.081 97.9429  19
  -4   2   0 4104.78 417.978  13
  -4  -2   0 4558.86 402.999  13
   4   2   0 3524.64 357.472  23
   4  -2   0 3671.64 396.339  22
   4   2   0 4290.57 393.969   1
   4   2   0 3929.41 373.009   6
   4  -2   0 4208.16 396.336   1
  -4   2   0 2803.70 372.563  19
  -4  -2   0 2720.31 371.985  19
   4   2   0 4170.72 393.152  11
   4   2   0 3703.67 372.183  22
   4  -2   0 3624.06 361.426  11
   4   2   0 4702.75 394.099   8
   4   2   1 27974.7 1184.12  11
  -4  -2  -1 30513.9 1219.67  13
   4   2   1 30781.6 1214.35  23
   4  -2   1 29526.3 1247.75  22
   4  -2   1 27072.8 1159.90  11
  -4   2  -1 31096.4 1306.54  19
  -4  -2  -1 31154.0 1324.18  19
   4   2   1 28030.3 1140.35   6
   4   2   1 30046.4 1224.62   1
   4  -2   1 30656.2 1237.09   1
   4   2   1 28940.0 1132.90   8
  -4   2  -2 16305.5 922.786  13
   4   2   2 15331.4 857.723  23
   4   2   2 15402.9 860.847  11
   4  -2   2 14136.4 811.049  11
  -4  -2  -2 16619.3 878.970  19
  -4   2  -2 16863.2 870.094  19
   4   2   2 15399.1 795.005   6
   4  -2   2 16998.5 875.955  22
   4   2   2 16865.2 894.040   1
   4  -2   2 15979.1 863.439   1
   4   2   3 16258.4 920.096  14
   4  -2   3 16549.8 898.732  14
   4   2   3 16269.2 928.309   1
   4  -2   3 15435.2 890.616   1
  -4   2  -3 18171.9 1000.13  13
  -4  -2  -3 17449.7 966.303  13
   4   2   3 15252.5 803.034   6
   4   2   3 17219.0 958.739  23
   4   2   3 16083.6 904.493  11
   4  -2   3 16375.5 884.948  11
  -4   2  -3 15812.9 884.519  19
  -4  -2  -3 16643.8 915.377  19
   4  -2   3 16020.6 823.598  22
   4   2   4 150033. 3998.33  14
   4  -2   4 147251. 3916.62  14
   4   2   4 140805. 3969.68   1
   4  -2   4 146093. 3939.62   1
  -4   2  -4 142551. 3984.26  13
  -4  -2  -4 152787. 4034.30  13
   4   2   4 136697. 3947.62  23
   4   2   4 150821. 3984.30  11
   4  -2   4 144146. 3881.95  11
  -4   2  -4 138160. 3881.21  19
  -4  -2  -4 141378. 3914.33  19
   4   2   5 35001.6 1445.25  11
   4  -2   5 32590.8 1379.67  11
  -4   2  -6 1552.58 269.785  15
   4   2   6 1914.21 285.260  11
   4  -2   6 2167.44 299.699  11
   4  -2   7 15384.6 707.790  11
   4   2   7 15834.4 732.469  11
  -4   2  -7 14699.7 726.632  15
   4  -2   8 12003.0 451.565  11
   4   2   8 11028.9 448.154  11
   4  -3 -10 1355.84 169.797   4
   4  -3  -9 737.600 170.534   4
   4   3  -9 810.802 174.325  18
   4  -3  -9 670.108 159.258  18
   4   3  -9 829.951 182.793   5
   4  -3  -9 522.927 141.761   5
   4  -3  -8 8181.79 634.154   4
   4  -3  -8 7775.47 620.135   3
   4   3  -8 7855.96 583.288   2
   4  -3  -8 8613.09 631.403   2
   4   3  -8 6847.11 573.245   5
   4  -3  -8 7972.33 607.913   5
   4  -3  -8 7520.35 587.765  18
   4   3  -8 8311.71 635.528  18
   4  -3  -7 26209.6 1254.02   3
   4   3  -7 23829.3 1144.60   2
   4  -3  -7 25779.3 1209.56   2
   4   3  -7 24894.6 1189.22   5
   4  -3  -7 26446.7 1242.09   5
   4  -3  -7 24153.1 1177.17  18
   4   3  -7 23902.8 1216.83  18
   4   3  -7 21446.5 1024.35   4
   4   3  -6 1671.18 257.973   3
  -4   3   6 1627.74 274.321  14
   4  -3  -6 1785.24 307.817   2
   4  -3  -6 2319.94 354.983   3
   4   3  -6 2014.14 319.019   5
   4   3  -6 1918.85 303.326   2
   4  -3  -6 2389.78 354.350   5
   4  -3  -6 1565.08 284.363  18
   4   3  -6 1589.66 302.445  18
   4   3  -6 1867.40 323.407  17
   4  -3  -6 1754.05 300.812  17
   4   3  -5 2878.24 325.133   7
   4   3  -5 2763.45 349.911   1
   4  -3  -5 2963.76 369.383   1
  -4   3   5 2542.62 332.621  10
   4   3  -5 2672.61 337.181   5
   4  -3  -5 3290.42 387.290  18
   4   3  -5 2426.47 349.531  18
   4   3  -5 3446.49 387.419   2
   4  -3  -5 2525.10 356.069   5
   4  -3  -5 3307.96 394.075   2
   4   3  -5 2712.38 335.058   8
   4   3  -5 3083.64 398.068  17
   4  -3  -5 2733.30 355.064  17
   4   3  -4 34565.2 1290.80   7
   4  -3  -4 37797.1 1377.55  22
   4   3  -4 31943.0 1283.32   1
   4  -3  -4 33727.2 1330.56   1
   4   3  -4 35663.0 1296.39   5
   4   3  -4 35845.2 1411.99  18
   4  -3  -4 34157.2 1339.21  18
   4   3  -4 33000.3 1300.26   2
   4  -3  -4 33717.9 1337.50   2
   4   3  -4 34793.7 1338.34   8
   4   3  -3 7184.44 519.701   7
   4  -3  -3 6585.30 494.788  11
   4   3  -3 7258.59 514.362  11
   4   3  -3 6686.33 486.950   6
  -4  -3   3 6832.47 515.790  19
  -4   3   3 6249.08 468.797  19
   4   3  -3 6675.41 487.464   1
   4   3  -3 7043.66 540.358  18
   4  -3  -3 7088.50 520.965  18
   4  -3  -3 6315.66 488.056   1
   4   3  -3 6051.75 495.611   8
   4  -3  -3 7339.20 553.444  22
   4   3  -3 6432.82 479.956   2
   4  -3  -3 6856.73 504.758   2
   4   3  -2 3450.20 352.172   7
  -4   3   2 3655.01 389.516  13
  -4  -3   2 3483.18 345.428  13
   4  -3  -2 4260.70 379.140  11
   4   3  -2 3814.73 363.808  11
   4   3  -2 4413.39 398.274   6
  -4  -3   2 3638.66 358.337  19
  -4   3   2 4110.65 370.998  19
   4  -3  -2 3116.31 367.040  22
   4   3  -2 3670.78 388.421  18
   4  -3  -2 3625.19 367.490  18
   4   3  -2 4204.93 370.916   1
   4  -3  -2 3977.21 367.807   1
   4   3  -1 37215.5 1314.94   1
   4  -3  -1 35563.7 1306.86   1
  -4   3   1 38069.8 1450.64  13
  -4  -3   1 36218.9 1333.08  13
   4   3  -1 37502.1 1357.57   6
  -4   3   1 42113.2 1424.11  19
  -4  -3   1 40535.2 1440.17  19
   4   3  -1 38756.1 1414.24  18
   4  -3  -1 36424.4 1355.18  18
   4   3  -1 35770.8 1333.56   8
   4   3  -1 33078.6 1272.27  11
   4  -3   0 7799.74 536.523   1
   4   3   0 7864.72 554.090   7
  -4   3   0 8468.50 618.022  13
  -4  -3   0 7482.96 535.231  13
   4  -3   0 8095.46 597.448  22
   4   3   0 9161.79 578.147   1
   4   3   0 8525.34 587.633  23
   4  -3   0 7592.20 529.349  11
   4   3   0 8614.42 567.530  11
   4   3   0 7583.06 543.876   6
  -4   3   0 6283.02 565.821  19
   4  -3   0 7709.06 416.962   9
   4   3   0 8571.28 550.791   8
   4   3   1 1419.89 226.077   8
   4  -3   1 1493.93 261.774  22
   4  -3   1 1674.50 253.788  11
   4   3   1 1631.56 253.360   6
   4   3   1 1482.84 246.583  11
   4   3   1 1802.22 272.434   1
  -4   3  -1 1842.28 294.646  19
  -4  -3  -1 1607.75 268.506  19
   4  -3   1 1556.93 249.393   1
   4   3   1 1120.39 227.501  23
  -4   3  -2 5784.84 538.415  13
  -4  -3  -2 5264.99 490.757  13
   4  -3   2 4766.73 460.894  22
   4   3   2 5052.72 492.241  23
   4   3   2 4527.24 448.714  11
   4   3   2 4262.02 421.457   6
   4  -3   2 4428.19 432.090  11
  -4   3  -2 4394.65 422.880  19
  -4  -3  -2 5476.45 474.741  19
   4   3   2 5066.19 473.999   1
   4  -3   2 5245.99 474.517   1
   4   3   3 69429.5 2252.07  14
   4  -3   3 69627.2 2204.96  14
  -4   3  -3 69880.1 2316.12  13
  -4  -3  -3 72735.2 2337.62  13
   4   3   3 62928.5 2247.86  23
   4  -3   3 67106.6 2111.37  22
   4   3   3 65602.7 2081.07   6
   4   3   3 67166.8 2209.38  11
   4  -3   3 67750.1 2171.64  11
  -4   3  -3 68665.9 2181.56  19
  -4  -3  -3 68054.2 2191.33  19
   4   3   3 71549.3 2264.70   1
   4  -3   3 69760.5 2215.96   1
   4   3   4 12628.4 828.212   1
   4   3   4 13399.4 844.847  14
   4  -3   4 13800.8 827.329  14
   4  -3   4 12143.5 800.529   1
  -4   3  -4 12230.4 824.396  13
  -4  -3  -4 14348.3 897.947  13
   4   3   4 14803.6 863.596  11
   4  -3   4 13182.2 801.434  11
  -4   3  -4 14397.8 841.019  19
  -4  -3  -4 14128.7 845.226  19
   4   3   4 14411.8 910.903  23
  -4  -3  -4 13505.7 857.192  17
  -4   3  -4 14188.3 854.756  17
   4   3   4 13370.2 726.081   6
   4   3   5 27578.7 1228.82  11
   4  -3   5 28767.3 1216.43  11
   4   3   6 33521.9 1284.58  11
   4  -3   6 32698.4 1241.16  11
   4   3   7 15763.3 686.384  11
   4  -3   7 16387.0 675.859  11
   4   3   7 13879.5 647.584  16
  -4   3  -7 15222.8 733.238  15
   4  -4  -9 45698.1 1408.16   5
   4  -4  -8 27250.3 1205.13   3
   4   4  -8 24948.3 1064.15   2
   4  -4  -8 27568.7 1137.29   2
   4   4  -8 27182.0 1156.59   5
   4  -4  -8 26668.9 1134.95   5
   4   4  -8 25232.9 1115.35  18
   4  -4  -8 25555.7 1092.20  18
   4  -4  -7 12223.7 813.253   3
   4   4  -7 11036.3 704.792   2
   4  -4  -7 11096.7 726.708   2
   4   4  -7 12199.7 764.153   5
   4  -4  -7 11632.4 763.271   5
   4   4  -7 11500.5 759.268  18
   4  -4  -7 10178.3 696.659  18
   4   4  -6 3851.48 377.956   7
  -4   4   6 3803.84 401.821  14
  -4  -4   6 3491.23 385.353  14
   4  -4  -6 4408.40 482.716   3
   4   4  -6 3754.06 415.882   5
   4   4  -6 4030.20 422.638   2
   4  -4  -6 4635.00 467.968   2
   4  -4  -6 4473.75 472.016   5
   4   4  -6 3764.85 440.479  18
   4  -4  -6 3581.04 413.516  18
   4   4  -6 4124.65 397.921   8
   4   4  -5 13420.1 767.558   7
   4  -4  -5 13232.5 796.230   1
  -4   4   5 13141.5 805.640  10
   4   4  -5 12097.9 735.252   5
   4   4  -5 13025.8 760.201   2
   4  -4  -5 14430.4 817.691   2
   4   4  -5 14830.9 865.223  18
   4  -4  -5 13835.8 799.630  18
   4  -4  -5 13593.3 828.652   5
   4   4  -5 13841.9 796.774   8
   4   4  -4 28.7685 66.2807   8
   4   4  -4-24.7770 57.0848   2
   4  -4  -4 53.5908 69.0215   2
   4   4  -4-27.9936 78.9902   7
   4  -4  -4 202.648 105.458  22
   4   4  -4-24.5702 40.0286   1
  -4  -4   4 110.105 83.8947  19
  -4   4   4 150.239 91.2157  19
  -4   4   4 32.9171 65.6784  10
   4   4  -4 59.2771 83.6316  18
   4  -4  -4 79.4319 74.7116  18
   4   4  -4-22.5326 44.9589   5
   4  -4  -4 78.7948 74.1123   1
   4   4  -3 73103.8 2233.56   7
   4   4  -3 71599.1 2132.37   6
   4  -4  -3 74485.0 2165.88  11
   4   4  -3 69846.7 2114.81  11
   4  -4  -3 70119.1 2273.04  22
  -4  -4   3 76497.9 2210.48  19
  -4   4   3 73692.4 2137.55  19
   4   4  -3 70790.1 2111.24   1
   4  -4  -3 74355.1 2179.98   1
   4   4  -3 72917.2 2239.20  18
   4  -4  -3 77765.7 2218.95  18
   4   4  -3 71045.3 2228.33   8
   4   4  -3 70049.3 2100.43   2
   4  -4  -3 70045.5 2145.35   2
   4   4  -2 4800.53 397.295   2
   4  -4  -2 4926.32 413.850   2
   4   4  -2 4751.24 397.994  11
   4   4  -2 4308.42 422.595   7
  -4  -4   2 4688.39 401.186  13
   4  -4  -2 4766.85 469.784  22
   4  -4  -2 4777.98 407.765  11
  -4   4   2 5300.21 431.335  19
  -4  -4   2 5002.35 430.605  19
   4   4  -2 4779.47 428.491   6
   4   4  -2 4264.46 426.148  18
   4  -4  -2 5210.89 440.496  18
   4   4  -2 5216.64 408.588   1
   4  -4  -2 4431.47 394.035   1
   4   4  -2 4456.99 429.768   8
   4   4  -1 3933.92 362.081   1
   4  -4  -1 4802.88 405.000   1
  -4   4   1 5415.56 496.957  13
   4   4  -1 4125.75 375.782  11
   4   4  -1 5110.03 447.987   6
  -4   4   1 5185.38 481.023  19
  -4  -4   1 4628.51 446.503  19
   4   4  -1 4785.98 450.127  18
   4  -4  -1 5290.12 446.909  18
   4  -4  -1 4577.01 390.658  11
   4   4  -1 4922.94 434.787   8
   4   4  -1 4558.37 377.183  16
   4   4   0 8125.73 587.140   7
  -4   4   0 7932.60 627.275  13
   4   4   0 8447.75 549.560   1
   4  -4   0 7297.56 517.742   1
   4  -4   0 8328.70 624.885  22
   4  -4   0 8663.19 550.325  11
   4   4   0 8211.09 548.168  11
  -4   4   0 6510.97 579.118  19
  -4  -4   0 6822.95 568.427  19
   4  -4   0 7883.35 465.144   9
   4   4   0 8382.44 567.541   8
  -4   4  -1 104338. 3074.60  13
   4   4   1 106595. 3057.45  23
   4   4   1 104699. 2882.14  11
   4  -4   1 100095. 2981.54  22
   4   4   1 103575. 2864.62   1
   4   4   1 100595. 2912.00   6
   4  -4   1 102512. 2867.92   1
   4  -4   1 103956. 2846.37  11
  -4   4  -1 113669. 2915.07  19
  -4  -4  -1 105111. 2872.90  19
   4   4   1 100094. 2805.09   8
   4  -4   2 8223.18 615.017  22
  -4   4  -2 7576.61 631.517  13
   4   4   2 6634.55 594.239  23
   4   4   2 6174.48 519.586  11
   4   4   2 8594.19 613.947   6
  -4   4  -2 7532.82 540.075  19
  -4  -4  -2 7099.72 532.701  19
   4   4   2 7776.37 584.303   1
   4  -4   2 7563.25 575.631   1
   4  -4   2 7622.04 553.206  11
   4  -4   3 3318.26 377.081  22
  -4   4  -3 2727.90 381.713  13
   4   4   3 4067.11 466.886  23
   4   4   3 3271.75 380.985  11
   4  -4   3 3686.39 394.465  11
   4   4   3 3211.43 369.473   6
  -4   4  -3 3179.80 365.447  19
  -4  -4  -3 3220.73 368.559  19
   4   4   3 3004.77 369.486   1
   4  -4   3 3261.32 381.924   1
  -4   4  -4 2533.54 354.781  13
  -4  -4  -4 4092.93 472.208  13
   4   4   4 3267.98 384.876  11
   4   4   4 2813.76 391.433  23
   4  -4   4 2712.31 339.240  11
  -4   4  -4 3109.20 374.437  19
  -4  -4  -4 3662.77 404.175  19
  -4  -4  -4 3257.11 400.413  17
  -4   4  -4 3083.78 377.995  17
   4   4   4 2504.83 342.062   1
   4  -4   4 3570.83 404.051   1
   4   4   4 3403.53 364.767   6
   4   4   5 35883.5 1384.27  11
   4  -4   5 36968.9 1363.42  11
   4   4   6 307.066 110.244  11
   4  -4   6 198.721 88.7981  11
   4  -4   7 63824.3 1674.27  11
  -4   4  -7 68314.5 1895.69  15
   4  -5  -9 2096.58 247.057   4
   4  -5  -8 1193.61 233.140   3
   4   5  -8 1146.89 200.594   5
   4  -5  -8 1363.19 211.557   5
   4  -5  -7 33513.7 1404.95   3
   4   5  -7 30568.6 1195.19   2
   4  -5  -7 32285.4 1248.02   2
   4   5  -7 32267.6 1277.22   5
   4  -5  -7 33981.8 1330.90   5
   4   5  -7 30136.0 1242.66  18
   4  -5  -7 34012.3 1267.50  18
   4   5  -6 6704.10 532.966   7
   4  -5  -6 8116.29 649.985   3
   4   5  -6 7158.26 530.564   2
   4   5  -6 7370.34 555.413   5
   4  -5  -6 6685.91 535.737   2
   4  -5  -6 8343.09 623.651   5
   4   5  -6 7121.66 572.450  18
   4  -5  -6 7220.18 551.140  18
   4   5  -6 8559.11 584.146   8
   4   5  -5 44952.8 1644.75   7
  -4   5   5 42322.5 1493.38  14
  -4   5   5 44402.5 1525.19  19
  -4   5   5 44272.5 1677.30  10
   4   5  -5 41331.0 1483.56   5
   4   5  -5 41301.4 1498.69   2
   4  -5  -5 44111.0 1565.48   2
   4   5  -5 44820.4 1632.87  18
   4  -5  -5 45501.4 1578.30  18
   4  -5  -5 46414.6 1682.79   5
   4   5  -5 45100.9 1640.38   8
   4   5  -4 1081.55 228.949   8
   4  -5  -4 1084.32 226.740  22
   4   5  -4 1428.68 226.758   1
   4   5  -4 972.378 191.678   2
   4  -5  -4 980.215 195.415   1
   4   5  -4 957.519 218.584   7
  -4   5   4 957.648 189.576  19
  -4   5   4 1077.26 234.411  10
   4   5  -4 1074.23 233.558  18
   4  -5  -4 992.829 197.900  18
   4   5  -3 48190.7 1707.20   7
   4   5  -3 43316.1 1507.52   6
   4  -5  -3 45716.1 1714.75  22
  -4  -5   3 46695.2 1545.32  19
  -4   5   3 45379.4 1501.01  19
   4   5  -3 43313.8 1443.74   1
   4  -5  -3 43409.4 1485.83   1
  -4   5   3 43144.9 1732.75  10
   4   5  -3 45561.8 1590.48  18
   4  -5  -3 46881.5 1564.06  18
   4   5  -3 42971.5 1448.71   2
   4   5  -3 44791.3 1661.17   8
   4   5  -2 358.904 146.259   8
   4  -5  -2 408.865 161.907  22
   4   5  -2 213.242 106.485   6
   4   5  -2 185.240 97.8857  11
  -4   5   2 24.9725 170.263  19
  -4  -5   2 407.930 146.934  19
  -4   5   2 178.486 123.466  10
   4   5  -2 180.936 92.7702   1
   4   5  -2 442.327 160.211  18
   4  -5  -2 505.381 144.138  18
   4  -5  -2 196.344 106.739   1
   4   5  -1 362557. 7676.96   7
   4   5  -1 346736. 7356.16  11
   4   5  -1 352203. 7616.12   6
   4   5  -1 340703. 7338.13   1
   4   5  -1 372147. 7667.45   8
   4   5  -1 361393. 7422.22  16
   4  -5  -1 363346. 7428.46   1
   4   5   0 22100.0 1048.73   7
   4   5   0 21491.3 903.841   1
   4  -5   0 21477.1 918.758   1
   4   5   0 19560.8 889.049  11
   4   5   0 21349.3 1030.49   6
  -4   5   0 24264.1 1010.27  19
  -4  -5   0 23522.6 984.140  19
   4  -5   0 21493.5 1108.38  22
   4  -5   0 21390.8 893.983   9
   4   5   0 20603.0 983.249   8
   4   5   0 19309.1 925.743  16
  -4   5  -1 21978.8 1126.25  13
   4   5   1 21437.1 935.651   1
   4  -5   1 20978.7 939.210   1
   4  -5   1 22354.3 1109.12  22
   4   5   1 20770.6 939.145  11
   4   5   1 21794.6 1064.79   6
  -4   5  -1 23832.7 968.765  19
   4  -5   1 20938.2 945.162   9
   4   5   1 21131.4 972.339   8
  -4   5  -2 6969.13 609.023  13
   4  -5   2 7032.40 580.716  22
   4   5   2 6451.29 505.527  11
   4   5   2 6564.64 505.297   1
   4   5   2 6566.16 567.613   6
   4  -5   2 6326.08 501.399   1
  -4   5  -2 7218.17 515.710  19
  -4   5  -2 6071.23 543.136  10
   4  -5   3 6839.88 550.150  22
   4  -5   3 7031.18 525.086  11
   4   5   3 7220.36 575.314   6
   4   5   3 6606.45 545.116  20
  -4   5  -3 5853.97 479.540  19
   4   5   3 5961.36 490.724  11
  -4   5  -3 5999.27 499.029  17
   4   5   4 516.368 156.800   6
   4   5   4 335.493 119.264  11
   4  -5   4 541.214 144.788  11
   4   5   5 18979.3 832.771   6
   4   5   5 19047.4 872.504  11
   4  -5   5 19317.8 847.486  11
   4   5   5 20116.6 970.185  16
   4   5   6 1826.23 240.810  16
  -4   5  -7 4703.95 304.022  12
   4  -6  -9 54335.5 1535.60   4
   4  -6  -8 2378.90 297.848   4
   4  -6  -8 2677.57 302.045   3
   4  -6  -7 15427.4 848.151   3
   4  -6  -7 15304.1 759.322   5
   4   6  -6 779.767 181.068   8
   4   6  -6 1004.42 207.036   7
   4  -6  -6 1217.05 249.498   3
   4   6  -5 14791.3 877.708   7
  -4   6   5 13636.6 851.462  10
   4  -6  -5 15040.5 844.457   5
   4   6  -5 15155.0 868.354   8
   4   6  -4 6966.29 608.288   7
   4  -6  -4 6045.51 539.712  22
  -4   6   4 6251.63 584.093  10
   4   6  -4 6112.26 551.051   8
   4   6  -3 202443. 5076.91   7
   4   6  -3 188164. 4707.73   6
  -4   6   3 193704. 5095.66  10
   4  -6  -3 195715. 5048.09  22
   4  -6  -2 26923.0 1312.82  22
   4   6  -2 27185.7 1180.99   6
  -4   6   2 29339.2 1362.14  10
   4   6  -2 29402.7 1306.82   8
   4   6  -2 27480.9 1086.13  16
   4   6  -1 1520.19 280.523   7
   4   6  -1 2126.12 310.950   6
   4   6  -1 2458.19 340.821   8
   4   6  -1 1687.24 256.446  16
   4   6   0 14359.0 855.525   7
   4  -6   0 16084.2 963.950  22
   4   6   0 14361.7 856.312   6
  -4   6   0 15917.3 955.316  10
   4  -6   0 14058.6 748.802   9
   4   6   0 13852.5 811.549   8
   4   6   0 14656.2 791.956  16
  -4   6  -1 44387.3 1694.81  10
   4  -6   1 40892.0 1480.93   9
   4  -6   1 43811.6 1693.52  22
   4   6   1 41550.7 1508.86   8
   4   6   1 39873.1 1529.97  16
   4  -6   2 10501.8 726.602  22
   4   6   2 11274.9 801.175  23
   4   6   2 10342.1 741.208   6
  -4   6  -2 10411.1 712.797  10
   4  -6   2 9556.23 652.628   9
   4   6   2 11137.2 729.658  16
   4   6   3 73.8278 85.0817  23
   4  -6   3 199.793 98.6676  22
   4   6   3 97.5113 105.933   6
  -4   6  -4 1597.90 255.922  12
   4   6   4 1560.41 254.557   6
   4   6   4 1855.53 304.186  16
  -4   6  -5 367.770 121.495  12
   4   6   5 216.709 88.1097   6
   4   6   5 405.647 133.977  16
  -4   6  -6 3860.99 316.317  12
   4   6   6 3835.53 322.418  16
   4  -7  -8 12524.7 637.678   4
   4  -7  -8 12240.7 576.410   3
   4  -7  -7 7911.85 540.139   3
   4   7  -6 3125.30 366.007   7
   4  -7  -6 4185.31 428.417   3
   4   7  -6 3495.26 364.882   8
   4   7  -5 7523.13 630.300   7
   4  -7  -5 8615.51 583.303   5
   4   7  -5 8530.21 635.728   8
   4   7  -4 24750.4 1239.55   7
   4  -7  -4 23190.2 1131.78  22
  -4   7   4 24735.3 1215.87  10
   4  -7  -4 24467.8 1087.03   5
   4   7  -4 25033.5 1203.50   8
   4   7  -3 14540.9 757.104   6
  -4   7   3 15487.7 960.913  10
   4  -7  -3 15625.6 933.685  22
   4   7  -2 34691.3 1508.46   7
   4  -7  -2 35036.5 1554.71  22
   4   7  -2 36580.0 1408.29   6
  -4   7   2 36073.5 1586.37  10
   4   7  -2 38795.8 1578.58   8
   4   7  -1 129631. 3624.02   7
   4   7  -1 128971. 3560.62   6
  -4   7   1 128402. 3776.66  10
   4   7  -1 133767. 3656.01   8
   4   7  -1 129826. 3457.05  16
   4   7   0 29320.4 1293.05   7
   4  -7   0 29657.7 1400.94  22
   4   7   0 29294.4 1300.70   6
  -4   7   0 29030.1 1360.03  10
   4  -7   0 27500.1 1167.79   9
   4   7   0 28224.2 1229.40   8
   4   7   0 25873.6 1162.48  16
   4   7   1 1291.92 239.945   8
   4  -7   1 1642.87 301.761  22
  -4   7  -1 1735.05 300.566  10
   4  -7   1 1430.41 241.022   9
   4   7   1 1199.20 243.515  16
   4   7   2 1551.28 297.233   6
   4  -7   2 1366.59 261.458  22
   4   7   2 1544.51 280.557  16
   4  -7   3 4193.00 412.949  22
   4   7   3 4264.90 447.159   6
  -4   7  -4 8032.87 528.620  12
   4   7   4 8774.13 589.564   6
   4   7   4 8708.54 617.425  16
  -4   7  -5 7073.04 452.148  12
   4   7   5 7344.08 455.183   6
   4   7   5 8496.27 533.705  16
  -4   7  -6 9849.53 432.121  12
   4  -8  -8 81.2163 51.7429   4
   4  -8  -7 113.010 58.8565   3
   4   8  -6 8487.89 576.642   7
   4  -8  -6 8139.06 538.108   3
   4   8  -6 7827.94 514.515   8
   4   8  -5 2510.69 355.203   7
   4  -8  -5 2567.33 323.756   3
   4   8  -5 2726.02 348.478   8
   4   8  -4 14470.1 899.513   7
   4  -8  -4 12888.1 785.495  22
   4   8  -4 13269.8 843.049   8
   4  -8  -3 208.614 113.366  22
   4   8  -2 48856.9 1845.81   7
   4   8  -2 48506.3 1680.06   6
   4  -8  -2 49098.1 1893.88  22
   4   8  -2 50696.8 1897.47   8
   4   8  -1 11675.8 785.230   7
   4   8  -1 11909.6 761.716   6
  -4   8   1 11779.4 838.392  10
   4   8  -1 11987.3 804.544   8
   4   8  -1 12463.0 746.649  16
   4  -8   0 6566.11 612.706  22
   4   8   0 5666.22 530.410   7
   4   8   0 5343.44 514.241   6
  -4   8   0 4935.08 526.711  10
   4   8   0 5084.16 488.761   8
   4   8   0 5831.62 507.786  16
   4  -8   1 33963.8 1464.76  22
   4   8   1 34049.9 1451.12   6
   4   8   1 32375.7 1278.66   8
   4   8   1 33718.9 1376.41  16
   4   8   2 42935.6 1666.22   6
   4  -8   2 42052.7 1590.47  22
   4   8   2 42959.2 1606.84  16
   4  -8   3 282.508 112.059  22
   4   8   3 526.207 165.141   6
   4   8   4 11907.8 659.709   6
   4   8   4 12443.6 698.420  16
   4   8   5 6398.37 425.103  16
   4   8   5 6256.98 375.632   6
  -4   8  -6 5485.50 303.690   7
   4   9  -6 673.415 149.317   7
   4   9  -5 1681.26 259.257   8
   4   9  -5 1558.62 267.127   7
   4  -9  -5 1291.59 200.516   3
   4  -9  -4 35362.2 1353.91  22
   4   9  -4 37940.7 1475.04   8
   4   9  -3 6279.13 566.856   7
   4  -9  -3 5727.48 530.179  22
   4   9  -3 6994.49 597.745   8
   4   9  -2 12342.1 814.542   7
   4   9  -2 13896.4 730.459   6
   4  -9  -2 14454.4 877.807  22
   4   9  -2 13844.9 861.169   8
   4   9  -1 790.566 213.080   8
   4   9  -1 858.347 214.205   7
   4   9  -1 817.066 192.754   6
   4   9   0 62376.1 2066.73   7
   4   9   0 62629.1 2069.69   6
   4  -9   0 63684.5 2175.18  22
   4   9   0 59162.0 1979.84   8
   4   9   0 63489.5 2033.35  16
   4   9   1 929.548 184.516   8
   4  -9   1 1365.38 254.648  22
   4   9   1 1360.91 263.011   6
   4   9   1 1485.56 256.137  16
   4  -9   2 23652.1 1055.07  22
   4   9   2 25538.7 1116.59  16
   4   9   3 2893.89 331.200   6
   4   9   4 163.139 75.3692   6
   4   9   4 179.432 82.8807  16
  -4   9  -5 77.5020 53.6538   7
   4   9   5 18.6769 28.4689   6
   4  10  -6 35006.3 1095.41   7
   4  10  -5 16196.0 758.986   7
   4  10  -5 15745.8 732.351   8
   4  10  -4 9924.59 627.300   8
   4 -10  -3 12874.3 740.823  22
   4  10  -3 12669.5 758.822   7
   4  10  -3 12935.0 758.449   8
   4  10  -2 17349.6 906.402   7
   4 -10  -2 16556.8 897.255  22
   4  10  -2 17049.5 896.620   8
   4  10  -1 1533.43 253.895   8
   4  10  -1 1560.82 262.178   7
   4  10  -1 1677.44 238.059   6
   4 -10   0 17077.9 901.894  22
   4  10   0 15535.0 795.994   6
   4  10   0 14942.0 770.210   8
   4 -10   1 2935.76 342.646  22
   4  10   1 2942.92 336.480   6
   4 -10   2 12341.4 642.034  22
  -4  10  -3 1745.02 205.538   7
   4  10   3 1953.74 235.873   6
  -4  10  -4 35538.9 1066.08   7
   4  10   4 38111.7 1102.55   6
   4  11  -5 3199.81 243.241   8
   4  11  -4 43997.7 1394.25   7
   4  11  -4 45441.1 1396.26   8
   4  11  -3 14239.0 701.250   7
   4 -11  -3 12864.4 648.144  22
   4  11  -3 13306.8 679.757   8
   4  11  -2 24596.6 992.155   7
   4 -11  -2 23266.5 985.725  22
   4  11  -2 23475.6 970.890   8
   4  11  -1 6906.22 471.387   8
   4 -11   0 9488.84 578.758  22
   4  11   0 8843.90 488.273   6
   4  11   0 8447.31 478.636   8
   4 -11   1 132.613 72.4134  22
   4  11   1 85.0287 65.0091   6
   4  11   2 64616.3 1770.72   6
   4  12  -3 3002.75 240.806   8
   4  12  -2 1368.92 170.060   8
   4  12  -1 772.212 119.331   8
   5   0  -9 7908.73 496.992   2
   5   0  -9 7755.03 502.415   5
   5   0  -9 7940.26 516.446  18
   5   0  -8 22.8127 58.7636   4
   5   0  -8-28.0903 91.5252   2
   5   0  -8 78.7159 67.5880   3
   5   0  -8 122.167 105.549  18
   5   0  -7 474.153 142.700   4
   5   0  -7 434.208 172.377   2
   5   0  -7 543.994 174.375   3
   5   0  -7 560.820 172.584  18
   5   0  -6 26.2127 67.5201   4
   5   0  -6 143.726 101.388   1
   5   0  -6 69.4027 89.3855   2
   5   0  -6 31.0525 71.5422   3
   5   0  -6-78.7824 120.056  18
   5   0  -6-34.5352 68.9063   5
   5   0  -5 21168.0 1024.54   3
   5   0  -5 18768.9 1028.91   1
  -5   0   5 21160.8 1099.57  19
   5   0  -5 21389.4 1141.54  18
   5   0  -5 20825.1 1074.02   5
   5   0  -5 20135.2 1055.70   2
   5   0  -4 93.5170 95.0075   2
   5   0  -4-28.1806 85.8895  22
   5   0  -4 31.5657 72.7257  11
   5   0  -4-31.9166 82.2133   1
  -5   0   4-34.3797 68.5970  19
   5   0  -4-34.6976 154.804  18
   5   0  -4-31.2384 80.4664   5
   5   0  -3 6245.60 527.781   2
   5   0  -3 6154.19 526.157  11
   5   0  -3 7994.01 601.993  22
  -5   0   3 6597.50 571.540  19
   5   0  -3 7240.26 608.989  18
   5   0  -3 6690.80 549.054   1
   5   0  -2-30.0241 69.1729   1
   5   0  -2-63.5130 103.470  22
   5   0  -2 58.1179 57.9798  11
  -5   0   2 33.8301 67.4994  19
   5   0  -2 168.953 102.986  18
   5   0  -1 35201.5 1435.27   1
  -5   0   1 39793.8 1581.55  13
   5   0  -1 35483.9 1427.81  11
   5   0  -1 37891.4 1520.51  22
  -5   0   1 32388.5 1542.06  19
   5   0  -1 39387.4 1601.15  18
  -5   0   0 36.4072 83.8810  13
   5   0   0-34.4079 79.2748  22
   5   0   0 29.4537 67.8610   6
   5   0   0 96.1334 110.743  11
  -5   0   0 85.1649 189.983  19
   5   0   0 32.6880 65.2231   1
  -5   0  -1 39883.3 1648.57  13
   5   0   1 39756.1 1489.56   6
   5   0   1 35341.9 1509.84  11
   5   0   1 36920.9 1539.56  22
   5   0   1 36047.7 1544.07   1
  -5   0  -1 42320.1 1657.20  19
   5   0   2-36.5980 73.0293   1
   5   0   2-34.8978 144.949  11
  -5   0  -2-67.5857 102.999  19
  -5   0  -3 56196.6 2126.12  13
   5   0   3 57314.3 2039.17  11
  -5   0  -3 55867.4 1990.71  19
   5   0   3 54705.6 2046.03   1
   5   0   4-34.3017 96.7919  11
   5   0   5 144665. 3825.28  11
   5   0   6 60.0656 61.0349  11
   5   0   7 534.469 90.9179  11
   5   1  -9 1302.54 197.291   2
   5  -1  -9 1505.90 213.240   2
   5  -1  -9 1421.38 213.709   5
   5   1  -9 1515.44 222.710  18
   5  -1  -9 1398.57 209.466  18
   5   1  -9 1192.85 198.835   5
   5  -1  -8 24.3704 62.7745   4
   5  -1  -8 27.6815 71.3034   2
   5  -1  -8-26.8349 69.1226   3
   5  -1  -8-29.0739 82.0378  18
   5   1  -8-28.2535 65.0937   5
   5  -1  -8 85.2810 86.6395   5
   5  -1  -7 16431.4 875.115   4
   5   1  -7 16342.5 865.187   3
   5  -1  -7 16412.1 909.360   3
   5  -1  -7 16675.6 941.634   2
   5   1  -7 17158.0 940.728   5
   5  -1  -7 17159.7 955.177   5
   5  -1  -7 16547.1 963.078  18
   5   1  -7 14713.7 774.485   4
   5  -1  -6 1658.77 276.611   4
   5   1  -6 1208.10 257.244   1
   5  -1  -6 1182.37 256.061   1
   5   1  -6 1714.24 296.956   2
   5  -1  -6 1348.77 283.180   2
   5   1  -6 1520.48 255.480   3
  -5  -1   6 1195.10 242.859  19
  -5   1   6 1175.40 242.554  19
   5  -1  -6 1299.47 252.698   3
   5  -1  -6 1666.75 312.963  18
   5   1  -6 1887.93 307.154   5
   5   1  -5 6341.39 510.693   3
   5   1  -5 5860.15 542.002   1
   5  -1  -5 6122.92 552.639   1
  -5  -1   5 4835.66 501.715  19
   5   1  -5 5763.37 538.236   5
   5  -1  -5 5723.76 565.128  18
   5   1  -5 6061.32 548.668   2
   5  -1  -5 5826.07 539.211   2
   5   1  -4 3112.89 339.268   3
   5  -1  -4 3493.86 402.377  11
   5  -1  -4 3598.76 398.856  22
  -5  -1   4 3033.31 398.313  19
   5   1  -4 2873.40 367.591   1
   5  -1  -4 3098.81 385.697   1
   5  -1  -4 2684.05 378.857  18
   5   1  -4 2959.83 366.899   5
   5   1  -4 3832.20 423.468   2
   5  -1  -4 2870.92 365.187   2
  -5   1   3 46231.9 1684.72  13
   5  -1  -3 44679.6 1648.94  11
   5  -1  -3 47917.9 1736.15  22
  -5  -1   3 48860.8 1792.65  19
   5  -1  -3 48777.5 1782.06  18
   5   1  -3 47978.3 1713.67   1
   5  -1  -3 45102.5 1682.12   1
   5   1  -3 47714.2 1694.17   2
   5  -1  -3 44466.2 1660.35   2
  -5   1   2 3872.54 453.256  13
  -5  -1   2 4624.75 482.398  13
   5  -1  -2 3878.68 408.943  11
   5  -1  -2 4388.09 462.031  22
  -5  -1   2 4643.39 488.038  19
   5  -1  -2 4096.27 455.296  18
   5   1  -2 3892.97 423.571  22
   5   1  -2 4120.54 427.080   1
   5  -1  -2 3751.11 413.340   1
  -5   1   1 548.977 179.185  13
  -5  -1   1 761.116 207.357  13
   5  -1  -1 952.274 228.691  22
   5   1  -1 326.234 135.916  22
   5   1  -1 597.316 175.749   6
   5   1  -1 403.480 143.407   1
   5  -1  -1 391.607 155.552  11
   5  -1  -1 585.986 166.980   1
  -5  -1   1 559.504 216.196  19
   5  -1  -1 522.120 208.623  18
  -5   1   0 26418.5 1265.23  13
  -5  -1   0 24926.2 1200.01  13
   5   1   0 20970.9 1089.18   1
   5  -1   0 23860.6 1130.96   1
   5   1   0 26107.2 1141.82   6
   5  -1   0 21809.7 1082.82  11
   5   1   0 22945.7 1142.63  22
   5  -1   0 23921.4 1174.31  22
  -5   1  -1 40854.3 1688.64  13
  -5  -1  -1 36814.6 1578.96  13
   5   1   1 37563.1 1467.77   6
   5  -1   1 36698.9 1515.49  11
   5  -1   1 37840.1 1563.54  22
   5   1   1 39053.9 1576.10   1
   5  -1   1 35899.8 1529.86   1
  -5  -1  -1 40639.7 1603.23  19
  -5   1  -2 6323.63 622.911  13
   5   1   2 5202.10 485.587  23
   5   1   2 5832.32 497.182   6
   5  -1   2 5088.52 492.713  22
   5  -1   2 5649.19 550.065  11
   5   1   2 6897.75 613.855   1
   5  -1   2 5410.82 542.944   1
  -5  -1  -2 5708.64 540.839  19
  -5   1  -3 138260. 3869.60  13
  -5  -1  -3 133216. 3811.00  13
   5   1   3 131800. 3401.32   6
   5   1   3 119950. 3485.37  23
   5  -1   3 130783. 3640.12  11
  -5  -1  -3 123065. 3588.31  19
   5   1   3 129430. 3734.52   1
   5  -1   3 131558. 3705.76   1
   5  -1   4 919.818 221.467  11
   5  -1   5 4219.36 415.981  11
   5  -1   6 4690.99 370.275  11
   5  -1   7 33535.9 946.303  11
   5   1   7 34643.6 958.908  11
   5   2  -9 4792.13 364.301   2
   5  -2  -9 5084.95 374.374   2
   5   2  -9 5508.18 398.414   5
   5  -2  -9 5841.36 404.723   5
   5   2  -9 4686.44 380.352  18
   5  -2  -9 4572.16 364.944  18
   5  -2  -9 4741.17 348.136   4
   5  -2  -8 81674.9 2392.05   3
   5   2  -8 77792.7 2335.36   2
   5  -2  -8 81796.5 2384.77   2
   5   2  -8 81204.0 2387.27   5
   5  -2  -8 80744.8 2393.75   5
   5   2  -8 77070.1 2406.93  18
   5  -2  -8 80415.5 2384.43  18
   5  -2  -8 80906.2 2339.30   4
   5  -2  -7 8516.54 630.019   4
   5   2  -7 9151.50 595.246   3
   5  -2  -7 8717.15 645.413   3
   5   2  -7 8890.11 646.132   2
   5  -2  -7 9029.95 664.928   2
   5   2  -7 9370.47 660.807   5
   5  -2  -7 9060.29 663.373   5
   5   2  -7 8495.80 677.071  18
   5  -2  -7 8197.48 639.890  18
   5   2  -6 21996.9 984.842   3
   5  -2  -6 21016.3 1084.82   3
   5   2  -6 22303.6 1092.49   5
   5   2  -6 20196.6 1062.68   2
   5  -2  -6 23516.0 1143.42   2
   5  -2  -6 22934.4 1139.96   5
   5   2  -6 21315.1 1151.03  18
   5  -2  -6 20877.2 1111.79  18
   5  -2  -5 119201. 3265.08  22
   5   2  -5 123439. 3228.09   3
   5   2  -5 124805. 3480.88   1
   5  -2  -5 123745. 3478.01   1
  -5  -2   5 112798. 3403.23  19
  -5   2   5 126742. 3491.02  19
   5   2  -5 128133. 3434.71   5
   5   2  -5 122952. 3567.57  18
   5  -2  -5 121794. 3508.71  18
   5  -2  -5 125308. 3525.85   5
   5   2  -5 128985. 3494.53   2
   5  -2  -5 126306. 3494.20   2
   5  -2  -4 3305.83 397.527  22
  -5  -2   4 3015.87 397.914  19
  -5   2   4 3640.18 422.205  19
   5   2  -4 3389.60 398.030   1
   5  -2  -4 2886.90 367.856   1
   5   2  -4 3547.88 385.457   5
   5   2  -4 3374.51 425.556  18
   5  -2  -4 2691.86 378.352  18
   5   2  -4 3544.66 409.874   8
   5   2  -4 3539.40 406.610   2
   5  -2  -4 2920.23 372.707   2
   5   2  -3 30.7422 70.8272   8
   5   2  -3 29.4832 83.1928   2
   5  -2  -3 29.5722 76.1735   2
   5  -2  -3-33.1773 85.4598  22
   5  -2  -3 29.2443 82.5187  11
   5   2  -3 29.5013 75.9909  11
  -5  -2   3 236.213 116.617  19
  -5   2   3 157.487 108.850  19
   5   2  -3-34.1215 180.125  18
   5  -2  -3 32.2067 90.8778  18
   5   2  -3 30.1939 77.7750   1
   5   2  -3-25.4111 71.7027   5
   5  -2  -3-30.3861 70.0070   1
  -5   2   2 33538.0 1478.66  13
  -5  -2   2 36828.0 1485.94  13
   5   2  -2 38072.6 1470.02   6
   5  -2  -2 32079.2 1349.17  11
   5   2  -2 34325.7 1394.20  11
   5  -2  -2 37073.3 1516.08  22
  -5   2   2 39474.9 1540.68  19
  -5  -2   2 41984.5 1626.68  19
   5   2  -2 35248.5 1495.63  18
   5  -2  -2 36808.0 1499.89  18
   5   2  -2 35315.7 1428.71   8
   5   2  -2 36742.3 1437.71   1
   5  -2  -2 33974.2 1398.68   1
   5   2  -1 16535.7 912.353   1
   5  -2  -1 19565.2 970.656   1
  -5   2   1 16820.3 995.562  13
  -5  -2   1 18119.4 982.352  13
   5  -2  -1 15865.8 886.780  11
   5   2  -1 16315.6 903.087  11
   5  -2  -1 14599.3 914.625  22
  -5   2   1 16213.6 1009.18  19
  -5  -2   1 14438.1 990.172  19
   5   2  -1 19708.7 1061.23  18
   5  -2  -1 16586.2 961.548  18
   5   2  -1 19111.4 954.006   8
  -5   2   0 15186.9 945.288  13
   5   2   0 17264.0 925.602   1
  -5  -2   0 15529.4 890.467  13
   5  -2   0 14032.4 839.633   1
   5  -2   0 14131.1 837.292  11
   5   2   0 15154.6 852.828   6
   5   2   0 13603.6 830.167  11
   5  -2   0 14531.3 899.059  22
  -5   2   0 10353.4 834.824  19
  -5  -2   0 10126.7 821.721  19
  -5   2  -1 14828.9 955.775  13
  -5  -2  -1 12900.3 846.795  13
   5   2   1 13635.5 863.789   1
   5   2   1 14192.8 817.145   6
   5  -2   1 14693.4 885.756   1
   5  -2   1 13464.4 870.543  22
   5  -2   1 14839.6 867.476  11
   5   2   1 13358.3 845.877  11
  -5   2  -1 14260.6 861.199  19
  -5  -2  -1 14663.0 883.753  19
  -5   2  -2 25859.9 1341.92  13
  -5  -2  -2 25663.9 1281.93  13
   5   2   2 25616.8 1211.97  23
   5   2   2 27345.8 1176.11   6
   5  -2   2 25679.1 1204.84  22
   5   2   2 28377.2 1296.28  11
   5  -2   2 27503.7 1248.82  11
   5   2   2 27458.1 1313.23   1
   5  -2   2 27050.5 1275.32   1
  -5   2  -2 25615.6 1196.61  19
  -5  -2  -2 26301.5 1226.48  19
  -5   2  -3 446.824 168.907  13
  -5  -2  -3 317.323 158.490  13
   5   2   3 551.533 184.802   1
   5  -2   3 518.274 149.475  22
   5   2   3 254.628 110.047   6
   5   2   3 456.436 181.058  11
   5  -2   3 292.240 135.108  11
  -5   2  -3 423.973 159.596  19
  -5  -2  -3 334.858 144.557  19
   5  -2   3 659.038 195.915   1
   5   2   4 1237.14 258.435  11
   5  -2   4 1303.93 258.023  11
   5   2   5 56311.5 1853.06  11
   5  -2   5 57590.2 1836.57  11
   5  -2   6 15950.6 691.322  11
   5   2   6 16330.8 712.377  11
   5  -3  -9 152.071 70.0915   4
   5   3  -9 92.5629 58.9647   5
   5  -3  -9 30.8998 53.4190   5
   5  -3  -8 3900.07 376.962   4
   5   3  -8 4446.96 391.971   2
   5  -3  -8 4415.29 394.237   2
   5   3  -8 4713.81 415.120   5
   5  -3  -8 4679.56 415.461   5
   5   3  -8 4600.85 423.595  18
   5  -3  -8 4802.82 414.674  18
   5   3  -7 29384.1 1211.60   2
   5  -3  -7 28398.5 1219.55   2
   5   3  -7 28440.5 1197.27   5
   5  -3  -7 26568.3 1208.08   5
   5   3  -7 26624.4 1227.49  18
   5  -3  -7 26530.2 1181.01  18
   5  -3  -6 43328.7 1668.69   3
   5   3  -6 42951.6 1597.21   5
   5   3  -6 42491.4 1623.55   2
   5  -3  -6 43650.7 1659.33   2
   5  -3  -6 45664.0 1710.47   5
   5   3  -6 44223.3 1712.79  18
   5  -3  -6 44152.6 1669.00  18
   5  -3  -5 8015.24 567.226  22
   5   3  -5 6943.91 582.459   1
   5  -3  -5 7216.52 604.813   1
  -5  -3   5 7714.57 612.759  19
  -5   3   5 6348.65 556.074  19
   5   3  -5 6933.26 549.722   5
   5   3  -5 7122.36 624.824  18
   5  -3  -5 7291.95 596.486  18
   5  -3  -5 8184.41 641.130   5
   5   3  -5 7088.36 582.427   2
   5  -3  -5 7296.18 600.089   2
   5   3  -5 8475.88 615.213   8
   5   3  -4 22577.9 1048.52   7
   5  -3  -4 23182.4 1127.22  22
  -5  -3   4 22759.6 1125.17  19
  -5   3   4 23498.0 1104.15  19
   5   3  -4 22257.2 1071.33   1
   5  -3  -4 20740.7 1057.63   1
   5   3  -4 20885.3 978.183   5
   5   3  -4 22281.8 1141.58  18
   5  -3  -4 23387.9 1118.84  18
   5   3  -4 22343.4 1066.40   2
   5   3  -4 23707.6 1120.79   8
   5  -3  -4 24113.9 1116.09   2
   5   3  -3 127008. 3380.79   7
   5  -3  -3 123378. 3345.86  11
   5   3  -3 119539. 3328.41  11
   5  -3  -3 123677. 3494.52  22
  -5   3   3 127856. 3436.31  19
  -5  -3   3 127387. 3516.52  19
   5   3  -3 121135. 3343.64   1
   5   3  -3 111922. 3118.35   5
   5  -3  -3 120758. 3357.07   1
   5   3  -3 124183. 3492.36  18
   5  -3  -3 121391. 3406.91  18
   5   3  -3 129512. 3437.77   8
   5   3  -3 118920. 3312.97   2
   5  -3  -3 114724. 3303.54   2
   5  -3  -2 3946.29 465.741  22
   5   3  -2 3674.60 399.170   2
   5  -3  -2 3810.52 405.433   2
  -5   3   2 2948.05 399.377  13
   5  -3  -2 3215.83 374.563  11
   5   3  -2 3403.81 389.858  11
   5   3  -2 3113.17 392.839   6
  -5   3   2 3242.80 431.323  19
  -5  -3   2 4001.84 475.842  19
   5   3  -2 4343.64 488.399  18
   5  -3  -2 3056.44 398.718  18
   5   3  -2 3873.83 423.658   8
   5   3  -2 3353.33 388.529   1
   5  -3  -2 3460.52 393.556   1
   5   3  -1 3590.94 409.956   1
   5  -3  -1 3126.41 385.866   1
  -5   3   1 3530.07 445.653  13
  -5  -3   1 4254.05 446.958  13
   5  -3  -1 3639.35 402.423  11
   5   3  -1 4605.30 454.314  11
   5  -3  -1 4058.79 471.109  22
  -5   3   1 3169.41 478.232  19
  -5  -3   1 2823.42 436.361  19
   5   3  -1 4749.03 461.272   8
   5   3   0 165091. 4267.24   1
   5  -3   0 164943. 4260.86   1
  -5   3   0 159662. 4427.80  13
  -5  -3   0 159402. 4244.53  13
   5   3   0 165170. 4264.19  11
   5  -3   0 163889. 4226.09  11
   5  -3   0 156594. 4353.09  22
  -5   3   0 162111. 4389.33  19
  -5  -3   0 152851. 4377.93  19
   5   3   0 159360. 4174.61   8
   5   3   0 167849. 4272.88   6
  -5  -3  -1 10103.1 737.873  13
   5   3   1 11972.8 788.307   1
   5  -3   1 10595.2 736.473   1
   5   3   1 10153.8 704.126   6
   5  -3   1 11032.6 736.011  11
   5   3   1 12743.0 799.365  11
  -5   3  -1 11748.5 750.730  19
  -5  -3  -1 11857.7 766.488  19
   5  -3   1 11475.9 788.198  22
   5   3   2 33264.7 1453.56  23
  -5   3  -2 32844.9 1521.49  13
   5  -3   2 34906.2 1430.43  22
  -5  -3  -2 33655.5 1484.39  13
   5  -3   2 31816.4 1363.92  11
   5  -3   2 31762.2 1396.81   1
   5   3   2 35455.7 1465.89   1
  -5   3  -2 34810.1 1395.80  19
  -5  -3  -2 31621.1 1364.66  19
   5   3   2 34744.7 1441.49  11
   5   3   2 34208.5 1368.55   6
   5  -3   3 16472.7 852.431  22
   5   3   3 16692.1 851.204   6
   5   3   3 18157.8 971.040  11
   5  -3   3 16493.5 901.745  11
   5   3   4 6027.63 438.008   6
   5   3   4 6920.65 553.893  11
   5  -3   4 6262.67 511.628  11
   5   3   5 19528.7 881.756  11
   5  -3   5 18823.1 842.269  11
   5   3   6 1480.67 182.762  11
   5  -3   6 1613.94 182.992  11
   5   3   6 1629.35 207.910  16
   5  -4  -9 7204.09 358.260   5
   5  -4  -9 7288.35 398.287   4
   5  -4  -8 50050.4 1570.02   4
   5  -4  -8 49766.7 1588.24   3
   5   4  -8 46028.1 1434.17   2
   5  -4  -8 47439.6 1467.51   2
   5   4  -8 47610.9 1475.52   5
   5  -4  -8 48371.4 1527.61   5
   5   4  -8 44418.1 1466.58  18
   5  -4  -8 45590.8 1448.82  18
   5  -4  -7 3172.77 366.951   3
   5   4  -7 2876.89 323.340   2
   5  -4  -7 3582.00 363.967   2
   5   4  -7 2294.24 290.471   5
   5  -4  -7 2798.68 342.633   5
   5   4  -7 2684.92 348.477  18
   5  -4  -7 2486.74 312.487  18
   5  -4  -6 5768.16 522.303   3
   5   4  -6 5190.08 447.159   5
   5   4  -6 5271.20 472.260   2
   5  -4  -6 4934.29 471.725   2
   5  -4  -6 5102.19 487.226   5
   5   4  -6 4765.55 493.489  18
   5  -4  -6 4761.38 458.855  18
   5   4  -5 71947.8 2200.72   7
   5  -4  -5 73325.3 2197.58  22
   5   4  -5 70169.8 2134.04   5
   5   4  -5 72372.1 2238.04   2
   5  -4  -5 71754.4 2269.97   2
   5   4  -5 72501.4 2348.70  18
   5  -4  -5 71269.7 2276.25  18
   5  -4  -5 70336.4 2325.83   5
   5   4  -5 73356.8 2285.86   8
   5   4  -4 27232.7 1203.24   7
   5  -4  -4 27565.9 1264.13  22
   5   4  -4 24659.7 1127.63   1
   5  -4  -4 26251.4 1172.64   1
  -5   4   4 28360.9 1212.24  19
  -5  -4   4 27199.0 1236.56  19
  -5   4   4 26534.0 1310.68  10
   5   4  -4 28257.5 1286.91  18
   5  -4  -4 28573.4 1235.17  18
   5   4  -4 28633.4 1191.49   2
   5  -4  -4 28041.3 1209.18   2
   5   4  -4 27513.7 1241.51   8
   5   4  -3 2240.86 331.161   7
   5  -4  -3 2625.17 333.571  11
   5   4  -3 2662.67 339.385  11
   5  -4  -3 2411.08 367.992  22
   5   4  -3 2780.56 349.561   6
  -5   4   3 3166.86 387.712  19
  -5  -4   3 3098.34 403.093  19
   5   4  -3 2261.75 312.704   1
   5  -4  -3 2247.88 315.569   1
   5   4  -3 2664.46 386.030  18
   5  -4  -3 2206.92 321.844  18
   5   4  -3 2674.83 367.867   8
   5   4  -3 1928.83 287.931   2
   5  -4  -3 2478.79 325.240   2
   5  -4  -2 74556.5 2286.64   2
   5  -4  -2 76791.3 2524.65  22
   5   4  -2 76246.1 2404.38   7
   5  -4  -2 75784.2 2278.46  11
   5   4  -2 76191.8 2295.51  11
   5   4  -2 79425.9 2413.99   6
  -5   4   2 71572.9 2450.24  19
  -5  -4   2 70208.9 2512.47  19
   5   4  -2 80702.2 2485.83  18
   5  -4  -2 80327.2 2432.20  18
   5   4  -2 72490.8 2274.66   1
   5  -4  -2 73258.8 2293.38   1
   5   4  -2 75489.4 2407.16   8
   5   4  -2 72737.4 2263.60   2
  -5  -4   1 10222.6 689.902  13
   5  -4  -1 10787.0 780.030  22
   5  -4  -1 10572.8 659.451  11
   5   4  -1 10459.3 676.437  11
   5   4  -1 11198.8 735.452   6
  -5   4   1 8088.53 713.876  19
   5   4  -1 10671.7 710.239   8
   5   4  -1 9525.52 581.875  16
   5   4  -1 10345.8 672.087   1
   5  -4  -1 10436.4 679.963   1
   5   4   0 318.927 141.807   8
  -5   4   0 274.781 143.102  13
  -5  -4   0 217.910 107.722  13
   5   4   0 411.805 143.865   1
   5  -4   0 265.841 127.434   1
   5  -4   0 335.275 166.295  22
   5   4   0 385.161 152.547   6
   5  -4   0 111.533 96.5182  11
   5   4   0 352.211 135.356  11
  -5   4   0 254.994 204.510  19
  -5  -4   0 260.768 130.190  19
   5   4   1 18250.5 947.846   1
   5  -4   1 16306.2 908.183   1
  -5  -4  -1 16662.6 957.040  13
   5  -4   1 17719.8 913.227  11
   5   4   1 18075.2 941.766  11
   5   4   1 18341.0 980.013   6
  -5   4  -1 19056.2 946.061  19
  -5  -4  -1 17271.8 910.143  19
   5  -4   1 16427.5 977.790  22
  -5   4  -2 59504.5 2204.28  13
  -5  -4  -2 62080.5 2198.45  13
   5   4   2 61860.6 2059.16   1
   5  -4   2 60495.3 2054.83   1
   5   4   2 60777.9 2197.63  23
   5  -4   2 63835.1 2039.08  11
   5  -4   2 63469.6 2110.80  22
   5   4   2 67164.0 2103.54  11
   5   4   2 66128.4 2109.06   6
  -5   4  -2 65036.8 2051.90  19
  -5  -4  -2 59230.4 2000.17  19
   5   4   3 5325.15 462.651   6
   5  -4   3 4594.37 435.533  11
   5   4   3 5830.42 502.274  11
   5  -4   3 4532.87 422.333  22
   5   4   4 11048.9 614.303   6
   5   4   4 12422.6 696.737  11
   5  -4   4 11846.7 662.732  11
   5   4   5 4359.01 353.155  11
   5  -4   5 4507.87 341.269  11
   5   4   5 4962.25 419.106  16
   5  -5  -8 2342.15 261.867   4
   5  -5  -8 2825.14 290.121   3
   5  -5  -8 2198.58 229.881   5
   5  -5  -7 1885.76 279.502   3
   5  -5  -7 2038.01 244.498   2
   5  -5  -7 1992.69 268.058   5
   5   5  -6 11856.8 656.200   7
   5  -5  -6 12826.7 787.145   3
   5   5  -6 12310.3 672.137   2
   5  -5  -6 13310.6 711.589   2
   5  -5  -6 14323.8 799.129   5
   5   5  -6 12286.7 727.497  18
   5  -5  -6 12969.9 712.809  18
   5   5  -6 13883.0 730.332   8
   5   5  -5 568.352 172.605   8
   5   5  -5 313.425 114.980   2
   5  -5  -5 671.390 168.591   2
   5   5  -5 785.932 186.035   7
   5  -5  -5 708.458 172.746  22
   5   5  -5 324.160 148.334  18
   5  -5  -5 424.898 140.570  18
   5  -5  -5 617.652 174.591   5
   5   5  -4 4442.85 470.523   7
   5  -5  -4 5241.76 512.367  22
  -5   5   4 4300.98 497.566  10
   5   5  -4 4510.32 478.679  18
   5  -5  -4 5010.71 463.939  18
   5   5  -4 4939.67 427.128   2
   5  -5  -4 4598.32 433.365   2
   5   5  -4 5072.00 499.710   8
   5   5  -3 947.512 228.420   7
   5   5  -3 1102.29 200.333   2
   5  -5  -3 965.052 201.830   2
   5  -5  -3 1117.14 254.782  22
   5   5  -3 1089.37 225.114   6
  -5   5   3 1038.15 297.488  19
  -5   5   3 1114.84 256.368  10
   5   5  -3 1592.09 316.365  18
   5  -5  -3 1174.48 234.426  18
   5   5  -2 47650.9 1735.77   7
   5  -5  -2 40631.8 1447.07  11
   5   5  -2 40834.1 1461.77  11
   5   5  -2 45207.3 1645.90   6
  -5   5   2 40458.5 1746.35  10
   5   5  -2 44535.3 1692.59   8
   5   5  -2 43912.1 1472.84   2
   5  -5  -2 43387.9 1491.97   2
   5  -5  -2 43086.1 1756.48  22
   5   5  -1 9190.36 589.695   2
   5  -5  -1 9993.80 622.617   2
  -5  -5   1 9097.32 639.673  13
   5  -5  -1 9305.58 590.555  11
   5   5  -1 10323.7 633.120  11
  -5   5   1 10586.3 732.975  19
   5  -5  -1 10149.9 775.661  22
   5   5  -1 9971.69 696.855   6
   5   5  -1 10317.4 710.851   8
   5   5  -1 9870.86 605.080  16
   5  -5   0 52084.8 1711.15  11
   5   5   0 52925.8 1740.20  11
   5  -5   0 56684.1 2047.13  22
  -5   5   0 55753.3 1804.32  19
   5   5   0 55924.8 1862.38   8
   5   5   0 56387.4 1798.56  16
  -5  -5  -1 15614.1 913.896  13
   5  -5   1 15333.9 798.997  11
   5   5   1 16273.4 832.611  11
   5  -5   1 17638.9 992.588  22
   5   5   1 17187.8 956.894   6
  -5   5  -1 16470.9 992.476  10
   5   5   1 16870.2 866.528   8
   5   5   1 16050.9 870.930  16
   5  -5   2 3243.28 341.152  11
   5  -5   2 3324.35 396.870  22
   5   5   2 2940.07 378.223   6
   5   5   2 2800.39 370.143  16
   5   5   2 2747.15 323.684  11
   5  -5   3 1572.48 228.334  11
   5   5   3 1459.82 248.926   6
   5   5   3 1031.44 192.663  11
   5   5   4 48615.0 1537.46   6
   5  -5   4 50126.6 1489.52  11
   5   5   5 1005.38 179.116  16
   5  -6  -8 9515.69 499.259   4
   5  -6  -8 9609.74 492.374   3
   5  -6  -7 6921.28 484.530   3
   5  -6  -7 5938.14 411.051   5
   5   6  -6 2105.61 266.352   7
   5  -6  -6 2920.57 345.495   3
   5  -6  -6 2903.68 325.344   5
   5   6  -6 2164.36 276.222   8
   5   6  -5 6095.59 514.658   7
   5  -6  -5 5935.59 500.040   5
   5   6  -5 5890.34 512.749   8
   5   6  -4 19493.7 1023.15   7
   5  -6  -4 16632.6 934.018  22
   5   6  -4 18707.3 996.659   8
   5   6  -3 12306.0 815.472   7
   5   6  -3 10791.7 678.048   6
   5  -6  -3 11875.7 815.901  22
   5   6  -2 13270.3 797.772   6
   5  -6  -2 13325.3 889.861  22
  -5   6   2 13146.3 907.117  10
   5   6  -2 12544.1 829.367   8
   5   6  -1 4577.13 471.389   6
   5  -6  -1 4423.09 517.798  22
  -5   6   1 4247.82 507.775  10
   5   6  -1 5024.30 496.033   8
   5   6  -1 4271.06 392.831  16
   5  -6   0 34963.6 1522.23  22
   5   6   0 32283.2 1393.05   6
   5   6   0 33650.7 1347.05   8
   5   6   0 30223.3 1246.24  16
   5   6   1 1292.47 227.482   8
   5  -6   1 1314.44 262.461  22
   5   6   1 1479.18 274.950   6
   5   6   1 925.064 200.593  16
   5  -6   2 38384.7 1489.72  22
   5   6   2 42062.1 1590.55   6
   5   6   2 40949.6 1528.56  16
   5   6   3 6637.43 510.299   6
   5   6   3 6036.21 514.677  16
   5   6   4 3078.65 292.219   6
   5   6   5 1175.70 172.320  16
   5  -7  -7 16034.9 702.257   3
   5   7  -6 7521.34 482.929   7
   5  -7  -6 8366.99 544.803   3
   5  -7  -6 6896.88 440.941   5
   5   7  -6 7516.84 478.941   8
   5   7  -5 691.141 171.013   8
   5   7  -5 972.867 209.253   7
   5  -7  -5 480.123 137.497   5
   5   7  -4 2773.12 368.696   7
   5  -7  -4 2774.83 352.594  22
   5  -7  -4 2993.48 340.398   5
   5   7  -4 2917.16 376.665   8
   5   7  -3 42699.3 1663.47   7
   5   7  -3 41032.3 1424.41   6
   5  -7  -3 38178.6 1583.40  22
   5   7  -2 20654.6 1077.06   7
   5   7  -2 19980.2 969.389   6
   5  -7  -2 17077.4 1021.68  22
   5   7  -2 19179.1 1045.08   8
   5  -7  -1 18259.8 1049.10  22
   5   7  -1 17981.8 953.533   6
   5   7  -1 18307.3 973.720   8
   5   7  -1 16579.3 823.933  16
   5  -7   0 49490.2 1862.64  22
   5   7   0 47894.2 1754.83   6
   5   7   0 45950.7 1647.63   8
   5   7   0 45818.2 1597.69  16
   5  -7   1 3806.59 429.522  22
   5   7   1 4101.92 384.210   8
   5   7   1 3689.38 390.109  16
   5  -7   2 129.567 94.4606  22
   5   7   2 145.761 121.131   6
   5   7   2 239.528 110.594  16
   5   7   3 806.941 172.971   6
   5   7   3 861.451 184.544  16
   5   7   4 8327.93 454.498   6
   5  -8  -7 9777.60 417.715   3
   5   8  -6 3474.03 295.434   7
   5  -8  -6 3874.80 319.872   3
   5   8  -5 77993.0 2252.77   7
   5  -8  -5 74554.2 2178.52   3
   5   8  -5 77270.9 2214.20   8
   5   8  -4 196.410 107.345   8
   5   8  -4 344.547 144.279   7
   5  -8  -4 341.856 122.737  22
   5  -8  -4 253.208 95.3558   5
   5  -8  -3 22018.1 1062.35  22
   5   8  -3 23464.6 1117.50   8
   5   8  -2 21945.8 1081.25   7
   5   8  -2 20087.3 928.483   6
   5  -8  -2 20468.8 1064.03  22
   5   8  -2 20576.4 1044.78   8
   5  -8  -1 14402.8 889.110  22
   5   8  -1 14295.0 797.801   6
   5   8  -1 13345.5 792.819   8
   5  -8   0 3731.53 431.278  22
   5   8   0 2942.64 365.010   6
   5   8   0 3235.04 347.840   8
   5   8   0 2719.23 315.494  16
   5  -8   1 3039.51 358.787  22
   5   8   1 3013.62 333.026  16
   5  -8   2 6309.76 459.939  22
   5   8   2 7044.63 515.505   6
   5   8   2 7082.38 505.478  16
   5   8   3 2060.60 242.430   6
   5   8   3 1718.72 231.769  16
   5   8   4 11.2805 38.9845   6
   5   9  -5 5618.80 404.356   7
   5  -9  -5 5631.31 359.988   3
   5   9  -5 6041.72 407.745   8
   5   9  -4 1185.95 209.437   7
   5   9  -4 1658.82 246.337   8
   5   9  -3 76206.2 2264.51   7
   5  -9  -3 71417.7 2180.91  22
   5   9  -3 77267.6 2269.80   8
   5  -9  -2 6448.68 520.237  22
   5   9  -2 5544.50 478.559   8
   5   9  -1 27017.8 1048.05   6
   5  -9  -1 25557.3 1133.69  22
   5   9  -1 25183.5 1058.56   8
   5  -9   0 28439.5 1175.78  22
   5   9   0 29824.0 1137.72   6
   5   9   0 27315.1 1037.88   8
   5  -9   1 20342.0 891.570  22
   5   9   1 21128.3 909.815   6
   5   9   2 14315.9 678.429   6
   5   9   2 14112.2 674.495  16
   5   9   3 30202.8 975.160   6
   5  10  -5 16539.5 597.491   8
   5 -10  -4 22233.7 695.657   3
   5  10  -3 1888.35 236.484   8
   5  10  -2 400.400 114.584   8
   5 -10  -2 651.527 146.826  22
   5  10  -1 35487.9 1176.16   8
   5  10   0 6901.92 413.819   6
   5 -10   0 6940.18 458.573  22
   5  10   0 6226.50 361.400   8
   5  10   1 26315.9 913.621   6
   5  11  -3 1674.33 168.176   8
   5  11  -2 10711.9 466.578   8
   6   0  -8 15872.4 713.724   2
   6   0  -8 16201.7 733.566   5
   6   0  -8 15653.5 757.003  18
   6   0  -7-24.6887 69.6646   2
   6   0  -7 20.5410 52.9109   3
   6   0  -7-28.7705 144.464  18
   6   0  -7 101.739 87.8992   5
   6   0  -6 896.354 216.641   2
   6   0  -6 1016.50 194.028   3
   6   0  -6 791.072 228.342  18
   6   0  -6 826.864 204.932   5
   6   0  -5 61.9755 71.3935   2
   6   0  -5-25.6792 72.4596   3
   6   0  -5-31.5263 81.2076   5
   6   0  -4 82375.2 2417.98   3
   6   0  -4 84683.5 2716.77  18
   6   0  -4 85492.3 2581.85   5
   6   0  -4 81104.9 2554.84   2
   6   0  -3 260.687 145.402   2
   6   0  -3 32.5885 91.9860  11
   6   0  -3 169.135 103.125   1
   6   0  -3 37.5614 188.620  18
   6   0  -2 3441.92 417.401   2
  -6   0   2 3442.35 450.837  13
   6   0  -2 2745.71 380.362  11
   6   0  -2 2967.75 392.754  22
  -6   0   2 2527.66 471.389  19
   6   0  -2 2911.88 392.056   1
   6   0  -1-35.6666 100.641   1
  -6   0   1-40.8522 81.5109  13
   6   0  -1 144.170 131.297  22
   6   0  -1 101.816 123.633  11
  -6   0   1 48.8286 238.642  19
   6   0   0 40123.0 1600.42  11
  -6   0   0 43674.8 1727.73  19
   6   0   1-33.4993 86.2920  11
   6   0   2 4182.04 455.580  11
   6   0   3 57.5039 93.6877  11
   6   0   4 20652.2 912.171  11
   6   0   5 28.6648 46.7019  11
   6   1  -8 796.360 149.302   2
   6  -1  -8 814.576 150.782   2
   6  -1  -8 733.264 134.669   3
   6   1  -8 798.005 172.369  18
   6  -1  -8 624.028 151.570  18
   6   1  -8 1055.09 169.730   5
   6  -1  -7 1847.23 251.868   3
   6   1  -7 2156.31 284.791   2
   6  -1  -7 2130.19 284.544   2
   6   1  -7 2069.62 276.386   5
   6  -1  -7 1719.12 282.333  18
   6  -1  -6 25577.6 1105.15   3
   6   1  -6 27397.4 1167.66   5
   6  -1  -6 26370.8 1175.67   5
   6   1  -6 26466.1 1160.57   2
   6  -1  -6 26934.5 1167.80   2
   6  -1  -6 25871.4 1231.14  18
   6   1  -5 555.184 178.029   2
   6  -1  -5 368.523 141.981   2
   6  -1  -5 508.610 149.611   3
   6  -1  -5 283.468 168.695  18
   6   1  -5 536.743 165.145   5
   6  -1  -5 799.267 202.052   5
   6   1  -4 570.478 179.327   2
   6  -1  -4 757.323 199.519   2
   6  -1  -4 325.138 186.563  18
   6   1  -4 921.059 208.594   5
   6  -1  -4 657.171 204.249   5
   6   1  -3 746.686 201.780   2
   6  -1  -3 517.718 179.197   2
   6  -1  -3 927.550 227.678  22
   6  -1  -3 548.565 174.799  11
  -6   1   3 269.783 226.120  19
  -6  -1   3 371.131 220.696  19
   6   1  -3 438.518 169.838   1
   6  -1  -3 739.421 201.568   1
   6  -1  -3 770.547 250.375  18
   6   1  -3 887.501 200.994   5
   6   1  -2 94969.5 2799.23   2
   6  -1  -2 93010.5 2782.10   2
  -6   1   2 92349.5 2904.73  13
   6  -1  -2 94342.5 2771.89  11
   6  -1  -2 90199.9 2823.88  22
  -6   1   2 77772.0 2942.02  19
  -6  -1   2 80031.2 3010.66  19
   6   1  -2 90594.7 2775.10   1
   6  -1  -2 89320.4 2764.95   1
  -6   1   1 20309.7 1155.56  13
  -6  -1   1 19680.0 1124.77  13
   6  -1  -1 19668.0 1038.85  11
   6  -1  -1 20943.8 1123.92  22
  -6  -1   1 16874.8 1163.89  19
   6   1  -1 20637.8 1087.53   1
   6  -1  -1 20417.7 1086.02   1
   6  -1   0 8282.49 644.957  11
   6  -1   0 7169.38 641.121  22
   6  -1   1 50893.1 1842.29  11
   6  -1   1 49765.3 1824.02  22
   6  -1   2 10603.2 708.720  11
   6  -1   3 109.083 94.2705  11
   6  -1   4 26105.3 1032.64  11
   6  -1   5 4885.29 322.053  11
   6  -2  -8 9231.74 503.004   3
   6   2  -8 9995.19 516.257   2
   6  -2  -8 10346.6 523.552   2
   6   2  -8 10653.2 526.464   5
   6  -2  -8 10460.9 545.311   5
   6  -2  -7 6199.94 456.839   3
   6   2  -7 4490.80 399.972   2
   6  -2  -7 4799.37 410.347   2
   6   2  -7 5564.41 428.561   5
   6  -2  -7 5521.70 446.558   5
   6   2  -7 4748.99 453.260  18
   6  -2  -7 4886.67 438.185  18
   6  -2  -6 1611.63 259.924   2
   6  -2  -6 1822.76 274.941   3
   6   2  -6 1983.31 278.530   5
   6   2  -6 1886.47 282.102   2
   6   2  -6 1600.41 297.039  18
   6  -2  -6 1349.37 258.546  18
   6   2  -5 328.488 137.696   2
   6  -2  -5 178.292 113.645   2
   6  -2  -5 205.008 116.980   3
   6   2  -5 208.971 155.471  18
   6  -2  -5 329.028 165.292  18
   6   2  -5 293.477 126.822   5
   6  -2  -4 75215.5 2416.29  22
   6   2  -4 78237.2 2308.85   5
   6   2  -4 79366.0 2550.76  18
   6  -2  -4 78437.0 2506.72  18
   6  -2  -4 76319.5 2454.99   5
   6   2  -4 76776.9 2414.22   2
   6  -2  -4 77014.4 2417.50   2
   6  -2  -3 29180.0 1281.26  11
   6   2  -3 29001.0 1289.75  11
   6  -2  -3 30096.8 1359.83  22
   6   2  -3 29023.8 1167.77   5
   6   2  -3 32264.3 1431.08  18
   6  -2  -3 31120.5 1391.15  18
   6   2  -3 29397.8 1293.35   2
   6  -2  -3 28999.0 1283.16   2
   6  -2  -2 638.032 190.109   1
  -6   2   2 1139.39 264.337  13
   6   2  -2 681.604 191.245   2
   6  -2  -2 612.804 193.646   2
   6  -2  -2 1027.97 247.064  22
   6  -2  -2 791.423 200.309  11
   6   2  -2 875.785 211.908  11
  -6   2   2 1078.60 333.355  19
  -6  -2   2 310.331 223.443  19
   6   2  -2 794.688 170.178   5
   6   2  -2 574.758 187.391   1
  -6   2   1 80160.7 2713.83  13
   6  -2  -1 85780.4 2581.03  11
   6   2  -1 86927.2 2621.31  11
   6  -2  -1 86431.4 2698.25  22
  -6   2   1 76939.1 2739.09  19
  -6  -2   1 72426.4 2750.39  19
   6   2  -1 84806.4 2629.29   1
   6  -2  -1 82129.7 2601.84   1
   6  -2   0 3289.31 398.695  11
   6   2   0 3621.73 428.664  11
   6  -2   0 3084.69 416.767  22
   6  -2   1 1165.13 250.880  22
   6  -2   1 858.534 206.903  11
   6   2   1 918.998 224.552  11
   6  -2   2 2747.02 343.063  11
   6   2   2 3344.17 393.644  11
   6  -2   3 26129.9 1086.97  11
   6   2   3 25991.7 1118.02  11
   6  -2   4 1486.86 209.565  11
   6   2   4 1847.43 239.429  11
   6  -2   5 688.819 108.507  11
   6   2   5 663.204 110.588  11
   6   3  -8 50.1802 43.3644   2
   6  -3  -8 64.4094 51.4138   2
   6  -3  -8 15.0696 42.5326   3
   6  -3  -8 75.9094 60.5906   5
   6   3  -7 196.901 90.8428   2
   6  -3  -7 279.610 115.126   2
   6  -3  -7 366.468 121.740   3
   6   3  -7 136.901 117.634  18
   6  -3  -7 126.031 96.8951  18
   6  -3  -7 287.557 108.203   5
   6  -3  -6 15042.8 796.689   3
   6   3  -6 13215.9 686.309   5
   6   3  -6 14102.6 756.225   2
   6  -3  -6 15942.6 800.761   2
   6  -3  -6 14525.1 796.651   5
   6   3  -6 13590.0 796.639  18
   6  -3  -6 13454.3 768.317  18
   6   3  -5 9949.25 596.667   5
   6   3  -5 11041.4 692.653   2
   6  -3  -5 10903.6 718.603   5
   6   3  -5 10978.7 747.132  18
   6  -3  -5 10244.1 698.430  18
   6  -3  -5 11105.7 697.762   2
   6  -3  -4 7719.28 613.529  22
   6   3  -4 7661.48 513.225   5
   6   3  -4 7767.04 658.795  18
   6  -3  -4 7022.89 591.619  18
   6   3  -4 8572.04 614.838   2
   6  -3  -4 7434.30 579.693   2
   6  -3  -3 17551.5 933.327  11
   6   3  -3 18716.2 970.896  11
   6  -3  -3 17504.8 1014.09  22
   6   3  -3 18971.5 1063.64  18
   6  -3  -3 18847.6 1013.46  18
   6   3  -3 17668.9 935.382   2
   6  -3  -3 19763.6 983.007   2
   6  -3  -2 13751.8 803.912  11
   6   3  -2 13996.9 825.431  11
   6  -3  -2 14105.6 902.423  22
   6   3  -2 14453.6 833.916   2
   6  -3  -2 13000.8 797.245   2
   6   3  -1 15183.9 861.632   2
   6  -3  -1 14643.2 846.431   2
   6  -3  -1 14140.0 823.237  11
   6   3  -1 13956.0 834.804  11
   6  -3  -1 12867.1 874.032  22
   6   3   0 2736.74 359.028   6
   6  -3   0 2412.75 329.452  11
   6   3   0 2717.39 363.736  11
   6  -3   0 3143.23 412.330  22
   6   3   0 2327.00 278.918  16
   6   3   1 74401.2 2306.34   6
   6  -3   1 73323.3 2270.07  11
   6   3   1 76087.0 2333.49  11
   6  -3   1 71272.7 2323.98  22
   6   3   2 1704.03 253.506   6
   6  -3   2 1717.17 265.569  11
   6   3   2 1973.98 286.235  11
   6  -3   2 1331.95 226.259  22
   6  -3   3-42.1394 76.7534  11
   6   3   3 45.7861 74.5913  11
   6  -3   4 51612.0 1496.82  11
   6   3   4 53599.7 1542.50  11
   6   3   4 51963.4 1582.93  16
   6  -4  -8 2790.61 225.472   5
   6  -4  -7 63101.1 1827.76   3
   6  -4  -7 62093.3 1711.91   2
   6  -4  -7 60748.3 1802.70   5
   6  -4  -6 14647.8 770.497   3
   6   4  -6 14731.8 706.768   2
   6  -4  -6 13969.2 699.983   2
   6  -4  -6 14141.1 755.479   5
   6   4  -6 12958.1 726.050  18
   6  -4  -6 13225.3 703.016  18
   6   4  -5 19962.6 908.326   2
   6  -4  -5 19791.0 910.177   2
   6  -4  -5 19799.0 970.036   5
   6   4  -5 18553.7 956.925  18
   6  -4  -5 19320.1 926.704  18
   6  -4  -4 23919.5 1105.39  22
   6   4  -4 23532.8 1124.08  18
   6  -4  -4 22227.2 1053.97  18
   6  -4  -4 22877.7 1101.71   5
   6   4  -4 24211.8 1042.81   2
   6  -4  -4 22518.2 1021.59   2
   6  -4  -3 3384.53 427.270  22
   6   4  -3 3701.87 386.762   2
   6  -4  -3 3105.83 363.757   2
   6  -4  -2 13599.9 759.700  11
   6   4  -2 15271.7 818.853  11
   6  -4  -2 13840.6 893.500  22
   6   4  -2 13190.2 756.596   2
   6  -4  -2 13239.0 766.189   2
   6   4  -1 27345.5 1151.03   2
   6  -4  -1 26709.3 1142.89   2
   6  -4  -1 26555.8 1120.95  11
   6   4  -1 27442.3 1159.64  11
   6  -4  -1 25051.5 1265.81  22
   6  -4   0 345.434 149.302  22
   6   4   0 681.310 192.433   6
   6  -4   0 561.592 158.743  11
   6   4   0 594.685 162.181  11
   6   4   0 572.868 138.705  16
   6  -4   1 387.848 145.898  22
   6   4   1 433.988 152.816   6
   6  -4   1 191.324 99.4599  11
   6   4   1 228.276 109.441  11
   6   4   1 185.707 88.8326  16
   6   4   2 12633.2 695.003   6
   6  -4   2 10557.4 599.472  11
   6   4   2 12159.6 657.766  11
   6  -4   2 9506.13 603.255  22
   6   4   2 10881.7 636.491  16
   6  -4   3 22535.1 855.439  11
   6   4   3 22061.4 872.999  11
   6   4   3 24173.1 964.835  16
   6  -4   4 4114.55 258.907  11
   6  -5  -7 17.0545 48.1286   3
   6  -5  -7 75.5171 67.3883   5
   6  -5  -6 129.035 66.1282   2
   6  -5  -6 168.888 91.0403   5
   6  -5  -5 38082.2 1260.09   2
   6  -5  -5 38240.2 1404.03   5
   6  -5  -4 8346.30 600.086  22
   6   5  -4 8206.02 508.429   2
   6  -5  -4 7155.06 488.142   2
   6  -5  -4 8694.36 611.542   5
   6  -5  -3 8419.40 658.163  22
   6   5  -3 9056.35 550.915   2
   6  -5  -3 9313.76 567.567   2
   6   5  -2 778.220 196.849   8
   6   5  -2 487.453 145.035   2
   6  -5  -2 865.422 181.232   2
   6  -5  -2 643.308 193.554  22
   6   5  -2 565.461 156.886  11
   6  -5  -1 4209.17 370.993  11
   6   5  -1 4146.30 375.276  11
   6   5  -1 4402.00 447.929   6
   6   5  -1 4371.45 376.623   2
   6  -5  -1 3844.12 362.552   2
   6   5   0 4780.69 384.457   2
   6  -5   0 4857.93 400.252   2
   6  -5   0 4884.55 388.859  11
   6   5   0 5650.82 426.376  11
   6  -5   0 5535.98 525.393  22
   6  -5   1 44144.0 1409.75   2
   6  -5   1 44027.1 1378.36  11
   6   5   1 43036.6 1390.89  11
   6   5   1 46697.9 1623.41   6
   6  -5   1 43987.8 1573.62  22
   6   5   1 41077.4 1415.15  16
   6   5   2 1579.51 237.855   6
   6  -5   2 1009.60 182.187  22
   6   5   2 1544.37 221.990  16
   6   5   3 8941.07 515.385  16
   6  -6  -7 55173.2 1513.72   3
   6  -6  -6 15017.1 700.699   3
   6  -6  -6 14489.7 646.983   5
   6  -6  -5 7261.66 513.731   3
   6  -6  -5 7103.52 483.248   5
   6  -6  -4 2969.67 327.951  22
   6  -6  -4 2597.01 312.148   5
   6   6  -4 3040.77 347.655   8
   6  -6  -3 2376.33 329.143  22
   6   6  -3 2110.88 312.314   8
   6   6  -2 964.811 216.429   8
   6  -6  -2 816.258 216.838  22
   6   6  -1 6289.67 513.885   6
   6  -6  -1 5920.06 542.684  22
   6  -6   0 14403.0 836.346  22
   6  -6   1 48.4876 79.0026  22
   6   6   1 230.457 114.251   6
   6   6   1 37.1320 52.4043  16
   6   6   2 9507.09 556.336   6
   6  -6   2 7976.30 473.810  22
   6   6   2 9060.83 513.838  16
   6  -7  -6 1898.06 203.619   3
   6  -7  -5 9889.78 544.403   3
   6  -7  -5 8861.47 473.397   5
   6  -7  -4 19178.6 821.834  22
   6  -7  -4 18917.2 814.486   5
   6   7  -4 21001.3 905.504   8
   6  -7  -3 2007.99 276.566  22
   6   7  -3 1988.46 284.661   8
   6  -7  -2 17706.3 917.247  22
   6   7  -2 19919.7 932.033   8
   6   7  -1 2080.16 280.200   6
   6  -7  -1 1587.63 263.931  22
   6   7   0 2367.15 294.101   6
   6  -7   0 1752.65 261.745  22
   6   7   1 30435.3 1125.37   6
   6  -7   1 28207.0 1065.02  22
   6   7   2 36305.6 1182.53   6
   6  -8  -5 1487.58 170.551   3
   6  -8  -4 28870.1 897.519   5
   6   8  -3 81.4560 70.3756   8
   6  -8  -3-18.6991 43.0816  22
   6  -8  -3 14.7496 41.6195   5
   6  -8  -2 628.689 148.308  22
   6   8  -1 15399.0 694.232   6
   6  -8  -1 15154.3 750.880  22
   6   8   0 25297.3 942.090   6
   6  -8   0 23592.4 944.169  22
   6   8   2 27403.0 868.290   6
   6  -9  -4 1574.62 147.876   3
   6  -9  -1 1782.75 157.829   5
   7   0  -7 9486.64 461.640   2
   7   0  -7 8992.60 435.088   5
   7   0  -6-18.8631 48.5899   2
   7   0  -6 17.5236 53.4094   5
   7   0  -5 12399.8 649.857   5
   7   0  -5 12171.7 672.105   2
   7   0  -4-25.0084 70.5663   2
   7   0  -4 22.4198 63.2620   5
   7   0  -3 187580. 4507.97   5
   7   0  -3 183000. 4604.76   2
   7   0  -2-26.7866 119.509   2
   7   0  -2-26.8827 115.870  11
   7   0  -2 21.2396 54.7100   5
   7   0  -1 5784.70 478.883   2
   7   0  -1 7176.86 524.320  11
   7   0   0-24.8272 94.8548   2
   7   0   0 24.5372 56.5315  11
   7   0   1 5313.73 425.527  11
   7   0   2 55.4377 56.3323  11
   7   0   3 421.672 98.0233  11
   7   1  -7 151.987 62.0232   2
   7  -1  -7 165.839 65.8349   2
   7  -1  -7 281.938 78.2140   5
   7   1  -6 770.703 150.076   2
   7  -1  -6 605.666 137.678   2
   7   1  -6 822.626 206.925  18
   7  -1  -6 997.778 206.502  18
   7  -1  -6 456.893 116.094   5
   7   1  -5 32006.6 1110.42   5
   7  -1  -5 33014.6 1198.81   5
   7   1  -5 31482.2 1189.64   2
   7  -1  -5 32892.6 1206.74   2
   7   1  -4 10952.5 594.113   5
   7  -1  -4 12758.2 694.688   5
   7   1  -4 12392.4 702.439   2
   7  -1  -4 11642.1 678.400   2
   7  -1  -3 5031.76 427.525   5
   7   1  -3 4705.87 429.599   2
   7  -1  -3 3892.19 396.122   2
   7  -1  -2 12881.9 736.017  11
   7   1  -2 12534.7 731.841   2
   7  -1  -2 13634.9 757.093   2
   7  -1  -1 70117.1 2127.57   2
   7  -1  -1 68158.5 2099.40  11
   7   1  -1 69980.8 2145.85   2
   7   1   0 196.579 102.107   2
   7  -1   0 119.422 95.3610   2
   7  -1   0 140.688 101.114  11
   7  -1   1 63.0329 76.5497  11
   7  -1   2 51.8290 59.7143  11
   7  -1   3 7268.99 378.140  11
   7   1   3 7095.43 380.690  11
   7   2  -7 2820.57 213.281   2
   7  -2  -7 2331.53 198.832   2
   7   2  -6 10736.7 546.530   2
   7  -2  -6 10582.3 543.408   2
   7  -2  -6 10903.6 569.610   5
   7  -2  -5 1530.65 225.708   5
   7   2  -5 1490.34 219.494   2
   7  -2  -5 1566.36 229.882   2
   7  -2  -4 6496.18 438.495   3
   7  -2  -4 7005.32 503.217   5
   7   2  -4 6781.79 493.676   2
   7  -2  -4 7112.38 497.451   2
   7  -2  -3 39363.6 1421.14   5
   7   2  -3 39567.0 1424.45   2
   7  -2  -3 40643.5 1431.10   2
   7  -2  -2 14841.8 769.789  11
   7   2  -2 13790.1 766.849  11
   7   2  -2 14494.0 770.905   2
   7  -2  -2 15416.9 786.761   2
   7   2  -1 684.001 162.512   2
   7  -2  -1 901.384 177.869   2
   7  -2  -1 929.645 191.920  11
   7   2  -1 764.322 182.623  11
   7   2   0 9945.46 604.676   2
   7  -2   0 9526.89 583.538   2
   7  -2   0 10271.8 591.610  11
   7   2   0 10755.7 623.477  11
   7   2   1 11728.5 618.133   2
   7  -2   1 10839.4 591.852   2
   7  -2   1 11183.3 587.451  11
   7   2   1 11558.5 620.307  11
   7   2   2 2699.68 258.858   2
   7  -2   2 2839.34 257.568  11
   7   2   2 3259.11 284.405  11
   7   2   3 4322.68 255.758   2
   7  -2   3 3930.29 249.952   2
   7  -2   3 3767.99 238.376  11
   7   2   3 4561.78 267.102  11
   7  -3  -7 377.760 77.5134   5
   7   3  -6 207.506 74.8295   2
   7  -3  -6 200.210 73.8701   2
   7  -3  -6 234.368 72.0676   3
   7  -3  -5 3781.90 316.801   3
   7   3  -5 4292.01 340.548   2
   7  -3  -5 4407.01 346.734   2
   7  -3  -4 16035.8 738.166   3
   7  -3  -4 16023.1 785.700   5
   7   3  -4 17189.1 773.252   2
   7  -3  -4 16737.7 767.843   2
   7   3  -3 1295.51 209.861   2
   7  -3  -3 1424.97 222.719   2
   7  -3  -3 1242.69 216.714   5
   7  -3  -2 5850.82 448.332  11
   7   3  -2 6132.68 461.572  11
   7   3  -2 6113.79 456.835   2
   7  -3  -2 5823.40 442.208   2
   7  -3  -1 7905.98 501.166  11
   7   3  -1 7138.22 495.798  11
   7  -3  -1 7560.44 552.569  22
   7   3  -1 7487.19 495.106   2
   7  -3  -1 6610.40 468.984   2
   7  -3   0 18875.6 814.158   2
   7  -3   0 18931.0 798.961  11
   7   3   0 20496.9 848.655  11
   7   3   0 19031.4 817.996   2
   7   3   1 405.206 104.370   2
   7  -3   1 547.814 122.063   2
   7  -3   1 384.005 108.029  11
   7   3   1 503.045 120.986  11
   7   3   2 22311.1 762.273   2
   7  -3   2 22320.1 769.110   2
   7  -3   2 23393.9 759.007  11
   7   3   2 22684.0 775.472  11
   7  -4  -6 32693.4 1001.25   3
   7  -4  -6 34556.8 1059.26   5
   7  -4  -5 178.179 68.8511   2
   7  -4  -5 142.971 73.2780   3
   7  -4  -5 178.399 84.8017   5
   7  -4  -4 2227.05 251.805   3
   7  -4  -4 2462.69 243.737   2
   7  -4  -4 2239.80 263.644   5
   7   4  -3 809.699 147.222   2
   7  -4  -3 940.999 159.827   2
   7  -4  -3 755.481 168.727  22
   7  -4  -2 12391.8 709.134  22
   7   4  -2 13021.2 613.382   2
   7  -4  -2 12881.1 618.268   2
   7   4  -1-15.9035 60.7624   2
   7  -4  -1 16.5813 60.4038   2
   7  -4  -1 48.1585 55.4780  22
   7  -4  -1 63.8327 55.1509  11
   7   4  -1 17.1676 62.5397  11
   7  -4   0 28435.1 942.572  11
   7   4   0 28352.6 967.299  11
   7  -4   0 28997.6 965.352   2
   7  -4   1 23.2460 42.3413   2
   7  -4   1 10.6959 32.6000  11
   7  -5  -5 218.576 78.8193   3
   7  -5  -5 229.644 77.6871   5
   7  -5  -4 11186.6 555.959   3
   7  -5  -4 11000.6 565.179   5
   7  -5  -3 301.164 101.903  22
   7  -5  -3 322.991 107.413   5
   7  -5  -2 2926.28 310.468  22
   7  -5  -1 421.171 126.348  22
   7  -5   0 6374.54 422.901  22
   7  -6  -5 3080.12 222.513   3
   7  -6  -4 7185.33 389.699   3
   7  -6  -4 6139.90 361.228   5
   7  -6  -3 534.582 114.000   5
   7  -6  -2 786.580 139.703   5
   7  -7  -3 146.219 52.7226   5
   7  -7  -2 743.175 107.930   5
   7  -7  -1 3613.96 237.212   5
   8   1  -4 25383.5 788.632   2
   8  -1  -4 27051.6 801.804   2
   8   1  -3 969.214 131.043   2
   8  -1  -3 912.011 128.670   2
   8   1  -2 1053.48 139.811   2
   8  -1  -2 1068.74 139.836   2
   8   1  -1 1932.17 175.767   2
   8  -1  -1 2356.48 192.165   2
   8  -2  -3 418.468 81.2172   2
   8  -2  -2 38830.0 1060.20   2
   0   0   0    0.00    0.00   0

TITL hpd132 in P2(1)/n
REM P2(1)/n (#14 in standard setting)
CELL 1.54184   6.469082  11.436748   8.738667  90.0000 102.1142  90.0000
ZERR   12.00   0.000106   0.000192   0.000143   0.0000   0.0016   0.0000
LATT  1
SYMM -x+1/2, y+1/2,-z+1/2
SFAC C H O S
UNIT 12.00 12.00 12.00 12.00
TREF
HKLF 4
END
;
_shelx_hkl_checksum              80450
_olex2_exptl_crystal_mounting_method 'nylon loop'
_olex2_submission_special_instructions 'No special instructions were received'
_oxdiff_exptl_absorpt_empirical_details
;
Empirical correction (ABSPACK) includes:
- Absorption correction using spherical harmonics
- Frame scaling
;
_oxdiff_exptl_absorpt_empirical_full_max 1.470
_oxdiff_exptl_absorpt_empirical_full_min 0.712
loop_
_space_group_symop_operation_xyz
'x, y, z'
'-x+1/2, y+1/2, -z+1/2'
'-x, -y, -z'
'x-1/2, -y-1/2, z-1/2'
loop_
_atom_site_label
_atom_site_type_symbol
_atom_site_fract_x
_atom_site_fract_y
_atom_site_fract_z
_atom_site_U_iso_or_equiv
_atom_site_adp_type
_atom_site_occupancy
_atom_site_site_symmetry_order
_atom_site_calc_flag
_atom_site_refinement_flags_posn
_atom_site_refinement_flags_adp
_atom_site_refinement_flags_occupancy
_atom_site_disorder_assembly
_atom_site_disorder_group
S1 S 0.59637(5) 0.69609(3) 0.40237(4) 0.01482(16) Uani 1 1 d . . . . .
O2 O 0.69800(17) 0.76582(10) 0.30109(12) 0.0206(3) Uani 1 1 d . . . . .
O1 O 0.42568(17) 0.62057(10) 0.32642(13) 0.0220(3) Uani 1 1 d . . . . .
C4 C 0.7890(2) 0.61133(13) 0.52940(17) 0.0175(3) Uani 1 1 d . . . . .
H4A H 0.885964 0.664283 0.600178 0.021 Uiso 1 1 calc R U . . .
H4B H 0.717571 0.561083 0.594711 0.021 Uiso 1 1 calc R U . . .
C5 C 0.9175(2) 0.53452(13) 0.44125(17) 0.0186(3) Uani 1 1 d . . . . .
H5A H 0.989301 0.583897 0.375204 0.022 Uiso 1 1 calc R U . . .
H5B H 0.822447 0.479718 0.372125 0.022 Uiso 1 1 calc R U . . .
C3 C 0.5016(3) 0.79264(13) 0.53294(17) 0.0184(3) Uani 1 1 d . . . . .
H3A H 0.426194 0.747424 0.600937 0.022 Uiso 1 1 calc R U . . .
H3B H 0.622112 0.833352 0.600517 0.022 Uiso 1 1 calc R U . . .
C2 C 0.3547(2) 0.88041(13) 0.43998(17) 0.0191(3) Uani 1 1 d . . . . .
H2 H 0.411318 0.934308 0.376952 0.023 Uiso 1 1 calc R U . . .
C1 C 0.1523(3) 0.88713(15) 0.4406(2) 0.0254(4) Uani 1 1 d . . . . .
H1A H 0.091172 0.834397 0.502477 0.030 Uiso 1 1 calc R U . . .
H1B H 0.067008 0.944720 0.379134 0.030 Uiso 1 1 calc R U . . .
loop_
_atom_site_aniso_label
_atom_site_aniso_U_11
_atom_site_aniso_U_22
_atom_site_aniso_U_33
_atom_site_aniso_U_23
_atom_site_aniso_U_13
_atom_site_aniso_U_12
S1 0.0162(2) 0.0149(2) 0.0126(2) -0.00056(12) 0.00127(14) 0.00152(12)
O2 0.0227(6) 0.0225(6) 0.0178(5) 0.0038(4) 0.0067(4) 0.0032(4)
O1 0.0205(6) 0.0207(6) 0.0217(6) -0.0033(4) -0.0028(4) -0.0016(4)
C4 0.0189(7) 0.0176(7) 0.0147(7) 0.0007(6) 0.0009(5) 0.0022(6)
C5 0.0198(8) 0.0192(7) 0.0154(7) 0.0002(6) 0.0005(6) 0.0041(6)
C3 0.0205(7) 0.0200(8) 0.0141(7) -0.0017(6) 0.0026(6) 0.0023(6)
C2 0.0258(8) 0.0163(7) 0.0149(7) -0.0022(6) 0.0033(6) 0.0004(6)
C1 0.0263(8) 0.0260(9) 0.0235(8) 0.0023(7) 0.0044(6) 0.0057(7)
loop_
_atom_type_symbol
_atom_type_description
_atom_type_scat_dispersion_real
_atom_type_scat_dispersion_imag
_atom_type_scat_source
C C 0.0181 0.0091 'International Tables Vol C Tables 4.2.6.8 and 6.1.1.4'
H H 0.0000 0.0000 'International Tables Vol C Tables 4.2.6.8 and 6.1.1.4'
O O 0.0492 0.0322 'International Tables Vol C Tables 4.2.6.8 and 6.1.1.4'
S S 0.3331 0.5567 'International Tables Vol C Tables 4.2.6.8 and 6.1.1.4'
loop_
_exptl_crystal_face_index_h
_exptl_crystal_face_index_k
_exptl_crystal_face_index_l
_exptl_crystal_face_perp_dist
3 1 -5 0.0806
-1 -7 -1 0.0638
-3 -3 4 0.0919
0 7 2 0.0479
4 0 1 0.0176
0 -4 5 0.0238
-4 -1 0 0.0950
-1 4 -4 0.0835
loop_
_geom_angle_atom_site_label_1
_geom_angle_atom_site_label_2
_geom_angle_atom_site_label_3
_geom_angle
_geom_angle_site_symmetry_1
_geom_angle_site_symmetry_3
_geom_angle_publ_flag
O2 S1 O1 116.66(7) . . ?
O2 S1 C4 109.53(7) . . ?
O2 S1 C3 108.11(7) . . ?
O1 S1 C4 109.20(7) . . ?
O1 S1 C3 109.30(7) . . ?
C4 S1 C3 103.20(7) . . ?
S1 C4 H4A 109.1 . . ?
S1 C4 H4B 109.1 . . ?
H4A C4 H4B 107.8 . . ?
C5 C4 S1 112.63(10) . . ?
C5 C4 H4A 109.1 . . ?
C5 C4 H4B 109.1 . . ?
C4 C5 C5 109.55(15) . 3_766 ?
C4 C5 H5A 109.8 . . ?
C4 C5 H5B 109.8 . . ?
C5 C5 H5A 109.8 3_766 . ?
C5 C5 H5B 109.8 3_766 . ?
H5A C5 H5B 108.2 . . ?
S1 C3 H3A 109.8 . . ?
S1 C3 H3B 109.8 . . ?
H3A C3 H3B 108.3 . . ?
C2 C3 S1 109.36(10) . . ?
C2 C3 H3A 109.8 . . ?
C2 C3 H3B 109.8 . . ?
C3 C2 H2 118.1 . . ?
C1 C2 C3 123.82(15) . . ?
C1 C2 H2 118.1 . . ?
C2 C1 H1A 120.0 . . ?
C2 C1 H1B 120.0 . . ?
H1A C1 H1B 120.0 . . ?
loop_
_geom_bond_atom_site_label_1
_geom_bond_atom_site_label_2
_geom_bond_distance
_geom_bond_site_symmetry_2
_geom_bond_publ_flag
S1 O2 1.4476(11) . ?
S1 O1 1.4486(11) . ?
S1 C4 1.7731(15) . ?
S1 C3 1.7863(15) . ?
C4 H4A 0.9900 . ?
C4 H4B 0.9900 . ?
C4 C5 1.525(2) . ?
C5 C5 1.535(3) 3_766 ?
C5 H5A 0.9900 . ?
C5 H5B 0.9900 . ?
C3 H3A 0.9900 . ?
C3 H3B 0.9900 . ?
C3 C2 1.499(2) . ?
C2 H2 0.9500 . ?
C2 C1 1.312(2) . ?
C1 H1A 0.9500 . ?
C1 H1B 0.9500 . ?
loop_
_geom_torsion_atom_site_label_1
_geom_torsion_atom_site_label_2
_geom_torsion_atom_site_label_3
_geom_torsion_atom_site_label_4
_geom_torsion
_geom_torsion_site_symmetry_1
_geom_torsion_site_symmetry_2
_geom_torsion_site_symmetry_3
_geom_torsion_site_symmetry_4
_geom_torsion_publ_flag
S1 C4 C5 C5 179.16(13) . . . 3_766 ?
S1 C3 C2 C1 114.95(16) . . . . ?
O2 S1 C4 C5 -56.05(13) . . . . ?
O2 S1 C3 C2 57.22(12) . . . . ?
O1 S1 C4 C5 72.82(12) . . . . ?
O1 S1 C3 C2 -70.70(12) . . . . ?
C4 S1 C3 C2 173.19(11) . . . . ?
C3 S1 C4 C5 -171.00(11) . . . . ?
loop_
_exptl_oxdiff_crystal_face_indexfrac_h
_exptl_oxdiff_crystal_face_indexfrac_k
_exptl_oxdiff_crystal_face_indexfrac_l
_exptl_oxdiff_crystal_face_x
_exptl_oxdiff_crystal_face_y
_exptl_oxdiff_crystal_face_z
2.9833 1.2791 -4.6315 0.0903 0.3688 0.9251
-0.7568 -7.1806 -0.7673 0.1966 0.8217 -0.5349
-2.9219 -3.3040 3.9551 -0.0228 -0.0874 -0.9959
0.1762 7.0363 1.6983 -0.2175 -0.9074 0.3595
4.0036 0.4319 0.5104 0.8288 -0.2003 0.5224
0.0397 -4.0792 4.6214 0.6817 -0.1626 -0.7134
-4.0574 -0.7437 -0.1713 -0.7895 0.1909 -0.5833
-0.8180 3.7417 -4.4341 -0.8010 0.1915 0.5672
