#------------------------------------------------------------------------------
#$Date: 2022-01-27 11:29:41 +0200 (Thu, 27 Jan 2022) $
#$Revision: 272273 $
#$URL: file:///home/coder/svn-repositories/cod/cif/1/56/61/1566175.cif $
#------------------------------------------------------------------------------
#
# This file is available in the Crystallography Open Database (COD),
# http://www.crystallography.net/
#
# All data on this site have been placed in the public domain by the
# contributors.
#
data_1566175
loop_
_publ_author_name
'Kerr, Ryan W.F.'
'Greenhalgh, Mark D.'
'Slawin, Alexandra M.Z.'
'Arnold, Polly L.'
'Smith, Andrew D.'
_publ_section_title
;
 Enantioselective N-heterocyclic carbene catalyzed formal [3+2]
 cycloaddition using \a-aroyloxyaldehydes and oxaziridines
;
_journal_issue                   1
_journal_name_full               'Tetrahedron: Asymmetry'
_journal_page_first              125
_journal_page_last               134
_journal_paper_doi               10.1016/j.tetasy.2016.10.012
_journal_volume                  28
_journal_year                    2017
_chemical_absolute_configuration ad
_chemical_formula_moiety         'C17 H17 N O4 S'
_chemical_formula_sum            'C17 H17 N O4 S'
_chemical_formula_weight         331.39
_space_group_crystal_system      monoclinic
_space_group_IT_number           4
_space_group_name_Hall           'P 2yb'
_space_group_name_H-M_alt        'P 1 21 1'
_atom_sites_solution_hydrogens   geom
_atom_sites_solution_primary     direct
_atom_sites_solution_secondary   difmap
_cell_angle_alpha                90.0000
_cell_angle_beta                 108.145(5)
_cell_angle_gamma                90.0000
_cell_formula_units_Z            2
_cell_length_a                   9.193(2)
_cell_length_b                   7.6493(17)
_cell_length_c                   11.637(3)
_cell_measurement_reflns_used    2434
_cell_measurement_temperature    93
_cell_measurement_theta_max      27.60
_cell_measurement_theta_min      2.30
_cell_volume                     777.6(3)
_computing_cell_refinement       'CrystalClear-SM Expert 2.1 b45'
_computing_data_collection
'CrystalClear-SM Expert 2.1 b45 (Rigaku, 2015)'
_computing_data_reduction        'CrystalClear-SM Expert 2.1 b45'
_computing_molecular_graphics    'CrystalStructure 4.1'
_computing_publication_material  'CrystalStructure 4.1 (Rigaku, 2014)'
_computing_structure_refinement  'SHELXL2013 (Sheldrick, 2008)'
_computing_structure_solution    'SIR2011 (Burla, et al., 2012)'
_diffrn_ambient_temperature      93
_diffrn_detector_area_resol_mean 5.814
_diffrn_measured_fraction_theta_full 0.997
_diffrn_measured_fraction_theta_max 0.995
_diffrn_measurement_device_type  'Rigaku XtaLAB P200'
_diffrn_measurement_method       \w
_diffrn_radiation_type           'Mo K\a'
_diffrn_radiation_wavelength     0.71075
_diffrn_reflns_av_R_equivalents  0.0424
_diffrn_reflns_Laue_measured_fraction_full 0.997
_diffrn_reflns_Laue_measured_fraction_max 0.995
_diffrn_reflns_limit_h_max       11
_diffrn_reflns_limit_h_min       -11
_diffrn_reflns_limit_k_max       9
_diffrn_reflns_limit_k_min       -9
_diffrn_reflns_limit_l_max       12
_diffrn_reflns_limit_l_min       -14
_diffrn_reflns_number            7452
_diffrn_reflns_point_group_measured_fraction_full 0.985
_diffrn_reflns_point_group_measured_fraction_max 0.984
_diffrn_reflns_theta_full        25.242
_diffrn_reflns_theta_max         25.398
_diffrn_reflns_theta_min         1.842
_diffrn_standards_interval_count .
_diffrn_standards_number         0
_exptl_absorpt_coefficient_mu    0.228
_exptl_absorpt_correction_T_max  0.989
_exptl_absorpt_correction_T_min  0.560
_exptl_absorpt_correction_type   multi-scan
_exptl_absorpt_process_details   'REQAB (Rigaku, 1998)'
_exptl_crystal_colour            colorless
_exptl_crystal_density_diffrn    1.415
_exptl_crystal_density_method    'not measured'
_exptl_crystal_description       prism
_exptl_crystal_F_000             348.00
_exptl_crystal_size_max          0.150
_exptl_crystal_size_mid          0.120
_exptl_crystal_size_min          0.050
_refine_diff_density_max         0.27
_refine_diff_density_min         -0.40
_refine_ls_abs_structure_details
;
 Flack x determined using 1031 quotients [(I+)-(I-)]/[(I+)+(I-)]
 (Parsons, Flack and Wagner, Acta Cryst. B69 (2013) 249-259).
;
_refine_ls_abs_structure_Flack   0.00(5)
_refine_ls_extinction_method     none
_refine_ls_goodness_of_fit_ref   1.030
_refine_ls_hydrogen_treatment    constr
_refine_ls_number_parameters     210
_refine_ls_number_reflns         2817
_refine_ls_number_restraints     1
_refine_ls_R_factor_all          0.0485
_refine_ls_R_factor_gt           0.0465
_refine_ls_shift/su_max          0.000
_refine_ls_structure_factor_coef Fsqd
_refine_ls_weighting_details
'w = 1/[\s^2^(Fo^2^)+(0.0810P)^2^] where P=(Fo^2^+2Fc^2^)/3'
_refine_ls_weighting_scheme      calc
_refine_ls_wR_factor_gt          0.1242
_refine_ls_wR_factor_ref         0.1267
_reflns_number_gt                2688
_reflns_number_total             2817
_reflns_threshold_expression     F^2^>2.0\s(F^2^)
_cod_data_source_file            Tetrahedron-Asymmetry-2017-28-125.cif
_cod_data_source_block           14
_cod_database_code               1566175
_shelx_res_file
;

    shelxl.res created by SHELXL-2014/7

TITL RKAS1
CELL  0.71075 9.19300 7.64930 11.63700 90.00000 108.14500 90.00000
ZERR  2 0.00200 0.00170 0.00300 0.00000 0.00500 0.00000
LATT -1
SYMM    -X, 1/2+Y,    -Z
SFAC C H O S N
UNIT 34 34 8 2 2
OMIT     5   3   1
OMIT     5   4   0
L.S. 20
FMAP 2
PLAN 5
WPDB -2
HTAB
BOND $H
CONF
LIST 4
TEMP -180.0
ACTA
SIZE 0.150 0.120 0.050
WGHT    0.081000
FVAR       1.71032
S2    4    0.835798    0.684735    0.275417    11.00000    0.01959    0.01904 =
         0.02352    0.00148    0.00694    0.00203
O1    3    0.620554    0.733463    0.013229    11.00000    0.02708    0.02816 =
         0.01838   -0.00226    0.00933   -0.00397
O2    3    0.860478    0.542405    0.203798    11.00000    0.02696    0.02163 =
         0.03810   -0.00032    0.01567    0.00311
O3    3    0.858919    0.663630    0.402367    11.00000    0.02494    0.02679 =
         0.02358    0.00866    0.00739    0.00355
O4    3    0.400749    0.782025    0.211216    11.00000    0.01822    0.03028 =
         0.02021   -0.00458    0.00664   -0.00437
N2    5    0.649095    0.739751    0.218872    11.00000    0.01649    0.02148 =
         0.01913   -0.00087    0.00520    0.00109
C1    1    0.568950    0.754023    0.096685    11.00000    0.02419    0.01652 =
         0.02063   -0.00045    0.00464   -0.00295
C3    1    0.551578    0.788788    0.295172    11.00000    0.02154    0.02304 =
         0.02198   -0.00017    0.00980   -0.00233
AFIX  13
H3    2    0.561683    0.697092    0.358435    11.00000   -1.20000
AFIX   0
C5    1    0.405983    0.801761    0.088967    11.00000    0.02103    0.02145 =
         0.01744   -0.00140    0.00572   -0.00120
AFIX  13
H5    2    0.384863    0.926078    0.062429    11.00000   -1.20000
AFIX   0
C6    1    0.937655    0.867793    0.250785    11.00000    0.01328    0.02084 =
         0.02078    0.00487    0.00053    0.00314
C7    1    0.995710    0.868983    0.153165    11.00000    0.02052    0.02151 =
         0.01879   -0.00020    0.00346    0.00446
AFIX  43
H7    2    0.980191    0.771344    0.100260    11.00000   -1.20000
AFIX   0
C8    1    1.075903    1.013252    0.134099    11.00000    0.01922    0.02722 =
         0.01827    0.00160    0.00544    0.00397
AFIX  43
H8    2    1.117155    1.013198    0.068713    11.00000   -1.20000
AFIX   0
C9    1    1.097039    1.159387    0.209976    11.00000    0.01470    0.02568 =
         0.02063    0.00164    0.00300    0.00378
C10   1    1.037524    1.154790    0.307714    11.00000    0.01886    0.02683 =
         0.01996   -0.00239    0.00471    0.00049
AFIX  43
H10   2    1.051546    1.252962    0.360046    11.00000   -1.20000
AFIX   0
C11   1    0.959499    1.011278    0.329134    11.00000    0.01682    0.02563 =
         0.01781   -0.00035    0.00502    0.00085
AFIX  43
H11   2    0.921036    1.009525    0.396022    11.00000   -1.20000
AFIX   0
C12   1    1.179715    1.318501    0.186452    11.00000    0.02293    0.02757 =
         0.02466   -0.00080    0.00876    0.00178
AFIX 137
H12A  2    1.208483    1.300417    0.113004    11.00000   -1.20000
H12B  2    1.272061    1.338088    0.255219    11.00000   -1.20000
H12C  2    1.112454    1.420641    0.175809    11.00000   -1.20000
AFIX   0
C13   1    0.593214    0.964108    0.355975    11.00000    0.01830    0.02160 =
         0.02393   -0.00291    0.00954   -0.00167
C14   1    0.655224    0.971858    0.482321    11.00000    0.02439    0.02578 =
         0.01775    0.00097    0.00584    0.00287
AFIX  43
H14   2    0.666533    0.867778    0.528828    11.00000   -1.20000
AFIX   0
C15   1    0.700462    1.132324    0.540054    11.00000    0.02527    0.03157 =
         0.02155   -0.00768    0.00795    0.00065
AFIX  43
H15   2    0.741959    1.136987    0.625660    11.00000   -1.20000
AFIX   0
C16   1    0.684898    1.284404    0.472715    11.00000    0.02424    0.02347 =
         0.03530   -0.00906    0.00864   -0.00449
AFIX  43
H16   2    0.717281    1.393041    0.511894    11.00000   -1.20000
AFIX   0
C17   1    0.621304    1.277565    0.346739    11.00000    0.02770    0.02624 =
         0.03017    0.00041    0.00810   -0.00036
AFIX  43
H17   2    0.608991    1.381871    0.300372    11.00000   -1.20000
AFIX   0
C18   1    0.576205    1.118082    0.289575    11.00000    0.02147    0.02310 =
         0.02201   -0.00009    0.00576   -0.00132
AFIX  43
H18   2    0.533212    1.114197    0.204056    11.00000   -1.20000
AFIX   0
C19   1    0.288420    0.682793    0.004683    11.00000    0.02194    0.02571 =
         0.02606   -0.00667    0.00622   -0.00394
AFIX 137
H19A  2    0.291797    0.697372   -0.078115    11.00000   -1.20000
H19B  2    0.186116    0.713115    0.007738    11.00000   -1.20000
H19C  2    0.311346    0.560983    0.029937    11.00000   -1.20000
AFIX   0
HKLF 4

REM  RKAS1
REM R1 =  0.0465 for    2688 Fo > 4sig(Fo)  and  0.0485 for all    2817 data
REM    210 parameters refined using      1 restraints

END

WGHT      0.0624      0.0000

REM Instructions for potential hydrogen bonds
EQIV $1 -x+1, y+1/2, -z
HTAB C5 O1_$1

REM Highest difference peak  0.267,  deepest hole -0.403,  1-sigma level  0.063
Q1    1   0.7921  0.6762  0.0151  11.00000  0.05    0.27
Q2    1   0.8738  0.8101  0.2650  11.00000  0.05    0.26
Q3    1   0.9564  0.6779  0.5228  11.00000  0.05    0.24
Q4    1   0.8371  0.5254  0.2595  11.00000  0.05    0.24
Q5    1   0.5676  0.7739  0.5803  11.00000  0.05    0.23
;
_shelx_res_checksum              47795
_shelx_hkl_file
;
   0   0   1   -0.76    3.26
   1   0   0   29.22    6.78
   1   0   0   33.09    9.02
  -1   0   0   31.06    8.56
  -1   0   0   10.48    5.51
  -1   0   0   33.49   13.63
  -1   0   1 6805.97  249.70
   1   0  -1 6427.66  219.68
   1   0  -1 6368.47  230.74
   0   1   0    3.83    9.41
   0   1   0   -0.40    8.04
   0  -1   0    1.26   10.07
   0  -1   0   -2.05    5.36
   0  -1   0    1.82    5.83
   0   1   110294.53  359.93
   0  -1  -110996.40  392.18
   0   1   1 9408.22  323.66
   0  -1  -1 9659.50  331.96
   0  -1  -110286.04  358.80
   0   1  -112153.59  436.42
   0  -1   110810.70  377.06
   0  -1   110303.27  359.23
   0   1  -110174.03  352.80
   0   1  -110058.92  350.74
  -1   0  -1 5058.32  183.17
  -1   0  -1 5221.27  198.49
  -1   0  -1 4786.10  175.00
  -1  -1   0 2930.59  114.91
  -1   1   0 3267.25  140.02
  -1   1   0 3034.23  108.04
   1  -1   0 3060.39  125.59
   1  -1   0 3207.87  135.81
  -1  -1   0 3088.47  119.26
   1   1   0 3183.91  122.86
   1   1   0 3184.97  123.79
   1  -1  -1  607.30   44.17
  -1   1   1  591.47   43.69
  -1  -1   1  576.17   36.88
   1   1  -1  562.61   35.74
   1  -1  -1  567.06   34.79
   1   1  -1  551.44   31.69
   1  -1  -1  531.69   25.80
   0   0  -210219.26  355.79
   1   0  -2   23.55    8.96
   1   0  -2   23.01    4.54
  -1   0   2   24.63    4.62
  -1   0   2   27.57    8.88
   1   0  -2   26.21    8.95
  -1   1  -1 1966.95   74.21
   1  -1   1 1993.37   89.12
   1   1   1 2048.69   86.93
  -1  -1  -1 2009.88   84.48
  -1  -1  -1 1893.92   90.33
  -1   1  -1 2120.25   96.63
   1  -1   1 2036.97   91.01
   1   1   1 2040.91   83.93
   1  -1   1 1850.09   73.34
  -1  -1  -1 1993.21   82.70
  -2   0   1  775.09   49.08
  -2   0   1  729.69   40.96
   2   0  -1  781.48   41.69
   2   0  -1  782.16   37.21
  -2   0   1  748.99   34.69
   0   1  -2  872.07   38.67
   0  -1   2  930.90   48.70
   0   1   2  805.61   45.40
   0  -1  -2  945.73   47.28
   0   1  -2  931.55   50.48
   0  -1  -2  946.85   53.15
   0  -1  -2  920.40   49.28
   0   1  -2  891.15   49.50
   0  -1   2  921.08   51.39
   0   1   2  899.42   49.50
   1   1  -218527.75  624.70
  -1  -1   217570.92  597.11
  -1   1   219042.76  637.95
   1  -1  -219441.02  665.96
   1  -1  -218791.50  627.88
  -2   0   0  822.36   38.72
   2   0   0  866.20   43.70
  -2   0   0  909.08   56.45
  -1   0  -220818.03  582.19
  -1   0  -221396.83  606.81
  -1   0  -220180.76  675.44
   2   0  -2 4394.72  167.67
  -2   0   2 4328.82  172.12
   2   0  -2 4523.87  177.30
  -2   0   2 4175.27  146.27
   2   0  -2 4241.40  149.47
  -2   0   2 4301.14  163.74
   2   1  -112973.20  440.85
  -2   1   112313.34  408.08
   2  -1  -113775.87  491.96
  -2   1   112641.85  456.89
   2   1  -112599.07  451.97
  -2  -1   113203.24  467.87
   2   1  -112362.01  424.24
  -2  -1   112739.28  427.33
   1   0  -3    1.53    5.87
   1   0  -3   -0.05    6.26
   1   0  -3    0.63    1.96
  -1   0   3    1.01    5.18
   0   2   017750.61  606.15
   0  -2   018253.82  645.49
   0  -2   017228.71  585.24
   2   1   018724.84  625.16
  -2  -1   018823.64  644.36
   2   1   020038.71  684.83
  -2  -1   019321.18  645.92
   2   1   018808.19  631.57
   2  -1   020060.12  690.69
  -2   1   018980.35  667.62
  -2   1   018290.15  621.30
  -2   0  -1  551.46   31.52
   2   0   1  592.60   33.77
  -2   0  -1  586.56   42.35
   2   0   1  577.09   40.35
   0   0  -3   60.87   11.80
   0   0  -3   67.92   11.56
  -1   1  -2 1531.32   68.11
   1   1   2 1259.24   60.78
  -1  -1  -2 1397.90   65.05
   1  -1   2 1478.89   71.81
   1  -1   2 1400.34   65.51
  -1  -1  -2 1472.99   66.72
   1   1   2 1529.36   66.29
  -1  -1  -2 1550.16   68.35
   1  -1   2 1686.12   79.26
  -1   1  -2 1485.06   71.94
  -2  -1   2  459.62   30.97
   2  -1  -2  441.33   22.50
  -2   1   2  446.11   23.00
   2  -1  -2  443.34   28.01
  -2   1   2  465.51   38.13
   2   1  -2  442.84   25.64
   2   1  -2  481.14   32.51
   2  -1  -2  431.61   32.22
   2  -1  -2  485.90   39.98
   0  -2   1 2232.69   98.76
   0  -2  -1 2044.09   96.18
   0   2   1 2100.32  100.28
   0  -2  -1 1947.76   82.30
   0   2   1 1998.28   88.15
   0   2  -1 2037.90   87.00
   0  -2   1 1993.71   83.54
   0  -2   1 2017.40   87.94
   1  -2   0 7189.08  279.09
  -1   2   0 6966.49  250.35
   1  -2   0 7059.99  256.21
  -1  -2   0 6987.74  248.10
   1   2   0 6655.59  245.46
   1   2   0 7009.58  255.73
   1  -2   0 7031.94  253.13
  -1  -2   0 6856.86  246.38
   1   2   0 7053.75  249.22
   1   2  -1 8407.19  301.21
   1  -2  -1 8411.76  297.27
  -1  -2   1 7982.43  280.02
   1  -2  -1 8583.06  319.74
  -1   2   1 8047.99  281.42
   1   2  -1 8265.32  290.50
  -1  -2   1 8358.81  309.60
  -1  -2   1 9276.44  337.83
   1   2  -1 8329.56  312.83
   1   1  -3  302.79   18.75
  -1  -1   3  291.73   17.01
   1  -1  -3  317.15   27.99
   1   1  -3  306.20   25.67
   1  -1  -3  320.48   23.48
   2   0  -3 2738.65  117.39
  -2   0   3 2608.57  109.65
  -2   0   3 2493.83   90.15
  -2   0   3 2685.15  114.96
   2   0  -3 2617.82   96.01
   2   0  -3 2689.08  110.46
  -2   1  -1 4944.38  188.15
  -2  -1  -1 5030.73  182.48
   2   1   1 4624.73  179.23
  -2   1  -1 4813.06  168.29
   2   1   1 5091.91  183.53
   2  -1   1 4766.56  170.75
  -2  -1  -1 4434.37  164.92
  -2  -1  -1 5248.46  210.53
  -2   1  -1 4923.85  194.11
   0  -1   3   84.51   13.99
   0   1  -3   78.97   12.61
   0  -1  -3   85.05   13.13
   0   1  -3   77.26    7.78
   0  -1  -3   86.86   13.29
   0  -1  -3   90.16   12.20
   0  -1   3   96.77   13.60
   0   1   3   81.48   11.92
   0   1  -3   77.00   13.83
   1  -2   1 1441.88   69.08
  -1   2  -1 1233.73   61.16
   1   2   1 1360.45   64.29
   1   2   1 1369.16   61.26
   1   2   1 1360.63   72.84
  -1  -2  -1 1679.05   78.98
  -1   2  -1 1369.23   72.14
   1  -2   1 1429.25   70.13
  -1  -2  -1 1397.79   63.94
  -1  -2  -1 1488.79   67.89
   0   2  -2  588.84   37.28
   0  -2  -2  567.10   33.39
   0   2   2  572.21   37.00
   0  -2  -2  576.45   35.83
   0  -2   2  537.35   33.80
   0   2  -2  507.30   35.80
   0   2  -2  578.37   35.41
   0  -2  -2  595.10   43.16
   0   2   2  606.91   41.74
   0  -2   2  572.41   37.15
   1  -2  -2 1178.10   56.09
  -1   2   2 1137.03   53.30
  -1  -2   2 1126.67   57.26
   1  -2  -2 1183.51   67.21
  -1   2   2 1122.12   64.22
   1   2  -2 1187.39   59.18
  -1  -2   2 1124.48   49.69
   1   2  -2 1123.09   53.48
   2  -1  -3   42.84    8.28
   2   1  -3   44.32    7.09
   2  -1  -3   38.26    5.53
  -2  -1   3   38.71    8.54
  -2   1   3   39.61   10.45
  -2   1   3   41.15    5.76
   2  -1  -3   42.99   12.56
   2   1  -3   41.86   10.12
  -1   0  -3 4184.96  166.42
  -1   0  -3 3274.92  125.51
   1   0   3 3106.93  124.06
  -1   0  -3 3163.17  123.58
   1   0   3 3261.26  127.33
   3   0  -1 2879.43  111.64
  -3   0   1 2856.05  104.51
  -3   0   1 2845.53  151.33
  -3   0   1 3011.32  117.60
  -2   0  -2 4921.76  179.04
   2   0   2 4954.87  185.79
   2   0   2 4819.95  177.52
  -2   0  -2 5146.08  198.47
   3   0  -220765.69  701.90
  -3   0   220483.86  688.41
  -3   0   221504.95  688.83
  -3   0   220464.58  674.59
   3   0  -221623.49  604.60
   2  -2  -1 1094.26   62.41
   2   2  -1 1042.48   51.34
   2   2  -1 1021.88   51.80
   2  -2  -1 1087.49   55.87
   2  -2  -1 1043.38   42.91
  -2  -2   1  973.35   50.85
  -2   2   1 1021.99   51.88
  -2   2   1  901.06   57.09
   2   2  -1 1059.68   52.66
  -3   0   0 1171.96   55.37
   3   0   0 1206.42   66.45
   3   0   0 1135.62   52.84
  -3   0   0 1103.90   47.77
  -3   0   0 1217.75   69.33
   1   0  -4 3451.05  132.95
   1   0  -4 3536.09  140.62
   1   0  -4 3462.93  122.66
  -2  -2   0 1563.28   68.20
   2   2   0 1482.74   67.64
   2   2   0 1541.39   67.55
  -2  -2   0 1392.00   63.51
   2  -2   0 1530.53   73.02
   2  -2   0 1454.30   56.52
   2  -2   0 1567.48   80.27
  -2   2   0 1424.97   76.24
  -2   2   0 1538.89   71.57
   1   1   3  142.19   14.85
   1  -1   3  129.21   16.13
  -1  -1  -3  126.78   18.45
  -1   1  -3  137.65   17.30
  -1  -1  -3  125.85   18.05
  -1   1  -3  136.72   17.62
  -1   1  -3  133.35   15.18
  -1  -1  -3  129.33   14.72
   3  -1  -1  937.03   57.25
  -3   1   1  880.15   60.29
   3   1  -1  899.53   45.23
  -3   1   1  871.36   45.24
   3   1  -1  862.94   42.67
  -3  -1   1  892.09   41.15
  -3  -1   1  877.38   45.62
   3  -1  -1  839.78   38.38
  -3   1   1  867.97   37.38
   3   1  -1  879.75   53.96
  -3  -1   1  899.05   53.95
   1   2   2  140.70   15.77
  -1  -2  -2  124.36   19.27
  -1   2  -2  127.98   18.14
   1  -2   2  134.85   17.47
   1  -2   2  126.05   16.62
  -1  -2  -2  128.68   14.89
  -1  -2  -2  124.08   14.05
   1   2   2  129.59   15.64
   1   2   2  134.13   14.32
   2   2  -2 1182.45   57.02
   2  -2  -2 1233.68   70.89
   2  -2  -2 1227.13   59.73
   2   2  -2 1170.10   54.81
  -2   2   2 1181.95   54.74
   2   2  -2 1206.34   58.62
  -2  -2   2 1197.75   52.11
   2  -1   210638.22  365.94
  -2  -1  -210884.74  374.23
  -2   1  -210371.16  366.42
   2   1   210763.79  367.35
  -2   1  -211124.92  410.69
  -2  -1  -211118.66  396.90
  -2  -1  -210336.93  355.28
  -2   1  -210448.81  353.74
  -3  -1   2 9118.17  308.93
   3   1  -2 9005.34  326.20
  -3  -1   2 8808.23  349.22
   3   1  -2 9020.13  309.93
  -3   1   2 9514.40  391.99
   3  -1  -2 9535.44  352.52
  -3  -1   2 9069.47  318.35
   3   1  -2 8814.98  311.61
  -3   1   2 8979.46  300.52
   0   0  -4 4664.59  175.24
   0   0  -4 5106.94  188.97
   0   0  -4 5013.24  190.18
  -2   0   4 1352.74   67.18
   2   0  -4 1353.85   65.91
   2   0  -4 1379.99   67.33
  -2   0   4 1346.52   64.06
   2   0  -4 1348.51   53.89
  -3   0   3   50.24   11.17
   3   0  -3   52.83   10.49
   3   0  -3   51.38   12.10
  -3   0   3   49.65    6.36
  -3   0   3   50.08   10.56
   3   0  -3   50.16    7.33
  -3  -1   0 3316.75  123.55
  -3   1   0 3272.17  122.83
   3  -1   0 3249.10  119.61
   3   1   0 3350.41  128.48
  -3  -1   0 3141.96  122.65
   3   1   0 3528.41  148.97
  -3  -1   0 3396.53  152.94
  -3   1   0 3469.94  138.11
   3   1   0 3418.83  129.26
  -3   1   0 3457.77  148.98
  -1  -1   4  321.06   17.82
  -1   1   4  351.42   26.70
   1  -1  -4  349.51   24.66
   1  -1  -4  340.13   27.95
   1  -1  -4  334.82   26.60
   1   1  -4  384.69   28.05
   1   1  -4  371.87   28.61
   1   1  -4  358.17   20.10
  -1  -2   3 1666.34   76.64
   1  -2  -3 1704.64   85.18
   1   2  -3 1630.48   74.59
  -1   2   3 1681.46   71.84
   1  -2  -3 1665.40   76.35
  -1  -2   3 1675.06   65.61
   1   2  -3 1587.98   66.86
   1  -2  -3 1671.42   72.25
  -1   2   3 1658.75   79.62
  -2   2  -1   15.70    7.04
  -2  -2  -1   16.51    6.45
  -2   2  -1   14.93    3.63
  -2   2  -1   17.00    9.43
   2   2   1   17.25    6.11
  -2  -2  -1   14.98    6.02
   2  -2   1   18.04    8.30
   2  -2   1   16.35    4.19
   2  -2   1   14.57    8.20
   2   2   1   14.00    6.61
   0  -2  -3 3245.07  110.19
   0   2   3 3263.13  116.99
   0   2   3 3203.08  116.46
   0  -2  -3 3230.34  113.81
   0  -2  -3 3325.90  127.79
   0   2  -3 3811.61  149.48
   0  -2   3 3172.73  111.70
   0   2   3 3179.04  124.44
   0  -2   3 3182.73  115.73
   0   2  -3 2894.96   98.35
   0   2  -3 3242.68  114.54
   3   0   1 1537.19   71.69
  -3   0  -1 1477.58   56.28
   3   0   1 1471.26   60.37
   3   0   1 1508.16   59.97
  -3   0  -1 1543.81   63.00
  -3   0  -1 1524.11   75.66
   0   1  -4 1583.85   66.08
   0  -1  -4 1702.95   66.54
   0   1  -4 1630.92   70.04
   0  -1   4 1580.11   69.81
   0  -1  -4 1592.72   66.57
   0   1  -4 1582.24   53.51
   0   1  -4 1630.53   69.23
   0  -1  -4 1511.93   63.45
   2   1  -4   12.10    6.18
  -2  -1   4   16.29    7.83
  -2  -1   4   15.83    3.74
   2  -1  -4   15.66    3.83
   2   1  -4   12.96    3.95
   2  -1  -4   16.37    5.84
   2   1  -4   15.13    7.14
   2  -1  -4   16.31    7.48
   2  -1  -4   19.46    9.53
   3  -1  -3  830.65   39.75
  -3   1   3  832.74   50.45
  -3  -1   3  789.25   43.23
   3  -1  -3  787.67   48.28
   3   1  -3  844.94   37.31
   3  -1  -3  792.97   32.38
  -3   1   3  808.69   31.52
  -3  -1   3  772.35   41.75
   3   1  -3  871.34   44.31
   3  -1  -3  806.70   43.09
   0   3   0   -0.32    4.11
   0   3   0   -0.25    4.72
   0  -3   0   -0.09    5.24
   0  -3   0   -0.88    4.34
   0   3   0    0.85    6.56
   0  -3   0   -0.12    4.98
  -2   2   3  647.27   33.67
   2   2  -3  554.87   29.44
  -2  -2   3  617.37   28.18
   2   2  -3  668.24   38.27
   2  -2  -3  652.62   44.50
   2  -2  -3  628.15   33.88
   2   2  -3  615.01   34.01
   0   3   1 1390.57   58.41
   0  -3  -1 1237.50   55.21
   0   3   1 1291.97   59.61
   0  -3   1 1383.79   64.36
   0  -3   1 1249.34   57.50
   0   3  -1 1316.67   67.55
   0   3   1 1289.14   66.76
   0  -3  -1 1261.50   62.64
   0  -3   1 1260.21   54.38
   0  -3  -1 1295.95   56.66
   0   3  -1 1324.33   60.01
   3   1   1 7924.76  236.05
   3   1   1 7768.14  254.62
  -3  -1  -1 7860.39  269.09
  -3   1  -1 7946.05  263.99
   3  -1   1 6934.00  226.82
  -3   1  -1 7619.41  219.74
   3  -1   1 7698.01  227.78
  -3  -1  -1 7834.50  233.66
  -3   1  -1 7513.69  231.69
  -2   0  -3    1.80    3.60
   2   0   3    1.06    4.36
  -2   0  -3    0.75    4.98
   2   0   3    1.86    5.54
   1  -3   0 1206.34   54.63
  -1  -3   0 1115.69   52.06
  -1   3   0 1186.57   57.70
  -1  -3   0 1172.25   53.63
   1  -3   0 1203.51   60.00
  -1   3   0 1150.97   62.65
   1   3   0 1189.80   64.24
   1  -3   0 1195.11   55.94
  -1  -3   0 1173.09   51.31
  -1   3   0 1188.15   53.68
   1   3   0 1193.29   55.58
  -1   3   1 1517.15   77.26
  -1   3   1 1436.94   58.92
  -1  -3   1 1459.22   63.30
  -1  -3   1 1517.18   65.49
   1  -3  -1 1464.57   72.67
   1   3  -1 1499.12   62.20
   1  -3  -1 1455.25   62.55
  -1  -3   1 1479.79   60.04
   1  -3  -1 1486.04   65.19
   1   3  -1 1321.51   64.46
   1   3  -1 1526.10   64.43
  -1   3   1 1491.11   66.79
  -1   0  -4   29.63    9.05
   1   0   4   25.00    7.68
  -1   0  -4   24.92    7.39
  -1   0  -4   27.15    7.15
   1   0   4   28.96    8.28
   3   0  -4  347.17   28.10
   3   0  -4  352.48   19.23
  -3   0   4  315.95   16.78
  -3   0   4  340.75   26.98
   3   0  -4  346.87   26.08
  -3   0   4  343.13   26.40
  -1  -2  -3   78.42   11.88
   1   2   3   69.22   11.42
  -1   2  -3   68.47   12.79
   1  -2   3   82.96   13.17
  -1  -2  -3   79.16   11.64
   1  -2   3   74.95   13.30
  -1  -2  -3   78.64   13.98
   3  -2  -1 1900.49   63.37
   3  -2  -1 1852.13   83.44
   3   2  -1 1940.60   75.63
  -3   2   1 1888.69   61.54
  -3  -2   1 1869.12   67.27
   3   2  -1 2088.30   78.22
  -3  -2   1 1908.93   74.89
   3   2  -1 1961.81   83.98
  -3   2   1 1989.88   95.20
  -3   2   1 1872.23   75.31
   3  -2  -1 1944.36   81.67
  -2   2  -2 1762.31   80.55
  -2  -2  -2 1630.06   65.04
   2  -2   2 1662.83   70.37
   2  -2   2 1638.61   72.64
   2   2   2 1741.16   66.69
   2   2   2 1671.68   69.54
  -2  -2  -2 1645.29   65.30
   2  -2   2 1638.70   76.89
  -2   2  -2 1663.49   55.78
  -2   2  -2 1737.92   72.73
   1  -3   1 5456.57  173.69
   1   3   1 5531.07  195.19
  -1   3  -1 5600.49  179.69
   1  -3   1 5453.42  177.10
  -1  -3  -1 6117.21  201.53
   1  -3   1 5147.12  195.47
   1   3   1 5519.11  186.55
  -1  -3  -1 5161.47  167.75
  -2   1  -3 1389.23   65.26
   2   1   3 1468.30   62.24
  -2  -1  -3 1519.60   62.11
   2   1   3 1448.19   57.50
   2   1   3 1402.30   60.49
  -2  -1  -3 1406.10   58.49
   2  -1   3 1419.16   60.38
   2  -1   3 1646.69   71.35
  -2  -1  -3 1443.01   66.02
  -2   1  -3 1443.89   58.03
   1   0  -5  111.75    9.47
   1   0  -5  114.30   15.73
   1   0  -5  115.03   13.94
  -3  -2   0 2043.74   74.43
   3   2   0 2019.91   74.65
  -3   2   0 2054.95   81.72
   3   2   0 2071.95   78.82
  -3  -2   0 1995.67   79.22
  -3   2   0 1999.85   64.88
  -3   2   0 2068.63   93.55
   3   2   0 2092.93   90.34
   3  -2   0 2083.05   69.77
   3  -2   0 2072.96   96.87
   1   2  -4  847.31   36.52
   1  -2  -4  899.90   42.69
  -1   2   4  886.92   40.93
  -1  -2   4  849.79   33.17
   1   2  -4  887.95   45.62
  -1  -2   4  859.67   46.47
   1   2  -4  809.38   46.05
  -1   2   4  874.90   46.27
   1  -2  -4  884.31   50.47
   1  -2  -4  886.08   45.36
   0   3   2 4610.41  168.07
   0  -3   2 4391.83  141.04
   0   3  -2 4332.58  149.16
   0   3   2 4117.79  140.55
   0   3   2 4355.18  140.58
   0  -3   2 4344.98  147.67
   0  -3  -2 4086.18  135.20
   0  -3   2 4346.71  148.63
   0  -3  -2 4480.32  163.14
  -1  -3   2 1916.75   70.17
   1  -3  -2 1881.19   73.35
  -1   3   2 2018.80   84.63
   1   3  -2 1966.67   77.09
   1   3  -2 2111.02   81.63
   1  -3  -2 1939.61   76.68
   1   3  -2 2114.98  109.38
  -1  -3   2 1904.01   77.25
   1  -3  -2 1984.73   88.68
  -1  -3   2 2013.78   84.79
  -1   3   2 1992.82   74.11
  -1   3   2 2119.05   94.60
  -1   1  -4  355.85   25.31
  -1   1  -4  376.59   28.66
  -1  -1  -4  377.37   25.27
  -1  -1  -4  349.54   25.54
   1   1   4  354.37   26.72
  -1  -1  -4  355.25   25.40
  -1   1  -4  386.27   30.02
   1  -1   4  317.12   23.79
   3  -1  -4  561.29   35.14
   3   1  -4  596.77   35.67
  -3  -1   4  554.88   34.71
  -3  -1   4  575.04   33.74
  -3   1   4  529.58   35.35
   3  -1  -4  578.95   39.58
  -3   1   4  566.91   24.48
   3  -1  -4  561.72   24.97
  -3  -1   4  498.10   23.08
   3   1  -4  587.35   28.40
   3   0   2   43.59   10.30
  -3   0  -2   44.93    8.73
  -3   0  -2   46.58   12.70
  -3   0  -2   45.55    8.71
   3   0   2   43.84    8.98
   4   0  -2    0.41    3.12
  -4   0   2    0.44    3.57
   4   0  -2    0.33    8.15
  -4   0   2    0.83    2.56
  -4   0   1 1578.80   55.77
   4   0  -1 1607.40   63.84
  -4   0   1 1534.33   92.19
   4   0  -1 1533.91   75.04
  -4   0   1 1590.91   63.08
   2   0  -5 6166.65  197.37
   2   0  -5 5978.16  173.65
  -2   0   5 5333.00  171.30
   2   0  -5 6163.01  196.94
   0   2   4 3674.04  120.54
   0   2   4 3663.26  124.38
   0  -2  -4 3654.60  133.50
   0  -2  -4 3633.64  123.95
   0   2   4 3580.56  125.84
   0   2  -4 3746.10  137.69
   0  -2   4 3888.87  135.56
   0   2  -4 3547.44  110.86
   0  -2   4 3554.75  127.26
   0  -2  -4 3711.78  124.41
   0   2  -4 3672.57  127.26
  -2   2   4  154.10   19.59
   2  -2  -4  132.96   19.69
   2  -2  -4  140.27   10.79
   2   2  -4  162.21   18.21
   2   2  -4  150.62   13.22
   2  -2  -4  140.32   16.88
   2  -2  -4  141.13   14.64
  -2   2   4  159.58   15.19
  -2  -2   4  142.13   11.18
   2   3  -1 6857.57  252.70
  -2  -3   1 6529.37  211.55
   2   3  -1 6764.75  207.37
   2   3  -1 6624.85  237.96
  -2  -3   1 6707.91  203.25
   2  -3  -1 6532.03  192.14
  -2   3   1 6315.22  196.88
   2  -3  -1 6632.88  208.75
   2  -3  -1 6626.01  217.49
   2  -3  -1 6520.10  218.68
   3  -2  -3 1322.47   70.85
   3   2  -3 1290.09   53.26
  -3  -2   3 1287.97   47.88
   3   2  -3 1331.68   62.66
  -3  -2   3 1281.35   57.72
   3  -2  -3 1350.04   59.97
   3   2  -3 1403.56   60.45
   1   1  -5 1089.00   53.21
   1  -1  -5 1129.04   49.78
   1  -1  -5 1067.26   51.44
   1   1  -5 1049.05   39.43
   1  -1  -5 1042.61   51.25
   1   1  -5 1109.12   52.07
  -1   1   5 1077.02   49.43
   0   0  -5    1.96    4.49
   0   0  -5    0.14    5.02
  -4   0   3   10.76    5.87
   4   0  -3   12.02    4.36
   4   0  -3   12.18    5.49
  -4   0   3   12.43    8.62
   2   3   0  363.92   26.24
   2  -3   0  389.39   31.21
   2   3   0  390.22   25.92
   2   3   0  336.39   26.76
  -2   3   0  372.31   27.13
   2  -3   0  376.66   18.86
   2  -3   0  386.43   27.86
   2  -3   0  391.23   28.60
  -2  -3   0  382.46   26.51
  -3   1  -2 1482.81   54.52
  -3  -1  -2 1534.75   60.87
   3  -1   2 1553.65   62.88
  -3   1  -2 1451.15   59.86
   3   1   2 1540.24   64.03
  -3   1  -2 1621.33   76.68
   3  -1   2 1548.60   68.25
   3   1   2 1538.70   67.58
   3   1   2 1535.70   59.82
  -3  -1  -2 1569.97   75.34
   4   1  -2  966.64   44.29
  -4  -1   2  950.33   46.04
  -4   1   2  962.67   59.75
   4  -1  -2  872.00   36.69
   4   1  -2  923.33   52.09
  -4  -1   2  928.49   56.29
  -4  -1   2  971.44   38.67
  -4   1   2  839.19   66.74
  -4   1   2  962.32   36.32
   4   1  -2  999.34   43.59
  -4   1   1  509.59   29.71
  -4  -1   1  531.37   26.40
  -4  -1   1  515.83   38.59
   4   1  -1  535.41   29.95
   4   1  -1  544.60   39.83
  -4  -1   1  512.76   30.45
  -4   1   1  534.52   24.33
   4  -1  -1  560.28   27.80
  -4   1   1  551.98   40.82
   4   1  -1  529.10   29.53
   2  -1  -5  367.66   25.21
   2  -1  -5  358.54   18.59
   2   1  -5  360.43   25.14
   2   1  -5  381.66   27.86
  -2  -1   5  346.88   17.64
   2   1  -5  373.80   20.02
   2  -1  -5  357.60   28.11
   2  -1  -5  353.52   28.21
  -2  -1   5  346.61   27.67
   4   0   010368.06  331.59
   4   0   010619.94  482.50
  -4   0   010441.02  386.78
  -4   0   010603.33  301.21
  -4   0   010971.42  505.10
   4   0   010688.62  466.28
  -1  -3  -2 1349.68   57.72
  -1  -3  -2 1263.46   59.96
   1  -3   2 1295.61   59.74
  -1   3  -2 1311.89   59.11
   1  -3   2 1367.84   62.20
   1   3   2 1267.13   63.07
   1   3   2 1284.91   59.34
   2   3  -2  412.32   31.39
   2  -3  -2  430.17   34.18
   2  -3  -2  459.11   30.71
  -2   3   2  438.93   36.09
   2  -3  -2  454.38   30.59
   2   3  -2  453.38   29.01
  -2  -3   2  458.22   31.03
  -2   3   2  449.39   27.75
  -2  -3   2  444.88   25.38
   2   3  -2  454.92   29.23
   3   2   1  450.81   29.29
   3   2   1  466.28   27.90
  -3   2  -1  445.99   37.91
   3  -2   1  419.24   31.87
  -3   2  -1  449.00   31.10
   3  -2   1  448.39   24.16
  -3  -2  -1  453.85   27.48
  -3   2  -1  447.44   21.05
  -3  -2  -1  442.13   31.01
   1  -3  -3 2364.99  115.67
  -1   3   3 2428.45   86.45
   1   3  -3 2409.43  118.14
  -1  -3   3 2344.53  109.21
  -1  -3   3 2413.11  121.86
   1   3  -3 2513.78   93.89
  -1  -3   3 2579.90   94.81
   1   3  -3 3120.25  166.11
  -1   3   3 2335.00  118.35
  -1   3   3 2442.92  101.53
   1  -3  -3 2430.81  104.17
   0   1  -5 4340.82  203.32
   0  -1  -5 4532.30  206.87
   0   1  -5 4300.32  200.04
   0  -1  -5 4067.92  189.38
   0  -1  -5 4343.97  201.07
   0   1  -5 4040.45  188.53
   0   1  -5 4214.55  184.99
  -4   1   3  197.73   23.60
  -4   1   3  193.45   13.93
  -4  -1   3  191.41   20.85
   4   1  -3  187.75   16.10
   4   1  -3  191.62   22.48
  -4  -1   3  205.88   15.50
   4   1  -3  232.29   20.90
  -4  -1   3  190.55   19.84
   4  -1  -3  199.42   24.42
   3   0  -5  168.85   18.76
   3   0  -5  159.50   12.95
   3   0  -5  161.02   19.61
  -3   0   5  154.89   18.69
  -3   0   5  158.93   17.90
  -4  -1   0 1313.63   70.04
  -4   1   0 1295.59   74.71
  -4  -1   0 1305.85   80.70
  -4   1   0 1310.63   82.50
   4   1   0 1326.66   80.14
  -4   1   0 1260.40   61.66
   4  -1   0 1290.68   65.77
  -4  -1   0 1303.96   65.90
   4  -1   0 1310.48   79.52
   4   1   0 1314.73   68.87
   2   3   1 2581.12  126.40
   2  -3   1 2618.36  133.13
  -2   3  -1 2284.40  127.19
   2   3   1 2758.85  133.23
  -2   3  -1 2701.67  132.26
   2  -3   1 2592.85  116.51
   2   3   1 2692.54  127.70
  -2  -3  -1 2581.06  125.43
   2  -3   1 2680.71  134.13
   2  -3   1 2693.47  132.85
   2   3   1 2621.29  144.30
   0   3   3 2442.19  123.34
   0  -3  -3 2379.37  126.39
   0  -3  -3 2231.81  112.40
   0   3   3 2488.65  119.82
   0  -3  -3 2395.06  116.52
   0  -3   3 2206.31  117.17
   0   3   3 2495.14  127.74
   0  -3   3 2381.67  120.25
   0   3  -3 2449.01  121.06
  -2  -2  -3  124.45   18.41
   2  -2   3  122.65   15.51
  -2   2  -3  134.64   11.69
  -2  -2  -3  121.66   14.42
  -2  -2  -3  121.18   14.64
  -2   2  -3  140.95   19.45
  -2   2  -3  139.82   17.81
   2   2   3  137.51   14.52
  -2  -2  -3  110.55   14.91
   2   0   4 3925.35  183.68
  -2   0  -4 3999.87  184.37
   2   0   4 4047.87  187.22
  -2   0  -4 3924.07  185.88
  -2   0  -4 4122.33  189.55
   4   0  -4  169.75   14.32
   4   0  -4  172.16   18.43
  -4   0   4  160.45   18.53
  -4   0   4  171.95   19.93
  -4   0   4  162.76   12.50
  -1   2  -4  700.77   46.30
  -1   2  -4  775.73   41.53
  -1  -2  -4  800.10   51.16
  -1  -2  -4  841.37   50.99
  -1  -2  -4  838.37   49.31
  -1  -2  -4  800.94   48.37
   1  -2   4  699.67   45.73
   1  -2   4  806.63   52.11
  -1   2  -4  852.12   54.92
   3   2  -4   46.64    7.96
  -3  -2   4   40.35    6.29
   3   2  -4   46.72    9.84
   3   2  -4   48.91   10.97
  -3  -2   4   37.36    9.59
   3  -2  -4   38.80   11.72
   3  -2  -4   37.08    7.69
  -2  -3   3 4662.20  199.15
   2   3  -3 4329.97  237.45
  -2  -3   3 4470.59  209.97
   2   3  -3 5028.57  221.01
   2  -3  -3 4501.54  206.23
   2   3  -3 4370.73  203.01
  -2   3   3 4772.15  240.45
   2  -3  -3 4909.27  232.30
   2  -3  -3 4734.78  214.03
  -2   3   3 4762.10  207.05
  -3  -1   5  856.11   43.09
   3  -1  -5  879.32   44.81
  -3  -1   5  878.83   52.87
   3   1  -5  837.13   53.62
   3  -1  -5  840.19   55.04
   3  -1  -5  845.11   53.11
  -3  -1   5  840.44   53.04
   3   1  -5  888.00   53.85
   3   1  -5  897.55   47.52
   4   0   1 1787.43   90.18
  -4   0  -1 1719.06   99.99
   4   0   1 1785.69   98.26
  -4   0  -1 1699.92   86.66
   4   0   1 1751.65   88.90
  -4   0  -1 1734.68   83.85
   3   0   3   63.80   11.79
  -3   0  -3   57.01   12.85
   3   0   3   58.51   10.46
  -3   0  -3   60.25   10.31
  -1   0  -5 1164.75   63.22
   1   0   5 1107.08   64.33
  -1   0  -5 1201.07   68.58
  -1   0  -5 1146.36   63.98
   2  -1   4  552.77   38.03
  -2   1  -4  554.97   40.42
  -2   1  -4  560.37   36.77
  -2  -1  -4  569.46   37.27
  -2  -1  -4  518.15   34.80
   2  -1   4  584.53   39.19
   2   1   4  568.98   35.84
  -2  -1  -4  557.68   39.56
   2   1   4  545.55   37.74
   1  -2  -5  921.23   58.54
  -1   2   5  874.64   52.70
   1  -2  -5  943.58   53.63
  -1  -2   5  741.44   49.45
   1   2  -5  909.43   47.72
   1  -2  -5  858.91   52.09
  -1   2   5  938.16   52.25
  -1  -2   5  833.11   41.90
   1   2  -5  921.29   55.50
   1   2  -5  806.96   54.86
   4   1  -4  464.47   33.52
   4   1  -4  433.92   36.61
  -4   1   4  432.95   36.36
   4  -1  -4  479.53   39.63
   4  -1  -4  455.52   33.05
  -4  -1   4  440.20   32.95
   4   1  -4  461.31   29.31
   4  -1  -4  473.74   27.78
  -4   1   4  442.42   25.06
  -4  -1   4  460.70   34.67
  -4   2   2  890.21   61.19
  -4   2   2  877.17   51.84
   4   2  -2  861.09   51.06
  -4  -2   2  792.64   43.07
  -4  -2   2  888.95   53.09
   4  -2  -2  885.80   45.48
  -4   2   2  775.01   47.48
   4  -2  -2  903.60   61.08
   4   2  -2  844.28   59.84
  -4  -2   2  868.92   53.00
  -4   2   2  878.54   43.94
   4   2  -2  962.30   55.31
   1   3   3  205.90   20.31
   1  -3   3  241.19   23.86
   1   3   3  201.50   20.73
  -1   3  -3  211.98   21.35
  -1  -3  -3  214.89   20.21
  -1   3  -3  201.87   22.88
  -1  -3  -3  213.07   24.40
  -1  -3  -3  208.52   19.46
   1  -3   3  207.92   22.09
  -4  -2   1 3385.38  159.79
   4   2  -1 3512.96  162.77
  -4  -2   1 3510.42  173.08
  -4  -2   1 3535.78  160.97
   4  -2  -1 3479.45  183.51
  -4   2   1 3519.68  167.34
   4   2  -1 3511.99  177.46
   4   2  -1 3491.40  164.70
  -4   2   1 3540.06  156.33
  -4   2   1 3264.72  205.91
   4  -2  -1 3612.55  162.10
  -4   2   1 3343.52  167.72
   3   3  -1 1674.08   86.48
   3  -3  -1 1584.73   86.18
   3  -3  -1 1557.96   73.14
   3   3  -1 1552.57   87.74
  -3   3   1 1564.42   82.50
   3   3  -1 1575.99   84.23
   3  -3  -1 1480.37   85.46
   3   3  -1 1502.41   81.50
   4  -1   1 3027.51  141.31
  -4   1  -1 2993.47  135.66
   4  -1   1 3127.87  158.00
  -4  -1  -1 3049.32  144.82
   4   1   1 2993.32  142.62
   4   1   1 2992.62  151.84
  -4  -1  -1 3024.82  140.65
  -4   1  -1 3071.20  158.72
  -4   1  -1 3002.95  157.22
  -4  -1  -1 3051.39  161.66
   4   1   1 2954.08  141.08
   2  -2  -5  213.99   15.34
  -2   2   5  212.73   21.90
   2  -2  -5  212.18   23.85
   2   2  -5  224.09   22.22
   2   2  -5  219.27   17.18
   2  -2  -5  208.41   21.26
   2  -2  -5  222.23   19.91
  -2  -2   5  209.88   14.83
  -2  -3  -2  345.14   26.45
   2  -3   2  335.78   29.16
  -2   3  -2  342.46   28.38
  -2  -3  -2  337.59   26.38
   2  -3   2  318.09   21.01
   2   3   2  339.21   25.47
   2   3   2  334.97   27.39
  -2   3  -2  338.61   32.53
   2  -3   2  304.37   26.27
   3  -3  -2 1750.69   81.12
   3  -3  -2 1795.42  100.86
   3   3  -2 1795.94   93.43
  -3  -3   2 1814.57   88.09
   3   3  -2 1777.49  101.00
   3  -3  -2 1762.02   93.80
   3   3  -2 1814.25   91.93
  -3   3   2 1775.97   89.51
   3   3  -2 1773.07   96.62
   3   1   3 1681.76   87.23
  -3   1  -3 1689.43   86.63
   3   1   3 1833.13   96.97
   3  -1   3 1771.78   93.02
   3  -1   3 1701.82   87.28
  -3   1  -3 1762.07   99.56
  -3   1  -3 1616.82   80.11
  -3  -1  -3 1710.17   86.38
  -3  -1  -3 1770.28   98.87
  -3   1  -3 1676.53   90.47
   3   1   3 1674.44   83.79
  -1   1  -5  294.67   26.93
  -1  -1  -5  317.24   25.93
  -1   1  -5  301.52   25.13
   1   1   5  292.62   25.76
  -1  -1  -5  332.08   25.89
   1  -1   5  347.99   27.60
  -1  -1  -5  302.79   25.38
  -1   1  -5  321.56   29.13
  -1  -1  -5  314.94   25.23
   1   0  -6    7.27    4.87
   1   0  -6   22.86    8.25
   1   0  -6    6.39    5.70
   1   0  -6    7.40    2.97
   2   0  -6   13.26    6.27
   2   0  -6   13.80    6.68
   2   0  -6   15.12    3.79
  -3  -3   0 1503.59   80.45
   3   3   0 1609.83   87.16
   3  -3   0 1610.11   89.89
  -3   3   0 1535.90   90.58
  -3   3   0 1723.51   90.29
   3  -3   0 1686.97   91.80
   3   3   0 1702.86   85.84
   3  -3   0 1672.75   78.48
   3   3   0 1772.54   91.51
  -1  -3   4 1162.57   57.42
  -1   3   4 1201.18   70.67
  -1   3   4 1238.01   65.52
  -1  -3   4 1197.10   68.85
   1   3  -4 1237.76   69.49
   1  -3  -4 1215.86   75.73
   1  -3  -4 1155.90   64.89
   1   3  -4 1228.61   66.80
   1  -3  -4 1161.99   62.95
   0   2  -5  212.53   21.90
   0  -2   5  224.03   21.48
   0   2  -5  209.38   15.95
   0   2  -5  201.73   20.93
   0  -2  -5  207.06   20.26
   0  -2  -5  211.01   19.43
   0  -2  -5  209.20   22.17
   0   2   5  207.83   18.45
   0   2  -5  229.49   24.37
   0  -2   5  204.37   21.91
   0   4   0 1687.47   98.82
   0  -4   0 1778.77   95.79
   0  -4   0 1789.02   93.86
   0   4   0 1757.27   90.30
   0   4   0 1763.71   96.47
   0  -4   0 1751.65   90.91
  -4   2   3 1006.55   70.35
   4  -2  -3 1008.39   50.66
   4  -2  -3 1011.60   68.64
   4   2  -3  919.13   51.00
   4   2  -3 1040.12   65.79
  -4  -2   3  993.04   58.25
   4   2  -3 1077.94   60.14
  -4   2   3 1026.63   50.33
  -4  -2   3  950.06   55.24
   4   2   0 1555.11   79.13
  -4   2   0 1562.38  103.86
  -4  -2   0 1474.66   82.35
  -4  -2   0 1579.26   78.86
  -4   2   0 1582.24   73.95
   4   2   0 1597.52   84.48
  -4   2   0 1596.71   86.08
   4   2   0 1638.67   94.11
   4  -2   0 1593.27   77.28
  -4  -2   0 1607.88   83.98
   0   4   1  854.92   60.57
   0   4  -1  800.16   55.16
   0   4   1  839.87   53.59
   0  -4   1  850.79   52.71
   0  -4   1  872.19   55.21
   0  -4  -1  858.12   54.54
   0  -4  -1  855.89   52.24
   0   4  -1  874.50   52.15
   0   4   1  892.32   51.66
   0   4  -1  836.01   51.64
   0  -4  -1  874.58   52.07
   0  -4   1  851.64   49.81
   0  -3  -4 1021.30   66.60
   0   3   4 1057.76   62.00
   0   3   4 1025.97   61.92
   0  -3  -4  989.71   56.96
   0   3  -4  986.18   63.73
   0   3  -4 1007.68   59.30
   0  -3   4  963.15   57.47
   0   3  -4  859.76   50.98
   0  -3  -4  997.69   55.88
   0  -3   4  995.49   60.42
   0   3   4 1058.90   58.10
   4   0  -5 1890.07   89.00
   4   0  -5 1851.56   95.76
  -4   0   5 1793.68   95.46
   4   0  -5 1888.54  102.33
  -4   0   5 1752.08   93.17
   2   3  -4  691.38   44.84
   2   3  -4  659.42   40.67
  -2  -3   4  652.33   35.89
   2  -3  -4  672.08   50.37
   2   3  -4  627.88   43.72
   2  -3  -4  691.30   43.19
  -2   3   4  666.27   40.39
  -2   3   4  689.03   48.71
   1   1  -6 2740.53  150.54
   1  -1  -6 2648.15  131.32
   1   1  -6 2934.60  139.37
   1   1  -6 2506.52  113.68
   1  -1  -6 2785.74  135.85
   1  -1  -6 2973.82  141.34
   1   1  -6 2795.64  137.66
   2  -1  -6  803.55   45.95
   2  -1  -6  779.65   40.31
  -2  -1   6  766.97   50.24
   2  -1  -6  767.02   49.88
   2  -1  -6  768.90   49.03
  -2  -1   6  744.57   37.03
   2   1  -6  799.78   50.50
   2   1  -6  790.74   46.71
   2   1  -6  773.33   40.75
  -2   1   6  745.76   45.97
  -1  -4   0 2975.34  151.91
   1   4   0 3075.50  154.40
  -1   4   0 3031.77  144.67
   1  -4   0 3036.30  152.17
   1  -4   0 3165.33  152.76
  -1  -4   0 2989.85  143.36
   1   4   0 2826.70  149.86
  -1  -4   0 3038.45  146.73
   1  -4   0 3136.08  152.13
  -1   4   0 3025.79  154.40
  -1   4   0 3144.36  167.74
  -3  -3   3 1503.60   71.29
  -3   3   3 1431.83   83.26
   3  -3  -3 1548.42   90.88
   3  -3  -3 1530.59   69.99
   3   3  -3 1591.21   89.10
   3  -3  -3 1580.19   82.42
   3   3  -3 1591.66   80.80
  -3   3   3 1501.86   74.71
   3   3  -3 1547.36   77.91
   3   3  -3 1545.53   79.39
  -1   4   1 2302.72  126.99
  -1  -4   1 2202.61  109.17
   1  -4  -1 2320.42  113.04
  -1   4   1 2232.80  105.48
  -1   4   1 2170.12  108.38
  -1  -4   1 2148.49  106.55
   1   4  -1 2167.49  131.85
   1  -4  -1 2185.49  119.81
  -1  -4   1 2223.14  106.32
   1  -4  -1 2301.38  111.23
   1   4  -1 2358.01  114.08
  -4   0  -2 2823.01  143.90
   4   0   2 2895.10  139.95
  -4   0  -2 2829.05  126.01
  -4   0  -2 2922.33  150.88
   4   0   2 2917.83  134.77
  -3   2   5 1997.46  106.97
   3   2  -5 2129.79  104.64
   3  -2  -5 2082.62   99.25
  -3  -2   5 2028.17  101.28
   3  -2  -5 2009.04  111.12
   3   2  -5 1927.60   89.22
   3  -2  -5 2066.48   91.35
   3   2  -5 1914.31   99.70
  -3  -2   5 2013.63   89.23
   0   0  -6  279.17   23.48
   0   0  -6  314.22   26.14
   0   0  -6  318.85   24.96
   0   0  -6  308.17   27.24
   5   0  -2 2384.57  118.42
  -5   0   2 2320.56  109.36
   5   0  -2 2471.97  129.65
  -5   0   2 2366.88  103.65
  -5   0   2 2390.53  132.99
   3   0  -6 3869.93  165.08
  -3   0   6 3654.55  154.16
  -3   0   6 3670.12  174.74
   3   0  -6 3725.32  179.56
   3   0  -6 3925.05  178.19
   3   3   1  790.84   45.07
  -3  -3  -1  743.60   45.33
   3  -3   1  751.73   48.69
   3  -3   1  767.77   39.70
  -3   3  -1  782.02   56.88
   3  -3   1  745.59   49.62
  -3   3  -1  800.38   48.88
   3   3   1  817.72   48.89
  -3  -3  -1  784.02   45.08
  -1  -4  -1  352.26   27.30
  -1   4  -1  366.04   29.77
   1   4   1  378.91   29.74
   1  -4   1  373.54   27.86
  -1  -4  -1  363.70   27.17
   1   4   1  370.95   27.11
   1   4   1  379.25   34.09
  -1   4  -1  342.93   32.07
   1  -4   1  356.53   29.17
  -1  -4  -1  449.54   36.01
   1  -4   1  380.27   30.21
  -1   4  -1  385.24   29.77
  -4   1   5  252.63   16.30
   4   1  -5  263.69   23.96
   4  -1  -5  247.32   22.83
  -4  -1   5  244.22   23.20
   4  -1  -5  262.19   27.07
   4  -1  -5  256.34   17.39
  -4   1   5  253.07   24.88
  -4  -1   5  250.27   22.78
   4   1  -5  260.36   18.82
  -4  -1   5  245.07   16.19
  -2   2  -4  246.70   24.00
  -2  -2  -4  229.75   22.55
  -2   2  -4  235.53   25.19
   2   2   4  196.43   19.83
  -2  -2  -4  237.63   21.05
  -2  -2  -4  223.44   20.50
   2   2   4  242.79   19.98
  -2  -2  -4  246.53   21.38
  -2   2  -4  238.99   18.32
   5   0  -1 3125.35  156.06
   5   0  -1 3217.41  147.11
  -5   0   1 3076.57  162.36
  -5   0   1 3267.62  140.31
  -5   0   1 3361.86  151.53
   5   0  -1 3489.14  154.02
  -5   0   3  598.91   31.58
   5   0  -3  597.16   36.61
  -5   0   3  569.11   46.23
  -5   0   3  606.22   39.57
   5   0  -3  586.92   46.12
  -4  -2   4  887.56   44.30
   4   2  -4  913.96   52.55
   4  -2  -4  848.45   57.03
  -4  -2   4  861.44   51.18
   4   2  -4  901.03   48.23
  -4  -2   4  928.66   52.72
  -4   2   4  798.66   61.20
  -4   2   4  889.48   42.95
   4   2  -4  899.52   55.30
   0  -4   2  304.16   23.70
   0  -4  -2  303.41   28.39
   0   4  -2  297.48   25.65
   0  -4   2  305.64   26.56
   0   4  -2  275.47   28.06
   0   4   2  285.36   29.40
   0  -4  -2  303.83   24.88
   0   4  -2  275.45   24.42
   0   4   2  280.24   25.14
   0  -4  -2  279.04   23.33
   0  -4   2  313.91   26.54
   0   4   2  281.81   22.32
   1   4  -2  533.75   42.54
  -1  -4   2  529.85   36.97
   1  -4  -2  585.35   38.69
  -1   4   2  582.79   40.63
  -1   4   2  565.04   35.51
   1  -4  -2  565.18   37.51
  -1   4   2  582.40   45.07
  -1  -4   2  558.45   38.74
  -1  -4   2  574.68   35.52
   1   4  -2  586.57   39.13
   1  -4  -2  554.11   43.06
  -4   1  -2  389.16   27.80
  -4  -1  -2  405.40   36.70
  -4   1  -2  428.18   37.07
   4   1   2  406.40   27.80
   4  -1   2  422.18   33.43
   4  -1   2  432.97   30.37
  -4  -1  -2  438.72   30.66
  -4  -1  -2  411.51   27.90
  -4   1  -2  410.21   25.30
   4   1   2  417.07   33.09
   4   1   2  427.82   30.88
   0  -1  -6  376.31   27.34
   0   1  -6  382.22   30.90
   0  -1  -6  356.67   28.03
   0  -1  -6  348.49   27.08
   0   1  -6  342.12   26.94
   0   1  -6  359.63   21.34
   0  -1  -6  384.32   29.43
   0   1  -6  374.30   29.29
  -4  -2  -1 3384.46  170.79
   4  -2   1 3503.74  153.77
   4   2   1 3555.04  170.29
   4   2   1 3594.40  160.05
  -4  -2  -1 3547.50  156.77
  -4   2  -1 3500.87  148.57
  -4  -2  -1 3273.54  148.30
  -4   2  -1 3590.05  166.44
  -4   2  -1 3622.73  179.76
  -5  -1   2 3933.68  175.88
  -5   1   2 4000.32  177.29
  -5   1   2 3987.83  168.54
  -5  -1   2 3985.48  211.50
   5   1  -2 4077.24  191.33
   5   1  -2 4009.41  178.11
  -5  -1   2 4152.17  187.09
  -5   1   2 4131.78  211.40
   5  -1  -2 4276.64  195.00
   5  -1  -2 3782.78  217.67
   5   1  -2 3943.74  208.82
   3  -1  -6 2540.79  128.41
   3   1  -6 2553.11  121.97
   3  -1  -6 2523.03  110.26
   3  -1  -6 2587.14  119.55
   3   1  -6 2617.68  124.25
   3  -1  -6 2539.82  122.98
  -3  -1   6 2422.23  118.90
   3   1  -6 2187.59   97.90
  -3  -1   6 2421.32  104.55
   3   2   3  687.67   40.19
  -3   2  -3  679.62   44.84
   3  -2   3  662.69   40.78
   3  -2   3  648.17   42.43
  -3  -2  -3  676.16   40.77
  -3   2  -3  672.35   35.61
  -3  -2  -3  659.28   40.46
  -3   2  -3  717.71   50.32
  -3  -2  -3  649.20   48.39
  -1   2  -5  117.08   16.63
  -1   2  -5  111.27   13.94
  -1   2  -5  121.26   10.47
   1   2   5  114.39   15.32
  -1  -2  -5  122.93   14.77
   1  -2   5  119.52   16.87
  -1  -2  -5  136.00   15.45
  -1  -2  -5  120.27   14.86
  -1  -2  -5  116.19   15.30
   2   3   3  537.94   33.88
  -2   3  -3  587.21   39.67
  -2  -3  -3  567.02   36.40
   2   3   3  552.38   37.70
  -2   3  -3  522.17   40.20
   2  -3   3  552.87   39.49
   2  -3   3  586.06   41.12
  -2  -3  -3  563.34   36.32
   5  -1  -1  428.18   27.20
  -5  -1   1  414.29   36.71
  -5   1   1  437.36   40.63
   5   1  -1  400.66   35.63
   5  -1  -1  431.44   36.76
  -5  -1   1  434.86   30.62
  -5  -1   1  433.29   26.21
  -5   1   1  439.05   25.05
   5   1  -1  449.48   30.15
  -5   1   1  425.34   29.54
   2   4  -1  192.59   18.53
   2   4  -1  174.45   20.38
   2  -4  -1  200.70   20.75
  -2  -4   1  199.77   20.41
  -2   4   1  182.89   17.74
   2   4  -1  199.92   19.98
  -2  -4   1  200.22   18.47
   2  -4  -1  200.91   22.82
   2  -4  -1  204.13   20.34
  -2   4   1  193.57   24.60
   2   0   5  174.46   18.15
  -2   0  -5  156.00   18.47
  -2   0  -5  153.06   16.40
   2   0   5  154.40   17.49
  -2   0  -5  129.38   14.41
  -5   1   3 1136.90   79.04
  -5   1   3 1143.75   63.12
   5   1  -3 1180.90   61.77
   5   1  -3 1122.82   75.48
  -5  -1   3 1204.43   57.08
   5   1  -3 1172.53   59.46
  -5  -1   3 1196.70   73.00
  -5  -1   3 1200.30   65.44
  -5   1   3 1153.80   53.65
  -1   3  -4  225.31   22.20
  -1   3  -4  223.55   25.67
   1  -3   4  213.48   22.19
  -1  -3  -4  223.91   19.79
  -1  -3  -4  240.88   21.33
   1   3   4  244.48   20.18
   1   3   4  234.90   22.29
   1  -3   4  228.37   20.98
  -1  -3  -4  228.02   25.89
   3  -3  -4  334.03   27.57
   3  -3  -4  297.27   18.75
   3  -3  -4  280.97   23.08
   3   3  -4  342.81   27.33
  -3   3   4  347.30   32.04
   3   3  -4  322.20   25.54
  -3   3   4  322.33   24.22
   3   3  -4  331.71   26.98
   3   3  -4  336.46   24.92
  -3  -3   4  324.02   20.96
   3  -3  -4  327.81   31.90
  -2   4   0  551.55   36.95
   2  -4   0  548.52   38.22
  -2  -4   0  520.32   35.60
   2  -4   0  472.36   35.87
   2   4   0  581.37   37.56
   2   4   0  561.42   37.65
  -2  -4   0  539.98   34.67
   2  -4   0  539.55   36.74
  -2   4   0  540.94   43.23
   2   4   0  512.08   39.71
  -3   0  -4 1154.87   68.50
   3   0   4 1102.24   60.57
   3   0   4 1182.89   65.13
  -3   0  -4 1128.57   59.75
  -5   0   0 1367.59   70.28
   5   0   0 1340.43   79.49
  -5   0   0 1299.38   79.97
   5   0   0 1358.49   69.15
  -5   0   0 1377.89   65.49
   5   0   0 1381.97   69.43
   5   0  -4 1672.19   78.89
   5   0  -4 1684.57   83.61
   5   0  -4 1456.68   91.90
  -5   0   4 1542.42   79.94
  -5   0   4 1528.96   69.71
  -5   0   4 1547.57   86.38
  -1   4  -2  735.31   45.91
   1  -4   2  646.39   42.76
   1  -4   2  697.62   41.79
  -1  -4  -2  699.00   42.64
   1  -4   2  762.04   48.72
  -1  -4  -2  679.14   43.97
  -1   4  -2  650.49   55.32
   1   4   2  735.52   51.71
  -1  -4  -2  656.38   40.67
   1   4   2  690.87   40.78
   1   4   2  704.43   46.02
  -2   4   2 1229.17   65.04
  -2  -4   2 1119.25   57.66
  -2   4   2 1159.93   72.66
   2   4  -2 1172.85   65.32
   2   4  -2 1150.76   62.22
   2   4  -2 1172.92   83.46
  -2  -4   2 1103.59   62.36
   2  -4  -2 1177.58   70.89
   2  -4  -2 1132.54   63.72
   2  -4  -2 1172.65   64.63
   1   2  -6  438.70   32.61
   1  -2  -6  432.68   30.39
   1   2  -6  387.95   28.96
   1   2  -6  406.18   25.45
   1  -2  -6  416.89   33.28
  -1   2   6  437.27   31.09
   1  -2  -6  418.03   31.24
   2   2  -6  695.24   37.80
  -2  -2   6  690.26   34.69
   2  -2  -6  700.30   47.53
   2   2  -6  703.54   42.35
   2  -2  -6  743.82   43.71
   2  -2  -6  709.54   36.70
   2  -2  -6  704.66   44.70
   2   2  -6  698.02   45.51
  -2  -2   6  672.31   44.82
   2   2  -6  725.96   45.47
  -2   2   6  710.30   44.72
  -2   1  -5   62.07   10.23
   2  -1   5   62.20   11.13
  -2  -1  -5   61.29   10.12
  -2   1  -5   61.26   12.20
  -2  -1  -5   67.28   12.33
   2  -1   5   61.44   10.44
   2   1   5   58.13   11.05
  -2  -1  -5   63.53   10.64
   1  -3  -5  741.19   45.83
  -1   3   5  746.39   42.57
   1  -3  -5  746.06   43.82
   1  -3  -5  746.17   52.18
  -1   3   5  751.90   47.61
  -1  -3   5  718.10   36.02
  -1  -3   5  719.06   46.67
   1   3  -5  768.41   47.34
   1   3  -5  677.81   39.52
  -1  -4   3  361.25   27.97
  -1  -4   3  341.35   28.19
  -1   4   3  331.33   27.85
  -1   4   3  348.01   25.42
   1  -4  -3  322.97   25.40
   1  -4  -3  361.76   28.05
  -1  -4   3  352.19   23.89
  -1   4   3  343.82   32.17
   1  -4  -3  356.01   32.35
   1   4  -3  360.25   28.65
   1   4  -3  231.70   21.35
   1   4  -3  328.43   30.70
   3  -3   2   58.43   11.97
  -3  -3  -2   64.16   10.77
  -3   3  -2   63.17   11.57
   3  -3   2   57.79    8.30
  -3  -3  -2   60.47   10.41
   3   3   2   59.32    9.86
  -3   3  -2   63.45   14.42
   3   3   2   62.76   11.09
   3  -3   2   58.17   11.53
   3   1   4 3308.83  153.26
  -3  -1  -4 3366.80  145.49
  -3   1  -4 3466.55  160.61
  -3   1  -4 3072.40  145.89
   3   1   4 3311.81  151.96
   3  -1   4 3275.26  149.41
  -3  -1  -4 3504.84  168.20
  -3   1  -4 3475.63  154.03
  -3   1  -4 3474.87  169.92
   3   1   4 3423.86  152.54
   3  -1   4 4342.51  192.46
   4   3  -2  891.97   52.53
   4   3  -2  844.78   54.46
  -4  -3   2  899.31   54.40
   4   3  -2  928.36   53.91
  -4   3   2  827.36   59.52
   4  -3  -2  925.37   62.41
   4  -3  -2  909.72   46.43
  -4  -3   2  861.33   46.94
   4  -3  -2  885.10   56.11
   5   1   0 1951.53   99.55
  -5  -1   0 1966.07  113.75
  -5   1   0 1949.76  120.88
  -5   1   0 2027.17  106.41
   5   1   0 1990.09  111.03
   5  -1   0 2043.92  111.79
  -5  -1   0 1992.29   95.67
  -5  -1   0 1964.39   99.31
   5  -1   0 2023.04   98.94
   5   1   0 1994.63   99.81
  -5   1   0 1976.47   92.96
  -4  -3   1  806.62   49.34
   4   3  -1  881.34   52.43
  -4   3   1  867.85   52.75
   4  -3  -1  874.67   45.40
   4  -3  -1  853.78   54.46
   4  -3  -1  883.91   59.67
  -4   3   1  779.42   63.39
   4   3  -1  901.24   51.87
   4   3  -1  863.20   57.48
  -1   0  -6  374.72   28.90
   1   0   6  367.97   30.27
  -1   0  -6  376.07   27.57
  -1   0  -6  370.73   30.53
  -1   0  -6  383.97   30.81
   2   3  -5 1672.43  131.08
   2   3  -5 2164.49  107.75
   2   3  -5 2223.77  112.39
   2  -3  -5 2182.03  119.97
  -2  -3   5 2158.88  100.41
   2  -3  -5 2157.42  110.64
  -2   3   5 2177.21  106.78
   2  -3  -5 2180.49  107.70
  -2   3   5 2126.52  111.88
  -5  -1   4 1051.43   52.63
  -5  -1   4  998.57   65.54
   5   1  -4 1037.56   70.42
  -5  -1   4 1032.44   60.25
  -5   1   4 1053.12   68.09
   5  -1  -4  952.10   55.34
   5   1  -4 1103.73   61.58
  -5   1   4 1067.41   52.40
   5   1  -4  904.20   49.35
   2   4   1  172.98   18.74
  -2  -4  -1  178.83   17.73
   2  -4   1  179.32   19.90
   2   4   1  165.59   21.40
   2  -4   1  167.73   19.27
  -2  -4  -1  172.55   17.99
   2  -4   1  175.76   18.35
  -2   4  -1  170.53   18.91
   2  -4   1  184.49   13.54
   0   4  -3 1873.36   99.72
   0  -4  -3 2055.51  114.24
   0   4  -3 2020.77  105.96
   0  -4  -3 1986.35  102.40
   0  -4   3 1993.47   96.53
   0   4   3 2086.54  103.33
   0   4   3 2066.22  112.72
   0   4   3 1843.65   97.70
   0   4  -3 2038.58  123.97
   0  -4   3 1828.53  102.00
   0  -4   3 2015.10  105.15
   0  -4  -3 1959.01   99.03
   4   0  -6  503.10   29.48
  -4   0   6  547.66   38.35
   4   0  -6  570.24   41.70
  -4   0   6  581.72   41.39
   4   0  -6  594.49   40.37
   4   2  -5  364.28   29.11
   4  -2  -5  354.12   26.28
  -4  -2   5  365.58   22.50
   4  -2  -5  333.33   21.06
   4  -2  -5  363.99   29.95
   4  -2  -5  367.15   34.14
  -4  -2   5  366.88   29.64
   4   2  -5  346.52   28.89
   4   2  -5  346.99   24.34
   0   3  -5  408.03   29.28
   0   3   5  499.42   35.17
   0  -3  -5  434.41   30.63
   0  -3   5  465.11   36.00
   0   3   5  483.67   35.94
   0  -3   5  496.63   35.55
   0   3  -5  503.80   36.28
   0   3  -5  537.82   41.52
   0  -3  -5  460.40   38.35
   0   3   5  483.92   31.86
   0  -3  -5  463.52   33.43
   4  -3  -3  492.75   28.03
   4   3  -3  501.43   34.44
   4   3  -3  501.18   33.95
   4   3  -3  479.10   36.23
  -4  -3   3  468.60   34.47
   4  -3  -3  473.99   36.32
  -4  -3   3  491.77   29.96
   4  -3  -3  470.60   40.44
  -4   0  -3   76.91   10.59
  -4   0  -3   73.36   11.61
  -4   0  -3   70.14   14.60
   4   0   3   76.39   12.75
   4   0   3   76.81   11.59
   2   4  -3 1717.80  127.28
  -2   4   3 1903.42  108.64
   2  -4  -3 1875.19   98.74
  -2  -4   3 1777.08   94.69
  -2   4   3 1830.14   92.27
   2  -4  -3 1741.03   98.53
   2  -4  -3 1839.17   95.18
  -2  -4   3 1855.43   90.54
   2   4  -3 1985.62  101.69
   2   4  -3 2450.62  140.40
   4   2   2 2410.37  117.33
  -4   2  -2 2168.36  144.32
  -4   2  -2 2379.29  109.62
  -4  -2  -2 2193.03  127.71
   4  -2   2 2370.76  115.22
   4   2   2 2245.04  115.06
   4  -2   2 2339.33  120.91
  -4   2  -2 2384.25  123.13
  -4  -2  -2 2417.19  117.85
   0  -2  -6  638.87   40.60
   0   2  -6  759.52   48.61
   0   2   6  715.49   47.41
   0   2  -6  767.44   49.29
   0  -2   6  738.81   49.15
   0   2  -6  827.72   61.61
   0  -2  -6  739.70   48.46
   0   2  -6  774.60   41.17
   0  -2  -6  750.95   47.00
   2   0  -7 1545.26   74.81
   2   0  -7 1550.50   83.55
   2   0  -7 1591.49   86.65
   1   1   6 1021.60   60.74
  -1   1  -6 1260.13   74.72
  -1  -1  -6 1067.75   60.04
  -1   1  -6 1087.04   64.52
  -1   1  -6 1100.27   62.37
  -1  -1  -6 1090.19   61.61
  -1  -1  -6 1101.96   61.20
  -1  -1  -6 1080.65   62.50
   4   3   0  714.73   46.07
  -4  -3   0  701.73   41.50
  -4   3   0  724.37   37.88
   4   3   0  734.21   52.52
   4   3   0  709.30   42.67
   4  -3   0  732.08   39.85
   4  -3   0  714.00   49.82
  -4   3   0  663.71   56.74
  -4   3   0  727.85   46.57
   5   2  -2 2534.75  123.86
  -5   2   2 2322.97  151.86
  -5  -2   2 2427.73  113.90
  -5   2   2 2284.17  112.13
  -5   2   2 2489.02  113.73
   5   2  -2 2450.02  119.32
  -5  -2   2 2433.19  129.53
   5   2  -2 2373.66  137.76
  -5   2   2 2540.12  126.44
   5  -2  -2 2556.56  119.24
  -5  -2   2 2394.07  119.46
   3  -2  -6 1655.81   93.88
  -3   2   6 1715.14   92.23
  -3  -2   6 1643.62   89.56
   3  -2  -6 1697.96   87.49
  -3  -2   6 1665.02   80.09
   3  -2  -6 1761.66   95.69
   3   2  -6 1753.13   86.39
   3  -2  -6 1761.38   83.21
   3   2  -6 1791.31   93.85
   4   1  -6  448.15   33.48
  -4  -1   6  453.07   34.89
  -4   1   6  432.71   24.80
  -4  -1   6  477.50   34.18
  -4   1   6  408.42   32.92
   4  -1  -6  475.94   38.26
   4  -1  -6  463.63   34.60
   4   1  -6  449.24   27.87
   4  -1  -6  436.46   28.32
  -4  -1   6  456.69   25.97
  -5   0  -1  160.07   16.89
   5   0   1  159.22   15.82
  -5   0  -1  158.19   14.14
   5   0   1  155.31   20.07
  -5   0  -1  130.74   19.63
   5   0   1  166.75   17.23
   1   0  -7 2486.41  122.13
   1   0  -7 2566.02  129.29
   1   0  -7 2534.60  126.25
   1   0  -7 2560.23  116.90
   5   0  -5   77.01    9.34
  -5   0   5   81.10    8.18
  -5   0   5   79.63   13.47
  -5   0   5   78.57   12.88
   5   0  -5   78.87   11.82
   5  -2  -1 3316.62  139.70
  -5   2   1 3198.13  131.80
   5   2  -1 3289.39  159.83
  -5  -2   1 3081.50  159.84
  -5   2   1 3167.10  182.90
  -5  -2   1 2969.13  143.21
   5   2  -1 3167.09  161.52
  -5   2   1 3154.87  157.71
   5   2  -1 3258.26  141.14
  -5   2   1 3200.42  144.22
  -5  -2   1 3222.81  135.61
   5  -2  -3  417.55   36.64
  -5  -2   3  401.92   31.57
   5   2  -3  472.30   33.28
   5   2  -3  425.38   36.61
  -5   2   3  437.37   38.19
   5   2  -3  429.46   29.43
   5  -2  -3  399.58   24.82
  -5  -2   3  404.88   31.06
  -5   2   3  431.76   24.77
  -4   1  -3  606.01   46.76
  -4  -1  -3  566.71   37.36
  -4   1  -3  644.73   37.32
   4  -1   3  639.18   43.10
  -4  -1  -3  639.77   48.71
  -4   1  -3  646.15   48.38
   4   1   3  650.93   39.52
   4  -1   3  653.58   41.55
  -4  -1  -3  641.79   39.31
   4   1   3  654.66   42.31
   4   1   3  660.77   44.49
   3  -3  -5  536.76   35.82
  -3   3   5  615.51   38.54
  -3  -3   5  584.94   32.61
   3   3  -5  597.35   44.69
  -3  -3   5  495.86   36.08
   3  -3  -5  606.25   47.19
   3   3  -5  628.21   38.36
  -3   3   5  601.10   45.52
   3   3  -5  607.91   40.00
   3   3  -5  655.55   43.19
   1  -4   3  106.98   15.64
  -1  -4  -3  104.86   15.58
   1   4   3   97.90   14.97
  -1   4  -3   97.86   14.43
   2   1  -7   50.08    6.70
  -2  -1   7   41.07   10.59
   2  -1  -7   42.15    9.66
   2  -1  -7   42.80   10.17
   2  -1  -7   42.40    9.87
   2   1  -7   44.04    9.30
   2  -1  -7   42.35    8.45
   2   1  -7   45.62   10.43
  -2   1   7   45.73    9.39
   2  -1  -7   41.49    5.92
   3  -4  -1  746.56   48.10
   3   4  -1  761.76   46.32
  -3   4   1  711.85   44.46
   3   4  -1  734.91   47.07
  -3  -4   1  716.42   42.26
  -3  -4   1  705.91   46.02
   3  -4  -1  707.67   37.31
   3  -4  -1  746.77   52.22
  -3   4   1  653.11   55.57
   3  -4  -1  727.17   47.41
   3   4  -1  739.60   51.61
   3   4  -1  713.64   44.83
   3   0  -7  801.59   51.21
   3   0  -7  869.10   53.85
   3   0  -7  839.04   43.45
   2  -4   2 1055.80   63.73
   2   4   2 1057.17   63.89
   2  -4   2 1053.19   51.92
  -2   4  -2 1102.91   63.71
   2  -4   2 1035.26   62.70
  -2  -4  -2 1055.16   59.70
   5   1   1  815.38   49.21
  -5   1  -1  778.25   59.30
  -5   1  -1  761.92   54.74
  -5  -1  -1  811.42   45.13
   5   1   1  797.61   54.41
  -5  -1  -1  768.81   47.00
   5   1   1  795.35   46.52
  -5   1  -1  804.41   42.82
  -5  -1  -1  681.59   63.98
   5  -1   1  801.46   53.94
   5  -1   1  810.51   47.20
   3  -4  -2  384.85   30.61
  -3  -4   2  371.77   29.82
   3  -4  -2  379.27   30.41
   3   4  -2  411.07   33.64
  -3   4   2  393.74   36.41
   3   4  -2  392.21   28.93
  -3  -4   2  373.69   25.96
   3  -4  -2  381.67   34.31
   3  -4  -2  377.25   22.70
   3   4  -2  399.30   30.48
   3   4  -2  403.96   29.78
  -3   4   2  388.67   28.41
   1   1  -7   43.92   10.72
   1   1  -7   43.18    9.64
   1  -1  -7   35.08    8.44
   1  -1  -7   38.66    8.87
   1   1  -7   43.48    6.03
   1  -1  -7   37.03    9.37
   1   1  -7   40.10    8.95
   1  -1  -7   39.64    8.00
   1   1  -7   41.89    8.77
   5  -1  -5  259.41   22.09
  -5  -1   5  258.34   24.09
  -5   1   5  270.31   26.63
   5   1  -5  285.31   27.54
   5   1  -5  286.04   24.32
   5  -1  -5  272.55   29.06
  -5   1   5  276.84   17.77
   5   1  -5  283.23   20.75
  -5  -1   5  260.79   23.93
   5  -1  -5  275.44   19.13
  -2  -3  -4  374.55   38.90
  -2  -3  -4  513.78   34.84
  -2   3  -4  488.21   35.72
   2  -3   4  567.19   41.58
  -2  -3  -4  430.43   36.44
  -2   3  -4  496.96   40.05
   2  -3   4  502.63   37.99
  -2  -3  -4  415.27   29.93
   2   2   5   30.26    6.96
  -2  -2  -5   22.73    6.80
  -2   2  -5   33.00    9.50
   2  -2   5   22.95    6.97
  -2  -2  -5   27.55    8.09
  -2   2  -5   30.34    9.22
  -2   2  -5   31.56    7.04
  -2  -2  -5   26.23    7.03
  -2  -2  -5   25.46    6.99
   2   2   5   31.06    8.40
  -4  -3   4  263.33   24.01
   4   3  -4  290.56   24.54
  -4  -3   4  282.53   19.63
   4   3  -4  293.95   23.44
   4  -3  -4  273.77   29.26
   4  -3  -4  261.71   25.19
   4   3  -4  280.60   25.33
   4  -3  -4  283.05   18.50
  -3  -4   0  496.88   32.80
   3   4   0  475.88   34.74
   3   4   0  477.73   35.17
   3   4   0  434.18   34.33
   3   4   0  492.52   33.40
  -3  -4   0  486.98   34.85
   3  -4   0  492.05   27.61
   3  -4   0  503.72   39.13
  -3   4   0  492.14   35.49
   3  -4   0  507.47   36.89
   3  -4   0  486.19   36.96
  -1  -4   4   12.63    3.99
  -1   4   4   13.93    5.31
  -1  -4   4   13.52    6.03
   1   4  -4   14.22    7.71
   1  -4  -4   12.21    7.68
  -1   4   4   15.37    7.67
  -1  -4   4   11.64    6.75
   1   4  -4   13.50    7.86
   1  -4  -4   10.55    4.77
  -1   4   4   13.42    6.49
   1  -4  -4   11.85    5.96
   1   4  -4   11.92    5.47
  -3  -2  -4  535.10   40.86
  -3   2  -4  516.80   29.01
  -3   2  -4  534.84   37.68
  -3  -2  -4  567.39   36.14
   3   2   4  530.90   32.44
  -3   2  -4  509.93   41.41
   3   2   4  514.48   35.16
   3  -2   4  529.51   35.11
  -3  -2  -4  538.70   34.07
   3  -2   4  625.21   42.02
  -5  -2   0 1883.87   85.17
  -5   2   0 1838.83  103.99
  -5   2   0 1712.88   87.33
   5   2   0 1884.17   87.73
  -5  -2   0 1870.98   89.39
   5  -2   0 1736.53   78.36
   5  -2   0 1861.61   97.29
  -5   2   0 1878.28   80.30
   5   2   0 1867.14   99.78
  -5  -2   0 1687.64   95.80
  -5   2   0 1863.10   92.49
   4  -3   1  183.75   21.00
   4   3   1  171.13   17.65
   4   3   1  194.85   22.86
  -4   3  -1  200.30   24.72
  -4  -3  -1  187.01   17.32
  -4   3  -1  191.35   19.72
   4  -3   1  179.61   14.65
  -4   3  -1  194.80   13.60
   4   3   1  196.48   17.70
  -5  -2   4  709.30   43.61
   5   2  -4  759.94   43.97
   5   2  -4  760.39   41.87
   5  -2  -4  757.33   37.88
  -5   2   4  738.00   35.53
   5   2  -4  732.02   51.03
   5  -2  -4  731.90   50.91
  -5   2   4  677.72   52.98
  -5  -2   4  696.17   44.00
   3  -1  -7 1449.20   70.92
  -3  -1   7 1611.00   83.03
   3   1  -7 1672.01   83.36
   3   1  -7 1681.41   82.83
  -3   1   7 1603.46   79.35
   3  -1  -7 1643.18   84.84
   3   1  -7 1559.15   84.96
   3  -1  -7 1674.34   72.82
   3  -1  -7 1670.28   84.62
  -3  -1   7 1548.05   67.12
   0   0  -7    1.68    4.43
   0   0  -7    0.23    5.10
   0   0  -7    0.77    3.95
   0   0  -7    0.05    4.25
  -3   3  -3  957.47   54.72
  -3   3  -3  876.09   67.69
   3   3   3  967.22   50.80
   3   3   3  838.83   49.59
  -3  -3  -3  939.54   51.30
  -3  -3  -3  960.54   51.53
   3  -3   3  965.39   52.26
  -1   3  -5  387.42   36.75
   1   3   5  436.26   28.38
  -1  -3  -5  453.33   30.54
  -1  -3  -5  455.62   31.39
  -1  -3  -5  441.99   36.04
   1  -3   5  409.65   29.25
   1  -3   5  424.34   33.04
   0   4  -4  569.23   37.37
   0   4   4  642.59   42.35
   0  -4  -4  642.27   46.60
   0   4   4  637.73   43.09
   0  -4  -4  499.81   33.51
   0  -4   4  565.30   38.70
   0   4   4  650.00   38.23
   0  -4   4  604.27   39.15
   0   4  -4  557.15   44.54
   2   4  -4 1278.86   74.17
  -2  -4   4 1247.32   67.32
   2   4  -4 1385.20   70.93
   2  -4  -4 1237.60   72.91
   2  -4  -4  939.66   51.68
  -2   4   4 1239.84   71.26
  -2   4   4 1276.06   63.55
  -2  -4   4 1215.89   56.62
   2  -4  -4 1254.33   66.41
   3   4  -3 1372.60   78.78
  -3  -4   3 1416.63   65.96
   3  -4  -3 1429.13   81.08
   3  -4  -3 1363.42   79.61
   3  -4  -3 1421.39   75.11
   3  -4  -3 1318.38   58.71
  -3   4   3 1394.36   68.44
  -3   4   3 1455.81   86.45
   3   4  -3 1489.68   75.69
   3   4  -3 1476.78   79.70
   3   4  -3 1499.60   74.32
  -1  -2  -6 1143.14   59.91
  -1   2  -6 1098.34   61.23
  -1  -2  -6 1048.73   57.89
   1  -2   6 1154.87   60.88
  -1  -2  -6 1024.12   55.95
  -1   2  -6 1104.52   63.94
   1   2   6 1091.42   60.67
  -1  -2  -6 1078.63   57.60
  -1   2  -6 1056.05   56.78
  -1   2  -6 1057.07   48.46
   4   2  -6  420.29   31.34
  -4  -2   6  426.65   32.11
   4  -2  -6  432.89   24.02
   4   2  -6  434.30   31.69
  -4  -2   6  414.44   23.03
   4   2  -6  431.43   26.68
   4  -2  -6  413.37   35.06
   4  -2  -6  417.15   28.51
   4  -2  -6  423.14   32.29
   0   1  -7 1444.90   63.54
   0  -1  -7 1490.01   74.83
   0  -1  -7 1447.55   72.70
   0  -1  -7 1571.04   76.09
   0   1  -7 1480.73   76.83
   0   1  -7 1384.53   72.35
   0   1  -7 1485.77   75.57
   0  -1  -7 1566.62   77.91
   3  -4   1  289.87   26.03
   3  -4   1  275.69   25.84
   3   4   1  301.09   23.13
   3   4   1  250.83   22.30
  -3  -4  -1  278.95   23.21
   3  -4   1  293.82   24.92
   3  -4   1  287.22   17.96
  -3   4  -1  301.94   25.42
   3   0   5    5.09    4.63
  -3   0  -5    5.53    4.74
  -3   0  -5    4.27    6.36
   3   0   5    5.24    4.96
  -1  -3   6 1686.11   87.34
   1   3  -6 1785.16   97.77
  -1   3   6 1738.45   85.26
   1  -3  -6 1725.93   91.71
   1  -3  -6 1776.57   84.96
  -1   3   6 1769.17   82.54
   1  -3  -6 1708.94   83.32
  -1  -3   6 1682.48   72.08
   1   3  -6 1752.29   80.29
   1   3  -6 1806.76   88.22
  -2   3   6   77.36   10.60
   2  -3  -6   57.66    9.50
   2  -3  -6   78.60   12.25
   2   3  -6   77.76   10.08
  -2  -3   6   71.88    7.48
   2   3  -6   78.04   12.64
  -2   3   6   72.63   12.47
   2  -3  -6   76.24   14.64
  -2   0  -6    8.16    5.65
  -2   0  -6    9.44    4.95
  -2   0  -6    8.30    4.55
   2   0   6    9.09    5.66
  -5   0  -2  580.65   32.64
  -5   0  -2  436.03   38.33
   5   0   2  589.97   36.90
   5   0   2  585.56   41.00
  -5   0  -2  610.78   38.38
  -6   0   2   22.06    9.32
  -6   0   2   20.25    6.15
   6   0  -2   21.87    9.77
   6   0  -2   21.69    5.91
   6   0  -2   22.76    6.40
  -6   0   2   23.37    4.76
   0   5   0   -1.07    6.22
   0  -5   0   -0.34    3.87
   0  -5   0   -0.16    5.01
   0   5   0    0.09    3.23
   0   5   0   -0.14    4.59
   0  -5   0    0.31    3.78
   5   0  -6  128.23   11.86
  -5   0   6  115.63   15.42
  -5   0   6  121.39   15.93
   5   0  -6  131.57   15.99
   4   2   3  786.11   46.28
  -4  -2  -3  891.66   48.32
   4   2   3  876.93   50.33
   4  -2   3  857.78   47.92
  -4   2  -3  846.06   44.20
   4   2   3  848.99   45.74
  -4   2  -3  828.60   60.14
   4  -2   3  854.64   50.57
  -4   2  -3  870.30   52.35
  -4  -2  -3  759.00   53.60
  -6   0   3  337.55   26.37
  -6   0   3  344.78   20.33
   6   0  -3  346.25   32.20
   6   0  -3  339.36   24.74
  -6   0   3  343.50   30.76
   4   0  -7  420.85   31.16
   4   0  -7  400.93   31.83
  -4   0   7  408.35   29.76
  -4   0   7  400.17   22.06
   4   0  -7  377.12   26.75
   2  -2  -7  537.52   34.09
  -2  -2   7  464.99   24.69
   2   2  -7  523.29   35.93
   2   2  -7  529.98   29.50
  -2  -2   7  499.03   36.59
   2   2  -7  506.21   33.29
  -2   2   7  500.41   33.68
   2  -2  -7  510.35   35.14
   2   2  -7  487.74   33.89
   2  -2  -7  501.82   37.36
   2  -2  -7  493.48   26.57
   0  -5   1  768.90   50.78
   0   5   1  642.26   48.66
   0   5   1  690.96   41.23
   0  -5  -1  586.24   39.78
   0   5  -1  642.85   50.20
   0   5  -1  625.26   42.00
   0  -5  -1  601.65   39.52
   0   5   1  658.07   42.52
   0   5  -1  649.99   39.64
   0  -5  -1  613.56   38.14
   0  -5   1  592.79   39.48
   0  -5   1  608.47   37.23
   3   1   5  337.67   26.79
  -3  -1  -5  328.85   25.57
   3  -1   5  318.35   25.08
  -3  -1  -5  313.14   29.83
  -3   1  -5  322.16   29.35
  -3   1  -5  307.22   23.57
  -3   1  -5  326.29   24.23
   3  -1   5  305.96   25.10
   3   1   5  312.67   25.60
  -3   1  -5  331.62   27.77
  -3  -1  -5  313.24   24.15
   5   2   1 2773.78  134.68
  -5   2  -1 2730.09  141.37
  -5   2  -1 2273.82  121.66
  -5  -2  -1 2904.08  131.22
  -5   2  -1 2717.15  127.28
  -5   2  -1 2771.43  114.83
   5  -2   1 2783.75  120.78
  -5  -2  -1 2849.70  124.66
  -5  -2  -1 2691.10  137.01
   5  -2   1 2825.02  135.78
   5   2   1 2710.85  121.68
   1  -2  -7  884.98   51.26
   1  -2  -7  891.92   51.00
   1   2  -7  899.59   52.31
   1   2  -7  804.06   47.91
   1  -2  -7  837.69   51.16
   1   2  -7  912.71   44.40
   2  -4   3  521.65   37.38
   2  -4   3  570.58   39.73
  -2  -4  -3  557.31   36.14
   2   4   3  569.94   38.76
  -2   4  -3  550.22   46.49
  -2  -4  -3  543.99   34.87
  -2   4  -3  577.42   38.03
  -4   3   5  240.99   25.36
   4   3  -5  213.50   19.57
   4  -3  -5  231.53   26.04
   4   3  -5  245.64   22.16
   4   3  -5  236.79   21.79
  -4  -3   5  221.74   21.24
  -4  -3   5  233.11   16.13
   4  -3  -5  219.83   20.77
   5   2  -5  378.23   28.16
  -5  -2   5  345.84   27.49
   5  -2  -5  351.49   33.04
  -5  -2   5  349.10   20.78
  -5   2   5  345.04   19.84
  -5  -2   5  354.07   27.24
   5   2  -5  352.13   30.45
  -5   2   5  327.59   29.18
   5   2  -5  368.59   24.69
   1  -5   0 1367.32   72.28
  -1  -5   0 1357.35   70.60
   1   5   0 1422.38   72.22
  -1   5   0 1378.50   69.20
   1   5   0 1438.06   85.03
   1  -5   0 1308.99   71.04
  -1  -5   0 1280.11   70.21
  -1  -5   0 1376.99   69.07
  -1   5   0 1376.71   77.76
  -1   5   0 1269.98   76.21
   1  -5   0 1370.93   68.85
   1   5   0 1394.07   77.13
   6   0  -1  114.06   18.07
   6   0  -1  110.50   12.58
  -6   0   1  123.04   14.26
  -6   0   1  116.12   10.69
  -6   0   1  102.03   17.39
   6   0  -1  108.44   12.57
  -2  -1  -6  594.72   37.08
  -2   1  -6  581.62   37.32
   2   1   6  603.42   39.47
  -2   1  -6  582.16   41.53
  -2  -1  -6  538.57   37.65
   2  -1   6  637.99   39.32
  -2  -1  -6  605.30   38.40
   2  -1   6  609.47   40.18
   5  -1   2  555.62   39.11
  -5  -1  -2  566.44   32.94
   5  -1   2  586.97   36.45
   5   1   2  535.09   35.23
   5   1   2  513.50   31.68
  -5   1  -2  560.13   35.98
  -5  -1  -2  584.73   36.94
   5   1   2  546.17   39.05
  -5  -1  -2  461.06   52.72
  -5   1  -2  541.04   43.13
  -5   1  -2  547.89   30.11
   1   5  -1  218.56   21.14
   1   5  -1  204.58   19.05
  -1  -5   1  207.89   18.49
  -1   5   1  212.63   21.79
  -1   5   1  207.62   24.96
  -1   5   1  207.75   18.76
   1  -5  -1  204.30   21.56
  -1  -5   1  198.33   19.20
   1  -5  -1  217.56   21.46
   1  -5  -1  228.16   20.69
  -1  -5   1  209.95   20.94
   1   5  -1  196.96   22.78
  -1  -4  -4  674.40   40.44
   1   4   4  669.95   38.90
  -1  -4  -4  696.21   42.27
   1  -4   4  637.00   39.59
   1   4   4  667.47   41.12
   1  -4   4  666.56   44.05
   1   4   4  570.43   38.14
  -1   4  -4  665.80   42.14
  -1  -4  -4  689.44   47.63
   4   0   4 3953.83  190.23
  -4   0  -4 2904.49  161.97
  -4   0  -4 2820.31  189.87
  -4   0  -4 3102.41  145.71
   4   0   4 3102.46  147.77
  -6  -1   2  130.36   14.86
  -6  -1   2  137.51   11.98
  -6   1   2  131.03   10.84
  -6   1   2  132.31   19.77
   6   1  -2  135.28   19.90
   6  -1  -2  135.04   19.70
  -6  -1   2  131.21   17.93
  -6   1   2  135.04   14.73
   6  -1  -2  131.14   12.84
   6   1  -2  138.97   14.52
   3   4  -4  131.72   15.49
   3  -4  -4  115.56   14.57
   3   4  -4  110.53   14.63
  -3  -4   4  113.24   10.99
   3   4  -4  129.93   14.69
  -3   4   4  120.89   13.37
   3  -4  -4  119.06   15.59
   3   4  -4   60.83   10.20
   3  -4  -4  117.63   18.57
  -3   4   4  125.72   19.11
   3  -4  -4  118.30   10.30
  -5  -1   6  448.25   25.39
   5  -1  -6  327.53   20.40
   5  -1  -6  483.15   34.84
   5   1  -6  442.17   36.46
  -5   1   6  456.76   35.72
  -5  -1   6  455.42   33.44
   5   1  -6  389.78   25.24
   5   1  -6  484.47   34.57
  -5  -1   6  447.07   33.12
   6   1  -3  669.75   40.75
   6  -1  -3  702.23   39.43
   6   1  -3  679.07   40.13
   6   1  -3  649.45   49.76
  -6  -1   3  649.91   42.06
  -6   1   3  681.02   43.48
  -6  -1   3  600.87   46.86
  -6   1   3  672.38   51.35
  -6   1   3  669.22   35.06
   6  -1  -3  615.13   49.45
  -4  -1   7  210.29   21.85
   4  -1  -7  231.02   22.65
   4   1  -7  236.12   22.44
   4  -1  -7  224.84   23.96
   4   1  -7  184.51   24.32
   4  -1  -7  227.94   16.11
  -4  -1   7  219.01   15.01
  -4   3  -2  929.58   47.18
   4   3   2  906.87   51.15
  -4   3  -2  878.81   69.76
   4  -3   2  903.41   49.72
  -4  -3  -2  893.66   50.30
   4   3   2  860.06   54.29
  -4   3  -2  979.21   58.30
  -6   0   4  563.44   30.54
   6   0  -4  606.20   37.80
   6   0  -4  607.46   35.93
   6   0  -4  595.33   46.98
  -6   0   4  584.51   45.03
  -6   0   4  595.88   39.92
   0  -3  -6  425.41   31.30
   0  -3  -6  441.69   36.51
   0  -3  -6  445.80   31.29
   0   3  -6  414.81   27.79
   0   3  -6  427.63   32.83
   0   3   6  425.93   28.97
   0   3  -6  343.37   30.11
   0  -3   6  391.36   32.08
  -5   3   2  226.51   27.57
   5   3  -2  249.16   21.20
  -5   3   2  244.92   16.29
  -5   3   2  224.01   19.57
   5   3  -2  254.79   22.39
   5   3  -2  213.92   23.56
   5  -3  -2  236.74   17.06
  -5  -3   2  224.63   21.48
   3  -3  -6 1582.26   74.36
   3  -3  -6 1808.07  101.84
   3   3  -6 1821.07  100.71
  -3  -3   6 1805.13   83.67
   3   3  -6 1934.10   99.07
   3   3  -6 1868.74   96.05
   3   3  -6 1799.43   94.95
  -3  -3   6 1818.50   96.29
  -3   3   6 1870.75  100.02
  -3  -2   7  384.44   22.35
   3  -2  -7  406.17   24.11
   3   2  -7  405.94   26.14
  -3  -2   7  388.85   31.74
   3   2  -7  417.90   31.75
  -3   2   7  370.03   29.08
   3  -2  -7  272.13   22.39
   3  -2  -7  379.54   33.08
   3  -2  -7  400.03   32.26
   1  -5   1 1972.65   98.87
  -1  -5  -1 2002.76  104.72
  -1  -5  -1 1950.37  100.02
   1  -5   1 1947.21  102.04
  -1   5  -1 2011.65  101.61
   1   5   1 1892.75  106.19
   1   5   1 2058.01  106.31
  -1  -5  -1 1978.58  100.34
   1  -5   1 2005.81  109.28
  -1   5  -1 1917.75  117.06
   1   5   1 1982.97   98.31
  -1   5  -1 1966.83  106.99
   5  -3  -1  359.78   23.09
  -5   3   1  379.86   29.63
  -5   3   1  386.26   22.65
  -5   3   1  338.21   36.01
  -5  -3   1  362.02   27.85
   5   3  -1  365.29   26.62
   5   3  -1  380.90   28.67
  -5  -3   1  353.46   26.71
   5   3  -1  377.00   33.94
  -5  -3   3 1203.35   60.16
  -5   3   3 1213.74   78.51
  -5  -3   3 1145.22   64.71
   5   3  -3 1141.46   64.49
   5  -3  -3 1182.91   60.82
   5   3  -3 1311.53   70.78
   5   3  -3 1124.18   67.72
  -6  -1   1 2968.58  188.57
  -6  -1   1 3071.94  188.03
   6  -1  -1 2974.40  201.69
   6   1  -1 2959.49  160.37
   6   1  -1 3011.40  188.24
  -6  -1   1 2983.75  212.06
   6  -1  -1 3109.05  192.21
   6   1  -1 2820.19  134.68
  -6   1   1 3063.87  186.56
  -6   1   1 2835.37  140.39
  -6   1   1 2840.07  174.26
   1  -4  -5 1560.99   91.17
  -1   4   5 1523.97   84.12
  -1   4   5 1562.82   79.39
   1  -4  -5 1573.27   82.27
  -1  -4   5 1517.47   85.19
   1   4  -5 1594.85  107.51
  -1  -4   5 1503.38   71.20
  -1   0  -7  262.20   25.51
  -1   0  -7  234.77   20.49
  -1   0  -7  223.57   20.97
   0  -5  -2  701.18   48.82
   0  -5   2  566.55   39.68
   0   5   2  786.73   46.04
   0   5   2  807.39   56.74
   0  -5   2  740.02   48.16
   0  -5  -2  776.22   50.49
   0   5  -2  820.14   50.16
   0   5  -2  779.37   58.18
   0  -5   2  802.87   46.77
   0  -5  -2  818.68   49.11
   0   5  -2  737.48   52.10
   0   5   2  800.86   51.27
   1   5  -2  502.69   42.91
  -1  -5   2  500.90   35.23
   1  -5  -2  545.44   36.93
   1   5  -2  460.41   32.90
  -1   5   2  472.84   35.33
   1  -5  -2  524.21   40.43
  -1   5   2  510.78   43.31
   1  -5  -2  517.30   36.27
  -1   5   2  522.69   34.42
  -1  -5   2  460.93   34.38
   1   5  -2  519.46   37.72
  -1  -5   2  535.04   34.43
  -4   1  -4  577.44   40.60
   4  -1   4  635.61   43.14
  -4  -1  -4  600.72   37.71
  -4   1  -4  592.41   45.31
  -4  -1  -4  528.92   41.63
   4   1   4  588.73   39.51
  -4   1  -4  554.02   40.60
  -4  -1  -4  576.70   44.93
   4  -1   4  588.95   38.61
   4   1   4  538.52   36.72
  -4   1  -4  589.98   35.36
   3  -4   2  272.50   19.08
  -3  -4  -2  258.45   22.31
  -3   4  -2  280.88   30.02
   3   4   2  262.12   24.27
   3  -4   2  269.79   25.53
  -3   4  -2  270.19   24.30
  -4  -4   2  391.73   26.01
   4  -4  -2  384.16   31.83
  -4   4   2  389.84   28.28
   4  -4  -2  382.85   34.23
   4   4  -2  395.75   31.13
   4  -4  -2  409.20   31.69
   4  -4  -2  397.19   23.47
   4   4  -2  410.47   30.54
   4   4  -2  381.34   31.05
   4   4  -2  425.98   30.85
  -6  -1   4 1089.62   62.33
  -6   1   4 1079.75   62.66
   6   1  -4 1157.80   62.70
   6   1  -4 1083.70   70.76
  -6   1   4 1147.02   71.88
   6   1  -4 1040.97   76.35
  -6  -1   4  840.43   54.10
  -6   1   4 1084.62   52.48
   4  -4  -1 2869.46  129.32
  -4  -4   1 2889.17  135.19
   4   4  -1 2867.12  143.40
   4   4  -1 2415.26  125.58
   4   4  -1 3096.34  197.44
  -4   4   1 3006.97  189.83
   4  -4  -1 2844.97  142.29
   2   4  -5   22.65    8.17
  -2   4   5   23.48    6.16
   2  -4  -5   25.14    9.95
   2  -4  -5   25.30    6.71
  -2   4   5   23.79    8.46
  -2  -4   5   24.45    8.58
   2   4  -5   21.48    7.08
  -2  -4   5   23.31    4.74
   0  -2  -7 1212.26   66.15
   0  -2  -7 1124.30   63.51
   0   2  -7 1066.42   54.99
   0   2  -7 1208.79   71.51
   0   2  -7 1084.88   62.45
   0  -2  -7 1085.72   63.16
  -6   0   0  111.62   18.73
  -6   0   0  113.30   13.58
  -6   0   0  115.45   11.15
   6   0   0  118.69   18.09
   6   0   0  108.24   12.53
   6   0   0  109.02   13.63
   2   0  -8 1345.56   73.33
   2   0  -8 1355.22   75.47
   2   0  -8 1367.79   75.28
   2   0  -8 1364.42   65.33
  -2  -5   1 1082.24   58.48
  -2   5   1 1076.94   59.62
  -2  -5   1 1115.92   64.00
   2  -5  -1  957.32   87.90
   2   5  -1 1075.55   73.48
   2  -5  -1 1028.94   62.98
   2   5  -1 1183.88   67.11
   2  -5  -1 1140.12   65.12
  -2   5   1 1128.73   77.98
  -2  -3  -5  496.75   33.90
   2  -3   5  480.06   36.98
  -2   3  -5  505.56   36.73
  -2  -3  -5  472.67   35.09
  -2   3  -5  466.34   40.96
  -2  -3  -5  460.76   37.75
  -1  -1  -7 1357.83   72.21
  -1  -1  -7 1236.38   68.23
  -1   1  -7 1265.85   68.80
  -1  -1  -7 1265.37   68.66
  -1  -1  -7 1244.66   67.17
  -1   1  -7 1473.94   83.09
   1   1   7 1272.06   71.81
   0   4   5   27.19    7.81
   0  -4  -5   27.62    7.36
   0  -4  -5   26.96    9.20
   0   4  -5   23.36    6.83
   0  -4   5   26.50    9.13
   0   4   5   26.00    8.75
   0  -4   5    2.67    1.66
   0   4   5   25.65    6.40
   4  -4  -3  863.35   53.45
   4   4  -3  861.65   51.63
   4  -4  -3  809.81   56.51
  -4  -4   3  781.81   48.85
   4   4  -3  808.88   51.91
   4  -4  -3  863.26   53.36
  -4   4   3  781.71   60.13
  -4  -4   3  863.40   46.43
   4  -4  -3  862.81   43.56
   4   4  -3  856.41   52.01
  -4   4   3  790.49   46.45
  -2   5   0 2249.66  111.14
  -2  -5   0 2228.13  108.48
   2   5   0 2048.99  154.37
   2   5   0 2289.52  130.26
  -2   5   0 2254.70  126.38
   2  -5   0 2317.05  116.44
   2  -5   0 2106.36  115.75
  -2  -5   0 2234.77  114.12
   2  -5   0 2147.94  136.28
  -3  -3  -4  500.25   35.57
  -3   3  -4  568.76   44.73
  -3   3  -4  592.22   40.95
   5   3   0 1375.01   71.88
   5   3   0 1275.42   77.79
   5   3   0 1433.30   77.25
  -5  -3   0 1376.96   73.75
  -5  -3   0 1280.19   69.29
  -5   3   0 1409.44   76.27
  -5   3   0 1197.56   76.89
  -5   3   0 1418.29   67.22
   5  -3   0 1440.89   70.71
  -6   0   5    0.81    5.97
  -6   0   5    1.39    4.09
   6   0  -5    2.34    3.32
   6   0  -5    1.28    3.62
   4   4   0 1575.95   88.55
  -4   4   0 1359.04   88.74
   4  -4   0 1445.15   69.21
  -4   4   0 1481.35   79.56
   4   4   0 1483.70   80.18
   4  -4   0 1388.17   78.57
   5   3  -4  455.21   32.03
  -5  -3   4  416.98   31.55
   5   3  -4  451.32   36.36
   5   3  -4  423.71   31.67
  -5  -3   4  426.39   25.89
   5  -3  -4  454.72   26.49
   1   0  -8  517.15   36.61
   1   0  -8  542.01   37.14
   1   0  -8  498.71   28.18
   1   0  -8  505.11   37.12
   1   0  -8  507.02   34.89
   1   5   2 1090.54   69.48
  -1   5  -2  892.07   57.11
   1  -5   2 1103.65   64.23
   1  -5   2 1164.35   71.92
  -1  -5  -2 1195.22   70.31
  -1   5  -2 1076.85   78.37
   1   5   2 1039.33   57.92
  -1  -5  -2 1008.89   57.67
   1  -5   2 1065.76   58.81
  -1   5  -2 1123.95   63.75
  -1  -5  -2 1105.91   61.52
   1   5   2 1088.67   64.43
   3   0  -8    3.58    5.19
   3   0  -8    2.35    2.18
   2  -5  -2  283.02   24.49
  -2  -5   2  259.85   24.19
   2   5  -2  245.48   24.64
   2  -5  -2  278.22   27.66
  -2  -5   2  278.42   21.69
  -2   5   2  297.11   30.95
   2   5  -2  310.94   26.13
  -2   5   2  302.06   24.18
   2  -5  -2  248.44   25.75
  -3  -2  -5 1128.38   62.39
  -3   2  -5 1109.80   64.68
  -3  -2  -5 1007.61   63.38
  -3   2  -5 1147.27   72.32
  -3  -2  -5 1070.69   59.04
   3   2   5 1074.39   62.12
  -3   2  -5 1092.85   56.47
   3  -2   5 1073.11   61.77
   3  -2   5 1185.46   66.67
   6   1   0  167.17   21.27
  -6  -1   0  156.83   21.67
  -6   1   0  169.86   13.47
  -6   1   0  163.30   22.57
   6  -1   0  178.90   16.75
   6   1   0  152.47   16.41
  -6  -1   0  170.47   14.45
  -6  -1   0  171.56   17.31
   6   1   0  162.59   15.99
  -6   1   0  155.29   16.69
   6  -1   0  179.67   22.18
   2  -1  -8  603.32   41.49
   2  -1  -8  599.82   40.44
   2   1  -8  631.98   42.48
   2  -1  -8  453.22   26.05
   2   1  -8  595.52   33.55
   2  -1  -8  551.39   49.37
   2  -1  -8  617.74   42.57
   2   1  -8  637.34   41.62
  -2   2  -6 1152.82   62.48
  -2   2  -6 1144.62   56.12
   2  -2   6 1084.01   60.50
  -2  -2  -6 1222.91   69.80
  -2  -2  -6 1115.83   62.14
  -2  -2  -6 1189.63   64.71
  -2   2  -6 1205.87   71.43
   2   2   6 1162.52   66.43
  -2  -2  -6 1242.88   67.65
  -5   2  -2  167.99   22.88
  -5  -2  -2  122.72   18.31
   5   2   2  167.79   16.04
  -5   2  -2  157.24   17.66
   5   2   2  170.19   19.63
  -5   2  -2  178.03   13.81
   5  -2   2  172.13   19.81
   5   2   2  176.52   18.31
   5  -2   2  179.22   17.48
  -5  -2  -2  125.45   14.54
  -5   2  -2  168.73   19.26
   1  -5  -3  266.21   23.24
  -1  -5   3  263.72   22.97
   1   5  -3  231.51   25.52
  -1   5   3  219.19   22.13
   1  -5  -3  263.07   26.98
  -1  -5   3  255.95   19.94
   1  -5  -3  200.58   25.91
  -1   5   3  256.19   21.15
   1   5  -3  203.64   20.26
  -1   5   3  252.56   27.30
  -1  -5   3  260.38   24.17
  -6   2   2 1598.11  120.64
  -6  -2   2 1579.54  109.90
   6   2  -2 1667.64  109.28
   6   2  -2 1385.20  101.11
  -6  -2   2 1593.15   84.20
  -6   2   2 1539.28  101.39
   6   2  -2 1610.23  105.43
   6  -2  -2 1261.65   82.07
  -6   2   2 1633.40  101.35
   5   2  -6  134.82   14.39
   5  -2  -6  193.78   16.64
   5   2  -6  185.80   21.98
   5  -2  -6  185.21   21.44
   5   2  -6  193.26   21.03
   5  -2  -6  170.28   18.28
  -5  -2   6  196.62   21.98
  -5  -2   6  195.61   16.34
  -6   2   3  476.96   46.30
   6   2  -3  497.24   38.82
  -6   2   3  505.01   34.57
   6   2  -3  455.56   44.52
   6  -2  -3  475.31   38.91
  -6  -2   3  483.36   39.66
  -6  -2   3  446.75   42.12
   6   2  -3  493.13   38.49
  -5   0  -3 1213.48   79.90
   5   0   3 1136.01   78.34
  -5   0  -3 1103.34   84.79
  -5   0  -3 1278.00   87.58
   5   0   3 1169.58   82.50
   4  -2  -7  292.44   26.24
  -4  -2   7  343.19   24.92
   4  -2  -7  363.71   33.69
   4   2  -7  365.80   32.78
   4  -2  -7  255.54   20.19
  -4   2   7  322.35   30.54
   4   2  -7  336.04   28.21
  -4  -2   7  328.46   31.53
   3  -4  -5  891.60   63.87
   3  -4  -5  960.18   75.09
   3  -4  -5  953.96   62.12
   3   4  -5  992.81   70.11
  -3   4   5  877.70   68.19
   3   4  -5  901.31   68.50
  -3   4   5  935.83   64.97
  -3  -4   5  887.86   58.41
  -6  -1   5  230.98   23.79
  -6   1   5  259.80   28.40
  -6  -1   5  243.18   25.40
   6  -1  -5  213.75   21.44
   6   1  -5  255.45   28.57
   6   1  -5  240.37   22.06
   6   1  -5  262.09   24.68
  -1   3  -6    2.61    5.87
   1  -3   6    1.08    5.52
  -1  -3  -6    3.03    5.31
  -1  -3  -6    2.50    4.13
  -1  -3  -6    2.05    4.40
   2  -5   1  244.67   25.66
   2  -5   1  222.14   23.64
  -2   5  -1  271.19   31.87
   2   5   1  244.28   28.27
  -2  -5  -1  238.42   22.91
   2  -5   1  257.35   24.71
   2   5   1  256.18   25.83
  -2  -5  -1  232.87   23.52
  -2   5  -1  266.10   26.08
   0  -5   3  922.44   67.74
   0  -5  -3  898.88   68.88
   0   5  -3  887.92   77.13
   0  -5   3  875.67   60.14
   0  -5   3  832.47   60.11
   0  -5  -3  854.68   61.90
   0   5   3  877.23   61.56
   0   5  -3  950.77   69.19
   0   5   3  858.65   73.93
   0   5   3  975.65   75.22
   1  -1  -8 1808.28  117.39
   1   1  -8 1553.96  108.18
   1  -1  -8 1719.18  114.58
   1   1  -8 1749.20  116.81
   1   1  -8 1725.65  110.59
   1  -1  -8 1725.72  114.50
   1  -1  -8 1536.35  117.55
   1  -1  -8 1716.45  115.39
   5   0  -7   27.64    8.01
   5   0  -7   28.77    5.76
  -5   0   7   28.34    8.25
  -5   0   7   24.68    7.78
   4   3  -6 2430.72  181.81
   4  -3  -6 2109.05  136.21
   4   3  -6 2121.85  154.92
  -4   3   6 2276.37  176.10
   4  -3  -6 2231.63  153.37
  -4  -3   6 2243.74  146.59
   4   3  -6 2287.58  172.31
  -4  -3   6 2273.92  164.84
   3   1  -8  215.58   23.36
   3  -1  -8  217.23   23.96
  -3  -1   8  195.14   22.80
   3   1  -8  197.75   17.86
  -3   1   8  207.72   21.60
   3  -1  -8  176.38   18.58
   3  -1  -8  198.97   18.47
  -2  -4  -4  247.36   24.14
  -2   4  -4  243.50   28.66
   2   4   4  240.14   24.89
  -2   4  -4  247.86   25.28
   2  -4   4  237.15   25.69
  -6   2   1   32.75    7.32
   6   2  -1   30.24    7.01
  -6   2   1   36.48    5.66
   6  -2  -1   33.22    6.55
   6   2  -1   36.59   11.23
  -6   2   1   35.08    9.03
  -6  -2   1   30.24    7.44
  -6   2   1   30.09   11.49
  -6  -2   1   31.66    9.12
  -4   4   4    9.91    7.92
   4  -4  -4   11.93    3.40
   4   4  -4   11.02    5.98
   4   4  -4   11.94    5.52
   4   4  -4    9.28    5.92
  -4  -4   4   12.40    4.36
   4  -4  -4   12.62    6.18
   4  -4  -4   11.22    5.84
  -4  -4   4   11.37    7.32
  -4   4   4   11.18    4.57
  -4   2  -4 1986.67  143.77
  -4  -2  -4 1837.06  130.73
   4  -2   4 1929.78  125.27
   4   2   4 1988.22  130.92
  -4  -2  -4 1995.77  128.04
  -4   2  -4 2025.61  125.92
  -4   2  -4 2011.62  133.25
   4   2   4 2022.79  132.79
   4  -2   4 2010.84  132.72
  -4   3  -3  185.73   21.41
   4  -3   3  162.30   17.89
  -4   3  -3  149.40   21.61
  -4   3  -3  171.58   15.61
   2  -5  -3  452.46   42.10
   2  -5  -3  478.90   39.48
  -2  -5   3  449.23   34.27
   2   5  -3  415.08   41.26
   2  -5  -3  452.01   38.47
   2   5  -3  477.65   39.44
  -2   5   3  429.36   34.58
  -2  -5   3  430.22   37.23
  -2   5   3  428.85   42.44
   5   1   3  106.03   14.74
   5   1   3   99.68   12.86
  -5   1  -3   97.81   13.89
   5   1   3  100.70   14.94
   5  -1   3   97.71   14.98
  -5  -1  -3   92.46   17.43
  -5   1  -3  100.52   17.84
  -5  -1  -3   73.32   11.64
  -5   1  -3  103.57   11.70
   5  -1   3  101.38   13.85
  -5  -1  -3  102.24   12.70
  -6  -2   4  479.29   39.70
   6   2  -4  522.31   41.07
   6   2  -4  472.17   38.89
  -6  -2   4  445.13   38.19
   6  -2  -4  420.75   31.25
  -6   2   4  465.70   43.09
   6   2  -4  475.79   43.98
  -2  -3   7 1628.33  100.79
  -2   3   7 1617.87  108.86
   2  -3  -7 1684.25  118.12
   2   3  -7 1541.77  107.63
   2  -3  -7 1746.89  114.29
  -4   4  -1  390.48   34.27
   4  -4   1  381.24   34.32
   4  -4   1  363.23   34.75
   4   4   1  403.31   34.71
  -4   4  -1  404.32   40.67
   4  -4   1  379.15   28.53
  -6   0  -1 1228.99   79.64
  -6   0  -1 1172.75   93.26
   6   0   1 1214.64   82.50
  -6   0  -1 1151.67   80.62
   6   0   1 1220.29   88.96
   5   1  -7  701.96   53.66
  -5  -1   7  666.32   52.51
   5  -1  -7  688.12   52.61
   5  -1  -7  716.35   48.41
  -5   1   7  680.52   53.81
  -5  -1   7  683.79   52.08
   5   1  -7  705.98   48.69
   5   3   1   -0.05    1.98
   1   3  -7 1133.17   88.92
   1   3  -7 1221.94   80.15
   1  -3  -7 1236.21   83.81
  -1  -3   7  924.57   71.42
  -1   3   7 1209.05   82.74
   1  -3  -7 1151.36   84.53
  -3  -4  -3  190.22   20.62
  -3   4  -3  208.52   22.55
  -3   4  -3  192.91   26.27
   3  -4   3  202.00   23.43
   3   4   3  207.13   22.61
   1   4   5   78.59   13.62
  -1  -4  -5   80.60   12.04
  -1   4  -5   77.92   14.67
   1  -4   5   78.09   13.96
   0   0  -8   61.63   11.28
   0   0  -8   59.34   10.13
   0   0  -8   58.96   10.28
   0   0  -8   56.02   10.41
   5  -3  -5  395.09   28.82
   5   3  -5  386.01   32.15
   5   3  -5  401.47   36.29
  -5  -3   5  367.83   32.79
   5   3  -5  402.61   34.09
   4   0  -8 1123.67   79.37
   4   0  -8 1107.99   71.68
  -4   0   8  943.08   68.32
  -1  -2  -7  807.20   59.75
  -1  -2  -7  771.84   56.83
  -1   2  -7  864.26   65.97
  -1  -2  -7  904.28   64.31
   1   2   7  809.17   60.76
  -1   2  -7  792.60   55.56
  -1  -2  -7  814.73   59.07
   3   0   6 1462.82   99.20
  -3   0  -6 1383.60  117.65
  -3   0  -6 1517.39  100.56
   3   0   6 1683.18  112.13
   1   5   3  148.40   18.62
  -1  -5  -3  126.96   16.50
  -1   5  -3  161.79   22.63
   1  -5   3   95.42   14.94
   1   5   3  162.66   21.30
  -6   0   6   19.77    6.80
  -6   0   6   20.77    8.52
   6   0  -6   23.86    6.71
   6   0  -6   21.65    5.41
   3   5  -1  291.33   26.72
   3  -5  -1  312.96   23.32
   3   5  -1  257.31   27.31
   3   5  -1  309.80   29.08
   3  -5  -1  320.31   29.76
  -3   5   1  269.86   32.59
  -3  -5   1  306.03   29.54
  -3   5   1  276.71   25.65
  -3  -5   1  297.25   25.86
   3  -5  -1  313.43   29.90
   6   1   1  748.22   56.38
   6   1   1  764.89   54.74
  -6  -1  -1  672.11   49.74
  -6  -1  -1  712.55   65.43
   6  -1   1  789.39   62.54
  -6   1  -1  735.41   58.78
  -6   1  -1  728.27   65.68
   6  -1   1  821.03   58.42
  -6   1  -1  760.40   51.04
   6   1   1  763.42   60.79
  -3   3   7  676.42   53.36
  -3  -3   7  681.49   53.48
  -3  -3   7  674.21   44.65
   3   3  -7  736.04   51.56
   3  -3  -7  678.87   50.07
   3  -3  -7  692.14   57.97
   3  -3  -7  717.03   48.18
   2  -5   2  514.18   35.18
   2   5   2  520.03   46.23
  -2   5  -2  513.35   50.40
   2   5   2  413.36   35.90
   2  -5   2  515.80   40.26
   2  -5   2  404.71   36.34
  -2  -5  -2  508.58   40.89
  -2   5  -2  541.86   44.03
   3  -5  -2   42.97   11.34
   3   5  -2   43.84   10.54
  -3   5   2   51.24   14.03
   3  -5  -2   47.48    6.47
  -3  -5   2   47.40    8.26
   3  -5  -2   49.57   10.32
  -3   5   2   46.60    8.95
  -3  -5   2   39.31    9.95
   3  -5  -2   47.69   10.42
   3   5  -2   23.07    7.19
  -6   2   0  387.11   40.14
  -6  -2   0  392.69   36.95
   6  -2   0  347.94   28.41
  -6   2   0  384.82   33.38
  -6   2   0  399.21   28.71
   6   2   0  386.21   31.67
  -6   2   0  391.90   35.39
   6   2   0  387.84   38.02
  -6  -2   0  414.05   34.75
   0  -1  -8  514.84   40.07
   0   1  -8  483.34   39.92
   0  -1  -8  480.31   39.43
   0   1  -8  368.22   42.17
   0  -1  -8  472.05   38.67
   0   1  -8  480.58   40.18
   0  -1  -8  477.73   39.07
   2  -2  -8 1881.17  116.66
   2   2  -8 1777.52  118.69
   2   2  -8 1937.49  121.70
   2  -2  -8 1749.76  137.36
   2  -2  -8 1838.30  124.36
  -2   2   8 1921.04  125.47
  -2  -2   8 1837.89  123.47
   1   4  -6   97.39   13.72
   1  -4  -6   89.31   12.56
  -1   4   6  176.10   17.94
   1  -4  -6  179.44   23.92
  -1   4   6  181.14   20.84
  -1  -4   6  176.51   14.77
  -1  -4   6  157.54   21.48
   2  -4  -6 2126.96  140.00
   2   4  -6 1438.90   97.34
  -2  -4   6 2093.41  128.78
   2   4  -6 1794.16  167.94
   2  -4  -6 2098.50  144.13
  -2   4   6 2186.18  145.15
  -2   4   6 2123.63  135.05
  -4   0  -5  745.55   53.55
   4   0   5  743.41   55.64
  -4   0  -5  715.81   57.21
   4   0   5  731.40   54.46
  -4   0  -5  664.78   63.66
  -2   0  -7 1229.29   86.70
  -2   0  -7 1226.94   83.07
  -2   0  -7 1203.43   82.17
   2   0   7 1202.69   84.37
  -4  -1   8  503.58   34.60
  -4   1   8  429.61   36.59
   4   1  -8  526.59   37.56
   4  -1  -8  363.68   30.67
   4  -1  -8  408.25   50.79
  -4  -1   8  496.95   42.48
   4  -1  -8  539.04   44.33
   4   1  -8  506.66   41.86
  -3   5   0  729.67   61.48
   3   5   0  846.25   61.03
   3  -5   0  818.45   53.29
   3   5   0  852.05   63.95
   3  -5   0  868.99   63.59
  -3  -5   0  639.23   49.53
  -3   5   0  856.06   62.30
   3  -5   0  807.43   63.06
   3   5   0  808.84   64.68
   1   5  -4   99.89   16.29
   1   5  -4   94.93   13.91
   1  -5  -4   53.99    9.89
  -1   5   4   94.53   12.57
  -1  -5   4   89.62   13.09
  -1   5   4   95.81   16.36
  -1   5   4   93.72   14.78
  -1  -5   4   87.15   10.35
  -1  -5   4   92.76   14.70
   1  -5  -4   87.57   15.67
  -3  -1  -6  796.20   63.92
   3  -1   6  813.25   60.21
  -3   1  -6  828.88   66.26
  -3   1  -6  850.19   60.25
  -3  -1  -6  806.84   57.82
   3   1   6  828.74   61.27
   3  -1   6  816.52   59.09
   6  -1  -6   40.96    7.04
  -6  -1   6   34.64    8.98
   6   1  -6   22.82    5.74
  -6  -1   6   36.89    9.27
   6   1  -6   38.14    8.52
  -6   1   6   38.24   10.98
  -6  -2   5  268.65   28.18
  -6  -2   5  269.22   26.52
   6  -2  -5  189.67   16.83
   6   2  -5  208.18   19.95
   6   2  -5  278.60   31.38
  -6   2   5  272.11   29.87
   6   2  -5  285.10   26.31
   1  -2  -8 1500.16  157.18
   1   2  -8 1306.48  116.35
   1   2  -8 1638.66  127.64
   1   2  -8 1690.95  124.35
   1  -2  -8 1601.13  125.12
   0  -3   7  220.71   26.53
   0   3  -7  240.95   28.43
   0  -3  -7  222.96   27.03
   0   3  -7  218.43   21.25
   0  -3  -7  139.89   17.45
   3  -2  -8 1012.21   79.26
   3  -2  -8 1101.71   86.48
  -3   2   8 1010.42   81.25
   3   2  -8 1048.07   85.70
  -3  -2   8  994.43   74.10
  -3  -2   8  984.37   81.30
   3   2  -8  927.16   88.90
   3  -2  -8 1044.92   85.64
   0   5   4   15.89    7.47
   0   5  -4   12.38    5.85
   0  -5   4   16.35    4.34
   0  -5   4   16.37    7.64
   0  -5  -4   14.68    5.82
   0   5   4   12.72    5.43
   0   5   4   12.41    6.76
   0  -5  -4   15.71    8.10
   0   5  -4   12.95    7.92
  -4  -4   5 1051.59   79.38
   4   4  -5  711.34  133.11
   4   4  -5 1021.51   82.12
  -4  -4   5 1015.68   82.26
   4  -4  -5 1089.70   81.31
   4   4  -5  970.96   81.95
   4  -4  -5  738.89   63.08
  -4   4   5  948.41   75.08
  -4   4   5  886.71   76.94
  -2   5   4    4.50    4.02
   2   5  -4    3.48    4.70
   2  -5  -4    5.78    7.42
   2   5  -4    4.02    6.01
  -2  -5   4    5.76    6.23
   2  -5  -4    5.30    4.91
  -2   5   4    4.25    7.53
  -2  -5   4    5.88    3.44
   4   1   5 1630.97  127.89
  -4  -1  -5 1771.90  141.12
   4   1   5 1746.08  133.71
  -4  -1  -5 1729.77  130.19
   4  -1   5 1822.86  139.36
  -4   1  -5 1758.02  131.02
   4  -1   5 1711.37  130.62
  -4   1  -5 1472.55  158.65
  -4   1  -5 1786.57  141.65
  -2  -1  -7  182.78   20.73
  -2   1  -7  167.28   19.47
  -2   1  -7  146.95   22.57
   2   1   7  175.02   21.63
   2  -1   7  206.04   23.38
  -2  -1  -7  152.33   20.10
  -2  -1  -7  102.33   14.43
   3  -5  -3   91.41   16.82
  -3   5   3   85.07   17.00
  -3   5   3   88.80   12.54
   3  -5  -3   90.71   10.23
   3  -5  -3   92.62   14.84
  -3  -5   3   89.36   11.75
   3   5  -3   81.84   14.56
   3   5  -3   91.36   15.82
   3  -5  -3   95.43   14.71
  -3  -5   3   68.18   12.65
  -5   2  -3 1267.66  106.88
  -5  -2  -3 1406.44  108.98
  -5   2  -3 1326.74  105.12
   5   2   3 1641.57  129.65
  -5   2  -3 1310.88  111.23
  -5  -2  -3 1228.32  108.97
  -5   2  -3 1321.16   97.96
   5  -2   3 1363.87  105.26
   5   2   3 1381.44  107.50
   4  -4   2  417.78   39.90
  -4  -4  -2  401.46   37.30
  -4   4  -2  397.40   37.97
   4   4   2  401.03   37.95
   4  -4   2  390.95   39.75
   4  -4   2  387.51   33.44
  -4   4  -2  332.04   41.25
   0   4   6  335.89   34.35
   0  -4  -6  353.19   33.33
   0  -4   6  357.31   36.34
   0   4  -6  280.75   34.96
   0   4   6  353.54   33.89
   5  -4  -2  744.12   57.20
   5   4  -2  811.19   68.18
   5   4  -2  772.33   69.18
   5   4  -2  815.00   67.22
  -5   4   2  764.38   62.92
  -5  -4   2  797.70   66.81
   3  -4  -6  568.25   49.03
   3   4  -6  507.98   47.10
  -3  -4   6  562.80   44.23
   3   4  -6  448.61   40.05
  -3   4   6  562.64   52.11
   3  -4  -6  551.40   54.02
  -3   4   6  559.15   47.17
   5   2  -7   32.09    6.69
  -5  -2   7   36.06    9.36
   5   2  -7   49.42   10.98
   5  -2  -7   45.53    7.00
   3  -5   1 2066.25  149.46
  -3   5  -1 1957.45  175.13
  -3  -5  -1 2014.20  153.09
  -3   5  -1 2154.13  162.83
   3   5   1 2059.40  170.90
   3  -5   1 2116.25  159.51
   3   5   1 2188.54  165.02
   3   5   1 2155.68  166.80
   3  -5   1 1968.12  150.89
  -3  -3  -5  276.53   28.72
   3   3   5  571.33   50.50
  -3   3  -5  585.68   57.40
  -5   4   1  345.21   39.55
   5   4  -1  360.71   35.69
  -5   4   1  350.31   34.14
  -5  -4   1  337.47   33.04
   5   4  -1  358.28   34.49
   5  -4  -1  342.97   29.19
   5   4  -1  338.19   36.61
   5   4  -3   15.94    6.77
   5   4  -3   33.51    9.08
  -5  -4   3   29.53    8.97
   5   4  -3   33.79    8.70
   5  -4  -3   25.62    4.93
  -2  -3  -6 1814.01  137.63
  -2  -3  -6 1698.78  131.70
   2   3   6 1577.63  125.07
  -2   3  -6 1342.20  169.17
  -5  -3  -2  242.47   25.62
   5   3   2  273.34   30.73
  -5   3  -2  197.71   26.93
  -5   3  -2  246.69   27.36
   7   0  -3 1091.53   87.49
  -7   0   3  882.98   98.45
  -7   0   3 1083.63   86.19
  -6   3   2  145.90   14.12
  -6   3   2  124.25   20.78
  -6  -3   2  142.15   18.08
   6  -3  -2  111.25   12.65
   6   3  -2   84.46   13.35
  -6   3   2  134.49   16.35
  -6   3   2  111.08   15.58
  -6  -3   2  138.86   17.47
   6   3  -2  145.63   21.75
   6   0   2  145.49   19.96
  -6   0  -2  148.06   15.79
   6   0   2  138.75   17.51
  -6   0  -2  127.78   21.49
  -6   0  -2  133.08   17.55
   5   3  -6 1686.29  128.25
  -5   3   6 1650.63  131.33
   5   3  -6 1635.35  125.31
  -5  -3   6 1602.74  124.50
   6  -3  -3  278.40   24.86
   6   3  -3  280.06   32.00
   6   3  -3  289.73   28.36
  -6   3   3  275.42   23.45
  -6   3   3  259.10   31.61
   6   3  -3  288.01   28.68
  -6  -3   3  260.40   26.98
  -6  -3   3  255.82   27.36
  -4  -3   7  612.26   47.26
  -4  -3   7  658.07   57.62
   4   3  -7  591.72   51.78
  -4   3   7  630.49   56.20
   4  -3  -7  696.71   53.67
   4   3  -7  713.13   57.30
   4  -3  -7  653.49   54.75
  -7   0   2  301.91   29.46
  -7   0   2  278.25   35.32
   7   0  -2  284.56   34.14
   7   0  -2  289.58   30.89
  -6   2  -1  755.86   64.61
   6   2   1  726.21   65.07
  -6   2  -1  647.37   67.25
  -6  -2  -1  672.86   63.27
   6  -2   1  743.21   60.34
  -6   2  -1  740.75   56.70
   6   2   1  744.28   62.01
  -6  -2  -1  718.65   59.71
  -6   2  -1  696.66   59.72
  -5   0  -4    1.73    4.75
   5   0   4    3.74    4.47
  -5   0  -4    2.95    7.56
   5   0   4    4.25    5.88
  -5   0  -4    3.23    4.26
  -1   0  -8  280.43   30.80
  -1   0  -8  138.09   16.95
  -1   0  -8  250.79   26.28
   0   2  -8   29.45    9.61
   0  -2  -8   27.58    8.27
   0  -2  -8   14.38    6.01
   0  -2  -8   25.18    8.35
   0   2  -8   25.83    5.17
  -2  -5  -3  346.53   33.18
   2  -5   3  354.88   29.48
   2  -5   3  354.64   36.04
  -2   5  -3  339.98   39.46
   2  -5   3  389.85   34.67
   2   5   3  371.95   36.44
  -7   0   4    8.63    5.55
  -7   0   4    8.83    7.31
   5   0  -8   17.46    4.82
  -5   0   8   19.63    7.34
   5   0  -8   17.52    6.88
   2   4   5  351.98   34.87
  -2   4  -5  319.43   39.74
   2  -4   5  351.40   36.47
  -2  -4  -5  239.74   25.10
  -6   3   1 1224.74   96.59
   6   3  -1 1215.33  102.38
  -6   3   1 1252.35   92.19
   6  -3  -1 1254.90   94.52
  -6   3   1 1036.56   91.10
  -6  -3   1 1112.98   88.16
  -6   3   1 1172.23   93.42
  -6  -3   1 1158.32   92.75
  -4  -2   8  386.25   38.21
   4   2  -8  299.76   26.97
  -4   2   8  416.12   39.34
   4   2  -8  420.86   39.73
  -4  -2   8  404.80   32.51
   4  -2  -8  378.95   34.81
   4  -2  -8  400.03   36.60
  -3  -2  -6  297.83   33.90
  -3   2  -6  225.05   27.53
   3   2   6  254.44   27.32
  -3  -2  -6  344.99   33.18
   1  -5   4  442.91   35.83
   1   5   4  417.39   40.65
   1   5   4  439.48   41.72
   1  -5   4  407.92   40.09
  -1   5  -4  445.72   45.85
   1  -5   4  406.86   32.63
  -1  -5  -4  342.02   40.69
  -7  -1   3  428.12   42.59
  -7  -1   3  428.44   39.55
   7   1  -3  387.98   41.40
   7   1  -3  434.98   38.96
  -7   1   3  436.22   40.05
   7  -1  -3  446.31   37.94
  -7   1   3  402.05   44.15
  -4   3  -4  232.09   32.22
  -4   3  -4  255.11   28.00
  -4  -3  -4  182.40   20.88
   4  -3   4  246.67   25.87
   4   3   4  261.53   28.12
  -3  -5   4   60.77    8.75
  -3   5   4   56.97    9.72
   3  -5  -4   63.50    8.18
   3  -5  -4   65.84   12.37
  -3  -5   4   56.65   11.76
   3   5  -4   68.10   14.77
   3  -5  -4   57.93   13.37
  -3   5   4   54.07   13.22
   3   5  -4   55.29   11.02
   2   0  -9  779.46   65.59
   2   0  -9  773.15   59.03
   6   1   2 1262.86  102.06
  -6  -1  -2 1040.42   95.72
  -6  -1  -2 1226.94  101.47
   6  -1   2 1350.16  104.11
  -6   1  -2 1299.82   96.83
   6  -1   2 1251.49  100.88
  -6   1  -2 1278.04  106.24
  -6   1  -2 1191.60  104.89
   6   1   2 1216.73  104.30
   3  -4   4  453.35   44.43
  -3   4  -4  429.65   49.78
  -3  -4  -4  467.34   42.13
   3   4   4  455.80   42.44
   5   4   0   -0.48    2.56
   7   1  -2 2285.71  188.94
  -7  -1   2 2203.09  164.79
  -7  -1   2 2152.76  179.24
  -7   1   2 2272.82  177.14
   7  -1  -2 1698.04  126.79
  -7   1   2 2179.60  187.30
   7   1  -2 1626.40  124.11
   7   1  -2 2400.67  186.37
  -6   0   7   77.30   13.57
  -6   0   7   79.22   13.73
   6   0  -7   65.10   12.95
  -6  -3   4  567.08   50.25
  -6   3   4  567.46   55.05
   6   3  -4  577.76   54.79
   6   3  -4  635.97   54.32
   6  -3  -4  569.65   45.30
   6   3  -4  599.03   50.87
  -6  -2   6 1044.94   84.05
  -6   2   6 1062.29   89.61
   6   2  -6 1060.74   82.14
   6   2  -6 1086.33   86.03
  -6  -2   6  939.11   76.80
  -5   4   4  657.24   61.79
  -5   4   4  661.04   54.67
   5   4  -4  664.45   59.05
   5   4  -4  702.16   59.06
   5  -4  -4  692.86   53.83
  -5  -4   4  631.05   55.62
   5   4  -4  661.94   59.56
   5  -1   4  477.04   42.71
  -5  -1  -4  403.42   43.52
   5  -1   4  487.89   45.27
   5   1   4  528.30   48.54
  -5  -1  -4  484.94   43.29
  -5   1  -4  481.93   43.53
   5   1   4  444.60   40.62
  -5  -1  -4  474.61   40.89
  -5   1  -4  467.31   38.98
  -5   1  -4  408.30   47.88
  -7   0   1 1093.63   86.70
   7   0  -1 1092.73   85.52
   7   0  -1  944.08   74.64
   7   0  -1  902.76   84.55
  -7   0   1  983.11   91.88
  -1  -1  -8  809.17   66.58
  -1  -1  -8  789.05   64.83
  -1  -1  -8  792.28   65.49
  -1   1  -8  902.21   76.33
  -1   1  -8  715.75   54.87
  -1  -1  -8  645.80   55.84
   3   0  -9  911.98   69.29
   3   0  -9  931.05   76.78
  -7  -1   4  312.50   31.50
   7   1  -4  254.94   25.09
  -7  -1   4  323.29   34.07
   7  -1  -4  344.92   30.51
  -7   1   4  342.56   33.60
  -7   1   4  331.18   37.42
   5  -1  -8  252.63   22.73
   5   1  -8  406.49   38.61
   5   1  -8  417.97   35.19
  -5  -1   8  389.91   38.48
  -5  -1   8  403.48   37.41
  -4   2  -5 1394.58  108.72
   4   2   5 1153.56   91.83
   4  -2   5 1361.51  105.95
  -4   2  -5 1473.88  121.09
  -2  -2  -7  820.77   68.13
   2   2   7 1112.56   93.82
  -2  -2  -7 1232.12   98.47
  -2   2  -7  843.81   72.41
   1  -5  -5   12.28    5.35
  -1   5   5   21.39    6.04
   1   5  -5   22.78    7.09
  -1  -5   5   25.37    9.20
   1   5  -5   21.78    8.49
  -1  -5   5   23.61    4.89
  -1   5   5   21.46    8.38
   1  -5  -5   19.67    8.90
  -1  -3  -7  470.74   42.62
   1   3   7  478.12   44.46
  -1  -3  -7  177.10   20.96
  -1   3  -7  316.15   33.82
   0  -6   0 1118.66   87.78
   0   6   0 1069.09   96.17
   0  -6   0 1362.33  110.05
   0  -6   0 1085.63   88.09
   0   6   0 1061.67   92.19
   2  -1  -9  700.45   57.85
   2   1  -9  654.98   51.88
   2  -1  -9  651.35   57.11
   2   1  -9  688.16   58.27
   2   1  -9  672.78   58.34
   3   5   2  744.40   67.03
  -3  -5  -2  747.01   62.06
  -3   5  -2  803.93   67.61
   3  -5   2  798.42   61.04
   3  -5   2  647.07   72.04
   1   0  -9 1164.96   92.60
   1   0  -9 1164.70   87.11
   1   0  -9 1172.96   92.72
  -4   5   2 1177.55   91.96
   4   5  -2 1255.47  100.13
   4  -5  -2 1245.03   99.29
   4   5  -2 1191.87   94.38
  -4   5   2 1178.59  105.31
   4   5  -2 1380.79  114.06
   4  -5  -2 1097.88  100.15
   4  -5  -2 1197.07   88.57
  -6  -1   7   89.42   14.10
   6   1  -7   91.99   14.06
  -6   1   7   96.26   15.83
   6  -1  -7   54.77    8.24
   6   1  -7   95.56   12.30
  -6  -1   7   88.66   14.75
   4   5  -1  469.96   45.47
   4  -5  -1  474.14   45.12
   4  -5  -1  375.96   38.23
  -4   5   1  414.99   48.84
   4   5  -1  451.30   43.58
   4   5  -1  436.42   43.42
  -4   5   1  448.56   41.74
  -4  -5   1  400.08   40.30
   4  -5  -1  387.35   32.72
  -1  -4  -6  455.74   42.60
   1   4   6  685.77   61.87
   1  -4   6  683.59   62.39
  -1   4  -6  584.40   56.58
   2  -5  -5  444.00   41.66
  -2  -5   5  333.88   34.86
  -2   5   5  446.64   40.47
   2   5  -5  248.97   27.42
  -2  -5   5  464.84   39.36
  -2   5   5  451.66   45.75
   2   5  -5  483.12   50.04
   2  -5  -5  468.06   47.93
   7   0  -5 1144.97   91.29
  -7   0   5 1051.89   88.35
  -7   0   5 1153.15   98.91
  -7  -1   1  599.12   52.89
   7  -1  -1  655.68   55.93
  -7   1   1  617.16   54.11
  -7   1   1  499.70   62.84
  -7  -1   1  547.32   58.25
   7   1  -1  625.64   60.53
   7   1  -1  607.66   53.43
   7   1  -1  676.13   58.56
   4   4  -6  210.39   27.67
  -4  -4   6  230.67   21.45
  -4  -4   6  175.25   22.09
   4  -4  -6  242.26   22.17
  -4   4   6  211.09   26.44
   4   4  -6  203.70   24.02
   3  -1  -9  308.04   32.88
   3   1  -9  328.21   29.15
   3  -1  -9  319.23   27.92
   3  -1  -9  319.94   31.30
   0  -6   1  882.14   73.64
   0  -6  -1  939.23   78.24
   0  -6   1  899.36   77.69
   0  -6  -1  920.26   79.13
   0  -6  -1  907.76   77.81
   0   6   1  923.86   85.13
   0   6  -1  902.06   85.65
   0   6   1  897.47   78.10
   0   6  -1  794.21   80.73
  -6   3   0  510.38   47.64
  -6  -3   0  466.82   43.42
   6  -3   0  501.67   43.32
  -6   3   0  509.03   41.67
  -6   3   0  460.81   50.97
  -6   3   0  474.97   44.47
   6   3   0  492.09   49.70
   6   3   0  489.41   45.28
   2   3  -8  463.69   40.42
   2   3  -8  385.57   39.52
   2  -3  -8  441.94   45.14
  -2  -3   8  419.64   34.97
   2  -3  -8  461.26   42.41
  -2   3   8  441.42   41.62
  -2  -3   8  400.87   41.05
  -1  -6   0 4566.37  294.67
   1   6   0 4973.00  332.59
   1  -6   0 4820.77  306.04
   1   6   0 4117.11  417.66
  -1  -6   0 4672.90  299.92
  -1   6   0 4813.33  314.68
   1  -6   0 3209.13  250.59
  -1   6   0 4343.20  382.68
   1  -6   0 4540.93  300.18
   1   6  -1  817.34   71.81
  -1   6   1  809.14   77.67
   1   6  -1  813.92   75.83
  -1  -6   1  723.00   63.01
   1  -6  -1  731.34   64.52
  -1  -6   1  738.71   62.52
  -1   6   1  733.51   72.18
   1  -6  -1  796.88   67.87
   1  -6  -1  743.71   66.54
   0   5  -5  305.41   35.35
   0   5   5  307.91   33.05
   0   5   5  293.98   31.78
   0  -5   5  281.24   31.38
   0  -5  -5  255.75   30.21
   4  -5  -3  108.30   16.36
  -4   5   3  105.73   14.10
   4   5  -3  116.18   16.52
   4   5  -3  127.71   19.29
   4   5  -3  110.29   15.68
  -4   5   3  109.20   19.86
   4  -5  -3  114.95   12.35
   4  -5  -3  112.02   16.63
  -4  -4  -3    3.65    5.31
   4  -4   3    4.19    4.36
  -4   4  -3    5.65    5.96
  -4   4  -3    7.81    9.61
   4  -4   3    3.76    4.11
   4   4   3    3.10    5.50
   1   1  -9  250.90   23.02
   1   1  -9  265.18   28.98
   1  -1  -9  288.39   29.02
   1  -1  -9  272.34   29.08
   1   1  -9  234.56   25.80
   1  -1  -9  227.12   27.90
   2   4  -7  127.49   19.47
   2  -4  -7  149.98   22.87
  -2  -4   7  149.22   14.66
  -2   4   7  155.01   20.38
  -2   4   7  154.09   17.90
   2  -4  -7  154.73   18.91
   2   4  -7  152.64   18.85
  -6   3   5 1258.42  110.88
   6   3  -5 1387.48  117.10
   6   3  -5 1447.56  115.72
  -6  -3   5 1283.56  105.27
   6  -3  -5 1419.62  110.16
   4   5   0  167.00   22.75
   4   5   0  127.05   17.39
  -4   5   0  131.19   22.39
  -4   5   0  171.96   20.93
   4  -5   0  142.04   19.68
   4  -5   0  156.71   15.65
   4  -5   0  159.71   20.39
  -4  -5   0  114.74   16.17
  -7  -1   5  715.23   65.13
   7   1  -5  776.41   64.60
  -7   1   5  706.30   66.39
  -7  -1   5  679.59   60.39
   1  -3  -8  663.67   90.09
   1   3  -8  707.36   73.20
   1  -3  -8  801.44   72.05
   4   0  -9   66.37    8.97
   4   0  -9   68.35   12.42
   3  -3  -8 2653.53  209.46
  -3  -3   8 2088.73  167.19
   3  -3  -8 2708.50  205.52
  -3   3   8 2532.38  198.76
  -3  -3   8 2515.22  189.94
   3   3  -8 2737.08  209.70
  -5  -4  -1 1409.95  113.42
   5   4   1 1638.33  134.89
  -5   4  -1 1633.70  131.48
  -5   4  -1 1682.90  143.50
   5  -4   1 1585.69  124.82
   7   0   0 1048.48   91.96
  -7   0   0 1082.03   93.43
   7   0   0 1274.02  103.01
  -7   0   0 1120.40  106.23
  -1   4   7  940.02   79.33
  -1   4   7  895.42   73.76
   1  -4  -7  950.93   79.19
  -1  -4   7  875.92   76.52
  -1  -4   7  906.67   70.97
   1   6   1  293.30   31.65
   1  -6   1  277.54   28.25
   1   6   1  278.53   33.70
  -1   6  -1  286.61   31.25
  -1  -6  -1  271.20   29.24
  -1   6  -1  275.71   34.77
   1  -6   1  283.67   30.86
   5   4  -5  754.61   70.97
   5   4  -5  787.99   69.24
  -5   4   5  751.09   70.85
   5  -4  -5  808.12   64.27
   5   4  -5  809.23   69.06
  -5  -4   5  747.61   65.77
   0  -6   2  309.34   33.22
   0   6   2  596.73   58.53
   0   6  -2  604.95   61.69
   0  -6  -2  597.76   54.01
   0  -6   2  580.50   50.71
   0   6  -2  497.13   46.97
   0   6   2  606.58   56.19
   1   6  -2 1480.58  133.60
  -1   6   2 1512.10  125.59
   1   6  -2 1473.38  121.20
   1  -6  -2 1493.11  121.94
  -1  -6   2 1460.84  115.54
   1  -6  -2 1464.35  121.22
  -1  -6   2 1458.46  119.57
  -1   6   2 1449.27  125.84
  -1  -6   2 1223.54  140.65
   7   2  -3  887.69   74.33
  -7  -2   3  800.13   68.99
   7   2  -3  810.00   68.15
   7   2  -3  806.59   74.93
  -7  -2   3  793.88   72.00
   7  -2  -3  866.89   70.18
  -7   2   3  745.56   70.52
   6   2   2   22.40    7.61
   6  -2   2   17.02    6.77
  -6  -2  -2   19.08    6.90
  -6   2  -2   19.94    7.50
   6   2   2   18.99    7.34
  -6   2  -2   22.00   10.48
  -6   2  -2   17.76    6.04
  -5   3  -3  241.31   27.38
  -5  -3  -3  159.21   19.30
   5  -3   3  227.45   24.41
  -5   3  -3  224.05   29.77
   5   3   3  174.80   21.39
   7   2  -2   37.22   11.66
  -7  -2   2   39.24    9.08
  -7   2   2   37.55    8.21
  -7   2   2   36.22   12.43
  -7  -2   2   30.17    8.92
   7  -2  -2   30.98    7.18
   7   2  -2   36.33    8.04
   3  -5  -5   38.12    8.86
  -3   5   5   36.40    7.77
   3   5  -5   26.97    9.03
   3  -5  -5   42.77    6.57
   3   5  -5   32.38    9.68
  -3  -5   5   44.27    7.20
  -3   5   5   35.40   10.82
  -3   0  -7  310.84   34.37
  -3   0  -7  303.91   30.37
   3   0   7  297.75   31.47
  -5  -2  -4  258.40   27.92
   5   2   4  260.41   27.63
  -5   2  -4  214.03   28.21
   5  -2   4  255.76   26.94
  -5   2  -4  262.40   28.18
   5   2   4  284.01   30.10
  -1  -2  -8  525.43   48.32
   1   2   8  910.21   78.68
  -1   2  -8  916.35   80.00
  -1  -2  -8  909.01   77.42
  -5   3   7 1258.86  106.31
  -5  -3   7 1150.14   97.17
   5   3  -7 1229.72   99.23
   3  -4  -7  713.83   61.48
   3  -4  -7  660.41   53.78
  -3  -4   7  693.29   62.19
   3   4  -7  498.35   69.60
  -3   4   7  746.74   66.78
   3   4  -7  660.40   72.87
  -3  -4   7  692.53   55.24
   4   1  -9 1182.96   97.94
   4  -1  -9  864.42  128.15
   4   1  -9  665.14   54.75
   4  -1  -9  800.87  133.33
  -4  -1   9 1047.71   89.40
  -4   1   9 1122.07   92.83
   4   0   6 2060.78  162.88
  -4   0  -6 1508.80  252.38
   4   0   6 2060.89  161.67
  -4   0  -6 2168.99  176.69
  -4   0  -6 2121.24  165.13
   7   1   0  917.28   75.70
  -7   1   0  920.68   79.12
  -7  -1   0  901.32   78.42
   7   1   0  930.06   83.78
  -7  -1   0  884.71   84.76
   7   1   0 1006.68   83.40
  -7   1   0  901.41   86.16
   7  -1   0  965.39   79.29
   7   2  -4  365.00   34.59
  -7  -2   4  326.08   36.83
   7   2  -4  403.66   37.48
   7   2  -4  314.35   35.96
  -7   2   4  303.17   35.28
  -7  -2   4  336.76   34.28
   7  -2  -4  394.66   34.84
   6   0   3   78.05   12.91
  -6   0  -3   62.97   15.42
  -6   0  -3   75.77   12.53
   6   0   3   67.80   12.76
  -6   0  -3   72.24   10.34
  -5  -2   8  813.42   71.41
  -5   2   8  664.44   59.95
   5   2  -8  882.02   71.69
   5   2  -8  865.98   74.17
   5  -2  -8  843.86   67.08
   2  -5   4  904.97   97.65
   2   5   4 1113.65   93.43
  -2  -5  -4 1103.13   91.17
   0   0  -9   69.07   12.12
   0   0  -9   71.05   11.55
   0   0  -9   61.71   11.60
   0   0  -9   58.57    8.09
   2  -6  -1 1798.66  143.61
  -2   6   1 1752.38  139.64
  -2  -6   1 1703.55  137.66
   2  -6  -1 1782.13  144.24
   2   6  -1 1719.03  155.54
  -2   6   1 1730.54  152.32
   2   6  -1 1822.19  148.15
  -4   5   4 1362.72  109.35
   4   5  -4 1186.59  123.77
  -4   5   4 1367.12  117.86
   4   5  -4 1355.09  119.83
   4   5  -4 1425.29  116.23
   4  -5  -4 1237.04   95.70
   7   0  -6    9.95    4.28
  -7   0   6   22.07    8.84
  -7   0   6   21.04    7.18
  -2  -2   9   50.12   12.21
   2   2  -9   39.65    9.64
   2   2  -9   31.65    7.91
   2  -2  -9   44.70    6.92
   2  -2  -9   29.09    7.61
   2  -2  -9   49.51   10.98
  -2   6   0   83.38   13.01
   2  -6   0   88.04   14.98
   2   6   0   89.51   14.90
  -2   6   0   84.23   17.39
   2   6   0   81.57   16.23
   2  -6   0   87.91   13.46
  -2  -6   0   77.20   14.20
   6   2  -7  655.15   57.73
  -6  -2   7  568.59   53.08
   6  -2  -7  577.55   47.97
   6   2  -7  643.99   54.76
  -6   2   7  475.61   47.56
   4  -5   1  147.98   20.55
   4  -5   1  153.00   19.55
  -4   5  -1  166.17   20.80
   4  -5   1  154.09   15.82
   4   5   1  159.32   20.61
  -4  -5  -1  138.86   18.33
   3   1   7    6.93    6.03
   3  -1   7    5.71    5.03
  -3  -1  -7    6.59    4.46
  -3  -1  -7    4.41    5.91
  -3   1  -7    7.35    7.23
  -3  -1  -7    2.52    4.81
  -6  -3  -1 1223.58   99.94
   6   3   1 1161.45   99.81
  -6   3  -1 1228.59  101.80
  -6   3  -1 1146.87   96.10
   6  -3   1 1239.55   98.87
  -6   3  -1 1187.53  108.70
   7   2  -1  723.65   61.07
   7   2  -1  776.15   65.51
  -7  -2   1  810.56   65.61
  -7   2   1  823.63   70.84
   7  -2  -1  884.58   72.45
  -7   2   1  833.08   72.69
  -7  -2   1  788.97   67.07
  -7   2   1  776.27   66.68
   1  -6   2 1776.00  139.62
   1   6   2 1802.52  145.74
  -1  -6  -2 1612.98  134.26
   1  -6   2 1677.83  136.09
   1   6   2 1769.62  147.33
  -1   6  -2 1602.77  136.98
   0   4  -7 1855.45  155.23
   0  -4   7 1343.17  112.24
   0  -4  -7 1844.88  145.50
   0   4   7 1658.53  135.55
  -3   2   9 1456.16  101.31
   3  -2  -9 1018.19   68.18
  -3  -2   9 1520.85  107.42
   3  -2  -9 1588.73  110.68
   3   2  -9 1359.00  144.05
   3   2  -9 1475.30  105.49
   2  -6  -2 1193.73  101.98
   2   6  -2 1250.91  114.07
   2  -6  -2 1354.09  110.60
  -2   6   2 1397.11  112.82
   2  -6  -2 1124.63  109.52
  -2  -6   2 1207.70  101.38
  -2  -6   2 1277.67  102.05
   2   6  -2 1144.95  138.62
  -2   6   2 1229.69  107.78
   4   1   6   91.42   14.02
  -4  -1  -6   78.47   15.26
  -4   1  -6   70.65   14.42
   4   1   6   98.15   14.14
  -4  -1  -6   87.26   12.56
   4  -1   6   89.71   13.57
  -4   1  -6   66.95   13.42
   3  -5   3  251.21   26.97
  -3  -5  -3  366.31   33.63
   3   5   3  411.67   36.67
  -1  -5  -5  783.26   58.83
   1   5   5  729.86   59.86
   1  -5   5  730.30   58.51
   1   5   5  788.66   59.02
   0  -3   8  385.71   36.60
   0  -3  -8  446.23   37.30
   0   3  -8  425.02   40.61
   6   1   3  678.54   52.14
  -6  -1  -3  716.55   64.22
  -6  -1  -3  768.30   57.51
   6  -1   3  758.75   56.68
   6   1   3  730.47   57.02
  -6   1  -3  523.81   52.07
  -6   1  -3  775.24   59.77
  -2   0  -8  145.13   19.35
  -2   0  -8  145.66   16.94
   0  -1  -9   84.89   12.94
   0   1  -9   82.93   13.73
   0  -1  -9   82.37   12.82
   0   1  -9   86.27    9.51
   0  -1  -9   94.08   13.27
  -4   3   8 3857.52  406.59
   4   3  -8 3436.24  258.74
  -4  -3   8 3188.70  210.04
   4  -3  -8 3667.99  396.73
   4   3  -8 3524.04  302.06
   4  -3  -8 3589.95  255.44
  -4  -3   8 3749.53  388.41
  -3   3  -6  813.81   68.43
  -3  -3  -6  331.02   30.94
   3   3   6  793.74   60.69
   1   6  -3  395.52   39.80
  -1  -6   3  382.40   34.86
   1  -6  -3  327.62   35.91
  -1   6   3  407.41   37.16
   1   6  -3  350.71   37.94
  -1  -6   3  388.55   31.31
  -1   6   3  381.54   38.82
  -7  -1   6  718.52   55.79
   7   1  -6  765.32   54.99
  -7   1   6  500.64   45.47
  -7  -1   6  744.48   58.52
   6   0  -8  103.45   11.82
  -6   0   8   85.79   13.48
  -6   0   8   92.09   14.77
   1  -2  -9 2369.70  159.15
   1   2  -9 1966.05  176.65
   1  -2  -9 2575.50  168.27
   1   2  -9 1865.08  120.23
   6  -3  -6  277.43   22.67
  -6  -3   6  217.84   23.41
   6   3  -6  212.05   30.83
   2  -6   1  651.27   49.93
   2   6   1  662.69   56.84
   2  -6   1  619.84   50.79
  -2   6  -1  591.14   59.28
  -2  -6  -1  627.48   50.04
   2   6   1  662.31   52.73
   0  -6   3   52.68    8.81
   0   6   3   57.59   13.38
   0   6  -3   43.35   12.07
   0  -6   3   53.37   11.75
   0  -6  -3   52.00   10.57
   0   6   3   35.35    9.38
  -7  -2   5 2191.20  150.35
  -7  -2   5 1986.46  136.68
  -7   2   5 2106.33  159.36
   7   2  -5 2391.45  156.41
   7  -2  -5 2361.23  151.39
  -3  -4  -5  171.16   19.53
  -3   4  -5  371.73   39.61
  -5   0  -5  782.22   56.18
  -5   0  -5  840.82   62.62
   5   0   5  837.52   63.28
  -5   0  -5  769.55   66.76
   5   0   5  795.50   59.85
   7   0   1  623.86   48.02
   7   0   1  610.52   52.14
  -7   0  -1  578.94   45.28
  -7   0  -1  404.54   42.91
  -2   1  -8   86.68   12.43
  -2  -1  -8   99.62   14.05
  -2  -1  -8   94.67   15.05
  -2   1  -8   89.39   15.08
   2   1   8   83.34   13.92
   1  -5  -6  886.02   64.94
   1   5  -6  865.76   70.55
  -1  -5   6  887.65   67.86
  -1  -5   6  860.94   57.33
  -1   5   6  886.26   67.44
   2   5  -6   42.71   10.86
  -2   5   6   49.56    8.79
  -2   5   6   51.07   11.29
   2  -5  -6   46.60    9.18
  -2  -5   6   50.52   11.59
  -2  -5   6   52.12    7.08
  -4  -3  -5  854.69   64.15
   4  -3   5 1470.82  102.51
  -4   3  -5 1501.12  112.92
   4   3   5 1442.89  101.67
   2   3   7 1975.09  134.08
  -2   3  -7 1863.54  147.83
  -2  -3  -7 2155.89  143.48
   2  -4   6  553.42   47.10
  -2   4  -6  599.80   52.62
  -2  -4  -6  563.37   44.49
   5   4   2  220.94   23.46
  -5   4  -2  199.37   27.87
   5  -4   2  220.09   20.77
  -5   4  -2  229.96   24.22
   5   0  -9   13.47    4.31
  -5   0   9   10.80    6.30
  -6  -4   2 1050.37   76.34
   6   4  -2 1004.76   83.06
   6   4  -2 1113.34   80.81
  -6   4   2 1002.63   71.65
   6  -4  -2 1081.95   72.58
  -6   4   2 1047.35   86.96
  -5   4   6  633.77   55.41
   5  -4  -6  563.85   60.51
   5   4  -6  431.82   35.99
  -5  -4   6  598.97   48.44
   5   4  -6  624.21   51.85
  -2   6   3    0.54    6.19
  -2  -6   3    2.49    7.10
   2   6  -3    0.19    5.54
   2  -6  -3   -0.81    5.76
   2  -6  -3    1.01    5.89
  -2  -6   3   -0.06    3.53
  -2   6   3    0.48    3.31
   2   6  -3    0.44    4.80
  -6  -1   8 1893.86  131.84
   6   1  -8 2081.35  135.12
  -6  -1   8 1882.23  128.69
  -6   1   8 1943.01  135.44
   6  -4  -3  402.27   30.28
   6   4  -3  409.87   38.77
  -6  -4   3  389.64   35.19
   6   4  -3  374.53   34.83
  -6   4   3  345.54   37.21
   4   4  -7  382.30   61.57
  -4  -4   7  564.79   39.48
  -4   4   7  595.42   50.14
  -4  -4   7  559.63   46.18
   4   4  -7  577.77   47.35
   4  -2  -9  535.46   42.16
  -4   2   9  499.07   41.14
   4   2  -9  494.41   43.54
   4  -2  -9  562.35   39.96
  -4  -2   9  514.58   44.66
   5   1   5 1011.88   73.57
  -5   1  -5  951.02   72.41
  -5  -1  -5 1075.89   76.78
   5   1   5  945.01   68.76
  -5   1  -5  744.85   64.82
  -5  -1  -5  833.74   68.85
   5  -1   5  970.33   70.34
  -7   2   0  743.21   60.72
  -7   2   0  800.67   61.70
   7   2   0  705.38   59.31
  -7   2   0  713.59   70.14
   7  -2   0  712.74   58.17
  -7   2   0  815.84   54.82
  -7  -2   0  762.84   57.50
  -7  -2   0  703.46   59.18
   7   2   0  783.42   58.45
  -4   5   5   35.69   11.28
   4   5  -5   42.25    9.89
   4  -5  -5   42.72    6.41
   4   5  -5   30.25    9.50
  -4  -5   5   34.13    9.53
  -4   5   5   40.88    7.91
   7   1   1  816.49   72.19
   7  -1   1  943.97   67.74
  -7  -1  -1  806.47   69.69
  -7   1  -1  748.63   77.45
  -7   1  -1  889.09   66.46
  -7  -1  -1  814.78   67.13
   7   1   1  872.90   69.03
  -6  -4   1  247.34   24.93
   6   4  -1  195.43   32.18
   6   4  -1  245.34   29.03
  -6   4   1  250.66   30.81
  -6   4   1  261.05   25.98
   6  -4  -1  189.56   17.30
   5  -1  -9  138.65   26.55
   5  -1  -9  192.59   19.85
  -5  -1   9  184.70   22.09
   5   1  -9  201.76   22.44
   5   1  -9  202.38   18.66
  -4   4  -4  298.96   34.37
  -4  -4  -4  300.11   27.92
  -4   5  -2  586.86   57.64
  -4  -5  -2  535.99   53.12
   4   5   2  677.03   53.19
   4  -5   2  627.52   44.78
  -4   5  -2  656.45   51.64
   4  -5   2  618.44   51.53
   6   4  -4  904.72   72.10
   6   4  -4  940.91   73.71
  -6  -4   4  863.58   64.69
   6  -4  -4  771.76   52.81
   1   6   3  553.12   46.02
  -1  -6  -3  416.61   40.83
   1  -6   3  516.30   44.29
   1  -6   3  513.46   39.44
  -1   6  -3  514.75   48.72
   1   6   3  532.69   47.49
   0  -5   6  554.03   51.97
   0   5  -6  537.83   55.26
   0  -5  -6  568.99   63.93
   0   5   6  618.18   50.88
   0   5   6  639.92   50.49
  -3  -6   1  303.50   30.43
   3   6  -1  310.66   33.22
   3  -6  -1  333.36   30.70
   3  -6  -1  244.81   42.58
  -3   6   1  316.38   35.87
   3  -6  -1  318.68   24.19
   3   6  -1  217.22   23.35
  -3   6   1  311.17   27.95
  -3  -2  -7  482.88   41.42
   3   2   7  794.79   60.77
  -3   2  -7  801.53   64.34
  -5   5   2  196.78   20.30
  -5   5   2  173.53   24.74
   5   5  -2  202.75   23.54
   5   5  -2  214.57   24.28
   5  -5  -2  199.93   22.40
   5  -5  -2  199.09   16.99
  -5  -5   2  174.39   22.02
   5   5  -2  137.26   29.60
  -3  -5   6   47.98    6.93
  -3   5   6   50.94    8.79
   3  -5  -6   39.53    9.08
   3  -5  -6   44.37    6.65
  -3   5   6   50.72   12.06
   3   5  -6   38.21   10.35
   3   5  -6   46.48   10.12
   2   6   2  352.84   32.95
  -2  -6  -2  326.32   30.37
   2  -6   2  329.39   31.97
   2  -6   2  349.28   25.95
  -2   6  -2  332.85   36.33
   2   6   2  351.99   36.07
   2  -6   2  339.23   29.51
   7   0  -7  578.38   43.14
  -7   0   7 1020.28   75.64
  -7   0   7 1091.80   81.57
   4   2   6 1476.80  103.71
  -4   2  -6  817.04   62.02
  -4   2  -6 1376.19  129.27
  -4  -2  -6 1278.46  112.80
   4  -2   6 1568.82  107.94
   3   6  -2 1136.66   91.12
   3  -6  -2 1204.70   91.02
  -3   6   2 1264.45   88.48
   3   6  -2 1249.59   92.37
  -3   6   2 1202.02   95.83
   3  -6  -2 1185.99   81.47
  -3  -6   2 1211.69   87.06
   3  -6  -2 1290.73   90.80
   6   2   3  523.26   44.32
   6  -2   3  514.71   41.28
  -6   2  -3  455.91   42.43
   6   2   3  469.80   43.53
  -6  -2  -3  517.65   41.89
  -6   2  -3  464.06   47.09
   0   2  -9   44.97   12.30
   0  -2  -9   47.69   10.16
   0  -2  -9   48.40    9.70
   5  -5  -1  243.12   20.01
   5  -5  -1  251.11   26.05
   5   5  -1  197.64   29.65
   5   5  -1  236.16   26.72
   5   5  -1  259.28   28.20
  -5   5   1  242.10   24.05
  -5   5   3 1344.52   92.48
   5  -5  -3 1457.93   94.39
   5   5  -3 1393.13  101.39
  -5  -5   3 1396.19   98.27
   5   5  -3 1365.54   99.28
  -5   5   3 1381.87  107.25
   5   5  -3 1292.74   91.65
  -1  -4  -7  898.96   65.50
   1  -4   7  829.22   65.15
  -1   4  -7  734.43   80.20
  -3   6   0  781.04   58.81
   3  -6   0  803.27   60.42
   3   6   0  813.84   60.07
  -3   6   0  828.37   70.23
   3   6   0  827.47   63.14
   3  -6   0  786.02   52.85
   3   6   0  783.51   64.99
   3  -6   0  774.75   60.14
  -3  -6   0  783.94   60.04
   1  -6  -4   91.18   13.71
  -1   6   4   92.38   16.39
  -1  -6   4   89.72   10.75
  -1  -6   4   91.14   14.92
   1   6  -4   79.60   16.15
  -1   0  -9  140.66   16.55
  -1   0  -9  106.09   17.55
   7   2  -6  417.51   34.22
  -7  -2   6  386.64   34.48
  -7  -2   6  372.80   34.63
   7  -2  -6  332.67   40.96
  -7   2   6  395.36   38.01
  -7  -3   3   99.94   14.72
   7  -3  -3  109.21   12.21
   7   3  -3  107.67   15.31
  -7  -3   3   97.10   13.88
   7   3  -3   97.26   17.29
  -7   3   3   96.06   17.78
  -6  -3  -2  533.41   43.20
   6   3   2  657.75   51.23
   6  -3   2  642.93   48.48
  -6   3  -2  636.00   57.35
  -6   3  -2  679.52   53.94
  -6   3  -2  572.45   49.58
   7  -3  -2 1227.38   82.22
  -7  -3   2 1592.08  109.40
   7   3  -2 1109.46  273.33
  -7   3   2 1565.08  105.26
   7   3  -2 1698.45  123.61
  -7  -3   2 1604.01  111.85
  -7   3   2 1664.58  113.16
  -7   3   2 1595.11  124.56
   5  -3   4  829.67   60.93
   5   3   4  816.97   64.58
  -5   3  -4  807.70   69.86
   2   0 -10  235.25   24.29
   2   0 -10  162.68   27.88
  -1   3  -8  135.27   18.98
   1   3   8  146.25   19.01
  -1  -3  -8   72.88   11.91
   3   0 -10  164.19   14.84
  -7  -1   7   81.86   13.46
   7   1  -7   51.38   13.30
  -7   1   7   69.37   13.51
   7  -1  -7   87.11   10.70
  -7  -1   7   75.20   12.89
  -6  -4   0  542.97   43.68
  -6   4   0  544.07   44.28
  -6   4   0  439.17   44.83
   6  -4   0  556.49   40.84
   6   4   0  447.18   66.30
  -2   4   8 2533.72  268.53
   2  -4  -8 2503.95  169.03
  -2  -4   8 2431.28  153.02
   0  -6   4  203.46   18.31
   0  -6   4  216.92   24.24
   0  -6  -4  198.30   21.37
   0   6   4  182.91   25.13
   0   6  -4  208.77   27.36
   0   6   4  224.46   26.00
  -7  -3   4  450.54   53.71
   7   3  -4  341.11   65.14
  -7   3   4  347.55   47.18
  -7  -3   4  444.84   52.52
   7  -3  -4  230.46   27.87
   7   3  -4  425.50   54.81
  -5  -3   8  803.57  101.81
   5   3  -8  889.91  105.19
  -5   3   8  934.96  105.41
   5  -3  -8 1029.54  109.36
  -2   6   4  892.48  102.82
  -2  -6   4  900.58  100.66
   2   6  -4  884.92  102.65
  -2  -6   4  861.33   92.79
  -2   6   4  877.18   96.06
   2   6  -4  914.98  101.84
   2  -6  -4  840.52   94.08
  -2   2  -8  114.11   19.91
  -2  -2  -8  120.85   18.58
   2   2   8   90.50   16.33
  -2   5  -5  186.79   30.07
   2  -5   5  202.49   28.97
  -2  -5  -5  221.42   29.55
   2   5   5  213.24   29.25
  -3  -6   3  166.84   24.62
  -3   6   3  162.51   27.06
   3  -6  -3  168.15   24.79
   3  -6  -3  174.51   20.98
  -3   6   3  150.29   20.83
   3   6  -3  180.84   25.63
   3   6  -3  164.17   25.04
  -1  -1  -9  770.38   87.64
  -1   1  -9 1426.32  257.75
  -1  -1  -9 1502.45  191.14
  -2   3   9  872.07   96.51
   2   3  -9  783.93   89.12
  -2  -3   9  785.55   89.94
   2  -3  -9  554.78  129.10
   2  -3  -9  865.23   96.00
  -3   5  -4  395.20   52.53
   3   5   4  395.57   48.33
  -3  -5  -4  400.18   47.92
   3  -5   4  391.34   48.91
  -6  -2   8  395.47   48.93
   6  -2  -8  348.56   59.96
   6   2  -8  425.65   50.27
   5  -5   0  598.54   65.26
  -5   5   0  625.43   71.54
   5   5   0  471.56   83.87
   5   5   0  564.26   66.82
   5  -5   0  637.07   73.41
   5   5   0  619.18   74.39
   6   3  -7  189.77   24.87
  -6   3   7  125.38   21.04
  -6  -3   7  177.63   25.52
   6   4  -5 1333.65  143.83
   6  -4  -5 1334.64  140.95
  -6  -4   5 1225.15  135.11
  -6   4   5  946.23  108.97
  -5   5   4  307.57   42.45
   5   5  -4  244.61   32.35
   5   5  -4  244.40   46.23
  -5  -5   4  296.17   37.91
   5  -5  -4  247.03   28.54
   5   5  -4  338.40   42.34
  -6   0  -4  616.13   75.99
  -6   0  -4  630.19   73.82
   6   0   4  649.66   74.67
   6   0   4  653.28   74.11
   8   0  -3   52.34   10.38
  -8   0   3   48.90   13.09
  -8   0   3   46.54   10.13
   2  -1 -10   85.01   12.55
   2   1 -10   69.71   12.82
   2  -1 -10   89.62   14.90
   2   1 -10   76.75   14.01
  -1   4   8 1060.62  115.98
  -1  -4   8  951.03  108.17
   1   4  -8 1103.98  127.26
   1  -4  -8 1071.13  116.66
   7   3  -1  139.99   21.07
   7   3  -1  136.86   23.45
  -7   3   1  138.84   24.95
   7  -3  -1  131.36   18.15
  -7   3   1  135.70   19.59
  -7   3   1  144.74   21.42
  -7  -3   1  131.20   19.60
   3   1 -10 1394.11  147.35
   3  -1 -10 1113.95  166.09
   3   1 -10 1307.43  141.99
   3  -1 -10 1423.04  149.68
  -3  -4   8  474.53   51.63
   3   4  -8  407.98   49.86
   3   4  -8  348.59   41.47
  -3   4   8  492.33   58.46
   3  -4  -8  492.53   56.87
  -3  -4   8  454.59   55.34
   3  -4  -8  499.17   54.70
   3   3  -9  897.89   97.31
   3  -3  -9 1197.90  129.60
  -3   3   9 1180.10  128.66
   3   3  -9 1005.88  115.94
  -3  -3   9 1120.52  118.10
   3  -3  -9  855.20  179.67
  -3  -3   9 1141.18  126.37
   3   6   1  367.86   45.53
  -3  -6  -1  493.17   57.98
   3  -6   1  525.73   60.51
   3   6   1  533.69   65.38
  -3   6  -1  461.31   59.57
   3  -6   1  521.88   62.08
   3  -6   1  524.47   56.87
   5   2   5 1138.56  137.85
   5   2   5 1145.91  125.62
  -5   2  -5 1060.19  119.22
  -5   2  -5 1143.62  133.11
  -5  -2  -5  942.63  140.36
   5  -2   5 1100.97  120.20
  -8   0   4  746.50   84.08
  -8   0   4  718.54   85.12
   8   0  -4  790.04   86.52
  -7   2  -1  255.45   33.96
  -7  -2  -1  207.53   27.58
   7   2   1  239.41   33.59
  -7   2  -1  194.31   31.09
   7  -2   1  246.19   31.17
  -7   2  -1  235.20   31.48
   7   2   1  260.90   33.56
  -7   0  -2    1.04    4.82
   7   0   2    1.86    4.98
  -7   0  -2    4.44    8.76
   7   0   2   -0.52    5.08
   1   0 -10    0.72    2.40
   1   0 -10    1.01    3.91
   1   0 -10    0.53    5.34
   8   0  -2  464.97   61.56
  -8   0   2  478.92   61.66
  -8   0   2  502.69   57.99
   5   2  -9  367.24   42.28
  -5  -2   9  575.74   67.60
   5  -2  -9  475.27   77.35
  -5   2   9  562.59   65.71
   4   0 -10 1382.52  146.10
   1   3  -9 1196.97  139.20
   1  -3  -9  532.04   62.08
  -5   4  -3 1069.84  128.64
   5  -4   3 1089.49  118.11
  -1  -5  -6  141.14   21.02
   1  -5   6  244.58   33.42
   1   5   6  249.96   34.23
   6  -1   4  363.09   43.89
  -6   1  -4  345.61   46.92
   6   1   4  426.92   52.98
   6   1   4  356.98   43.83
  -6   1  -4  332.11   40.88
  -6  -1  -4  336.32   42.73
   8  -1  -3  704.35   77.48
  -8  -1   3  617.64   75.61
  -8   1   3  658.15   78.73
  -8  -1   3  658.28   74.68
  -8   1   3  711.62   80.10
   8   1  -3  674.45   75.43
   7  -3  -5  163.36   20.56
  -7   3   5  152.82   25.12
  -7  -3   5  159.23   23.27
   7   3  -5  172.97   23.77
  -5  -4   7  246.15   38.47
   5  -4  -7  331.43   37.38
  -5   4   7  304.46   40.32
   5   4  -7  338.09   40.88
   5   4  -7  323.27   40.70
  -4  -5   6  575.90   66.92
   4  -5  -6  641.33   69.24
  -4   5   6  579.47   65.10
   4   5  -6  527.77   65.08
   4   5  -6  634.30   72.84
  -4   5   6  619.32   74.36
   2  -6   3 1455.34  152.42
  -2  -6  -3 1125.46  162.66
  -2   6  -3 1503.10  173.70
   2  -6   3 1451.37  158.59
   2   6   3 1712.23  184.52
   2   6   3  897.12  100.88
  -8  -1   4  900.61  102.76
  -8  -1   4  920.81  102.15
   8  -1  -4  650.90  124.16
  -8   1   4  786.19   98.03
  -8   1   4  884.89   98.21
  -7   1  -2 1135.08  134.24
  -7  -1  -2 1101.32  132.13
   7   1   2 1257.15  136.89
   7  -1   2 1261.10  136.26
   7   1   2 1222.54  135.14
  -7   1  -2  868.35  103.75
  -7  -1  -2 1265.11  137.99
   1   1 -10  137.90   20.53
   1  -1 -10  178.80   24.97
   1  -1 -10  166.71   22.89
   1  -1 -10  154.25   19.02
   1   1 -10  158.81   19.75
   1   6   4  152.65   23.34
   1  -6   4  159.20   24.20
  -1   6  -4  153.64   25.85
   1  -6   4  132.66   17.17
   1   6   4  158.47   23.68
  -1  -6  -4   95.14   24.37
  -8   0   5 1884.14  201.19
  -8   0   5 1689.22  199.21
  -8  -1   2   33.04   10.32
   8  -1  -2   47.75   10.01
   8   1  -2   21.94    8.04
  -8   1   2   28.39    7.42
  -8  -1   2   32.22    8.24
  -8   1   2   25.42   10.77
   6   0  -9 3810.45  546.13
  -6   0   9 4058.32  443.55
   4   1 -10   22.71    5.50
   4  -1 -10   39.73    8.83
   4  -1 -10   47.77   10.00
   3  -6  -4   41.01    7.10
   3   6  -4   41.55   10.19
   3  -6  -4   39.03   10.34
  -3   6   4   38.85    8.59
  -3  -6   4   39.42   11.08
   3   6  -4   41.08   11.31
  -3   6   4   34.31   11.59
  -3  -6   4   39.22    7.51
  -4   5  -3 1047.44  121.99
   4  -5   3 1001.31  112.18
  -4  -5  -3  891.02   99.04
   4   5   3 1078.34  118.74
  -2  -5   7  483.85   58.20
   2   5  -7  778.28   94.81
  -2  -5   7  727.53   77.71
   2  -5  -7  695.81   80.42
  -2   5   7  723.80   79.85
  -2   5   7  762.28   86.73
  -4   0  -7  250.24   36.59
   4   0   7  717.51   81.18
  -4   0  -7  735.01   86.79
   4   0   7  764.90   85.73
   6   4   1   65.45   12.93
  -6  -4  -1  115.23   17.99
   6   4   1   77.40   14.44
   6   4   1   94.68   16.70
  -6   4  -1  114.73   22.38
   6  -4   1  101.97   14.76
  -6   4  -1  122.93   19.21
   4  -3  -9  294.93   33.69
   4   3  -9  236.99   39.65
  -4  -3   9  171.97   25.53
  -4   3   9  280.12   36.02
  -7   2   7 1467.51  185.84
  -7  -2   7 1654.80  178.98
  -7  -2   7 1642.00  176.75
   7   2  -7 1406.78  210.59
  -8   0   1  140.81   20.45
  -8   0   1  138.97   23.89
   8   0  -1   93.45   15.57
   5  -5   1   70.67   13.62
   5   5   1   71.73   14.16
   5  -5   1   63.17   10.00
  -5   5  -1   70.63   13.44
  -5   5  -1   58.92   16.16
   7   3   0  215.50   31.42
   7  -3   0  177.66   22.99
  -7  -3   0  165.22   23.05
  -7   3   0  207.87   32.30
  -7   3   0  224.09   30.15
  -7   3   0  208.26   27.53
  -1  -5   7   38.56   10.92
  -1   5   7   76.57   14.22
   1  -5  -7   75.95   13.60
   1   5  -7   68.08   14.90
   3   0   8  310.63   39.43
  -3   0  -8  294.70   36.87
  -3   0  -8  221.81   44.19
   0  -4   8  561.50   66.55
   0  -4  -8  625.27   70.67
   0   4  -8  573.69   69.97
   5   5  -5   47.30   14.92
   5   5  -5   56.07   12.39
  -5   5   5   40.95    8.31
  -5  -5   5   75.60   14.70
   5  -5  -5   85.82   11.82
  -5   5   5   60.71   14.64
  -4   4   8   48.78   12.13
   4   4  -8   43.82   10.63
  -4  -4   8   47.70   12.19
   4   4  -8   50.88   10.43
  -4  -4   8   48.26    7.57
   4  -4  -8   46.44    7.80
   1  -6  -5  648.71  134.16
  -1   6   5 1016.20  114.23
  -1  -6   5  961.29  102.52
   1   6  -5  977.10  115.18
  -1  -6   5  949.86  106.19
  -3   4  -6  886.92  107.07
  -3  -4  -6  906.59  100.27
   3   4   6  868.32   97.64
  -1  -2  -9  563.35   65.69
  -1   2  -9  551.59   68.80
  -1  -2  -9  601.48   68.55
  -8  -1   5  388.74   48.60
  -8  -1   5  505.58   59.34
   8   1  -5  544.93   62.29
  -8   1   5  531.12   64.42
   8  -1  -5  482.24   60.63
  -6   1   9  210.70   28.88
  -6  -1   9  261.12   33.33
   6  -1  -9  246.46   29.38
   6   1  -9  270.68   32.11
  -6  -1   9  242.73   32.81
  -7   0   8   62.84   12.91
   7   0  -8   71.74   11.89
  -7   0   8   64.62   13.31
  -3   6  -2  407.13   53.84
   3  -6   2  364.66   40.61
   3   6   2  401.16   49.18
  -3  -6  -2  324.15   42.54
   3  -6   2  353.55   42.35
   3  -6   2  253.11   53.93
   4   6  -2  396.65   48.13
  -4  -6   2  365.86   45.74
   4   6  -2  361.14   46.45
   4   6  -2  416.95   49.73
   4  -6  -2  406.26   49.07
   4  -6  -2  408.87   45.06
  -4   6   2  406.90   53.63
  -4   6   2  409.90   48.40
  -4  -6   1  393.28   48.21
   4   6  -1  726.64   82.16
   4  -6  -1  760.55   85.93
   4  -6  -1  713.71   76.48
   4   6  -1  660.60   79.36
  -4   6   1  718.98   87.01
   4   6  -1  577.44   93.64
  -4   6   1  695.93   78.05
  -6   4   6 1062.54  120.90
  -6  -4   6  869.39   97.20
   6   4  -6 1145.62  124.75
   6  -4  -6 1006.16  113.88
  -2   6   5  266.96   36.82
  -2   6   5  251.32   31.41
  -2  -6   5  141.40   22.12
   2   6  -5  233.09   34.07
  -2  -6   5  260.59   30.49
   2  -6  -5  251.21   32.60
  -3  -3  -7 2124.78  225.76
  -3   3  -7 1908.14  221.27
   3   3   7 1933.66  207.45
   4   1   7 1027.88  113.33
   4  -1   7 1295.11  140.80
  -4   1  -7 1340.96  146.10
  -4   1  -7 1424.13  158.12
   2  -2 -10 1864.92  198.40
   2   2 -10 1903.56  202.25
   2  -2 -10 1867.63  197.17
   2   2 -10 1704.51  183.95
  -3  -5   7  141.61   17.52
   3  -5  -7  128.29   16.39
   3   5  -7  139.00   22.83
  -3   5   7  133.89   21.75
  -3   5   7  133.10   18.67
   3  -2 -10   23.50    6.83
   3   2 -10   66.36   13.15
   3  -2 -10   61.40   10.99
   3   2 -10   67.28   10.62
  -8  -1   1  192.66   25.68
  -8   1   1  212.61   28.04
   8  -1  -1  148.71   20.97
   8   1  -1  230.19   30.54
  -8  -1   1  197.51   29.48
  -8   1   1  204.34   31.79
  -4  -3  -6   37.31    9.59
  -4   3  -6   34.94   12.90
   4   3   6   33.01    9.68
  -3  -1  -8  907.40  118.96
   3   1   8 1023.82  113.33
  -3   1  -8 1089.07  121.89
  -3  -1  -8  568.53  177.50
   6  -3   3 1487.34  161.81
   6   3   3 1058.37  118.19
  -6   3  -3  987.41  112.38
  -6   3  -3 1416.40  162.06
  -6  -3  -3 1411.09  155.41
   5   0   6    8.61    5.36
   5   0   6    9.24    5.94
  -5   0  -6    4.27    5.10
  -5   0  -6    7.79    7.61
   0  -3  -9  577.45   68.37
   0   3  -9 1477.67  169.31
  -4   4  -5   34.14   12.34
  -4  -4  -5   36.01    9.64
   4   4   5   34.52   10.37
   2   4   7  537.09   71.46
  -2   4  -7  613.20   76.47
  -2  -4  -7  576.98   73.46
   0   0 -10 1048.10  116.17
   0   0 -10  888.20  108.18
   0   0 -10  948.14  109.75
   7   3  -6  585.95   67.10
  -7  -3   6  512.95   60.94
   7  -3  -6  568.07   63.20
  -7   3   6  526.68   64.86
   0  -6  -5  249.68   32.48
   0   6   5  200.79   36.26
   0   6   5  259.25   35.19
   0  -6   5  276.04   36.99
   0   6  -5  261.28   37.39
   4   6  -3   74.07   15.07
   4   6  -3   69.40   14.87
   4   6  -3   86.76   14.88
  -4  -6   3   75.11   14.87
   4  -6  -3   89.91   12.27
  -4   6   3   82.99   18.39
  -4   6   3   82.25   13.57
   7  -1  -8   16.06    5.02
   7   1  -8   29.69    7.41
  -7  -1   8   33.66    9.43
  -7   1   8   30.79    9.74
  -7  -1   8   34.62    9.47
   5   0 -10    3.62    3.55
  -8   0   6  241.67   34.65
  -8   0   6  237.61   31.80
   8   0  -6  253.44   31.14
   4   6   0   12.02    7.20
   4   6   0   12.17    7.29
  -4  -6   0   15.10    7.68
  -4   6   0   13.28    5.58
   4  -6   0   14.50    3.86
   4  -6   0   16.09    6.40
  -4   6   0   11.33    9.66
   4  -6   0   13.50    7.46
   6   2   4   56.01   11.37
   6  -2   4   68.44   12.55
  -6  -2  -4   67.43   13.06
   6   2   4   60.87   12.49
  -6   2  -4   66.35   12.50
  -6   2  -4   41.55   12.91
  -8  -2   3  167.63   24.90
   8  -2  -3  116.54   25.69
  -8  -2   3  164.19   23.56
  -8   2   3  163.57   26.94
   0  -5  -7  225.64   29.85
   0  -5   7  158.38   24.47
   0   5   7  231.76   30.55
   0   5   7  210.78   29.79
  -2   0  -9   19.76    8.55
  -2   0  -9   15.47    6.84
  -8  -2   4  219.68   30.25
  -8   2   4  182.11   31.50
   8  -2  -4  235.78   29.05
   8   2  -4  245.05   31.71
  -8  -2   4  222.00   30.15
  -5   1  -6  132.95   23.84
  -5  -1  -6  130.12   22.99
  -5   1  -6  132.67   20.75
   5  -1   6  147.04   21.68
   5   1   6  151.35   22.37
   5   1   6  154.21   22.38
  -2  -3  -8  177.74   25.51
  -2   3  -8  173.12   26.52
   2   3   8  182.55   26.45
   7   2   2  125.30   20.45
  -7  -2  -2  118.77   19.49
  -7   2  -2  125.08   19.97
  -7   2  -2  104.64   16.52
   7  -2   2  133.73   19.72
   7   2   2  138.42   20.81
  -7   2  -2   89.97   19.41
   1  -2 -10  903.91   99.55
   1  -2 -10 1059.35  118.96
   1   2 -10  859.78   97.89
   1  -2 -10  858.63  117.53
   0  -1 -10  162.78   22.76
   0  -1 -10  143.14   21.24
   0   1 -10  139.19   22.04
  -8  -2   2  162.70   24.75
  -8   2   2  168.27   27.68
   8  -2  -2  119.02   23.47
  -8   2   2  165.56   22.84
  -8  -2   2  148.91   21.59
   8   2  -2  160.68   26.49
   0  -7   0    0.29    6.27
   0   7   0   -0.64    6.38
   0   7   0    1.15    5.60
  -4  -2  10  624.94   74.01
   4  -2 -10  769.16   85.49
   4   2 -10  582.38   99.33
  -4   2  10  694.18   80.32
   4   2 -10  683.96   80.71
  -8   0   0  150.37   26.19
   8   0   0  167.30   23.72
  -8   0   0  255.39   32.64
   6   3  -8  103.74   20.12
  -6   3   8  133.22   21.86
  -6  -3   8   77.00   14.76
   5  -1 -10  154.80   29.93
  -5   1  10  204.37   27.74
   5   1 -10   63.32   10.51
  -8  -1   6  136.52   21.49
  -8  -1   6  136.26   20.91
   8   1  -6  143.54   20.10
  -8   1   6  125.32   21.66
  -3   6   5  109.03   16.43
  -3  -6   5  107.52   14.78
   3   6  -5  115.82   20.08
  -3  -6   5  111.13   18.82
   3   6  -5   93.00   18.77
  -3   6   5  115.54   21.00
   0  -7  -1  532.66   63.49
   0   7  -1  609.92   75.72
   0   7   1  603.36   71.90
   0  -7   1  519.44   62.37
   0   7   1  580.51   72.81
   0   7  -1  490.17   71.84
   0  -7   1  583.37   66.80
  -3   5  -5  767.49   92.58
   3  -5   5  680.03   79.91
  -3  -5  -5  827.20   93.98
   3   5   5  695.48   86.60
   5   3   5 1337.77  148.22
  -5   3  -5 1183.85  136.22
   5  -3   5 1276.80  140.48
  -5   3  -5  860.35   98.07
  -2  -1  -9  344.80   42.33
  -2  -1  -9  351.30   44.67
  -2   1  -9  255.49   47.34
  -2   1  -9  351.46   42.56
  -7  -3  -1  255.00   33.45
  -7   3  -1  274.43   36.05
  -7   3  -1  239.76   36.24
   7   3   1  264.40   34.64
  -7   3  -1  255.99   33.12
   7  -3   1  265.64   33.37
  -2  -6  -4   32.42    8.99
   2   6   4   27.28    9.19
  -2   6  -4   29.45   12.06
   2  -6   4   32.74   10.26
  -1   7   0 1154.07  134.24
   1   7   0 1142.32  132.60
   1  -7   0 1173.86  129.20
   1  -7   0 1131.87  126.48
   1   7   0 1146.75  129.75
  -1  -7   0 1059.61  119.27
  -7   0  -3   99.67   20.54
  -7   0  -3  120.87   18.70
   7   0   3  122.45   19.00
  -2  -5  -6  162.23   24.27
  -2   5  -6  640.29   80.08
   2  -5   6  604.30   71.74
   2   5   6  622.19   73.26
  -5   5  -2  269.54   39.24
   5   5   2  274.56   35.84
   5  -5   2  241.33   29.70
  -1   7   1  754.18   91.74
   1   7  -1  783.97   93.91
  -1  -7   1  697.81   81.28
   1   7  -1  733.38   88.27
   1  -7  -1  613.06   83.93
  -4   6   4  609.88   74.86
   4   6  -4  602.55   75.23
   4   6  -4  651.93   77.60
   4  -6  -4  615.38   68.63
  -4   6   4  530.89   61.30
   8  -2  -5    0.32    3.68
   8   2  -5    2.86    5.79
  -8  -2   5   -0.05    5.38
  -8   2   5    0.98    7.20
  -8  -2   5   -0.88    5.20
  -5  -3   9  646.14   76.28
   5   3  -9  646.82   77.31
   5   3  -9  368.43   43.62
  -5   3   9  696.33   80.58
   5  -3  -9  720.27   78.64
   7  -4  -3 1397.96  150.60
  -7  -4   3 1383.49  152.73
   7   4  -3 1267.37  149.42
  -7   4   3 1280.08  151.04
   7   4  -3 1390.81  155.15
   6  -2  -9 1017.99  111.82
  -6   2   9  952.58  107.88
  -6  -2   9  813.01  101.02
   6   2  -9  922.29  118.35
   6  -5  -2  453.09   50.94
   6   5  -2  442.17   54.32
  -6  -5   2  469.71   56.50
   6   5  -2  486.85   58.16
   6  -4   2  351.89   42.17
  -6   4  -2  382.52   47.22
  -6   4  -2  339.45   47.24
  -6  -4  -2  363.25   44.53
  -8  -1   0   11.93    8.21
  -8  -1   0   10.44    5.80
   8   1   0    8.18    6.89
   8   1   0    9.58    7.55
  -8   1   0    7.35    8.80
   8  -1   0    8.11    6.15
  -8   1   0    6.36    4.57
  -5   5   6  221.98   32.62
   5  -5  -6  237.58   27.96
  -5  -5   6  208.26   29.39
   5   5  -6  235.41   31.42
   5   5  -6  197.06   27.62
   6  -5  -3    0.79    2.80
  -6   5   3    4.75    9.60
   6   5  -3    0.80    5.54
  -6  -5   3    0.17    6.75
   6   5  -3    1.12    4.41
   6   5  -3   -1.14    5.76
  -4   5   7  105.03   19.24
   4   5  -7   97.47   16.64
  -4  -5   7   87.51   17.27
   4   5  -7  102.54   17.00
   4  -5  -7   54.68    8.65
  -7  -4   2   18.83    7.37
   7   4  -2   26.44   10.10
   7  -4  -2   27.43    6.25
  -7   4   2   27.89   11.85
   7   4  -2   29.94    9.65
  -4  -6  -1   27.55    8.59
   4  -6   1   28.56    5.70
  -4   6  -1   25.09   11.40
   4  -6   1   23.58    8.55
   4   6   1   28.62    9.35
  -4  -2  -7  214.90   28.91
  -4   2  -7  188.83   26.37
  -4   2  -7  197.62   30.68
   4  -2   7  200.07   27.96
   4   2   7  187.26   26.78
  -5   4  -4  466.59   64.98
   5   4   4  422.22   61.22
  -1  -4  -8  952.16  106.42
   1   4   8  986.53  111.31
  -1   4  -8  865.14  109.01
   1  -4   8  998.02  113.50
  -8  -2   1  732.88   83.35
  -8   2   1  714.06   88.09
   8   2  -1  720.22   85.92
  -8   2   1  704.66   79.94
   8   2  -1  626.30   96.54
   8  -2  -1  791.62   88.14
  -3  -2  -8  502.69   59.49
  -3   2  -8  454.36   59.30
   3   2   8  457.35   55.52
   3  -6   3   26.03    9.34
  -3   6  -3   24.60   10.92
   3   6   3   19.01    7.88
  -3  -6  -3   20.42    8.44
   1  -6   5   26.81    9.71
  -1  -6  -5   31.94    8.65
   1   6   5   31.71    9.70
   1   6   5   31.15    8.26
  -1   6  -5   27.47   12.31
   1   7   1 1002.12  165.97
   1  -7   1 1315.34  143.75
  -1   7  -1 1298.62  151.58
   1  -7   1  803.35  185.50
  -1  -7  -1  873.60  172.36
   1   7   1 1310.84  148.91
   7   4  -4    2.80    7.19
   7  -4  -4    4.51    3.65
  -7  -4   4    4.60    6.28
   7   4  -4    4.34    6.71
  -7   4   4    6.10    9.77
  -5   4   8 1403.88  156.17
   5   4  -8  858.93  193.05
  -5  -4   8 1192.06  146.45
   5   4  -8 1217.48  162.50
   7   1   3  163.24   23.45
  -7   1  -3  152.67   22.18
  -7  -1  -3  172.29   24.15
  -7   1  -3  134.06   25.11
   7   1   3  149.27   22.39
   7  -1   3  171.63   24.06
  -6  -5   1 2335.53  171.63
   6   5  -1 2186.31  165.58
   6  -5  -1 2514.06  177.60
  -6   5   1 1958.93  253.14
  -6   0  -5    5.76    5.51
  -6   0  -5    4.46    7.22
   6   0   5    6.93    5.75
   0  -7   2  592.21   70.01
   0  -7   2  601.72   68.47
   0  -7  -2  553.39   65.53
   0   7  -2  562.68   72.65
   0   7   2  609.31   71.89
   0   7   2  548.89   68.47
   1   7  -2  494.27   59.42
  -1   7   2  493.04   62.56
   1  -7  -2  511.97   61.21
  -1  -7   2  508.14   58.39
   1   7  -2  520.45   66.44
  -1  -7   2  465.14   61.93
   4   5   4   95.20   16.90
  -4   5  -4   94.75   20.12
  -4  -5  -4   83.21   14.94
  -2   4   9 1538.48  167.98
   2  -4  -9 1024.04  201.41
  -7   2   8   66.59   14.25
   7   2  -8  107.82   16.03
  -7  -2   8  103.06   17.86
   7  -2  -8  104.70   15.02
   6  -4  -7  397.62   44.90
  -6  -4   7  352.30   44.25
   6   4  -7  377.51   45.54
   6   4  -7  363.35   46.11
  -6   4   7  338.71   44.38
  -6   5   4  109.29   21.65
   6   5  -4  108.23   17.65
   6   5  -4  116.65   20.10
  -6  -5   4  124.39   20.30
   6  -5  -4  127.75   16.58
   6   5  -4  121.83   20.55
  -8   0   7    1.61    4.26
  -8   0   7    5.50    7.54
   8   0  -7    1.17    4.45
   7  -4  -1  205.77   25.75
   7   4  -1  188.76   28.36
  -7  -4   1  191.57   26.43
  -7   4   1  189.33   30.72
  -7   4   1  181.14   24.46
  -3  -4   9  302.85   39.76
  -3  -4   9  308.63   35.03
   3  -4  -9  320.65   36.78
  -3   4   9  312.53   39.52
  -7  -3   7  436.37   66.68
   7  -3  -7  595.30   67.13
   7   3  -7  605.78   69.03
  -5   2  -6   95.67   13.57
   5   2   6   97.58   15.13
   5  -2   6  104.55   14.86
  -5   2  -6  105.69   18.84
  -5  -2  -6  102.44   14.81
  -1  -6   6   91.13   17.03
   1   6  -6  137.80   23.32
  -1   6   6  157.59   24.21
   1  -6  -6   69.56   12.88
   2  -6  -6  581.60   68.43
   2   6  -6  625.68   75.64
  -2  -6   6  556.45   66.04
  -2   6   6  607.87   72.56
  -2  -7   1   66.57   12.92
   2   7  -1   93.97   15.94
   2  -7  -1  100.16   15.61
  -2   7   1   91.97   19.56
   2   7  -1   98.26   17.77
   0  -2 -10  513.98   45.06
   0   2 -10 1392.71  128.84
   0  -2 -10 1044.63   82.00
  -1   5  -7  702.87   67.49
   1   5   7  706.06   63.62
  -1  -5  -7  483.72  108.76
   1  -5   7  752.37   64.48
  -6   1  -5  131.85   17.96
   6   1   5  149.23   18.32
   6   1   5  154.43   19.17
  -6   1  -5   94.24   18.02
  -6  -1  -5  126.71   20.76
   6  -1   5  164.61   19.52
  -1  -3  -9   62.91   19.16
  -1   3  -9  270.72   32.62
   2  -7   0 1558.89  119.49
   2   7   0 1663.02  132.39
   2   7   0  953.27   79.88
  -2  -7   0 1655.04  125.54
   2  -7   0 1698.13  127.40
  -2   7   0 1603.38  136.68
  -1  -4   9  208.41   25.43
   1   4  -9  246.79   29.34
   1  -4  -9  136.18   16.75
   5  -2 -10  344.46   28.45
  -5  -2  10  286.48   30.58
  -5   2  10  289.21   28.93
   5   2 -10  260.25   34.75
  -8  -2   6  778.83   64.32
  -8   2   6  598.60   93.55
  -8  -2   6  742.37   62.58
   8  -2  -6  796.39   63.80
   8   2  -6  748.40   77.30
   7   4  -5  133.22   17.81
  -7  -4   5  115.92   16.56
   7  -4  -5  128.15   13.50
   3   0 -11  371.76   31.18
   2  -3 -10 1065.00   77.76
   2  -3 -10 1109.38   85.85
   2   3 -10  924.28   74.32
  -2  -3  10 1058.62   85.53
  -1   0 -10  854.85   72.56
  -1   0 -10  829.93   65.73
  -8  -1   7 1363.86  104.73
   8   1  -7 1625.69  121.89
  -8  -1   7 1223.82   97.32
  -8   1   7 1183.36   96.65
  -3  -3  10 2057.20  361.89
   3  -3 -10 2089.56  365.86
   3  -3 -10 2054.44  147.72
  -3   3  10 2084.36  365.18
   3   3 -10 1869.03  144.69
   1   7   2  830.51   72.37
   1   7   2  875.37   73.31
  -1   7  -2  849.20   76.94
  -1  -7  -2  839.31   68.76
  -2  -7   2  388.39   38.71
  -2   7   2  425.21   44.46
   2  -7  -2  389.69   39.59
   2   7  -2  445.48   45.43
   2   7  -2  353.15   48.52
  -7   0   9  120.16   16.91
   7   0  -9  130.46   14.37
  -8   0  -1  597.70   50.22
   8   0   1  718.36   62.53
  -8   0  -1  646.73   61.51
  -6  -5   0  106.98   15.40
  -6   5   0  102.11   19.30
   6  -5   0  114.07   12.80
   6   5   0   75.59   19.27
  -2   2  -9  161.30   22.67
  -2  -2  -9  174.78   20.37
   2   2   9  162.81   20.86
  -2  -5   8  257.55   29.48
   2  -5  -8  252.93   36.28
  -2   5   8  310.72   31.09
   2   5  -8  311.39   33.79
   2   0 -11   73.76    8.93
   2   0 -11   69.67   13.04
   2   0 -11   44.78   15.92
   4  -6  -5  293.89   24.52
  -4   6   5  285.46   32.85
   4   6  -5  346.99   35.90
   4   6  -5  242.87   42.01
   6   0 -10  175.11   17.25
  -6   0  10  160.45   19.22
  -1  -7   3  212.99   26.79
  -1   7   3  244.62   29.73
   1   7  -3  249.25   30.54
   1  -7  -3  187.47   31.99
  -1  -7   3  261.12   24.39
  -8   2   0   23.82   11.12
   8  -2   0   29.61    8.01
   8   2   0   24.49    8.52
  -8  -2   0   26.74    7.33
  -8   2   0   25.15    6.74
   4  -6   2  146.81   20.56
   4   6   2  157.87   19.88
  -4  -6  -2  162.88   19.77
  -4   6  -2  132.51   21.51
   0  -6  -6   25.56    7.77
   0   6  -6   34.31   11.49
   0  -6   6   28.01    9.97
   0   6   6   34.67    8.75
   0   6   6   32.11    9.50
  -6  -5   5  127.85   21.38
   6   5  -5  168.81   20.18
  -6   5   5  151.14   23.06
   6  -5  -5  163.16   15.59
   6   5  -5  163.30   20.95
   2   7   1 1011.23   82.37
  -2  -7  -1  983.17   78.95
   2  -7   1  969.79   79.96
  -2   7  -1  970.64   85.19
   2   7   1  933.95   79.97
   0   7   3  233.94   28.65
   0   7  -3  223.08   29.03
   0  -7   3  221.63   25.35
   0  -7  -3  210.96   24.84
   0   7   3  238.82   27.39
  -5   6   2  452.36   50.28
   5  -6  -2  526.04   40.61
   5   6  -2  461.87   47.25
   5   6  -2  484.97   45.40
  -6  -3  -4   13.95    6.85
   6  -3   4   16.07    5.86
   6   3   4   18.73    7.84
  -6   3  -4   16.70    6.03
  -6   3  -4   18.39   10.70
   8   3  -3  607.42   58.28
   8   3  -3  710.83   58.64
   8  -3  -3  634.06   55.15
  -8   3   3  645.06   60.31
  -8  -3   3  630.62   54.26
  -3   6   6  145.45   16.65
  -3   6   6  156.69   21.57
  -3  -6   6  162.33   15.71
  -3  -6   6  146.99   19.80
   3   6  -6  132.55   20.80
   3  -1 -11   51.99    7.22
   3   1 -11   42.69    9.50
   3  -1 -11   55.19   10.03
   3   1 -11   57.16    8.07
   1  -5  -8  138.92   17.48
  -1  -5   8  121.63   18.55
  -1   5   8  142.39   17.87
  -1   1 -10 1415.51  112.21
  -1  -1 -10 1113.63   90.98
  -1   1 -10 1503.12  111.67
  -1  -1 -10 1020.94  197.65
  -4   4   9  336.24   33.48
  -4  -4   9  301.88   32.75
   4   4  -9  253.63   29.39
   4  -4  -9  349.64   28.60
   3   5  -8  361.05   37.27
  -3   5   8  357.76   35.32
   7   1  -9  710.27   57.46
   7  -1  -9  674.24   57.95
  -7  -1   9  696.51   57.79
  -7  -1   9  528.45   47.17
  -7   1   9  688.53   57.98
   4   0 -11   38.85    6.51
  -8  -1  -1  209.53   23.37
  -8   1  -1  191.61   21.83
   8   1   1  181.27   24.15
   8   1   1  203.33   25.12
  -8   1  -1  190.74   26.75
   8  -1   1  146.25   17.65
   7   4   0  209.69   23.37
   7  -4   0  219.87   21.27
  -7   4   0  191.68   20.84
  -7   4   0  192.44   28.37
  -7  -4   0  178.16   22.91
  -8  -3   4   74.48   12.42
  -8   3   4   69.77   15.63
   8  -3  -4   70.15    9.84
  -8  -3   4   67.43   12.28
   8   3  -4   61.30   13.52
   2  -1 -11   34.01    7.79
   2   1 -11   81.86   10.02
   2  -1 -11   45.01   14.49
   2  -1 -11   81.20   13.57
   2   1 -11   40.60    9.38
   5  -6  -1   94.00   10.49
   5   6  -1   81.19   14.30
   5   6  -1  102.10   15.22
  -5   6   1   78.47   17.45
   5  -6  -1   92.60   14.37
   7  -3   2  329.57   30.65
   7   3   2  367.58   35.23
  -7   3  -2  253.91   32.67
  -7   3  -2  370.56   35.86
  -7   3  -2  342.91   33.16
  -7  -3  -2  348.74   38.78
  -7   2  -3  122.97   21.57
  -7  -2  -3  182.70   21.06
  -7   2  -3  167.08   21.78
   7   2   3  148.50   18.57
   7  -2   3  191.36   21.04
   6  -1 -10  169.07   16.51
  -6  -1  10  165.75   21.16
   6   1 -10  178.02   18.02
   5  -6  -3  617.79   46.99
   5   6  -3  536.45   51.13
   5   6  -3  607.30   60.62
  -5   6   3  619.09   59.29
   1   3 -10   14.89    8.61
   1  -3 -10   19.33    6.64
   8   3  -2 1251.92  107.32
  -8  -3   2 1239.61   95.84
  -8   3   2 1181.36  104.99
   8  -3  -2 1089.95  114.01
   4   3 -10 1027.25   77.41
  -4   3  10 1015.14   79.51
   4  -3 -10 1011.67  105.88
  -4  -3  10  594.26   52.94
  -2  -7   3   86.46   14.63
   2   7  -3   95.99   17.09
   2  -7  -3   78.41   14.23
  -2   7   3   94.06   17.56
  -5  -5  -3  117.20   23.06
   5   5   3  167.23   20.51
  -5   5  -3  154.00   24.27
   3   4   7  481.30   49.56
  -3  -4  -7  560.22   47.73
  -3   4  -7  459.19   61.08
  -5   5   7  368.92   37.58
   5   5  -7  304.57   31.87
  -5  -5   7  231.37   25.68
   5  -5  -7  390.59   31.85
   5   5  -7  316.64   44.91
   1   0 -11  335.55   32.27
   1   0 -11  609.32   51.51
   1   0 -11  610.81   46.42
  -4  -4  -6  386.04   35.41
   4   4   6  299.44   37.96
  -4   4  -6  337.49   39.47
   4   1 -11 1931.82  145.75
   4  -1 -11 1066.71   83.41
   4  -1 -11 2115.37  372.91
  -6   4  -3   24.33   11.47
  -6  -4  -3   19.94    7.57
   6   4   3   28.73    9.07
   0  -4  -9  702.86  169.71
   0   4  -9  922.66   87.57
   0  -4   9  776.49   66.34
   2   6   5  158.10   26.82
  -2   6  -5  176.56   27.90
   2  -6   5  130.24   33.59
  -2  -6  -5  187.60   21.15
  -6   2  -5   19.59   10.55
  -6   2  -5   15.46    6.35
  -6  -2  -5   18.72    7.26
   6  -2   5   16.85    6.09
   6   2   5   18.67    7.63
  -8   3   5  344.74   41.97
   8   3  -5  373.13   39.94
   8  -3  -5  426.77   35.14
  -8  -3   5  402.07   37.17
  -8  -3   5  385.19   36.36
   7   4  -6    6.11    7.21
  -7  -4   6    7.68    6.75
   7  -4  -6    8.34    3.90
  -4   0  -8 1279.23  110.88
   4   0   8 1310.25  100.87
   6  -3  -9  249.32   22.19
   6   3  -9  238.70   23.07
  -6  -3   9  234.53   26.15
  -6   3   9  242.58   26.97
   3  -6   4  749.93   64.15
  -3  -6  -4  722.46   65.50
   3   6   4  816.06   68.31
  -5   6   0   92.33   18.47
   5  -6   0  121.02   12.85
   5   6   0  123.38   17.33
   1   7   3   69.09   13.17
  -1  -7  -3   27.23    8.24
   1  -7   3   49.37   12.00
  -1   7  -3   58.07   15.44
   1   7   3   66.19   13.74
   3   7  -1 1640.46  126.76
   3  -7  -1 1581.69  114.04
   3   7  -1 1551.51  126.33
  -3   7   1 1342.34  112.59
   3  -7  -1 1436.14  110.52
  -4   3  -7 1000.94   92.42
   4   3   7  992.48   78.99
  -4  -3  -7 1039.90   81.25
  -5  -6   4  274.91   28.87
  -5   6   4  257.86   32.26
   5  -6  -4  261.57   26.46
   5   6  -4  338.39   35.81
   6  -5   1  432.51   35.88
  -6   5  -1  420.67   45.44
  -6  -5  -1  386.47   37.29
   6   5   1  358.74   48.23
  -8  -2   7  112.60   16.19
   8  -2  -7  116.34   13.28
   8   2  -7  103.70   16.64
  -8   2   7  111.95   17.79
  -8  -2   7  116.90   16.19
  -2   7  -2  302.75   35.84
  -2  -7  -2  230.74   32.33
   2   7   2  292.41   34.13
   2  -7   2  283.30   23.46
   2  -7   2  266.32   28.91
   1  -1 -11  273.90   33.89
   1  -1 -11  362.47   34.43
   1  -1 -11  350.23   32.83
   1   1 -11  318.32   32.64
  -8  -3   1  406.47   37.48
   8  -3  -1  389.74   39.98
  -8   3   1  450.03   47.36
   8   0  -8  586.55   46.74
  -8   0   8  500.77   55.99
  -3  -7   2  128.95   18.23
   3   7  -2  132.98   20.24
   3  -7  -2  124.22   12.51
  -3   7   2  115.46   20.62
   3   7  -2  120.73   17.61
  -3   3  -8  670.41  122.02
  -3  -3  -8  211.33   25.98
   0  -5   8 1501.06  116.06
   0  -5  -8  924.62  267.06
  -2  -4  -8  672.11   55.58
   2   4   8  576.90   50.64
  -2   4  -8  448.11   91.44
   7   0   4    3.55    4.98
  -7   0  -4    0.84    4.42
   5   0   7   15.68    6.57
  -5   0  -7   15.07    6.84
  -4   5   8  751.38   64.38
   4  -5  -8  647.27   49.36
  -4  -5   8  732.57   61.76
  -3   0  -9 1983.95  167.43
  -3   0  -9 2126.28  372.87
  -3  -7   0   50.82   11.64
   3  -7   0  127.61   18.92
   3   7   0  131.67   20.39
   3  -7   0  134.19   13.04
   3   7   0  144.16   19.15
  -3   7   0  132.83   22.22
  -1   7   4  284.08   32.14
   1  -7  -4  240.80   26.00
  -1  -7   4  256.43   27.99
   1   7  -4  268.34   32.53
  -3  -5  -6  246.25   27.10
  -3   5  -6  253.37   31.29
   4  -1   8   55.31   10.87
  -4   1  -8   56.01   13.71
   4   1   8   48.33   10.20
  -4   1  -8   48.68    9.94
   7   3  -8  227.01   24.27
  -7  -3   8  217.78   24.50
   6   4  -8  140.53   17.49
   6  -4  -8  203.50   19.43
  -6  -4   8  420.90   39.72
  -6   4   8  443.02   42.57
   6   4  -8  395.33   36.79
  -9   0   4   59.09   11.06
  -9   0   4   49.22   12.47
   9   0  -4   62.91   14.97
   9   0  -3  444.42   99.99
  -9   0   3  542.25  100.64
  -9   0   3  584.26  105.42
  -6   5   6   34.85   11.20
   6   5  -6   51.81   11.18
  -6  -5   6   49.20   11.34
   6   5  -6   29.73    8.05
   6  -5  -6   29.83    5.52
   1   6   6  187.55   23.66
   1  -6   6  202.00   24.47
  -1   6  -6  192.59   28.48
  -1  -6  -6   83.82   13.45
   5   0 -11  751.78  279.21
   3  -2 -11  215.50   39.31
   3   2 -11  220.79   42.64
   3  -2 -11  226.53   43.62
  -1   2 -10  214.86   44.62
  -1  -2 -10  115.65   24.48
   4   6  -6   98.94   22.98
  -4   6   6  159.24   33.63
   4  -6  -6   85.48   16.76
  -8   1   8   77.02   20.23
   8   1  -8  102.24   20.80
  -8  -1   8  102.82   22.44
   8  -1  -8   95.70   19.23
  -8  -1   8   82.93   19.03
   7   2  -9  192.98   36.91
   7  -2  -9  174.47   34.50
  -7  -2   9  181.98   36.46
  -5  -4  -5  730.53  131.66
   5   4   5  598.15  108.41
  -5   4  -5  576.12  107.58
   8   2   1  430.76   79.82
   8  -2   1  434.27   78.95
  -8   2  -1  424.70   81.98
  -8   2  -1  430.93   79.66
  -8  -2  -1  479.19   87.29
   0   7   4  205.62   41.02
   0  -7  -4  200.76   39.10
   0   7   4  210.56   42.31
   0   7  -4  217.91   45.22
   0  -7   4   93.20   21.48
   2  -2 -11  216.22   39.52
   2   2 -11  170.71   34.20
   2  -2 -11  211.55   40.66
  -7   4  -1  106.47   22.03
   7  -4   1  112.54   22.68
  -7   4  -1  109.04   26.91
  -7  -4  -1  108.86   22.94
  -2   7   4   31.38   11.60
   2   7  -4   25.26   10.51
   2  -7  -4   15.93    7.81
  -2  -7   4   31.05   11.09
   5   3   6  139.39   28.84
  -5   3  -6  152.33   34.66
  -5   3  -6   90.33   19.44
  -4  -5  -5  307.87   57.78
  -4   5  -5  294.01   59.18
  -7   1  -4  104.03   22.16
   7  -1   4  109.24   23.12
  -7   1  -4  101.96   25.29
  -7  -1  -4  108.09   22.91
   7   1   4  111.24   23.51
  -2   5  -7  667.96  126.02
   2  -5   7  658.98  119.66
  -2  -5  -7  475.98  124.76
   3   7  -3  845.31  151.31
  -3  -7   3  601.45  127.41
   3   7  -3  799.21  145.23
  -3   7   3  755.18  139.04
   3  -7  -3  792.63  139.27
   6  -2 -10  737.12  129.95
   6   2 -10  854.66  150.93
  -6   2  10  768.76  137.72
  -6  -2  10  760.43  136.97
   5   1   7   48.64   13.16
  -5   1  -7   48.28   12.36
  -5  -1  -7   51.50   13.40
  -5   1  -7   38.92   13.99
   5  -1   7   45.67   12.19
  -3  -1  -9   12.00    6.83
  -3   1  -9   10.08    7.77
   3   1   9   13.08    7.36
   0   3 -10  194.61   39.57
   0  -3 -10  211.73   40.78
  -5   4   9 1810.01  435.58
   5   4  -9 1959.66  470.22
  -5  -4   9 1388.71  276.52
   5   4  -9  809.41  147.37
   5  -4  -9 1060.38  416.01
  -8   0  -2    6.17    8.97
   8   0   2    7.35    5.74
  -8   0  -2    7.75    5.55
   9   0  -5   32.28    9.29
  -9   0   5   18.24    8.73
  -4  -6  -3  428.89   78.70
   4  -6   3  348.37   74.80
   4   6   3  434.52   80.10
   5  -3 -10   43.05    9.64
  -5   3  10   39.46   11.75
   5   3 -10   36.71   10.97
  -5  -3  10   46.01   13.39
   5   3 -10   41.02   10.33
   9  -1  -4  209.69   39.93
   9   1  -4  156.90   37.12
  -9  -1   4  194.29   38.18
  -9  -1   4  213.16   42.38
  -9   1   4  141.10   38.29
  -8   3   6   96.00   22.66
  -8  -3   6   93.91   20.95
   8   3  -6  109.01   22.92
   8  -3  -6   64.30   21.44
  -9  -1   3  360.02   74.37
   9  -1  -3  427.79   82.66
  -9   1   3  437.56   82.73
  -9  -1   3  432.06   79.04
   9   1  -3  184.00   35.95
  -9   0   2   21.14    7.17
   9   0  -2   26.63    9.46
  -9   0   2   22.73   10.05
   2   6  -7  112.08   25.81
  -2  -6   7   87.11   26.74
  -2   6   7  135.57   28.71
   5  -1 -11   51.47   11.32
   5   1 -11   46.26   10.83
   3   7   1  321.91   64.85
   3  -7   1  360.60   64.24
  -3   7  -1  363.41   70.35
  -3  -7  -1  351.73   65.69
   3  -7   1  344.78   66.24
  -5  -6  -1  780.25  140.28
   5   6   1  496.51   90.96
   4   2 -11  240.09   44.25
   4   2 -11  221.22   42.46
   4  -2 -11  224.77   41.04
  -1   6   7  344.16   64.38
   1   6  -7  308.71   59.52
   1  -6  -7  302.32   57.46
  -1  -6   7  313.96   59.77
  -2   3  -9  312.30   99.43
   2   3   9  511.90   93.67
  -2  -3  -9  132.23   32.75
   5  -6  -5    8.58    4.01
   5   6  -5   14.89    8.09
  -5   6   5   10.98    9.02
   5   6  -5   11.27    6.88
  -5  -6   5    7.10    7.40
   0   0 -11  430.02   79.74
   0   0 -11  452.12   83.07
  -8   1  -2  175.90   34.50
  -8  -1  -2  182.89   35.58
   8  -1   2  182.81   36.38
   8   1   2  205.92   39.95
  -8   1  -2  123.59   28.96
   8  -3   0  430.84   78.74
  -8   3   0  401.47   73.72
   8   3   0  370.53   68.38
  -8  -3   0  426.90   77.96
  -8   3   0  410.06   79.34
   9  -1  -5  598.00  106.55
  -9  -1   5  577.92  105.73
  -9   1   5  574.89  105.81
  -9  -1   5  565.05  102.39
   9  -1  -2   86.41   18.95
   9   1  -2   41.86   11.91
  -9  -1   2   82.92   18.27
  -9   1   2   83.82   21.14
  -9  -1   2   83.60   20.41
   6   0   6  103.34   22.17
  -6   0  -6   39.29   11.40
   3   6  -7  143.06   32.21
  -3   6   7  153.45   31.94
   3  -6  -7  166.27   32.44
  -2   0 -10  233.99   44.49
  -2   0 -10  223.78   44.06
   1  -2 -11   76.00   17.70
   1  -2 -11   64.27   13.09
   1   2 -11   60.21   16.04
   1  -2 -11   34.68   16.77
  -7  -4   7 1038.16  186.15
   7  -4  -7 1250.30  218.97
   7   4  -7 1095.40  195.20
  -7   4   7 1122.98  200.84
  -2   7  -3   97.44   24.31
   2   7   3   94.66   21.60
  -2  -7  -3   39.89   11.34
   2  -7   3   85.97   20.06
  -7  -3  -3  365.65   67.65
  -7   3  -3  335.84   62.54
   7  -3   3  351.52   64.69
   7   3   3  352.06   65.82
  -7   3  -3  312.11   62.54
   0   1 -11  160.21   32.70
   0   1 -11  180.31   37.07
   0  -1 -11  173.61   34.64
   0  -1 -11   76.66   35.18
   0  -1 -11  155.06   29.77
  -1   4  -9  124.43   27.33
   1   4   9  120.68   26.24
  -1  -4  -9  119.97   24.93
   1   7   4  181.89   37.55
  -1  -7  -4  163.69   33.26
   1  -7   4  132.97   36.49
  -1   7  -4  200.28   42.19
   7   5  -3  284.72   53.78
   7  -5  -3  290.69   52.70
  -7  -5   3  246.64   48.04
   7   5  -3  253.55   50.59
  -9   0   6  175.65   35.81
  -4  -2  -8  139.31   28.61
  -4   2  -8  394.59   75.81
  -4   2  -8  378.46   69.38
   4   2   8  384.68   71.70
  -7   0  10  850.66  151.62
   7   0 -10  910.90  161.17
   3  -7  -4   58.59   13.89
   3   7  -4   68.12   17.61
  -3   7   4   65.04   17.77
  -3  -7   4   77.50   18.64
  -6  -5  -2   82.35   21.08
  -6   5  -2  103.91   26.11
   6   5   2  101.99   24.17
  -9   0   1  618.76  114.97
   9   0  -1  594.26  111.57
  -9   0   1  578.70  104.04
  -7  -5   2  118.17   25.42
   7   5  -2  105.48   23.51
   7  -5  -2  127.92   24.54
  -7   5   2  102.83   25.80
  -5  -5  -4  374.24   69.15
  -5   5  -4  393.49   75.67
   2  -4 -10  126.54   25.74
   2  -4 -10  212.68   49.99
   2   4 -10  176.98   50.04
  -2  -4  10  257.43   50.02
  -1   5  -8   70.56   18.95
  -1  -5  -8   23.20    8.99
   1  -5   8  114.39   28.64
   6   1   6  584.95  105.69
  -6   1  -6  571.36  106.62
   6  -1   6  564.07  101.88
  -6   1  -6  585.56  109.07
  -6  -1  -6  557.69  100.77
   3  -4 -10  109.87   33.82
  -3  -4  10  159.05   33.10
  -3   4  10  169.84   33.50
   0  -6  -7  789.05  148.87
   0  -6   7  851.23  152.90
   0   6   7  872.36  157.37
   0   6  -7  818.79  153.39
  -2  -1 -10   90.70   20.91
  -2   1 -10  110.42   22.94
  -2   1 -10  108.24   25.15
   8   2  -8  283.30   53.23
  -8  -2   8  280.20   53.30
  -8   2   8  273.40   53.15
  -8  -2   8  296.95   55.72
  -7  -5   4  150.54   30.78
   7   5  -4  191.08   38.11
   7  -5  -4  132.54   30.92
   7   5  -4   56.91   17.00
   5   5  -8  346.13   66.38
  -5  -5   8  377.13   71.65
  -5   5   8  414.35   77.88
   5  -5  -8  419.06   77.08
   5   5  -8  362.34   74.98
  -7   2  -4  255.09   52.16
   7   2   4  278.54   52.60
  -7   2  -4  264.52   50.38
  -7  -2  -4  291.93   55.36
   7  -2   4  263.64   49.57
   5   2   7  386.27   76.30
  -5   2  -7  415.17   78.43
  -5   2  -7  456.06   86.78
   1   7  -5   57.48   16.94
  -1  -7   5   43.45   14.40
   1  -7  -5   51.91   13.38
  -1   7   5   59.53   15.66
  -3   2  -9  826.37  246.63
  -3  -2  -9 1357.19  243.57
   3   2   9 1247.32  223.31
  -6   3  -5 1696.56  411.27
  -6  -3  -5  935.85  167.76
   6   3   5 1749.98  421.66
  -6   3  -5 1311.43  256.51
  -9   1   6   19.96    9.91
   9  -1  -6   26.01    7.86
  -9  -1   6   21.56    8.04
   9   1  -6   23.14    8.08
  -9  -1   6   21.62    9.12
  -7  -1  10   25.82    9.47
   7   1 -10   24.53    7.40
   7  -1 -10   21.32    6.65
  -7   1  10   23.16    9.27
  -2   5   9  258.15   48.90
   2   5  -9  252.97   51.18
   3   7   2  288.67   55.78
  -3   7  -2  229.27   50.29
  -3  -7  -2  202.43   45.93
   3  -7   2  258.52   50.29
  -4  -7   2 1595.60  384.29
   4   7  -2 1186.41  297.23
  -4   7   2 1660.49  403.55
   4  -7  -2 1688.42  404.23
   4   7  -2 1706.09  412.30
  -9  -2   4  346.90   65.22
   9  -2  -4  338.40   66.26
   9   2  -4  263.06   62.93
  -9  -2   4  345.40   64.37
  -9   2   4  334.90   65.36
  -9   1   1  321.47   62.83
  -9  -1   1  330.30   61.12
   9   1  -1  344.84   64.47
  -9   1   1  345.55   63.71
   9  -1  -1  332.99   61.51
  -6   5   7   39.99   13.27
   6   5  -7   29.79    9.59
   6  -5  -7   20.05    5.62
   6   5  -7   39.54   12.45
  -6  -5   7   43.25   12.77
  -9   2   3  146.71   32.16
  -9  -2   3  152.33   30.74
   9  -2  -3  153.77   29.67
   4  -7  -1  395.07   70.25
   4   7  -1  397.00   77.06
  -4   7   1  374.32   73.49
  -4  -7   1  369.66   69.81
  -2   7   5  338.89   64.76
  -2  -7   5  271.57   53.62
   2   7  -5  277.69   57.84
   6   4   4 1177.18  208.78
  -6   4  -4 1108.40  200.36
  -6  -4  -4 1050.92  190.85
  -6   4  -4 1063.26  190.77
   5  -2 -11   23.97    6.72
   5   2 -11   20.62    6.53
  -5  -2  11   23.53    9.42
  -5   2  11   20.88    8.35
   8  -4  -3   24.95    6.92
   8   4  -3   29.90   10.46
  -8  -4   3   32.98   10.82
  -8   4   3   24.85   12.06
   8   3  -7  527.09   95.25
  -8   3   7  447.30   85.21
  -8  -3   7  359.30   66.80
   8  -3  -7  440.30   83.62
  -7   5   1    1.16    9.36
  -7  -5   1    2.15    5.66
   7   5  -1   -0.43    5.67
   7  -5  -1    1.48    3.42
   3   5  -9  184.38   44.12
  -3   5   9  207.47   40.47
  -3  -5   9  198.10   39.66
   3  -5  -9  198.73   38.10
   3  -6   5  477.53  102.66
  -3  -6  -5  655.87  117.88
   3   6   5  370.94   69.86
   6   0 -11  258.77  127.54
   8  -4  -4  216.25   40.15
  -8   4   4  203.85   41.92
  -8  -4   4  166.08   33.32
   8   4  -4  219.61   42.42
   8   0  -9    3.82    4.55
  -8   0   9    0.60    5.86
  -7  -4  -2   62.57   15.08
   7   4   2   58.45   15.69
  -7   4  -2   68.46   20.30
  -7   4  -2   62.87   14.57
   2  -6   6   27.34   10.76
   2   6   6   26.40   10.14
  -2  -6  -6   27.45    9.40
   1   4 -10  869.24  159.04
   1  -4 -10  392.36   74.90
   5   6   2   40.43   11.73
  -5  -6  -2   37.13   10.94
   8   4  -2   98.89   35.19
   8  -4  -2  110.19   21.73
  -8  -4   2  154.56   31.57
  -8   4   2  168.63   45.87
   0   7   5  123.19   26.57
   0  -7  -5  120.11   25.22
   0   7  -5   88.86   22.08
   0  -7   5  121.50   26.77
  -6  -6   2  932.93  166.43
   6  -6  -2  664.17  117.16
  -6   6   2  859.01  160.18
   6   6  -2  810.28  172.71
   8   2   2   12.98    7.33
  -8   2  -2   11.48   10.52
   8  -2   2   14.14    7.14
  -8  -2  -2   13.59    7.30
  -8   2  -2   14.75    6.88
  -4   4  10  162.34   42.02
   4   4 -10  134.37   35.71
  -4  -4  10  160.19   42.24
   4  -4 -10  177.02   21.59
   4   7  -3  146.99   43.38
  -4   7   3  192.45   30.56
   4   7  -3  178.72   27.00
  -4  -7   3  179.65   26.10
   4  -7  -3  185.80   22.19
  -5   6   6  559.30   68.50
   5   6  -6  151.61   46.24
   5   6  -6  412.57   52.81
  -5  -6   6  545.60   67.68
   5  -6  -6  578.65   64.77
  -9   2   5   96.97   28.06
   9  -2  -5   95.40   25.32
   9   2  -5   89.19   24.93
  -9  -2   5   90.71   25.11
  -9  -2   5   93.37   25.96
   6  -6  -3  315.81   36.28
   6   6  -3  121.82   78.03
  -6  -6   3  304.34   39.20
   6   6  -3  345.03   50.49
  -6   6   3  293.58   41.23
  -1  -5   9  206.89   29.82
   1  -5  -9  223.74   29.19
  -4  -6   7  229.68   31.31
   4   6  -7  289.13   40.24
   4  -6  -7  252.34   31.48
  -4   6   7  284.13   38.17
   9  -2  -2   43.51   13.26
  -9   2   2   45.81   17.17
   9   2  -2   26.60   13.36
  -9  -2   2   46.72   14.40
  -4   7   0  490.95   63.35
   4   7   0  463.43   58.40
   4  -7   0  481.03   53.14
  -4  -7   0  481.85   57.71
  -7  -5   5   86.34   25.01
  -7   5   5   81.86   25.34
   7  -5  -5   99.97   25.74
   7   5  -5   57.29   23.42
   7   5  -5   88.03   24.73
   3  -3 -11  168.60   52.19
   3   3 -11  126.24   44.36
  -3  -3  11  211.80   32.03
  -1  -3 -10  182.09   25.24
  -1   3 -10  153.47   41.25
   7   3  -9  139.55   37.19
  -7   3   9  159.09   42.08
  -7  -3   9  144.20   38.04
  -8  -3  -1   14.71    7.53
   8  -3   1   16.01    7.64
  -8   3  -1   17.42    7.20
   8   3   1   20.26    9.25
  -8   3  -1   15.69   11.41
   6  -1 -11  185.22   22.85
  -6   1  11  159.02   41.09
   6   1 -11  156.37   39.46
   2  -3 -11  377.71   48.11
   2  -3 -11  364.90   51.41
   2   3 -11  316.51   40.60
   8  -1  -9 1233.13  320.68
  -8   1   9 1142.26  128.40
  -8  -1   9 1095.78  122.08
   8   1  -9 1265.21  328.85
  -8  -1   9 1148.62  129.82
  -9   0   7  215.71   30.04
   9   0  -7  289.51   44.63
   6   3 -10  291.85   40.79
   6  -3 -10  313.69   50.61
  -6   3  10  313.01   40.37
  -6  -3  10  323.06   41.39
  -6  -6   1    4.28    7.52
  -6   6   1    0.86   10.74
   6   6  -1    1.17    6.38
   6  -6  -1    1.62    3.88
   0   2 -11  616.90   75.11
   0  -2 -11  560.93   68.73
   8   4  -5  261.91  115.59
  -8   4   5  512.38   63.57
   8  -4  -5  297.36   35.04
  -8  -4   5  428.43   60.64
   4   6   4   36.96   12.78
  -4   6  -4   29.62   13.67
   4  -6   4   44.23   15.20
  -4  -6  -4   45.98   14.58
  -6  -4   9  147.99   39.03
   6   4  -9  242.16   32.08
  -6   4   9  246.03   33.73
   6   4  -9  222.60   32.90
  -9   0   0  715.65   92.72
   9   0   0  723.12  105.24
  -9   0   0  875.37   97.93
  -6  -6   4  102.47   28.44
   6  -6  -4  100.55   25.44
   6   6  -4   99.32   28.10
   6   6  -4   29.37   22.25
  -6   6   4   86.65   26.65
  -3  -7   5   57.73   19.04
  -3   7   5   76.20   23.17
   3   7  -5   75.20   22.45
   3   0 -12   21.18    6.85
   3   0 -12   22.49    8.38
   3   0 -12   21.02    9.38
  -4   4  -7  515.80   75.25
  -4  -4  -7  572.67   71.38
   4   4   7  610.83   71.34
  -6   2  -6  469.88   65.33
  -6   2  -6  338.46   75.01
   6   2   6  470.68   61.27
  -6  -2  -6  598.20   68.81
  -8   0  -3   66.70   18.93
   8   0   3   92.32   25.20
   4   5  -9  157.59   41.21
  -4  -5   9  190.99   27.60
  -4   5   9  203.85   28.63
  -2  -2 -10  125.50   33.08
  -2   2 -10   72.19   26.93
   8   4  -1  506.38   68.25
  -8  -4   1  542.54   63.67
   8  -4  -1  540.85   65.86
  -8   4   1  564.39   71.07
   4   3 -11  418.28   51.15
  -4  -3  11  472.65   58.26
  -4   3  11  480.67   56.49
   4  -3 -11  320.23   75.68
   7   5   0  173.56   47.91
  -7  -5   0  156.25   41.21
  -7   5   0  119.73   34.49
   7  -5   0  147.12   37.07
   3   4   8  135.63   36.70
  -3  -4  -8  139.39   38.08
  -3   4  -8   91.83   27.08
   7   0   5  136.12   35.64
  -7   0  -5   89.97   30.57
   2  -7   4  268.66   57.29
   2   7   4  396.00   49.36
  -2   7  -4  412.07   54.91
  -2  -7  -4  117.23   32.91
  -9   1   7  325.00   42.72
   9   1  -7  279.55   43.36
  -9  -1   7  302.04   39.67
  -1   0 -11   35.81   11.75
  -1   0 -11  101.82   29.39
   1   6   7   21.08    9.57
  -1  -6  -7   23.17   11.09
   1  -6   7   29.36   11.86
   4  -7  -4  481.72   55.00
  -4   7   4  481.70   60.71
  -4  -7   4  342.05   62.97
   4   7  -4  457.92   57.71
   4   7  -4  523.86   62.58
   2   0 -12   10.84    6.95
   2   0 -12    2.84    4.87
   2   0 -12   10.68    4.65
  -9   2   6  372.31   48.88
  -9  -2   6  386.67   47.22
   9   2  -6  415.75   54.64
  -9  -2   6  428.93   51.82
   9  -2  -6  428.66   48.95
  -7  -2  10  594.87   70.47
   7  -2 -10  618.15   88.26
   7   2 -10  620.59   81.07
   4   0 -12  680.33   74.31
   7  -4  -8   20.04    6.88
  -7  -4   8   20.31    9.09
   7   4  -8   20.51    9.45
  -7   4   8   17.99   10.21
  -9  -1   0  577.36   66.49
  -9   1   0  340.67   48.65
  -9   1   0  553.92   63.69
   9   1   0  486.12   75.53
   9  -1   0  591.86   67.73
  -9   2   1   84.12   26.54
   9   2  -1   87.61   26.36
  -9  -2   1  101.96   27.33
   9  -2  -1  113.11   29.69
   3  -1 -12   97.86   26.16
   3  -1 -12   67.75   20.19
   3   1 -12   45.08   14.20
  -4  -7  -1  538.74   64.04
   4   7   1  497.11   59.22
  -4   7  -1  550.66   70.17
  -3   5  -7  183.22   29.88
  -3  -5  -7   30.95   11.43
   3   5   7  169.62   47.24
  -8   1  -3   64.58   18.49
   8  -1   3   62.12   17.99
   8   1   3   62.32   18.23
  -8   1  -3   53.57   19.15
  -8  -1  -3   40.69   12.79
   1   3 -11   77.49   23.82
   1  -3 -11   70.20   19.86
  -4   5  -6  124.29   34.97
  -4  -5  -6  186.92   26.15
   6   6   0  746.97   86.16
  -6  -6   0  688.30   78.69
  -3  -7  -3  153.51   44.01
   3  -7   3  174.10   48.67
   3   7   3  209.89   29.46
  -3   7  -3  209.96   33.02
  -1  -7  -5  434.03   51.88
   1  -7   5  508.82   61.43
  -1   7  -5  517.96   68.81
   1   7   5  531.49   63.79
   2   6  -8  272.68   37.63
  -2  -6   8  134.84   36.27
  -2   6   8  308.52   39.43
  -6   5  -3  200.91   33.98
  -5   4  -6  276.38   39.30
  -5  -4  -6  284.08   37.58
   5   4   6  233.26   38.63
  -7   1  -5  317.02   48.33
   7   1   5  404.71   48.86
   7  -1   5  331.91   40.83
  -7   1  -5  380.39   46.80
  -7  -1  -5  412.09   49.59
   0  -5  -9  470.66   63.70
   0  -5   9  359.24   45.95
   0   5  -9  358.39   66.20
  -1   1 -11  336.06  138.86
  -1   1 -11  451.41  118.39
  -1  -1 -11  737.70   89.29
   0  -4 -10   90.71   25.09
   0   4 -10   89.10   25.55
   2   1 -12  331.90   41.30
   2  -1 -12  335.56   39.55
   2  -1 -12  338.82   43.22
   2  -1 -12  355.36   45.16
  -7  -5   6  603.35   76.58
   7   5  -6  619.52   83.09
  -7   5   6  589.32   78.84
   7   5  -6  640.39   75.29
   7  -5  -6  331.79   38.04
  -4   3  -8    6.54   10.15
  -4  -3  -8    4.56    7.19
   4   3   8    3.89    6.86
   0  -8   0  558.47   80.87
   0   8   0  650.26   79.94
   4  -1 -12   50.45   13.84
   4   1 -12  137.64   36.29
   4   1 -12  157.57   39.41
   5  -4 -10  707.52   76.72
  -5  -4  10  700.40   82.35
  -5   4  10  712.97   83.31
   5   4 -10  572.69   67.24
   8  -4  -6   46.12   14.04
   8   4  -6   28.46   17.72
  -8  -4   6   55.22   17.00
  -8   4   6   63.63   20.67
   6  -6  -5  195.40   23.68
  -6  -6   5  168.60   43.86
   6   6  -5  171.69   47.36
   6   6  -5  212.51   30.68
  -6   6   5  192.63   29.89
  -1  -6   8  218.75   44.09
   1  -6  -8  262.81   40.78
   1   6  -8  278.48   39.22
   3  -6  -8  154.40   38.83
   3   6  -8  129.36   37.80
  -3   6   8  157.11   41.26
   0   8  -1   18.52   10.13
   0   8   1   20.30    9.87
   0   8   1   22.07   10.75
   0  -8   1   21.39   10.34
   0  -8  -1   21.40    9.98
   8   3  -8   23.19    9.23
   8  -3  -8   21.15    7.40
  -8   3   8   17.06    9.63
  -8  -3   8   22.76    9.78
   6  -2 -11   54.42   16.09
   6   2 -11   29.52    9.25
  -6   2  11   68.64   20.03
   4   0   9    3.49    5.86
  -2  -4  -9  227.44   38.09
   2   4   9  265.73   35.31
  -2   4  -9  239.94   35.40
   8   2  -9  159.94   40.40
   8  -2  -9  186.51   30.57
  -8  -2   9  174.45   48.37
  -8   2   9  176.07   49.46
   2   5   8  218.36   30.24
  -2  -5  -8  149.38   44.40
  -2   5  -8  175.19   53.45
   1   7  -6   61.25   20.06
   1  -7  -6   39.78   13.02
  -1  -7   6   37.02   14.26
   2   7  -6   72.02   22.06
  -2  -7   6   42.63   17.43
  -2   7   6   76.80   22.74
   1   8   0  153.77   41.81
   1  -8   0  149.58   39.43
  -1  -8   0   76.05   21.96
   1   8   0  149.17   39.27
   7   3   4  543.33   65.66
  -7  -3  -4  588.23   67.71
  -7   3  -4  524.48   66.37
   5   3   7  466.25   58.73
  -5   3  -7  420.62   56.21
  -5   3  -7  462.83   62.64
   3   3   9   51.01   16.03
  -3  -3  -9   61.61   19.01
  -3   3  -9   63.63   20.86
   1   8  -1   82.65   25.03
  -1  -8   1   80.46   23.15
   1  -8  -1   82.84   23.55
  -1   8   1   83.15   25.35
  -5   0  -8  197.86   29.67
   5   0   8  202.37   27.81
  -8   4   0   20.51   12.00
  -8  -4   0   24.86    9.63
   8  -4   0   25.95    8.89
  -6   5   8  196.48   28.92
   6   5  -8  175.85   50.20
   6  -5  -8  190.69   24.81
  -6  -5   8  187.58   28.78
   6   5  -8  223.47   30.04
  -5  -6  -3   54.35   16.61
   5   6   3   39.51   13.29
  -5   6  -3   57.36   19.81
   1   0 -12   19.52    8.35
   1   0 -12   15.73    7.88
   9  -3  -4  150.25   37.92
  -9  -3   4  127.85   34.19
  -9   3   4  126.53   35.55
   9   3  -4   39.31   15.56
  -9   3   3  394.93   53.80
   9  -3  -3  463.98   52.92
   9   3  -3  430.70   51.34
   5  -3 -11  235.18   29.45
  -5   3  11  439.34   52.32
  -5  -3  11  298.58   39.24
   5   6  -7  292.10   39.49
  -5  -6   7  282.01   40.29
   5  -6  -7  316.74   36.97
  -5   6   7  309.59   41.10
   5   0 -12   13.67    8.79
  -5   5  -5  184.58   33.19
  -5  -5  -5  233.76   32.19
   9   0  -8    3.72    5.30
  -9   0   8    2.29    7.03
  -4   1  -9   16.44   11.03
  -4   1  -9   95.89   28.04
   4   1   9   90.74   25.30
  -4  -1  -9   76.99   23.15
  -1   8  -1   30.97   13.34
   1   8   1   32.23   12.02
  -1  -8  -1   25.63   10.89
   1  -8   1   32.60   12.30
  -4   7   5  107.79   30.79
  -4  -7   5   82.53   24.16
   4   7  -5   77.99   23.68
   4  -7  -5  105.01   26.45
  -7   5  -1  311.75   44.91
  -7  -5  -1  298.36   37.87
   7   5   1  319.65   40.39
   9   2  -7  463.25   54.09
  -9  -2   7  438.79   53.78
  -9  -2   7  444.54   53.38
  -9   2   7  430.98   55.64
   9  -2  -7  415.56   57.00
  -7  -4  -3    4.94    6.57
  -7   4  -3    2.90    5.40
  -7   4  -3    4.20   10.36
   7   4   3    4.14    6.76
  -5   1  -8   13.61   10.75
  -5  -1  -8    9.88    7.53
   5   1   8   13.48    7.30
  -5   1  -8    5.29    5.85
   0   8   2  281.00   39.37
   0   8   2  207.04   38.57
   0  -8   2  104.97   29.10
   0  -8  -2  132.47   35.22
   1   8  -2   65.10   21.93
  -1   8   2   65.80   22.14
  -1  -8   2   44.74   14.68
   1  -8  -2   57.45   18.02
   5  -5  -9  224.22   32.40
  -5  -5   9  153.99   50.64
   5   5  -9  172.94   47.75
  -5   5   9  200.99   32.35
   9   0   1  276.92   41.07
  -9   0  -1  248.97   37.54
   8  -3   2  128.65   35.85
  -8  -3  -2  124.54   36.20
  -8   3  -2   98.71   31.04
   8   3   2   58.80   18.52
  -8   3  -2   93.93   26.89
  -3   0 -10  300.61   72.60
  -9  -3   5   24.51   10.24
   9  -3  -5   24.45    9.16
   9   3  -5   20.47   10.24
  -9   3   5    8.27    8.89
  -9   2   0  273.22   45.43
   9  -2   0  289.83   42.21
   9   2   0   87.55   28.06
   1  -1 -12   31.24    9.62
   1  -1 -12   31.36   11.72
   1   1 -12   24.38   10.68
   1  -1 -12   38.64   12.84
   4   7   2  218.67   35.17
  -4  -7  -2  197.36   31.17
  -4   7  -2  179.50   52.19
   3   2 -12   35.48   12.46
   3  -2 -12   45.45   13.23
   0  -7  -6  111.51   34.87
   0  -7   6  130.50   38.26
   0   7  -6  137.16   41.57
   0   7   6  124.06   35.66
  -9   3   2   66.56   22.91
   5   7  -2   52.37   17.87
   5  -7  -2   69.22   19.19
  -5  -7   2   54.61   19.06
  -5   7   2   58.82   21.09
  -3  -7   6  279.16   46.55
   3  -7  -6  294.95   40.70
   3   7  -6  257.89   42.59
  -3   7   6  281.04   43.71
  -6   6  -1  144.42   44.67
   6   6   1  221.06   34.38
   7   0 -11  288.08   41.78
  -7   0  11  292.76   43.17
   8  -2   3  230.36   34.63
  -8   2  -3  255.74   43.09
   8   2   3  290.83   42.99
  -8  -2  -3  283.72   42.00
  -8   2  -3  266.25   40.67
   5  -1 -12   58.41   17.13
   5   1 -12   63.20   18.17
  -9   1   8  344.20   51.20
  -9  -1   8  313.55   47.99
   9   1  -8  302.19   50.55
   0  -6   8  166.27   46.75
   0   6  -8  108.68   42.17
   0  -6  -8  128.32   44.00
  -7  -2  -5   56.63   18.95
   7   2   5   69.34   21.26
  -7   2  -5   65.18   19.87
  -7   2  -5   56.71   20.67
   8   0 -10   99.58   27.86
  -8   0  10   85.93   25.73
  -5  -7   1  158.75   50.44
  -5   7   1  214.53   37.72
   5   7  -1  210.86   34.57
   5  -7  -1  213.77   30.26
  -2  -8   1  761.63  105.92
  -2   8   1  852.74  120.57
   2   8  -1  820.52  115.93
   2  -8  -1  673.21  112.17
  -1  -2 -11   14.61    7.11
  -1   2 -11   27.50   12.48
  -5   7   3   23.77   12.58
   5   7  -3   27.67   11.12
  -4  -6   8   79.30   29.59
   4   6  -8  140.94   41.68
  -4   6   8  131.21   37.69
   4  -6  -8  134.93   36.31
   6   4   5  337.94   49.57
  -6  -4  -5  289.39   44.43
  -6   4  -5  234.91   46.58
  -6   4  -5  195.96   30.46
  -6   0  -7  589.43   81.54
   6   0   7  478.79   67.36
   0   3 -11  312.01   49.27
   0  -3 -11  264.36   53.51
   2  -2 -12  237.67   35.52
   2  -2 -12  217.19   33.74
   2   2 -12  122.94   43.19
   2  -2 -12  221.81   31.22
  -3   6  -6  609.36   90.14
   3   6   6  610.32   85.28
   3  -6   6  600.83   84.62
  -3  -6  -6  490.90   85.72
  -9  -1  -1   60.82   18.74
  -9   1  -1   37.05   15.31
  -9   1  -1   51.05   16.09
   9   1   1   62.66   19.39
   4  -2 -12  150.85   40.33
   4   2 -12  115.13   32.91
  -3  -1 -10   90.14   32.01
  -3   1 -10  129.72   36.44
  -3   1 -10  148.62   42.69
  -2  -8   0  502.96   71.01
  -2   8   0  492.08   74.90
   2   8   0  488.06   69.72
   2  -8   0  373.32   74.81
  -6   6   6   16.63   10.84
   6   6  -6   13.55    7.64
  -6  -6   6   11.38    8.25
   6  -6  -6   14.53    5.46
   6   6  -6   12.99    8.12
   8   4  -7  311.23   46.68
   8  -4  -7  182.48   59.07
  -8  -4   7  279.72   42.04
   6   3   6  661.12   93.09
  -6   3  -6  567.54   83.30
  -6  -3  -6  615.42   85.10
  -6   3  -6  647.94   94.71
   7  -1 -11  364.37   63.43
   7   1 -11  414.90   57.02
   1   8   2  371.89   55.68
  -1  -8  -2  349.29   51.43
  -1   8  -2  365.42   56.64
   1  -8   2  321.66   47.95
   2   3  10   90.05   26.80
  -2   3 -10   91.42   27.87
  -2  -3 -10  116.30   33.04
   2   8  -2  122.49   36.37
  -2  -8   2   30.48   13.23
  -2   8   2  117.67   35.56
  -7   5   7  347.98   53.09
   7  -5  -7  546.06   81.84
   7   5  -7  232.25   37.51
  -7  -5   7  274.86   43.46
   7   5  -7  464.31   66.40
  -8  -1  10  489.33   70.05
  -8   1  10  518.03   73.06
   8   1 -10  334.31   91.47
   8  -1 -10  487.60   77.45
   4   6   5   31.15   12.49
  -4  -6  -5   35.42   12.59
  -4   6  -5   34.02   15.79
   2   6   7  331.24   53.19
  -2  -6  -7  279.75   61.66
   2  -6   7  352.74   53.73
   2  -7   5  111.39   33.47
   2   7   5  132.15   39.17
  -2  -7  -5   53.97   17.27
  -2   7  -5  140.12   41.54
   6   1   7  498.68   73.61
  -6  -1  -7  494.50   79.60
  -6   1  -7  574.95   80.31
   1  -5   9  597.50   84.36
   1   5   9  650.30   91.00
  -1  -5  -9  619.35   90.28
  -1   5  -9  510.51   74.71
   1  -8  -3   69.61   24.33
  -1  -8   3   39.59   14.29
  -1   8   3  108.29   32.68
  -9  -3   6  243.51   36.75
   9  -3  -6  237.04   34.50
   9   3  -6  248.08   37.12
  -9  -3   6  203.58   33.55
  -9   3   6  234.50   37.97
   7   3 -10  305.64   46.17
  -7   3  10  223.94   35.08
  -7  -3  10  228.01  111.61
   7  -3 -10  160.08   69.63
  -3   7  -4   56.47   20.75
   3  -7   4   39.95   14.86
  -3  -7  -4   43.93   14.86
   3   7   4   51.00   17.40
  -5  -7   0  658.91   92.89
  -5   7   0  638.64   94.43
   5   7   0  431.57  124.09
   9   3  -1  821.82  126.61
  -9  -3   1  819.47  111.27
   9  -3  -1  877.04  117.58
  -9   3   1  733.75  110.27
   5   7  -4    4.13    6.62
   5   7  -4    3.66    6.08
  -5   7   4    2.08    8.83
   5  -7  -4    2.51    4.03
   2   8   1  248.11   41.40
  -2  -8  -1  278.11   42.10
   2  -8   1  250.14   41.68
  -2   8  -1  290.48   46.99
   0   8   3   58.20   20.17
   0   8  -3   71.49   23.97
   0  -8  -3   44.53   18.00
   0  -8   3   58.05   20.38
   3  -4 -11   90.18   26.59
   3   4 -11   84.18   26.25
  -3  -4  11   94.15   28.48
  -3   4  11  121.05   48.49
  -2   5  10  240.02   36.13
  -1  -4 -10   37.50   13.00
  -1   4 -10   28.88   12.94
   3   5 -10  532.44   79.58
   3  -5 -10  502.92   73.90
  -3  -5  10  521.05   74.00
   7   4  -9  263.72   39.74
   7   4  -9  160.41   43.99
  -7  -4   9  296.14   46.61
  -7   4   9  218.69   34.95
   7  -4  -9  297.17   45.13
   8   4   1  108.74   41.76
  -8   4  -1  360.02   58.25
  -8  -4  -1  300.56   53.78
  -4   2  -9  117.07   41.90
   4   2   9  186.08   30.00
  -4  -2  -9  209.83   32.46
  -4   2  -9  210.42   35.76
  -2  -4  11   53.08   18.22
   2  -4 -11   42.11   12.38
   2   4 -11   38.50   15.07
  -8   0  -4   -0.27    5.57
   8   0   4    0.15    5.57
   6  -4 -10  111.57   30.37
  -6  -4  10   99.41   29.29
   6   4 -10  114.27   32.16
   6   4 -10   43.63   15.00
  -6   4  10  117.38   33.84
   5   2   8  192.42   30.78
  -5   2  -8  146.86   42.74
  -5   2  -8  151.04   43.77
   0   0 -12  120.98   35.85
   0   0 -12   82.41   26.68
   2   8  -3   12.84    9.15
  -2  -8   3   11.15    8.56
  -2   8   3   13.37    9.27
   1  -2 -12  410.92   55.79
   1   2 -12  418.09   61.66
   1  -2 -12  351.59   59.52
  10   0  -4   25.69   10.16
 -10   0   4   28.46   12.82
   1  -7   6  133.06   38.30
  -1  -7  -6  133.19   37.35
   1   7   6  135.38   38.67
  -1   7  -6  124.86   38.17
  -2   0 -11  633.77   91.05
  -6   5  -4   43.32   17.83
   8   5  -3  199.25   31.22
   8  -5  -3  238.31   34.84
  -8  -5   3  245.06   37.57
  -8   5   3  213.69   37.41
   6   0 -12   66.19   18.81
   5  -2 -12   53.23   16.14
   5   2 -12   57.95   17.12
   5   2 -12   52.61   16.86
   4  -7  -6  129.57   34.73
   4   7  -6  143.67   41.04
  -4   7   6  157.38   45.00
  -9  -2   8   79.88   23.80
   9   2  -8   90.85   26.05
  -9   2   8   86.38   26.53
   9  -2  -8   33.15   10.75
  -4   4  11  174.87   48.01
  -4  -4  11  174.02   48.63
   4  -4 -11  203.57   28.83
   6   3 -11  605.38   84.36
  -6   3  11  544.97   78.50
  -6  -3  11  488.76   69.74
   6  -3 -11  638.86   85.92
   6   3 -11  662.72   90.16
   8   5  -4  124.17   35.42
   8  -5  -4  396.54   55.06
  -8   5   4  205.46   37.36
  -8  -5   4  392.08   56.49
  10   0  -3  731.89  117.81
 -10   0   3  537.22   78.86
   8   3  -9  296.43   46.45
  -8  -3   9  263.97   40.22
  -7  -5  -2    1.74    6.00
  -7   5  -2    1.15    4.50
  -7   5  -2    1.31    9.40
   7   5   2   -0.92    6.18
  10   0  -5  945.16  148.51
 -10   0   5  982.04  178.57
   8  -1   4  187.26   31.16
  -8  -1  -4  140.82   39.24
  -8   1  -4  209.88   32.72
   8   1   4  195.75   32.05
   1   5 -10  331.81   54.68
  -1  -5  10  399.01   58.60
   1  -5 -10  374.11   53.82
   0   1 -12  420.83   65.86
   0  -1 -12  220.94   62.16
   0   1 -12  218.42   60.95
  -8  -5   2  314.32   46.36
   8  -5  -2  282.00   42.86
   8   5  -2   98.38   30.72
  -8   5   2  269.46   46.68
  -7   6   3  293.37   47.69
  -7  -6   3  275.27   45.65
   7   6  -3  263.15   39.54
   7  -6  -3  332.88   46.04
  -9   2  -1   31.90   14.68
   9   2   1   29.84   11.76
  -9  -2  -1   32.07   11.52
   9  -2   1   34.30   12.24
   4   5 -10  112.36   32.63
  -4  -5  10  138.04   39.38
   4  -5 -10  125.29   35.39
  -4   5  10  152.01   42.50
  -6   6  -2  380.63   60.63
   6   6   2  423.92   60.78
  -3   2 -10   15.25    9.97
   3   2  10   12.68    8.00
  -3  -2 -10   16.97    8.66
  -4  -7  -3  223.98   38.01
  -4   7  -3  256.06   42.53
   4   7   3  175.72   57.56
   7  -6  -2   58.61   16.75
  -7  -6   2   82.89   25.11
   7   6  -2   76.77   23.32
   1   8   3   31.82   12.81
  -1  -8  -3   11.98    7.77
  -1   8  -3   42.19   16.92
   1  -8   3   20.21   10.51
   2   7  -7  455.08   67.64
  -2   7   7  462.48   66.64
  -2  -7   7  388.85   62.38
 -10   1   4  349.58   53.83
  10   1  -4  412.90   94.56
 -10  -1   4  415.63   76.68
  10  -1  -4  402.72   89.38
  -3   8   1  199.79   35.26
   3  -8  -1  196.17   28.37
   3   8  -1  186.64   30.37
  -3  -8   1  169.35   51.84
  -2   1 -11  312.65   47.88
  -2   1 -11  336.48   48.18
  -2  -1 -11  268.77   47.97
   9   0  -9   48.31   14.80
  -9   0   9   49.64   16.68
   6  -1 -12   82.66   24.34
   6   1 -12   84.37   23.69
  -5   6  -4  109.21   34.39
  -5  -6  -4  123.42   34.88
   5   6   4   59.38   19.02
   1  -6   8  290.10   44.57
   1   6   8  301.13   45.37
  -1  -6  -8  150.57   41.89
  -7   2  11  213.42   33.13
   7  -2 -11  234.30   33.77
   7   2 -11  222.35   32.48
  -7  -2  11  199.69   32.11
  -2   8  -2  303.29   48.55
   2   8   2  313.46   47.02
  -2  -8  -2  135.23   38.81
   2  -8   2  276.70   51.49
   1  -4 -11  119.55   33.58
   1   4 -11  111.83   32.78
  -5   7  -1   20.41   12.69
   5   7   1   15.28    8.89
  -5  -7  -1   13.95    8.52
  -3  -8   2  643.58   89.37
   3  -8  -2  736.02   97.54
  -3   8   2  771.36  109.26
   1   7  -7   40.45   15.71
  -1  -7   7   40.45   15.21
   7   0   6  401.81   81.96
  -7   0  -6  193.86   41.65
  10   1  -3  240.23   52.35
  10  -1  -3  270.43   55.61
 -10   1   3  234.85   51.38
  -7   6   4   48.69   18.60
  -7  -6   4   48.30   16.70
   7  -6  -4   42.28   12.53
   7   6  -4   46.55   15.72
   5   7  -5  126.25   36.65
   5  -7  -5  128.66   34.48
  -5   7   5  128.30   37.89
  -5   6   8  366.68   54.35
  -5  -6   8  271.12   67.50
   5   6  -8  313.63   47.38
   5  -6  -8  228.45   64.25
  -8  -2  10  423.56   86.45
   8   2 -10  333.33   82.57
   8  -2 -10  391.51   91.10
 -10  -1   5  316.52   66.20
  10  -1  -5  294.70   69.92
  10   1  -5  262.52   61.17
 -10   1   5  321.51   67.74
  -9   3   7  315.67   67.00
  -9  -3   7  338.01   69.71
   9   3  -7  245.19   65.07
   9  -3  -7  143.36   29.66
   9   0   2  530.63  108.50
  -9   0  -2  569.79  114.26
   6   2   7  293.71   60.96
  -6   2  -7  316.24   66.52
  -6   2  -7  380.46   80.71
  -6  -2  -7  384.77   81.74
  -3  -8   0 1166.93  230.68
  -3   8   0 1139.34  228.84
   3   8   0 1116.59  235.53
  -1  -8   4  118.88   26.43
   1   8  -4  115.01   27.26
   1  -8  -4  104.51   23.74
  -8  -5   5 1028.93  213.38
   8   5  -5 1234.41  266.35
   8  -5  -5 1287.53  194.08
   8   5  -5 1490.28  227.54
  -4   4  -8  224.72   55.97
   4   4   8  260.90   57.29
  -4  -4  -8  143.19   29.57
  -6   5   9   13.13    7.76
   6  -5  -9    5.20    3.96
   6   5  -9    8.82    6.65
  -6  -5   9   13.25    8.01
   2   6  -9   39.46   13.12
  -2   6   9   45.65   12.34
  -2  -6   9   48.75   14.58
 -10   0   2   76.26   19.61
  10   0  -2   98.30   22.40
  -9   3   0  122.41   29.20
   9   3   0  184.56   40.79
  -9  -3   0  172.67   37.24
   9  -3   0  189.71   40.24
  -6  -6   7  155.16   32.30
   6   6  -7  151.73   32.78
   6  -6  -7  170.28   35.17
   6   6  -7  144.99   31.58
  -6   6   7  168.79   38.15
   3   3 -12   18.18    8.57
   3  -3 -12   14.26    4.56
  10   0  -6   70.36   15.84
 -10   0   6   69.47   17.63
   4   5   7  327.73   68.03
  -4  -5  -7  368.80   75.30
  -4   5  -7  328.34   71.05
   9   1  -9   58.75   13.67
  -9  -1   9   54.09   14.31
  -9   1   9   60.78   16.06
   9  -1  -9   43.15   12.27
  -7  -6   1  203.19   43.56
   7   6  -1  114.97   40.99
   3  -7  -7  101.48   19.75
  -3  -7   7   44.31   13.78
  -3   7   7  123.09   27.02
   3   7  -7   98.95   24.03
  -8  -3  -3  342.47   70.61
  -8   3  -3  323.86   67.13
   8   3   3  334.42   69.29
  -8   3  -3  300.22   65.73
   3   6  -9  156.15   34.35
  -3   6   9  183.03   39.77
   8  -5  -1  105.80   21.30
  -8  -5   1   96.95   21.78
   8   5  -1   42.15   12.35
  -8   5   1  102.67   25.81
   8  -4  -8  155.78   31.08
   8   4  -8   97.31   29.04
  -8  -4   8  133.56   28.49
  -8   4   8  140.09   30.29
  -3   5  -8  277.81   60.75
   3   5   8  291.99   61.25
  -3  -5  -8  286.61   60.28
  -7  -1  -6    6.54    6.44
  -7   1  -6    7.40    6.02
   7   1   6    7.26    6.11
   0  -8  -4  102.03   22.83
   0   8   4  131.31   28.21
   0  -8   4  107.11   25.72
   0   8  -4  134.75   30.77
   2   8  -4  303.30   65.70
  -2   8   4  313.19   66.34
  -2  -8   4  279.56   60.91
  -7   3  -5 1111.86  234.53
  -7  -3  -5  993.10  235.57
   7   3   5 1302.55  200.95
  -7   3  -5  966.61  213.58
   7   4   4    7.25    7.21
  -7  -4  -4    3.12    5.94
  -7   4  -4    5.89   10.02
  -7   4  -4    4.25    4.76
  -9  -1  -2    6.59    5.24
   9  -1   2   12.75    6.48
   9   1   2   10.35    6.73
  -9   1  -2   10.63    5.57
   3   8  -3    7.21    7.88
  -3  -8   3    5.12    7.58
   3  -8  -3    5.95    3.69
  -3   8   3    6.46    8.70
  -1  -3 -11  234.34   56.84
  -1   3 -11  237.63   51.91
  -5   4  -7  470.53   97.98
   5   4   7  447.82   91.69
  -5  -4  -7  309.97   84.65
  -3  -4  -9  128.61   29.05
   3   4   9  563.49  114.05
  -3   4  -9  270.42   59.22
   2  -3 -12   46.50   10.41
   2  -3 -12   44.13   13.08
   2   3 -12   38.46   13.78
  10   1  -2  376.70   77.09
 -10   1   2  369.39   77.70
  10  -1  -2  261.90   65.09
   4  -3 -12    5.41    3.87
   4   3 -12    8.88    6.69
   7   5  -8  821.66  164.36
  -7   5   8  761.12  152.59
  -7  -5   8  716.88  150.87
   7  -5  -8  778.09  152.67
   7   5  -8  943.15  187.52
  -1  -6   9   10.78    8.22
   1   6  -9   10.75    8.34
   9  -4  -4  122.78   24.24
   9   4  -4  131.24   27.80
  -9  -4   4  119.96   25.64
  -9   4   4  102.81   25.52
  -9  -4   3  529.32  107.98
   9   4  -3  627.37  127.30
  -9   4   3  316.67   68.93
   9  -4  -3  514.53  106.90
 -10  -1   6  271.08   57.02
 -10   1   6  179.97   40.06
  10  -1  -6  300.98   61.34
   5  -4 -11  315.53   73.40
   5   4 -11  206.14   56.39
  -5   4  11  319.40   65.73
  -5  -4  11  312.37   65.09
  -7   6   5  145.05   32.61
   7   6  -5  114.21   28.65
  -7  -6   5  113.44   30.25
   7   6  -5  140.74   37.18
   7  -6  -5  101.50   19.94
   0  -7  -7  151.41   30.77
   0   7  -7  145.32   33.19
   0  -7   7  111.60   29.15
  -3  -8  -1   72.61   18.01
  -3   8  -1  136.10   31.72
   3   8   1  162.58   36.06
  -5  -5  -6  212.20   46.48
  -5   5  -6  192.93   44.18
   5   5   6  175.34   39.56
  -8   2  -4   14.03   10.76
  -8  -2  -4   12.89    7.12
  -8   2  -4   12.04    6.42
   8   2   4   15.51    7.65
   0  -5 -10  410.41   85.57
   0  -5  10  207.27   46.14
   0   5 -10  368.88   77.73
   0  -2 -12  179.69   53.52
   0  -2 -12  267.46   53.84
   0   2 -12  242.62   55.45
   8   4   2  109.92   23.89
  -8  -4  -2  105.23   22.54
  -8   4  -2   84.57   23.33
   3   0 -13  107.10   24.35
   3   0 -13  176.08   50.61
  -9  -4   5   92.15   21.04
  -9   4   5   76.87   21.53
   9   4  -5  101.48   23.98
   9  -4  -5  106.38   21.37
  -5   5  10   93.05   21.06
  -5  -5  10   89.63   20.98
   5   5 -10   76.85   17.91
   8   5  -6  290.20   60.52
  -8  -5   6  262.26   54.92
  -8   5   6  238.09   52.38
   8   5  -6  230.11   55.18
   8  -5  -6  298.08   59.80
  -9  -4   2  164.03   35.66
  -9   4   2  181.25   42.14
   9  -4  -2  186.04   39.94
   9   4  -2  199.10   48.45
  10  -2  -4  180.71   38.61
 -10   2   4  282.37   62.62
  -2   2 -11  110.65   23.37
  -2  -2 -11  108.91   23.28
  -2   2 -11  100.29   23.25
   6   2 -12  217.06   45.01
   6  -2 -12   86.15   47.09
  -6   2  12  205.01   43.45
  10   0  -1  218.64   46.17
  -4  -6   9  446.66   95.74
  -4   6   9  515.10  104.26
   4   6  -9  406.65  111.86
   4  -6  -9  469.11  110.85
   4   0 -13   54.95   14.28
   4   0 -13   31.42   11.43
   3   7   5  489.42  107.10
  -3   7  -5  522.43  111.03
  -3  -7  -5  471.56   95.15
   3  -7   5  412.46   94.47
  -7   6   0   72.58   20.73
  -7  -6   0   60.27   16.70
   7   6   0   79.36   18.83
  -4   3  -9  447.33   92.90
  -4   3  -9  264.61   74.70
   4   3   9  376.72   80.34
  -4  -3  -9  284.18   86.49
   2   5   9  429.15   89.35
  -2  -5  -9  516.30  136.19
  -2   5  -9  493.84  137.09
  -2  -8  -3  132.99   28.50
   2   8   3  150.18   31.48
  -2   8  -3  152.43   34.12
   2  -8   3  120.65   26.53
  10  -2  -3  417.58   94.33
  10   2  -3  282.60  108.40
 -10  -2   3  541.11  108.70
 -10   2   3  350.56   74.19
 -10   0   7  300.04   64.90
  -8   0  11   43.75   12.71
   8   0 -11   31.71   10.32
  10  -2  -5   65.45   15.19
 -10   2   5   57.89   16.71
  10   2  -5   46.16   17.71
  -2   7  -6  510.70  107.10
   2   7   6  518.20  104.90
  -2  -7  -6  264.32   84.31
   2  -7   6  478.85   98.41
  -5  -7  -2  400.32   81.56
   5   7   2  376.05   82.81
  -5   7  -2  400.57   85.52
   5   3   8  397.01   82.27
  -5   3  -8  430.56   90.50
  -5   3  -8  393.85   81.29
  -5  -3  -8  376.61   82.31
   0   4 -11   29.07   13.39
   0  -4 -11   66.28   15.75
   1   8   4  260.93   56.12
   1  -8   4  252.80   53.94
  -1   8  -4  261.55   57.77
  -1  -8  -4  222.59   56.50
  -6  -7   2   36.40   13.04
   6   7  -2   36.78   11.50
   6  -7  -2   29.47    7.49
  -6   7   2   40.77   15.57
  -3  -8   4   43.71   14.07
   3   8  -4  116.76   26.69
   3  -8  -4   99.70   20.43
  -3   8   4  109.77   25.74
   3   1 -13   95.10   24.18
   3  -1 -13  101.76   25.52
   3  -1 -13  152.53   30.53
   3  -1 -13  151.70   30.99
   8   5   0  375.76   82.36
  -8   5   0  359.50   77.79
  -8  -5   0  201.88   43.04
   5   7  -6  131.79   31.47
  -5   7   6  152.27   32.80
  -5  -7   6  126.38   29.88
   5  -7  -6  126.86   27.76
   6  -7  -3  108.59   21.39
  -6   7   3  100.36   25.25
  -6  -7   3   92.70   21.36
   6   7  -3   91.19   20.51
   2   0 -13   30.45    9.32
   2   0 -13   28.67    9.48
   1  -3 -12   54.92   11.69
   1  -3 -12   60.72   14.75
   1   3 -12   62.49   16.99
  -4   7   7  114.70   25.70
   4  -7  -7  114.55   22.13
   4   7  -7  114.83   25.79
  -1   0 -12  118.39   27.16
  -3   6  -7    2.64    9.80
  -3  -6  -7    2.43    5.92
   9   2  -9  179.49   39.29
  -9   2   9  185.26   40.88
  -9  -2   9  177.27   38.08
 -10  -1   1  229.36   47.92
 -10   1   1  216.13   49.45
  10  -1  -1  251.84   54.53
  10   1  -1  260.27   55.06
  -6   4  -6  203.83   46.20
  -6   4  -6  148.21   32.09
   6   4   6  199.55   43.00
  -5   3  12  423.28   85.65
   5  -3 -12  444.48   87.97
   5   3 -12  399.63   83.86
  -5  -3  12  364.24   75.28
  -2   4 -10  404.57  100.71
  -2  -4 -10  443.24  106.93
   2   4  10  479.25   97.61
   4   1 -13   38.01   12.34
   4  -1 -13   42.74   10.30
  -4  -6  -6  426.49   86.92
  -4   6  -6  319.29   78.41
   4   6   6  391.50   81.52
  -9   3   8  270.41   58.22
   9  -3  -8  301.74   61.20
  -9  -3   8  208.34   44.49
   9   3  -8  124.75   61.97
  -7  -2  -6  124.22   26.98
   7   2   6  133.88   28.07
  -7   2  -6  102.90   22.06
  -7   2  -6  127.37   30.54
  -6   6  -3   43.76   16.40
   6   6   3   47.80   13.50
  10   1  -7    9.90    6.35
  10  -1  -7   10.95    5.85
 -10   1   7   12.54    8.73
 -10  -1   7    5.64    6.52
   0  -6   9  179.60   39.94
   0  -6  -9  309.14   63.79
   8   1 -11  342.12   73.54
  -8   1  11  343.53   70.41
   8  -1 -11  348.13   75.03
   7   0 -12    3.27    4.81
  -7   5  -3  100.29   21.08
  -7  -5  -3  115.91   24.94
  -7   5  -3  108.21   27.17
   9   2   2   22.45    8.74
   9  -2   2   24.82    8.44
  -9  -2  -2   25.52    8.99
  -9   2  -2   21.19   11.84
  -6   7   1  264.70   58.84
   6   7  -1  256.53   60.80
   1   8  -5  128.19   29.70
  -1  -8   5   47.37   14.29
  -5   0  -9  132.05   35.42
   7   6  -6  145.87   31.12
   7   6  -6  146.55   33.19
  -7  -6   6  166.23   36.42
  -7   6   6  172.24   39.12
   7  -6  -6  174.15   35.92
  -9  -4   6  280.68   58.49
  -9   4   6  265.81   58.02
   9  -4  -6  119.44   27.06
   9   4  -6  288.11   61.22
  -4  -7  -4  137.08   28.76
  -4   7  -4  139.67   31.90
   4   7   4  113.99   29.00
   9   3   1  251.58   52.64
  -9   3  -1  187.68   44.71
  -9  -3  -1  222.00   47.63
   7   4 -10   45.37   12.54
  -7   4  10   28.85   10.52
  -7  -4  10   22.16    8.71
   7   4 -10   52.24   13.13
  10  -2  -2  129.39   28.69
 -10  -2   2  142.31   30.64
 -10   2   2   91.20   21.06
  10   2  -2  101.63   26.70
  -3   3 -10   53.12   16.04
  -3  -3 -10    9.77    7.58
   3   3  10   60.72   15.59
   3   8   2  438.37   95.22
  -3   8  -2  492.03  102.97
  -3  -8  -2  474.46   97.07
   2  -1 -13   33.72    7.48
   2  -1 -13   36.39   10.19
   2  -1 -13   25.34    8.57
   2   1 -13   30.76    9.79
  -4   8   2  135.73   31.24
   4   8  -2  110.32   26.92
   4  -8  -2  135.13   25.50
  -4  -8   2   84.88   26.64
   9  -4  -1  367.89   72.54
  -9  -4   1  328.61   65.83
  -9   4   1  384.17   81.48
  -1   1 -12  275.08   57.07
  -1  -1 -12  231.93   57.01
  -1   1 -12  279.46   58.02
   6  -7  -4    2.17    2.98
  -6  -7   4    2.92    7.17
   6   7  -4    0.37    6.05
  -6   7   4    2.85    9.26
   4   8  -1  196.86   41.80
  -4  -8   1  277.20   59.81
  -4   8   1  316.66   66.69
   2   8  -5  164.71   37.17
  -2  -8   5  147.89   34.21
 -10   2   6   94.36   20.89
  10  -2  -6   79.14   15.17
 -10  -2   6   94.80   19.29
  10   2  -6   86.70   19.09
  -7   3  11   56.64   13.82
   7   3 -11   55.92   12.06
   7  -3 -11   14.06    4.97
  -7  -3  11   46.39   12.49
   5   0 -13  248.27   58.57
   2  -6   8   93.78   20.11
  -2  -6  -8  115.75   26.12
  -2   6  -8  119.62   29.44
  -8  -3  10   15.04    7.65
  -8   3  10   15.62    8.75
   8   3 -10   14.48    6.70
  -7   1  12   55.70   13.01
   7   1 -12   74.40   14.98
   7  -1 -12   40.89   17.29
  -1   7  -7  251.74   55.60
   1   7   7  181.85   39.02
  -1  -7  -7  226.03   46.84
   1  -7   7   91.25   20.41
   6   5   5   72.96   19.14
  -6   5  -5   88.76   21.94
  -6   3  -7   59.24   17.01
  -6  -3  -7   59.66   13.96
  -6   3  -7   36.09   11.33
   6   3   7   70.45   15.68
   5   1   9  161.38   34.60
  -5   1  -9   66.91   30.53
  -5  -1  -9   40.54   18.07
   0   8  -5    9.79    9.43
   0  -8  -5   12.19    7.27
   0   8   5    9.51    7.91
   0  -8   5   11.34    8.54
   9   0 -10   56.21   11.83
  -9   0  10   59.02   14.40
   4  -8  -3  241.90   47.24
  -4  -8   3  197.28   61.70
  -4   8   3  307.28   64.56
   6  -6  -8  131.84   46.49
   6   6  -8  204.17   44.00
  -6   6   8  228.33   48.02
  -6  -6   8  189.62   43.28
   8   0   5  494.56   97.10
  -8   0  -5  227.18   47.09
  -4  -1 -10   27.51   10.15
  -4   1 -10   16.97    8.35
   4   1  10   27.44    9.11
  -4  -8   0  102.11   25.59
   4   8   0  114.47   26.10
  -4   8   0  130.30   31.94
  -6   0  -8  123.84   27.26
  -8   5   7  114.89   30.86
  -8  -5   7  173.79   37.13
   8  -5  -7  160.80   35.11
   8   5  -7  137.70   30.00
   8   5  -7  130.38   36.35
   5   1 -13   82.66   17.17
   5   1 -13   77.28   14.36
   5  -1 -13   94.73   16.69
   5   6   5  462.50   94.26
  -5   6  -5  436.89   90.31
  -5  -6  -5  230.08   84.75
  -9   0  -3  416.58   85.39
   9   0   3  415.59   82.05
   6  -4 -11   57.86   11.54
   6   4 -11   39.18   12.49
  -6   4  11   46.84   12.04
  -6  -4  11   59.05   14.59
  -6   7   0  192.36   43.81
   6   7   0  118.73   42.90
   2   7  -8   63.61   15.87
  -2  -7   8   53.48   15.27
   8   4  -9   19.25    8.17
  -8  -4   9   23.39    8.77
   8  -4  -9   23.73    6.82
  -8   4   9   20.41    9.86
  10   0   0   45.12   11.99
   7   6   1  127.38   28.19
  -7   6  -1  125.78   31.93
  -7  -6  -1  121.72   29.04
   1   0 -13   77.34   20.72
   1   0 -13  102.32   20.26
   5  -6  -9  383.21   74.30
   5   6  -9  667.04  135.23
  -5  -6   9  613.06  125.58
  -5   6   9  785.75  152.79
   9   1 -10  299.10   60.66
   9  -1 -10  743.70  151.15
  -9  -1  10  773.11  149.63
  -9   1  10  771.78  149.85
   3  -2 -13  263.25   51.45
   3   2 -13  211.96   45.66
  10   0  -8  157.88   38.51
 -10   0   8  137.78   35.16
   8   1   5   67.87   14.82
  -8  -1  -5   74.25   17.50
  -8   1  -5   50.13   11.88
   3  -8  -5  174.84   34.73
  -3  -8   5  174.44   37.66
  -3   8   5  182.22   40.08
   3   8  -5  170.54   38.39
  -3   0 -11  392.36   77.41
  -6  -7   5  149.89   32.80
   6   7  -5  149.87   33.98
   6  -7  -5   80.13   14.07
  -6   7   5  160.70   36.62
  -6   1  -8  208.64   52.29
   6   1   8  262.92   53.69
  -6  -1  -8   80.93   24.95
  -3  -5  11  240.68   54.70
   3  -5 -11  325.80   63.43
  -3   5  11  333.33   66.54
   3   5 -11  353.81   72.97
   1   7  -8    3.62    8.02
  -1  -7   8    1.93    8.16
  10   2  -1  345.26   81.63
  10  -2  -1  337.88   69.37
 -10  -2   1  331.10   66.18
 -10   2   1  303.93   64.01
  -1   5 -10  160.03   35.68
  -1  -5 -10   46.56   14.60
  -3  -7   8  229.47   51.45
  -3   7   8  288.36   59.02
   3   7  -8  145.37   33.10
   3  -7  -8  233.96   51.00
   4   2 -13   73.66   22.31
   4  -2 -13   93.15   22.31
  -7  -5   9  130.62   30.09
   7   5  -9  149.59   33.02
  -7   5   9  155.46   34.29
   7  -5  -9  164.33   32.96
   7   5  -9  121.22   28.85
  -8   5  -1   30.90   13.78
  -8  -5  -1   25.23    9.03
   8   5   1   27.83    9.87
  -9   1  -3  131.62   28.55
  -9  -1  -3  121.24   26.76
   9  -1   3  116.61   26.11
   9   1   3  116.05   27.47
   2  -5 -11   27.97    8.81
  -2  -5  11   27.67   10.30
 -10  -1   0  156.89   33.26
  10   1   0  158.08   35.00
  10  -1   0  192.82   40.18
  10   2  -7  149.04   32.11
 -10  -2   7  133.45   29.65
 -10   2   7  156.29   34.90
  10  -2  -7  134.67   29.04
   1   1 -13  224.37   47.67
   1  -1 -13  144.07   49.16
   1   1 -13  235.44   48.12
  -2   8  -4  140.48   33.46
  -2  -8  -4   71.79   22.79
   2  -8   4  121.64   28.99
   2   8   4  132.20   29.90
   8  -2 -11  141.83   75.40
   8   2 -11  355.79   72.35
   9   4  -7  598.13  116.77
  -9   4   7  509.36  102.60
  -9  -4   7  499.72  101.50
   9  -4  -7  496.46  102.60
   8   3   4  404.65   80.30
  -8  -3  -4  467.71   91.96
  -8   3  -4  327.00   69.31
  -8   3  -4  428.87   85.82
   6  -5 -10   97.41   19.44
  -6   5  10  111.83   25.88
  -6  -5  10  111.20   25.76
   6   5 -10   91.29   19.09
   4  -8  -4  145.71   29.19
  -4  -8   4  129.92   30.41
  -4   8   4  151.84   35.14
   0  -3 -12  249.88   50.86
   0   3 -12  206.59   44.60
  -9   4   0  166.63   38.39
  -9  -4   0  104.66   20.12
   9   4   0  116.99   35.53
 -10  -1   8  252.85   51.86
  10   1  -8  214.40   46.52
 -10   1   8  239.45   50.10
   2  -2 -13  163.72   36.95
   2  -2 -13  156.21   31.16
   2   2 -13  185.43   39.37
  -5  -7  -3   35.00   10.85
   5   7   3   32.57   11.37
  -1  -2 -12   23.05    8.22
  -1   2 -12   18.21    8.00
  -1   2 -12   18.10    9.04
   3  -4 -12   15.19    6.99
  -3  -4  12   19.52    8.76
   3   4 -12   21.63    9.70
  10   3  -4  269.67   61.07
  10  -3  -4  129.95   28.64
 -10   3   4  289.01   60.76
 -10  -3   4  227.49   46.97
  -3  -1 -11   27.87    9.11
  -3   1 -11    6.23    5.67
  -4  -8  -1  108.94   30.18
  -4   8  -1  141.72   33.68
   4   8   1   89.16   19.84
  -2  -3 -11  299.84   60.32
  -2   3 -11  275.01   57.48
  -6   3  12  160.62   34.18
  -6  -3  12  136.03   30.46
   6  -3 -12  142.06   29.99
  -5   7   7  119.58   27.92
   5   7  -7  122.38   28.27
   5  -7  -7  129.55   26.18
  -5  -7   7   93.96   22.01
  -8   4  -3  403.55   85.18
   8   4   3  411.17   89.85
  -8  -4  -3  377.67   81.61
   7   6  -7  146.35   34.28
  -7   6   7  171.77   37.92
   7   6  -7  106.82   25.28
  -7  -6   7  140.37   30.96
   7  -6  -7  175.97   35.17
  -4  -5  11  151.71   33.53
   4  -5 -11  135.28   30.22
   4   5 -11  149.43   32.80
  -4   5  11  173.34   36.55
   3   8   3   45.39   12.62
  -3   8  -3   49.92   15.95
  -3  -8  -3   32.82   11.36
   1  -8   5   37.38   11.90
  -1  -8  -5   67.21   15.26
  -1   8  -5   79.36   20.04
   1   8   5   82.63   18.35
  10  -3  -3   20.28    6.82
 -10   3   3   21.33   11.11
 -10  -3   3   16.27    7.63
  -7   4  -5   26.37   12.79
  -7  -4  -5   28.79    9.88
  -7   4  -5   22.79    7.70
   7   4   5   31.58   10.55
  10   3  -5   27.69   10.75
 -10  -3   5   24.41    8.72
 -10   3   5   17.75    9.62
  10  -3  -5   30.74    8.42
  -7   2  12  267.14   54.16
  -7  -2  12  271.49   55.92
   7   2 -12  263.15   52.23
   7  -2 -12   65.39   15.81
  -1  -4 -11   55.00   12.85
  -1   4 -11   29.57   12.89
  -5   2  -9   79.28   16.29
   5   2   9   87.59   18.33
  -5   2  -9   83.22   20.40
   2   4 -12   86.23   28.93
   2  -4 -12  123.47   26.06
   1  -6   9  242.41   50.84
  -1   6  -9  238.28   51.19
  -1  -6  -9   75.46   18.78
   6   0 -13  313.70   61.81
   4  -4 -12  318.91   68.49
  -4   4  12  396.07   78.59
  -4  -4  12  271.93   56.08
   4   2  10  110.04   25.21
  -4   2 -10  109.17   34.81
  -4  -2 -10   94.32   21.41
  -4   2 -10   96.91   23.43
   9   3  -9   21.89    9.17
   9  -3  -9   16.27    8.77
  -9  -3   9   24.99    8.85
  -9   3   9   32.24   11.60
  -6   7  -1   93.50   22.84
   6   7   1   61.23   18.60
   2   6 -10    5.30    7.92
  -2  -6  10    1.23    7.65
   3   6 -10   60.96   16.68
  -3  -6  10   67.83   16.31
  -3   6  10   70.20   15.25
  -7   0  -7   10.95    6.29
   5  -2 -13   59.24   12.25
   5   2 -13   60.64   13.97
  -1  -5  11  107.26   22.56
   1   5 -11  110.93   26.18
   0   7  -8  262.41   56.43
   0  -7   8  269.25   55.80
   0  -7  -8  231.57   47.46
   7   3   6   68.43   15.44
  -7   3  -6   64.15   18.17
  -7   3  -6   62.91   14.32
  -7  -3  -6   59.01   13.72
  -1  -8   6   98.50   22.87
   1   8  -6  121.83   29.40
   2   8  -6  208.19   45.39
  -2  -8   6   93.49   31.62
  -9  -3  -2   13.06    6.47
  -9   3  -2   13.90   11.85
   9   3   2   15.29    7.69
   4   7  -8   34.17   12.81
   4  -7  -8   66.98   12.25
  -4   7   8   61.22   15.03
   3   7   6    0.83    6.86
  -3  -7  -6    0.84    5.34
   3  -7   6    3.34    7.84
  -3   7  -6   -0.79    8.91
  -4  -5  -8  156.96   33.46
  -4   5  -8  165.58   40.79
   4   5   8  187.90   40.13
   9   2 -10   28.40    8.82
  -9   2  10   37.57   12.11
   9  -2 -10   32.43    8.21
   6  -1 -13   27.36    7.90
   6   1 -13   29.40    7.51
  10  -3  -2   75.23   15.04
 -10   3   2   64.90   17.69
 -10  -3   2   75.50   15.89
  10   3  -2   52.92   17.67
   8   2   5  971.64  291.84
  -8  -2  -5  737.37  151.00
  -8   2  -5  732.88  176.83
  -6  -7   6   33.57   10.96
   6   7  -6   44.60   12.81
   6  -7  -6   42.15    8.55
  -6   7   6   38.27   12.65
 -10   3   6   96.75   21.57
  10  -3  -6  106.96   19.11
  10   3  -6  111.43   25.36
   6   6   4  114.88   26.23
  -6   6  -4  104.48   24.48
  -8  -6   3   61.20   15.06
   8  -6  -3   70.04   13.39
   8   6  -3   13.40    8.54
  -6  -2  -8   41.64   14.50
   6   2   8   63.99   14.79
  -6   2  -8   29.86    9.35
   7   1   7  154.12   33.63
  -7   1  -7  130.80   30.65
  -7  -1  -7  144.91   34.99
   8   5  -8   28.30   10.42
   8   5  -8   17.91    7.68
  -8   5   8   23.97   10.55
  -8  -5   8   27.32    9.48
   8  -5  -8   25.19    6.86
   9   2   3  121.40   40.93
  -9   2  -3   67.70   22.89
  -9   2  -3   88.95   32.05
  -9  -2  -3   71.00   23.71
   4   4   9  439.83   88.21
  -4  -4  -9   74.13   29.57
  -4   4  -9  375.19   82.82
  -8  -6   4   42.59   12.34
   8   6  -4   45.77   12.16
   8  -6  -4   44.35    9.29
  -8   6   4   45.15   15.46
 -10   2   0   93.33   32.71
 -10  -2   0  109.32   34.86
  10   2   0   48.17   17.69
  10  -2   0  103.04   33.66
  -4  -8   5  287.06   58.60
   4  -8  -5  299.24   58.07
   4   8  -5  271.50   57.40
  -4   8   5  308.54   64.04
   1  -2 -13   48.11   16.01
   1  -2 -13   28.79   11.29
   1   2 -13   65.73   24.27
  -7   6  -2  138.18   48.39
  -7  -6  -2  113.16   40.70
   7   6   2  145.96   50.50
  -4  -7  -5   21.73   10.74
   4   7   5   33.24   14.29
   4  -7   5   39.32   15.64
   7   5   4  189.00   63.71
  -7  -5  -4  183.68   62.01
  -7   5  -4  159.23   52.57
  -7   5  -4  206.99   70.12
  -2  -7  -7   71.76   25.49
  -2   7  -7   90.99   32.06
   2   7   7   89.32   30.25
   2  -7   7   49.88   18.64
  -5  -5  -7  230.30   75.20
  -5   5  -7  201.38   68.37
   5   5   7  226.11   74.46
  -1  -6  10  449.58  144.96
   1   6 -10  212.61   97.71
  -3   5  -9    5.84    9.89
  -3  -5  -9    1.33    6.27
   3   5   9    2.29    7.35
   0   0 -13    1.99    5.94
   0   0 -13    0.36    7.69
  -5  -4  -8  199.06   65.12
  -5   4  -8  223.73   74.88
   5   4   8  199.91   65.85
  -5   4  -8  172.92   58.79
  10   0   1  103.65   33.67
   8   6  -2   41.21   27.59
  -8   6   2   72.37   27.21
  -8  -6   2  101.71   34.80
   0  -9   0    0.98    7.34
  -2   0 -12   64.63   26.37
  -4   6  10  206.51   67.74
   4   6 -10  211.38   71.30
  -4  -6  10  128.79   48.26
 -10   2   8   72.66   25.76
  10  -2  -8   78.10   26.14
  10   2  -8   81.10   28.83
 -10  -2   8   93.70   30.61
   1   4 -12  357.27  119.85
   1  -4 -12  429.73  138.56
   9   5  -4  303.49  127.45
   9  -5  -4  607.36  193.55
  -9   5   4  546.58  176.97
  -9  -5   4  374.39  120.65
   4   8   2  401.89  140.98
  -4  -8  -2  501.43  161.12
  -4   8  -2  550.07  178.10
   9  -5  -3 1018.28  323.10
  -9  -5   3  956.98  305.08
   9   5  -3  461.20  228.81
  -9   5   3  939.15  301.60
   0   8  -6   79.18   28.48
   0  -8  -6   55.28   19.46
   0  -8   6   70.08   24.68
  -3   2 -11   44.52   18.28
  -3  -2 -11   36.88   14.20
  -5   8   2  205.68   69.20
  -5  -8   2  195.07   67.83
   5   8  -2  235.98   78.83
   5   5 -11  201.14   92.00
  -5  -5  11  482.81  155.27
   5  -5 -11  477.80  165.95
  -5   5  11  522.45  167.28
   3   8  -6  109.14   36.25
   3  -8  -6  103.33   32.37
  -3   8   6   82.22   28.24
  -3  -8   6   92.75   33.07
   5  -4 -12    1.11    4.86
   5   4 -12    2.03    6.59
  -5  -4  12    0.94    7.50
  -5   4  12    3.30    6.68
  10   0  -9  521.19  166.58
 -10   0   9  313.90  110.75
   0  -9   1  315.87  102.84
   0  -9  -1  265.16   87.79
   0   9  -1  347.78  113.82
   9   4  -8  147.44   63.20
   9  -4  -8  269.82   86.47
  -9  -4   8  184.32   63.76
   8   0 -12  171.42   56.53
  -8   0  12  177.83   58.50
   5   8  -1  194.34   65.86
  -5  -8   1  211.45   69.55
  -5   8   1  207.57   69.85
   1  -9   0   25.64   11.72
  -1   9   0   25.47   13.31
  -1  -9   0   20.86   10.78
  -5   8   3  233.21   77.78
  -5  -8   3  218.15   71.65
   5  -8  -3  161.70   52.01
   5   8  -3  125.69   42.48
   0  -1 -13    0.77    5.74
   0   1 -13    2.93    8.58
   0   1 -13    0.58    6.08
  -1  -9   1    6.39    8.22
  10   1   1  220.75   72.80
 -10  -1  -1  217.61   71.90
  10  -1   1  217.92   72.18
   8   6  -5  120.92   42.89
  -8  -6   5  129.32   44.29
  -8   6   5  131.09   45.76
   8  -6  -5  156.21   50.98
  -9  -4  -1   37.30   14.18
   9   4   1   32.90   13.98
  -9   4  -1   38.63   17.55
  -6  -6   9  330.10  113.09
   6   6  -9  286.85  100.38
  -6   6   9  404.78  130.61
   6  -6  -9  388.73  128.28
  -8   5  -2  200.45   68.07
  -8  -5  -2  219.18   71.51
  -2  -1 -12   44.25   18.33
  -2   1 -12  180.71   59.57
   3   3 -13   15.66    9.64
   3  -3 -13   40.95   13.49
   3   4  10  145.10   48.65
  -3  -4 -10  116.87   44.77
  -3   4 -10  116.92   44.44
   9  -5  -5  635.07  201.72
  -9   5   5  662.69  212.92
   9   5  -5  583.19  197.19
  -9  -5   5  563.98  183.03
   9   5  -2  125.15   42.06
  -9   5   2   67.42   25.17
  -9  -5   2  146.50   48.87
  -4  -6  -7  115.13   39.00
  -4   6  -7  109.67   38.32
 -10   3   1  108.55   37.08
  10  -3  -1  133.51   44.29
  10   3  -1  128.04   43.31
 -10  -3   1  116.24   39.48
   7   4 -11   85.89   28.80
  -7  -4  11   82.23   27.87
   7  -4 -11   89.40   28.18
  -7   4  11   90.29   30.23
 -10   1   9  291.69   94.77
  10   1  -9  265.13   85.44
 -10  -1   9  232.44   78.26
   4   3 -13   23.64   10.60
   4  -3 -13   23.27    8.60
  -8   6   1  454.61  147.96
  -8  -6   1  531.08  170.05
   8   6  -1  605.22  193.31
  -3   6  -8   33.23   15.90
  -3  -6  -8   37.26   14.55
  -1   9  -1  243.27   80.90
   1  -9   1  108.53   35.46
  -1  -9  -1  125.49   42.48
  -9   0  11  675.44  215.58
   9   0 -11  913.59  300.42
 -10   3   7   19.32   10.88
  10   3  -7   20.60   10.67
  10  -3  -7   19.64    8.22
   8   4 -10  397.19  127.37
   8  -4 -10  322.65  110.79
  -8  -4  10  374.07  120.73
  -8   4  10  388.49  125.63
   8   1 -12   33.59   12.19
   8  -1 -12   29.18   10.66
   8   3 -11   39.28   18.24
  -8  -3  11   52.49   19.19
  -8   3  11   68.84   23.75
   8  -3 -11   48.06   18.09
   2   8   5  108.12   42.94
  -2   8  -5  209.53   70.68
   2  -8   5  187.18   62.17
  -2  -8  -5  188.37   62.00
   6   4   7  402.54  129.55
  -6   4  -7  435.27  143.04
  -6   4  -7  270.34  102.66
   0   5 -11  181.31   62.06
   0  -5 -11  474.47  152.94
   0  -9  -2   33.66   16.11
   0   9  -2   63.02   23.68
   0  -9   2   51.24   18.78
  -1  -9   2  554.56  177.69
  -7  -7   3  180.76   65.22
   7   7  -3  206.22   76.67
  -7   7   3  251.46   84.39
   6   2 -13   41.96   15.58
   6  -2 -13   33.05   12.96
   6   7   2  142.13   47.86
  -6  -7  -2  123.30   41.90
  -7   6   8  112.61   37.26
  -7  -6   8   75.21   26.71
   7   6  -8   52.16   22.73
   7  -6  -8   56.32   18.05
   3   8   4  387.02  125.40
  -3  -8  -4  314.08  104.98
  -3   8  -4  359.44  118.27
   2  -3 -13   79.14   24.93
   2   3 -13   85.99   29.27
   5   8   0   60.17   21.36
  -5  -8   0   49.23   18.79
  -5   8   0   52.24   21.48
  -1   3 -12   65.59   23.67
  -1  -3 -12   47.76   19.88
  -7  -7   2   72.74   26.75
   7   7  -2   81.34   27.61
  -7   7   2   68.84   25.54
   5  -8  -4  166.18   53.40
  -5   8   4  251.03   83.16
  -5  -8   4  161.31   53.82
  -9   0  -4  771.68  246.30
   9   0   4  800.76  256.63
  -5  -7  -4  266.75   90.68
   5   7   4  373.77  120.73
  -1  -7  -8   69.30   23.64
  -1   7  -8   44.98   18.23
   1  -7   8   65.79   24.25
   1   7   8   82.00   28.21
  -6   5  -6  103.63   35.96
   6   5   6   80.02   28.03
   2   5  10   38.95   15.40
  -2  -5 -10   26.25   11.76
  -2   5 -10   33.35   15.37
  -7  -2  -7   36.56   13.97
  -7   2  -7   18.22   10.19
   7   2   7   36.93   14.14
   9   1 -11   77.97   25.80
   9  -1 -11   82.99   28.23
  -9   1  11   83.58   27.92
  -9  -1  11   62.64   21.47
  -7   7   4  229.16   76.29
   7  -7  -4  214.06   69.31
  -7  -7   4  104.96   34.53
   7   7  -4  157.44   59.50
  -5  -7   8  199.45   65.83
   5   7  -8  214.33   70.93
  -5   7   8  209.25   69.08
   5  -7  -8  157.37   55.81
  -5  -6  -6  305.69   98.86
  -5   6  -6  264.69   88.74
   7   3 -12  102.33   33.84
   7  -3 -12   61.41   25.62
  -7  -3  12  104.56   34.37
  -7   3  12  101.04   32.92
  -2   9   1    2.94    9.42
  -2  -9   1    3.16    8.14
  11   0  -4  162.84   54.08
 -11   0   4  136.64   46.56
   0  -6  10   48.37   18.68
   0  -6 -10   41.55   15.82
  -5   3  -9  287.83   94.95
   5   3   9  398.81  128.85
  -5  -3  -9  410.95  132.21
  -5   3  -9   90.57   35.35
   9  -5  -6   87.78   27.60
  -9  -5   6  110.79   35.79
   9   5  -6   50.33   19.36
 -11   0   5  735.35  237.12
  11   0  -5  868.13  276.13
  -7  -5  10  282.70   92.22
   7   5 -10  191.13   71.02
  -7   5  10  317.15  102.94
   7  -5 -10  245.16   83.65
   2   7  -9   47.42   18.42
  -2  -7   9   31.36   13.92
  -2  -9   0  880.52  288.33
  -2   9   0  997.20  319.24
   7   0 -13   59.40   19.41
  -5   6  10  483.78  155.28
   5   6 -10  447.33  148.11
  -5  -6  10  412.14  134.03
   5  -6 -10  477.88  154.45
   8  -6  -6  556.84  177.13
   8   6  -6  451.42  144.93
  -8  -6   6  494.89  159.20
  -8   6   6  548.58  176.51
   9   5  -1   89.20   33.46
  -9   5   1  342.82  112.57
  -9  -5   1  321.93  104.99
   6  -7  -7   51.01   16.42
   6   7  -7   80.36   28.71
  -6  -7   7   70.21   25.31
  -6   7   7   90.52   30.90
  -4  -3 -10   13.90    8.20
  -4   3 -10   13.89    7.96
  -4   3 -10   11.01   10.60
   4   3  10   15.53    8.88
  -1   8  -6  523.13  172.01
   1  -8   6  484.26  155.87
  -1  -8  -6  400.70  133.72
   1   8   6  437.47  149.59
   9   1   4  136.81   47.92
  -9   1  -4  127.53   45.20
  -9  -1  -4  123.37   42.57
  -8   0  -6    0.57    6.15
   7   7  -1  661.00  215.63
  -7  -7   1  446.98  162.26
  -7   7   1  687.66  221.72
  -1  -9  -2   42.04   16.00
  -1   9  -2   71.00   25.79
   1  -9   2   69.83   25.10
   4  -8  -6   27.79    9.64
  -4   8   6   32.90   14.22
   4   8  -6   33.64   14.48
  -4  -8   6   36.82   14.79
   3   7  -9  120.44   41.30
   3  -7  -9  112.32   35.28
  -2  -9   2   37.85   16.33
  -2   9   2   55.60   21.33
   5  -3 -13   14.21    6.19
   5   3 -13   11.71    7.53
  -2   6  -9   77.15   29.41
  -2  -6  -9   95.27   31.78
  11   0  -3  606.21  193.48
  -8   4  -4  683.84  220.25
   8   4   4  517.08  180.52
  -8  -4  -4  361.30  117.97
  11  -1  -4  171.07   56.73
 -11   1   4  311.17  103.44
  11   1  -4  274.08   97.14
   3   0 -14   36.63   13.50
   3   0 -14   37.55   14.35
   0  -2 -13   10.69    7.01
   0   2 -13   23.08   11.80
   0   2 -13   19.70   10.12
   0   4 -12    0.84    7.32
   0  -4 -12    0.73    5.93
 -10   2  -1   89.46   31.55
  10   2   1   80.93   28.64
 -10  -2  -1   73.07   24.47
   4   0 -14  252.84   82.16
   1   9  -3  126.44   44.32
  -1  -9   3  116.12   39.85
  11  -1  -5  145.82   48.38
  11   1  -5   64.18   34.67
 -11   1   5  118.08   40.67
   9   3 -10   86.92   28.10
  -2  -2 -12    8.76    7.42
  -2   2 -12    6.64    8.33
  -2   2 -12    9.26    7.04
   8   6   0  152.43   52.92
  -8  -6   0  181.87   59.92
   4   8   3  572.25  200.69
  -4  -8  -3  496.51  183.01
  -4   8  -3  773.78  249.17
   7   1 -13   73.96   23.80
   7  -1 -13   84.56   34.73
   1   7  -9  508.58  174.74
  -1  -7   9  509.83  170.79
  -2  -8   7    0.83    7.20
   2   8  -7    1.64    8.27
;
_shelx_hkl_checksum              72212
loop_
_space_group_symop_id
_space_group_symop_operation_xyz
1 +X,+Y,+Z
2 -X,1/2+Y,-Z
loop_
_atom_site_label
_atom_site_type_symbol
_atom_site_fract_x
_atom_site_fract_y
_atom_site_fract_z
_atom_site_U_iso_or_equiv
_atom_site_adp_type
_atom_site_occupancy
_atom_site_site_symmetry_order
_atom_site_calc_flag
_atom_site_refinement_flags_posn
_atom_site_refinement_flags_adp
_atom_site_refinement_flags_occupancy
_atom_site_disorder_assembly
_atom_site_disorder_group
S2 S 0.83580(10) 0.68474(12) 0.27542(8) 0.0207(3) Uani 1 1 d . . . . .
O1 O 0.6206(3) 0.7335(4) 0.0132(2) 0.0240(7) Uani 1 1 d . . . . .
O2 O 0.8605(3) 0.5424(4) 0.2038(3) 0.0276(7) Uani 1 1 d . . . . .
O3 O 0.8589(3) 0.6636(4) 0.4024(2) 0.0251(7) Uani 1 1 d . . . . .
O4 O 0.4007(3) 0.7820(4) 0.2112(2) 0.0228(7) Uani 1 1 d . . . . .
N2 N 0.6491(3) 0.7398(4) 0.2189(3) 0.0191(8) Uani 1 1 d . . . . .
C1 C 0.5690(4) 0.7540(5) 0.0967(3) 0.0210(9) Uani 1 1 d . . . . .
C3 C 0.5516(4) 0.7888(5) 0.2952(4) 0.0215(9) Uani 1 1 d . . . . .
H3 H 0.5617 0.6971 0.3584 0.026 Uiso 1 1 calc R U . . .
C5 C 0.4060(4) 0.8018(5) 0.0890(3) 0.0200(9) Uani 1 1 d . . . . .
H5 H 0.3849 0.9261 0.0624 0.024 Uiso 1 1 calc R U . . .
C6 C 0.9377(4) 0.8678(6) 0.2508(3) 0.0194(9) Uani 1 1 d . . . . .
C7 C 0.9957(4) 0.8690(6) 0.1532(4) 0.0209(9) Uani 1 1 d . . . . .
H7 H 0.9802 0.7713 0.1003 0.025 Uiso 1 1 calc R U . . .
C8 C 1.0759(4) 1.0133(6) 0.1341(3) 0.0217(9) Uani 1 1 d . . . . .
H8 H 1.1172 1.0132 0.0687 0.026 Uiso 1 1 calc R U . . .
C9 C 1.0970(4) 1.1594(6) 0.2100(4) 0.0209(9) Uani 1 1 d . . . . .
C10 C 1.0375(4) 1.1548(6) 0.3077(3) 0.0222(9) Uani 1 1 d . . . . .
H10 H 1.0515 1.2530 0.3600 0.027 Uiso 1 1 calc R U . . .
C11 C 0.9595(4) 1.0113(5) 0.3291(3) 0.0202(9) Uani 1 1 d . . . . .
H11 H 0.9210 1.0095 0.3960 0.024 Uiso 1 1 calc R U . . .
C12 C 1.1797(5) 1.3185(6) 0.1865(4) 0.0247(9) Uani 1 1 d . . . . .
H12A H 1.2085 1.3004 0.1130 0.030 Uiso 1 1 calc R U . . .
H12B H 1.2721 1.3381 0.2552 0.030 Uiso 1 1 calc R U . . .
H12C H 1.1125 1.4206 0.1758 0.030 Uiso 1 1 calc R U . . .
C13 C 0.5932(4) 0.9641(5) 0.3560(4) 0.0206(9) Uani 1 1 d . . . . .
C14 C 0.6552(5) 0.9719(6) 0.4823(4) 0.0228(9) Uani 1 1 d . . . . .
H14 H 0.6665 0.8678 0.5288 0.027 Uiso 1 1 calc R U . . .
C15 C 0.7005(5) 1.1323(6) 0.5401(4) 0.0260(10) Uani 1 1 d . . . . .
H15 H 0.7420 1.1370 0.6257 0.031 Uiso 1 1 calc R U . . .
C16 C 0.6849(5) 1.2844(6) 0.4727(4) 0.0278(10) Uani 1 1 d . . . . .
H16 H 0.7173 1.3930 0.5119 0.033 Uiso 1 1 calc R U . . .
C17 C 0.6213(5) 1.2776(6) 0.3467(4) 0.0282(10) Uani 1 1 d . . . . .
H17 H 0.6090 1.3819 0.3004 0.034 Uiso 1 1 calc R U . . .
C18 C 0.5762(5) 1.1181(5) 0.2896(4) 0.0224(9) Uani 1 1 d . . . . .
H18 H 0.5332 1.1142 0.2041 0.027 Uiso 1 1 calc R U . . .
C19 C 0.2884(4) 0.6828(6) 0.0047(3) 0.0249(9) Uani 1 1 d . . . . .
H19A H 0.2918 0.6974 -0.0781 0.030 Uiso 1 1 calc R U . . .
H19B H 0.1861 0.7131 0.0077 0.030 Uiso 1 1 calc R U . . .
H19C H 0.3113 0.5610 0.0299 0.030 Uiso 1 1 calc R U . . .
loop_
_atom_site_aniso_label
_atom_site_aniso_U_11
_atom_site_aniso_U_22
_atom_site_aniso_U_33
_atom_site_aniso_U_23
_atom_site_aniso_U_13
_atom_site_aniso_U_12
S2 0.0196(5) 0.0190(5) 0.0235(5) 0.0015(4) 0.0069(4) 0.0020(4)
O1 0.0271(15) 0.0282(17) 0.0184(14) -0.0023(12) 0.0093(12) -0.0040(12)
O2 0.0270(15) 0.0216(15) 0.0381(17) -0.0003(14) 0.0157(13) 0.0031(13)
O3 0.0249(14) 0.0268(17) 0.0236(15) 0.0087(14) 0.0074(11) 0.0036(14)
O4 0.0182(13) 0.0303(17) 0.0202(15) -0.0046(13) 0.0066(11) -0.0044(13)
N2 0.0165(16) 0.0215(19) 0.0191(17) -0.0009(14) 0.0052(13) 0.0011(13)
C1 0.024(2) 0.017(2) 0.021(2) -0.0004(18) 0.0046(17) -0.0029(18)
C3 0.022(2) 0.023(2) 0.022(2) -0.0002(18) 0.0098(17) -0.0023(18)
C5 0.021(2) 0.021(2) 0.017(2) -0.0014(17) 0.0057(16) -0.0012(17)
C6 0.0133(18) 0.021(2) 0.021(2) 0.0049(17) 0.0005(15) 0.0031(16)
C7 0.021(2) 0.022(2) 0.019(2) -0.0002(17) 0.0035(16) 0.0045(17)
C8 0.0192(19) 0.027(2) 0.018(2) 0.0016(18) 0.0054(16) 0.0040(18)
C9 0.0147(18) 0.026(2) 0.0206(19) 0.0016(18) 0.0030(15) 0.0038(18)
C10 0.0189(19) 0.027(2) 0.020(2) -0.0024(19) 0.0047(15) 0.0005(18)
C11 0.0168(18) 0.026(2) 0.0178(19) -0.0003(18) 0.0050(15) 0.0008(17)
C12 0.023(2) 0.028(2) 0.025(2) -0.001(2) 0.0088(18) 0.0018(19)
C13 0.0183(19) 0.022(2) 0.024(2) -0.0029(19) 0.0095(17) -0.0017(17)
C14 0.0244(19) 0.026(2) 0.018(2) 0.0010(19) 0.0058(16) 0.0029(18)
C15 0.025(2) 0.032(2) 0.022(2) -0.0077(19) 0.0079(18) 0.0007(19)
C16 0.024(2) 0.023(2) 0.035(3) -0.009(2) 0.0086(19) -0.0045(19)
C17 0.028(2) 0.026(2) 0.030(2) 0.000(2) 0.0081(19) -0.0004(19)
C18 0.021(2) 0.023(2) 0.022(2) -0.0001(18) 0.0058(17) -0.0013(17)
C19 0.0219(19) 0.026(2) 0.026(2) -0.007(2) 0.0062(16) -0.004(2)
loop_
_atom_type_symbol
_atom_type_description
_atom_type_scat_dispersion_real
_atom_type_scat_dispersion_imag
_atom_type_scat_source
C C 0.0033 0.0016
;
International Tables for Crystallography
(Vol. C, Tables 4.2.6.8 and 6.1.1.4)
;
H H 0.0000 0.0000
;
International Tables for Crystallography
(Vol. C, Table 6.1.1.4)
;
O O 0.0106 0.0060
;
International Tables for Crystallography
(Vol. C, Tables 4.2.6.8 and 6.1.1.4)
;
S S 0.1246 0.1234
;
International Tables for Crystallography
(Vol. C, Tables 4.2.6.8 and 6.1.1.4)
;
N N 0.0061 0.0033
;
International Tables for Crystallography
(Vol. C, Tables 4.2.6.8 and 6.1.1.4)
;
loop_
_geom_angle_atom_site_label_1
_geom_angle_atom_site_label_2
_geom_angle_atom_site_label_3
_geom_angle
_geom_angle_site_symmetry_1
_geom_angle_site_symmetry_3
O2 S2 O3 120.96(18) . .
O2 S2 N2 106.78(17) . .
O3 S2 N2 103.65(15) . .
O2 S2 C6 108.78(17) . .
O3 S2 C6 110.01(18) . .
N2 S2 C6 105.45(17) . .
C3 O4 C5 110.3(3) . .
C1 N2 C3 111.4(3) . .
C1 N2 S2 124.7(2) . .
C3 N2 S2 123.8(2) . .
O1 C1 N2 126.4(4) . .
O1 C1 C5 127.4(4) . .
N2 C1 C5 106.2(3) . .
O4 C3 N2 102.7(3) . .
O4 C3 C13 113.8(3) . .
N2 C3 C13 113.0(3) . .
O4 C3 H3 109.0 . .
N2 C3 H3 109.0 . .
C13 C3 H3 109.0 . .
O4 C5 C1 104.6(3) . .
O4 C5 C19 109.8(3) . .
C1 C5 C19 112.7(3) . .
O4 C5 H5 109.9 . .
C1 C5 H5 109.9 . .
C19 C5 H5 109.9 . .
C7 C6 C11 120.7(4) . .
C7 C6 S2 119.7(3) . .
C11 C6 S2 119.6(3) . .
C8 C7 C6 119.6(4) . .
C8 C7 H7 120.2 . .
C6 C7 H7 120.2 . .
C7 C8 C9 120.8(4) . .
C7 C8 H8 119.6 . .
C9 C8 H8 119.6 . .
C8 C9 C10 118.5(4) . .
C8 C9 C12 120.7(3) . .
C10 C9 C12 120.8(4) . .
C11 C10 C9 121.5(4) . .
C11 C10 H10 119.3 . .
C9 C10 H10 119.3 . .
C10 C11 C6 119.0(3) . .
C10 C11 H11 120.5 . .
C6 C11 H11 120.5 . .
C9 C12 H12A 109.5 . .
C9 C12 H12B 109.5 . .
H12A C12 H12B 109.5 . .
C9 C12 H12C 109.5 . .
H12A C12 H12C 109.5 . .
H12B C12 H12C 109.5 . .
C18 C13 C14 119.0(4) . .
C18 C13 C3 121.6(3) . .
C14 C13 C3 119.3(4) . .
C15 C14 C13 120.2(4) . .
C15 C14 H14 119.9 . .
C13 C14 H14 119.9 . .
C16 C15 C14 120.2(3) . .
C16 C15 H15 119.9 . .
C14 C15 H15 119.9 . .
C15 C16 C17 119.8(4) . .
C15 C16 H16 120.1 . .
C17 C16 H16 120.1 . .
C18 C17 C16 119.9(4) . .
C18 C17 H17 120.0 . .
C16 C17 H17 120.0 . .
C17 C18 C13 120.8(4) . .
C17 C18 H18 119.6 . .
C13 C18 H18 119.6 . .
C5 C19 H19A 109.5 . .
C5 C19 H19B 109.5 . .
H19A C19 H19B 109.5 . .
C5 C19 H19C 109.5 . .
H19A C19 H19C 109.5 . .
H19B C19 H19C 109.5 . .
loop_
_geom_bond_atom_site_label_1
_geom_bond_atom_site_label_2
_geom_bond_distance
_geom_bond_site_symmetry_2
S2 O2 1.431(3) .
S2 O3 1.435(3) .
S2 N2 1.689(3) .
S2 C6 1.757(4) .
O1 C1 1.217(4) .
O4 C3 1.427(5) .
O4 C5 1.446(4) .
N2 C1 1.387(5) .
N2 C3 1.493(5) .
C1 C5 1.517(5) .
C3 C13 1.509(6) .
C3 H3 1.0000 .
C5 C19 1.516(5) .
C5 H5 1.0000 .
C6 C7 1.398(5) .
C6 C11 1.401(5) .
C7 C8 1.383(6) .
C7 H7 0.9500 .
C8 C9 1.400(6) .
C8 H8 0.9500 .
C9 C10 1.408(5) .
C9 C12 1.505(6) .
C10 C11 1.376(6) .
C10 H10 0.9500 .
C11 H11 0.9500 .
C12 H12A 0.9800 .
C12 H12B 0.9800 .
C12 H12C 0.9800 .
C13 C18 1.390(6) .
C13 C14 1.403(5) .
C14 C15 1.399(6) .
C14 H14 0.9500 .
C15 C16 1.385(6) .
C15 H15 0.9500 .
C16 C17 1.400(6) .
C16 H16 0.9500 .
C17 C18 1.390(6) .
C17 H17 0.9500 .
C18 H18 0.9500 .
C19 H19A 0.9800 .
C19 H19B 0.9800 .
C19 H19C 0.9800 .
loop_
_geom_torsion_atom_site_label_1
_geom_torsion_atom_site_label_2
_geom_torsion_atom_site_label_3
_geom_torsion_atom_site_label_4
_geom_torsion
_geom_torsion_site_symmetry_1
_geom_torsion_site_symmetry_2
_geom_torsion_site_symmetry_3
_geom_torsion_site_symmetry_4
O2 S2 N2 C1 -43.4(3) . . . .
O3 S2 N2 C1 -172.2(3) . . . .
C6 S2 N2 C1 72.2(3) . . . .
O2 S2 N2 C3 140.1(3) . . . .
O3 S2 N2 C3 11.3(4) . . . .
C6 S2 N2 C3 -104.3(3) . . . .
C3 N2 C1 O1 175.1(4) . . . .
S2 N2 C1 O1 -1.8(6) . . . .
C3 N2 C1 C5 -4.3(4) . . . .
S2 N2 C1 C5 178.8(3) . . . .
C5 O4 C3 N2 -22.6(4) . . . .
C5 O4 C3 C13 99.9(3) . . . .
C1 N2 C3 O4 16.4(4) . . . .
S2 N2 C3 O4 -166.6(3) . . . .
C1 N2 C3 C13 -106.6(4) . . . .
S2 N2 C3 C13 70.3(4) . . . .
C3 O4 C5 C1 20.6(4) . . . .
C3 O4 C5 C19 141.7(3) . . . .
O1 C1 C5 O4 171.1(4) . . . .
N2 C1 C5 O4 -9.4(4) . . . .
O1 C1 C5 C19 52.0(6) . . . .
N2 C1 C5 C19 -128.6(3) . . . .
O2 S2 C6 C7 14.0(4) . . . .
O3 S2 C6 C7 148.6(3) . . . .
N2 S2 C6 C7 -100.2(3) . . . .
O2 S2 C6 C11 -166.1(3) . . . .
O3 S2 C6 C11 -31.5(4) . . . .
N2 S2 C6 C11 79.6(3) . . . .
C11 C6 C7 C8 0.2(6) . . . .
S2 C6 C7 C8 -180.0(3) . . . .
C6 C7 C8 C9 -1.3(6) . . . .
C7 C8 C9 C10 1.3(5) . . . .
C7 C8 C9 C12 -177.9(4) . . . .
C8 C9 C10 C11 -0.3(5) . . . .
C12 C9 C10 C11 178.9(4) . . . .
C9 C10 C11 C6 -0.7(6) . . . .
C7 C6 C11 C10 0.8(5) . . . .
S2 C6 C11 C10 -179.0(3) . . . .
O4 C3 C13 C18 -52.1(5) . . . .
N2 C3 C13 C18 64.5(5) . . . .
O4 C3 C13 C14 130.0(4) . . . .
N2 C3 C13 C14 -113.4(4) . . . .
C18 C13 C14 C15 -0.6(6) . . . .
C3 C13 C14 C15 177.4(4) . . . .
C13 C14 C15 C16 -0.3(6) . . . .
C14 C15 C16 C17 1.1(6) . . . .
C15 C16 C17 C18 -1.0(6) . . . .
C16 C17 C18 C13 0.1(6) . . . .
C14 C13 C18 C17 0.7(6) . . . .
C3 C13 C18 C17 -177.2(4) . . . .
