#------------------------------------------------------------------------------
#$Date: 2022-09-14 01:11:29 +0300 (Wed, 14 Sep 2022) $
#$Revision: 277815 $
#$URL: file:///home/coder/svn-repositories/cod/cif/1/56/76/1567636.cif $
#------------------------------------------------------------------------------
#
# This file is available in the Crystallography Open Database (COD),
# http://www.crystallography.net/
#
# All data on this site have been placed in the public domain by the
# contributors.
#
data_1567636
loop_
_publ_author_name
'Zhang, Jian-Xin'
'Yang, Peng-Fei'
'Shu, Wei'
_publ_section_title
;
 Access to Dialkylated Allylic Stereogenic Centers by Ni-Catalysed
 Enantioselective Hydrovinylation of Unactivated Alkenes
;
_journal_name_full               'Chemical Science'
_journal_paper_doi               10.1039/D2SC04350E
_journal_year                    2022
_chemical_absolute_configuration ad
_chemical_formula_moiety         'C17 H19 N O S'
_chemical_formula_sum            'C17 H19 N O S'
_chemical_formula_weight         285.39
_space_group_crystal_system      monoclinic
_space_group_IT_number           4
_space_group_name_Hall           'P 2yb'
_space_group_name_H-M_alt        'P 1 21 1'
_atom_sites_solution_hydrogens   geom
_atom_sites_solution_primary     dual
_audit_creation_date             2021-12-30
_audit_creation_method
;
Olex2 1.3
(compiled 2020.11.12 svn.r5f609507 for OlexSys, GUI svn.r6408)
;
_audit_update_record
;
2021-12-31 deposited with the CCDC.	2022-09-13 downloaded from the CCDC.
;
_cell_angle_alpha                90
_cell_angle_beta                 108.871(5)
_cell_angle_gamma                90
_cell_formula_units_Z            2
_cell_length_a                   8.8663(14)
_cell_length_b                   8.7930(14)
_cell_length_c                   10.1594(16)
_cell_measurement_reflns_used    9809
_cell_measurement_temperature    100
_cell_measurement_theta_max      68.44
_cell_measurement_theta_min      4.60
_cell_volume                     749.5(2)
_computing_cell_refinement       'SAINT V8.40A (Bruker, 2019)'
_computing_data_reduction        'SAINT V8.40A (Bruker, 2019)'
_computing_molecular_graphics    'Olex2 1.3 (Dolomanov et al., 2009)'
_computing_publication_material  'Olex2 1.3 (Dolomanov et al., 2009)'
_computing_structure_refinement  'XL  (Sheldrick, 2008)'
_computing_structure_solution    'SHELXT 2014/5 (Sheldrick, 2014)'
_diffrn_ambient_temperature      100
_diffrn_detector                 'Bruker PHOTON 100 area detector'
_diffrn_detector_area_resol_mean 7.9
_diffrn_detector_type            'CMOS area detector'
_diffrn_measured_fraction_theta_full 0.999
_diffrn_measured_fraction_theta_max 0.994
_diffrn_measurement_device       'three-circle diffractometer'
_diffrn_measurement_device_type  'Bruker CMOS area detector'
_diffrn_measurement_method       '\w and \f scans'
_diffrn_radiation_monochromator  'mirror optics'
_diffrn_radiation_probe          x-ray
_diffrn_radiation_type           CuK\a
_diffrn_radiation_wavelength     1.54178
_diffrn_reflns_av_R_equivalents  0.0341
_diffrn_reflns_av_unetI/netI     0.0297
_diffrn_reflns_Laue_measured_fraction_full 0.999
_diffrn_reflns_Laue_measured_fraction_max 0.994
_diffrn_reflns_limit_h_max       10
_diffrn_reflns_limit_h_min       -10
_diffrn_reflns_limit_k_max       10
_diffrn_reflns_limit_k_min       -10
_diffrn_reflns_limit_l_max       12
_diffrn_reflns_limit_l_min       -12
_diffrn_reflns_number            11797
_diffrn_reflns_point_group_measured_fraction_full 0.997
_diffrn_reflns_point_group_measured_fraction_max 0.990
_diffrn_reflns_theta_full        67.679
_diffrn_reflns_theta_max         68.437
_diffrn_reflns_theta_min         4.599
_diffrn_source                   'microfocus sealed X-ray tube'
_diffrn_source_current           1.0
_diffrn_source_power             0.05
_diffrn_source_type              'Incoatec I\ms'
_diffrn_source_voltage           50.0
_diffrn_standards_number         0
_exptl_absorpt_coefficient_mu    1.865
_exptl_absorpt_correction_T_max  0.7531
_exptl_absorpt_correction_T_min  0.6483
_exptl_absorpt_correction_type   multi-scan
_exptl_absorpt_process_details
;
SADABS-2016/2 (Bruker,2016/2) was used for absorption correction.
wR2(int) was 0.0775 before and 0.0500 after correction.
The Ratio of minimum to maximum transmission is 0.8608.
The \l/2 correction factor is Not present.
;
_exptl_crystal_colour            colourless
_exptl_crystal_colour_primary    colourless
_exptl_crystal_density_diffrn    1.265
_exptl_crystal_description       prism
_exptl_crystal_F_000             304
_exptl_crystal_size_max          0.42
_exptl_crystal_size_mid          0.42
_exptl_crystal_size_min          0.38
_refine_diff_density_max         0.246
_refine_diff_density_min         -0.181
_refine_diff_density_rms         0.049
_refine_ls_abs_structure_details
;
 Flack x determined using 1245 quotients [(I+)-(I-)]/[(I+)+(I-)]
 (Parsons, Flack and Wagner, Acta Cryst. B69 (2013) 249-259).
;
_refine_ls_abs_structure_Flack   -0.001(7)
_refine_ls_extinction_coef       0.0257(19)
_refine_ls_extinction_expression Fc^*^=kFc[1+0.001xFc^2^\l^3^/sin(2\q)]^-1/4^
_refine_ls_extinction_method     'SHELXL-2018/3 (Sheldrick 2018)'
_refine_ls_goodness_of_fit_ref   1.062
_refine_ls_hydrogen_treatment    constr
_refine_ls_matrix_type           full
_refine_ls_number_parameters     183
_refine_ls_number_reflns         2740
_refine_ls_number_restraints     1
_refine_ls_restrained_S_all      1.062
_refine_ls_R_factor_all          0.0262
_refine_ls_R_factor_gt           0.0261
_refine_ls_shift/su_max          0.000
_refine_ls_shift/su_mean         0.000
_refine_ls_structure_factor_coef Fsqd
_refine_ls_weighting_details
'w=1/[\s^2^(Fo^2^)+(0.0356P)^2^+0.1808P] where P=(Fo^2^+2Fc^2^)/3'
_refine_ls_weighting_scheme      calc
_refine_ls_wR_factor_gt          0.0657
_refine_ls_wR_factor_ref         0.0658
_reflns_Friedel_coverage         0.860
_reflns_Friedel_fraction_full    0.994
_reflns_Friedel_fraction_max     0.984
_reflns_number_gt                2726
_reflns_number_total             2740
_reflns_threshold_expression     'I > 2\s(I)'
_cod_data_source_file            d2sc04350e2.cif
_cod_data_source_block           cxy3456_0m
_cod_database_code               1567636
_shelx_shelxl_version_number     2018/3
_shelx_space_group_comment
;
The symmetry employed for this shelxl refinement is uniquely defined
by the following loop, which should always be used as a source of
symmetry information in preference to the above space-group names.
They are only intended as comments.
;
_olex2_refinement_description
;
1. Fixed Uiso
 At 1.2 times of:
  All C(H) groups, All C(H,H) groups, All N(H) groups
 At 1.5 times of:
  All C(H,H,H) groups
2.a Ternary CH refined with riding coordinates:
 C7(H7)
2.b Secondary CH2 refined with riding coordinates:
 C6(H6A,H6B), C14(H14A,H14B)
2.c Aromatic/amide H refined with riding coordinates:
 N1(H1), C1(H1A), C2(H2), C3(H3), C8(H8), C9(H9), C11(H11), C12(H12), C13(H13),
  C16(H16), C17(H17)
2.d Idealised Me refined as rotating group:
 C15(H15A,H15B,H15C)
;
_shelx_res_file
;
TITL cxy3456_0m_a.res in P2(1)
    cxy3456_0m.res
    created by SHELXL-2018/3 at 10:03:57 on 30-Dec-2021
CELL 1.54178 8.8663 8.793 10.1594 90 108.871 90
ZERR 2 0.0014 0.0014 0.0016 0 0.005 0
LATT -1
SYMM -X,0.5+Y,-Z
SFAC C H N O S
UNIT 34 38 2 2 2

L.S. 4
PLAN  2 0 0
TEMP -172.15
CONF
HTAB
BOND $H
MORE -1
fmap 2
acta
REM <olex2.extras>
REM <HklSrc "%.\\cxy3456_0m.hkl">
REM </olex2.extras>

WGHT    0.035600    0.180800
EXTI    0.025717
FVAR       1.29514
S1    5    0.513829    0.567090    0.754964    11.00000    0.02062    0.01928 =
         0.01584   -0.00076    0.01087    0.00082
O1    4    0.579627    0.613196    0.114260    11.00000    0.01624    0.01187 =
         0.01564    0.00050    0.00508    0.00076
N1    3    0.452408    0.388860    0.043328    11.00000    0.01402    0.01121 =
         0.01547   -0.00078    0.00346    0.00050
AFIX  43
H1    2    0.463826    0.290582    0.033180    11.00000   -1.20000
AFIX   0
C1    1   -0.012788    0.565982   -0.087193    11.00000    0.01537    0.03070 =
         0.04231    0.01718    0.01337    0.00561
AFIX  43
H1A   2   -0.118000    0.605922   -0.116989    11.00000   -1.20000
AFIX   0
C2    1    0.037369    0.472100   -0.174401    11.00000    0.01460    0.02990 =
         0.02705    0.00985    0.00299   -0.00083
AFIX  43
H2    2   -0.034067    0.447311   -0.263874    11.00000   -1.20000
AFIX   0
C3    1    0.191629    0.413800   -0.131956    11.00000    0.01794    0.01927 =
         0.01946    0.00306    0.00542   -0.00108
AFIX  43
H3    2    0.225733    0.349618   -0.192079    11.00000   -1.20000
AFIX   0
C4    1    0.295575    0.450491   -0.000401    11.00000    0.01339    0.01315 =
         0.01912    0.00325    0.00686   -0.00098
C5    1    0.584752    0.473819    0.099698    11.00000    0.01604    0.01451 =
         0.00746    0.00099    0.00636   -0.00037
C6    1    0.741669    0.389392    0.145215    11.00000    0.01437    0.01498 =
         0.01338   -0.00095    0.00623    0.00042
AFIX  23
H6A   2    0.795305    0.401517    0.074193    11.00000   -1.20000
H6B   2    0.722112    0.279620    0.154134    11.00000   -1.20000
AFIX   0
C7    1    0.850325    0.451742    0.286390    11.00000    0.01412    0.01563 =
         0.01317   -0.00021    0.00606   -0.00069
AFIX  13
H7    2    0.861106    0.564031    0.276622    11.00000   -1.20000
AFIX   0
C8    1    0.774864    0.424938    0.397606    11.00000    0.01218    0.01709 =
         0.01312    0.00146    0.00329   -0.00015
AFIX  43
H8    2    0.763988    0.322698    0.423399    11.00000   -1.20000
AFIX   0
C9    1    0.722292    0.534365    0.462376    11.00000    0.01396    0.01762 =
         0.01356    0.00193    0.00464   -0.00030
AFIX  43
H9    2    0.733428    0.636248    0.435791    11.00000   -1.20000
AFIX   0
C10   1    0.648706    0.511521    0.571139    11.00000    0.01154    0.01890 =
         0.01153    0.00018    0.00243   -0.00059
C11   1    0.623719    0.368195    0.627933    11.00000    0.01749    0.01469 =
         0.01605    0.00064    0.00653    0.00088
AFIX  43
H11   2    0.654392    0.273580    0.599223    11.00000   -1.20000
AFIX   0
C12   1    0.551985    0.381028    0.726671    11.00000    0.01772    0.01829 =
         0.01783    0.00223    0.00678   -0.00082
AFIX  43
H12   2    0.526045    0.297214    0.774331    11.00000   -1.20000
AFIX   0
C13   1    0.595689    0.629135    0.633186    11.00000    0.01880    0.01852 =
         0.01522    0.00092    0.00773    0.00077
AFIX  43
H13   2    0.603455    0.733227    0.611162    11.00000   -1.20000
AFIX   0
C14   1    1.017610    0.381462    0.326717    11.00000    0.01521    0.01980 =
         0.01637   -0.00123    0.00685    0.00130
AFIX  23
H14A  2    1.012616    0.274212    0.354674    11.00000   -1.20000
H14B  2    1.055274    0.382585    0.245005    11.00000   -1.20000
AFIX   0
C15   1    1.135706    0.468257    0.446173    11.00000    0.01447    0.03138 =
         0.02516   -0.00632    0.00258    0.00103
AFIX 137
H15A  2    1.139534    0.574860    0.419286    11.00000   -1.50000
H15B  2    1.241836    0.422841    0.467262    11.00000   -1.50000
H15C  2    1.101575    0.462800    0.528670    11.00000   -1.50000
AFIX   0
C16   1    0.244880    0.542938    0.088078    11.00000    0.01977    0.01809 =
         0.02361    0.00033    0.01121    0.00015
AFIX  43
H16   2    0.315076    0.566023    0.178493    11.00000   -1.20000
AFIX   0
C17   1    0.091018    0.601420    0.043621    11.00000    0.02377    0.02105 =
         0.03996    0.00547    0.02115    0.00381
AFIX  43
H17   2    0.056794    0.666116    0.103314    11.00000   -1.20000
AFIX   0
HKLF 4




REM  cxy3456_0m_a.res in P2(1)
REM wR2 = 0.065756, GooF = S = 1.06224, Restrained GooF = 1.06203 for all data
REM R1 = 0.026110 for 2726 Fo > 4sig(Fo) and 0.026207 for all 2740 data
REM 183 parameters refined using 1 restraints

END

WGHT      0.0356      0.1807

REM Instructions for potential hydrogen bonds
EQIV $1 -x+1, y-1/2, -z+1
HTAB N1 S1_$1
EQIV $2 -x+1, y-1/2, -z
HTAB N1 O1_$2
HTAB C3 O1_$2
HTAB C12 O1_$1

REM Highest difference peak  0.246,  deepest hole -0.181,  1-sigma level  0.049
Q1    1   0.6008  0.5866  0.7194  11.00000  0.05    0.25
Q2    1   0.6357  0.3770  0.6990  11.00000  0.05    0.21
;
_shelx_res_checksum              29083
_shelx_hkl_file
;
  -1   0   0 1617.94   75.39
   1   0   0 1669.23   75.39
   2   0   0 1236.98   57.39
  -2   0   0 1099.49   57.09
   2   0   0 1309.07   55.39
   3   0   0  296.97   17.50
  -3   0   0  275.67   12.50
  -3   0   0  265.67   12.40
   3   0   0  282.47   12.90
  -3   0   0  241.18   17.00
   4   0   0 1063.59   51.59
  -4   0   0 1131.79   57.89
  -4   0   0 1137.29   51.59
  -4   0   0 1214.18   58.59
  -5   0   0   48.00    2.40
   5   0   0   46.70    2.70
  -5   0   0   44.80    3.20
  -5   0   0   48.90    2.50
   5   0   0   51.09    2.90
  -5   0   0   58.19   25.40
   5   0   0   48.00    3.30
  -6   0   0    1.20    3.40
   6   0   0    4.10    1.70
  -6   0   0    2.90    1.40
  -6   0   0    7.30    2.10
   6   0   0    3.30    1.00
   6   0   0    3.20    1.40
  -7   0   0   93.19    6.00
   7   0   0   95.99    5.10
  -7   0   0  105.79    4.90
   7   0   0   99.99    5.60
   7   0   0  102.49    5.30
  -7   0   0   91.29    5.50
  -8   0   0  223.98   11.20
   8   0   0  229.38   11.70
   8   0   0  243.28   11.30
  -8   0   0  249.97   12.70
   8   0   0  250.37   11.50
  -8   0   0  228.38   11.80
   9   0   0   20.50    1.80
  -9   0   0   22.80    2.90
   9   0   0   14.20    1.90
  10   0   0    4.10    1.60
 -10   0   0    2.50    1.50
   0  -1   0    2.20    0.80
   0  -1   0    2.20    0.20
   0   1   0    0.90    0.70
   0   1   0    0.80    0.20
   0   1   0    1.00    0.10
  -1  -1   0  727.03   34.20
  -1  -1   0  720.03   32.90
  -1   1   0  749.23   34.10
  -1   1   0  751.72   34.20
   1   1   0  737.13   33.50
  -1   1   0  767.72   33.40
   1   1   0  742.93   34.70
   1   1   0  672.63   33.50
  -2  -1   0 3508.65  161.38
  -2   1   0 2997.40  157.08
   2   1   0 3615.84  157.98
  -2   1   0 3688.23  157.28
  -3  -1   0  752.22   33.60
  -3  -1   0  716.23   38.00
   3  -1   0  745.43   34.00
   3   1   0  759.32   35.50
  -3   1   0  770.52   38.70
   3   1   0  795.62   39.70
  -4  -1   0 1122.39   59.39
  -4  -1   0 1160.48   51.89
  -4   1   0 1155.08   54.49
  -4   1   0 1076.09   53.79
   4   1   0  938.11   47.70
  -5  -1   0   85.09    4.00
  -5  -1   0   83.29    4.50
  -5  -1   0  105.39   28.30
  -5  -1   0   84.19    4.20
  -5  -1   0   62.29   24.00
   5  -1   0   69.59    5.70
   5  -1   0   85.09    4.30
  -5  -1   0   87.19    4.10
   5  -1   0   79.09    4.20
  -5   1   0   97.89    4.50
   5   1   0   81.99    5.10
   5   1   0   96.09    4.80
   5   1   0   90.59    4.80
  -5   1   0  105.19    6.30
  -6  -1   0   25.70    2.40
  -6  -1   0   26.20    1.60
  -6  -1   0   24.90    2.50
  -6  -1   0   25.50    2.10
  -6  -1   0   28.80    3.30
   6  -1   0   28.10    2.00
   6  -1   0   24.10    2.90
   6   1   0   33.70    3.20
  -6   1   0   43.50    2.00
  -6   1   0   29.70    4.30
  -6   1   0   33.10    3.30
  -6   1   0   33.40    4.40
   6   1   0   35.10    2.60
   7  -1   0  181.18    9.10
  -7  -1   0  166.88   10.60
  -7  -1   0  190.08    8.90
   7  -1   0  199.98    9.00
   7  -1   0  181.68    9.40
  -7  -1   0  187.28    9.10
   7   1   0  225.78   10.60
  -7   1   0  215.08   11.60
  -7   1   0  219.98   10.30
  -7   1   0  219.18   11.80
   7   1   0  219.38   10.80
  -7   1   0  218.38   10.90
   7   1   0  215.58   10.50
   8  -1   0   48.90    2.90
  -8  -1   0   45.20    3.60
  -8  -1   0   46.30    4.90
   8  -1   0   46.20    3.50
   8  -1   0   47.50    3.10
  -8   1   0   28.00    1.80
   8   1   0   32.50    2.40
  -8   1   0   33.40    3.40
  -8   1   0   38.60    5.40
   8   1   0   33.00    3.00
   9  -1   0   52.99    3.10
   9  -1   0   56.39    4.00
   9  -1   0   59.99    3.80
  -9   1   0   40.10    3.80
   9   1   0   43.80    3.40
  -9   1   0   27.70    3.60
  10  -1   0   48.30    3.10
 -10  -1   0   45.10    3.20
 -10   1   0   38.40    2.80
  10   1   0   36.50    2.60
   0  -2   0 9999.00  453.25
   0   2   0 6991.30  317.07
  -1  -2   0  357.46   17.50
  -1  -2   0  414.06   19.60
  -1   2   0  497.25   23.10
   1   2   0  480.25   22.60
  -1   2   0  549.15   22.60
  -1   2   0  495.35   23.00
   1   2   0  460.25   22.60
   1   2   0  510.25   22.50
   1   2   0  470.35   24.10
  -2  -2   0 1004.80   45.50
  -2  -2   0 1064.89   48.80
   2  -2   0  932.21   45.50
  -2   2   0 1185.28   55.79
  -2   2   0 1192.78   55.89
  -2   2   0 1250.87   54.29
   2   2   0 1170.78   54.39
   2   2   0 1179.78   57.09
  -3  -2   0  151.68    6.90
  -3  -2   0  133.09   14.80
   3   2   0  134.79   14.20
  -3   2   0  127.79    5.80
  -3   2   0  124.79    5.80
  -3   2   0  112.99   11.10
  -3   2   0  122.79   11.60
  -4  -2   0  380.66   31.50
  -4  -2   0  385.86   17.60
  -4  -2   0  381.86   17.60
  -4   2   0  322.57   15.00
  -4   2   0  298.97   24.10
  -4   2   0  310.17   14.90
   4   2   0  363.06   15.50
   5  -2   0  443.16   18.90
  -5  -2   0  418.76   18.80
   5  -2   0  393.16   18.90
  -5  -2   0  421.76   18.80
   5  -2   0  346.67   19.20
  -5  -2   0  445.46   19.00
  -5  -2   0  391.96   18.80
   5   2   0  395.16   18.60
   5   2   0  389.56   18.80
  -5   2   0  440.76   18.40
  -5   2   0  413.36   18.90
   5   2   0  384.06   18.60
  -5   2   0  406.26   19.10
  -5   2   0  381.96   19.40
   6  -2   0   85.59    5.00
  -6  -2   0  100.89    5.00
   6  -2   0  104.79    6.40
  -6  -2   0  103.79    5.30
  -6  -2   0   99.89    4.90
  -6   2   0   82.89    5.60
   6   2   0   71.79    4.50
   6   2   0   70.39    4.20
  -6   2   0   73.39    6.00
  -6   2   0   75.59    3.60
  -6   2   0   76.79    4.70
  -7  -2   0   65.19    3.30
  -7  -2   0   56.09    3.60
   7  -2   0   55.89    3.40
   7  -2   0   54.99    3.40
   7  -2   0   51.19    4.00
  -7   2   0   81.29    5.00
  -7   2   0   83.49    6.30
  -7   2   0   74.69    5.70
   7   2   0   81.99    4.40
   7   2   0   78.89    4.80
   8  -2   0  172.68    8.90
  -8  -2   0  176.58    8.70
   8  -2   0  180.28    8.60
   8  -2   0  172.48    8.70
   8   2   0  165.18    8.30
  -8   2   0  158.18    8.50
  -8   2   0  155.38    8.20
  -8   2   0  158.48    9.10
   9  -2   0  107.99    5.50
   9  -2   0  120.69    6.00
  -9  -2   0  105.39    6.70
   9  -2   0  106.19    5.90
  -9   2   0  108.39    6.00
   9   2   0  112.29    5.80
  -9   2   0  103.29    5.80
   0  -3   0    6.40    2.80
   0   3   0    1.40    0.50
   0   3   0    2.40    0.10
   0   3   0    1.70    2.30
  -1  -3   0  151.28   10.70
  -1  -3   0  149.59    7.00
  -1   3   0  167.08    7.70
   1   3   0  165.18    7.50
   1   3   0  163.08    7.70
   1   3   0  156.18   10.50
   2  -3   0  301.37   15.10
   2  -3   0  326.17   14.80
  -2  -3   0  350.66   15.10
  -2  -3   0  320.77   20.40
   2   3   0  384.46   17.50
  -2   3   0  380.96   18.90
   2   3   0  394.56   22.30
  -2   3   0  384.36   17.40
  -2   3   0  377.96   20.30
   2   3   0  377.26   17.70
   2   3   0  374.16   17.70
  -2   3   0  386.36   17.60
  -2   3   0  388.26   17.40
  -3  -3   0  400.76   28.20
  -3  -3   0  423.06   19.00
  -3   3   0  463.75   20.50
  -3   3   0  409.36   26.10
  -3   3   0  441.96   24.60
  -3   3   0  471.25   20.70
   3   3   0  466.85   29.10
  -3   3   0  444.36   20.50
  -4  -3   0   39.80    2.50
  -4  -3   0   29.20   20.70
  -4  -3   0   46.30    2.40
  -4  -3   0   41.50    2.30
  -4   3   0   48.50    4.40
  -4   3   0   49.80    2.40
  -4   3   0   49.90    2.40
  -4   3   0   61.59    3.60
  -4   3   0   42.10    5.40
  -4   3   0   52.29   14.10
   4   3   0   48.60    3.80
  -4   3   0   47.60    5.20
   5  -3   0  115.19    6.50
   5  -3   0  108.09    6.10
  -5  -3   0  119.39    6.10
  -5  -3   0  123.39    6.10
  -5  -3   0  124.29    5.90
  -5  -3   0  129.69    5.90
  -5   3   0  123.29    6.40
   5   3   0  133.09    7.10
  -5   3   0  137.99    7.10
  -5   3   0  136.19    8.30
  -5   3   0  136.09    7.50
  -5   3   0  141.89    8.10
  -5   3   0  131.09    7.40
  -5   3   0  137.69    6.30
   6  -3   0  119.29    6.80
   6  -3   0  119.09    6.40
  -6  -3   0  130.79    6.50
   6  -3   0  133.69    6.40
  -6  -3   0  128.49    6.30
  -6  -3   0  130.09    6.20
  -6   3   0  136.89    7.90
  -6   3   0  128.09    6.90
   6   3   0  131.69    6.90
  -6   3   0  127.59    6.00
  -6   3   0  118.99    7.20
  -6   3   0  126.79    7.30
   7  -3   0  643.34   31.30
  -7  -3   0  682.33   30.90
   7  -3   0  698.33   31.90
  -7  -3   0  659.13   30.90
   7  -3   0  665.53   30.90
  -7   3   0  639.44   30.00
   7   3   0  605.34   31.70
  -7   3   0  604.54   31.50
  -7   3   0  685.13   31.50
  -7   3   0  757.92   31.80
   8  -3   0  110.99    5.70
   8  -3   0  108.29    6.10
   8  -3   0  110.49    5.60
  -8  -3   0  108.09    5.80
  -8   3   0   77.89    4.80
  -8   3   0   84.49    5.20
   8   3   0   86.39    5.00
  -8   3   0   79.19    5.50
  -9  -3   0    4.30    3.10
   9  -3   0    7.70    1.40
   9  -3   0    6.30    1.00
   9  -3   0    9.00    1.60
  -9  -3   0    7.80    1.40
  -9   3   0    9.20    1.70
   9   3   0    9.90    1.80
  -9   3   0    6.20    1.40
   0  -4   0 1320.57   59.99
   0   4   0 1660.43   75.59
  -1  -4   0 1258.67   55.19
   1  -4   0 1169.18   55.29
  -1  -4   0 1216.98   58.59
  -1   4   0 1353.76   61.69
   1   4   0 1354.06   61.69
  -2  -4   0 1438.76   71.99
  -2  -4   0 1579.84   66.19
   2  -4   0 1343.27   65.89
  -2   4   0 1672.33   73.49
   2   4   0 1629.74   73.59
   2   4   0 1603.34   73.49
   2   4   0 1546.75   77.79
  -3  -4   0  135.79    6.40
  -3  -4   0  124.49    6.80
  -3  -4   0  109.09   23.30
  -3   4   0  194.58    9.60
  -3   4   0  186.48   10.40
  -3   4   0  198.18    9.30
  -4  -4   0  547.65   24.50
  -4  -4   0  503.85   24.40
  -4  -4   0  545.85   24.60
  -4   4   0  551.44   24.60
  -4   4   0  536.05   25.30
  -4   4   0  549.05   25.90
  -4   4   0  525.35   25.50
  -4   4   0  533.15   24.60
  -4   4   0  534.85   25.60
   4   4   0  552.64   25.30
  -4   4   0  543.65   25.00
  -4   4   0  554.14   25.90
   5  -4   0  550.94   28.20
  -5  -4   0  621.84   28.20
  -5  -4   0  633.74   27.90
  -5  -4   0  626.84   28.00
  -5   4   0  522.65   25.50
  -5   4   0  534.65   24.50
   5   4   0  516.05   25.10
  -5   4   0  541.95   25.30
  -5   4   0  541.85   25.50
  -5   4   0  578.94   25.90
  -6  -4   0  296.47   14.30
  -6  -4   0  318.07   14.00
   6  -4   0  281.77   14.50
   6  -4   0  291.67   14.10
  -6  -4   0  313.67   14.20
  -6   4   0  237.28   11.10
  -6   4   0  248.38   12.30
  -6   4   0  244.98   13.10
  -6   4   0  234.28   13.00
  -6   4   0  239.08   12.30
  -6   4   0  254.07   12.00
   6   4   0  255.07   12.00
  -6   4   0  232.78   11.10
  -7  -4   0  197.78    9.40
   7  -4   0  204.38    9.60
   7  -4   0  208.18    9.60
  -7  -4   0  202.78    9.80
  -7  -4   0  193.58    9.90
   7  -4   0  182.88   10.00
   7   4   0  196.68    9.50
  -7   4   0  198.18   11.40
  -7   4   0  179.28    9.40
  -7   4   0  162.88   11.70
  -7   4   0  192.28    9.70
  -7   4   0  182.18    9.70
   8  -4   0  289.57   13.50
   8  -4   0  283.47   13.80
   8  -4   0  290.47   13.60
  -8  -4   0  280.07   13.60
  -8   4   0  261.37   12.90
  -8   4   0  290.07   13.30
  -8   4   0  247.38   13.20
  -9  -4   0   70.09    4.10
   9  -4   0   72.89    4.50
   9  -4   0   71.89    4.00
   9  -4   0   82.49    3.90
  -9   4   0   53.59    3.30
  -9   4   0   55.79    4.20
   0   5   0   -0.30    2.60
   0   5   0    0.40    1.30
   0   5   0    0.50    3.00
   0   5   0    0.30    0.80
   0   5   0    5.30    4.40
   1  -5   0   30.20    1.80
  -1  -5   0   27.60   11.50
   1   5   0   32.90    2.30
  -1   5   0   33.20    2.30
  -1   5   0   31.80    4.10
  -1   5   0   33.70    4.30
   1   5   0   32.70    3.00
  -1   5   0   33.90    3.00
   1   5   0   34.00    8.70
  -1   5   0   38.10    4.80
   2  -5   0   64.09    3.70
   2  -5   0   59.09    3.10
  -2   5   0   69.79    5.10
  -2   5   0   75.99    4.20
  -2   5   0   73.79    4.10
  -2   5   0   70.59    5.50
   2   5   0   65.69    4.70
  -2   5   0   88.99    6.90
   2   5   0   82.99    8.60
  -2   5   0   76.29    9.10
   3  -5   0    8.30    2.50
  -3  -5   0    7.70    1.20
  -3  -5   0    7.70    1.10
   3   5   0    6.30    2.30
  -3   5   0    8.80    1.90
  -3   5   0    9.70    3.00
  -3   5   0    8.10    2.40
  -3   5   0   10.40    2.10
  -3   5   0    9.30    2.40
  -3   5   0    8.70    1.30
  -3   5   0   11.90    5.90
  -4  -5   0  290.77   14.40
  -4  -5   0  326.87   14.50
  -4   5   0  357.56   17.00
  -4   5   0  362.06   16.40
  -4   5   0  313.37   20.60
  -4   5   0  371.06   17.40
  -4   5   0  355.06   16.70
  -4   5   0  332.17   17.30
  -4   5   0  351.36   17.00
  -5  -5   0  130.19    6.40
   5  -5   0  123.29    6.60
  -5  -5   0  124.49    6.20
  -5  -5   0  125.69    6.60
  -5   5   0  133.39    8.60
  -5   5   0  131.49    7.20
  -5   5   0  129.89    7.60
  -5   5   0  132.89    7.50
  -5   5   0  142.49    8.10
  -6  -5   0  116.49    6.00
   6  -5   0  106.99    8.60
   6  -5   0  112.99    5.80
  -6  -5   0  112.89    5.60
  -6  -5   0  114.19    6.00
  -6   5   0  110.79    7.50
  -6   5   0  100.99    5.90
  -6   5   0  105.69    6.30
  -6   5   0  106.29    6.30
  -6   5   0   97.29    8.90
  -7  -5   0  210.78    9.80
   7  -5   0  184.18   11.00
   7  -5   0  205.58    9.70
  -7  -5   0  195.58   10.30
   7  -5   0  192.18    9.60
  -7  -5   0  207.08    9.50
  -7   5   0  175.38    9.30
  -7   5   0  186.48   10.80
  -7   5   0  177.08    9.00
  -7   5   0  172.58    9.30
  -8  -5   0   34.30    2.40
   8  -5   0   31.20    2.70
   8  -5   0   34.40    3.60
   8  -5   0   35.20    2.30
  -8   5   0   22.70    2.80
  -8   5   0   20.40    2.20
  -8   5   0   25.20    2.70
   0  -6   0 1350.66   61.49
   0   6   0 1676.33   70.79
   0   6   0 1292.27   67.19
   0   6   0 1500.05   67.19
   0   6   0 1487.05   67.59
   0   6   0 1416.96   67.29
   0   6   0 1468.15   66.89
   0   6   0 1440.06   67.69
   1  -6   0  276.67   13.30
  -1  -6   0  296.07   13.40
  -1   6   0  270.57   13.80
   1   6   0  253.07   13.90
  -1   6   0  267.37   13.40
   1   6   0  255.47   12.90
   1   6   0  256.77   14.10
  -1   6   0  280.77   13.10
  -1   6   0  271.57   14.00
  -1   6   0  271.57   12.90
  -1   6   0  263.67   13.60
  -1   6   0  301.17   17.10
  -1   6   0  305.27   14.30
   1   6   0  253.87   13.70
   1   6   0  303.07   17.10
  -2  -6   0  213.78    9.60
  -2  -6   0  166.78    9.50
  -2  -6   0  213.18   10.00
  -2   6   0  246.38   12.90
  -2   6   0  227.48   11.80
  -2   6   0  226.28   12.10
   2   6   0  249.18   15.40
  -2   6   0  275.07   13.10
  -2   6   0  232.58   12.00
  -2   6   0  217.98   12.30
  -2   6   0  267.27   16.30
   2   6   0  212.58   11.40
  -3  -6   0  531.35   25.10
  -3  -6   0  522.05   24.40
  -3   6   0  555.94   27.40
  -3   6   0  583.94   27.20
  -3   6   0  589.14   27.60
   3   6   0  506.05   26.50
  -3   6   0  582.44   26.90
  -3   6   0  571.84   26.50
  -3   6   0  662.03   27.60
  -3   6   0  553.54   30.30
  -4  -6   0 1483.15   66.59
  -4  -6   0 1485.75   66.49
  -4  -6   0 1402.26   66.29
  -4   6   0 1466.25   65.39
  -4   6   0 1451.35   64.39
  -4   6   0 1388.66   64.69
  -4   6   0 1405.66   64.99
  -4   6   0 1430.66   64.89
  -4   6   0 1323.57   65.09
  -5  -6   0  106.99    5.40
  -5  -6   0  110.59    6.70
  -5  -6   0   98.59    5.80
  -5   6   0  103.59    6.00
  -5   6   0   97.59    9.00
  -5   6   0   90.69    6.60
  -6  -6   0  152.48    7.20
   6  -6   0  141.89    7.40
  -6  -6   0  146.19    7.50
   6  -6   0  159.28    7.30
  -6  -6   0  137.29    7.60
  -6   6   0  128.59    6.70
  -6   6   0  127.59    7.10
  -6   6   0  113.39    9.00
  -6   6   0  120.79    7.10
  -6   6   0  128.79    7.80
   7  -6   0  209.88    9.20
   7  -6   0  195.38    9.10
  -7  -6   0  159.98    9.50
  -7  -6   0  194.48    9.00
  -7   6   0  162.98   10.00
  -7   6   0  179.48    9.00
  -7   6   0  180.98    9.00
   8  -6   0  202.08    9.30
  -8  -6   0  181.38    9.20
   8  -6   0  195.88    9.10
  -8   6   0  175.48    8.80
  -8   6   0  159.98    8.00
  -8   6   0  160.38    8.80
   0  -7   0    0.60    1.20
   0   7   0    0.20    4.30
   0   7   0    2.00    1.20
   0   7   0    4.70    2.80
   0   7   0    1.20    2.50
   0   7   0   -0.10    2.40
  -1  -7   0   90.79    4.80
   1   7   0   81.19    7.00
  -1   7   0   92.69    6.30
  -1   7   0   93.29    5.00
  -1   7   0  107.19    9.60
   1   7   0   80.59    6.80
   1   7   0   89.59    5.00
  -1   7   0   91.29    6.50
   1   7   0  100.49    9.20
  -1   7   0  100.69    6.20
  -2  -7   0  252.17   11.80
  -2  -7   0  234.88   12.30
  -2  -7   0  255.57   11.80
  -2   7   0  252.37   12.30
  -2   7   0  267.47   13.40
  -2   7   0  261.37   13.30
   2   7   0  245.48   12.30
  -2   7   0  222.88   13.00
  -2   7   0  268.47   13.10
  -2   7   0  269.87   12.80
  -2   7   0  279.27   16.60
  -3  -7   0  115.49    5.70
  -3  -7   0  114.09    5.90
  -3  -7   0  108.99    6.40
  -3   7   0  132.19    6.30
   3   7   0  109.09    6.40
  -3   7   0  126.19    6.80
  -3   7   0  129.49    7.90
  -3   7   0  118.29    7.40
  -3   7   0  111.29   10.80
  -3   7   0  129.39    7.20
  -3   7   0  129.59    7.70
  -4  -7   0  507.55   23.10
  -4  -7   0  504.75   23.30
  -4  -7   0  486.65   23.40
  -4   7   0  522.95   25.00
  -4   7   0  519.35   24.50
  -4   7   0  501.05   24.60
  -4   7   0  535.15   25.20
  -4   7   0  527.75   24.80
  -5  -7   0   74.49    4.60
  -5  -7   0   73.89    4.50
  -5  -7   0   80.59    4.00
  -5   7   0   78.39    5.40
  -5   7   0   70.29    6.70
  -5   7   0   75.89    4.60
  -5   7   0   79.49    5.00
  -5   7   0   74.19    5.50
  -6  -7   0   74.39    3.60
   6  -7   0   58.79    4.20
  -6  -7   0   67.49    4.20
   6  -7   0   73.19    4.80
  -6   7   0   65.79    4.90
  -6   7   0   71.09    5.50
  -6   7   0   67.49    4.50
   7  -7   0  117.39    5.70
   7  -7   0  112.29    6.30
  -7  -7   0  112.69    5.50
  -7  -7   0  113.29    5.70
  -7   7   0  110.69    5.60
  -7   7   0  107.09    5.80
  -7   7   0  106.09    6.80
   0  -8   0    3.60    2.40
   0   8   0   18.20    3.60
   0   8   0   19.30    5.60
   0   8   0   13.60    3.50
   0   8   0   14.20    1.60
  -1  -8   0   24.50    2.30
  -1  -8   0   27.30    2.90
  -1   8   0   21.80    6.00
  -1   8   0   21.50    4.00
  -1   8   0   18.30    3.50
   1   8   0   20.90    2.30
  -1   8   0   23.30    2.20
  -1   8   0   23.80    2.90
  -2  -8   0  247.38   11.90
  -2  -8   0  244.18   11.60
  -2   8   0  322.97   18.90
  -2   8   0  308.47   15.70
  -2   8   0  326.37   15.40
  -2   8   0  311.57   15.10
  -2   8   0  316.97   14.70
  -2   8   0  314.97   15.80
   2   8   0  283.57   14.60
  -3  -8   0  345.47   15.70
  -3  -8   0  328.37   16.20
  -3  -8   0  338.17   16.00
  -3   8   0  325.17   15.60
  -3   8   0  347.07   16.10
  -3   8   0  340.17   15.40
  -3   8   0  324.27   16.50
  -3   8   0  314.07   16.30
  -3   8   0  310.77   19.10
  -4  -8   0  596.74   27.50
  -4  -8   0  598.64   27.50
  -4  -8   0  583.04   27.20
  -4   8   0  496.45   25.20
  -4   8   0  546.75   24.90
  -4   8   0  533.85   24.50
   5  -8   0  325.77   14.70
  -5  -8   0  311.67   14.60
  -5  -8   0  304.37   14.80
  -5   8   0  295.07   15.10
  -5   8   0  301.17   14.40
  -5   8   0  315.97   14.70
  -6  -8   0  309.87   15.30
  -6  -8   0  343.37   15.10
  -6   8   0  294.67   14.60
  -6   8   0  300.37   14.20
  -6   8   0  297.47   14.00
   0   9   0   -0.90    3.00
   0   9   0    2.90    1.10
  -1  -9   0   65.99    4.20
  -1   9   0   62.19    3.40
   1   9   0   57.89    3.40
  -1   9   0   55.49    5.20
  -1   9   0   63.39    6.70
  -2  -9   0  237.08   11.20
  -2   9   0  198.28   11.40
  -2   9   0  236.78   11.20
  -3  -9   0   38.90    2.50
  -3   9   0   31.80    3.60
  -3   9   0   35.90    3.20
  -4  -9   0  127.89    7.20
  -4  -9   0  147.79    6.70
  -4   9   0  139.09    7.80
  -4   9   0  145.99    7.40
  -5  -9   0    1.80    1.80
  -5  -9   0    3.80    0.90
  -5   9   0    1.30    1.70
  -5   9   0    0.10    1.30
  -1 -10   0   36.40    3.30
  -1  10   0   41.40    5.30
  -2 -10   0  527.55   24.20
  -2  10   0  442.96   21.40
  -3 -10   0   37.80    2.30
  -3  10   0   28.20    3.20
  -3  10   0   36.80    3.30
  10   0  -1   21.70    2.10
 -10   0   1   19.30    2.30
  -9   0   1  345.47   17.50
   9   0  -1  389.96   17.10
   9   0  -1  365.56   17.40
  -8   0   1  964.30   46.40
  -8   0   1  978.90   46.30
   8   0  -1 1070.19   46.70
   8   0  -1 1032.80   46.40
   8   0  -1 1046.30   46.50
  -8   0   1  990.00   46.60
   7   0  -1  418.06   20.00
   7   0  -1  430.96   19.70
  -7   0   1  408.86   20.40
  -7   0   1  424.56   19.60
  -7   0   1  430.96   19.80
  -7   0   1  412.96   20.00
   7   0  -1  442.76   19.80
  -6   0   1  620.74   27.50
   6   0  -1  567.14   27.60
   6   0  -1  600.74   27.80
  -6   0   1  600.44   27.60
   6   0  -1  612.04   27.60
  -6   0   1  598.64   28.00
  -5   0   1   53.79    2.60
   5   0  -1   55.59    3.40
  -5   0   1   52.79    3.20
  -5   0   1   45.90   20.00
   5   0  -1   49.00    3.00
  -5   0   1   46.60   18.80
  -5   0   1   51.69    2.60
   5   0  -1   51.49    2.90
  -4   0   1  950.30   48.20
   4   0  -1  948.61   41.70
  -4   0   1  836.92   47.10
  -3   0   1  797.82   41.00
  -3   0   1  835.12   38.00
   3   0  -1  852.31   38.00
  -2   0   1   24.10    4.10
  -2   0   1   22.10    3.60
  -2   0   1   23.80    1.40
   2   0  -1   23.50    1.40
  -2   0   1   24.40    1.20
   2   0  -1   26.40    1.20
   1   0  -1  324.07   15.90
  -1   0   1  337.27   15.90
   1   0  -1  354.86   17.10
   1   0  -1  353.26   15.80
  -1   0   1  378.96   17.10
   0   0   1 1000.10   45.00
   0   0  -1  935.31   44.00
   0   0  -1  980.80   45.00
   1   0   1  102.79    6.40
  -1   0  -1   89.49    4.40
  -1   0  -1   95.39    4.30
  -2   0  -1 3226.38  172.08
   2   0   1 4278.27  173.68
  -3   0  -1 1505.15   72.29
   3   0   1 1796.52   76.79
  -3   0  -1 1576.04   76.79
   3   0   1 1507.95   72.29
   4   0   1  435.06   29.90
   4   0   1  374.06   18.00
  -4   0  -1  400.06   17.90
  -4   0  -1  385.56   17.90
  -4   0  -1  376.56   30.80
   5   0   1   29.50    2.30
  -5   0  -1   33.00    4.00
  -5   0  -1   31.80    1.70
   5   0   1   31.20    2.90
  -5   0  -1   33.30    2.00
   5   0   1   35.50    2.20
  -6   0  -1   17.00    2.70
  -6   0  -1   13.80    1.00
   6   0   1   13.60    1.40
   6   0   1   16.30    1.80
   7   0   1    8.60    1.70
  -7   0  -1    3.40    2.10
  -7   0  -1    4.30    2.50
   7   0   1    4.30    1.10
   7   0   1    5.60    1.30
  -7   0  -1    2.00    2.40
  -8   0  -1    7.00    2.90
   8   0   1    5.80    1.10
   8   0   1    5.20    1.40
  -8   0  -1    4.30    0.80
  -9   0  -1  121.89    6.30
   9   0   1  117.29    6.10
  -9   0  -1  110.29    7.40
   9   0   1  109.69    5.60
  10  -1  -1    4.50    1.20
 -10  -1   1    3.90    1.30
  10  -1  -1    3.20    1.10
 -10   1   1    7.50    1.40
  10   1  -1    7.90    1.40
   9  -1  -1   93.79    5.00
   9  -1  -1   87.59    5.10
  -9  -1   1   76.49    6.70
   9  -1  -1   96.59    4.70
  -9   1   1   84.99    5.10
  -9   1   1   82.19    5.10
   9   1  -1   85.49    4.90
   8  -1  -1  208.48   10.00
  -8  -1   1  212.58   10.20
   8  -1  -1  208.38   10.20
   8  -1  -1  209.58   10.40
  -8  -1   1  198.08   10.70
  -8  -1   1  206.28   10.00
  -8  -1   1  214.68   11.50
   8   1  -1  262.47   12.10
  -8   1   1  246.78   12.00
  -8   1   1  264.67   12.60
  -8   1   1  246.38   13.10
   8   1  -1  246.68   12.50
   8   1  -1  270.37   12.50
   7  -1  -1  509.65   22.90
   7  -1  -1  491.55   22.70
  -7  -1   1  462.05   22.90
  -7  -1   1  492.35   22.70
   7  -1  -1  473.35   22.70
  -7  -1   1  508.35   22.60
   7   1  -1  488.45   23.20
  -7   1   1  479.15   23.40
   7   1  -1  498.45   22.90
  -7   1   1  506.35   23.20
  -7   1   1  507.55   22.70
   7   1  -1  487.45   23.00
   6  -1  -1  906.41   39.10
   6  -1  -1  815.52   39.20
  -6  -1   1  836.12   38.90
  -6  -1   1  836.72   39.10
  -6  -1   1  829.02   38.80
   6  -1  -1  910.11   39.00
  -6  -1   1  834.52   38.80
  -6   1   1  820.02   35.90
   6   1  -1  716.93   35.80
   6   1  -1  789.62   35.70
  -6   1   1  798.52   36.10
  -6   1   1  759.52   35.60
   6   1  -1  783.02   35.60
  -5  -1   1   56.59    4.30
  -5  -1   1   27.50   16.90
  -5  -1   1   53.49    3.00
   5  -1  -1   57.59    3.00
  -5  -1   1   55.09    2.80
   5  -1  -1   55.29    3.20
   5  -1  -1   56.79    3.50
  -5  -1   1   55.59    2.80
  -5  -1   1   42.50   24.20
   5   1  -1   75.39    4.10
  -5   1   1   76.99    3.60
   5   1  -1   74.79    4.90
  -5   1   1   79.99    5.10
   5   1  -1   72.69    4.00
  -5   1   1   82.99   22.90
  -4  -1   1 2196.98   98.49
  -4  -1   1 2126.49  104.59
  -4   1   1 2122.79  103.69
   4   1  -1 2208.38   99.19
  -4   1   1 2224.28  104.49
  -3  -1   1  890.21   45.70
   3  -1  -1  919.41   42.30
  -3  -1   1  915.21   42.20
  -3  -1   1  975.30   46.20
  -3   1   1  865.41   43.40
  -3   1   1  881.91   43.70
   3   1  -1  908.81   40.40
   2  -1  -1 1961.30   86.49
  -2  -1   1 1806.22   86.49
  -2  -1   1 1848.12   86.69
   2  -1  -1 1837.82   84.59
   2   1  -1 1833.62   82.79
   2   1  -1 1815.52   82.89
   1  -1  -1  152.68    7.00
   1  -1  -1  155.28    7.00
   1  -1  -1  155.08    7.10
  -1  -1   1  147.49    7.10
   1  -1  -1  151.88    8.40
  -1  -1   1  163.08    8.50
  -1   1   1  178.78    7.10
   1   1  -1  152.98    7.10
   1   1  -1  138.19    7.30
  -1   1   1  149.99    7.10
   0  -1  -1  349.67   17.10
   0  -1  -1  352.46   15.70
   0  -1  -1  325.67   15.80
   0  -1   1  359.36   16.40
   0   1   1  409.66   19.70
   0   1  -1  406.26   18.90
   0   1  -1  391.06   18.30
   1  -1   1 5000.30  255.37
  -1  -1  -1 6243.08  256.67
   1   1   1 5900.21  268.27
  -1   1  -1 5870.41  267.67
   2  -1   1 3955.50  182.58
  -2  -1  -1 3887.51  180.78
   2   1   1 4065.49  174.28
  -2   1  -1 3597.94  174.38
  -2   1  -1 3682.63  171.18
  -3  -1  -1  173.08   16.30
  -3  -1  -1  187.58    8.70
   3  -1   1  202.38   15.10
   3  -1   1  182.18    8.70
  -3  -1  -1  190.98    8.60
  -3   1  -1  203.08    8.80
  -3   1  -1  196.78    8.90
   3   1   1  194.78    9.10
  -3   1  -1  181.98   15.00
   3   1   1  195.88   16.30
  -3   1  -1  180.78    8.90
  -4  -1  -1   19.70    1.30
  -4  -1  -1   16.00   25.80
  -4  -1  -1   19.70    1.20
   4  -1   1   19.80    1.50
  -4   1  -1   20.30    1.10
   4   1   1   19.50    1.70
   4   1   1   16.60    2.50
   4   1   1   20.80   15.70
   5  -1   1  331.97   15.80
  -5  -1  -1  315.57   15.50
   5  -1   1  328.47   15.60
  -5  -1  -1  348.97   15.50
  -5  -1  -1  332.27   15.50
  -5  -1  -1  347.17   15.70
   5  -1   1  339.27   15.60
   5   1   1  307.27   15.30
   5   1   1  331.07   15.00
  -5   1  -1  327.27   14.90
  -5   1  -1  321.67   15.90
   5   1   1  325.57   15.10
  -5   1  -1  322.87   15.40
   6  -1   1  456.55   22.60
   6  -1   1  469.35   22.50
   6  -1   1  498.15   22.80
  -6  -1  -1  513.15   22.60
  -6  -1  -1  492.35   22.40
  -6   1  -1  492.75   22.50
   6   1   1  456.05   22.00
   6   1   1  488.95   22.40
  -6   1  -1  453.05   22.80
  -6   1  -1  469.75   22.90
  -6   1  -1  487.35   21.90
   6   1   1  489.55   22.20
  -7  -1  -1  658.13   31.20
   7  -1   1  652.43   31.20
   7  -1   1  677.33   31.10
   7  -1   1  615.84   31.40
  -7  -1  -1  777.42   31.80
  -7   1  -1  616.54   28.30
   7   1   1  601.94   27.80
  -7   1  -1  584.34   27.30
  -7   1  -1  577.44   27.70
   7   1   1  593.64   27.40
   8  -1   1  233.08   10.50
   8  -1   1  228.48   10.80
  -8  -1  -1  212.08   11.20
   8  -1   1  214.28   10.40
  -8  -1  -1  194.18   10.60
   8   1   1  209.78   10.30
  -8   1  -1  235.48   11.50
   8   1   1  221.18   10.80
  -8   1  -1  223.48   10.90
  -8   1  -1  223.48   11.10
  -8   1  -1  195.98   10.30
  -9  -1  -1   67.59    4.40
   9  -1   1   68.89    4.10
   9  -1   1   71.99    3.60
  -9  -1  -1   65.89    7.20
   9   1   1   71.19    4.10
  -9   1  -1   65.59    4.20
 -10  -2   1   21.90    3.00
  10  -2  -1   13.00    1.90
  10  -2  -1   15.20    1.50
 -10   2   1   29.60    2.70
 -10   2   1   20.00    3.10
  10   2  -1   25.40    2.60
   9  -2  -1  214.68   10.20
   9  -2  -1  184.38    9.00
   9  -2  -1  174.78    8.80
  -9  -2   1  172.68    9.00
  -9   2   1  204.98   10.20
  -9   2   1  171.18   10.20
  -9   2   1  181.98    9.40
   9   2  -1  205.48   10.20
   8  -2  -1  407.86   19.30
   8  -2  -1  433.46   19.40
   8  -2  -1  405.66   19.60
  -8  -2   1  410.26   19.40
  -8   2   1  365.26   17.50
  -8   2   1  369.16   17.20
   8   2  -1  362.66   17.20
  -8   2   1  346.87   16.60
  -8   2   1  359.96   17.50
   7  -2  -1  100.99    5.00
  -7  -2   1   97.69    5.10
  -7  -2   1   88.49    4.80
   7  -2  -1   99.99    5.00
   7  -2  -1   85.49    5.30
  -7  -2   1   91.39    4.80
   7   2  -1   67.19    4.10
   7   2  -1   68.49    4.40
  -7   2   1   71.49    5.10
  -7   2   1   70.99    4.50
  -7   2   1   72.59    3.50
  -6  -2   1  297.67   13.40
  -6  -2   1  296.97   13.00
  -6  -2   1  282.97   13.00
   6  -2  -1  284.37   13.30
   6  -2  -1  269.87   13.30
  -6  -2   1  271.17   13.00
   6  -2  -1  258.07   13.20
  -6   2   1  229.98   11.50
   6   2  -1  225.48   10.80
  -6   2   1  199.28   14.20
  -6   2   1  248.78   10.60
   6   2  -1  228.68   11.00
  -5  -2   1  303.97   14.00
  -5  -2   1  305.37   14.20
  -5  -2   1  309.37   14.00
   5  -2  -1  293.67   14.30
  -5   2   1  301.67   14.30
   5   2  -1  287.17   14.00
   5   2  -1  287.87   13.80
  -5   2   1  302.77   13.50
   5   2  -1  294.37   13.70
  -4  -2   1  471.85   31.30
  -4  -2   1  387.36   20.00
  -4  -2   1  410.26   29.30
  -4  -2   1  463.55   19.70
  -4   2   1  585.34   35.50
  -4   2   1  533.15   23.00
  -4   2   1  471.15   23.10
  -4   2   1  457.65   29.90
  -3  -2   1  314.07   14.70
   3  -2  -1  296.47   14.70
  -3  -2   1  316.57   14.40
  -3  -2   1  316.27   22.60
  -3  -2   1  338.97   20.80
  -3   2   1  316.07   18.60
  -3   2   1  299.07   18.20
   3   2  -1  306.07   14.40
  -3   2   1  312.17   14.20
  -3   2   1  326.77   14.30
   2  -2  -1 1645.04   73.69
  -2  -2   1 1507.15   77.59
   2  -2  -1 1650.23   71.59
  -2  -2   1 1520.25   73.99
  -2  -2   1 1629.44   71.69
   2  -2  -1 1499.15   71.39
  -2   2   1 1551.24   71.59
   2   2  -1 1549.14   69.69
   2   2  -1 1504.15   69.79
   1  -2  -1 2746.73  125.39
   1  -2  -1 2499.65  123.99
  -1  -2   1 3064.49  125.49
  -1  -2   1 2642.14  125.29
  -1   2   1 2836.32  129.99
   0  -2   1  326.57   14.30
   0  -2  -1  301.17   14.20
   0  -2  -1  302.67   16.10
   0   2   1  329.67   16.90
   0   2   1  332.57   14.90
   0   2  -1  319.07   15.00
  -1  -2  -1   78.19    3.70
  -1  -2  -1   87.69    8.00
  -1  -2  -1   78.89    3.80
  -1   2  -1   79.99    3.90
   1   2   1   85.59    7.70
  -1   2  -1   84.19    3.70
  -1   2  -1   77.59    5.00
  -2  -2  -1  609.44   27.80
  -2  -2  -1  612.34   27.80
   2   2   1  592.24   27.60
   2   2   1  611.14   31.60
  -2   2  -1  596.94   27.50
  -2   2  -1  613.74   29.80
  -3  -2  -1  922.11   41.60
  -3  -2  -1  906.11   49.00
   3   2   1  908.61   48.40
  -3   2  -1  955.70   46.30
  -3   2  -1  900.81   42.10
  -3   2  -1  905.61   46.70
  -3   2  -1  969.30   42.30
   4  -2   1  126.29    6.40
  -4  -2  -1  128.19    6.40
  -4  -2  -1  129.69    6.40
  -4  -2  -1  151.08    6.70
  -4  -2  -1  139.59    6.40
  -4  -2  -1  130.49   26.00
   4   2   1  160.88   22.60
  -4   2  -1  119.79    5.50
  -4   2  -1  125.49   17.80
   4   2   1  110.69    5.80
  -4   2  -1  121.79    5.50
  -4   2  -1  112.69    6.30
   4   2   1  113.89    6.20
   5  -2   1   75.79    4.70
   5  -2   1   62.39    4.10
  -5  -2  -1   78.99    3.90
  -5  -2  -1   75.19    3.80
  -5  -2  -1   80.39    4.30
  -5  -2  -1   86.89    4.00
   5   2   1   78.09    4.20
   5   2   1   76.39    4.70
  -5   2  -1   82.19    5.60
  -5   2  -1   82.69    4.90
  -5   2  -1   76.49    5.40
  -5   2  -1   79.89    8.10
   6  -2   1    8.40    1.80
  -6  -2  -1    9.50    1.30
  -6  -2  -1    6.40    1.50
   6  -2   1    7.60    1.20
  -6  -2  -1   11.10    1.10
   6  -2   1    6.50    1.10
  -6  -2  -1    9.10    1.50
  -6   2  -1    4.00    1.80
   6   2   1    4.90    1.60
  -6   2  -1    2.40    2.50
  -6   2  -1    3.60    1.90
  -6   2  -1    3.20    2.30
   6   2   1    3.10    1.10
   7  -2   1   13.50    1.70
  -7  -2  -1    9.50    1.20
   7  -2   1   11.40    1.90
   7  -2   1    8.80    2.30
  -7   2  -1   19.20    3.40
  -7   2  -1   17.30    3.90
  -7   2  -1   22.50    3.20
  -7   2  -1   20.50    1.30
   8  -2   1  249.88   11.90
   8  -2   1  251.47   11.80
  -8  -2  -1  244.88   11.90
   8  -2   1  248.18   12.20
  -8   2  -1  249.97   12.90
  -8   2  -1  257.87   12.60
   8   2   1  247.78   12.60
  -8   2  -1  278.77   13.60
   9  -2   1   78.09    3.80
  -9  -2  -1   62.39    5.40
   9  -2   1   73.39    4.30
  -9  -2  -1   73.79    4.50
   9   2   1   55.99    3.50
  -9   2  -1   55.19    3.60
  -9   2  -1   48.80    4.00
   9  -3  -1   20.50    1.70
   9  -3  -1   21.70    2.50
   9  -3  -1   20.10    2.00
  -9  -3   1   20.30    2.10
  -9   3   1   29.00    2.90
   9   3  -1   27.80    3.00
  -9   3   1   30.60    2.60
  -9   3   1   25.70    3.90
   8  -3  -1  419.46   20.10
  -8  -3   1  425.36   20.20
   8  -3  -1  424.16   20.40
   8  -3  -1  461.35   20.20
  -8   3   1  407.56   19.80
  -8   3   1  380.66   18.90
  -8   3   1  406.46   19.80
   8   3  -1  439.46   19.50
  -8   3   1  432.26   19.60
   7  -3  -1  539.75   22.80
   7  -3  -1  515.75   22.90
  -7  -3   1  488.35   22.90
  -7  -3   1  462.95   22.60
  -7  -3   1  480.05   22.80
   7  -3  -1  467.95   23.00
  -7   3   1  479.75   22.70
  -7   3   1  475.65   22.10
  -7   3   1  479.85   23.00
  -7   3   1  487.25   23.00
   7   3  -1  489.45   22.70
   6  -3  -1  393.56   18.70
  -6  -3   1  421.46   18.60
  -6  -3   1  420.96   19.10
  -6  -3   1  407.36   18.80
   6  -3  -1  371.06   18.90
   6   3  -1  384.26   18.10
  -6   3   1  393.26   18.50
  -6   3   1  378.16   18.40
  -6   3   1  381.56   19.00
  -6   3   1  380.66   18.20
  -6   3   1  382.26   17.60
  -5  -3   1  391.66   16.90
   5  -3  -1  348.67   17.00
  -5  -3   1  369.06   16.70
   5  -3  -1  332.77   16.70
   5   3  -1  390.16   17.80
  -5   3   1  356.56   18.60
  -5   3   1  370.36   17.80
  -5   3   1  398.26   17.40
  -5   3   1  375.26   18.10
  -4  -3   1 2733.53  133.69
  -4  -3   1 3147.98  133.29
  -4  -3   1 2868.41  142.19
  -4  -3   1 3022.40  133.39
  -4  -3   1 2916.91  133.29
  -4   3   1 3083.49  133.99
  -4   3   1 2801.32  138.69
  -4   3   1 2953.50  134.09
  -3  -3   1 1042.60   50.59
  -3  -3   1  917.21   43.90
  -3  -3   1  914.21   49.80
  -3  -3   1  971.00   44.20
   3  -3  -1  986.90   44.20
  -3   3   1  997.70   42.70
   3   3  -1  950.80   42.90
  -3   3   1  913.61   46.60
  -3   3   1  891.11   45.80
  -2  -3   1 1374.66   66.49
  -2  -3   1 1437.06   66.49
   2  -3  -1 1386.76   63.09
  -2  -3   1 1410.46   63.19
   2  -3  -1 1337.17   62.89
   2   3  -1 1361.86   62.99
   2   3  -1 1407.46   62.69
  -2   3   1 1359.96   64.69
  -1  -3   1  697.63   33.40
  -1  -3   1  733.53   33.30
   1  -3  -1  706.13   33.20
  -1  -3   1  691.23   31.60
   1  -3  -1  637.44   31.40
   1   3  -1  878.11   39.20
  -1   3   1  854.01   40.90
  -1   3   1  855.21   39.00
   1   3  -1  838.92   39.10
   0  -3  -1  752.52   34.80
   0  -3   1  754.02   34.90
   0  -3  -1  789.82   37.30
   0   3   1  848.22   39.60
   0   3  -1  794.62   37.40
  -1  -3  -1  106.89    5.20
  -1  -3  -1  120.69   11.30
  -1   3  -1  141.89    7.20
   1   3   1  151.68    7.00
   1   3   1  167.48    7.10
   1   3   1  141.59   11.70
  -2  -3  -1  725.13   31.90
  -2  -3  -1  662.73   38.20
   2   3   1  603.24   29.10
  -2   3  -1  666.73   29.10
   2   3   1  637.94   34.30
  -3  -3  -1 1199.18   55.49
  -3  -3  -1 1259.77   55.49
  -3  -3  -1 1198.18   65.59
   3   3   1 1532.15   74.19
  -3   3  -1 1522.65   66.29
  -3   3  -1 1326.27   68.89
  -4  -3  -1   60.49    3.10
  -4  -3  -1   55.09    3.00
  -4  -3  -1   60.49    3.10
  -4  -3  -1   58.59    3.50
  -4   3  -1   60.69    4.60
  -4   3  -1   59.99    4.10
   4   3   1   58.49    4.10
  -4   3  -1   70.79    5.30
  -4   3  -1   59.39    2.90
  -4   3  -1   58.09    2.90
  -5  -3  -1  212.78   10.30
  -5  -3  -1  233.58   10.90
   5  -3   1  206.18   10.80
   5  -3   1  226.78   10.30
  -5  -3  -1  230.78   10.30
   5  -3   1  196.08   10.40
   5   3   1  205.38   10.10
  -5   3  -1  206.68   10.50
  -5   3  -1  193.38    9.30
  -5   3  -1  206.68   10.70
  -5   3  -1  201.88   11.30
  -6  -3  -1  461.25   20.60
   6  -3   1  448.26   20.50
   6  -3   1  408.06   20.40
  -6  -3  -1  445.66   20.30
   6  -3   1  425.96   20.80
  -6  -3  -1  453.75   20.50
  -6   3  -1  460.15   21.00
  -6   3  -1  457.15   20.50
  -6   3  -1  445.86   20.80
  -6   3  -1  427.06   20.80
  -6   3  -1  383.66   21.70
  -6   3  -1  418.46   19.80
   6   3   1  434.16   20.40
  -7  -3  -1  144.09    7.10
   7  -3   1  136.99    6.80
   7  -3   1  137.19    7.40
  -7  -3  -1  152.28    7.40
   7  -3   1  115.09    6.80
  -7   3  -1  114.19    6.90
  -7   3  -1  106.79    6.60
  -7   3  -1  104.59    6.20
   7   3   1  102.69    5.90
  -7   3  -1   96.59    4.90
  -7   3  -1  102.39    5.90
   8  -3   1  259.87   13.10
  -8  -3  -1  257.27   12.30
   8  -3   1  244.28   12.20
   8  -3   1  267.57   12.20
  -8   3  -1  251.97   12.50
   8   3   1  259.27   12.30
  -8   3  -1  261.87   13.30
  -8   3  -1  244.78   12.90
  -8   3  -1  247.48   12.30
  -9  -3  -1   82.99    5.40
   9  -3   1   82.59    4.50
   9  -3   1   91.99    4.30
  -9  -3  -1   83.09    5.60
  -9   3  -1   83.49    4.50
  -9   3  -1   68.29    4.30
   9  -4  -1  442.16   20.80
   9  -4  -1  438.96   20.90
   9  -4  -1  466.35   20.70
  -9  -4   1  449.86   20.80
  -9   4   1  437.36   20.50
  -9   4   1  414.46   20.40
  -9   4   1  461.85   21.10
   8  -4  -1   19.20    1.80
  -8  -4   1   16.60    2.10
   8  -4  -1   19.60    2.10
   8  -4  -1   19.00    1.90
  -8  -4   1   17.60    2.10
  -8   4   1   13.30    2.10
   8   4  -1   14.60    2.80
  -8   4   1   12.80    2.10
  -8   4   1   16.80    1.90
   7  -4  -1  114.49    6.00
   7  -4  -1  116.59    6.00
  -7  -4   1  120.99    6.40
  -7  -4   1  124.79    6.20
  -7  -4   1  118.09    5.80
   7  -4  -1  112.59    6.40
  -7   4   1  123.09    5.80
  -7   4   1  115.99    7.20
  -7   4   1  131.49    6.80
   7   4  -1  131.89    7.10
  -7   4   1  129.49    7.20
  -7   4   1  125.49    8.50
  -6  -4   1    9.90    1.10
  -6  -4   1   11.80    1.50
  -6  -4   1   11.20    1.50
   6  -4  -1    7.60    1.30
   6  -4  -1   10.50    1.90
  -6   4   1    8.50    1.80
  -6   4   1   10.10    0.70
  -6   4   1   11.30    0.80
  -6   4   1   10.70    2.90
   6   4  -1   10.50    2.30
  -6   4   1    9.20    2.30
  -6   4   1    8.90    1.70
  -5  -4   1  236.38   10.30
  -5  -4   1  241.88   10.70
   5  -4  -1  204.48   10.70
  -5  -4   1  210.98   10.20
   5  -4  -1  190.38   10.40
  -5   4   1  208.98    9.30
  -5   4   1  211.18   11.10
  -5   4   1  214.18   10.70
  -5   4   1  198.18   10.30
  -5   4   1  199.88   10.10
   5   4  -1  201.98   10.30
  -5   4   1  206.18    9.30
  -5   4   1  177.98   11.80
  -4  -4   1  107.49    5.40
  -4  -4   1  112.79    5.60
  -4  -4   1  104.69    6.40
  -4   4   1  115.69    6.20
  -4   4   1  119.49    5.40
  -4   4   1   98.89    7.50
  -4   4   1  114.29    7.10
  -4   4   1  113.09    6.50
  -4   4   1  129.69    5.40
   3  -4  -1  214.58   10.90
  -3  -4   1  236.88   10.90
  -3  -4   1  225.08   25.30
  -3   4   1  263.17   11.30
  -3   4   1  239.88   12.20
   3   4  -1  253.17   11.80
  -3   4   1  246.98   11.70
  -3   4   1  243.58   12.60
  -3   4   1  244.38   18.60
  -3   4   1  245.78   12.00
  -2  -4   1  211.88   10.40
   2  -4  -1  227.78   10.20
   2  -4  -1  218.38   10.10
  -2  -4   1  220.78   18.50
  -2   4   1  239.48   14.00
  -2   4   1  246.38   11.10
  -2   4   1  252.37   11.10
   2   4  -1  236.88   11.90
   2   4  -1  249.88   11.60
  -2   4   1  241.78   14.80
  -1  -4   1 1403.46   65.29
  -1  -4   1 1422.26   67.09
  -1  -4   1 1570.64   67.19
   1  -4  -1 1321.07   65.09
   1  -4  -1 1466.55   66.79
   1   4  -1 1549.34   68.69
  -1   4   1 1464.45   69.99
   0  -4  -1  479.55   25.50
   0  -4   1  470.45   21.60
   0  -4  -1  460.35   21.50
   0   4   1  493.05   26.00
   0   4   1  502.45   22.60
   0   4  -1  497.45   23.00
   1  -4   1   19.70    1.70
  -1  -4  -1   16.20    1.30
  -1  -4  -1   19.00    9.70
   1   4   1   18.90    8.30
   1   4   1   16.30    1.00
  -1   4  -1   17.60    1.50
  -2  -4  -1   18.50   14.90
  -2  -4  -1   29.80    1.80
   2   4   1   23.50    2.20
   2   4   1   25.80    1.40
   2   4   1   36.10   12.80
  -2   4  -1   24.30    1.90
  -2   4  -1   25.20    3.50
  -3  -4  -1 1311.57   55.89
  -3  -4  -1 1188.58   55.39
  -3  -4  -1 1152.28   55.29
  -3   4  -1 1232.28   56.09
  -3   4  -1 1177.38   56.79
  -3   4  -1 1292.17   59.19
  -3   4  -1 1263.17   56.69
  -3   4  -1 1217.18   56.39
  -3   4  -1 1208.48   56.59
  -3   4  -1 1227.88   56.09
  -4  -4  -1  120.19    6.00
  -4  -4  -1  126.19    6.10
  -4  -4  -1  127.19    6.40
  -4   4  -1  119.09    7.10
  -4   4  -1  108.59    6.00
  -4   4  -1  115.89    6.30
  -4   4  -1  115.99    7.30
  -4   4  -1  114.09    6.70
  -4   4  -1   99.99   11.90
  -4   4  -1  124.79    6.80
   4   4   1  114.19    6.50
  -5  -4  -1  235.48   10.70
   5  -4   1  186.28   11.20
  -5  -4  -1  223.78   10.50
   5  -4   1  224.08   10.70
   5  -4   1  216.08   10.40
  -5  -4  -1  224.28   10.30
  -5   4  -1  262.87   13.10
  -5   4  -1  255.07   12.80
  -5   4  -1  263.07   13.40
   5   4   1  251.67   12.40
  -5   4  -1  248.78   12.50
  -5   4  -1  242.78   12.80
   6  -4   1    8.20    2.30
  -6  -4  -1    1.90    1.30
  -6  -4  -1    2.10    1.50
  -6  -4  -1    3.70    0.90
   6  -4   1    1.80    1.20
   6  -4   1    1.30    1.00
  -6   4  -1    4.30    3.80
  -6   4  -1    1.70    3.00
   6   4   1    6.10    2.00
  -6   4  -1    1.20    1.50
  -6   4  -1    2.20    1.80
  -6   4  -1    4.90    1.70
  -7  -4  -1  170.98    8.50
   7  -4   1  159.18    9.00
   7  -4   1  159.78    8.30
  -7  -4  -1  191.98   10.40
   7  -4   1  175.78    8.40
  -7  -4  -1  174.08    8.20
  -7   4  -1  170.38    8.60
  -7   4  -1  174.98    9.70
   7   4   1  167.58    8.70
  -7   4  -1  164.18    8.90
  -7   4  -1  164.18    8.80
   8  -4   1  289.07   13.40
  -8  -4  -1  281.87   13.40
   8  -4   1  264.37   13.60
   8  -4   1  296.77   13.30
  -8   4  -1  250.07   12.40
  -8   4  -1  249.97   12.10
   8   4   1  248.58   12.00
  -8   4  -1  252.87   12.30
   9  -4   1   12.60    1.30
   9  -4   1   13.40    3.00
  -9   4  -1    5.70    1.10
  -9   4  -1    6.80    1.30
   9  -5  -1  123.09    6.60
  -9  -5   1  132.59    6.30
   9  -5  -1  132.49    6.30
  -9   5   1  141.99    7.30
   8  -5  -1   87.29    5.50
  -8  -5   1   88.59    4.80
   8  -5  -1   92.39    4.80
   8  -5  -1   96.19    4.70
  -8  -5   1   91.49    4.60
  -8   5   1   63.59    4.40
  -8   5   1   62.89    4.30
  -8   5   1   66.29    4.00
  -7  -5   1  243.88   11.60
  -7  -5   1  237.98   12.00
   7  -5  -1  240.38   11.80
   7  -5  -1  251.17   11.70
  -7  -5   1  249.38   11.90
   7  -5  -1  262.37   12.20
  -7   5   1  225.98   11.60
  -7   5   1  241.18   12.50
  -7   5   1  221.98   11.60
  -7   5   1  228.08   11.30
  -6  -5   1  101.89    5.40
   6  -5  -1   94.39    6.00
  -6  -5   1   96.19    5.00
   6  -5  -1   97.49    5.20
  -6  -5   1  101.09    5.30
  -6   5   1   99.59    5.90
  -6   5   1  100.79    6.40
  -6   5   1  101.19    6.30
  -6   5   1  107.39    7.00
  -5  -5   1  153.78    7.60
  -5  -5   1  157.68    7.40
   5  -5  -1  139.69    7.60
  -5   5   1  156.38    8.60
  -5   5   1  163.68    9.10
  -5   5   1  148.19    8.10
  -4  -5   1  146.69    7.30
  -4  -5   1  144.79    7.10
  -4   5   1  112.69    6.70
  -4   5   1  117.99   11.90
  -4   5   1  113.79    9.30
  -4   5   1  119.69    7.20
   4   5  -1   93.19    7.10
  -4   5   1  128.19    8.10
  -4   5   1  114.99    5.90
  -3  -5   1  338.37   15.50
  -3  -5   1  309.37   15.60
  -3  -5   1  328.67   15.20
   3   5  -1  313.57   16.10
  -3   5   1  362.86   19.80
  -3   5   1  344.47   15.90
  -3   5   1  341.27   16.50
  -3   5   1  347.57   16.90
   3   5  -1  342.07   19.80
   3   5  -1  359.46   16.30
  -3   5   1  313.27   16.70
  -3   5   1  338.27   16.20
  -2  -5   1  341.27   29.40
  -2  -5   1  350.86   15.90
   2  -5  -1  326.77   15.60
  -2   5   1  398.36   18.90
   2   5  -1  462.45   24.60
  -2   5   1  406.46   19.10
   2   5  -1  385.16   19.30
  -2   5   1  385.96   19.40
  -2   5   1  361.86   19.30
  -2   5   1  441.86   22.20
  -2   5   1  382.06   18.50
   2   5  -1  362.56   19.30
   2   5  -1  404.96   18.70
   2   5  -1  403.66   19.00
   1  -5  -1  637.34   29.20
  -1   5   1  726.93   34.20
   1   5  -1  817.12   34.20
  -1   5   1  789.92   33.50
   1   5  -1  631.34   38.80
   1   5  -1  702.73   33.20
   1   5  -1  682.13   33.10
  -1   5   1  691.23   33.60
   0  -5   1  650.83   30.40
   0  -5  -1  667.13   30.20
   0  -5  -1  670.33   39.60
   0   5   1  657.03   31.50
   0   5   1  646.24   34.70
   0   5  -1  695.73   30.70
   0   5   1  642.54   31.10
   0   5   1  650.13   30.50
   0   5  -1  670.33   31.30
   0   5   1  669.23   30.20
   0   5  -1  680.43   31.00
   1  -5   1 1195.38   54.39
  -1  -5  -1 1129.79   62.19
  -1  -5  -1 1230.68   54.19
  -1   5  -1 1255.67   60.39
  -1   5  -1 1333.17   59.79
   1   5   1 1209.28   59.59
  -1   5  -1 1315.67   59.89
   1   5   1 1286.37   59.39
  -1   5  -1 1355.16   62.89
   1   5   1 1272.87   65.59
  -1   5  -1 1309.67   59.69
  -1   5  -1 1304.07   59.99
  -1   5  -1 1265.47   60.09
  -1   5  -1 1360.36   60.39
   1   5   1 1441.26   62.89
   2  -5   1  645.74   31.90
   2  -5   1  721.93   32.60
  -2  -5  -1  720.03   32.10
  -2  -5  -1  704.73   32.20
  -2  -5  -1  714.23   32.30
  -2   5  -1  678.43   31.40
   2   5   1  673.63   30.80
  -2   5  -1  670.13   31.50
   2   5   1  594.34   31.00
  -2   5  -1  685.33   31.10
  -2   5  -1  692.03   31.80
  -2   5  -1  680.93   32.00
  -2   5  -1  685.03   34.50
  -2   5  -1  697.93   31.20
  -2   5  -1  710.03   31.70
  -3  -5  -1 1462.45   66.99
   3  -5   1 1444.16   67.59
  -3  -5  -1 1469.45   66.69
  -3  -5  -1 1492.05   66.89
  -3   5  -1 1562.74   69.69
  -3   5  -1 1491.45   70.29
  -3   5  -1 1567.64   70.59
  -3   5  -1 1547.65   70.29
  -3   5  -1 1507.45   70.09
  -3   5  -1 1551.54   70.49
  -3   5  -1 1488.85   73.09
  -3   5  -1 1534.75   69.79
  -4  -5  -1  230.58   11.30
  -4  -5  -1  223.98   10.90
  -4  -5  -1  243.88   11.10
  -4   5  -1  247.08   12.00
  -4   5  -1  253.07   12.40
  -4   5  -1  249.28   13.20
  -4   5  -1  245.88   12.70
  -4   5  -1  263.67   13.10
  -4   5  -1  256.57   12.70
  -5  -5  -1  113.69    5.70
  -5  -5  -1  116.79    5.90
   5  -5   1  106.99    6.00
  -5  -5  -1  110.39    5.50
   5  -5   1  100.69    5.50
  -5   5  -1  111.39    6.60
  -5   5  -1   99.79    7.20
  -5   5  -1  110.69    6.50
  -5   5  -1  115.29    7.40
  -5   5  -1  110.19    6.20
  -6  -5  -1  414.06   19.40
  -6  -5  -1  405.96   19.10
  -6  -5  -1  408.76   19.30
   6  -5   1  434.56   19.20
   6  -5   1  399.06   19.20
  -6   5  -1  389.26   18.50
  -6   5  -1  361.66   19.00
  -6   5  -1  384.66   18.40
  -6   5  -1  392.36   18.80
  -6   5  -1  379.56   18.20
   7  -5   1   11.40    3.20
  -7  -5  -1   11.80    1.70
   7  -5   1   11.20    1.40
   7  -5   1   10.20    1.40
  -7   5  -1   20.90    4.00
  -7   5  -1   16.80    2.20
  -7   5  -1   20.40    2.70
  -7   5  -1   14.90    4.30
  -7   5  -1   18.60    2.30
  -8  -5  -1  133.29    6.80
   8  -5   1  141.29    6.70
   8  -5   1  143.39    6.90
  -8   5  -1  125.09    7.10
  -8   5  -1  126.79    6.60
  -8   5  -1  129.09    6.40
   8  -6  -1   44.10    2.60
   8  -6  -1   47.10    2.80
  -8  -6   1   41.40    2.50
  -8  -6   1   45.50    2.70
  -8   6   1   52.09    3.60
  -8   6   1   53.59    3.20
  -7  -6   1  222.18   10.30
   7  -6  -1  214.48   10.40
  -7  -6   1  200.98   10.50
   7  -6  -1  235.18   10.40
  -7   6   1  176.58    8.60
  -7   6   1  164.98    9.00
  -7   6   1  164.28    9.60
  -7   6   1  176.48    8.90
  -6  -6   1   34.50    2.90
   6  -6  -1   31.80    2.80
  -6  -6   1   31.50    2.10
  -6  -6   1   33.50    2.70
  -6   6   1   36.20    3.10
  -6   6   1   35.40    4.30
  -6   6   1   35.30    4.10
  -6   6   1   37.70    3.60
  -5  -6   1  207.38    9.40
  -5  -6   1  193.38    9.70
  -5  -6   1  193.28    9.50
   5  -6  -1  190.28    9.60
  -5   6   1  178.58    9.30
  -5   6   1  201.98   10.20
  -5   6   1  167.58    9.50
  -5   6   1  176.48    9.90
  -4  -6   1   15.00    1.70
  -4  -6   1   14.70    1.60
  -4  -6   1   15.00    1.80
   4   6  -1   11.50    2.30
  -4   6   1   12.30    6.80
  -4   6   1   12.20    3.10
  -4   6   1   12.10    4.10
  -4   6   1    9.30    2.30
  -4   6   1   11.10    2.00
  -4   6   1   15.20    2.10
  -3  -6   1  136.79    7.50
  -3  -6   1  149.19    7.20
  -3  -6   1  147.99    7.10
  -3   6   1  155.88   12.60
  -3   6   1  161.28    9.80
   3   6  -1  169.28   12.40
  -3   6   1  162.48    8.50
  -3   6   1  158.18    7.90
  -3   6   1  158.98    8.80
   3   6  -1  169.28    9.00
  -3   6   1  157.18    9.10
   2  -6  -1   94.39    4.90
  -2   6   1  109.79    6.70
   2   6  -1  109.89    5.80
  -2   6   1  106.89    7.30
   2   6  -1   99.79    7.00
  -2   6   1  105.39    6.50
  -2   6   1  119.79   10.40
   2   6  -1  109.19    5.90
   2   6  -1  115.79    9.90
   2   6  -1   98.99    6.50
   1  -6  -1  372.96   17.20
  -1   6   1  395.36   19.80
   1   6  -1  383.66   19.20
  -1   6   1  451.55   23.00
   1   6  -1  392.56   19.50
   1   6  -1  377.46   19.20
   1   6  -1  383.66   19.80
   1   6  -1  409.16   18.80
   1   6  -1  404.36   19.00
   1   6  -1  455.35   22.80
  -1   6   1  409.16   19.50
  -1   6   1  380.96   18.70
  -1   6   1  399.36   19.70
   0  -6  -1  399.86   18.50
   0   6  -1  492.55   24.20
   0   6  -1  434.56   20.90
   0   6  -1  437.26   20.60
   0   6   1  418.06   21.00
   0   6  -1  454.95   20.00
   0   6   1  423.06   20.80
   0   6  -1  423.46   20.70
   0   6  -1  417.16   20.40
   0   6   1  363.76   20.60
   0   6   1  477.05   23.80
   0   6  -1  416.26   20.30
   0   6   1  397.66   19.90
   0   6  -1  439.56   20.20
   1  -6   1   43.20    2.70
  -1  -6  -1   40.50    3.30
  -1  -6  -1   41.20    5.30
  -1  -6  -1   46.90    2.60
  -1   6  -1   49.60    7.70
  -1   6  -1   46.40    4.60
  -1   6  -1   50.09    3.30
  -1   6  -1   54.19    4.70
  -1   6  -1   41.50    3.80
  -1   6  -1   44.30    4.20
  -1   6  -1   41.90    3.10
   1   6   1   49.40    7.70
  -1   6  -1   50.59    4.40
   1   6   1   43.70    5.70
   1   6   1   43.20    3.20
  -2  -6  -1   35.40    3.50
  -2  -6  -1   32.50    2.30
  -2  -6  -1   35.10    2.50
  -2   6  -1   33.10    3.00
  -2   6  -1   33.60    2.80
  -2   6  -1   45.60    3.90
  -2   6  -1   36.30    4.50
  -2   6  -1   40.20    4.10
  -2   6  -1   36.50    4.30
  -2   6  -1   38.10    7.60
   2   6   1   28.60    3.10
  -2   6  -1   36.70    4.40
  -3  -6  -1  976.20   44.80
  -3  -6  -1  985.30   45.10
  -3   6  -1 1088.39   46.10
  -3   6  -1  915.51   48.40
  -3   6  -1  974.70   45.60
  -3   6  -1  981.30   45.20
  -3   6  -1  959.40   45.30
  -3   6  -1  965.20   44.80
  -3   6  -1  974.80   45.50
  -4  -6  -1  260.17   12.30
  -4  -6  -1  262.57   12.70
  -4  -6  -1  264.07   12.50
  -4   6  -1  237.98   11.00
  -4   6  -1  192.08   15.20
  -4   6  -1  233.18   12.20
  -4   6  -1  232.48   11.40
  -4   6  -1  236.88   11.80
  -4   6  -1  234.08   11.70
  -4   6  -1  241.58   12.40
   5  -6   1  181.58    8.60
  -5  -6  -1  171.38    8.40
  -5  -6  -1  177.88    8.90
  -5  -6  -1  173.58    8.70
  -5   6  -1  181.58   10.00
  -5   6  -1  180.38    9.90
  -5   6  -1  171.88    9.00
  -5   6  -1  167.28    9.20
  -5   6  -1  175.18    9.30
  -6  -6  -1  121.59    6.30
   6  -6   1  120.19    6.40
  -6  -6  -1  123.69    5.90
   6  -6   1  121.39    6.00
  -6  -6  -1  106.39    6.50
  -6   6  -1  122.29    6.90
  -6   6  -1  141.39    8.30
  -6   6  -1  122.39    6.90
  -6   6  -1  123.29    7.90
  -6   6  -1  115.99    6.60
  -7  -6  -1  228.38   10.30
   7  -6   1  220.38   10.50
  -7  -6  -1  218.08   10.60
   7  -6   1  215.48   10.50
  -7   6  -1  198.88   10.00
  -7   6  -1  196.18    9.80
  -7   6  -1  201.38   11.60
  -7   6  -1  196.68    9.70
  -8  -6  -1   35.40    2.30
   8  -6   1   36.50    2.30
  -8   6  -1   29.20    2.10
  -8   6  -1   29.10    3.70
  -7  -7   1   39.20    2.30
  -7  -7   1   37.80    2.60
   7  -7  -1   48.70    3.60
   7  -7  -1   39.60    2.60
  -7   7   1   37.20    2.60
  -7   7   1   33.50    4.10
  -7   7   1   39.00    3.00
  -6  -7   1  100.79    5.10
   6  -7  -1  104.39    5.30
  -6  -7   1  101.39    5.50
   6  -7  -1  107.39    5.40
  -6   7   1  103.79    5.70
  -6   7   1   89.09    6.30
  -6   7   1  100.59    5.40
  -5  -7   1   58.69    3.80
   5  -7  -1   51.99    4.20
  -5  -7   1   64.79    3.30
  -5   7   1   73.09    5.20
  -5   7   1   69.69    4.70
  -5   7   1   64.69    4.40
  -4  -7   1 1031.20   45.20
  -4  -7   1  946.31   45.40
  -4   7   1 1057.89   48.80
   4   7  -1  964.70   48.10
  -4   7   1 1067.79   48.50
  -4   7   1 1122.19   49.30
  -3  -7   1  491.25   23.00
  -3  -7   1  513.75   23.20
  -3  -7   1  491.75   23.30
  -3   7   1  504.05   22.60
  -3   7   1  442.66   26.40
  -3   7   1  497.85   23.30
  -3   7   1  468.65   23.60
   3   7  -1  470.05   22.50
  -3   7   1  507.25   22.90
  -3   7   1  510.75   23.70
  -2  -7   1  730.83   32.10
  -2  -7   1  662.03   31.90
  -2   7   1  782.92   39.40
  -2   7   1  738.83   36.00
  -2   7   1  767.82   35.30
  -2   7   1  718.23   35.70
   2   7  -1  837.22   39.50
  -2   7   1  784.62   36.30
   2   7  -1  746.83   35.30
  -2   7   1  763.92   35.90
  -1  -7   1   57.39    3.40
   1  -7  -1   55.19    3.60
   1   7  -1   41.70    4.70
  -1   7   1   49.80    5.40
  -1   7   1   47.10    5.00
   1   7  -1   43.10    4.50
  -1   7   1   60.29    8.00
   1   7  -1   48.60    3.20
   1   7  -1   46.60    4.40
   1   7  -1   58.19    8.10
  -1   7   1   46.90    3.20
   1   7  -1   44.00    5.90
  -1   7   1   48.40    4.70
   0  -7  -1  119.59    6.00
   0  -7   1  115.59    6.00
   0   7  -1  124.59   10.30
   0   7  -1  111.79    6.90
   0   7   1  100.19    7.30
   0   7   1  124.19   10.20
   0   7  -1  113.19    5.80
   0   7  -1  110.89    6.20
   0   7  -1  113.39    7.20
   0   7   1  104.79    5.70
   0   7  -1  109.49    6.70
   0   7   1  105.79    7.30
   0   7  -1   88.89    6.60
   1  -7   1  675.33   30.90
  -1  -7  -1  659.73   30.90
  -1  -7  -1  681.63   30.70
  -1  -7  -1  642.94   30.50
   1   7   1  584.14   29.50
  -1   7  -1  639.24   28.60
  -1   7  -1  592.04   28.90
   1   7   1  578.64   28.50
  -1   7  -1  611.74   29.10
  -1   7  -1  651.63   32.90
  -1   7  -1  626.54   28.80
  -1   7  -1  631.04   28.90
  -1   7  -1  649.04   29.70
  -1   7  -1  622.24   29.40
  -2  -7  -1  406.56   18.20
  -2  -7  -1  382.16   18.00
  -2  -7  -1  374.36   18.40
  -2   7  -1  382.26   21.40
  -2   7  -1  369.16   17.90
  -2   7  -1  375.06   18.20
  -2   7  -1  341.77   17.40
  -2   7  -1  360.86   17.30
   2   7   1  326.87   16.90
  -2   7  -1  372.96   16.90
  -2   7  -1  361.46   17.60
  -3  -7  -1  398.46   18.10
  -3  -7  -1  378.06   18.40
  -3  -7  -1  389.76   18.30
  -3   7  -1  365.36   18.00
  -3   7  -1  360.06   17.40
  -3   7  -1  344.77   17.00
  -3   7  -1  387.66   18.30
  -3   7  -1  319.87   17.10
  -3   7  -1  343.77   16.60
  -4  -7  -1  494.95   21.70
  -4  -7  -1  445.76   22.00
  -4  -7  -1  466.95   21.90
  -4   7  -1  471.25   22.10
  -4   7  -1  454.95   22.60
  -4   7  -1  475.35   21.70
  -4   7  -1  491.15   23.00
  -4   7  -1  465.35   22.40
  -4   7  -1  447.86   22.20
  -5  -7  -1  247.08   11.70
   5  -7   1  217.68   11.40
  -5  -7  -1  262.17   11.30
  -5  -7  -1  232.68   11.60
  -5   7  -1  237.88   12.40
  -5   7  -1  241.38   11.80
  -5   7  -1  251.37   11.70
  -5   7  -1  214.98   12.40
  -5   7  -1  244.58   12.00
  -6  -7  -1  287.17   13.50
   6  -7   1  281.87   14.10
  -6  -7  -1  297.77   13.30
   6  -7   1  274.77   13.40
  -6   7  -1  240.78   12.90
  -6   7  -1  254.97   12.20
  -6   7  -1  257.57   12.30
  -6   7  -1  260.77   12.40
   7  -7   1   18.70    2.10
  -7  -7  -1   17.00    1.60
  -7  -7  -1   16.00    1.50
  -7   7  -1   19.90    2.30
  -7   7  -1   21.70    1.90
  -6  -8   1   36.40    2.60
   6  -8  -1   33.30    2.80
  -6  -8   1   36.90    2.10
   6  -8  -1   26.90    3.00
  -6   8   1   32.10    3.60
  -6   8   1   43.40    3.00
  -6   8   1   39.20    2.80
  -5  -8   1  120.29    6.60
  -5  -8   1  135.49    6.40
  -5   8   1  113.19    5.60
  -5   8   1   88.49    6.50
  -4  -8   1    1.40    1.90
  -4  -8   1    1.80    1.80
  -4  -8   1    0.70    0.80
  -4   8   1    2.80    1.90
  -4   8   1    0.00    1.80
  -4   8   1    1.40    1.60
  -3  -8   1   73.29    4.50
  -3  -8   1   77.09    5.50
  -3  -8   1   74.79    4.10
   3   8  -1   74.59    4.40
  -3   8   1   81.89    5.60
  -3   8   1   80.19    5.40
  -3   8   1   81.09    5.40
  -2  -8   1   44.60    3.20
  -2  -8   1   44.00    3.30
  -2   8   1   37.40    4.30
   2   8  -1   38.90    2.80
  -2   8   1   39.60    2.70
  -2   8   1   39.40    4.30
   2   8  -1   39.30    6.80
  -1  -8   1    7.90    1.70
   1   8  -1   10.80    4.80
  -1   8   1   13.60    2.70
  -1   8   1   11.50    2.70
  -1   8   1   12.80    1.40
   1   8  -1    7.90    3.40
   1   8  -1   10.10    1.40
   1   8  -1   14.00    2.80
   0  -8  -1   57.29    4.60
   0  -8   1   57.99    4.40
   0  -8  -1   60.09    4.30
   0   8  -1   57.49    4.80
   0   8  -1   61.39    5.30
   0   8  -1   70.29    8.20
   0   8   1   58.19    5.50
   0   8  -1   58.69    3.50
   0   8  -1   58.39    5.10
   0   8  -1   51.49    5.40
   0   8   1   59.49    3.70
  -1  -8  -1   44.00    3.20
  -1  -8  -1   45.10    3.50
  -1   8  -1   53.49    4.30
  -1   8  -1   48.10    5.00
  -1   8  -1   43.30    4.50
   1   8   1   40.40    6.00
   1   8   1   44.40    3.30
  -1   8  -1   54.79    7.30
  -1   8  -1   41.00    4.70
  -1   8  -1   46.60    3.00
  -1   8  -1   48.60    4.50
  -2  -8  -1    1.30    2.10
  -2  -8  -1    3.10    1.10
  -2  -8  -1    0.80    1.50
  -2   8  -1    0.20    2.60
  -2   8  -1    2.80    1.70
  -2   8  -1    2.70    1.90
  -2   8  -1    2.30    2.30
  -2   8  -1    1.70    1.00
  -2   8  -1    4.00    2.60
   2   8   1    0.80    1.70
  -2   8  -1    2.10    4.40
  -3  -8  -1  606.84   28.60
  -3  -8  -1  608.34   28.40
  -3  -8  -1  637.24   28.70
  -3   8  -1  607.94   28.00
  -3   8  -1  622.44   27.80
  -3   8  -1  621.54   28.90
  -3   8  -1  573.14   28.10
  -3   8  -1  610.94   28.40
  -3   8  -1  579.74   28.50
  -4  -8  -1    4.30    0.90
  -4   8  -1    0.80    1.80
  -4   8  -1    1.90    1.40
  -4   8  -1    2.70    5.10
  -4   8  -1    2.40    2.50
  -4   8  -1    0.40    3.10
  -4   8  -1    3.00    1.30
  -5  -8  -1   46.40    2.60
  -5  -8  -1   47.00    3.10
  -5   8  -1   34.20    3.70
  -5   8  -1   38.80    2.70
  -5   8  -1   40.50    3.00
  -6  -8  -1  238.68   11.30
  -6  -8  -1  239.88   11.20
  -6   8  -1  202.98    9.40
  -6   8  -1  208.98    9.60
  -6   8  -1  179.88   10.10
  -5  -9   1   77.99    3.80
  -5  -9   1   70.09    5.00
  -5   9   1   79.09    5.10
  -5   9   1   87.29    5.20
  -4  -9   1  631.74   28.90
  -4   9   1  584.34   26.30
  -4   9   1  545.85   26.70
  -3  -9   1  236.08   11.10
  -3   9   1  190.28   10.60
  -3   9   1  208.18   10.00
  -2  -9   1  288.37   13.50
   2   9  -1  245.78   12.10
  -2   9   1  254.27   13.00
  -2   9   1  258.47   12.50
   1   9  -1  319.67   14.90
  -1   9   1  318.87   16.00
   0  -9  -1  159.28    8.00
   0   9  -1  164.48    9.60
   0   9  -1  146.39   11.00
   0   9  -1  158.28    7.30
   0   9  -1  130.49    8.90
  -1  -9  -1  178.78    8.70
  -1   9  -1  149.69    7.60
  -1   9  -1  136.29    6.60
  -1   9  -1  120.19    7.90
  -1   9  -1  123.19   10.00
  -2  -9  -1  272.47   12.80
  -2   9  -1  258.87   13.70
  -2   9  -1  282.87   13.00
  -2   9  -1  248.18   13.00
  -2   9  -1  252.67   12.20
  -2   9  -1  254.97   16.40
  -3  -9  -1   98.29    4.90
  -3  -9  -1   94.59    6.80
  -3   9  -1  121.29    7.30
  -3   9  -1  133.69    6.70
  -3   9  -1  128.79    7.10
  -3   9  -1  120.09    7.20
  -4  -9  -1  209.18    9.50
  -4  -9  -1  193.68    9.70
  -4   9  -1  174.08    9.60
  -4   9  -1  196.78    9.10
  -4   9  -1  179.68    8.90
  -3 -10   1   72.29    3.80
  -3  10   1   59.59    4.10
  -2  10   1   26.00    3.80
  -1  10   1    6.20    2.80
   0 -10  -1   56.29    4.00
   0  10  -1   23.90    4.40
  -1 -10  -1   49.60    3.20
  -1  10  -1   51.99    5.00
  -2 -10  -1    1.90    1.00
  -2  10  -1    2.10    2.90
 -10   0   2   28.20    2.70
  10   0  -2   30.40    2.50
   9   0  -2  275.37   13.10
  -9   0   2  289.67   13.70
   9   0  -2  291.17   13.60
   9   0  -2  267.07   13.50
   8   0  -2  750.42   34.40
   8   0  -2  754.72   34.70
   8   0  -2  768.72   34.40
  -8   0   2  720.13   34.10
  -8   0   2  733.23   35.00
   7   0  -2  340.67   16.10
  -7   0   2  328.87   15.90
  -7   0   2  332.77   16.40
   7   0  -2  338.27   16.20
  -7   0   2  336.17   15.70
   7   0  -2  354.26   15.90
   6   0  -2 1983.50   91.29
   6   0  -2 2009.30   91.39
  -6   0   2 2049.49   91.29
   6   0  -2 1991.00   91.29
   5   0  -2   97.39    5.20
  -5   0   2   93.39   21.80
  -5   0   2   98.59   20.50
  -5   0   2  101.39    4.70
  -5   0   2   99.79    5.10
   5   0  -2   96.49    4.90
  -4   0   2   49.40    2.40
  -4   0   2   33.20   10.30
  -4   0   2   55.19   11.20
  -3   0   2  164.08   12.40
   3   0  -2  139.59    7.30
   3   0  -2  154.08    6.90
   2   0  -2  118.89    5.20
  -2   0   2  111.99    5.40
   2   0  -2  110.29    5.20
  -2   0   2  116.99    8.70
   2   0  -2  109.99    8.80
   2   0  -2  108.59    5.40
   1   0  -2  308.27   13.10
  -1   0   2  292.17   13.20
   1   0  -2  272.77   13.20
   1   0  -2  300.27   15.30
   1   0  -2  273.47   13.10
  -1   0   2  276.17   15.30
   0   0  -2   54.09    5.70
   0   0  -2   61.29    2.80
   0   0  -2   59.69    2.80
   0   0   2   58.19    5.70
  -1   0  -2 2206.18  100.99
   1   0   2 2182.68  100.69
  -1   0  -2 2118.79   98.29
  -2   0  -2 7041.40  317.37
   2   0   2 6792.22  316.37
   3   0   2 3738.93  176.98
  -3   0  -2 3874.41  182.78
  -3   0  -2 4038.50  176.88
   3   0   2 3963.90  181.78
  -4   0  -2 1036.40   45.40
   4   0   2  993.30   45.70
  -4   0  -2  979.50   45.40
   4   0   2  999.20   45.80
   4   0   2  983.20   45.60
   5   0   2    4.30    1.00
   5   0   2    3.60    1.50
  -5   0  -2    6.50    1.70
  -5   0  -2    5.80    1.20
   5   0   2    5.40    1.10
  -5   0  -2    5.80    0.60
   6   0   2   72.49    4.00
   6   0   2   80.39    4.10
  -6   0  -2   67.99    5.40
  -6   0  -2   66.09    4.70
  -6   0  -2   70.29    3.60
   6   0   2   70.39    4.50
   7   0   2  112.99    6.20
  -7   0  -2  107.19    5.40
  -7   0  -2  108.69    6.80
   7   0   2  112.29    5.80
   7   0   2  109.09    5.60
  -8   0  -2   45.50    4.40
   8   0   2   40.80    3.30
   8   0   2   41.60    2.60
  -8   0  -2   42.60    3.60
   9   0   2   31.70    2.50
   9   0   2   38.20    2.60
  -9   0  -2   34.50    4.30
  -9   0  -2   33.50    2.80
  10  -1  -2   83.79    4.40
  10  -1  -2   83.69    4.60
 -10   1   2   97.79    5.30
  10   1  -2  101.19    5.10
 -10   1   2   86.49    5.40
   9  -1  -2   94.69    5.20
   9  -1  -2   95.89    5.10
  -9  -1   2   90.69    8.30
   9  -1  -2   87.49    4.70
  -9  -1   2   90.99    5.50
  -9   1   2   81.69    5.00
  -9   1   2   79.39    6.10
   9   1  -2   86.59    4.80
  -8  -1   2  105.89    5.50
  -8  -1   2   93.49    5.20
   8  -1  -2  106.89    5.40
  -8  -1   2  108.19    6.50
   8  -1  -2  102.89    5.70
   8  -1  -2  110.59    5.60
   8   1  -2   99.39    5.40
   8   1  -2   95.39    5.60
  -8   1   2   89.19    5.40
   8   1  -2   92.49    5.00
  -8   1   2   94.09    6.20
  -8   1   2   93.99    4.60
  -7  -1   2   86.19    4.40
  -7  -1   2   87.39    6.30
   7  -1  -2   88.09    4.60
   7  -1  -2   86.89    4.60
   7  -1  -2   82.79    4.90
  -7  -1   2   88.69    4.70
   7   1  -2   71.79    4.40
  -7   1   2   72.19    3.60
  -7   1   2   68.59    5.10
  -7   1   2   65.49    4.40
   7   1  -2   77.59    4.30
   7   1  -2   73.39    4.00
  -6  -1   2  269.27   12.10
  -6  -1   2  268.97   12.30
  -6  -1   2  246.88   12.10
   6  -1  -2  249.58   12.20
  -6  -1   2  261.97   12.10
   6  -1  -2  262.27   12.40
   6   1  -2  225.68   11.10
   6   1  -2  227.58   10.90
   6   1  -2  259.77   11.00
  -6   1   2  217.28   10.90
  -6   1   2  223.88   11.50
  -6   1   2  225.18   10.70
  -5  -1   2  357.46   35.30
  -5  -1   2  312.77   14.60
  -5  -1   2  300.17   14.00
   5  -1  -2  304.47   14.10
  -5  -1   2  404.46   45.90
  -5  -1   2  302.57   14.00
  -5  -1   2  288.97   14.30
   5  -1  -2  287.47   14.20
   5   1  -2  268.77   12.50
   5   1  -2  266.77   12.50
  -5   1   2  277.17   12.30
  -5   1   2  267.27   30.60
   5   1  -2  259.47   12.90
  -4  -1   2  198.78   23.40
  -4  -1   2  157.68   19.00
  -4  -1   2  155.38    7.40
  -4  -1   2  159.68    7.80
  -4   1   2  153.08    7.10
   4   1  -2  141.49    6.70
   4   1  -2  136.79    6.90
  -4   1   2  142.99   17.10
  -4   1   2  156.78   16.70
   3  -1  -2  103.69    6.60
  -3  -1   2  117.99   11.80
   3  -1  -2  123.29   11.00
  -3  -1   2  113.59   11.90
  -3  -1   2  140.39    5.70
   3  -1  -2  121.59    5.70
  -3  -1   2  124.29    6.00
  -3   1   2  134.29    5.70
   3   1  -2  115.29    5.50
   3   1  -2  100.39    5.90
  -3   1   2  120.59   11.30
  -2  -1   2  251.87   14.40
   2  -1  -2  251.67   11.50
   2  -1  -2  249.28   14.50
   2  -1  -2  246.08   11.30
   2  -1  -2  239.48   11.30
  -2   1   2  259.37   14.40
   2   1  -2  235.18   11.10
   2   1  -2  241.48   14.10
  -2   1   2  241.58   11.10
   2   1  -2  237.38   11.30
   2   1  -2  237.28   11.00
  -1  -1   2 9234.38  402.16
   1  -1  -2 8454.65  402.26
  -1   1   2 8266.27  370.16
   1   1  -2 7989.60  369.56
   0  -1  -2  576.34   26.60
   0  -1   2  597.44   28.30
   0  -1  -2  579.94   29.10
   0   1  -2  622.54   29.30
   0   1  -2  597.54   27.60
   0   1   2  577.84   30.10
   0   1  -2  622.94   27.50
  -1  -1  -2 2618.34  119.59
   1  -1   2 2519.55  118.29
   1   1   2 2744.53  128.99
  -1   1  -2 2805.02  128.29
  -1   1  -2 2799.42  126.09
  -2  -1  -2  546.15   30.10
  -2  -1  -2  497.95   24.10
   2  -1   2  539.95   27.70
  -2  -1  -2  540.85   24.10
   2   1   2  529.25   24.40
  -2   1  -2  506.05   28.30
  -2   1  -2  538.85   24.10
   2   1   2  563.64   29.20
  -2   1  -2  513.85   24.20
  -3  -1  -2  678.93   30.60
  -3  -1  -2  621.14   40.20
  -3  -1  -2  671.23   30.60
   3  -1   2  688.23   36.70
   3  -1   2  683.93   30.70
  -3   1  -2  642.74   38.00
   3   1   2  612.94   30.30
   3   1   2  689.73   37.80
  -3   1  -2  652.83   30.10
  -3   1  -2  715.83   30.20
   4  -1   2 1384.86   64.99
   4  -1   2 1385.86   65.19
  -4  -1  -2 1525.85   64.99
  -4  -1  -2 1546.95   65.19
   4  -1   2 1365.46   64.99
  -4  -1  -2 1333.97   81.19
   4   1   2 1515.85   66.09
   4   1   2 1443.86   77.69
   4   1   2 1353.56   65.89
   4   1   2 1409.36   66.09
  -4   1  -2 1401.46   66.19
  -4   1  -2 1561.24   65.79
  -5  -1  -2  142.59    7.30
   5  -1   2  136.99    7.50
   5  -1   2  133.59    7.10
  -5  -1  -2  139.59    7.00
  -5  -1  -2  165.58    6.90
   5  -1   2  143.69    7.10
   5   1   2  151.48    7.70
   5   1   2  141.99    7.30
  -5   1  -2  149.69    7.80
  -5   1  -2  152.08    7.00
   5   1   2  142.29    7.20
   6  -1   2 2213.18  105.79
   6  -1   2 2402.96  105.69
   6  -1   2 2228.88  105.59
  -6  -1  -2 2499.15  105.59
  -6  -1  -2 2261.87  105.49
  -6   1  -2 2268.47  105.99
   6   1   2 2226.18  105.69
   6   1   2 2299.47  105.99
  -6   1  -2 2506.85  106.39
   7  -1   2   43.70    2.90
   7  -1   2   39.10    3.50
  -7  -1  -2   37.90    3.50
   7  -1   2   44.70    2.80
  -7  -1  -2   45.00    2.60
  -7   1  -2   31.60    4.10
   7   1   2   37.30    2.50
  -7   1  -2   34.90    3.60
  -7   1  -2   37.30    2.00
  -7   1  -2   31.50    3.80
   7   1   2   40.80    3.30
  -8  -1  -2  179.58    9.10
   8  -1   2  179.08    8.40
   8  -1   2  168.78    8.80
  -8  -1  -2  164.78    9.20
  -8   1  -2  162.88    8.80
   8   1   2  174.58    8.60
  -9  -1  -2   41.80    3.30
  -9  -1  -2   51.29    4.10
   9  -1   2   42.80    2.60
   9  -1   2   48.00    3.10
   9   1   2   46.10    3.00
  -9   1  -2   46.70    3.20
  10  -2  -2  191.68    9.00
  10  -2  -2  183.68    9.10
 -10   2   2  181.58    9.40
  10   2  -2  194.28    9.40
 -10   2   2  209.48    9.80
   9  -2  -2  434.56   19.80
  -9  -2   2  405.86   19.80
   9  -2  -2  406.16   19.60
   9  -2  -2  430.96   19.50
   9   2  -2  439.66   19.90
  -9   2   2  406.96   19.90
  -9   2   2  418.36   20.20
  -9   2   2  428.26   20.20
   8  -2  -2   79.29    5.10
   8  -2  -2   95.79    4.70
  -8  -2   2   81.29    4.90
   8  -2  -2   99.69    4.90
  -8   2   2   67.89    4.80
  -8   2   2   65.89    4.30
  -8   2   2   62.79    3.30
   8   2  -2   65.59    4.20
   7  -2  -2  238.98   11.60
  -7  -2   2  237.08   11.40
  -7  -2   2  251.97   11.70
  -7  -2   2  241.78   11.60
  -7  -2   2  241.18   11.90
   7  -2  -2  252.37   11.60
   7  -2  -2  240.98   11.80
   7   2  -2  251.77   12.20
  -7   2   2  270.17   12.90
  -7   2   2  256.57   12.50
  -7   2   2  254.17   11.90
   7   2  -2  253.87   12.50
   6  -2  -2  490.05   21.70
  -6  -2   2  451.35   21.40
  -6  -2   2  456.55   22.10
   6  -2  -2  467.45   21.50
  -6   2   2  417.66   19.70
   6   2  -2  395.36   19.60
   6   2  -2  387.46   19.40
   6   2  -2  435.26   19.20
  -6   2   2  433.16   19.00
  -5  -2   2  413.86   18.90
  -5  -2   2  432.56   18.80
  -5  -2   2  407.66   18.70
   5  -2  -2  403.36   19.10
   5  -2  -2  379.66   19.30
  -5   2   2  418.56   20.10
   5   2  -2  422.96   19.80
   5   2  -2  421.16   20.40
  -5   2   2  438.66   19.50
  -4  -2   2  196.08   22.40
  -4  -2   2  244.28   24.30
  -4  -2   2  226.68   10.80
  -4   2   2  148.99   18.60
  -4   2   2  172.48    7.90
  -4   2   2  162.58   18.90
   4   2  -2  156.48    7.80
  -4   2   2  173.78    7.70
   3  -2  -2   98.49    5.10
   3  -2  -2   99.19   11.50
  -3  -2   2   98.19    4.70
  -3  -2   2  104.29   12.40
  -3  -2   2  106.99    5.10
  -3  -2   2   85.49   12.70
   3   2  -2  116.09    5.60
  -3   2   2  115.99   12.20
  -2  -2   2 1252.07   61.99
  -2  -2   2 1268.37   59.49
   2  -2  -2 1348.67   62.19
   2  -2  -2 1314.77   59.29
   2  -2  -2 1276.07   59.39
  -2  -2   2 1387.46   62.19
   2   2  -2 1059.99   51.59
   2   2  -2 1151.48   51.09
  -2   2   2 1162.98   54.29
   1  -2  -2 3779.32  184.28
  -1  -2   2 4264.77  186.58
  -1   2   2 4617.14  196.18
   1   2  -2 3829.92  193.08
   0  -2  -2  117.59    5.60
   0  -2   2  124.99    5.80
   0  -2  -2  116.59    9.80
   0  -2   2  114.99    8.20
   0   2  -2  157.28    9.20
   0   2  -2  168.58    7.50
   0   2   2  167.18    7.50
   0   2  -2  159.58    7.70
   0   2   2  169.18   11.80
  -1  -2  -2  601.84   26.80
  -1  -2  -2  565.84   26.90
   1  -2   2  611.04   28.60
  -1  -2  -2  580.04   31.60
   1   2   2  676.33   35.10
  -1   2  -2  655.33   31.20
   1   2   2  629.14   29.40
  -1   2  -2  623.84   29.40
   2  -2   2 2177.38   99.79
  -2  -2  -2 2179.18  103.19
  -2  -2  -2 2082.69   97.29
   2   2   2 2289.77  102.09
  -2   2  -2 2239.48  101.69
  -2   2  -2 2121.59  104.49
   2   2   2 2318.07  106.59
  -3  -2  -2 2879.01  142.09
  -3  -2  -2 3066.39  129.69
   3  -2   2 2637.04  129.69
  -3   2  -2 3063.49  141.59
   3   2   2 3188.28  149.49
   4  -2   2  899.11   41.00
  -4  -2  -2  760.32   99.79
  -4  -2  -2  928.81   40.90
   4  -2   2  830.32   41.20
  -4  -2  -2  927.01   41.10
   4  -2   2  935.31   41.00
  -4  -2  -2  874.01   40.90
  -4  -2  -2  912.71   40.90
  -4   2  -2  993.30   45.30
  -4   2  -2  944.61   44.70
  -4   2  -2  943.91   44.10
  -4   2  -2 1000.80   44.10
  -4   2  -2  989.10   44.60
  -4   2  -2  960.40   44.80
   4   2   2  934.01   44.50
  -4   2  -2 1030.40   44.20
  -4   2  -2  898.61   44.80
   4   2   2  997.30   44.20
  -5  -2  -2  198.08    8.80
  -5  -2  -2  183.18    8.70
   5  -2   2  171.88    8.80
  -5  -2  -2  189.58    8.80
   5  -2   2  173.78    9.30
   5  -2   2  185.58    8.90
  -5   2  -2  222.78   11.80
  -5   2  -2  198.98   12.90
  -5   2  -2  217.78   11.90
  -5   2  -2  231.58   11.20
  -5   2  -2  233.88   10.50
  -5   2  -2  240.58   11.60
   5   2   2  242.48   10.80
   5   2   2  223.18   11.20
  -6  -2  -2  345.97   16.50
  -6  -2  -2  358.26   16.50
  -6  -2  -2  366.96   16.70
   6  -2   2  356.66   16.60
   6  -2   2  347.27   16.90
   6  -2   2  339.57   16.50
  -6   2  -2  374.46   17.40
   6   2   2  371.66   17.40
  -6   2  -2  383.06   17.90
   6   2   2  371.56   17.00
  -6   2  -2  345.37   16.80
  -6   2  -2  372.26   17.80
  -6   2  -2  332.37   17.90
  -7  -2  -2  281.47   14.00
  -7  -2  -2  285.17   13.90
   7  -2   2  298.07   13.90
   7  -2   2  313.67   13.90
   7  -2   2  284.47   14.20
   7   2   2  260.07   13.10
  -7   2  -2  263.77   13.40
  -7   2  -2  262.87   13.10
  -7   2  -2  303.57   13.70
  -7   2  -2  255.47   12.40
  -8  -2  -2   20.50    2.60
  -8  -2  -2   22.80    3.70
   8  -2   2   22.50    1.80
   8  -2   2   23.80    2.10
  -8  -2  -2   18.50    2.10
  -8   2  -2   24.80    3.20
   8   2   2   28.20    2.70
  -8   2  -2   28.20    2.90
  -8   2  -2   29.10    4.00
   9  -2   2   32.10    3.10
  -9  -2  -2   29.80    3.10
   9  -2   2   31.70    2.10
  -9  -2  -2   35.50    3.80
  -9   2  -2   19.80    2.00
  10  -3  -2   66.19    3.70
  10  -3  -2   63.79    3.30
 -10   3   2   68.69    4.20
 -10   3   2   66.99    3.80
   9  -3  -2    8.50    1.50
   9  -3  -2   13.90    1.60
   9  -3  -2   15.10    1.80
  -9  -3   2   10.60    1.40
  -9   3   2   19.90    3.10
  -9   3   2   16.10    2.20
   9   3  -2   20.50    2.30
  -9   3   2   20.20    2.30
  -8  -3   2   77.39    4.30
   8  -3  -2   85.39    4.80
   8  -3  -2   89.69    4.90
   8  -3  -2   82.49    4.40
  -8  -3   2   78.09    4.60
  -8   3   2   89.49    5.60
   8   3  -2   95.59    5.40
  -8   3   2   84.29    5.60
  -8   3   2   88.49    5.20
  -7  -3   2   70.09    4.20
   7  -3  -2   75.69    4.10
   7  -3  -2   74.89    4.10
   7  -3  -2   75.09    4.50
  -7  -3   2   80.99    3.90
  -7  -3   2   72.79    4.40
  -7   3   2   65.39    4.80
  -7   3   2   68.09    4.20
  -7   3   2   67.89    4.70
   7   3  -2   64.79    4.40
   6  -3  -2  327.07   15.60
   6  -3  -2  300.37   15.30
  -6  -3   2  341.27   15.30
  -6  -3   2  345.77   15.50
  -6   3   2  312.87   15.00
   6   3  -2  321.37   14.80
  -6   3   2  312.47   14.20
  -6   3   2  303.37   14.70
  -6   3   2  288.37   15.70
   5  -3  -2   66.19    4.30
  -5  -3   2   69.09    3.90
  -5  -3   2   80.59    4.60
  -5  -3   2   71.09    3.70
   5  -3  -2   65.49    3.90
  -5   3   2   77.99    3.60
   5   3  -2   76.39    4.80
  -5   3   2   73.99    4.90
  -5   3   2   77.59    6.00
  -4  -3   2  103.49    5.40
  -4  -3   2  102.59    5.50
  -4  -3   2   99.39   20.00
  -4  -3   2  108.39    5.20
  -4   3   2   95.69   17.80
  -4   3   2   98.39    4.50
   4   3  -2   92.29    4.90
  -4   3   2   96.69    5.60
   3  -3  -2  365.56   18.30
  -3  -3   2  408.76   18.80
   3  -3  -2  430.76   18.70
  -3  -3   2  383.96   25.70
  -3  -3   2  431.96   26.80
  -3   3   2  421.76   25.90
  -3   3   2  418.96   18.80
   3   3  -2  396.86   19.00
   2  -3  -2 1489.95   67.49
   2  -3  -2 1360.16   64.19
  -2  -3   2 1504.05   67.59
   2  -3  -2 1369.06   64.19
  -2  -3   2 1465.85   64.49
  -2  -3   2 1305.57   67.09
   2   3  -2 1410.96   63.49
  -2   3   2 1376.46   66.89
   1  -3  -2  589.84   27.60
  -1  -3   2  590.34   29.40
  -1  -3   2  597.04   28.00
  -1  -3   2  647.04   29.70
   1   3  -2  574.54   28.40
  -1   3   2  659.63   28.10
   0  -3  -2 1129.79   55.09
   0  -3  -2 1126.79   51.29
   0   3   2 1240.38   58.99
   0   3  -2 1175.48   55.39
   0   3   2 1233.78   55.19
  -1  -3  -2   22.90    8.70
  -1  -3  -2   34.00    1.80
  -1  -3  -2   34.60    1.80
   1   3   2   30.50    1.70
   1   3   2   20.20    7.80
  -1   3  -2   32.70    1.90
  -2  -3  -2   29.70   13.80
  -2  -3  -2   58.29    2.80
  -2  -3  -2   56.49    2.90
  -2   3  -2   71.39    3.20
  -2   3  -2   61.99    9.60
  -2   3  -2   71.79    3.20
   2   3   2   66.09    3.70
  -2   3  -2   53.59    8.20
   2   3   2   69.29   13.10
  -3  -3  -2   28.80    1.80
  -3  -3  -2   36.50    3.00
  -3  -3  -2   26.90    1.70
  -3  -3  -2   28.20   25.20
  -3   3  -2   38.10    3.90
  -3   3  -2   33.40    1.70
  -3   3  -2   41.30   11.60
  -3   3  -2   36.50    2.30
   3   3   2   34.20   19.10
   3   3   2   34.00    3.40
  -3   3  -2   31.00    4.00
  -3   3  -2   34.80    4.90
  -3   3  -2   35.80    1.70
   4  -3   2   36.40    2.20
   4  -3   2   39.70    3.50
  -4  -3  -2   31.90    2.10
  -4  -3  -2   36.90    2.30
  -4  -3  -2   34.20    2.80
  -4  -3  -2   36.50    2.20
   4  -3   2   34.20    3.20
  -4   3  -2   46.70    3.90
  -4   3  -2   41.10    5.40
  -4   3  -2   48.10   10.20
  -4   3  -2   48.30    3.10
  -4   3  -2   46.70    4.30
   4   3   2   36.50    3.20
   4   3   2   45.10    3.60
  -4   3  -2   41.20    3.50
  -4   3  -2   44.40    2.20
  -4   3  -2   40.80    4.40
  -5  -3  -2  347.77   15.90
   5  -3   2  336.17   15.90
   5  -3   2  303.07   16.30
  -5  -3  -2  362.26   16.10
  -5  -3  -2  340.27   15.80
   5  -3   2  324.27   16.00
  -5  -3  -2  363.86   16.30
   5   3   2  374.76   17.40
  -5   3  -2  399.96   17.90
  -5   3  -2  376.06   17.70
  -5   3  -2  365.26   17.70
   5   3   2  311.97   16.90
  -5   3  -2  359.36   16.60
  -5   3  -2  361.86   17.40
  -6  -3  -2   27.20    2.90
   6  -3   2   31.40    2.30
   6  -3   2   28.10    2.40
  -6  -3  -2   24.30    2.30
  -6  -3  -2   27.50    2.60
  -6   3  -2   22.40    2.90
  -6   3  -2   26.80    3.20
  -6   3  -2   25.70    1.40
   6   3   2   26.80    3.10
  -6   3  -2   27.90    3.00
  -6   3  -2   27.10    3.80
   7  -3   2   40.40    2.70
   7  -3   2   39.50    3.70
  -7  -3  -2   37.30    2.90
   7  -3   2   36.00    2.70
  -7   3  -2   41.10    5.10
  -7   3  -2   49.50    4.60
   7   3   2   53.99    3.70
  -7   3  -2   50.69    3.70
  -7   3  -2   49.99    3.80
  -7   3  -2   44.00    2.40
   8  -3   2  262.07   12.80
  -8  -3  -2  258.77   13.00
   8  -3   2  265.97   12.50
  -8  -3  -2  258.97   12.40
   8  -3   2  274.87   12.40
  -8   3  -2  269.07   13.10
  -8   3  -2  254.47   12.70
  -8   3  -2  277.47   13.40
  -9  -4   2   65.69    3.70
   9  -4  -2   69.29    4.00
   9  -4  -2   61.59    3.70
   9  -4  -2   68.69    3.50
  -9   4   2   63.69    4.30
  -9   4   2   67.09    3.90
  -9   4   2   66.79    4.60
  -8  -4   2  211.68   10.20
   8  -4  -2  214.18   10.50
  -8  -4   2  213.58   10.50
   8  -4  -2  220.08   10.40
   8  -4  -2  227.68   10.70
   8   4  -2  248.98   13.40
  -8   4   2  249.38   12.50
  -8   4   2  250.07   12.50
  -8   4   2  252.87   12.20
  -7  -4   2  192.88    9.10
   7  -4  -2  199.48    9.30
   7  -4  -2  187.38    9.30
  -7  -4   2  185.68    9.40
   7  -4  -2  193.08    9.70
  -7  -4   2  193.48    9.50
  -7   4   2  187.58    9.00
  -7   4   2  195.48    9.80
  -7   4   2  191.78   12.00
  -7   4   2  202.18   10.20
   7   4  -2  208.88   10.50
  -7   4   2  191.38   10.30
  -6  -4   2  228.48   10.40
   6  -4  -2  212.38   10.40
  -6  -4   2  225.08   10.50
   6  -4  -2  206.78   10.60
  -6  -4   2  213.88   10.30
  -6   4   2  237.38   11.90
  -6   4   2  245.58   12.50
  -6   4   2  227.98   10.80
  -6   4   2  224.98   11.50
   6   4  -2  239.08   11.70
  -6   4   2  240.18   12.10
  -5  -4   2  765.12   35.70
   5  -4  -2  797.72   35.50
  -5  -4   2  817.42   36.20
   5  -4  -2  707.33   35.30
  -5   4   2  833.32   36.80
  -5   4   2  784.62   35.80
  -5   4   2  790.22   37.10
  -5   4   2  791.42   36.70
  -5   4   2  755.82   36.80
  -5   4   2  775.12   35.90
  -4  -4   2  242.78   11.40
  -4  -4   2  235.98   11.30
  -4  -4   2  241.98   11.80
   4   4  -2  206.98    9.90
  -4   4   2  203.38   10.00
   4   4  -2  186.18   10.20
  -4   4   2  206.88   10.30
  -4   4   2  220.68    9.40
  -4   4   2  197.08   10.80
   3  -4  -2  469.15   22.90
  -3  -4   2  472.55   33.40
  -3  -4   2  530.35   23.30
   3  -4  -2  513.65   23.00
   3   4  -2  531.05   23.10
  -3   4   2  513.25   22.40
   3   4  -2  482.55   22.80
  -3   4   2  477.25   22.70
   3   4  -2  473.95   23.30
  -3   4   2  470.35   23.10
  -3   4   2  507.45   22.40
  -3   4   2  485.85   31.70
  -3   4   2  542.55   23.00
  -3   4   2  432.26   23.70
  -2  -4   2  639.84   29.00
   2  -4  -2  615.04   28.60
  -2  -4   2  629.34   34.40
  -2   4   2  547.85   32.30
   2   4  -2  532.15   25.20
  -2   4   2  558.04   24.80
  -1  -4   2 2219.58   98.49
   1  -4  -2 2192.38  101.79
   1  -4  -2 2085.69   98.19
   1   4  -2 2213.08  101.99
  -1   4   2 2275.97  105.59
   0  -4  -2  412.46   19.00
   0  -4  -2  400.86   25.90
   0  -4   2  422.26   19.30
   0   4  -2  495.45   22.90
   0   4   2  501.85   29.00
   0   4   2  489.75   22.60
  -1  -4  -2  961.40   53.69
  -1  -4  -2 1017.80   46.00
   1  -4   2 1037.00   46.40
   1   4   2 1227.98   52.99
   1   4   2 1182.28   59.79
  -1   4  -2 1095.09   53.29
  -2  -4  -2  518.85   23.20
  -2  -4  -2  484.35   23.10
  -2  -4  -2  509.35   23.40
  -2   4  -2  561.74   26.80
  -2   4  -2  540.05   23.70
  -2   4  -2  544.75   23.70
  -2   4  -2  442.36   24.90
  -2   4  -2  493.25   25.00
   2   4   2  523.65   23.50
  -2   4  -2  468.35   24.20
  -3  -4  -2  609.34   27.60
  -3  -4  -2  594.94   27.80
  -3  -4  -2  599.54   27.60
  -3   4  -2  593.04   26.80
  -3   4  -2  557.94   26.30
  -3   4  -2  561.84   26.50
  -3   4  -2  526.55   29.10
  -3   4  -2  570.74   26.00
  -3   4  -2  572.14   26.50
  -3   4  -2  564.64   27.00
  -4  -4  -2  496.45   21.70
  -4  -4  -2  453.95   21.50
   4  -4   2  455.15   21.30
  -4  -4  -2  445.66   21.30
  -4   4  -2  560.84   28.00
  -4   4  -2  512.05   24.30
  -4   4  -2  509.25   23.90
  -4   4  -2  515.85   24.60
   4   4   2  494.75   24.20
   5  -4   2  142.69    7.90
  -5  -4  -2  159.08    7.70
   5  -4   2  152.08    9.10
  -5  -4  -2  165.38    7.90
  -5  -4  -2  174.68    8.10
   5  -4   2  158.98    7.80
  -5   4  -2  209.18   10.50
  -5   4  -2  179.98   10.10
  -5   4  -2  187.28   10.00
  -5   4  -2  198.88   11.10
   5   4   2  189.08    9.80
  -5   4  -2  188.18    9.70
  -6  -4  -2  145.49    7.40
   6  -4   2  143.29    7.20
   6  -4   2  136.39    8.20
   6  -4   2  136.59    7.20
  -6  -4  -2  151.28    7.40
  -6  -4  -2  147.29    7.00
  -6   4  -2  134.49    7.40
  -6   4  -2  124.49    7.80
  -6   4  -2  121.69    9.00
  -6   4  -2  135.89    7.60
   6   4   2  135.39    7.30
  -6   4  -2  140.89    7.20
  -7  -4  -2  195.18    9.50
   7  -4   2  200.08    9.40
   7  -4   2  185.68    9.30
  -7   4  -2  172.98    9.30
  -7   4  -2  181.58    9.30
  -7   4  -2  164.88    8.60
  -7   4  -2  160.58    8.80
   8  -4   2  152.28    6.90
   8  -4   2  152.78    7.00
  -8  -4  -2  136.59    6.90
   8  -4   2  136.99    7.60
  -8  -4  -2  129.79    8.10
   8   4   2  122.29    6.70
  -8   4  -2  124.69    6.20
  -8   4  -2  128.09    6.50
  -8   4  -2   99.89   10.10
   9  -5  -2  103.59    5.20
   9  -5  -2   96.89    5.60
  -9  -5   2   99.29    5.10
   9  -5  -2  103.19    5.00
  -9   5   2   99.09    4.90
  -9   5   2   88.19    5.60
   8  -5  -2  503.65   24.10
   8  -5  -2  558.04   24.00
   8  -5  -2  518.55   23.90
  -8  -5   2  476.85   23.70
  -8  -5   2  530.05   24.00
  -8   5   2  489.85   22.40
  -8   5   2  462.45   22.40
   7  -5  -2  308.37   13.90
   7  -5  -2  276.47   14.20
  -7  -5   2  274.87   14.10
   7  -5  -2  314.57   14.30
  -7  -5   2  289.57   14.00
  -7  -5   2  305.27   13.80
  -7   5   2  254.97   12.40
  -7   5   2  248.98   12.70
  -7   5   2  254.07   12.70
  -7   5   2  250.07   13.20
   6  -5  -2   26.70    2.40
  -6  -5   2   25.40    2.30
   6  -5  -2   22.80    2.40
  -6  -5   2   25.80    2.30
  -6   5   2   17.70    2.40
  -6   5   2   19.70    2.20
  -6   5   2   17.50    3.10
  -6   5   2   16.80    2.90
   5  -5  -2  582.84   27.80
   5  -5  -2  560.54   28.80
  -5  -5   2  639.74   27.80
  -5  -5   2  633.34   28.00
  -5   5   2  621.14   29.50
  -5   5   2  623.44   29.20
  -5   5   2  634.04   29.80
   4  -5  -2  236.38   11.20
  -4  -5   2  236.08   11.10
  -4  -5   2  224.48   10.90
  -4  -5   2  226.38   11.70
  -4   5   2  230.18   11.10
  -4   5   2  228.68   11.50
   4   5  -2  221.48   11.10
   4   5  -2  224.38   11.00
  -4   5   2  207.98   12.30
   4   5  -2  239.18   15.90
  -3  -5   2  508.55   25.00
  -3  -5   2  521.95   24.30
  -3   5   2  534.35   24.80
   3   5  -2  477.45   24.70
   3   5  -2  555.04   28.30
  -3   5   2  563.54   28.50
  -3   5   2  510.65   24.60
  -3   5   2  538.75   25.10
  -3   5   2  529.55   24.20
  -3   5   2  540.75   25.50
   3   5  -2  548.75   25.10
   2  -5  -2  440.56   20.40
  -2  -5   2  449.26   20.80
   2   5  -2  503.75   25.50
   2   5  -2  490.35   22.20
  -2   5   2  420.56   22.40
  -2   5   2  517.35   25.40
   2   5  -2  460.85   21.90
   2   5  -2  495.95   22.00
   2   5  -2  466.15   22.50
   2   5  -2  422.36   22.20
  -2   5   2  451.95   21.80
  -2   5   2  491.15   21.40
  -2   5   2  461.65   22.70
   1  -5  -2  834.62   34.10
   1  -5  -2  777.42   40.80
  -1  -5   2  633.24   34.30
   1   5  -2  954.50   44.00
   1   5  -2  900.41   41.40
  -1   5   2  985.10   44.10
  -1   5   2  859.21   46.30
   1   5  -2  918.91   41.00
   1   5  -2  916.01   40.80
   1   5  -2  858.01   41.50
  -1   5   2  790.82   41.50
  -1   5   2  832.42   40.70
   0  -5  -2  140.29    6.70
   0  -5  -2  117.79   23.50
   0  -5   2  139.39    7.00
   0   5  -2  142.19    7.70
   0   5   2  125.69    8.80
   0   5  -2  154.58   11.10
   0   5  -2  171.78    8.40
   0   5   2  156.68   22.50
   0   5  -2  153.48    7.50
   0   5  -2  151.08    7.50
   0   5  -2  149.59    8.20
   0   5   2  153.78    7.00
   0   5  -2  152.58    8.90
  -1  -5  -2   38.20    2.30
  -1  -5  -2   35.80    2.80
   1  -5   2   45.20    3.30
  -1  -5  -2   39.40    3.50
  -1   5  -2   43.70    6.80
  -1   5  -2   37.00    4.20
  -1   5  -2   36.50    3.80
  -1   5  -2   39.70    3.00
  -1   5  -2   40.00    3.80
   1   5   2   44.40    7.50
  -1   5  -2   41.10    4.60
   1   5   2   42.80    2.10
  -1   5  -2   40.70    3.40
  -1   5  -2   43.80    2.80
   1   5   2   38.40    3.20
   2  -5   2  657.53   30.70
  -2  -5  -2  660.43   30.20
  -2  -5  -2  657.83   30.00
  -2  -5  -2  634.04   29.90
  -2   5  -2  642.74   31.50
  -2   5  -2  666.93   30.70
  -2   5  -2  656.43   31.20
  -2   5  -2  676.03   31.50
  -2   5  -2  707.63   34.30
  -2   5  -2  677.93   30.90
  -2   5  -2  660.83   30.90
  -2   5  -2  647.74   31.20
  -3  -5  -2   95.09    4.80
   3  -5   2   84.99    7.20
  -3  -5  -2   99.59    6.00
  -3  -5  -2   86.39    4.60
  -3   5  -2  100.19   10.10
  -3   5  -2  106.59    5.50
  -3   5  -2  105.09    6.30
  -3   5  -2  106.89    5.90
  -3   5  -2  100.49    6.80
  -3   5  -2  106.69    5.80
  -3   5  -2  105.19    6.30
  -3   5  -2  106.19    6.80
   4  -5   2  258.77   13.00
  -4  -5  -2  299.67   13.00
  -4  -5  -2  272.17   13.10
  -4  -5  -2  278.77   13.40
  -4   5  -2  290.37   14.10
  -4   5  -2  270.37   13.40
  -4   5  -2  278.57   13.80
  -4   5  -2  263.67   13.10
  -4   5  -2  268.57   12.70
  -4   5  -2  269.17   13.40
  -4   5  -2  229.08   16.90
   5  -5   2  169.08    8.10
  -5  -5  -2  168.48    8.20
  -5  -5  -2  171.78    8.30
  -5  -5  -2  178.48    8.60
   5  -5   2  147.69    8.30
  -5   5  -2  184.98   10.10
  -5   5  -2  211.88   11.20
  -5   5  -2  174.08    9.60
   5   5   2  160.18    9.80
  -5   5  -2  195.98   17.80
  -5   5  -2  191.88   10.10
  -5   5  -2  191.18   10.80
  -6  -5  -2  414.26   20.20
   6  -5   2  412.76   20.00
  -6  -5  -2  445.96   20.20
   6  -5   2  443.16   20.00
  -6  -5  -2  433.76   19.90
  -6   5  -2  461.55   21.60
  -6   5  -2  462.65   22.50
  -6   5  -2  451.45   21.80
  -6   5  -2  447.56   21.80
  -6   5  -2  462.55   22.10
   7  -5   2  166.08    8.00
   7  -5   2  170.08    8.10
  -7  -5  -2  159.68    8.20
  -7   5  -2  180.88    9.20
  -7   5  -2  178.88    9.60
  -7   5  -2  175.58    9.10
  -7   5  -2  179.28    8.90
   8  -5   2  155.48    8.20
  -8  -5  -2  162.18    7.80
   8  -5   2  172.38    7.80
  -8   5  -2  155.18    7.80
  -8   5  -2  156.38    7.60
  -8  -6   2  173.38    8.40
   8  -6  -2  163.68    8.20
  -8  -6   2  175.18    8.10
   8  -6  -2  179.78    8.30
  -8   6   2  197.98    9.70
  -8   6   2  188.38    9.40
  -7  -6   2   48.80    3.10
   7  -6  -2   47.10    4.40
   7  -6  -2   45.30    3.00
  -7  -6   2   50.09    2.70
   7  -6  -2   53.39    3.00
  -7   6   2   49.60    3.80
  -7   6   2   43.30    6.80
  -7   6   2   50.99    3.40
   6  -6  -2  194.28    8.90
  -6  -6   2  183.68    8.80
  -6  -6   2  181.48    9.00
   6  -6  -2  176.98   11.10
  -6  -6   2  178.18    9.00
  -6   6   2  174.38    9.70
  -6   6   2  174.58    9.20
  -6   6   2  173.38    8.90
   5  -6  -2  524.75   26.60
  -5  -6   2  585.14   26.70
  -5  -6   2  573.14   26.60
  -5  -6   2  626.84   26.80
  -5   6   2  551.14   26.10
  -5   6   2  528.35   25.80
  -5   6   2  572.34   26.60
  -4  -6   2  267.27   12.90
  -4  -6   2  271.87   12.70
   4   6  -2  230.68   11.80
  -4   6   2  242.18   12.10
   4   6  -2  240.58   16.60
  -4   6   2  255.17   12.80
  -4   6   2  251.57   12.40
  -3  -6   2  747.73   33.80
  -3  -6   2  726.13   33.90
   3   6  -2  794.02   36.50
  -3   6   2  748.73   36.10
   3   6  -2  758.42   36.20
  -3   6   2  812.72   36.80
  -3   6   2  782.12   37.10
   3   6  -2  828.52   39.90
   2  -6  -2  557.24   25.60
  -2   6   2  514.75   26.10
   2   6  -2  593.04   26.20
   2   6  -2  576.74   25.60
  -2   6   2  572.64   25.90
  -2   6   2  531.85   25.20
  -2   6   2  564.14   26.30
   2   6  -2  541.85   25.60
   2   6  -2  483.55   31.40
   2   6  -2  577.44   25.70
  -2   6   2  570.24   25.70
   2   6  -2  470.85   26.20
   1  -6  -2  514.65   22.20
  -1  -6   2  450.15   22.60
  -1   6   2  581.44   27.60
   1   6  -2  593.44   26.70
   1   6  -2  587.14   27.10
   1   6  -2  579.34   27.00
   1   6  -2  649.43   30.80
   1   6  -2  598.84   26.90
   1   6  -2  519.65   26.80
  -1   6   2  572.44   27.30
  -1   6   2  544.45   26.60
   1   6  -2  542.65   27.60
   0  -6  -2  318.97   15.70
   0  -6   2  336.57   15.80
   0  -6  -2  330.27   15.30
   0  -6  -2  322.37   15.30
   0   6  -2  353.86   16.00
   0   6  -2  339.57   16.20
   0   6  -2  326.77   16.10
   0   6  -2  303.27   17.30
   0   6  -2  360.36   16.80
   0   6  -2  337.77   15.90
   0   6   2  338.17   16.80
   0   6   2  338.97   15.20
   0   6  -2  317.37   16.30
   0   6   2  315.67   15.60
  -1  -6  -2  255.57   12.00
  -1  -6  -2  250.27   12.40
  -1  -6  -2  257.57   12.40
  -1   6  -2  282.77   14.50
  -1   6  -2  295.77   13.90
   1   6   2  278.17   14.90
  -1   6  -2  299.37   14.70
   1   6   2  249.88   13.50
  -1   6  -2  296.47   13.60
  -1   6  -2  308.77   17.70
   1   6   2  277.17   13.20
  -1   6  -2  291.67   14.20
  -1   6  -2  294.77   13.90
  -1   6  -2  286.77   14.10
  -2  -6  -2   51.29    3.10
  -2  -6  -2   53.59    3.80
  -2  -6  -2   55.09    3.20
  -2   6  -2   72.19    4.80
  -2   6  -2   60.59    4.70
  -2   6  -2   68.79    8.70
  -2   6  -2   64.29    4.40
  -2   6  -2   62.09    3.80
  -2   6  -2   61.19    4.20
  -2   6  -2   63.69    5.30
  -2   6  -2   60.69    5.10
  -3  -6  -2   28.10    2.20
  -3  -6  -2   28.60    2.30
  -3  -6  -2   36.00    3.00
  -3   6  -2   50.29    4.20
  -3   6  -2   47.80    3.30
  -3   6  -2   51.49    4.40
  -3   6  -2   52.09    4.80
  -3   6  -2   48.80    4.20
  -3   6  -2   51.99    5.10
  -3   6  -2   51.79    3.80
  -3   6  -2   50.29    8.30
  -4  -6  -2  101.09    5.40
  -4  -6  -2   98.49    5.80
  -4  -6  -2  107.29    5.50
   4  -6   2  104.69    5.40
  -4   6  -2  127.49    7.10
  -4   6  -2  143.29    7.70
  -4   6  -2  157.68    9.50
  -4   6  -2  146.29    8.30
  -4   6  -2  151.68    9.00
  -4   6  -2  128.69    8.00
   5  -6   2   93.29    4.80
  -5  -6  -2   87.79    4.60
  -5  -6  -2   88.39    5.10
  -5  -6  -2   90.59    5.10
  -5   6  -2  106.09    7.10
  -5   6  -2  109.89    5.90
  -5   6  -2  111.39    6.90
  -5   6  -2   97.19   12.10
  -5   6  -2  104.09    6.30
  -5   6  -2  105.19    6.20
  -6  -6  -2  166.38    8.50
   6  -6   2  184.08    8.50
   6  -6   2  176.88    8.40
  -6  -6  -2  162.78    8.20
  -6   6  -2  192.08    9.80
  -6   6  -2  192.78   10.10
  -6   6  -2  228.28   10.50
  -6   6  -2  179.98   10.30
  -6   6  -2  196.68   11.00
  -7  -6  -2   71.29    3.80
   7  -6   2   66.29    3.80
   7  -6   2   73.19    3.90
  -7   6  -2   73.49    4.30
  -7   6  -2   69.89    3.90
  -7   6  -2   66.09    4.10
  -7  -7   2   96.49    5.20
   7  -7  -2  103.19    5.10
  -7  -7   2  104.89    5.00
   7  -7  -2  100.79    5.10
  -7   7   2   86.29    4.30
  -7   7   2   65.19    5.30
  -7   7   2   76.09    4.50
  -6  -7   2   58.39    3.80
  -6  -7   2   63.99    3.40
   6  -7  -2   71.89    3.80
  -6   7   2   61.09    4.20
  -6   7   2   56.19    3.80
  -6   7   2   58.29    4.50
  -5  -7   2  708.33   32.00
  -5  -7   2  719.43   31.80
  -5  -7   2  665.33   32.00
   5  -7  -2  677.83   31.80
  -5   7   2  642.84   30.90
  -5   7   2  649.24   30.50
  -5   7   2  676.93   31.20
  -4  -7   2  331.37   16.40
   4  -7  -2  336.97   16.30
  -4  -7   2  365.46   16.10
  -4  -7   2  347.87   16.30
  -4   7   2  336.37   16.20
  -4   7   2  327.17   15.80
   4   7  -2  292.57   15.00
  -4   7   2  321.87   15.40
  -3  -7   2   55.69    3.50
  -3  -7   2   53.89    4.70
  -3  -7   2   62.29    3.50
   3   7  -2   51.69    3.60
  -3   7   2   56.19    4.80
   3   7  -2   57.89    8.10
  -3   7   2   55.49    4.80
  -3   7   2   57.29    4.80
   2   7  -2    0.90    4.40
   2   7  -2    2.40    2.50
  -2   7   2    4.70    2.50
   2   7  -2    3.60    2.20
   2   7  -2    4.70    4.80
  -2   7   2    3.90    2.00
   2   7  -2    4.10    1.30
  -2   7   2    3.10    1.20
   2   7  -2    4.50    1.80
   1  -7  -2  143.69    7.20
   1  -7  -2  139.89    7.30
   1   7  -2  159.48    7.40
  -1   7   2  145.69    7.30
   1   7  -2  142.39    7.80
   1   7  -2  137.19    9.10
   1   7  -2  166.38   11.80
   1   7  -2  132.39    7.90
  -1   7   2  149.59    8.70
  -1   7   2  131.69    8.80
   1   7  -2  141.09    8.30
   1   7  -2  152.08    8.60
   1   7  -2  147.19    8.10
   0  -7  -2  411.36   18.90
   0  -7   2  406.66   18.90
   0  -7  -2  399.16   18.80
   0  -7  -2  403.06   19.20
   0   7  -2  402.96   21.20
   0   7  -2  428.66   20.10
   0   7  -2  421.96   20.90
   0   7  -2  445.66   20.70
   0   7   2  412.76   21.10
   0   7  -2  441.66   20.50
   0   7  -2  436.96   20.30
   0   7  -2  476.85   24.50
   0   7   2  405.96   20.00
   0   7  -2  430.36   20.50
  -1  -7  -2  228.68   11.00
  -1  -7  -2  230.58   11.40
  -1  -7  -2  230.88   11.10
  -1   7  -2  245.68   12.10
   1   7   2  223.38   13.30
  -1   7  -2  257.97   12.90
  -1   7  -2  250.57   13.20
  -1   7  -2  284.07   16.60
   1   7   2  218.08   11.80
  -1   7  -2  248.88   12.20
  -1   7  -2  248.58   11.80
  -1   7  -2  241.88   12.30
  -1   7  -2  246.18   12.50
  -2  -7  -2  370.96   17.70
  -2  -7  -2  365.26   17.50
  -2  -7  -2  381.86   17.40
  -2   7  -2  367.26   17.60
  -2   7  -2  379.56   18.30
  -2   7  -2  367.26   17.90
  -2   7  -2  381.46   17.30
  -2   7  -2  367.06   17.80
  -2   7  -2  380.76   18.60
  -2   7  -2  359.26   21.40
  -2   7  -2  344.77   17.70
  -3  -7  -2   26.70    2.10
  -3  -7  -2   25.30    2.90
  -3  -7  -2   27.80    2.60
  -3   7  -2   23.70    3.00
  -3   7  -2   15.70    2.40
  -3   7  -2   22.20    3.90
  -3   7  -2   26.80    2.80
  -3   7  -2   25.80    3.40
  -3   7  -2   15.50    5.20
  -3   7  -2   24.20    2.20
  -4  -7  -2   93.99    4.90
  -4  -7  -2   94.79    5.30
  -4  -7  -2   95.39    5.30
  -4   7  -2   86.59    6.10
  -4   7  -2   78.19    5.10
  -4   7  -2   80.09    4.50
  -4   7  -2   77.39    5.10
  -4   7  -2   80.09    4.80
  -4   7  -2   83.59    5.70
   5  -7   2  110.19    6.20
  -5  -7  -2   96.59    5.50
  -5  -7  -2  103.89    5.10
  -5   7  -2   95.39    6.40
  -5   7  -2  102.99    6.50
  -5   7  -2  110.79    6.40
  -5   7  -2   96.39    5.70
  -5   7  -2   95.59    5.40
   6  -7   2   48.80    3.70
  -6  -7  -2   44.00    2.90
   6  -7   2   52.09    4.50
  -6  -7  -2   48.80    2.60
  -6   7  -2   51.39    3.50
  -6   7  -2   54.09    3.20
  -6   7  -2   58.49    3.70
  -6   7  -2   45.70    4.90
   6  -8  -2   16.60    2.00
  -6  -8   2   14.90    1.70
  -6  -8   2   16.90    1.40
   6  -8  -2   17.90    2.10
  -6   8   2   25.00    3.30
  -6   8   2   23.70    2.70
  -5  -8   2  394.66   17.40
   5  -8  -2  353.56   17.30
  -5  -8   2  371.26   17.60
  -5   8   2  316.67   15.30
  -5   8   2  311.77   16.00
  -5   8   2  342.07   16.40
  -4  -8   2   50.49    3.60
  -4  -8   2   43.40    5.60
  -4  -8   2   50.19    2.90
   4  -8  -2   47.30    3.80
  -4   8   2   53.49    4.90
   4   8  -2   50.39    3.70
  -4   8   2   54.29    4.30
  -4   8   2   52.99    4.30
  -3  -8   2  565.04   27.20
  -3  -8   2  618.04   27.40
   3   8  -2  597.24   28.10
  -3   8   2  635.44   29.20
  -3   8   2  598.34   28.70
  -2  -8   2  708.83   32.70
  -2   8   2  598.74   31.00
   2   8  -2  664.83   30.50
   2   8  -2  666.53   34.40
  -2   8   2  720.43   31.70
   1  -8  -2  887.81   41.30
  -1  -8   2  918.41   41.50
   1   8  -2  921.81   43.50
   1   8  -2  935.51   43.90
  -1   8   2  961.80   44.50
   1   8  -2  991.80   44.50
   1   8  -2  889.61   44.50
   1   8  -2  999.30   47.80
   0  -8  -2  115.79    6.60
   0  -8  -2  122.69    6.20
   0   8  -2  141.19   10.90
   0   8  -2  137.59    7.50
   0   8  -2  136.89    6.60
   0   8  -2  131.19    7.50
   0   8   2  129.09    8.20
   0   8  -2  139.49    7.90
   0   8  -2  119.39    8.20
   0   8  -2  113.49    7.20
  -1  -8  -2   70.69    4.00
  -1  -8  -2   68.09    4.90
  -1  -8  -2   72.79    4.60
  -1   8  -2  104.79    6.00
  -1   8  -2   97.19    6.20
  -1   8  -2  113.49    6.20
  -1   8  -2  105.39    7.10
  -1   8  -2  106.79    5.40
  -1   8  -2   97.19    9.30
  -1   8  -2  104.49    6.60
  -2  -8  -2   41.60    3.70
  -2  -8  -2   40.50    2.70
  -2  -8  -2   40.70    3.50
  -2   8  -2   58.39    7.40
  -2   8  -2   62.69    4.20
  -2   8  -2   65.49    4.50
  -2   8  -2   62.69    5.20
  -2   8  -2   62.19    4.50
  -2   8  -2   63.89    4.90
  -2   8  -2   66.19    3.60
  -3  -8  -2  188.18    9.40
  -3  -8  -2  190.38    9.60
  -3  -8  -2  187.98    9.00
  -3   8  -2  214.28   10.80
  -3   8  -2  191.38   10.40
  -3   8  -2  211.48   10.50
  -3   8  -2  201.78   13.50
  -3   8  -2  214.78    9.90
  -3   8  -2  211.78   10.20
  -3   8  -2  204.78   11.20
  -4  -8  -2   87.59    5.20
  -4  -8  -2  105.29    5.10
  -4   8  -2  116.09    6.10
  -4   8  -2   80.79    7.20
  -4   8  -2  105.19    5.60
  -4   8  -2   87.09    8.40
  -4   8  -2   88.89    6.00
  -5  -8  -2   82.49    4.00
  -5  -8  -2   75.89    4.30
  -5   8  -2   80.79    4.90
  -5   8  -2   91.49    4.50
  -5   8  -2   67.59    5.50
  -5   8  -2   92.99    4.80
  -5  -9   2   16.60    1.40
  -5   9   2    6.80    1.80
  -4  -9   2    5.30    0.90
  -4   9   2    2.20    1.60
  -4   9   2    5.60    1.70
  -3  -9   2   39.70    2.70
  -3   9   2   41.70    3.90
  -3   9   2   42.40    3.80
   3   9  -2   35.00    2.60
  -2  -9   2   41.50    3.30
   2  -9  -2   39.60    3.60
  -2   9   2   39.40    3.90
   2   9  -2   48.80    3.00
   1  -9  -2  179.08    8.80
   1   9  -2  127.09   10.20
   1   9  -2  126.89    9.10
   1   9  -2  164.28    7.00
   0  -9  -2  337.97   15.80
   0   9  -2  237.48   15.90
   0   9  -2  311.37   17.10
   0   9   2  269.27   14.40
   0   9  -2  309.57   13.30
  -1  -9  -2  192.88    9.20
  -1   9  -2  203.48   10.40
  -1   9  -2  163.78   11.90
  -1   9  -2  183.78    8.80
  -2  -9  -2   42.60    3.90
  -2  -9  -2   41.60    2.60
  -2   9  -2   39.50    3.90
  -2   9  -2   40.60    3.80
  -2   9  -2   47.10    3.40
  -2   9  -2   46.00    4.20
  -2   9  -2   45.10    2.60
  -2   9  -2   31.60    5.60
  -3  -9  -2   14.90    1.40
  -3  -9  -2   11.30    2.90
  -3   9  -2    9.20    1.50
  -3   9  -2    6.00    2.30
  -3   9  -2   10.70    2.10
  -3   9  -2   10.80    2.20
  -4  -9  -2   33.70    2.00
  -4  -9  -2   35.40    2.60
  -4   9  -2   37.00    2.70
  -4   9  -2   40.30    2.70
  -4   9  -2   25.40    3.70
  -4   9  -2   34.40    3.20
  -3 -10   2  102.79    5.30
  -3  10   2   99.49    5.80
   2  10  -2  158.08    7.70
  -2  10   2  164.78    8.60
   1 -10  -2  144.99    7.90
   1  10  -2  127.39    6.20
   0 -10  -2  252.97   11.90
   0  10  -2  235.88   11.00
  -1 -10  -2  186.48    8.80
  -1  10  -2  172.38    9.90
  -1  10  -2  213.28    9.10
  -2 -10  -2  133.39    6.40
  -2  10  -2   97.99    5.80
  10   0  -3   95.99    4.90
 -10   0   3   85.59    5.40
  -9   0   3  224.88   11.30
  -9   0   3  214.38   11.80
   9   0  -3  237.98   11.30
   9   0  -3  237.18   11.50
   9   0  -3  239.98   10.90
  -8   0   3   20.70    1.50
  -8   0   3   26.30    2.90
  -8   0   3   23.80    3.70
   8   0  -3   19.30    2.60
  -7   0   3   67.99    3.50
   7   0  -3   73.89    3.90
  -7   0   3   67.39    3.90
   7   0  -3   69.79    4.30
   7   0  -3   71.49    4.20
   6   0  -3  248.88   11.70
   6   0  -3  239.18   11.50
  -6   0   3  240.68   11.30
  -6   0   3  240.18   11.60
   6   0  -3  251.27   11.60
  -5   0   3 1167.08   55.49
  -5   0   3 1274.57   67.79
  -5   0   3 1224.88   55.09
   5   0  -3 1226.28   55.19
  -5   0   3 1123.89   54.89
   5   0  -3 1277.37   55.09
  -5   0   3 1172.98   67.99
  -4   0   3  262.57   11.70
  -4   0   3  251.17   12.10
  -4   0   3  230.78   21.80
   4   0  -3  265.17   11.80
  -4   0   3  242.88   22.20
   3   0  -3  448.26   20.30
  -3   0   3  434.76   20.60
  -3   0   3  489.15   26.20
   3   0  -3  423.26   25.70
   3   0  -3  436.66   20.30
  -2   0   3 2430.66  109.49
   2   0  -3 2263.47  105.89
   2   0  -3 2321.47  109.09
   1   0  -3   21.60    1.00
   1   0  -3   18.60    1.10
  -1   0   3   19.50    1.30
  -1   0   3   15.50    4.60
   1   0  -3   15.30    4.40
   0   0   3    5.30    0.80
   0   0   3   12.10    5.50
   0   0  -3    6.80    0.40
   0   0  -3    5.80    0.60
   0   0  -3    4.50    5.20
  -1   0  -3  150.08    6.80
   1   0   3  133.49   12.50
  -1   0  -3  150.78    6.90
  -2   0  -3    2.60    0.30
  -2   0  -3    8.00   10.20
   2   0   3    4.10    0.80
   2   0   3   -3.90    9.10
  -2   0  -3    1.90    0.50
   3   0   3   23.00    2.10
  -3   0  -3   11.50   23.10
  -3   0  -3   23.80    1.50
   3   0   3   18.20   17.10
   3   0   3   23.20    1.70
   4   0   3  801.62   38.20
   4   0   3  843.62   37.90
  -4   0  -3  839.42   37.80
   4   0   3  844.22   37.90
  -4   0  -3  828.22   37.80
  -4   0  -3  809.72   37.90
  -5   0  -3  799.22   35.30
  -5   0  -3  744.93   35.60
  -5   0  -3  796.82   35.10
   5   0   3  748.83   35.30
   5   0   3  744.23   35.30
   5   0   3  774.22   35.60
   6   0   3   20.30    2.30
   6   0   3   17.50    1.90
  -7   0  -3   75.19    4.20
  -7   0  -3   83.39    5.30
   7   0   3   83.99    5.00
   7   0   3   86.89    4.40
  -7   0  -3   83.69    5.40
   8   0   3   24.50    2.50
  -8   0  -3   25.90    2.90
  -8   0  -3   24.70    3.20
  10  -1  -3  110.39    5.60
  10  -1  -3  104.49    5.40
 -10   1   3  111.19    6.30
  10   1  -3  122.29    6.20
 -10   1   3  125.19    6.40
   9  -1  -3   36.70    3.10
   9  -1  -3   38.60    2.90
  -9  -1   3   37.90    4.70
  -9  -1   3   36.70    2.90
   9  -1  -3   38.40    2.50
  -9   1   3   60.69    3.90
  -9   1   3   51.09    4.50
   9   1  -3   58.59    3.70
   8  -1  -3  102.49    5.40
  -8  -1   3   97.69    5.10
   8  -1  -3  106.19    5.30
   8  -1  -3   98.59    5.70
  -8  -1   3  105.39    5.50
  -8   1   3  122.19    6.20
  -8   1   3  143.69    8.60
   8   1  -3  123.79    7.10
  -8   1   3  131.79    7.20
   8   1  -3  128.99    6.90
   7  -1  -3   48.90    3.00
  -7  -1   3   48.00    2.60
  -7  -1   3   44.20    2.90
   7  -1  -3   41.70    3.20
   7  -1  -3   52.09    2.90
  -7  -1   3   48.50    3.10
  -7   1   3   69.69    3.60
  -7   1   3   68.59    4.20
   7   1  -3   76.89    4.30
   7   1  -3   70.89    4.40
   7   1  -3   72.69    4.00
  -7   1   3   73.09    5.00
   6  -1  -3    0.80    0.90
   6  -1  -3    1.00    1.20
  -6  -1   3    3.40    2.00
  -6  -1   3    1.80    0.40
  -6  -1   3    1.00    0.90
   6   1  -3   10.00    1.30
  -6   1   3    8.20    1.40
   6   1  -3    9.20    1.50
   6   1  -3   12.70    1.40
   5  -1  -3 1790.82   78.79
  -5  -1   3 1678.73   77.99
  -5  -1   3 1719.43   78.59
   5  -1  -3 1667.73   78.09
  -5  -1   3 1739.33   78.19
  -5   1   3 1659.03   74.89
   5   1  -3 1671.13   74.79
   5   1  -3 1693.83   74.89
   5   1  -3 1719.13   75.29
  -5   1   3 1585.84   86.59
  -5   1   3 1537.95   75.59
  -4  -1   3  647.24   39.80
  -4  -1   3  729.43   40.90
  -4  -1   3  718.33   32.30
  -4  -1   3  693.93   31.80
  -4   1   3  638.04   29.70
   4   1  -3  637.24   29.40
   4   1  -3  658.93   29.50
   3  -1  -3 1564.54   75.79
  -3  -1   3 1568.24   71.59
   3  -1  -3 1528.95   71.59
  -3  -1   3 1625.44   75.99
   3   1  -3 1406.96   70.89
   3   1  -3 1449.06   66.59
  -3   1   3 1519.25   71.39
  -3   1   3 1491.65   66.89
   2  -1  -3 1873.81   92.69
   2  -1  -3 1960.50   89.49
  -2  -1   3 1950.40   96.99
   2  -1  -3 1943.81   89.69
  -2  -1   3 2135.79   90.09
   2   1  -3 1876.81   83.19
  -2   1   3 1809.32   82.89
   2   1  -3 1737.43   82.79
   2   1  -3 1823.32   87.19
  -2   1   3 1885.61   86.79
   1  -1  -3 2751.32  129.69
  -1  -1   3 2998.90  132.79
   1  -1  -3 2843.02  132.89
   1   1  -3 2751.82  124.59
  -1   1   3 2755.12  125.49
   1   1  -3 2573.54  121.99
   0  -1   3 3993.70  183.68
   0   1   3 4179.38  188.58
   0   1  -3 3981.70  187.48
  -1  -1  -3 1660.03   78.29
   1  -1   3 1807.32   81.79
  -1  -1  -3 1711.33   82.89
  -1   1  -3 1693.33   76.09
  -1   1  -3 1624.04   79.59
   1   1   3 1712.33   80.59
  -2  -1  -3  123.39   16.60
  -2  -1  -3  108.19    5.50
   2  -1   3  117.09    5.60
   2  -1   3  134.29   20.80
  -2  -1  -3  120.79    5.50
   2   1   3  243.08   25.30
  -2   1  -3  179.58    8.30
  -2   1  -3  176.88    8.40
  -2   1  -3  184.08   20.40
  -2   1  -3  176.58    8.50
  -3  -1  -3 1929.21   87.59
  -3  -1  -3 1917.21   87.79
   3  -1   3 1942.61   87.69
   3   1   3 1822.02   82.49
   3   1   3 1598.74   98.49
  -3   1  -3 1917.91   82.89
  -3   1  -3 1837.22   82.29
  -3   1  -3 1896.21   82.49
   3   1   3 1758.22   82.69
  -4  -1  -3 1589.44   69.39
  -4  -1  -3 1517.25   69.39
   4  -1   3 1471.55   69.69
   4  -1   3 1490.95   69.49
   4  -1   3 1512.35   69.49
  -4  -1  -3 1577.14   69.59
   4   1   3 1493.55   66.49
  -4   1  -3 1453.85   66.99
  -4   1  -3 1433.86   66.69
  -4   1  -3 1372.36   69.19
  -4   1  -3 1625.84   66.39
   4   1   3 1392.76   66.69
  -4   1  -3 1439.96   66.29
   5  -1   3  184.88    8.70
  -5  -1  -3  170.18    8.30
  -5  -1  -3  178.28    8.50
  -5  -1  -3  178.28    8.70
   5  -1   3  170.18    8.50
   5  -1   3  169.08    9.00
  -5   1  -3  202.98    9.90
  -5   1  -3  211.38   10.90
  -5   1  -3  226.88   11.40
   5   1   3  211.18   10.10
  -5   1  -3  219.28   11.00
   5   1   3  200.88   10.50
  -6  -1  -3  701.33   32.10
   6  -1   3  716.43   32.50
   6  -1   3  710.63   32.10
   6  -1   3  662.83   32.20
   6   1   3  779.12   35.00
  -6   1  -3  706.13   35.20
   6   1   3  731.63   35.30
  -6   1  -3  780.32   34.80
  -6   1  -3  779.32   35.70
  -6   1  -3  791.22   35.70
   7  -1   3   57.39    4.00
   7  -1   3   57.79    3.30
  -7  -1  -3   50.89    3.70
  -7  -1  -3   58.39    4.40
  -7  -1  -3   57.79    4.50
  -7   1  -3   70.99    4.80
  -7   1  -3   61.79    3.50
   7   1   3   71.79    3.80
  -7   1  -3   77.19    5.00
   7   1   3   67.99    4.40
  -7   1  -3   66.39    5.30
   8  -1   3   26.80    1.90
  -8  -1  -3   21.40    3.00
   8  -1   3   23.60    2.60
  -8  -1  -3   26.50    3.10
  -8   1  -3   22.40    2.60
  -8   1  -3   21.00    3.10
   8   1   3   26.10    3.20
   8   1   3   20.90    2.50
 -10  -2   3  172.98    9.90
  10  -2  -3  209.38    9.50
  10  -2  -3  222.58    9.80
 -10   2   3  198.88   10.50
 -10   2   3  209.78   10.00
  10   2  -3  211.18   10.00
   9  -2  -3  264.17   12.60
  -9  -2   3  259.37   12.40
   9  -2  -3  248.88   12.40
   9  -2  -3  268.87   12.30
  -9   2   3  300.47   14.60
  -9   2   3  292.27   14.30
   9   2  -3  299.87   14.30
  -9   2   3  301.77   14.60
   8  -2  -3    2.80    1.10
  -8  -2   3    1.80    3.10
  -8  -2   3    0.10    1.00
   8  -2  -3    1.00    0.90
   8  -2  -3    2.20    1.30
  -8  -2   3    1.90    1.60
   8   2  -3    1.50    1.40
  -8   2   3    2.20    0.50
  -8   2   3    2.40    1.70
  -8   2   3    3.00    1.60
   7  -2  -3  364.16   16.90
  -7  -2   3  343.77   16.70
   7  -2  -3  358.76   16.80
  -7  -2   3  345.47   16.80
   7  -2  -3  376.86   16.70
  -7  -2   3  360.26   16.60
  -7   2   3  366.46   16.90
  -7   2   3  367.96   17.70
   7   2  -3  367.96   17.40
  -6  -2   3   78.99    5.40
   6  -2  -3   69.59    4.20
  -6  -2   3   76.29    3.80
  -6  -2   3   75.99    4.00
   6  -2  -3   78.39    4.40
  -6   2   3   80.59    7.60
   6   2  -3   85.99    4.80
  -6   2   3   66.29    6.10
  -6   2   3   90.79    4.00
  -5  -2   3  667.33   30.00
  -5  -2   3  671.73   29.90
   5  -2  -3  679.13   30.00
  -5  -2   3  655.63   30.50
  -5  -2   3  615.94   29.80
   5  -2  -3  632.54   30.10
   5   2  -3  636.54   28.60
   5   2  -3  602.84   28.40
  -5   2   3  623.24   28.30
  -4  -2   3  121.59   18.00
  -4  -2   3  148.89    7.20
  -4  -2   3  137.39    6.60
  -4  -2   3  126.89   18.00
   4   2  -3  122.49    6.10
  -4   2   3  141.99   17.90
   3  -2  -3  619.64   34.80
   3  -2  -3  611.34   28.80
  -3  -2   3  594.44   34.20
  -3  -2   3  669.53   29.20
  -3  -2   3  682.43   35.30
   3  -2  -3  658.13   28.80
  -3  -2   3  622.74   28.80
   3  -2  -3  604.64   29.20
  -3   2   3  647.14   36.50
   3   2  -3  621.34   30.00
  -3   2   3  696.23   30.10
   2  -2  -3  142.39    6.90
  -2  -2   3  156.98   12.80
   2  -2  -3  138.09    7.00
   2  -2  -3  156.58    6.80
   2  -2  -3  152.18   13.40
  -2  -2   3  150.18    7.20
   2   2  -3  147.39   12.40
  -2   2   3  142.79    6.70
   2   2  -3  144.49    6.60
  -2   2   3  144.39   14.10
   2   2  -3  143.29    6.90
   1  -2  -3 1073.99   48.70
   1  -2  -3 1074.69   52.69
  -1  -2   3 1062.69   49.10
  -1  -2   3 1140.19   51.89
   1  -2  -3 1018.80   48.70
  -1   2   3 1049.99   51.29
   1   2  -3 1005.60   49.40
   1   2  -3 1032.60   46.90
  -1   2   3 1027.50   46.70
   0  -2  -3  647.04   35.60
   0  -2  -3  670.33   30.90
   0  -2   3  694.83   33.90
   0  -2  -3  685.23   30.90
   0  -2   3  691.03   31.30
   0   2   3  678.43   30.40
   0   2  -3  679.43   33.00
   0   2  -3  639.74   30.40
  -1  -2  -3   97.39   15.40
  -1  -2  -3   99.59    5.00
   1  -2   3  109.09   10.70
  -1  -2  -3  108.79    5.00
   1   2   3  119.39   15.90
  -1   2  -3  120.09    5.80
   1   2   3  133.79    6.10
  -1   2  -3  120.49   12.20
  -2  -2  -3 1690.73   76.99
   2  -2   3 1698.03   77.29
  -2   2  -3 1563.34   76.49
   2   2   3 1822.42   84.39
  -3  -2  -3   58.19    3.60
   3  -2   3   55.49    3.00
  -3  -2  -3   51.59   27.20
  -3  -2  -3   61.49    3.30
  -3  -2  -3   53.09    3.00
  -3  -2  -3   52.99    3.30
   3   2   3   86.29   23.90
  -3   2  -3   65.29    6.00
   3   2   3   71.49    3.80
  -3   2  -3   67.39    4.90
  -3   2  -3   65.59    4.40
  -3   2  -3   68.89    3.30
  -3   2  -3   70.89    3.70
  -3   2  -3   70.79    4.70
   3   2   3   68.19    4.40
  -4  -2  -3  296.87   13.40
  -4  -2  -3  295.87   13.40
   4  -2   3  276.57   13.50
   4  -2   3  304.77   13.50
   4  -2   3  269.77   13.90
  -4  -2  -3  293.77   13.60
  -4  -2  -3  264.07   13.30
  -4   2  -3  293.57   13.20
   4   2   3  276.97   13.50
  -4   2  -3  277.27   13.80
  -4   2  -3  270.27   14.10
  -4   2  -3  277.27   14.70
  -4   2  -3  275.87   13.50
  -4   2  -3  273.87   17.80
  -4   2  -3  294.57   13.90
   4   2   3  251.27   13.00
  -4   2  -3  295.37   12.90
  -5  -2  -3  140.99    6.80
   5  -2   3  134.29    6.80
   5  -2   3  129.19    6.80
  -5  -2  -3  140.49    7.00
  -5  -2  -3  125.79    6.70
  -5  -2  -3  143.29    6.70
   5  -2   3  136.19    7.40
   5   2   3  107.99    6.20
   5   2   3  117.79    5.70
  -5   2  -3  113.69    5.30
  -5   2  -3  102.19    7.70
  -5   2  -3  115.69    6.30
  -5   2  -3  107.29    6.70
  -5   2  -3  109.09    6.50
   6  -2   3  327.37   15.90
  -6  -2  -3  345.47   15.90
   6  -2   3  308.37   15.40
   6  -2   3  328.37   15.50
  -6  -2  -3  321.27   15.30
  -6   2  -3  321.47   16.90
  -6   2  -3  340.17   16.50
  -6   2  -3  328.27   15.20
  -6   2  -3  345.97   15.90
   6   2   3  309.87   16.20
  -7  -2  -3   10.10    1.60
   7  -2   3   10.40    1.30
   7  -2   3   12.00    1.50
   7  -2   3    9.60    1.90
  -7  -2  -3   12.20    2.40
  -7   2  -3    6.00    2.10
   7   2   3    7.00    2.20
   7   2   3   11.20    1.80
  -7   2  -3    7.90    2.10
  -7   2  -3    7.20    1.80
  -8  -2  -3   25.20    2.70
   8  -2   3   26.10    2.70
   8  -2   3   27.10    1.90
  -8  -2  -3   27.20    3.00
  -8   2  -3   14.40    2.10
  -8   2  -3   20.00    3.10
  10  -3  -3  380.66   16.50
  10  -3  -3  349.27   16.80
 -10  -3   3  339.77   16.50
 -10   3   3  307.47   14.30
 -10   3   3  288.87   14.80
   9  -3  -3  301.87   14.00
   9  -3  -3  296.97   13.40
  -9  -3   3  264.27   13.50
   9  -3  -3  271.97   13.40
  -9   3   3  278.37   14.10
   9   3  -3  290.27   13.70
  -9   3   3  289.27   14.00
  -9   3   3  289.67   14.00
   8  -3  -3  258.07   13.50
  -8  -3   3  280.97   13.10
   8  -3  -3  290.87   13.40
  -8  -3   3  277.17   13.40
   8  -3  -3  303.47   13.30
   8   3  -3  267.77   12.60
  -8   3   3  260.07   12.50
  -8   3   3  257.07   12.90
  -8   3   3  243.58   11.90
  -8   3   3  255.47   12.80
   7  -3  -3  224.88   10.80
  -7  -3   3  230.18   10.90
  -7  -3   3  232.18   11.00
  -7  -3   3  230.58   10.70
   7  -3  -3  221.58   11.10
  -7   3   3  251.47   12.30
   7   3  -3  260.07   12.30
  -7   3   3  254.47   12.60
  -7   3   3  241.48   13.60
   6  -3  -3   27.20    2.70
   6  -3  -3   30.20    2.20
  -6  -3   3   30.90    2.00
  -6  -3   3   29.10    2.30
  -6   3   3   46.70    3.80
  -6   3   3   50.89    5.60
  -6   3   3   49.50    2.50
  -5  -3   3  286.27   13.10
  -5  -3   3  267.37   13.60
   5  -3  -3  285.07   13.20
  -5  -3   3  299.27   13.00
   5  -3  -3  249.28   13.00
  -5   3   3  294.17   14.60
  -5   3   3  321.87   14.00
   5   3  -3  312.37   14.50
   5   3  -3  272.97   14.50
   5   3  -3  320.67   17.40
  -5   3   3  301.27   15.30
  -4  -3   3  296.47   14.00
  -4  -3   3  297.57   13.40
   4  -3  -3  279.97   13.90
  -4  -3   3  278.97   13.50
  -4   3   3  277.77   14.50
   4   3  -3  291.57   13.50
  -4   3   3  231.88   37.40
  -4   3   3  296.77   14.00
   3  -3  -3 1198.98   59.99
   3  -3  -3 1160.78   53.79
   3  -3  -3 1181.38   53.59
  -3  -3   3 1101.29   59.19
  -3  -3   3 1249.97   54.09
  -3   3   3 1180.28   63.19
   3   3  -3 1260.17   56.29
  -3   3   3 1250.87   55.99
  -2  -3   3  454.65   25.90
   2  -3  -3  463.05   21.10
   2  -3  -3  431.76   27.00
  -2  -3   3  471.15   26.50
  -2  -3   3  477.95   21.50
  -2   3   3  340.77   24.60
  -2   3   3  376.06   16.80
   2   3  -3  372.96   17.10
   1  -3  -3  910.31   41.20
  -1  -3   3  950.80   45.40
  -1  -3   3  903.51   41.50
   1  -3  -3  852.81   46.00
   1   3  -3  934.81   41.90
  -1   3   3  912.21   48.30
  -1   3   3  899.71   41.70
   0  -3  -3  364.56   17.10
   0  -3   3  388.06   19.60
   0  -3   3  376.96   17.50
   0  -3  -3  366.76   17.10
   0  -3  -3  358.86   24.50
   0   3  -3  377.46   20.60
   0   3  -3  442.46   18.50
   0   3   3  368.36   25.80
   0   3  -3  393.86   18.10
  -1  -3  -3   48.30    2.60
   1  -3   3   62.49    6.90
  -1  -3  -3   36.40   14.50
  -1  -3  -3   49.80    2.60
   1  -3   3   52.99    3.40
   1   3   3   63.59    3.20
  -1   3  -3   65.19    7.60
  -1   3  -3   61.29    3.40
   1   3   3   71.39   19.30
  -1   3  -3   63.89    2.90
  -2  -3  -3  896.31   57.49
  -2  -3  -3  914.51   41.80
  -2  -3  -3  978.20   42.00
  -2  -3  -3  925.71   41.80
  -2  -3  -3  909.11   41.80
   2  -3   3  870.71   41.80
  -2   3  -3 1128.49   50.39
  -2   3  -3 1137.29   52.39
  -2   3  -3 1111.09   49.80
  -2   3  -3 1062.99   50.09
  -2   3  -3 1110.49   49.99
  -2   3  -3 1039.60   49.90
  -2   3  -3 1048.80   49.60
   2   3   3 1014.20   49.70
   2   3   3 1133.29   61.79
   3  -3   3  229.48   11.10
  -3  -3  -3  231.48   10.80
  -3  -3  -3  224.38   10.80
  -3  -3  -3  234.88   10.90
  -3  -3  -3  234.18   11.10
  -3   3  -3  228.88   10.40
  -3   3  -3  220.08    9.90
  -3   3  -3  214.08   10.70
  -3   3  -3  217.68    9.90
   3   3   3  182.38   10.50
  -3   3  -3  214.88   11.00
   3   3   3  229.08   10.70
  -3   3  -3  227.18   13.80
  -3   3  -3  218.98   11.10
  -3   3  -3  230.58   11.90
  -3   3  -3  201.88   11.10
  -4  -3  -3   39.10    2.40
  -4  -3  -3   40.40    3.00
   4  -3   3   38.50    3.20
   4  -3   3   39.50    5.10
  -4  -3  -3   41.00    2.60
   4  -3   3   43.50    2.60
  -4  -3  -3   39.10    3.00
  -4   3  -3   20.10    4.10
  -4   3  -3   21.80    1.20
  -4   3  -3   23.40    2.90
  -4   3  -3   23.10    3.30
  -4   3  -3   21.10    2.30
  -4   3  -3   25.40    6.10
   4   3   3   20.60    2.40
  -4   3  -3   18.50    2.20
  -4   3  -3   22.20    1.20
  -4   3  -3   23.00    2.60
   4   3   3   25.20    2.70
   5  -3   3  468.55   23.20
   5  -3   3  490.05   23.20
  -5  -3  -3  507.15   23.00
  -5  -3  -3  511.95   23.20
  -5  -3  -3  542.85   23.40
   5  -3   3  485.75   23.60
  -5   3  -3  489.75   24.00
  -5   3  -3  496.45   23.50
  -5   3  -3  501.25   23.40
  -5   3  -3  479.65   22.30
  -5   3  -3  512.45   23.10
   5   3   3  461.05   22.60
  -5   3  -3  477.55   23.30
   5   3   3  493.85   23.00
   6  -3   3  182.38    8.80
  -6  -3  -3  169.78    9.00
  -6  -3  -3  182.18    8.90
   6  -3   3  182.38    8.70
   6  -3   3  170.28    9.30
  -6   3  -3  185.88   10.60
  -6   3  -3  209.88   10.50
  -6   3  -3  193.28   10.20
   6   3   3  200.28    9.90
  -6   3  -3  190.78    9.10
  -6   3  -3  202.28   10.00
   7  -3   3  133.39    7.30
   7  -3   3  136.39    6.80
   7  -3   3  141.49    6.70
  -7  -3  -3  132.19    6.80
  -7  -3  -3  130.29    7.80
  -7   3  -3  146.49    7.50
  -7   3  -3  119.29    6.80
  -7   3  -3  124.39    7.10
  -8  -3  -3   49.99    6.10
   8  -3   3   50.59    4.20
  -8  -3  -3   54.89    3.80
   8  -3   3   53.79    2.90
  -8   3  -3   42.00    3.90
   8   3   3   39.60    2.80
  -8   3  -3   38.80    3.30
  -8   3  -3   41.10    3.00
   9  -4  -3   65.09    4.10
   9  -4  -3   74.09    4.20
   9  -4  -3   74.59    3.80
  -9  -4   3   76.79    4.00
  -9   4   3   83.79    4.70
  -9   4   3   82.79    5.90
  -9   4   3   89.59    5.10
  -8  -4   3   28.80    2.00
   8  -4  -3   29.60    2.20
   8  -4  -3   32.90    2.30
  -8  -4   3   29.00    2.40
   8  -4  -3   31.10    2.80
  -8   4   3   43.50    3.20
  -8   4   3   42.20    3.60
  -8   4   3   40.50    4.40
   7  -4  -3  371.86   18.20
  -7  -4   3  412.66   18.40
  -7  -4   3  402.56   18.10
   7  -4  -3  378.16   18.40
  -7  -4   3  384.86   18.30
  -7   4   3  395.96   19.40
  -7   4   3  386.46   18.80
  -7   4   3  372.76   17.80
  -7   4   3  372.16   18.40
  -7   4   3  420.16   20.10
   6  -4  -3  384.36   17.80
   6  -4  -3  376.06   18.00
  -6  -4   3  381.86   17.70
  -6  -4   3  387.86   17.90
  -6   4   3  350.16   17.10
  -6   4   3  362.46   17.80
  -6   4   3  363.36   17.40
  -6   4   3  369.46   18.00
  -6   4   3  357.46   16.50
   5  -4  -3  110.29    5.50
  -5  -4   3  109.79    6.80
  -5  -4   3  111.69    5.40
   5  -4  -3  100.19    5.80
  -5   4   3   96.99    4.70
  -5   4   3  106.49    5.70
   5   4  -3   92.59    5.90
  -5   4   3   98.29    5.90
  -5   4   3  113.29    7.20
  -4  -4   3    4.60    1.70
   4  -4  -3    4.80    1.40
  -4  -4   3    5.10    1.30
   4  -4  -3    8.20    2.50
  -4  -4   3    3.70    1.00
   4   4  -3    7.90    1.70
   4   4  -3   10.40    1.50
  -4   4   3    8.00    0.80
  -4   4   3    7.20    0.50
  -4   4   3    6.20    2.10
  -4   4   3   14.20    2.10
  -3  -4   3  477.15   22.30
   3  -4  -3  473.35   21.70
  -3   4   3  487.15   23.80
   3   4  -3  490.65   23.60
   3   4  -3  495.95   23.10
  -3   4   3  509.65   22.70
   3   4  -3  533.55   23.40
  -3   4   3  450.35   39.10
   3   4  -3  484.25   23.10
  -2  -4   3  545.35   24.50
   2  -4  -3  527.45   24.00
  -2  -4   3  523.55   30.40
   2  -4  -3  490.55   32.70
  -2   4   3  542.45   36.00
   2   4  -3  593.64   25.50
   2   4  -3  563.44   25.20
  -2   4   3  546.45   24.90
  -2   4   3  514.15   26.00
   2   4  -3  528.65   25.30
   2   4  -3  538.45   25.50
   1  -4  -3  603.94   27.20
  -1  -4   3  618.34   27.60
   1  -4  -3  542.25   35.10
   1   4  -3  667.33   29.80
  -1   4   3  630.34   38.50
   1   4  -3  622.44   29.40
  -1   4   3  643.34   29.10
   1   4  -3  621.14   29.60
   1   4  -3  645.84   29.50
   0  -4  -3  504.55   35.40
   0  -4   3  560.84   25.50
   0  -4  -3  551.54   25.00
   0   4  -3  567.94   27.20
   0   4   3  563.54   26.30
   0   4  -3  591.24   29.30
   0   4  -3  571.44   26.90
   0   4  -3  561.14   27.40
   0   4   3  558.14   37.20
   0   4  -3  562.14   26.70
   0   4  -3  596.74   26.60
   0   4  -3  588.84   26.60
   0   4  -3  593.94   26.90
  -1  -4  -3  147.09    7.50
  -1  -4  -3  139.09    7.10
  -1  -4  -3  152.28    7.10
   1  -4   3  152.48    7.80
  -1   4  -3  158.78    8.60
  -1   4  -3  164.48    8.00
  -1   4  -3  170.98    9.40
  -1   4  -3  151.08    8.70
  -1   4  -3  166.68    8.70
  -1   4  -3  170.48    9.30
  -1   4  -3  167.08    8.20
  -2  -4  -3  455.45   20.80
  -2  -4  -3  464.85   21.00
  -2  -4  -3  425.86   20.70
   2  -4   3  453.85   21.70
  -2   4  -3  444.26   20.60
  -2   4  -3  461.35   21.70
  -2   4  -3  433.86   20.80
  -2   4  -3  443.56   21.30
  -2   4  -3  451.85   20.70
  -2   4  -3  451.05   21.10
  -2   4  -3  459.75   23.80
   2   4   3  417.86   20.60
  -2   4  -3  430.26   21.10
  -3  -4  -3   90.69    4.90
   3  -4   3   86.29    4.50
  -3  -4  -3   81.99    4.50
  -3  -4  -3   90.59    4.60
  -3   4  -3   95.09    9.40
  -3   4  -3  100.09    5.90
   3   4   3   92.79    5.40
  -3   4  -3   95.49    5.90
  -3   4  -3   97.29    6.60
  -3   4  -3   92.99    5.40
  -3   4  -3   86.09    6.00
  -3   4  -3  103.69    5.30
  -3   4  -3   89.79    5.40
  -4  -4  -3  143.89    7.00
  -4  -4  -3  137.49    6.70
  -4  -4  -3  134.79    6.60
   4  -4   3  128.89    7.20
   4  -4   3  127.99    6.60
  -4   4  -3  145.09    7.90
  -4   4  -3  139.09    8.20
  -4   4  -3  147.49   12.40
  -4   4  -3  148.89    9.00
  -4   4  -3  145.49    8.10
  -4   4  -3  141.19    7.60
   5  -4   3   33.90    2.90
   5  -4   3   30.80    2.50
  -5  -4  -3   39.40    2.90
   5  -4   3   37.30    3.80
  -5  -4  -3   36.70    2.90
  -5  -4  -3   36.10    2.40
  -5   4  -3   41.70    4.30
  -5   4  -3   51.29   12.30
  -5   4  -3   42.50    3.80
  -5   4  -3   42.60    3.40
  -5   4  -3   44.90    4.30
  -5   4  -3   41.30    5.30
   6  -4   3  333.47   15.60
  -6  -4  -3  342.47   15.80
   6  -4   3  336.87   15.70
  -6  -4  -3  328.67   15.40
   6  -4   3  323.37   16.20
  -6  -4  -3  332.07   15.90
  -6   4  -3  306.47   15.90
   6   4   3  323.17   15.30
  -6   4  -3  322.47   15.80
  -6   4  -3  336.07   15.50
  -6   4  -3  321.67   15.70
  -7  -4  -3   35.20    2.50
   7  -4   3   38.20    2.40
   7  -4   3   35.50    4.10
   7  -4   3   34.20    2.50
   7   4   3   48.00    3.40
  -7   4  -3   47.80    4.20
  -7   4  -3   48.20    3.30
  -7   4  -3   47.30    4.10
  -8  -4  -3    0.20    1.80
  -8   4  -3    2.40    1.40
  -8   4  -3    1.60    1.40
   9  -5  -3  380.86   17.70
   9  -5  -3  376.16   17.60
   9  -5  -3  395.36   17.60
  -9  -5   3  369.06   17.60
  -9   5   3  333.67   15.60
  -9   5   3  331.67   15.80
   8  -5  -3   12.50    1.60
   8  -5  -3   11.70    1.30
  -8  -5   3   12.90    1.40
  -8  -5   3   13.30    1.60
   8  -5  -3   13.70    1.70
  -8   5   3    4.40    1.60
  -8   5   3    5.50    1.40
   7  -5  -3  235.38   11.40
  -7  -5   3  227.58   11.40
  -7  -5   3  237.78   11.10
  -7  -5   3  234.48   11.30
   7  -5  -3  239.58   11.20
  -7   5   3  232.58   11.40
  -7   5   3  235.58   12.20
  -7   5   3  226.68   11.70
  -6  -5   3   66.49    3.70
   6  -5  -3   58.79    3.60
  -6  -5   3   59.59    3.40
   6  -5  -3   61.89    4.20
  -6   5   3   71.89    4.40
  -6   5   3   68.49    5.60
  -6   5   3   64.69    4.60
  -6   5   3   67.49    3.20
   5  -5  -3 1045.10   48.60
  -5  -5   3 1075.29   48.70
   5  -5  -3 1007.90   48.70
  -5  -5   3 1126.99   48.60
  -5   5   3 1113.99   50.79
  -5   5   3 1099.59   49.99
  -5   5   3 1091.39   49.40
  -5   5   3 1079.09   49.40
   5   5  -3 1052.39   49.80
  -5   5   3 1097.19   50.29
  -4  -5   3  540.75   25.50
   4  -5  -3  521.95   24.80
   4  -5  -3  528.35   24.60
  -4  -5   3  524.95   24.70
  -4  -5   3  546.75   24.50
  -4   5   3  502.35   23.60
  -4   5   3  492.75   22.70
  -4   5   3  559.54   23.80
   4   5  -3  502.85   27.30
   4   5  -3  474.25   23.10
   4   5  -3  475.75   23.30
  -4   5   3  466.95   24.00
  -4   5   3  510.55   22.60
   3  -5  -3 1089.39   50.29
  -3  -5   3 1207.58   50.89
   3  -5  -3 1013.80   50.79
  -3  -5   3 1110.79   50.69
  -3  -5   3 1086.29   50.19
  -3   5   3 1220.78   56.79
  -3   5   3 1251.87   56.29
   3   5  -3 1303.57   60.09
   3   5  -3 1237.88   56.59
   3   5  -3 1245.08   57.19
   3   5  -3 1229.58   56.89
  -3   5   3 1244.18   56.99
  -3   5   3 1094.39   57.39
   3   5  -3 1335.97   57.09
   2  -5  -3  104.19    5.90
   2  -5  -3  109.09    5.20
   2  -5  -3  102.09    5.50
  -2  -5   3  102.09    5.80
   2   5  -3  181.78    9.00
   2   5  -3  169.48   12.40
   2   5  -3  164.18    9.40
   2   5  -3  167.48    9.00
   2   5  -3  168.28    8.50
  -2   5   3  199.38    9.60
  -2   5   3  170.48    9.40
   2   5  -3  162.08   10.20
   1  -5  -3 1038.60   49.99
   1  -5  -3 1131.99   49.99
  -1  -5   3 1120.49   50.79
   1  -5  -3 1099.79   50.19
   1   5  -3 1205.48   55.19
   1   5  -3 1227.48   54.89
   1   5  -3 1210.98   57.99
   1   5  -3 1181.88   55.69
   1   5  -3 1171.98   55.49
   1   5  -3 1218.08   54.99
  -1   5   3 1250.67   54.59
   1   5  -3 1244.28   55.19
   1   5  -3 1236.28   55.09
  -1   5   3 1075.09   55.59
   0  -5  -3  473.05   23.40
   0  -5  -3  514.55   23.40
   0  -5  -3  501.65   23.80
   0  -5   3  545.05   24.20
   0   5   3  558.14   27.80
   0   5  -3  579.74   27.30
   0   5  -3  558.74   26.90
   0   5  -3  593.14   27.80
   0   5  -3  580.84   27.60
   0   5  -3  584.54   30.20
   0   5  -3  598.44   27.10
   0   5  -3  600.84   27.30
   0   5  -3  591.34   27.10
  -1  -5  -3  727.83   32.30
  -1  -5  -3  716.03   32.10
   1  -5   3  689.13   32.90
  -1  -5  -3  670.03   32.20
  -1   5  -3  766.92   39.20
  -1   5  -3  765.52   36.40
   1   5   3  751.32   36.90
  -1   5  -3  810.32   36.00
  -1   5  -3  810.82   37.10
  -1   5  -3  783.62   36.40
  -1   5  -3  796.12   36.90
  -1   5  -3  784.62   36.20
  -1   5  -3  783.52   36.70
   2  -5   3  572.04   28.30
  -2  -5  -3  607.34   27.60
  -2  -5  -3  602.84   27.30
  -2  -5  -3  576.84   27.40
  -2   5  -3  615.84   29.30
  -2   5  -3  659.53   30.40
  -2   5  -3  634.74   29.80
  -2   5  -3  650.03   29.10
  -2   5  -3  620.04   29.70
  -2   5  -3  644.24   30.30
  -2   5  -3  592.94   36.20
   3  -5   3  427.06   20.80
  -3  -5  -3  457.25   21.00
  -3  -5  -3  448.76   20.90
  -3  -5  -3  474.45   21.20
  -3   5  -3  460.05   21.80
  -3   5  -3  441.66   21.20
  -3   5  -3  441.66   20.90
  -3   5  -3  428.16   24.30
  -3   5  -3  447.96   20.80
  -3   5  -3  444.36   21.20
  -3   5  -3  444.56   20.50
  -3   5  -3  423.16   21.40
  -4  -5  -3  352.76   17.20
   4  -5   3  372.36   16.90
  -4  -5  -3  364.46   16.90
  -4  -5  -3  359.56   17.10
   4   5   3  368.86   17.20
  -4   5  -3  361.36   17.00
  -4   5  -3  370.56   18.10
  -4   5  -3  344.67   21.10
  -4   5  -3  383.96   18.40
  -4   5  -3  368.26   17.70
  -4   5  -3  358.06   17.70
  -4   5  -3  354.96   17.40
   5  -5   3  224.18   11.00
   5  -5   3  229.48   10.80
  -5  -5  -3  230.98   10.70
  -5  -5  -3  223.88   11.10
  -5  -5  -3  222.28   11.00
  -5   5  -3  174.08   15.40
  -5   5  -3  214.38   10.70
  -5   5  -3  187.88   10.20
   5   5   3  202.38    9.90
  -5   5  -3  203.28    9.90
  -5   5  -3  194.28   10.90
  -5   5  -3  199.78   10.20
  -6  -5  -3   87.79    5.20
   6  -5   3   97.99    5.00
  -6  -5  -3   92.89    5.10
   6  -5   3   97.69    5.20
  -6   5  -3   73.19    5.20
  -6   5  -3   68.89    4.60
  -6   5  -3   75.69    4.40
  -6   5  -3   73.59    4.90
   7  -5   3   44.60    2.90
  -7  -5  -3   47.30    2.80
   7  -5   3   44.80    2.70
  -7   5  -3   48.60    4.40
  -7   5  -3   52.69    3.20
  -7   5  -3   54.69    3.50
  -8  -6   3   90.69    4.60
   8  -6  -3   97.79    4.70
   8  -6  -3   98.19    4.90
   8  -6  -3   88.99    5.50
  -8  -6   3   97.29    4.90
  -8   6   3  124.09    8.90
  -8   6   3   99.19    5.80
  -8   6   3  100.49    5.50
   7  -6  -3   73.29    4.70
  -7  -6   3   71.09    3.70
   7  -6  -3   73.99    3.90
  -7  -6   3   74.79    4.10
  -7   6   3   62.19    4.00
  -7   6   3   67.09    6.10
  -7   6   3   66.79    4.40
   6  -6  -3  269.17   14.70
   6  -6  -3  282.37   12.80
  -6  -6   3  265.47   12.80
  -6  -6   3  273.87   13.00
  -6  -6   3  268.07   13.00
  -6   6   3  244.28   11.80
  -6   6   3  241.98   12.20
  -6   6   3  235.08   12.50
   5  -6  -3  269.37   13.70
  -5  -6   3  303.77   13.40
  -5  -6   3  281.97   13.50
   5  -6  -3  282.97   13.40
  -5   6   3  343.07   16.00
  -5   6   3  325.77   16.10
   5   6  -3  275.97   14.90
  -5   6   3  315.17   15.30
   4  -6  -3  106.99    6.50
  -4  -6   3  116.39    5.70
  -4  -6   3  110.49    6.00
   4  -6  -3  114.69    5.90
   4   6  -3  135.19   12.00
   4   6  -3  126.09    7.10
  -4   6   3  129.09    7.20
  -4   6   3  127.19    7.70
   4   6  -3  127.59    6.80
  -4   6   3  125.89    7.40
   3  -6  -3   38.80    4.20
  -3  -6   3   45.40    3.90
   3   6  -3   47.90    4.80
   3   6  -3   48.60    8.10
  -3   6   3   45.20    4.40
  -3   6   3   42.80    4.50
   3   6  -3   45.10    3.50
   3   6  -3   45.60    3.90
   3   6  -3   47.40    3.40
   2  -6  -3  154.08    7.70
   2  -6  -3  150.88    8.10
   2  -6  -3  154.78    7.60
  -2  -6   3  161.28    9.00
   2   6  -3  173.88    9.00
   2   6  -3  173.78    8.90
  -2   6   3  166.78    9.60
   2   6  -3  162.78   10.40
   2   6  -3  163.48    8.80
  -2   6   3  169.88    9.50
   2   6  -3  174.78    9.10
   2   6  -3  180.38    8.60
   2   6  -3  173.78    9.40
   2   6  -3  184.18   13.10
   1  -6  -3   21.70    1.90
  -1  -6   3   17.70    3.30
   1  -6  -3   14.30    1.70
   1  -6  -3   15.40    2.20
   1   6  -3   17.90    2.40
   1   6  -3   16.00    2.80
  -1   6   3   20.60    1.00
  -1   6   3   21.60    4.00
   1   6  -3   14.60    1.60
  -1   6   3    2.70    4.60
   1   6  -3   12.20    2.00
   1   6  -3   16.50    3.50
   1   6  -3   21.00    2.40
   1   6  -3   14.50    2.10
   1   6  -3   12.30    4.80
   0  -6  -3   29.80    3.20
   0  -6  -3   33.40    2.60
   0  -6  -3   35.00    2.30
   0  -6   3   29.80    4.60
   0   6  -3   34.80    3.40
   0   6   3   32.00    1.80
   0   6  -3   32.20    3.60
   0   6  -3   35.00    4.30
   0   6  -3   37.90    6.60
   0   6  -3   36.60    4.50
   0   6  -3   36.10    4.40
   0   6  -3   35.10    2.80
   0   6  -3   38.70    3.20
  -1  -6  -3  193.48    9.20
   1  -6   3  190.08   12.20
  -1  -6  -3  183.48    9.10
  -1  -6  -3  187.48    9.40
  -1   6  -3  194.68    9.80
   1   6   3  223.38   13.00
  -1   6  -3  197.38   10.00
  -1   6  -3  194.48   10.30
  -1   6  -3  200.58   10.10
  -1   6  -3  195.18   10.70
  -1   6  -3  193.98   10.30
  -1   6  -3  206.38   13.80
  -1   6  -3  205.68   11.10
  -2  -6  -3 1058.19   48.80
  -2  -6  -3 1083.29   49.00
  -2  -6  -3 1060.39   48.90
  -2   6  -3 1155.98   52.59
  -2   6  -3 1197.18   55.79
  -2   6  -3 1134.39   52.29
  -2   6  -3 1081.59   51.99
  -2   6  -3 1108.69   51.99
  -2   6  -3 1154.98   51.69
  -2   6  -3 1109.49   52.19
  -2   6  -3 1095.59   52.79
  -3  -6  -3    5.50    1.50
  -3  -6  -3    4.60    1.00
  -3  -6  -3    6.20    1.60
  -3   6  -3    5.10    2.00
  -3   6  -3    9.10    1.80
  -3   6  -3    7.40    2.10
  -3   6  -3    8.50    2.70
  -3   6  -3    9.50    3.00
  -3   6  -3    8.40    1.40
  -3   6  -3    6.10    4.50
  -4  -6  -3   46.40    2.80
  -4  -6  -3   47.20    3.40
   4  -6   3   45.70    3.40
  -4  -6  -3   52.19    3.40
  -4   6  -3   47.80    8.20
  -4   6  -3   52.39    4.90
  -4   6  -3   50.69    3.40
  -4   6  -3   47.00    3.90
  -4   6  -3   50.09    3.70
  -4   6  -3   54.29    4.10
  -4   6  -3   52.09    4.70
  -5  -6  -3   72.09    3.80
   5  -6   3   79.69    4.80
  -5  -6  -3   65.19    4.70
   5  -6   3   72.59    4.20
  -5  -6  -3   73.39    4.20
  -5   6  -3   51.19    4.80
  -5   6  -3   56.89    4.10
  -5   6  -3   57.49    3.70
  -5   6  -3   57.09    4.50
  -5   6  -3   54.59    3.90
  -5   6  -3   48.70   11.20
  -6  -6  -3   76.59    3.90
   6  -6   3   78.49    4.30
  -6  -6  -3   76.49    4.20
   6  -6   3   73.49    4.20
  -6   6  -3   63.99    3.70
  -6   6  -3   66.79    4.50
  -6   6  -3   60.39    4.10
  -6   6  -3   56.79    3.90
  -7  -6  -3   53.49    3.00
   7  -6   3   56.09    3.10
  -7   6  -3   50.39    2.90
  -7   6  -3   48.20    3.10
  -8  -7   3  116.09    5.70
   8  -7  -3  115.09    5.60
  -8  -7   3  115.79    5.50
  -8   7   3  127.29    6.20
  -8   7   3  124.39    6.40
  -7  -7   3  345.97   16.30
   7  -7  -3  356.36   16.20
  -7  -7   3  361.76   16.10
   7  -7  -3  327.67   16.10
  -7   7   3  351.56   15.90
  -7   7   3  303.07   16.20
  -7   7   3  341.87   15.60
   6  -7  -3   89.99    4.70
  -6  -7   3   83.19    5.00
  -6  -7   3   89.39    4.40
  -6   7   3   72.29    5.20
  -6   7   3   81.89    5.60
  -6   7   3   83.39    5.00
  -5  -7   3  360.76   17.30
  -5  -7   3  371.46   17.10
  -5  -7   3  363.26   17.40
   5  -7  -3  378.26   17.20
  -5   7   3  330.17   15.50
   5   7  -3  286.37   15.20
  -5   7   3  334.57   15.90
  -5   7   3  340.97   16.30
  -4  -7   3  247.28   11.90
  -4  -7   3  241.58   11.50
  -4   7   3  210.78   10.50
   4   7  -3  203.88   10.00
  -4   7   3  207.58   10.70
  -4   7   3  200.08   10.90
   4   7  -3  197.78   14.50
   3  -7  -3  260.57   12.50
  -3  -7   3  266.47   12.50
   3   7  -3  269.37   12.80
  -3   7   3  261.77   13.60
   3   7  -3  270.17   13.40
   3   7  -3  281.27   17.10
  -3   7   3  260.17   13.80
   2  -7  -3  275.37   12.80
   2  -7  -3  263.57   13.30
   2   7  -3  375.96   20.30
   2   7  -3  338.37   16.20
   2   7  -3  339.37   16.60
   2   7  -3  325.67   16.20
  -2   7   3  327.97   16.60
   2   7  -3  330.87   15.80
  -2   7   3  348.37   16.90
   2   7  -3  284.37   17.40
   1  -7  -3  410.36   19.00
   1  -7  -3  403.86   18.90
   1  -7  -3  396.06   18.70
   1   7  -3  416.66   19.30
   1   7  -3  391.76   19.40
   1   7  -3  401.06   19.70
   1   7  -3  407.16   19.70
   1   7  -3  395.16   20.20
  -1   7   3  396.96   20.30
   1   7  -3  403.26   20.60
   1   7  -3  417.36   20.20
   1   7  -3  473.75   23.90
   0  -7  -3  223.68   10.90
   0  -7  -3  223.88   11.10
   0  -7  -3  225.38   10.70
   0   7  -3  248.28   12.40
   0   7   3  233.88   13.00
   0   7  -3  267.87   16.20
   0   7  -3  242.78   11.80
   0   7  -3  250.17   12.80
   0   7  -3  240.28   12.10
   0   7  -3  247.08   12.40
   0   7  -3  254.07   12.50
   0   7  -3  239.98   13.20
  -1  -7  -3  374.16   17.30
  -1  -7  -3  365.66   17.60
  -1  -7  -3  372.66   17.50
  -1   7  -3  359.76   18.20
  -1   7  -3  387.66   18.00
  -1   7  -3  388.86   18.30
  -1   7  -3  383.76   17.70
  -1   7  -3  383.56   18.70
  -1   7  -3  409.56   22.20
  -1   7  -3  380.76   18.30
   1   7   3  340.27   19.00
  -1   7  -3  373.16   19.00
  -2  -7  -3    2.80    1.60
  -2  -7  -3    1.30    1.40
  -2  -7  -3    2.00    1.00
  -2   7  -3    3.40    2.80
  -2   7  -3    2.70    4.10
  -2   7  -3    7.00    1.90
  -2   7  -3    1.40    2.60
  -2   7  -3    3.90    1.70
  -2   7  -3    2.10    2.20
  -2   7  -3    3.10    1.50
  -2   7  -3    3.90    1.30
  -3  -7  -3  104.29    5.70
  -3  -7  -3  104.79    5.20
  -3  -7  -3   97.89    5.70
  -3   7  -3   78.49    5.00
  -3   7  -3   70.29    8.40
  -3   7  -3   73.29    4.90
  -3   7  -3   78.09    4.20
  -3   7  -3   77.79    5.40
  -3   7  -3   78.99    6.00
  -3   7  -3   74.39    4.60
  -4  -7  -3  486.15   21.80
  -4  -7  -3  469.45   22.20
  -4  -7  -3  461.95   22.10
  -4   7  -3  413.66   19.50
  -4   7  -3  434.86   20.20
  -4   7  -3  398.66   19.40
  -4   7  -3  418.66   19.30
  -4   7  -3  406.36   19.80
  -4   7  -3  379.36   22.40
  -5  -7  -3   99.09    5.20
  -5  -7  -3  100.49    4.90
  -5   7  -3   99.19    5.80
  -5   7  -3   97.19    5.40
  -5   7  -3   97.39    5.40
  -5   7  -3   97.39    5.20
  -5   7  -3   91.39    6.10
  -6  -7  -3   22.30    1.80
  -6  -7  -3   19.10    2.00
  -6   7  -3   26.40    2.60
  -6   7  -3   22.40    2.30
  -6   7  -3   24.00    2.00
  -6  -8   3    5.40    0.80
  -6  -8   3    6.30    1.70
   6  -8  -3    6.20    1.60
  -6   8   3    9.10    1.70
  -6   8   3    5.50    1.80
  -6   8   3    7.30    2.00
  -5  -8   3  159.68    8.20
  -5  -8   3  168.08    7.70
   5  -8  -3  153.88    7.80
  -5   8   3  146.29    7.70
  -5   8   3  117.59    8.70
  -5   8   3  166.78    7.80
  -4  -8   3   46.80    2.80
  -4  -8   3   41.90    4.70
   4  -8  -3   47.50    4.40
  -4  -8   3   39.10    3.50
  -4   8   3   45.20    4.10
  -4   8   3   51.59    4.10
   4   8  -3   43.10    3.10
  -3  -8   3   30.10    3.10
   3  -8  -3   27.80    2.90
  -3  -8   3   32.00    2.70
  -3   8   3   34.40    3.90
   3   8  -3   32.50    2.60
   3   8  -3   28.20    6.50
  -3   8   3   32.00    4.30
  -2  -8   3   33.80    3.40
   2  -8  -3   39.40    2.90
   2   8  -3   36.00    3.50
   2   8  -3   39.90    6.70
  -2   8   3   26.50    4.00
  -2   8   3   43.20    4.40
   2   8  -3   40.20    2.80
   1  -8  -3   29.00    2.60
  -1  -8   3   32.60    3.70
   1   8  -3   31.60    2.50
  -1   8   3   31.40    4.10
   1   8  -3   31.80    5.50
   1   8  -3   33.00    3.80
   1   8  -3   35.90    6.80
   1   8  -3   30.30    3.90
   1   8  -3   26.20    3.50
   0  -8  -3   28.50    3.50
   0  -8  -3   28.50    2.40
   0  -8  -3   31.30    3.30
   0   8   3   19.10    3.10
   0   8  -3   17.90    3.20
   0   8  -3   25.90    3.50
   0   8  -3   21.70    5.70
   0   8  -3   23.60    4.50
   0   8  -3   20.80    2.50
   0   8  -3   26.50    3.10
   0   8  -3   21.70    2.10
   0   8  -3   23.60    2.70
  -1  -8  -3   30.90    3.30
  -1  -8  -3   28.50    3.40
  -1  -8  -3   33.40    2.40
  -1   8  -3   30.50    6.30
  -1   8  -3   27.20    3.60
  -1   8  -3   32.60    4.30
  -1   8  -3   29.90    2.30
  -1   8  -3   27.70    3.20
  -1   8  -3   18.80    4.30
  -1   8  -3   29.00    3.00
  -1   8  -3   27.50    3.20
  -2  -8  -3  946.11   42.30
  -2  -8  -3  872.81   42.40
  -2  -8  -3  943.91   42.20
  -2   8  -3  930.21   43.20
  -2   8  -3  965.10   43.80
  -2   8  -3  943.61   43.50
  -2   8  -3  962.10   44.10
  -2   8  -3 1060.29   44.70
  -2   8  -3  834.42   46.30
  -2   8  -3  924.01   43.60
  -3  -8  -3   47.50    2.80
  -3  -8  -3   46.30    3.60
  -3   8  -3   57.49    4.70
  -3   8  -3   60.39    3.90
  -3   8  -3   49.10    3.70
  -3   8  -3   56.09    3.30
  -3   8  -3   44.30    4.00
  -4  -8  -3    6.70    0.90
  -4  -8  -3    8.40    1.40
  -4   8  -3    8.00    2.00
  -4   8  -3   14.80    2.40
  -4   8  -3    7.00    4.90
  -4   8  -3   11.10    1.50
  -4   8  -3   13.10    1.80
  -4   8  -3   10.00    1.70
  -5  -8  -3   34.70    2.10
  -5  -8  -3   33.80    2.70
  -5   8  -3   30.30    2.80
  -5   8  -3   33.00    2.50
   5  -9  -3   48.50    3.70
  -5  -9   3   59.89    3.00
  -5   9   3   61.09    4.00
  -5   9   3   57.59    4.00
  -4  -9   3   42.60    2.50
   4  -9  -3   42.70    3.00
  -4   9   3   28.60    3.50
  -4   9   3   31.50    3.10
   3  -9  -3   64.99    3.80
  -3  -9   3   59.99    3.60
  -3   9   3   74.29    5.00
   3   9  -3   75.79    4.00
   2  -9  -3  164.08    8.00
   2   9  -3  188.08    8.40
   2   9  -3  147.29   11.30
  -2   9   3  186.98    9.40
   1  -9  -3  122.09    6.10
   1   9  -3  138.49    7.00
   1   9  -3  155.38   11.30
  -1   9   3  139.39    8.10
   0  -9  -3   78.29    4.20
   0   9  -3   81.49    8.40
   0   9   3   77.69    6.30
   0   9  -3   83.79    6.10
  -1  -9  -3  209.08   10.60
  -1  -9  -3  225.98   10.30
  -1   9  -3  228.28   10.60
  -1   9  -3  235.78   11.50
  -1   9  -3  206.48   13.50
  -1   9  -3  219.18   11.40
  -1   9  -3  226.08   11.80
  -1   9  -3  230.58   11.10
  -2  -9  -3  187.38    8.70
  -2  -9  -3  176.38    9.00
  -2   9  -3  216.18   10.10
  -2   9  -3  204.78   10.30
  -2   9  -3  178.88   12.10
  -2   9  -3  187.78   10.30
  -2   9  -3  227.48   10.90
  -2   9  -3  209.28    9.60
  -3  -9  -3  108.79    5.80
  -3  -9  -3  115.79    5.50
  -3   9  -3  118.39    6.00
  -3   9  -3  123.49    6.20
  -3   9  -3  114.09    6.70
  -3  10   3    9.10    2.00
   2 -10  -3   76.89    4.20
   2  10  -3   70.39    3.40
  -2  10   3   58.59    4.70
   1 -10  -3    3.60    1.20
   1  10  -3    1.80    0.80
   0 -10  -3   24.50    2.00
   0  10  -3   19.00    1.50
  -1 -10  -3   53.99    2.90
  -1  10  -3   50.99    2.70
  10   0  -4    3.50    1.10
 -10   0   4    5.50    1.80
  -9   0   4   37.60    3.30
   9   0  -4   30.20    2.80
   9   0  -4   36.80    2.70
  -9   0   4   37.70    3.10
  -9   0   4   35.80    4.00
  -8   0   4    5.90    1.50
   8   0  -4    3.70    1.30
  -8   0   4    2.70    0.70
   8   0  -4    4.10    1.90
   8   0  -4    2.30    1.20
  -8   0   4    8.80    2.50
  -7   0   4   37.10    2.60
  -7   0   4   34.40    2.00
   7   0  -4   28.80    2.70
   7   0  -4   35.20    2.50
  -6   0   4 1347.57   61.09
   6   0  -4 1354.66   60.99
  -6   0   4 1365.06   61.79
  -6   0   4 1260.07   60.89
   6   0  -4 1344.27   61.09
   6   0  -4 1394.66   61.09
  -6   0   4 1306.87   60.79
  -5   0   4  393.26   17.70
  -5   0   4  375.66   17.40
  -5   0   4  366.76   18.00
  -5   0   4  372.96   44.20
   5   0  -4  383.26   17.70
  -5   0   4  361.86   17.50
   5   0  -4  386.06   17.60
  -5   0   4  505.85   55.59
  -4   0   4 1281.07   64.89
  -4   0   4 1167.18   55.49
   4   0  -4 1230.68   55.19
   4   0  -4 1162.78   63.49
   4   0  -4 1228.58   55.09
   3   0  -4 2563.94  118.29
  -3   0   4 2699.63  118.59
   3   0  -4 2545.65  123.59
  -3   0   4 2617.14  124.09
   2   0  -4 1299.97   60.29
  -2   0   4 1354.96   60.59
  -1   0   4    9.70    1.10
   1   0  -4   12.40    0.70
   1   0  -4    8.90    0.80
  -1   0   4    6.50    8.30
   1   0  -4    5.50    6.70
   0   0  -4  252.67   11.40
   0   0  -4  210.48   18.50
   0   0  -4  263.07   11.40
   0   0   4  249.68   11.80
   0   0   4  229.48   19.20
   1   0   4  740.43   40.70
  -1   0  -4  724.53   33.30
  -1   0  -4  776.42   33.30
  -1   0  -4  662.23   40.50
  -2   0  -4  379.66   17.70
  -2   0  -4  408.46   17.60
  -2   0  -4  394.06   35.30
   2   0   4  353.96   18.20
   2   0   4  397.36   31.20
  -3   0  -4  394.36   19.30
  -3   0  -4  429.76   19.10
   3   0   4  415.46   19.60
  -3   0  -4  425.56   19.10
   3   0   4  410.16   19.20
  -4   0  -4  114.89    6.90
  -4   0  -4  121.69   10.40
  -4   0  -4  115.99    6.30
  -4   0  -4  121.09    5.80
  -4   0  -4  120.89    6.10
  -4   0  -4  113.29    5.70
  -4   0  -4  113.49    8.90
   4   0   4  118.09    6.00
  -5   0  -4 5300.97  231.18
   5   0   4 5178.18  230.58
   5   0   4 4773.52  230.88
   6   0   4  322.37   15.70
   6   0   4  310.47   15.20
  -6   0  -4  306.67   15.10
  -6   0  -4  358.26   16.20
  -6   0  -4  325.57   15.90
   7   0   4   47.10    2.70
  -7   0  -4   40.50    3.80
   7   0   4   47.10    3.50
  -7   0  -4   48.30    3.80
  -8   0  -4    2.60    2.20
   8   0   4    2.40    1.00
  -8   0  -4    1.40    1.80
  10  -1  -4  445.76   19.80
 -10  -1   4  400.76   20.90
 -10   1   4  406.06   19.50
  10   1  -4  414.16   19.20
 -10   1   4  418.66   19.40
 -10   1   4  405.46   19.20
  -9  -1   4  408.36   19.50
   9  -1  -4  427.56   19.50
   9  -1  -4  413.96   19.20
   9  -1  -4  424.66   19.50
  -9  -1   4  425.76   19.30
  -9  -1   4  392.46   20.30
   9   1  -4  436.36   20.20
  -9   1   4  421.36   20.50
  -9   1   4  432.56   20.20
  -8  -1   4  326.57   15.40
   8  -1  -4  331.87   15.50
   8  -1  -4  336.57   15.30
   8  -1  -4  314.77   15.60
  -8   1   4  328.87   15.60
   8   1  -4  316.97   14.90
   8   1  -4  329.77   15.30
  -8   1   4  301.27   15.00
  -8   1   4  318.07   14.80
  -7  -1   4  277.97   13.20
   7  -1  -4  292.27   13.20
   7  -1  -4  274.67   13.10
  -7  -1   4  277.77   12.90
  -7  -1   4  269.97   13.00
   7  -1  -4  275.57   13.30
   7   1  -4  275.37   12.20
   7   1  -4  252.87   11.90
  -7   1   4  243.88   11.90
   7   1  -4  238.28   12.20
  -7   1   4  244.88   11.70
   6  -1  -4  259.67   12.70
  -6  -1   4  289.37   12.70
  -6  -1   4  253.87   12.40
  -6  -1   4  277.87   13.80
  -6  -1   4  262.57   12.40
   6  -1  -4  257.07   12.50
   6   1  -4  286.97   13.60
   6   1  -4  295.67   13.40
   6   1  -4  290.87   13.60
  -6   1   4  288.57   13.30
  -6   1   4  274.67   13.50
  -5  -1   4   55.29    3.70
  -5  -1   4   54.09    3.30
   5  -1  -4   56.09    3.40
   5  -1  -4   55.39    3.10
  -5  -1   4   52.89    3.00
  -5  -1   4   54.49    2.80
  -5   1   4   46.30    2.40
   5   1  -4   49.40    3.10
   5   1  -4   47.60    3.00
   5   1  -4   54.69    3.20
  -5   1   4   44.70    3.20
   5   1  -4   47.40    2.90
  -4  -1   4  178.48    8.60
   4  -1  -4  177.98    8.60
  -4  -1   4  159.48   25.70
   4  -1  -4  170.78    8.40
  -4  -1   4  177.78    8.90
  -4  -1   4  187.88    9.20
   4  -1  -4  172.48    8.40
   4  -1  -4  180.58   24.50
   4  -1  -4  204.88    9.50
  -4   1   4  160.18   26.00
   4   1  -4  156.18    7.50
  -4   1   4  157.98    7.80
   3  -1  -4  959.40   43.60
  -3  -1   4  979.00   50.59
  -3  -1   4  972.90   44.00
   3  -1  -4  949.60   43.60
   3  -1  -4  930.81   50.39
   3   1  -4  908.31   40.90
  -3   1   4  904.91   41.10
   3   1  -4  873.11   47.30
  -2  -1   4 2982.40  136.09
  -2  -1   4 2976.40  131.39
   2  -1  -4 2815.72  131.09
   2  -1  -4 2787.72  135.59
   2   1  -4 2837.32  130.99
  -2   1   4 2770.72  126.89
  -2   1   4 2994.20  132.49
   2   1  -4 2589.44  126.79
   1  -1  -4  518.05   23.70
  -1  -1   4  507.25   24.10
   1  -1  -4  516.25   23.80
  -1  -1   4  545.85   29.70
  -1   1   4  512.25   30.50
  -1   1   4  519.15   23.90
   1   1  -4  508.25   28.80
   1   1  -4  512.35   24.00
   1   1  -4  517.75   23.70
   1   1  -4  532.25   23.60
   0  -1   4  677.43   36.40
   0  -1  -4  679.33   30.60
   0  -1   4  682.93   31.20
   0  -1  -4  670.93   30.70
   0  -1  -4  649.93   37.30
   0   1   4  789.42   32.70
   0   1  -4  681.33   31.90
   0   1  -4  642.84   36.90
   0   1   4  670.13   38.90
  -1  -1  -4  193.48   22.10
  -1  -1  -4  219.88   10.60
   1  -1   4  242.98   20.30
  -1  -1  -4  231.68   10.40
   1   1   4  325.87   30.90
  -1   1  -4  254.17   11.80
  -1   1  -4  253.07   11.70
  -1   1  -4  221.18   21.50
  -2  -1  -4   92.69    4.40
  -2  -1  -4   98.69    5.40
   2  -1   4   86.29    4.60
  -2   1  -4   89.29    4.20
  -2   1  -4   71.69    5.30
   2   1   4   88.29    5.00
  -2   1  -4   80.79    4.30
   2   1   4   80.39    4.40
  -2   1  -4   95.19    4.10
  -3  -1  -4  167.28    7.80
   3  -1   4  158.18    8.00
  -3  -1  -4  170.48    9.00
   3  -1   4  161.58    8.00
   3  -1   4  160.98    8.60
  -3  -1  -4  164.98    8.20
  -3  -1  -4  171.48    7.90
   3   1   4  144.39    7.90
  -3   1  -4  172.38    8.00
  -3   1  -4  170.68    7.80
   3   1   4  155.68    8.40
  -3   1  -4  161.88    7.70
  -3   1  -4  166.18    8.80
  -3   1  -4  182.98   11.70
  -4  -1  -4  108.89    5.80
   4  -1   4  103.99    5.80
  -4  -1  -4  119.69    5.60
   4  -1   4  107.59    5.70
  -4  -1  -4  114.19    6.00
  -4  -1  -4  108.99    6.80
   4  -1   4  123.09    7.50
  -4   1  -4  102.39    9.80
  -4   1  -4  103.39    5.30
  -4   1  -4  100.69    4.80
  -4   1  -4   95.19    5.90
   4   1   4   90.09    5.10
  -4   1  -4   99.89    6.10
  -4   1  -4   92.19    7.60
   4   1   4   96.19    5.70
  -4   1  -4  104.49    5.00
  -5  -1  -4   63.99    4.00
  -5  -1  -4   60.79    3.20
   5  -1   4   61.99    3.60
   5  -1   4   58.19    3.50
  -5  -1  -4   57.19    4.90
   5  -1   4   63.89    4.40
  -5  -1  -4   59.19    3.90
  -5   1  -4   68.89    5.20
   5   1   4   77.09    4.90
  -5   1  -4   80.09    3.80
   5   1   4   77.49    4.20
  -5   1  -4   77.89    5.30
  -5   1  -4   77.89    5.30
  -6  -1  -4   92.39    5.60
  -6  -1  -4   93.59    4.90
   6  -1   4   99.09    5.10
   6  -1   4  101.99    5.80
  -6  -1  -4  102.69    6.30
  -6   1  -4   85.29    5.40
   6   1   4   90.09    5.10
  -6   1  -4   72.89    5.60
  -6   1  -4   86.29    5.50
  -6   1  -4   81.29    4.10
   7  -1   4  484.15   22.40
   7  -1   4  457.25   22.60
  -7  -1  -4  500.05   23.30
  -7  -1  -4  493.65   23.00
   7   1   4  445.76   21.70
  -7   1  -4  479.85   22.10
   7   1   4  494.15   21.60
  -7   1  -4  432.16   21.90
  -8  -1  -4   51.39    4.00
   8  -1   4   51.49    2.90
  -8  -1  -4   58.59    3.80
   8   1   4   63.29    3.60
  -8   1  -4   67.29    4.70
  -8   1  -4   60.69    3.90
 -10  -2   4   43.10    3.10
  10  -2  -4   47.90    2.90
 -10   2   4   42.50    3.60
  10   2  -4   42.40    3.40
 -10   2   4   42.90    3.00
 -10   2   4   40.10    3.80
   9  -2  -4  462.35   20.70
   9  -2  -4  445.46   21.00
  -9  -2   4  442.46   20.80
   9  -2  -4  462.95   20.90
  -9  -2   4  426.26   21.00
   9   2  -4  479.05   21.30
  -9   2   4  428.66   22.30
  -9   2   4  442.86   21.50
  -9   2   4  461.85   21.30
   8  -2  -4  474.85   24.20
   8  -2  -4  551.44   24.40
  -8  -2   4  563.64   24.20
  -8  -2   4  521.35   23.90
   8  -2  -4  499.15   24.10
  -8   2   4  573.24   26.80
  -8   2   4  573.34   27.10
   8   2  -4  602.64   26.80
  -8   2   4  550.94   26.40
  -7  -2   4 1582.04   75.49
   7  -2  -4 1678.03   75.39
  -7  -2   4 1694.63   75.29
   7  -2  -4 1713.43   75.49
   7  -2  -4 1610.04   75.59
  -7   2   4 1673.43   80.19
  -7   2   4 1729.63   80.79
   7   2  -4 1892.31   80.59
  -6  -2   4  691.93   34.10
  -6  -2   4  727.03   33.10
   6  -2  -4  721.93   33.30
   6  -2  -4  744.73   33.10
  -6  -2   4  726.03   33.20
  -6   2   4  723.83   31.40
   6   2  -4  744.03   32.20
  -6   2   4  650.43   31.50
  -6   2   4  664.33   32.50
   6   2  -4  651.23   31.60
  -5  -2   4  707.93   37.50
   5  -2  -4  827.22   37.10
  -5  -2   4  825.12   37.00
  -5  -2   4  811.22   36.90
   5  -2  -4  814.82   36.90
  -5  -2   4  857.91   36.90
  -5   2   4  894.91   41.50
   5   2  -4  845.72   41.50
  -5   2   4  944.31   41.30
   5   2  -4  947.41   41.60
  -4  -2   4 1316.77   63.59
  -4  -2   4 1386.36   63.79
   4  -2  -4 1416.66   63.69
  -4  -2   4 1445.96   63.69
  -4  -2   4 1316.27   73.69
   4  -2  -4 1421.46   63.89
  -4  -2   4 1547.35   64.39
   4  -2  -4 1385.86   63.69
   4  -2  -4 1343.67   73.79
  -4   2   4 1413.06   66.09
  -4   2   4 1488.85   78.19
   4   2  -4 1456.95   66.09
   3  -2  -4  907.11   45.00
  -3  -2   4 1047.10   45.20
   3  -2  -4 1031.60   53.29
   3  -2  -4  974.30   44.70
  -3  -2   4  962.90   52.19
   3  -2  -4  976.80   44.60
  -3   2   4  887.41   41.20
  -3   2   4  949.80   50.89
   3   2  -4  880.41   41.20
   2  -2  -4  212.18   20.20
   2  -2  -4  239.28   11.30
  -2  -2   4  244.38   11.70
  -2  -2   4  303.17   26.30
   2  -2  -4  250.57   11.30
   2   2  -4  195.78   25.60
  -2   2   4  191.98   21.00
  -2   2   4  199.08    9.50
   2   2  -4  203.68    9.60
   2   2  -4  212.78    9.40
  -1  -2   4  368.76   17.20
   1  -2  -4  359.96   16.80
   1  -2  -4  355.96   16.70
  -1  -2   4  392.26   32.00
   1   2  -4  306.07   21.90
   1   2  -4  293.57   13.30
  -1   2   4  291.07   13.50
   1   2  -4  291.97   13.60
  -1   2   4  268.67   23.60
   0  -2  -4  225.18   11.10
   0  -2  -4  218.98   21.30
   0  -2   4  241.38   11.40
   0  -2  -4  238.38   10.80
   0  -2   4  239.08   18.60
   0   2   4  242.38   23.00
   0   2  -4  214.48   17.30
   0   2   4  223.28   10.40
   0   2  -4  203.48   10.30
   0   2  -4  229.78   10.10
   1  -2   4  142.99    7.10
  -1  -2  -4  154.08    7.00
  -1  -2  -4  176.98   25.50
   1  -2   4  147.49    7.80
  -1  -2  -4  151.28    7.10
  -1   2  -4  105.69    5.40
  -1   2  -4  109.49    5.10
   1   2   4  139.69   22.80
  -2  -2  -4  404.16   44.50
  -2  -2  -4  493.35   22.30
   2  -2   4  479.35   22.30
  -2  -2  -4  468.65   22.20
  -2  -2  -4  487.85   22.30
  -2  -2  -4  513.55   22.50
  -2   2  -4  376.16   21.20
   2   2   4  445.46   19.20
  -2   2  -4  405.36   19.10
  -2   2  -4  361.46   20.00
  -2   2  -4  446.36   20.40
  -2   2  -4  407.36   18.60
   2   2   4  404.06   18.80
  -2   2  -4  414.46   18.90
   2   2   4  385.76   39.00
   3  -2   4   36.80    2.90
  -3  -2  -4   35.20    2.90
   3  -2   4   36.40    2.40
   3  -2   4   33.90    3.30
  -3  -2  -4   39.80    2.10
  -3  -2  -4   39.70    2.40
  -3  -2  -4   36.90    2.50
  -3   2  -4   62.19    6.90
  -3   2  -4   57.69    4.40
  -3   2  -4   61.19    3.40
   3   2   4   57.89    4.10
  -3   2  -4   56.29    4.50
  -3   2  -4   60.29    4.10
  -4  -2  -4   70.99    4.00
  -4  -2  -4   61.69    5.50
   4  -2   4   62.99    3.80
  -4  -2  -4   66.79    3.70
  -4  -2  -4   61.39    3.80
   4  -2   4   63.39    3.60
  -4   2  -4   90.99    5.10
  -4   2  -4   91.29    9.10
  -4   2  -4   84.09    6.70
  -4   2  -4   91.09    5.30
  -4   2  -4   74.89    5.60
  -4   2  -4   93.39    5.60
  -4   2  -4   84.79    4.20
   4   2   4   89.39    5.20
  -5  -2  -4 1598.34   70.89
  -5  -2  -4 1574.64   70.89
   5  -2   4 1510.55   71.19
  -5  -2  -4 1642.44   71.39
   5  -2   4 1407.56   70.89
   5  -2   4 1582.94   70.99
  -5  -2  -4 1567.94   70.99
   5   2   4 1369.66   66.59
  -5   2  -4 1452.05   66.59
  -5   2  -4 1504.75   67.09
  -5   2  -4 1489.85   66.99
  -6  -2  -4  194.68    9.50
   6  -2   4  193.68    9.90
  -6  -2  -4  187.78   10.30
   6  -2   4  200.78    9.40
  -6   2  -4  200.68   10.30
   6   2   4  203.08   10.00
  -6   2  -4  186.38    9.20
   6   2   4  201.28    9.50
  -6   2  -4  211.68   10.50
  -6   2  -4  191.48   10.00
   7  -2   4  127.99    6.50
  -7  -2  -4  131.69    7.70
   7  -2   4  140.29    7.00
  -7  -2  -4  133.59    7.60
  -7   2  -4  129.29    7.50
  -7   2  -4  145.89    7.70
  -7   2  -4  147.79    8.20
   8   2   4   86.59    5.00
  -8   2  -4   88.09    5.20
  -8   2  -4   85.59    4.90
 -10  -3   4  332.87   15.90
  10  -3  -4  327.67   15.80
  10  -3  -4  369.86   16.10
 -10   3   4  331.37   15.10
 -10   3   4  308.27   15.10
   9  -3  -4  318.87   15.70
   9  -3  -4  328.17   15.10
   9  -3  -4  329.27   15.10
  -9  -3   4  304.97   15.30
  -9   3   4  367.26   16.50
   9   3  -4  330.57   16.00
  -9   3   4  309.57   16.20
  -9   3   4  340.67   16.20
  -8  -3   4   70.79    4.10
   8  -3  -4   71.19    4.00
   8  -3  -4   73.59    4.40
   8  -3  -4   77.39    4.50
  -8  -3   4   78.79    3.90
   8   3  -4   84.99    5.20
  -8   3   4   74.59    4.60
  -8   3   4   80.39    5.90
  -8   3   4   81.59    5.10
  -7  -3   4  377.56   17.40
  -7  -3   4  370.26   17.20
   7  -3  -4  357.56   17.50
   7  -3  -4  377.96   17.30
   7   3  -4  393.56   17.70
  -7   3   4  357.96   18.60
  -7   3   4  366.96   17.90
  -7   3   4  368.36   17.20
  -6  -3   4  576.34   26.40
  -6  -3   4  572.64   26.60
   6  -3  -4  593.64   26.70
   6  -3  -4  559.84   26.50
  -6   3   4  574.24   27.60
  -6   3   4  610.84   26.40
  -6   3   4  569.04   27.00
   6   3  -4  535.75   26.70
   6   3  -4  590.04   26.80
   5  -3  -4   98.39    5.00
  -5  -3   4  100.49    5.00
  -5  -3   4  104.79    5.20
  -5  -3   4   87.09    6.00
   5  -3  -4  101.69    5.30
  -5   3   4   95.09    4.40
   5   3  -4   88.79    5.00
   5   3  -4   86.29    5.20
  -5   3   4   88.89    5.60
   5   3  -4   96.29    5.60
  -5   3   4   89.49    6.50
  -4  -3   4  122.29    6.50
  -4  -3   4  118.39    5.80
  -4  -3   4  120.69    6.00
   4  -3  -4  117.59    5.90
   4  -3  -4  113.69    6.10
   4   3  -4  115.59    6.20
   4   3  -4  107.19    5.70
   4   3  -4  108.79    5.90
  -4   3   4  110.69    7.40
  -3  -3   4 1110.99   68.49
   3  -3  -4 1093.59   51.29
  -3  -3   4 1226.88   51.99
   3  -3  -4 1024.90   60.99
   3  -3  -4 1145.69   51.19
   3   3  -4 1182.78   51.99
   3   3  -4 1111.19   51.79
   3   3  -4 1107.29   51.69
   2  -3  -4  687.33   40.80
   2  -3  -4  670.63   30.70
  -2  -3   4  674.63   31.20
   2  -3  -4  663.93   30.90
   2   3  -4  669.13   30.60
  -2   3   4  654.93   41.60
  -1  -3   4   45.00    2.70
   1  -3  -4   36.80    2.00
   1  -3  -4   31.30    2.10
   1  -3  -4   34.60   14.20
   1   3  -4   35.70    1.70
   1   3  -4   32.80    2.20
  -1   3   4   34.20   15.90
   0  -3   4   44.40    3.10
   0  -3  -4   45.70    2.50
   0  -3  -4   44.80    2.30
   0  -3  -4   44.00    3.10
   0  -3  -4   40.70   17.40
   0   3  -4   41.30    3.20
   0   3   4   42.70   16.70
   0   3  -4   42.00    6.00
   0   3  -4   42.10    2.50
   0   3  -4   39.40    3.80
   0   3  -4   43.50    2.00
   0   3  -4   41.20    5.60
   1  -3   4  596.74   27.90
  -1  -3  -4  624.74   28.00
   1  -3   4  614.84   28.80
  -1  -3  -4  626.64   27.90
  -1  -3  -4  583.34   28.30
  -1  -3  -4  613.64   46.60
  -1   3  -4  613.14   28.80
   1   3   4  603.24   28.40
  -1   3  -4  669.03   28.10
   1   3   4  634.84   28.40
   1   3   4  611.54   28.50
  -1   3  -4  637.94   28.50
  -1   3  -4  554.64   34.00
   1   3   4  606.54   45.10
  -2  -3  -4   15.70    1.50
   2  -3   4   20.60    1.70
  -2  -3  -4   18.50    1.90
  -2  -3  -4   22.20    1.80
  -2  -3  -4   16.70    1.30
  -2   3  -4   18.60    3.30
  -2   3  -4   21.70    3.00
  -2   3  -4   13.80    2.40
   2   3   4   13.40    1.80
  -2   3  -4   14.90    2.40
  -2   3  -4   11.70    2.10
  -2   3  -4   12.50    1.70
  -2   3  -4   14.40    0.80
  -2   3  -4   16.30    2.00
   3  -3   4   55.89    5.90
   3  -3   4   58.19    4.00
   3  -3   4   63.09    3.30
  -3  -3  -4   54.39    3.10
  -3  -3  -4   56.19    3.20
  -3  -3  -4   54.89    3.20
  -3   3  -4   50.59    4.70
  -3   3  -4   53.89    5.60
  -3   3  -4   55.89    4.00
  -3   3  -4   64.09    5.60
   3   3   4   56.49    3.40
  -3   3  -4   61.09    7.50
  -3   3  -4   58.19    2.70
  -3   3  -4   56.89    3.60
   4  -3   4   76.09    4.30
  -4  -3  -4   75.09    4.40
  -4  -3  -4   70.99    4.20
   4  -3   4   72.39    4.00
  -4  -3  -4   74.09    4.10
  -4  -3  -4   74.29    4.00
   4  -3   4   77.59    5.70
  -4   3  -4   66.89    4.90
  -4   3  -4   66.79    3.20
  -4   3  -4   65.09    5.40
  -4   3  -4   66.49    4.40
  -4   3  -4   68.49    3.20
  -4   3  -4   68.39    8.80
   4   3   4   64.99    3.80
  -4   3  -4   66.89    4.70
  -4   3  -4   50.49    6.10
   5  -3   4  243.38   12.60
  -5  -3  -4  252.17   13.60
   5  -3   4  258.17   13.00
  -5  -3  -4  263.47   12.50
  -5  -3  -4  265.87   12.60
  -5  -3  -4  287.37   13.00
   5  -3   4  257.57   12.40
  -5   3  -4  261.87   12.90
  -5   3  -4  241.48   13.20
  -5   3  -4  268.67   13.70
  -5   3  -4  261.87   12.00
  -5   3  -4  276.67   18.00
   6  -3   4    1.60    1.00
  -6  -3  -4    1.60    1.20
   6  -3   4    2.60    2.00
  -6  -3  -4    3.40    3.60
   6  -3   4    2.90    1.10
  -6   3  -4    7.10    1.70
  -6   3  -4    5.00    1.60
  -6   3  -4    7.30    2.10
   7  -3   4   63.49    4.30
   7  -3   4   65.19    3.40
  -7  -3  -4   57.29    3.70
   7   3   4   62.89    3.60
  -7   3  -4   59.69    4.30
  -7   3  -4   55.79    4.00
  -7   3  -4   61.39    3.90
  -8   3  -4  118.09    6.00
   9  -4  -4  256.77   11.70
   9  -4  -4  252.57   11.90
   9  -4  -4  247.28   11.90
  -9  -4   4  245.48   11.80
  -9   4   4  200.78   10.00
  -9   4   4  196.08    9.70
   8  -4  -4  407.76   18.40
  -8  -4   4  389.36   18.10
   8  -4  -4  390.66   18.30
  -8  -4   4  380.56   18.30
  -8   4   4  328.97   16.20
  -8   4   4  340.07   16.00
   7  -4  -4  878.01   41.40
  -7  -4   4  901.21   41.40
  -7  -4   4  900.31   41.20
   7  -4  -4  924.01   41.30
  -7   4   4  907.51   41.30
  -7   4   4  866.11   40.10
  -7   4   4  856.21   40.60
  -7   4   4  894.41   41.00
   6  -4  -4    7.20    1.10
  -6  -4   4   10.60    1.10
   6  -4  -4    7.20    1.40
  -6  -4   4    9.70    1.30
  -6   4   4   11.30    0.80
  -6   4   4   10.40    1.90
  -6   4   4    9.40    1.80
  -6   4   4   10.70    2.50
   6   4  -4   11.40    2.20
   5  -4  -4  372.76   17.20
   5  -4  -4  354.86   16.90
  -5  -4   4  373.36   16.90
  -5  -4   4  355.36   17.10
  -5   4   4  408.76   19.30
   5   4  -4  383.56   19.00
  -5   4   4  385.16   19.80
   5   4  -4  414.46   19.10
  -5   4   4  421.56   18.40
   4  -4  -4  427.26   18.80
  -4  -4   4  397.06   18.70
  -4  -4   4  402.76   18.90
   4  -4  -4  383.36   19.00
  -4  -4   4  418.26   19.60
  -4   4   4  387.76   19.60
   4   4  -4  435.66   24.90
   4   4  -4  449.66   20.40
   4   4  -4  390.76   19.20
   4   4  -4  419.86   19.60
  -4   4   4  398.86   20.20
  -3  -4   4  937.01   43.70
   3  -4  -4 1043.10   43.70
  -3  -4   4  898.21   43.50
   3  -4  -4  931.61   43.80
  -3  -4   4  978.60   44.20
   3  -4  -4  941.11   43.60
   3   4  -4  988.20   43.20
   3   4  -4  925.51   42.80
  -3   4   4  937.21   43.70
  -3   4   4  899.71   43.10
   3   4  -4  925.81   43.00
  -2  -4   4  608.74   38.10
   2  -4  -4  665.53   30.10
   2  -4  -4  663.73   30.20
   2  -4  -4  659.53   30.10
  -2  -4   4  675.13   30.70
   2   4  -4  711.33   33.40
   2   4  -4  725.73   34.00
   2   4  -4  782.32   33.30
   2   4  -4  761.22   33.40
   2   4  -4  740.93   33.10
   2   4  -4  712.63   37.50
   2   4  -4  713.53   33.30
  -2   4   4  616.94   33.80
   1  -4  -4  406.66   19.20
  -1  -4   4  432.66   25.60
   1  -4  -4  418.06   19.40
   1  -4  -4  419.26   19.20
  -1  -4   4  409.76   19.80
   1   4  -4  369.06   16.90
   1   4  -4  359.96   16.90
   1   4  -4  349.37   16.70
   1   4  -4  361.26   17.10
   1   4  -4  353.06   17.10
   1   4  -4  352.26   18.70
   1   4  -4  363.66   19.80
   0  -4  -4  599.74   26.80
   0  -4  -4  565.34   26.90
   0  -4  -4  570.94   26.70
   0  -4   4  595.74   27.50
   0   4  -4  534.15   25.40
   0   4  -4  511.15   24.50
   0   4  -4  513.65   24.70
   0   4  -4  525.05   27.20
   0   4  -4  541.15   24.80
   0   4  -4  525.55   25.10
   0   4  -4  531.75   24.40
   0   4  -4  538.95   24.50
  -1  -4  -4  764.12   34.50
   1  -4   4  709.83   34.30
  -1  -4  -4  789.02   34.60
  -1  -4  -4  741.63   34.40
   1  -4   4  756.92   35.40
  -1   4  -4  787.42   40.30
  -1   4  -4  836.52   37.90
  -1   4  -4  815.72   37.60
  -1   4  -4  847.72   38.50
  -1   4  -4  775.82   37.50
  -1   4  -4  816.02   38.10
  -1   4  -4  813.52   37.80
  -1   4  -4  833.42   37.40
  -2  -4  -4  270.67   12.50
  -2  -4  -4  263.17   12.30
  -2  -4  -4  264.77   12.20
   2  -4   4  241.88   12.10
   2  -4   4  258.17   13.70
  -2   4  -4  344.07   17.20
  -2   4  -4  362.06   16.20
  -2   4  -4  341.27   16.70
  -2   4  -4  333.47   19.30
  -2   4  -4  337.97   16.70
   2   4   4  335.97   16.20
  -2   4  -4  346.67   17.30
  -2   4  -4  332.57   16.40
  -2   4  -4  358.76   16.50
   3  -4   4  666.13   31.20
  -3  -4  -4  695.53   31.50
  -3  -4  -4  682.03   31.20
  -3  -4  -4  675.13   31.30
  -3   4  -4  764.52   35.30
  -3   4  -4  761.12   34.70
  -3   4  -4  769.02   34.90
   3   4   4  728.03   34.80
  -3   4  -4  732.13   38.00
  -3   4  -4  763.32   35.20
  -3   4  -4  761.32   35.90
  -3   4  -4  746.73   35.50
  -3   4  -4  767.32   35.00
  -4  -4  -4  361.36   16.80
  -4  -4  -4  351.76   16.90
   4  -4   4  341.77   16.70
   4  -4   4  340.27   16.60
  -4  -4  -4  384.36   16.60
  -4   4  -4  379.16   18.80
  -4   4  -4  380.76   18.70
   4   4   4  405.96   18.30
  -4   4  -4  378.06   19.50
  -4   4  -4  377.56   21.80
  -4   4  -4  399.16   18.50
  -4   4  -4  395.06   19.00
   5  -4   4   51.79    5.30
  -5  -4  -4   56.29    3.50
  -5  -4  -4   50.79    3.70
   5  -4   4   51.89    3.20
   5  -4   4   54.09    3.40
  -5  -4  -4   51.59    3.20
  -5   4  -4   74.79    4.60
  -5   4  -4   74.99   11.30
  -5   4  -4   72.99    5.10
  -5   4  -4   69.49    4.90
  -5   4  -4   67.89    5.10
   5   4   4   79.29    4.50
  -6  -4  -4  177.08    8.80
   6  -4   4  171.88    9.70
   6  -4   4  187.58    8.70
  -6   4  -4  190.58    9.80
  -6   4  -4  169.08   10.00
  -6   4  -4  197.18   10.10
  -6   4  -4  180.48    9.50
   6   4   4  222.68   10.00
  -7  -4  -4  129.19    6.40
   7  -4   4  131.39    6.30
   7  -4   4  123.79    6.90
  -7   4  -4  128.69    6.80
  -7   4  -4  139.59    7.30
  -7   4  -4  128.89    7.00
   7   4   4  145.39    6.80
   9  -5  -4   17.00    1.80
   9  -5  -4   16.50    1.40
  -9  -5   4   16.70    1.60
   9  -5  -4   18.00    2.10
  -9   5   4   16.00    2.40
  -9   5   4   15.90    1.80
   8  -5  -4   86.89    4.90
   8  -5  -4   76.49    4.60
   8  -5  -4   87.79    4.70
  -8  -5   4   96.39    4.50
  -8  -5   4   99.99    4.90
  -8   5   4  108.39    6.10
  -8   5   4  116.29    6.30
  -8   5   4  100.39    7.40
  -7  -5   4  396.26   18.40
   7  -5  -4  373.36   18.40
   7  -5  -4  417.06   18.60
  -7  -5   4  386.66   18.60
  -7  -5   4  408.76   18.60
  -7   5   4  439.66   20.50
  -7   5   4  419.46   20.20
  -7   5   4  425.86   20.90
  -6  -5   4  259.07   12.50
  -6   5   4  221.68   12.40
   6   5  -4  237.98   12.30
  -6   5   4  251.57   11.20
  -6   5   4  262.27   14.00
   5  -5  -4  369.46   17.70
  -5  -5   4  377.86   17.80
   5  -5  -4  387.06   17.90
  -5  -5   4  386.36   17.70
  -5   5   4  362.66   17.60
  -5   5   4  393.26   18.20
  -5   5   4  366.26   17.30
   5   5  -4  351.26   17.40
   5   5  -4  343.67   17.10
  -5   5   4  364.26   16.60
   4  -5  -4   34.00    4.30
   4  -5  -4   44.60    3.00
  -4  -5   4   34.90    6.40
  -4  -5   4   49.10    4.10
  -4  -5   4   50.19    2.90
  -4   5   4   45.10    4.70
  -4   5   4   48.20    4.20
   4   5  -4   43.70    3.60
  -4   5   4   48.90    3.90
  -4   5   4   53.79    2.40
   4   5  -4   51.59    3.80
   4   5  -4   46.30    3.50
   4   5  -4   50.19   10.50
  -3  -5   4  155.38    8.60
   3  -5  -4  148.99    7.50
   3  -5  -4  149.99    7.60
  -3  -5   4  159.98    7.60
   3  -5  -4  157.88    7.90
  -3  -5   4  156.48    8.00
   3   5  -4  155.28    8.40
  -3   5   4  161.88    8.90
   3   5  -4  158.48    9.20
  -3   5   4  163.78    8.80
  -3   5   4  164.38    9.40
   3   5  -4  185.48    8.80
   3   5  -4  165.18   12.70
   2  -5  -4  522.95   24.60
   2  -5  -4  570.34   24.50
   2  -5  -4  503.75   24.50
  -2   5   4  524.95   24.70
   2   5  -4  513.85   24.40
   2   5  -4  494.85   25.00
   2   5  -4  527.85   24.30
   2   5  -4  510.55   24.10
  -2   5   4  472.15   24.90
   2   5  -4  545.35   24.80
   2   5  -4  527.55   24.00
   2   5  -4  547.85   24.40
   2   5  -4  523.55   27.60
   1  -5  -4  106.59    5.50
   1  -5  -4  101.99    5.10
  -1  -5   4  100.79    6.10
   1  -5  -4   98.69    5.20
   1   5  -4  111.49    7.70
  -1   5   4  103.59    7.30
   1   5  -4  107.89    6.30
   1   5  -4  106.49    7.00
   1   5  -4  123.39    9.90
   1   5  -4  108.59    6.00
   1   5  -4  111.09    6.00
   1   5  -4  112.39    5.80
   1   5  -4  116.09    6.20
   0  -5  -4    2.80    1.00
   0  -5   4    3.30    2.30
   0  -5  -4    2.10    1.30
   0  -5  -4    4.40    1.00
   0   5  -4   10.70    3.00
   0   5   4    4.00    2.90
   0   5  -4    3.80    1.30
   0   5  -4    3.80    1.30
   0   5  -4    4.20    1.70
   0   5  -4    3.00    2.20
   0   5  -4    6.90    1.40
   0   5  -4    6.40    1.80
   0   5  -4    6.00    4.20
  -1  -5  -4  412.06   19.40
  -1  -5  -4  380.16   18.40
  -1  -5  -4  399.96   18.50
  -1   5  -4  402.56   18.70
  -1   5  -4  386.46   18.00
  -1   5  -4  371.96   17.90
  -1   5  -4  387.26   17.70
   1   5   4  341.27   18.90
  -1   5  -4  384.16   21.00
  -1   5  -4  371.16   17.60
  -1   5  -4  311.17   18.00
  -1   5  -4  382.56   18.40
  -2  -5  -4   82.29    4.80
   2  -5   4   79.29    4.50
  -2  -5  -4   81.79    4.30
  -2  -5  -4   86.19    4.50
  -2   5  -4   83.39    5.30
  -2   5  -4   81.19    5.00
  -2   5  -4   80.39    4.70
  -2   5  -4   80.89    4.80
  -2   5  -4   82.59    5.30
  -2   5  -4   80.89    8.70
  -2   5  -4   75.69    5.70
  -2   5  -4   83.29    6.30
  -3  -5  -4   84.49    4.50
   3  -5   4   74.69    4.40
  -3  -5  -4   81.19    4.70
  -3  -5  -4   81.89    4.30
  -3   5  -4   92.79    5.00
  -3   5  -4   96.09    6.10
  -3   5  -4   87.29    6.60
   3   5   4   78.69    5.30
  -3   5  -4   90.09    5.60
  -3   5  -4   92.69    5.30
  -3   5  -4   90.89    5.70
  -3   5  -4   82.59    5.90
  -3   5  -4   92.19    9.30
   4  -5   4   64.79    3.80
  -4  -5  -4   64.59    4.10
   4  -5   4   63.89    4.50
  -4  -5  -4   70.39    3.70
  -4  -5  -4   67.99    4.20
  -4   5  -4   62.29    4.90
  -4   5  -4   65.39    5.70
  -4   5  -4   63.79    8.70
  -4   5  -4   62.69    4.50
  -4   5  -4   63.09    4.20
  -4   5  -4   64.79    4.70
   4   5   4   57.99    4.40
  -5  -5  -4  226.28   11.30
  -5  -5  -4  212.98   10.30
   5  -5   4  223.28   10.60
  -5  -5  -4  221.98   10.70
   5  -5   4  213.18   10.50
  -5   5  -4  208.78   10.60
  -5   5  -4  210.38   10.00
  -5   5  -4  187.88   10.20
  -5   5  -4  196.18   10.30
  -6  -5  -4  138.99    6.90
   6  -5   4  137.19    6.80
  -6   5  -4  122.49    6.90
  -6   5  -4  127.19    6.40
  -6   5  -4  124.59    6.70
  -6   5  -4  123.79    6.90
   7  -5   4   82.69    4.10
  -7  -5  -4   80.39    4.20
  -7   5  -4   78.99    3.90
  -7   5  -4   72.29    4.50
  -7   5  -4   60.39    4.40
   8  -6  -4    7.80    1.70
  -8  -6   4    7.30    0.90
   8  -6  -4    8.60    1.00
   8  -6  -4    9.40    1.20
  -8  -6   4    8.70    1.10
  -8   6   4    5.00    1.50
  -8   6   4    2.00    3.70
  -8   6   4    3.70    1.40
   7  -6  -4   57.89    3.80
  -7  -6   4   59.49    3.00
  -7  -6   4   54.19    3.40
   7  -6  -4   54.79    3.20
  -7   6   4   65.39    4.00
  -7   6   4   70.79    6.80
  -7   6   4   62.09    4.30
  -6  -6   4  300.87   14.60
   6  -6  -4  316.97   14.80
  -6  -6   4  306.07   14.50
   6  -6  -4  315.37   14.50
  -6   6   4  355.66   17.20
   6   6  -4  323.27   16.70
  -6   6   4  362.26   16.90
  -6   6   4  371.96   17.70
   5  -6  -4  307.97   15.50
   5  -6  -4  306.17   15.10
  -5  -6   4  328.67   15.30
  -5  -6   4  345.17   15.10
  -5   6   4  389.26   18.30
   5   6  -4  364.56   18.50
  -5   6   4  380.26   18.60
  -5   6   4  404.76   19.10
   5   6  -4  377.46   18.20
   4  -6  -4   52.99    3.20
   4  -6  -4   45.50    3.70
  -4  -6   4   49.10    3.00
  -4  -6   4   42.40    3.50
  -4   6   4   83.09    5.40
   4   6  -4   81.69   10.50
   4   6  -4   80.19    4.70
  -4   6   4   74.49    5.60
   4   6  -4   78.99    5.30
  -4   6   4   80.69    5.60
  -3  -6   4  222.78   11.60
   3  -6  -4  243.08   11.70
   3  -6  -4  248.38   11.90
  -3  -6   4  272.17   12.10
   3   6  -4  232.78   11.30
   3   6  -4  209.58   11.50
  -3   6   4  218.08   10.10
   3   6  -4  216.28   11.20
  -3   6   4  217.88   11.80
   3   6  -4  223.58   15.00
   3   6  -4  238.58   10.80
  -3   6   4  214.28   11.50
   2  -6  -4  834.02   39.80
   2  -6  -4  899.01   40.00
   2  -6  -4  868.21   39.70
   2   6  -4  857.51   39.10
   2   6  -4  873.31   39.40
   2   6  -4  819.32   39.90
   2   6  -4  885.71   43.10
   2   6  -4  834.82   39.10
   2   6  -4  899.71   39.50
  -2   6   4  776.52   40.00
   2   6  -4  847.82   39.70
   1  -6  -4  298.57   14.10
   1  -6  -4  299.77   14.30
  -1  -6   4  300.97   15.90
   1  -6  -4  305.17   14.20
   1   6  -4  302.57   15.00
   1   6  -4  307.27   14.60
   1   6  -4  296.37   14.80
   1   6  -4  307.07   15.10
   1   6  -4  305.17   18.40
   1   6  -4  316.97   15.10
   1   6  -4  307.27   15.90
  -1   6   4  333.17   15.90
   1   6  -4  303.17   15.50
   0  -6  -4  202.88    9.90
   0  -6  -4  210.98   10.20
   0  -6  -4  208.18   10.00
   0   6  -4  201.68   10.00
   0   6  -4  214.68   14.00
   0   6  -4  191.28   10.70
   0   6  -4  201.78   10.30
   0   6  -4  212.18    9.80
   0   6  -4  194.68   10.20
   0   6  -4  204.98   10.40
   0   6  -4  207.68   11.20
   0   6   4  175.98   11.20
  -1  -6  -4 1812.92   82.59
  -1  -6  -4 1831.62   82.39
  -1  -6  -4 1787.52   82.59
  -1   6  -4 1687.53   80.89
  -1   6  -4 1790.82   81.29
  -1   6  -4 1800.72   80.39
  -1   6  -4 1813.02   80.69
  -1   6  -4 1759.12   80.59
   1   6   4 1780.82   80.99
  -1   6  -4 1646.04   80.39
  -1   6  -4 1793.32   84.09
  -1   6  -4 1750.32   80.09
  -2  -6  -4  984.50   45.30
  -2  -6  -4  993.00   45.00
  -2  -6  -4  975.40   45.20
  -2   6  -4  981.70   45.30
  -2   6  -4 1009.80   46.10
  -2   6  -4  985.90   45.30
  -2   6  -4  927.11   45.60
  -2   6  -4  955.30   45.20
  -2   6  -4  989.30   48.70
  -2   6  -4  992.00   44.70
  -2   6  -4  975.00   45.10
  -3  -6  -4  308.87   14.50
  -3  -6  -4  300.27   14.20
   3  -6   4  296.47   14.30
  -3  -6  -4  306.27   14.60
  -3   6  -4  294.07   13.70
  -3   6  -4  277.27   14.30
  -3   6  -4  308.57   17.90
  -3   6  -4  287.17   14.40
  -3   6  -4  291.07   14.10
  -3   6  -4  285.77   14.70
  -3   6  -4  291.37   15.20
  -4  -6  -4  180.18    9.30
  -4  -6  -4  182.38    8.80
   4  -6   4  194.18    9.10
  -4  -6  -4  182.48    9.20
  -4   6  -4  150.58    8.90
  -4   6  -4  160.28    7.90
  -4   6  -4  153.98    8.10
  -4   6  -4  154.38    8.50
  -4   6  -4  146.29   11.50
  -4   6  -4  144.39    8.10
  -5  -6  -4  224.88   10.30
   5  -6   4  207.68   10.20
  -5  -6  -4  199.08    9.90
  -5   6  -4  216.98   10.40
  -5   6  -4  166.38   10.70
  -5   6  -4  196.18    9.90
  -5   6  -4  207.88   10.00
   6  -6   4   54.79    3.30
  -6  -6  -4   53.59    3.10
  -6   6  -4   46.10    2.90
  -6   6  -4   45.00    3.60
  -6   6  -4   48.10    3.10
   7  -7  -4   17.70    1.60
  -7  -7   4   17.00    1.30
  -7  -7   4   16.50    1.90
  -7   7   4   21.00    3.10
  -7   7   4   24.30    2.70
  -7   7   4   22.90    2.50
  -6  -7   4   27.80    2.40
   6  -7  -4   27.90    3.50
  -6  -7   4   22.90    1.80
   6  -7  -4   26.60    2.10
  -6   7   4   31.00    3.40
  -6   7   4   29.20    3.50
  -6   7   4   27.30    3.10
  -5  -7   4  170.08    7.80
  -5  -7   4  168.58    8.20
   5  -7  -4  150.48    8.40
   5  -7  -4  159.98    7.90
  -5   7   4  150.18    8.00
  -5   7   4  137.99    7.80
  -5   7   4  149.88    8.30
   5   7  -4  138.59    7.30
  -4  -7   4  220.78   10.50
   4  -7  -4  206.38   10.60
  -4  -7   4  215.98   10.20
  -4   7   4  228.48   11.70
   4   7  -4  219.48   10.90
   4   7  -4  235.18   12.00
  -4   7   4  232.28   12.10
   4   7  -4  215.58   15.00
   3  -7  -4   38.80    2.80
  -3  -7   4   40.50    3.00
   3  -7  -4   35.00    3.70
   3   7  -4   42.50    7.80
  -3   7   4   40.00    5.00
   3   7  -4   31.80    3.40
  -3   7   4   36.60    4.10
   3   7  -4   35.00    3.90
   3   7  -4   39.00    2.90
   2  -7  -4  124.49    6.40
   2  -7  -4  129.49    6.80
   2   7  -4  146.19    7.60
   2   7  -4  135.19    8.10
   2   7  -4  168.68   12.80
  -2   7   4  136.09    8.60
   1  -7  -4   54.29    3.40
   1  -7  -4   57.59    4.00
   1  -7  -4   56.79    4.00
   1   7  -4   62.69    3.80
   1   7  -4   61.09    4.40
   1   7  -4   58.89    4.60
   1   7  -4   60.59    6.20
  -1   7   4   60.89    5.40
   1   7  -4   62.69    5.00
   1   7  -4   69.49    8.20
   1   7  -4   60.39    4.30
   1   7  -4   64.19    4.50
   0  -7  -4   18.10    2.00
   0  -7  -4   15.70    2.00
   0  -7  -4   13.60    2.20
   0   7  -4   30.90    4.80
   0   7   4   17.50    3.30
   0   7  -4   16.40    2.70
   0   7  -4   18.50    2.50
   0   7  -4   16.90    3.90
  -1  -7  -4  170.28    8.80
  -1  -7  -4  174.58    8.80
  -1  -7  -4  178.08    8.50
  -1   7  -4  172.78    8.90
  -1   7  -4  172.38    8.60
  -1   7  -4  164.68    9.20
  -1   7  -4  174.88    9.80
  -1   7  -4  172.98    8.20
  -1   7  -4  154.88   12.20
   1   7   4  160.38   10.40
  -1   7  -4  165.88    8.80
  -1   7  -4  163.08    9.20
  -2  -7  -4  126.79    6.30
  -2  -7  -4  128.89    6.80
  -2  -7  -4  121.69    6.60
  -2   7  -4  115.59    6.60
  -2   7  -4  112.59    9.80
  -2   7  -4  115.09    6.20
  -2   7  -4  116.09    7.50
  -2   7  -4  118.49    6.50
  -2   7  -4  106.69    6.90
  -2   7  -4  115.89    7.90
  -2   7  -4  121.09    5.90
  -3  -7  -4  454.65   20.90
  -3  -7  -4  423.16   20.70
  -3  -7  -4  447.56   20.50
  -3   7  -4  423.76   19.40
  -3   7  -4  415.56   19.90
  -3   7  -4  426.66   19.70
  -3   7  -4  423.36   20.00
  -3   7  -4  389.26   22.70
  -3   7  -4  454.15   20.80
  -3   7  -4  392.26   20.20
  -4  -7  -4  128.79    6.80
  -4  -7  -4  127.89    6.50
  -4   7  -4  105.99    5.90
  -4   7  -4   90.99    5.80
  -4   7  -4  117.29    6.50
  -4   7  -4  104.39    5.80
  -5  -7  -4   42.10    2.60
  -5  -7  -4   39.80    2.60
  -5   7  -4   33.90    3.20
  -5   7  -4   35.20    2.40
  -5   7  -4   32.70    2.90
  -5   7  -4   33.60    2.70
  -6  -8   4  320.47   15.10
  -6  -8   4  335.77   15.40
  -6   8   4  321.17   16.30
  -6   8   4  355.76   16.10
   5  -8  -4  234.28   10.80
  -5  -8   4  221.08   11.40
  -5   8   4  199.18   11.10
   5   8  -4  220.38   10.40
  -5   8   4  237.58   11.00
  -4  -8   4  297.17   14.10
   4  -8  -4  304.77   14.10
   4   8  -4  312.47   15.20
  -4   8   4  327.27   15.50
  -4   8   4  313.67   15.80
   3  -8  -4  131.39    6.30
  -3  -8   4  119.29    6.70
  -3  -8   4  119.69    6.50
   3   8  -4  119.59    5.90
  -3   8   4  121.79    7.00
   3   8  -4  106.09    9.60
  -3   8   4  104.69    7.70
   2  -8  -4  139.49    6.90
   2  -8  -4  138.59    7.50
  -2  -8   4  135.89    7.60
   2   8  -4  113.49    6.80
   2   8  -4  114.69    5.80
   2   8  -4   96.19    6.40
  -2   8   4  123.79    7.20
   2   8  -4  120.89    9.80
   1  -8  -4  408.36   18.10
  -1  -8   4  359.36   18.50
   1  -8  -4  395.06   18.30
   1   8  -4  397.66   19.00
  -1   8   4  390.86   19.20
   1   8  -4  376.26   18.60
   1   8  -4  409.96   22.20
   1   8  -4  363.06   18.20
   1   8  -4  392.16   18.10
   0  -8  -4  550.24   25.50
   0  -8  -4  515.15   25.80
   0  -8  -4  580.44   25.40
   0   8  -4  549.05   26.30
   0   8  -4  570.94   26.70
   0   8   4  541.95   26.70
   0   8  -4  541.25   29.70
   0   8  -4  548.45   26.00
   0   8  -4  573.94   27.00
   0   8  -4  550.74   25.80
   0   8  -4  600.64   26.40
  -1  -8  -4  616.34   28.80
  -1  -8  -4  634.44   28.20
  -1  -8  -4  587.04   28.30
  -1   8  -4  558.54   25.50
  -1   8  -4  538.45   24.90
  -1   8  -4  563.04   26.30
  -1   8  -4  520.05   25.30
  -1   8  -4  537.15   25.10
  -1   8  -4  522.05   25.70
  -2  -8  -4  301.77   14.10
  -2  -8  -4  287.97   13.80
  -2   8  -4  247.48   12.10
  -2   8  -4  230.58   12.60
  -2   8  -4  203.38   11.90
  -2   8  -4  255.57   12.60
  -2   8  -4  246.68   11.80
  -3  -8  -4   54.79    3.40
  -3  -8  -4   57.89    3.10
  -3   8  -4   75.59    4.00
  -3   8  -4   69.89    4.70
  -3   8  -4   64.59    6.90
  -3   8  -4   78.39    4.50
  -3   8  -4   77.49    4.20
  -3   8  -4   85.29    5.40
  -3   8  -4   77.49    4.50
  -4  -8  -4   12.70    1.30
  -4  -8  -4   14.80    1.60
  -4   8  -4    4.30    1.80
  -4   8  -4    1.40    5.50
  -4   8  -4    7.00    1.20
  -4   8  -4    6.30    1.30
  -4   8  -4    5.30    1.60
   5  -9  -4   33.50    2.20
  -5  -9   4   32.30    2.00
  -5   9   4   17.10    2.70
  -4  -9   4   62.69    3.30
   4  -9  -4   59.79    3.30
  -4   9   4   50.09    3.70
   4   9  -4   50.79    3.00
   3  -9  -4   20.40    1.90
  -3  -9   4   21.00    2.30
  -3   9   4   17.60    2.70
   3   9  -4   18.60    1.60
   2  -9  -4  133.49    6.60
   2   9  -4  130.09    5.90
  -2   9   4  120.99    6.90
   2   9  -4  106.09    8.80
   1  -9  -4   35.20    2.40
  -1   9   4   28.60    3.80
   1   9  -4   28.80    5.10
   1   9  -4   30.10    3.00
   1   9  -4   33.70    2.10
   0  -9  -4   44.10    5.60
   0  -9  -4   46.50    2.70
   0   9  -4   41.60    3.60
   0   9  -4   53.19    6.10
   0   9  -4   57.69    4.20
   0   9  -4   48.00    2.80
  -1  -9  -4   78.09    5.00
  -1   9  -4   55.19    5.80
  -1   9  -4   57.49    4.00
  -1   9  -4   67.39    3.30
  -1   9  -4   68.69    4.20
  -1   9  -4   57.79    4.00
  -2  -9  -4    2.70    1.30
  -2  -9  -4    2.30    0.80
  -2   9  -4    3.00    1.40
  -2   9  -4    5.00    0.90
  -2   9  -4    2.80    1.50
  -2   9  -4    2.90    3.40
  -2   9  -4    0.30    1.40
  -3  -9  -4  141.89    7.10
  -3  -9  -4  151.98    6.90
  -3   9  -4   91.49    8.80
   1 -10  -4  270.77   12.60
 -10   0   5    9.50    1.60
 -10   0   5    9.10    2.30
  10   0  -5    7.40    1.30
  -9   0   5   94.29    5.50
   9   0  -5   91.29    5.00
  -9   0   5   86.29    5.40
   8   0  -5  455.05   21.90
   8   0  -5  476.15   21.60
   8   0  -5  470.95   21.90
  -8   0   5  469.55   21.70
   7   0  -5   53.69    3.00
  -7   0   5   50.19    3.20
   7   0  -5   47.50    3.40
   7   0  -5   46.10    3.20
  -7   0   5   44.30    2.60
  -6   0   5  105.69    4.90
   6   0  -5  104.19    5.40
  -6   0   5   94.69    5.00
   6   0  -5  104.49    5.70
  -6   0   5   98.39    5.30
   6   0  -5  102.89    5.30
  -6   0   5   96.39    6.50
  -5   0   5   38.50    2.70
  -5   0   5   35.90    2.40
  -5   0   5   39.30    2.00
   5   0  -5   37.80    2.70
  -5   0   5   39.40    3.30
   5   0  -5   38.00    2.70
   5   0  -5   38.10    2.50
  -4   0   5  376.56   18.30
   4   0  -5  381.76   18.40
   4   0  -5  389.96   18.30
  -4   0   5  413.06   40.80
  -4   0   5  404.76   18.90
  -4   0   5  440.16   19.20
   4   0  -5  398.56   37.90
   4   0  -5  396.66   18.30
   3   0  -5  837.72   38.70
  -3   0   5  863.41   50.79
   3   0  -5  786.42   49.00
  -3   0   5  849.02   39.00
   3   0  -5  878.51   38.50
   2   0  -5   68.49    3.20
  -2   0   5   65.19   14.40
   2   0  -5   81.79   18.50
   2   0  -5   66.09    3.40
  -2   0   5   65.59    3.70
  -1   0   5  104.09   17.00
   1   0  -5  120.89    5.70
  -1   0   5  113.99    6.00
   1   0  -5  130.79   16.90
   0   0  -5  214.08   35.40
   0   0   5  137.09   19.50
   0   0  -5  137.29    6.30
   0   0   5  131.59    7.00
   0   0  -5  132.49    6.50
   1   0   5  658.63   32.90
  -1   0  -5  712.43   32.30
  -1   0  -5  744.03   32.20
  -2   0  -5  170.18    9.30
  -2   0  -5  170.08    8.20
   2   0   5  171.88    8.30
  -2   0  -5  183.48    8.10
   2   0   5  166.88    8.80
  -2   0  -5  171.88    8.50
  -3   0  -5   30.20    3.30
  -3   0  -5   32.70    1.80
   3   0   5   29.50    3.80
  -3   0  -5   33.20    4.00
  -3   0  -5   33.40    2.20
  -3   0  -5   24.90    3.60
  -4   0  -5  131.29    7.60
   4   0   5  126.39    7.20
  -4   0  -5  138.09   10.80
   4   0   5  133.79    6.70
  -4   0  -5  139.29    7.10
  -4   0  -5  137.39    6.70
  -4   0  -5  128.99    6.40
   5   0   5  739.63   34.90
  -5   0  -5  833.92   36.20
  -5   0  -5  801.32   36.10
   5   0   5  735.43   35.30
  -5   0  -5  690.23   34.70
  -6   0  -5  246.48   12.90
  -6   0  -5  269.07   13.10
   6   0   5  261.97   12.70
   7   0   5  742.83   33.00
  -7   0  -5  748.73   33.70
  -7   0  -5  674.73   33.40
  10  -1  -5  105.49    5.30
 -10  -1   5   98.39    5.60
 -10   1   5  102.49    5.50
 -10   1   5  104.79    5.90
 -10   1   5  102.19    6.00
  10   1  -5  105.39    5.40
  -9  -1   5  119.69    6.70
  -9  -1   5  111.39    5.80
   9  -1  -5  115.49    5.80
   9  -1  -5  106.39    6.70
   9  -1  -5  117.69    6.00
   9   1  -5  113.59    6.10
  -9   1   5  115.99    6.60
  -9   1   5  119.99    6.20
  -8  -1   5 1105.09   51.19
   8  -1  -5 1123.59   51.39
   8  -1  -5 1159.68   51.29
   8  -1  -5 1090.19   51.09
  -8   1   5 1057.69   48.00
  -8   1   5 1013.30   47.40
  -8   1   5  998.70   47.40
   8   1  -5 1084.99   47.70
   7  -1  -5  164.48    8.40
  -7  -1   5  168.18    8.80
   7  -1  -5  175.88    8.30
   7  -1  -5  164.98    8.10
  -7  -1   5  166.68    8.30
  -7  -1   5  165.78    8.00
  -7   1   5  187.98    8.90
   7   1  -5  201.98    9.40
   7   1  -5  185.48    9.60
  -7   1   5  195.48    9.20
   7   1  -5  173.78    9.30
   6  -1  -5  485.95   22.40
  -6  -1   5  508.75   22.50
  -6  -1   5  472.65   22.30
  -6  -1   5  530.05   23.90
   6  -1  -5  472.25   22.60
  -6  -1   5  442.66   22.30
  -6   1   5  555.04   25.60
  -6   1   5  525.35   26.50
   6   1  -5  545.75   25.60
  -6   1   5  553.24   27.30
  -6   1   5  605.24   26.20
   6   1  -5  568.24   25.90
  -5  -1   5   53.59    4.00
  -5  -1   5   50.79    3.30
  -5  -1   5   56.59    3.20
   5  -1  -5   55.69    3.10
   5  -1  -5   56.79    3.30
  -5  -1   5   53.49    3.00
   5   1  -5   51.69    3.40
  -5   1   5   53.39    3.80
  -5   1   5   50.39    3.30
  -5   1   5   61.99    3.40
   5   1  -5   54.89    3.40
   5   1  -5   62.99    3.60
  -4  -1   5  776.42   35.30
  -4  -1   5  849.32   35.90
   4  -1  -5  716.83   51.69
   4  -1  -5  759.82   35.30
   4  -1  -5  788.52   35.40
   4  -1  -5  749.42   35.20
   4  -1  -5  730.53   35.20
  -4  -1   5  775.52   35.20
  -4   1   5  752.12   54.39
  -4   1   5  698.03   33.20
  -4   1   5  782.52   33.70
   4   1  -5  701.33   33.20
   4   1  -5  729.53   33.40
   4   1  -5  723.53   33.40
  -4   1   5  731.03   33.70
   3  -1  -5  625.84   29.90
   3  -1  -5  637.44   30.10
  -3  -1   5  725.33   30.20
  -3  -1   5  707.33   30.50
  -3  -1   5  614.04   42.70
   3  -1  -5  599.44   41.50
   3  -1  -5  635.74   30.00
   3  -1  -5  659.83   30.10
   3   1  -5  730.23   33.70
  -3   1   5  746.73   48.00
   3   1  -5  750.52   33.40
  -3   1   5  746.53   33.80
   3   1  -5  632.94   44.00
  -3   1   5  768.62   33.70
   2  -1  -5  739.23   34.20
   2  -1  -5  767.42   34.20
  -2  -1   5  770.82   34.70
  -2  -1   5  758.12   44.50
   2  -1  -5  701.73   43.50
  -2   1   5  738.93   44.90
  -2   1   5  733.23   33.00
   2   1  -5  709.23   32.90
   2   1  -5  665.83   40.90
   2   1  -5  733.53   32.70
  -1  -1   5  839.62   46.90
   1  -1  -5  814.02   37.30
   1  -1  -5  786.22   37.20
  -1  -1   5  838.52   37.80
  -1   1   5  792.72   36.70
   1   1  -5  815.12   36.50
   1   1  -5  754.62   44.50
   1   1  -5  804.12   36.20
   1   1  -5  806.62   36.40
   0  -1  -5   26.30    1.50
   0  -1   5   26.20    2.40
   0  -1  -5   52.89   32.20
   0  -1  -5   26.70    1.70
   0   1   5   58.49   19.10
   0   1  -5   56.89    3.30
   0   1   5   56.59    3.60
   0   1  -5   58.59    3.10
   0   1  -5   60.19    2.90
   0   1   5   70.09    3.90
   0   1   5   70.29    4.60
  -1  -1  -5 1139.89   52.69
   1  -1   5 1154.08   52.79
   1  -1   5 1169.18   53.49
  -1  -1  -5 1143.99   52.79
  -1  -1  -5 1230.48   52.69
  -1  -1  -5 1080.09   67.09
   1   1   5 1118.19   52.09
  -1   1  -5 1067.19   52.09
   1   1   5 1282.27   67.29
  -1   1  -5 1023.10   51.89
  -1   1  -5 1158.18   51.59
   1   1   5 1137.39   52.19
  -1   1  -5 1156.68   51.79
   1   1   5 1166.18   51.79
   2  -1   5  688.03   31.80
  -2  -1  -5  713.13   31.40
  -2  -1  -5  682.43   31.50
   2  -1   5  640.84   31.50
  -2  -1  -5  712.93   31.60
  -2   1  -5  677.13   32.20
  -2   1  -5  646.34   32.30
  -2   1  -5  704.43   31.90
  -2   1  -5  741.03   32.70
  -2   1  -5  745.63   32.00
  -2   1  -5  681.43   32.60
   3  -1   5  512.95   23.80
  -3  -1  -5  507.75   23.50
  -3  -1  -5  490.85   24.10
   3  -1   5  538.65   24.00
  -3  -1  -5  484.05   23.40
  -3   1  -5  512.65   26.80
  -3   1  -5  522.25   24.20
  -3   1  -5  600.44   25.20
   3   1   5  506.45   24.50
  -3   1  -5  504.25   24.70
  -3   1  -5  521.15   24.00
  -3   1  -5  492.35   24.40
  -3   1  -5  520.25   23.90
  -4  -1  -5  394.56   18.70
  -4  -1  -5  423.46   18.70
   4  -1   5  424.56   18.70
  -4  -1  -5  371.46   19.30
  -4  -1  -5  380.06   18.50
   4  -1   5  405.06   19.00
  -4   1  -5  395.46   17.70
  -4   1  -5  383.46   18.30
  -4   1  -5  344.17   17.80
  -4   1  -5  375.86   18.20
  -4   1  -5  390.86   20.60
   4   1   5  367.16   17.90
  -4   1  -5  360.66   17.20
  -5  -1  -5  165.58   13.50
   5  -1   5  165.28    8.50
  -5  -1  -5  154.18    7.70
  -5  -1  -5  172.58    9.00
   5  -1   5  149.19    7.90
  -5  -1  -5  160.78    8.10
  -5   1  -5  141.89    7.20
  -5   1  -5  157.98    8.50
  -5   1  -5  165.88   12.90
  -5   1  -5  151.68    8.30
  -5   1  -5  136.69    8.60
   5   1   5  154.48    8.10
   6  -1   5  619.64   27.00
   6  -1   5  565.04   27.30
  -6  -1  -5  565.74   27.70
  -6  -1  -5  592.54   27.60
   6   1   5  551.04   24.70
  -6   1  -5  518.85   25.50
  -6   1  -5  538.85   25.30
  -7  -1  -5  211.18   10.60
  -7  -1  -5  208.28   10.70
   7   1   5  195.38   10.40
  -7   1  -5  227.38   11.00
  -7   1  -5  231.68   11.10
   7   1   5  236.18   10.70
  10  -2  -5   17.20    2.00
  10  -2  -5   19.40    1.80
 -10  -2   5   17.50    2.10
 -10   2   5   22.60    2.20
 -10   2   5   24.40    3.10
  -9  -2   5  158.08    8.60
  -9  -2   5  162.78    7.70
   9  -2  -5  155.18    7.90
   9  -2  -5  152.68    7.90
   9  -2  -5  161.48    7.60
  -9   2   5  136.49    8.00
   9   2  -5  147.89    7.40
  -9   2   5  140.69    7.30
  -9   2   5  146.29    7.60
  -8  -2   5  296.17   13.80
   8  -2  -5  286.57   13.90
   8  -2  -5  303.07   13.70
   8  -2  -5  291.67   13.80
  -8  -2   5  276.47   13.50
   8   2  -5  285.57   13.50
  -8   2   5  275.37   13.70
  -8   2   5  275.67   13.00
  -7  -2   5   12.30    1.40
   7  -2  -5   12.10    1.60
   7  -2  -5   10.70    1.20
  -7  -2   5   12.40    1.50
  -7   2   5   18.50    1.30
   7   2  -5   19.70    2.10
   7   2  -5   18.90    2.60
  -7   2   5   16.30    2.00
   6  -2  -5  315.57   14.60
  -6  -2   5  318.77   14.50
  -6  -2   5  314.27   14.70
   6  -2  -5  296.37   14.70
  -6   2   5  296.27   14.60
  -6   2   5  326.77   15.50
  -6   2   5  317.57   16.40
   6   2  -5  302.17   14.90
   6   2  -5  338.17   15.50
  -5  -2   5  240.68   11.90
   5  -2  -5  220.98   11.10
   5  -2  -5  236.88   11.00
  -5  -2   5  235.88   10.90
  -5  -2   5  229.18   11.10
  -5   2   5  222.48   12.50
  -5   2   5  219.58   11.10
  -5   2   5  225.68   10.70
   5   2  -5  234.58   10.80
   5   2  -5  217.88   10.80
  -4  -2   5   33.10    2.50
  -4  -2   5   34.20    2.20
   4  -2  -5   39.90    2.30
   4  -2  -5   33.40    2.70
  -4  -2   5   34.10    3.00
   4  -2  -5   30.40    1.90
   4   2  -5   27.80    2.20
   4   2  -5   31.60    3.00
  -4   2   5   28.60    2.70
  -4   2   5   30.30    2.40
   4   2  -5   32.90    3.40
   3  -2  -5  484.45   22.70
   3  -2  -5  501.35   22.80
  -3  -2   5  490.75   22.80
  -3  -2   5  522.35   23.40
  -3  -2   5  485.25   22.90
   3  -2  -5  506.45   23.10
   3  -2  -5  458.45   40.40
   3   2  -5  509.95   23.30
   3   2  -5  518.45   23.80
  -3   2   5  475.85   23.50
   3   2  -5  506.45   23.60
  -3   2   5  688.53   59.89
  -3   2   5  506.45   23.50
   2  -2  -5  137.89    6.50
   2  -2  -5  136.49    6.40
   2  -2  -5  131.89    6.70
   2  -2  -5  108.59   18.80
   2  -2  -5  130.59    6.60
  -2  -2   5  143.19    7.10
   2   2  -5  140.69    6.80
  -2   2   5  132.79   22.70
   2   2  -5  137.79    6.30
  -2   2   5  126.39    6.60
   2   2  -5  137.29    6.70
   1  -2  -5  153.98    7.70
  -1  -2   5  166.78    8.30
   1  -2  -5  161.38    7.50
   1  -2  -5  160.48    7.90
   1  -2  -5  164.88    7.70
   1  -2  -5  156.98   25.20
  -1   2   5  171.28    8.30
  -1   2   5  207.28   34.30
   1   2  -5  166.48    8.30
  -1   2   5  170.18    8.10
   1   2  -5  168.78    8.10
   1   2  -5  155.18   11.20
   1   2  -5  170.28    7.70
   0  -2  -5  183.48    8.30
   0  -2  -5  176.08   27.60
   0  -2  -5  176.08    8.70
   0  -2  -5  177.28    8.50
   0  -2  -5  181.98    8.50
   0  -2   5  172.68    9.20
   0   2   5  177.38    8.30
   0   2   5  197.18   26.40
   0   2  -5  179.18    8.10
   0   2   5  171.08    8.60
   0   2  -5  175.08    8.70
   0   2  -5  167.18   11.00
   0   2   5  182.78    8.70
   0   2  -5  172.08    9.00
   0   2  -5  179.48    8.50
   1  -2   5  295.77   14.10
  -1  -2  -5  296.07   13.70
  -1  -2  -5  340.47   52.29
  -1  -2  -5  292.47   13.40
   1  -2   5  274.27   14.40
  -1  -2  -5  283.57   13.50
   1   2   5  266.07   12.30
  -1   2  -5  261.77   13.20
   1   2   5  259.57   12.80
   1   2   5  263.57   12.60
  -1   2  -5  272.47   13.00
  -1   2  -5  260.17   15.00
   1   2   5  194.78   30.50
  -1   2  -5  263.97   12.70
  -1   2  -5  258.27   12.40
  -1   2  -5  269.27   13.10
  -1   2  -5  270.47   12.10
  -2  -2  -5   19.80    1.70
   2  -2   5   17.90    1.80
   2  -2   5   14.30    2.90
   2  -2   5   24.90    2.90
  -2  -2  -5   18.60    2.30
  -2  -2  -5   19.70    1.30
  -2   2  -5   22.50    3.10
  -2   2  -5   27.10    2.90
  -2   2  -5   26.60    3.50
  -2   2  -5   26.30    3.30
  -2   2  -5   23.10    2.10
   2   2   5   24.00    2.50
   2   2   5   29.90    2.10
  -2   2  -5   23.10    5.50
   3  -2   5  270.37   13.60
  -3  -2  -5  273.17   12.70
   3  -2   5  259.77   12.70
  -3  -2  -5  261.47   12.80
  -3  -2  -5  274.57   12.60
  -3   2  -5  282.67   16.00
  -3   2  -5  268.97   13.30
  -3   2  -5  266.17   12.60
  -3   2  -5  250.67   13.90
  -3   2  -5  266.37   13.10
  -3   2  -5  278.67   13.80
  -3   2  -5  286.27   13.70
   3   2   5  287.57   12.90
  -4  -2  -5  142.39    6.90
   4  -2   5  134.49    7.50
  -4  -2  -5  138.19    6.70
  -4  -2  -5  110.89   10.00
   4  -2   5  145.59    6.90
  -4  -2  -5  135.59    7.00
  -4   2  -5  122.59    6.90
  -4   2  -5  115.49    6.90
  -4   2  -5  108.49    5.50
   4   2   5  111.29    5.80
  -4   2  -5  121.09    9.90
  -4   2  -5  117.19    6.40
  -4   2  -5  117.69    6.80
   5  -2   5  126.79    6.10
  -5  -2  -5  116.19    6.20
  -5  -2  -5  113.19    6.00
   5  -2   5  128.69    6.80
  -5  -2  -5  123.69    6.60
  -5  -2  -5  110.99    7.70
  -5  -2  -5  115.19   11.80
  -5   2  -5  112.49   11.40
  -5   2  -5   96.09    4.70
  -5   2  -5   94.99    5.80
  -5   2  -5   95.79    6.00
   5   2   5   95.29    5.10
  -5   2  -5  103.69    6.20
  -6  -2  -5   18.60    2.20
  -6  -2  -5   24.30    4.50
   6  -2   5   23.60    1.90
   6  -2   5   25.30    2.50
  -6   2  -5   21.30    2.90
   6   2   5   20.10    1.90
  -6   2  -5   21.20    2.90
   6   2   5   22.20    2.20
  -6   2  -5   22.10    2.70
   7  -2   5  196.58    9.60
  -7  -2  -5  203.38   10.10
   7   2   5  180.18    8.40
  -7   2  -5  166.58    8.80
  -7   2  -5  170.68    8.70
 -10  -3   5  147.49    7.30
  10  -3  -5  164.68    7.70
  10  -3  -5  144.99    7.20
 -10   3   5  146.19    7.70
 -10   3   5  158.98    7.90
   9  -3  -5  122.09    6.20
   9  -3  -5  115.69    6.20
  -9  -3   5  121.49    6.10
   9  -3  -5  124.69    5.90
  -9   3   5  129.19    6.60
  -9   3   5  125.59    6.80
   8  -3  -5  317.37   14.90
  -8  -3   5  313.87   14.80
   8  -3  -5  294.27   14.70
   8  -3  -5  324.57   14.80
  -8  -3   5  320.97   14.60
  -8   3   5  255.87   12.00
  -8   3   5  252.57   12.80
  -8   3   5  252.27   12.50
   8   3  -5  270.87   12.70
  -7  -3   5  537.35   23.90
   7  -3  -5  498.45   24.30
   7  -3  -5  524.75   24.00
  -7  -3   5  505.95   24.20
  -7   3   5  460.75   20.50
  -7   3   5  431.66   21.80
   7   3  -5  420.06   20.80
   7   3  -5  454.35   20.90
  -7   3   5  459.45   21.50
   6  -3  -5 1495.35   72.59
   6  -3  -5 1662.43   72.49
  -6  -3   5 1592.74   72.59
  -6  -3   5 1612.24   72.39
  -6   3   5 1623.64   74.59
   6   3  -5 1639.14   74.89
   6   3  -5 1608.34   74.89
  -6   3   5 1726.53   75.29
  -6   3   5 1616.94   75.79
   5  -3  -5   50.89    3.00
  -5  -3   5   49.20    3.20
  -5  -3   5   51.29    2.90
   5  -3  -5   49.10    3.30
  -5  -3   5   50.49    4.80
   5   3  -5   35.40    3.10
  -5   3   5   36.80    5.20
  -5   3   5   29.80    3.80
   4  -3  -5   34.50    2.40
  -4  -3   5   37.30    2.30
  -4  -3   5   37.40    3.40
   4  -3  -5   34.00    2.30
  -4  -3   5   37.50    2.70
   4  -3  -5   37.80    2.80
   4   3  -5   41.40    9.70
  -4   3   5   61.89    4.20
  -4   3   5   41.90    5.30
   4   3  -5   54.79    4.00
   4   3  -5   53.19    3.30
   3  -3  -5  622.44   28.80
  -3  -3   5  626.24   29.10
   3  -3  -5  638.54   28.80
   3  -3  -5  625.34   28.90
   3   3  -5  663.63   34.60
   3   3  -5  701.73   32.10
  -3   3   5  671.13   31.90
   3   3  -5  693.13   31.90
   3   3  -5  747.23   32.30
   2  -3  -5 1032.80   47.20
   2  -3  -5 1027.40   47.30
   2  -3  -5 1052.19   47.20
  -2  -3   5 1031.60   47.80
   2   3  -5 1045.80   47.80
  -2   3   5  983.80   47.60
   2   3  -5 1142.19   51.79
   2   3  -5 1073.49   48.00
   2   3  -5 1036.90   47.80
   2   3  -5 1034.90   47.40
   2   3  -5  991.40   47.60
   1  -3  -5  878.11   41.10
   1  -3  -5  892.91   41.00
   1  -3  -5  920.91   41.20
   1  -3  -5  903.81   41.10
  -1  -3   5  905.81   41.80
   1   3  -5  892.51   39.90
   1   3  -5  874.81   39.90
   1   3  -5  904.21   40.10
   1   3  -5  871.51   40.10
   1   3  -5  809.12   42.10
   1   3  -5  853.81   39.70
  -1   3   5  874.81   39.70
   1   3  -5  855.21   40.40
   1   3  -5  884.71   39.50
   0  -3  -5  458.35   21.40
   0  -3  -5  472.25   21.60
   0  -3   5  477.25   22.40
   0  -3  -5  444.96   21.50
   0  -3  -5  478.65   21.50
   0   3  -5  509.65   26.10
   0   3  -5  526.75   23.90
   0   3   5  485.75   23.50
   0   3  -5  494.95   23.60
   0   3  -5  515.55   23.70
   0   3  -5  500.95   24.20
   0   3  -5  497.35   23.50
   0   3  -5  521.75   23.10
   0   3  -5  498.85   23.90
   0   3   5  530.35   23.40
  -1  -3  -5 1035.10   46.10
  -1  -3  -5 1077.19   46.20
   1  -3   5 1012.70   47.10
  -1  -3  -5  999.10   46.00
  -1  -3  -5  994.60   46.00
   1  -3   5  933.51   46.50
  -1   3  -5  911.71   44.10
  -1   3  -5  955.00   43.90
  -1   3  -5  974.30   43.20
  -1   3  -5  881.11   45.90
  -1   3  -5  974.70   44.60
   1   3   5  963.10   43.60
  -1   3  -5  944.21   43.70
   1   3   5  951.90   43.30
  -1   3  -5  984.30   43.50
  -1   3  -5  944.21   43.70
   1   3   5  949.60   43.70
  -1   3  -5  978.10   44.00
  -2  -3  -5  404.46   19.00
   2  -3   5  389.16   19.10
   2  -3   5  400.86   20.60
  -2  -3  -5  397.86   19.10
  -2  -3  -5  462.25   19.50
   2   3   5  425.96   20.50
  -2   3  -5  407.76   20.30
  -2   3  -5  421.26   19.40
   2   3   5  448.66   19.60
   2   3   5  412.06   20.50
  -2   3  -5  388.46   24.40
  -2   3  -5  462.55   22.20
  -2   3  -5  431.36   20.00
  -2   3  -5  429.86   19.90
  -2   3  -5  429.26   20.80
   3  -3   5  462.15   21.80
  -3  -3  -5  462.65   21.60
   3  -3   5  463.65   22.30
  -3  -3  -5  472.85   21.80
   3  -3   5  465.15   21.80
  -3  -3  -5  491.15   22.00
  -3   3  -5  446.86   24.40
   3   3   5  436.66   21.10
   3   3   5  459.75   21.50
  -3   3  -5  449.76   21.80
  -3   3  -5  449.66   22.10
  -3   3  -5  486.65   22.00
  -3   3  -5  473.65   21.60
  -3   3  -5  466.25   21.50
  -3   3  -5  453.75   20.90
  -4  -3  -5  161.68    8.00
   4  -3   5  162.88    7.90
  -4  -3  -5  149.88    7.70
  -4  -3  -5  158.88    7.90
   4  -3   5  154.48    8.70
  -4   3  -5  192.18    9.70
  -4   3  -5  188.78   10.20
  -4   3  -5  204.68   10.20
  -4   3  -5  180.98    8.80
   4   3   5  202.88    9.60
  -4   3  -5  194.88   13.30
  -4   3  -5  176.38   10.20
  -5  -3  -5   28.80    2.60
  -5  -3  -5   29.10    3.00
   5  -3   5   31.30    2.40
   5  -3   5   32.30    3.10
   5   3   5   35.70    3.00
  -5   3  -5   41.80    3.70
  -5   3  -5   39.10   10.10
  -5   3  -5   35.00    3.30
  -5   3  -5   36.50    3.50
  -6  -3  -5   70.69    4.10
   6  -3   5   70.69    4.00
   6   3   5   68.59    4.40
  -6   3  -5   74.99    4.90
  -6   3  -5   66.29    4.30
  -6   3  -5   72.09    4.60
  -7  -3  -5  267.27   11.70
   7  -3   5  207.48   11.20
  -7   3  -5  195.48    9.60
   7   3   5  192.88    9.20
  -7   3  -5  187.98    9.40
  -9  -4   5  124.29    6.10
   9  -4  -5  121.99    6.10
   9  -4  -5  125.89    6.20
   9  -4  -5  120.39    6.00
  -9   4   5  100.89    5.20
  -9   4   5   95.99    5.50
  -8  -4   5  179.38    8.60
   8  -4  -5  186.78    8.70
  -8  -4   5  173.78    8.80
   8  -4  -5  187.48    9.00
   8  -4  -5  185.08    8.90
  -8   4   5  169.48    8.80
  -8   4   5  170.18    8.50
  -7  -4   5    7.30    1.00
   7  -4  -5    5.10    1.30
   7  -4  -5    5.20    1.00
  -7  -4   5    6.80    1.20
  -7   4   5    3.30    0.50
   7   4  -5    3.40    2.50
  -7   4   5    2.90    2.50
  -7   4   5    2.80    1.50
  -7   4   5    2.50    1.50
   6  -4  -5  566.64   27.00
  -6  -4   5  578.64   26.80
   6  -4  -5  578.14   26.80
  -6  -4   5  603.64   27.00
  -6   4   5  596.34   28.20
   6   4  -5  584.84   27.20
  -6   4   5  581.24   27.60
   5  -4  -5  299.57   14.70
  -5  -4   5  313.97   14.50
   5  -4  -5  314.87   14.60
  -5  -4   5  314.57   14.70
  -5   4   5  329.97   16.90
  -5   4   5  324.07   16.20
  -5   4   5  353.26   15.40
   5   4  -5  336.47   15.80
   5   4  -5  326.47   16.10
  -4  -4   5  503.65   23.10
  -4  -4   5  500.65   23.20
  -4  -4   5  510.75   24.10
   4  -4  -5  483.45   23.00
   4   4  -5  554.04   24.90
   4   4  -5  576.54   25.30
   4   4  -5  510.75   25.10
  -4   4   5  526.75   25.90
   4   4  -5  513.35   28.70
   3  -4  -5   76.99    4.50
   3  -4  -5   82.49    4.20
  -3  -4   5   77.09    4.70
  -3  -4   5   88.79    5.40
  -3  -4   5   84.59    4.40
   3  -4  -5   80.29    4.30
  -3   4   5   88.89    5.80
   3   4  -5   78.59    8.90
   3   4  -5   83.79    4.70
  -3   4   5   80.89    6.40
   3   4  -5   81.39    6.20
   3   4  -5   86.99    5.10
   3   4  -5   83.39    4.70
  -2  -4   5   53.69    4.40
   2  -4  -5   58.99    3.30
   2  -4  -5   62.99    3.40
  -2  -4   5   56.59    3.80
  -2  -4   5   64.49    4.40
   2  -4  -5   61.39    3.70
   2   4  -5   62.49    5.50
   2   4  -5   64.89    7.80
   2   4  -5   66.39    3.90
   2   4  -5   67.29    4.30
  -2   4   5   61.39    6.20
   2   4  -5   62.79    4.00
   2   4  -5   66.39    3.90
   1  -4  -5  128.59    6.00
   1  -4  -5  113.29    5.90
   1  -4  -5  119.59    6.20
  -1  -4   5  118.89    6.90
   1   4  -5  125.79    6.60
   1   4  -5  129.29    6.90
   1   4  -5  126.79    6.60
   1   4  -5  126.89    9.80
   1   4  -5  130.79    6.50
   1   4  -5  120.99    7.70
   1   4  -5  125.79    7.00
  -1   4   5  126.39    6.70
   0  -4  -5   57.09    3.60
   0  -4  -5   62.49    3.30
   0  -4   5   54.69    4.80
   0  -4  -5   60.59    3.30
   0   4  -5   57.49    4.00
   0   4  -5   54.89    5.60
   0   4  -5   55.79    4.20
   0   4  -5   63.59    7.10
   0   4  -5   57.59    3.50
   0   4  -5   56.39    3.70
   0   4   5   48.40    3.60
   0   4  -5   55.49    5.00
   0   4  -5   56.59    3.60
  -1  -4  -5   23.50    2.50
  -1  -4  -5   29.00    2.10
   1  -4   5   26.50    4.70
  -1  -4  -5   26.20    2.00
  -1   4  -5   35.00    2.80
  -1   4  -5   35.50    4.70
  -1   4  -5   38.20    3.00
  -1   4  -5   34.20    6.20
  -1   4  -5   32.80    3.10
  -1   4  -5   36.30    4.40
   1   4   5   31.80    2.90
  -1   4  -5   35.70    3.50
   2  -4   5  194.78   10.60
  -2  -4  -5  219.58   10.20
  -2  -4  -5  220.38   10.40
  -2  -4  -5  217.08   10.30
  -2   4  -5  212.18   11.20
  -2   4  -5  203.18   10.50
  -2   4  -5  224.48   10.50
  -2   4  -5  216.38   13.80
  -2   4  -5  210.58   10.90
  -2   4  -5  208.68   11.80
   2   4   5  210.08   10.30
  -2   4  -5  207.78   10.80
  -2   4  -5  208.88   10.50
  -3  -4  -5  332.67   15.70
  -3  -4  -5  323.47   15.50
  -3  -4  -5  346.57   15.90
   3  -4   5  330.17   15.70
   3   4   5  336.37   16.10
  -3   4  -5  339.67   16.30
  -3   4  -5  323.87   16.50
  -3   4  -5  356.56   19.70
  -3   4  -5  354.36   16.70
  -3   4  -5  326.77   16.80
  -3   4  -5  334.67   16.40
  -4  -4  -5   91.69    5.60
  -4  -4  -5  100.89    5.50
  -4  -4  -5  112.89    5.20
   4  -4   5   96.79    5.40
   4   4   5  107.39    5.80
  -4   4  -5  111.99    6.60
  -4   4  -5  109.19    5.90
  -4   4  -5  102.29    6.50
  -4   4  -5  108.19    6.30
  -4   4  -5   94.19    9.80
  -5  -4  -5  194.58    9.30
  -5  -4  -5  182.48    9.80
   5  -4   5  190.08    9.20
  -5   4  -5  197.88   10.80
  -5   4  -5  205.78   15.70
  -5   4  -5  205.88   10.30
   5   4   5  218.78   10.20
  -5   4  -5  213.18   10.60
   6  -4   5  119.29    7.40
  -6  -4  -5  128.89    6.40
   6  -4   5  135.39    6.30
  -6   4  -5  130.49    7.10
   6   4   5  139.09    6.80
  -6   4  -5  127.59    6.80
  -6   4  -5  144.59    7.50
  -7   4  -5   41.80    2.80
   9  -5  -5   87.59    4.50
   9  -5  -5   98.59    4.90
   9  -5  -5   87.59    4.70
  -9  -5   5   90.09    4.60
  -9   5   5   89.19    4.90
  -9   5   5   87.19    4.70
   8  -5  -5   45.50    2.60
  -8  -5   5   45.30    2.50
   8  -5  -5   44.90    3.00
  -8  -5   5   41.60    2.70
   8  -5  -5   46.60    2.80
  -8   5   5   53.39    5.30
  -8   5   5   57.99    3.60
  -8   5   5   57.19    3.90
   7  -5  -5   95.49    5.50
  -7  -5   5  102.19    5.10
   7  -5  -5  107.69    5.20
  -7  -5   5  103.79    5.30
  -7   5   5   68.79    5.40
  -7   5   5   65.69    4.50
  -7   5   5   66.39    4.20
  -6  -5   5  465.65   20.30
   6  -5  -5  431.46   20.50
  -6  -5   5  444.26   20.40
   6  -5  -5  408.46   20.30
  -6   5   5  388.36   18.10
   6   5  -5  368.86   17.90
  -6   5   5  384.46   18.90
  -6   5   5  364.16   17.40
  -6   5   5  399.06   18.40
   5  -5  -5   77.29    4.20
  -5  -5   5   73.29    4.40
   5  -5  -5   75.89    4.50
  -5  -5   5   81.49    4.10
  -5   5   5   84.69    5.40
  -5   5   5   80.79    5.20
  -5   5   5   89.59    6.20
   5   5  -5   84.89    4.90
   5   5  -5   79.89    5.90
  -4  -5   5  495.85   23.40
  -4  -5   5  514.25   23.20
   4  -5  -5  498.85   23.40
   4   5  -5  598.74   28.20
   4   5  -5  624.54   28.60
  -4   5   5  642.74   29.30
   4   5  -5  581.54   28.50
   4   5  -5  610.94   32.20
  -4   5   5  613.54   28.60
  -4   5   5  589.84   28.30
   3  -5  -5  570.74   26.30
  -3  -5   5  536.05   26.40
   3  -5  -5  571.64   26.30
  -3  -5   5  619.34   26.80
   3  -5  -5  560.04   26.50
  -3   5   5  606.34   25.60
   3   5  -5  519.25   24.80
   3   5  -5  534.65   24.50
   3   5  -5  508.25   28.10
  -3   5   5  523.35   25.30
   3   5  -5  515.05   25.20
   3   5  -5  545.15   24.90
  -3   5   5  475.85   25.50
  -2  -5   5  610.94   29.60
  -2  -5   5  596.24   28.60
   2  -5  -5  615.94   28.60
   2  -5  -5  645.84   28.70
   2  -5  -5  638.34   28.60
   2   5  -5  606.94   28.20
  -2   5   5  556.54   29.00
   2   5  -5  601.24   28.10
   2   5  -5  623.74   28.50
   2   5  -5  623.24   28.90
   2   5  -5  601.54   31.70
   2   5  -5  645.44   28.50
   1  -5  -5  304.47   13.40
   1  -5  -5  276.67   13.20
   1  -5  -5  284.87   13.40
  -1  -5   5  262.07   14.50
   1   5  -5  278.77   13.50
   1   5  -5  316.07   14.40
   1   5  -5  289.37   17.10
   1   5  -5  269.97   13.30
   1   5  -5  270.47   13.80
  -1   5   5  265.97   14.70
   1   5  -5  275.67   14.60
   1   5  -5  272.47   13.60
   1   5  -5  277.47   13.70
   0  -5  -5  494.05   23.00
   0  -5  -5  506.85   23.10
   0  -5  -5  493.25   23.20
   0   5  -5  500.05   23.10
   0   5  -5  516.95   24.50
   0   5  -5  482.55   23.40
   0   5  -5  491.95   23.60
   0   5  -5  525.05   23.60
   0   5  -5  490.65   24.00
   0   5   5  474.55   24.40
   0   5  -5  490.25   26.60
   0   5  -5  508.15   23.30
  -1  -5  -5    0.70    1.20
  -1  -5  -5    1.10    1.20
  -1   5  -5    3.50    1.10
  -1   5  -5    5.40    1.90
  -1   5  -5    5.10    1.50
   1   5   5    9.20    3.80
  -1   5  -5    9.60    2.70
  -1   5  -5    4.90    3.70
  -1   5  -5    8.20    2.90
  -1   5  -5    6.10    1.70
  -2  -5  -5  323.67   14.90
  -2  -5  -5  300.27   14.70
  -2  -5  -5  307.57   14.50
  -2   5  -5  328.27   19.30
  -2   5  -5  332.87   16.10
  -2   5  -5  321.57   15.80
   2   5   5  301.17   15.50
  -2   5  -5  366.16   17.30
  -2   5  -5  335.37   15.50
  -2   5  -5  330.87   16.50
  -2   5  -5  329.47   16.90
  -2   5  -5  320.47   16.10
  -3  -5  -5  136.89    7.00
   3  -5   5  130.69    7.10
  -3  -5  -5  135.49    7.00
  -3  -5  -5  133.49    6.60
  -3   5  -5  143.09    7.40
  -3   5  -5  143.99    8.00
   3   5   5  141.79    7.50
  -3   5  -5  140.69    8.00
  -3   5  -5  150.38   11.50
  -3   5  -5  146.59    8.40
  -3   5  -5  152.48    7.70
  -3   5  -5  149.69    9.20
   4  -5   5  342.17   15.90
  -4  -5  -5  346.27   16.00
  -4  -5  -5  324.17   16.10
  -4   5  -5  360.06   17.40
  -4   5  -5  362.66   17.10
  -4   5  -5  345.37   17.60
  -4   5  -5  347.97   17.20
   4   5   5  360.76   16.80
  -4   5  -5  369.46   20.40
   5  -5   5   79.79    4.20
  -5  -5  -5   67.89    4.70
  -5   5  -5   95.19    5.30
  -5   5  -5   72.29    5.10
   6  -5   5  144.89    7.40
  -6  -5  -5  151.98    7.20
  -6   5  -5  140.89    7.50
  -6   5  -5  143.49    7.20
  -6   5  -5  144.19    7.00
   8  -6  -5  196.08    9.10
  -8  -6   5  186.98    9.10
  -8  -6   5  188.48    8.90
   8  -6  -5  191.48    9.20
  -8   6   5  146.49    9.20
  -8   6   5  171.18    8.10
  -8   6   5  173.68    8.30
   7  -6  -5   20.60    2.30
   7  -6  -5   19.30    2.10
  -7  -6   5   22.10    1.70
  -7  -6   5   22.90    2.00
  -7   6   5   15.50    1.90
  -7   6   5   11.20    2.30
  -7   6   5   13.30    2.40
   6  -6  -5  236.38   11.00
  -6  -6   5  243.78   10.90
  -6  -6   5  217.68   11.10
   6  -6  -5  227.48   11.20
  -6   6   5  228.18   12.00
  -6   6   5  230.58   11.60
  -6   6   5  235.58   11.30
   6   6  -5  220.88   11.10
   5  -6  -5  231.68   11.30
  -5  -6   5  238.28   11.10
  -5  -6   5  232.78   11.30
   5  -6  -5  233.78   11.10
   5   6  -5  222.88   12.00
   5   6  -5  232.78   11.10
  -5   6   5  224.68   12.10
  -5   6   5  234.38   11.70
  -5   6   5  227.78   11.40
  -4  -6   5 1078.39   48.60
  -4  -6   5 1071.99   48.40
   4  -6  -5 1030.80   48.70
  -4   6   5 1094.19   51.39
   4   6  -5 1169.88   51.99
  -4   6   5 1099.09   52.09
  -4   6   5 1211.38   55.29
   4   6  -5 1013.50   52.29
  -4   6   5 1177.38   52.59
   4   6  -5 1181.28   52.69
   4   6  -5 1128.19   55.39
   3  -6  -5  108.39    5.70
  -3  -6   5  101.29    5.40
  -3  -6   5   95.69    6.30
   3  -6  -5  103.29    5.30
  -3   6   5  108.79    7.20
   3   6  -5  109.69   10.80
   3   6  -5  109.89    6.30
   3   6  -5  103.59    6.40
   3   6  -5  110.19    5.80
  -3   6   5  103.69    7.00
   3   6  -5  108.49    6.90
   2  -6  -5   23.70    2.60
   2  -6  -5   21.50    2.30
   2  -6  -5   20.20    2.00
   2   6  -5   18.30    3.10
   2   6  -5   24.10    4.00
   2   6  -5   24.20    3.00
  -2   6   5   19.70    3.80
   2   6  -5   18.30    5.20
   2   6  -5   18.80    2.30
   2   6  -5   20.70    2.80
   1  -6  -5  100.49    5.70
   1  -6  -5  111.59    5.80
   1  -6  -5  109.39    5.50
   1   6  -5  122.79    6.10
   1   6  -5  105.79    7.10
   1   6  -5  108.69    6.30
   1   6  -5  120.29   10.00
  -1   6   5  123.19    7.60
   1   6  -5  112.29    6.70
   1   6  -5  114.29    7.90
   0  -6  -5   27.10    2.60
   0  -6  -5   26.70    2.50
   0  -6  -5   26.00    2.10
   0   6   5   30.30    5.10
   0   6  -5   26.30    3.50
   0   6  -5   28.30    3.40
   0   6  -5   25.40    2.80
   0   6  -5   33.70    4.90
   0   6  -5   28.50    6.30
   0   6  -5   26.80    2.50
   0   6  -5   29.30    3.10
   0   6  -5   26.10    4.00
  -1  -6  -5  257.27   12.50
  -1  -6  -5  257.97   12.50
  -1  -6  -5  260.37   12.30
  -1   6  -5  267.07   13.00
  -1   6  -5  279.67   13.30
  -1   6  -5  266.57   14.20
  -1   6  -5  261.87   13.30
  -1   6  -5  259.07   12.70
  -1   6  -5  245.08   13.70
   1   6   5  271.57   14.60
  -1   6  -5  273.57   16.90
  -1   6  -5  274.97   13.40
  -2  -6  -5  169.98    8.60
  -2  -6  -5  170.88    8.50
  -2  -6  -5  166.18    8.20
  -2   6  -5  149.79    8.10
  -2   6  -5  152.48    9.10
  -2   6  -5  158.48   11.50
  -2   6  -5  145.09    8.20
  -2   6  -5  150.48    7.80
  -2   6  -5  151.98    7.50
  -2   6  -5  145.79    8.60
  -2   6  -5  146.69    9.00
  -3  -6  -5  119.09    6.30
  -3  -6  -5  121.39    5.90
  -3  -6  -5  114.19    6.40
  -3   6  -5  110.49    5.80
  -3   6  -5  112.59    6.80
  -3   6  -5  116.79    9.60
  -3   6  -5  109.99    6.40
  -3   6  -5  107.09    6.30
  -4  -6  -5  165.48    8.00
   4  -6   5  155.58    8.10
  -4  -6  -5  162.88    8.00
  -4   6  -5  131.89    8.70
  -4   6  -5  148.99   11.40
  -4   6  -5  170.18    8.30
  -4   6  -5  176.08    8.10
  -4   6  -5  168.18    8.70
  -5  -6  -5  207.88    9.90
  -5   6  -5  202.48    9.60
  -5   6  -5  194.58   10.00
  -5   6  -5  196.98    9.80
  -5   6  -5  199.78   10.20
  -7  -7   5   37.60    2.10
  -7  -7   5   37.90    2.50
   7  -7  -5   35.30    3.20
   7  -7  -5   37.20    2.20
  -7   7   5   38.70    3.60
  -7   7   5   39.20    3.20
  -7   7   5   35.00    3.20
  -6  -7   5   59.69    3.70
   6  -7  -5   65.69    4.00
   6  -7  -5   62.39    3.40
  -6  -7   5   62.89    3.30
  -6   7   5   63.79    4.50
  -6   7   5   67.09    4.40
  -6   7   5   62.59    4.60
   6   7  -5   56.29    4.20
   5  -7  -5  381.06   16.60
  -5  -7   5  365.86   17.50
  -5  -7   5  361.16   16.50
   5  -7  -5  310.37   17.30
   5   7  -5  351.16   16.40
  -5   7   5  339.87   17.30
  -5   7   5  355.86   16.90
   4  -7  -5  492.45   22.20
  -4  -7   5  470.05   22.40
   4  -7  -5  497.55   22.40
  -4  -7   5  459.15   22.10
  -4   7   5  482.55   23.10
  -4   7   5  453.85   23.50
   4   7  -5  496.55   22.60
   4   7  -5  509.75   26.50
   3  -7  -5   77.89    4.10
   3  -7  -5   71.59    4.60
  -3  -7   5   74.49    4.20
   3   7  -5   57.59    3.60
   3   7  -5   57.49    8.00
   3   7  -5   55.99    4.20
   3   7  -5   73.19    6.90
  -3   7   5   54.19    4.70
   2  -7  -5  275.07   13.10
   2  -7  -5  271.07   12.90
  -2   7   5  273.87   14.10
   2   7  -5  270.67   13.90
   2   7  -5  269.47   13.00
   2   7  -5  289.97   17.40
   2   7  -5  261.27   13.40
   2   7  -5  265.97   13.70
   1  -7  -5  272.87   13.20
   1  -7  -5  285.77   13.50
   1  -7  -5  272.07   13.10
   1   7  -5  285.77   13.80
   1   7  -5  288.67   14.50
   1   7  -5  275.97   14.40
   1   7  -5  286.37   13.70
   1   7  -5  302.57   14.20
   1   7  -5  287.07   17.90
  -1   7   5  284.87   14.80
   0  -7  -5  242.18   12.00
   0  -7  -5  241.88   11.90
   0  -7  -5  254.57   11.70
   0   7  -5  230.58   12.40
   0   7  -5  223.28   12.00
   0   7  -5  207.48   14.70
   0   7  -5  237.28   11.50
   0   7  -5  227.78   11.00
   0   7  -5  223.28   11.20
   0   7  -5  233.48   12.00
   0   7   5  232.18   12.30
   0   7  -5  239.58   11.60
  -1  -7  -5  530.15   24.00
  -1  -7  -5  515.75   24.10
  -1  -7  -5  507.15   24.20
  -1   7  -5  624.84   28.30
  -1   7  -5  594.54   28.60
  -1   7  -5  604.94   27.70
   1   7   5  571.64   28.80
  -1   7  -5  569.54   31.50
  -1   7  -5  604.34   28.20
  -1   7  -5  611.04   28.00
  -1   7  -5  624.44   29.00
  -2  -7  -5  295.37   14.70
  -2  -7  -5  305.67   14.30
  -2  -7  -5  314.97   14.60
  -2   7  -5  315.57   14.90
  -2   7  -5  305.17   14.60
  -2   7  -5  318.07   14.30
  -2   7  -5  296.87   14.80
  -2   7  -5  298.17   15.20
  -2   7  -5  296.97   18.00
  -3   7  -5  145.99    7.10
  -3   7  -5  142.79   10.10
  -3   7  -5  116.59    7.70
  -3   7  -5  117.89    7.70
  -3   7  -5  149.79    6.70
  -4  -7  -5    7.10    1.10
  -4  -7  -5    4.60    1.00
  -4   7  -5   13.00    1.70
  -4   7  -5   14.60    1.90
  -4   7  -5   15.90    2.60
  -4   7  -5    8.20    4.80
  -4   7  -5   13.10    1.70
  -6  -8   5    2.00    0.60
  -6  -8   5    3.50    2.10
   6  -8  -5    4.60    1.30
  -6   8   5    4.70    1.40
  -6   8   5    4.80    1.90
   5  -8  -5   26.80    2.00
  -5  -8   5   27.50    1.90
  -5   8   5   25.60    3.40
   5   8  -5   20.80    2.30
  -5   8   5   20.70    2.90
   4  -8  -5  247.68   12.00
  -4  -8   5  273.87   12.00
   4  -8  -5  243.88   12.20
   4   8  -5  210.38   14.20
  -4   8   5  226.88   12.00
   4   8  -5  223.18   10.50
   3  -8  -5   90.59    4.60
   3  -8  -5   85.19    5.00
  -3  -8   5   79.59    4.60
   3   8  -5   88.19    4.70
  -3   8   5   90.69    5.90
   2  -8  -5    7.40    1.20
   2  -8  -5    3.40    2.00
   2   8  -5    8.30    1.20
  -2   8   5    6.40    2.00
   2   8  -5    5.90    2.30
   2   8  -5    5.60    4.30
   2   8  -5    5.30    1.70
   1  -8  -5  107.89    5.60
   1  -8  -5  115.19    6.40
   1   8  -5   97.39    5.90
   1   8  -5   80.79    8.20
  -1   8   5  105.69    6.40
   1   8  -5   88.29    5.40
   1   8  -5   90.19    5.80
   1   8  -5   94.29    4.80
   0  -8  -5    9.80    2.40
   0  -8  -5   13.70    1.60
   0   8   5   10.30    3.00
   0   8  -5   13.30    2.30
   0   8  -5    8.20    3.80
   0   8  -5    8.00    1.70
   0   8  -5   10.20    1.20
  -1  -8  -5   70.39    4.00
  -1   8  -5   59.69    3.90
  -1   8  -5   59.89    3.50
  -1   8  -5   62.99    4.20
  -1   8  -5   75.79    4.80
  -1   8  -5   68.19    9.80
  -2  -8  -5   77.19    3.80
  -2  -8  -5   70.49    4.10
  -2   8  -5   58.99    3.30
  -2   8  -5   55.69    6.40
  -2   8  -5   61.89    3.60
  -2   8  -5   60.39    4.20
  -2   8  -5   64.29    3.90
  -2   8  -5   63.99    4.00
  -3  -8  -5   15.50    1.40
  -3  -8  -5   16.70    1.80
  -3   8  -5   14.50    2.00
  -3   8  -5   12.30    1.70
  -3   8  -5   16.60    2.20
  -3   8  -5   14.30    2.30
  -4  -9   5  286.17   13.10
   4  -9  -5  279.87   13.10
   4   9  -5  237.88   11.20
  -4   9   5  245.08   11.90
   3  -9  -5  231.58   10.80
   3   9  -5  199.88    9.20
  -3   9   5  190.18    9.90
   2  -9  -5  366.26   16.90
  -2   9   5  304.07   15.00
   2   9  -5  308.47   14.20
   1  -9  -5   81.39    4.90
   1  -9  -5   84.29    4.30
  -1   9   5   56.99    4.90
   1   9  -5   63.49    3.30
   1   9  -5   65.69    3.90
   0  -9  -5   68.59    3.50
   0  -9  -5   64.49    4.00
   0   9  -5   69.89    3.60
   0   9  -5   64.69    4.20
   0   9  -5   72.99    4.40
   0   9  -5   69.49    6.20
  -1  -9  -5  360.46   16.80
  -1  -9  -5  365.16   16.70
  -1   9  -5  281.47   13.90
  -1   9  -5  343.37   14.30
  -1   9  -5  260.17   15.60
  10   0  -6  162.48    7.80
 -10   0   6  157.88    7.90
 -10   0   6  155.98    8.70
  -9   0   6  167.78    8.40
  -9   0   6  171.18    8.90
   9   0  -6  179.38    8.50
   8   0  -6   33.30    3.10
  -8   0   6   35.50    2.70
   8   0  -6   37.00    2.80
   7   0  -6   88.89    4.60
   7   0  -6   70.29    5.80
  -7   0   6   88.89    4.70
  -7   0   6   84.59    4.40
   7   0  -6   88.89    4.80
   6   0  -6  288.57   13.10
  -6   0   6  277.97   13.00
   6   0  -6  277.27   13.00
  -6   0   6  253.77   12.70
  -6   0   6  267.97   12.80
   6   0  -6  274.37   12.80
   5   0  -6  213.48   10.70
   5   0  -6  219.88   10.50
  -5   0   6  223.78   10.60
  -5   0   6  224.48   11.40
   5   0  -6  226.48   10.60
  -5   0   6  222.68   10.40
   5   0  -6  222.08   10.70
  -4   0   6  641.24   29.90
   4   0  -6  632.74   29.20
   4   0  -6  651.23   29.40
  -4   0   6  602.84   29.20
   4   0  -6  651.13   29.20
   4   0  -6  631.54   29.40
  -4   0   6  662.43   29.40
  -3   0   6 2892.11  128.29
   3   0  -6 2911.61  128.39
  -3   0   6 2553.64  128.79
   3   0  -6 2875.41  128.49
  -3   0   6 2908.21  128.39
   2   0  -6 1670.63   75.29
  -2   0   6 1559.64   75.19
  -2   0   6 1603.64   75.29
  -2   0   6 1744.53   75.79
   2   0  -6 1700.13   75.39
  -1   0   6 3456.05  153.48
   1   0  -6 3145.59  152.48
   1   0  -6 3472.55  152.58
  -1   0   6 3289.67  152.48
  -1   0   6 3446.56  152.58
   0   0   6 1105.49   51.79
   0   0   6 1152.08   52.49
   0   0  -6 1099.59   51.79
   0   0  -6 1176.08   51.79
   0   0   6 1133.19   51.99
   0   0  -6 1202.58   51.69
   0   0  -6 1082.29   51.99
  -1   0  -6   40.10    2.10
  -1   0  -6   37.70    4.20
   1   0   6   38.30    2.60
   1   0   6   37.40    3.90
  -1   0  -6   39.40    3.20
  -1   0  -6   42.50    2.40
  -1   0  -6   35.10    5.10
   1   0   6   38.40    3.10
  -2   0  -6   10.70    1.30
   2   0   6    6.30    3.50
  -2   0  -6    9.90    2.70
  -2   0  -6    8.60    1.90
   2   0   6    5.90    1.40
  -2   0  -6    6.60    2.70
  -2   0  -6    8.90    0.80
  -3   0  -6  121.29    7.40
  -3   0  -6  131.19    7.60
  -3   0  -6  127.69    6.40
  -3   0  -6  125.99    6.10
  -3   0  -6  125.29    6.70
  -4   0  -6   42.20    4.80
  -4   0  -6   45.60    8.00
  -4   0  -6   35.00    5.00
  -4   0  -6   42.90    2.30
  -4   0  -6   41.50    4.40
  -4   0  -6   40.60    3.60
   5   0   6    1.90    1.20
  -5   0  -6    1.50    0.60
  -5   0  -6    0.70    6.00
  -5   0  -6    1.60    1.80
  -5   0  -6   -2.10    2.40
   5   0   6    1.80    0.90
  -6   0  -6    1.40    1.50
   6   0   6    1.90    1.10
  -6   0  -6   -0.30    2.30
   6   0   6    1.10    0.80
  -7   0  -6  167.18    8.80
 -10  -1   6   21.60    2.50
  10  -1  -6   19.30    2.00
 -10  -1   6   21.00    2.50
 -10   1   6   30.40    3.10
  10   1  -6   31.00    2.80
 -10   1   6   32.40    2.50
  -9  -1   6  131.79    8.80
  -9  -1   6  156.78    7.80
   9  -1  -6  164.78    7.80
   9  -1  -6  164.98    7.60
  -9   1   6  194.78    9.80
   9   1  -6  193.98    9.80
  -8  -1   6  263.87   12.70
   8  -1  -6  263.17   12.80
   8  -1  -6  263.37   12.80
   8  -1  -6  274.87   12.50
   8   1  -6  293.67   13.50
   8   1  -6  268.77   13.60
  -8   1   6  281.27   13.30
   7  -1  -6 1756.82   77.69
  -7  -1   6 1735.73   77.69
   7  -1  -6 1593.04   77.69
   7  -1  -6 1722.23   77.49
  -7  -1   6 1710.23   77.39
  -7   1   6 1626.44   76.09
   7   1  -6 1766.42   76.19
  -7   1   6 1616.84   76.39
   6  -1  -6  143.79    7.00
  -6  -1   6  143.19    7.10
  -6  -1   6  139.59    6.90
  -6   1   6  154.38   12.80
  -6   1   6  149.29    7.20
   6   1  -6  154.48    7.60
  -6   1   6  151.18    7.60
   5  -1  -6  234.58   11.60
   5  -1  -6  247.58   11.40
   5  -1  -6  261.07   11.50
  -5  -1   6  270.27   12.20
  -5  -1   6  209.38   12.40
  -5   1   6  268.87   12.30
  -5   1   6  259.67   13.20
  -5   1   6  258.67   12.50
   5   1  -6  258.87   12.70
   5   1  -6  274.07   12.60
  -4  -1   6  138.89    6.70
  -4  -1   6  142.19    7.50
   4  -1  -6  139.09    6.80
   4  -1  -6  138.19    6.70
  -4  -1   6  135.69    6.90
   4  -1  -6  139.19    6.60
   4  -1  -6  132.59    6.90
   4   1  -6  131.09    6.30
   4   1  -6  125.89    6.60
   4   1  -6  131.39    6.70
  -4   1   6  138.89    6.60
  -4   1   6  134.39    7.10
  -4   1   6  132.09    6.40
   3  -1  -6  609.74   27.80
   3  -1  -6  529.75   79.19
  -3  -1   6  616.14   27.60
  -3  -1   6  578.64   27.80
  -3  -1   6  625.54   28.30
   3  -1  -6  585.34   27.60
   3  -1  -6  598.24   27.70
   3  -1  -6  621.74   27.70
   3   1  -6  567.04   29.10
  -3   1   6  593.74   27.00
   3   1  -6  597.74   26.50
   3   1  -6  576.84   27.10
   3   1  -6  603.24   26.70
   3   1  -6  586.24   26.80
  -3   1   6  521.95   26.50
  -3   1   6  589.14   26.70
   2  -1  -6  339.87   15.30
  -2  -1   6  322.17   15.10
   2  -1  -6  320.77   15.10
  -2  -1   6  331.67   15.80
   2  -1  -6  339.47   15.10
  -2  -1   6  305.87   15.40
   2  -1  -6  327.87   15.20
  -2   1   6  299.87   15.40
  -2   1   6  340.17   15.70
  -2   1   6  333.77   15.90
   2   1  -6  353.96   15.40
  -2   1   6  417.76   63.09
   2   1  -6  339.97   15.70
   1  -1  -6  475.55   47.60
   1  -1  -6  456.35   21.40
   1  -1  -6  459.75   21.30
  -1  -1   6  458.35   21.70
  -1  -1   6  421.56   21.20
   1  -1  -6  494.25   21.20
   1  -1  -6  469.65   21.10
  -1  -1   6  463.95   21.90
   1   1  -6  487.65   21.70
   1   1  -6  490.65   21.60
  -1   1   6  468.85   22.20
  -1   1   6  464.45   21.90
   1   1  -6  493.15   21.90
  -1   1   6  449.66   51.19
  -1   1   6  453.45   21.60
   1   1  -6  445.66   21.90
   0  -1  -6  437.96   20.20
   0  -1   6  448.36   21.00
   0  -1   6  432.06   20.20
   0  -1  -6  403.66   20.10
   0  -1  -6  460.35   20.10
   0  -1   6  430.46   20.40
   0  -1  -6  443.56   20.30
   0   1   6  404.66   21.00
   0   1  -6  427.66   20.10
   0   1   6  434.86   19.80
   0   1  -6  422.06   20.40
   0   1  -6  434.06   19.90
   0   1   6  381.16   19.60
   0   1  -6  433.86   19.50
   0   1  -6  437.86   19.80
   0   1  -6  444.46   19.60
  -1  -1  -6  463.65   21.50
  -1  -1  -6  463.55   21.30
   1  -1   6  444.26   22.50
   1  -1   6  464.65   21.60
  -1  -1  -6  477.55   21.40
  -1   1  -6  471.45   21.50
  -1   1  -6  447.56   21.80
   1   1   6  454.55   22.20
   1   1   6  454.45   21.50
  -1   1  -6  469.45   21.60
  -1   1  -6  444.26   21.50
  -1   1  -6  493.05   21.30
   1   1   6  453.15   21.30
  -2  -1  -6  180.58    8.60
   2  -1   6  177.18    9.30
  -2  -1  -6  190.48    8.80
   2  -1   6  174.38   11.20
   2  -1   6  181.68    8.80
  -2  -1  -6  181.78    9.00
  -2   1  -6  164.38   11.70
  -2   1  -6  185.78    8.50
   2   1   6  164.48   10.90
  -2   1  -6  177.48    9.40
  -2   1  -6  182.18    8.80
  -2   1  -6  177.28    9.10
   2   1   6  179.88    8.90
   2   1   6  186.48    8.60
  -2   1  -6  171.98    9.50
  -2   1  -6  180.38    8.30
   3  -1   6  206.98    9.70
  -3  -1  -6  203.48    9.80
  -3  -1  -6  189.98    9.50
  -3  -1  -6  205.38    9.80
   3   1   6  191.58    9.50
  -3   1  -6  188.78   12.60
  -3   1  -6  188.68   10.40
  -3   1  -6  197.18   10.40
   3   1   6  199.88    9.90
  -3   1  -6  217.38    9.60
  -3   1  -6  197.08   10.10
  -3   1  -6  196.78    9.30
  -3   1  -6  212.48    9.90
  -4  -1  -6   23.00    3.20
  -4  -1  -6   25.70    3.30
   4  -1   6   27.00    2.30
  -4  -1  -6   23.30    1.70
   4   1   6   38.60    3.30
  -4   1  -6   39.00    9.50
  -4   1  -6   40.60    4.10
  -4   1  -6   32.60    1.90
  -4   1  -6   29.80    4.30
  -4   1  -6   33.00    4.20
   4   1   6   37.60    2.70
  -5  -1  -6   89.89    6.80
  -5  -1  -6   97.59    5.80
  -5  -1  -6   91.59   11.00
   5   1   6   74.89    3.90
  -5   1  -6   77.09   11.00
  -5   1  -6   72.89    5.00
  -5   1  -6   68.99    3.60
  -5   1  -6   70.19    4.90
  -6  -1  -6   20.10    2.70
   6  -1   6   19.50    2.10
   6  -1   6   18.80    1.70
  -6   1  -6   23.90    2.70
   6   1   6   21.30    1.90
  -6   1  -6   22.40    3.10
   7  -1   6   19.50    1.70
   7  -1   6   18.60    1.50
  -7  -1  -6   18.10    2.20
  -7   1  -6   11.80    1.80
  -7   1  -6    8.80    2.90
   7   1   6   12.20    1.50
 -10  -2   6   52.29    3.10
  10  -2  -6   56.09    3.20
 -10   2   6   40.00    2.70
   9  -2  -6   44.50    2.60
   9  -2  -6   40.40    3.30
  -9  -2   6   42.70    2.70
   9  -2  -6   40.80    3.60
  -9   2   6   42.50    3.80
   9   2  -6   58.59    3.90
   8  -2  -6  288.67   13.10
   8  -2  -6  271.67   13.30
  -8  -2   6  283.07   13.00
   8  -2  -6  284.97   13.30
  -8  -2   6  270.57   13.30
  -8   2   6  264.27   12.80
  -8   2   6  270.77   13.50
   8   2  -6  289.07   13.20
   7  -2  -6  152.48    7.20
  -7  -2   6  146.99    7.60
  -7  -2   6  141.29    7.10
   7  -2  -6  142.39    7.60
  -7   2   6   99.49    5.60
  -7   2   6  104.59    5.10
   7   2  -6  112.89    5.80
   7   2  -6  112.19    6.00
  -7   2   6   92.19    8.10
   6  -2  -6  581.44   26.60
  -6  -2   6  569.64   26.70
   6  -2  -6  560.74   26.70
  -6  -2   6  594.54   26.50
  -6   2   6  531.85   26.20
   6   2  -6  593.34   26.30
  -6   2   6  568.84   27.50
   6   2  -6  596.94   26.30
  -6   2   6  548.25   26.00
  -5  -2   6  399.16   18.50
   5  -2  -6  409.76   18.70
   5  -2  -6  406.76   18.60
  -5  -2   6  402.36   18.70
  -5  -2   6  380.86   21.70
  -5   2   6  403.56   21.00
   5   2  -6  470.75   20.60
  -5   2   6  449.76   20.90
   4  -2  -6  723.43   34.20
  -4  -2   6  762.62   34.20
   4  -2  -6  749.13   34.20
  -4  -2   6  743.63   34.30
   4  -2  -6  746.83   34.30
  -4  -2   6  752.22   35.00
   4   2  -6  788.52   36.40
  -4   2   6  804.22   36.40
   4   2  -6  821.82   36.80
   4   2  -6  734.73   39.30
   4   2  -6  796.42   36.60
  -4   2   6  821.32   37.00
  -3  -2   6  450.15   21.20
  -3  -2   6  439.16   21.40
   3  -2  -6  469.55   21.30
   3  -2  -6  466.15   21.30
  -3  -2   6  483.25   22.10
   3  -2  -6  447.66   21.20
   3  -2  -6  476.15   21.40
   3   2  -6  444.46   19.30
   3   2  -6  432.06   19.70
   3   2  -6  430.06   19.90
  -3   2   6  435.36   19.50
  -3   2   6  406.76   19.30
  -3   2   6  412.06   19.70
   3   2  -6  383.06   22.20
   2  -2  -6  475.75   22.50
   2  -2  -6  519.65   22.70
   2  -2  -6  466.55   22.60
  -2  -2   6  497.95   22.70
  -2  -2   6  479.55   22.60
   2  -2  -6  505.15   22.70
  -2  -2   6  491.05   23.30
   2   2  -6  522.95   24.10
   2   2  -6  522.65   23.60
   2   2  -6  500.15   26.30
   2   2  -6  515.95   24.00
  -2   2   6  505.45   23.80
   2   2  -6  506.55   24.00
  -2   2   6  543.25   23.70
  -2   2   6  511.65   24.00
   1  -2  -6  628.34   28.50
  -1  -2   6  603.84   28.40
   1  -2  -6  647.74   28.50
   1  -2  -6  606.24   28.30
   1  -2  -6  599.94   28.40
  -1  -2   6  571.14   28.80
  -1  -2   6  674.83   29.30
   1   2  -6  553.24   25.70
  -1   2   6  544.25   25.50
  -1   2   6  561.24   25.90
   1   2  -6  561.24   26.00
   1   2  -6  560.64   25.80
   1   2  -6  549.05   28.20
  -1   2   6  571.64   25.70
   1   2  -6  567.34   25.80
   1   2  -6  524.05   26.40
   1   2  -6  573.64   25.40
   0  -2   6 1287.47   61.29
   0  -2  -6 1370.06   61.09
   0  -2  -6 1382.66   61.29
   0  -2   6 1336.47   61.19
   0  -2   6 1362.26   62.09
   0  -2  -6 1320.47   61.09
   0  -2  -6 1337.37   61.19
   0   2  -6 1359.46   62.09
   0   2   6 1364.56   61.59
   0   2   6 1343.87   61.89
   0   2  -6 1312.77   62.29
   0   2  -6 1411.36   62.09
   0   2  -6 1384.56   61.79
   0   2  -6 1350.16   61.99
   0   2   6 1328.07   62.09
   0   2  -6 1341.67   64.29
  -1  -2  -6  160.58    7.50
  -1  -2  -6  165.68    7.90
  -1  -2  -6  161.58    7.70
   1  -2   6  157.88    9.40
   1  -2   6  148.49    8.10
  -1  -2  -6  151.08    7.60
   1   2   6  115.99    6.10
  -1   2  -6  125.39    6.70
   1   2   6  118.19    6.50
  -1   2  -6  128.59    5.90
  -1   2  -6  123.59    7.10
  -1   2  -6  138.49    6.50
  -1   2  -6  122.19    9.30
  -1   2  -6  125.49    7.30
   1   2   6  122.59    7.50
  -1   2  -6  136.19    6.80
  -2  -2  -6  199.08    9.20
  -2  -2  -6  174.28    9.00
  -2  -2  -6  189.88    9.10
   2  -2   6  179.28    9.10
  -2  -2  -6  190.18    9.00
   2  -2   6  190.98    9.50
  -2   2  -6  185.78    9.30
  -2   2  -6  196.48    9.10
  -2   2  -6  175.78   11.80
   2   2   6  152.98    8.70
  -2   2  -6  180.98    8.50
  -2   2  -6  186.48    9.70
  -2   2  -6  188.68    9.80
   2   2   6  185.98    9.10
   2   2   6  198.88   12.20
  -3  -2  -6  235.98   11.30
   3  -2   6  240.58   11.30
  -3  -2  -6  227.88   11.20
  -3  -2  -6  236.08   11.30
  -3   2  -6  196.28   10.20
  -3   2  -6  190.88    9.70
  -3   2  -6  189.68   10.10
   3   2   6  181.28    9.10
   3   2   6  186.88    9.50
  -3   2  -6  195.78    9.70
  -3   2  -6  202.98   12.60
  -3   2  -6  182.58    8.90
  -4  -2  -6  273.57   12.70
  -4  -2  -6  252.87   12.60
   4  -2   6  264.97   12.70
  -4  -2  -6  274.57   12.80
  -4   2  -6  308.07   14.80
   4   2   6  253.07   13.90
  -4   2  -6  305.77   17.50
   4   2   6  317.87   14.40
  -4   2  -6  299.17   14.40
  -4   2  -6  281.77   13.70
  -4   2  -6  322.07   15.00
  -5  -2  -6    2.90    1.90
   5  -2   6    2.90    1.40
  -5  -2  -6    2.90    2.40
  -5  -2  -6    5.80    6.70
   5  -2   6    3.40    1.00
   5   2   6   11.90    1.90
  -5   2  -6    6.50    1.80
  -5   2  -6    9.60    2.60
  -5   2  -6   12.70    6.50
   5   2   6    9.20    1.50
  -5   2  -6   10.00    2.10
  -6  -2  -6   48.80    3.60
   6  -2   6   45.60    2.70
   6  -2   6   49.20    3.20
   6   2   6   62.59    3.60
  -6   2  -6   59.49    4.10
  -6   2  -6   64.79    4.20
 -10  -3   6  109.69    5.60
  10  -3  -6  122.79    5.80
 -10   3   6  103.99    5.60
 -10   3   6  106.99    5.40
   9  -3  -6  199.08   10.00
   9  -3  -6  213.08   10.00
   9  -3  -6  214.38    9.80
  -9  -3   6  207.98    9.90
  -9   3   6  213.28   10.20
  -9   3   6  207.48   10.50
  -8  -3   6  409.36   20.00
   8  -3  -6  418.26   20.10
   8  -3  -6  400.16   19.90
  -8  -3   6  495.35   19.80
   8  -3  -6  426.96   20.00
  -8   3   6  413.56   19.40
  -8   3   6  396.96   19.10
  -7  -3   6  232.28   11.00
   7  -3  -6  225.78   11.00
  -7  -3   6  241.78   11.20
   7  -3  -6  231.88   11.30
  -7   3   6  195.48   10.20
   7   3  -6  197.88    9.80
  -7   3   6  199.88   11.10
  -7   3   6  201.78    9.40
  -6  -3   6  205.18    9.90
   6  -3  -6  198.38    9.90
   6  -3  -6  205.28    9.70
  -6  -3   6  202.58    9.70
  -6   3   6  206.98   10.90
  -6   3   6  214.78   11.90
  -6   3   6  215.98   10.00
   6   3  -6  213.18   10.50
   5  -3  -6  212.58   10.00
  -5  -3   6  211.48   10.00
   5  -3  -6  208.48   10.20
  -5  -3   6  205.98   10.10
   5   3  -6  206.48   10.70
  -5   3   6  210.58   12.00
   5   3  -6  229.08   10.50
  -4  -3   6  202.38    9.80
  -4  -3   6  202.88    9.40
   4  -3  -6  197.18    9.40
  -4  -3   6  189.58   10.60
   4  -3  -6  196.38    9.60
   4  -3  -6  187.88    9.30
   4   3  -6  231.28   10.90
  -4   3   6  186.88    9.90
   4   3  -6  194.58   14.30
   4   3  -6  225.28   10.10
   4   3  -6  198.78   10.20
   3  -3  -6   55.59    3.40
  -3  -3   6   56.29    4.90
   3  -3  -6   50.49    3.00
  -3  -3   6   50.99    3.40
  -3  -3   6   55.19    3.10
  -3   3   6   54.69    3.40
   3   3  -6   56.79    7.70
   3   3  -6   54.39    3.50
   3   3  -6   51.99    3.50
   3   3  -6   53.99    4.00
   2  -3  -6   53.19    3.30
  -2  -3   6   49.50    3.10
   2  -3  -6   53.19    3.00
  -2  -3   6   51.99    3.60
  -2  -3   6   51.59    4.20
   2  -3  -6   56.09    3.10
  -2   3   6   53.19    3.40
   2   3  -6   59.29    4.00
   2   3  -6   58.89    3.70
   2   3  -6   52.39    5.70
   2   3  -6   54.19    3.50
   2   3  -6   55.69    6.80
   2   3  -6   56.19    3.50
   2   3  -6   57.49    2.80
   1  -3  -6  938.81   48.50
   1  -3  -6 1139.29   48.70
  -1  -3   6 1089.79   49.50
  -1  -3   6 1050.39   48.50
  -1  -3   6 1046.90   48.70
   1  -3  -6 1111.39   49.00
   1  -3  -6 1072.69   48.70
   1   3  -6 1134.79   50.89
  -1   3   6 1081.19   50.49
   1   3  -6 1094.39   51.19
   1   3  -6 1140.99   50.79
   1   3  -6 1139.19   50.69
   1   3  -6 1053.09   50.49
   1   3  -6 1101.39   50.19
   1   3  -6 1098.09   53.29
   0  -3  -6  141.29    7.00
   0  -3   6  145.99    7.40
   0  -3  -6  147.29    7.10
   0  -3  -6  152.18    7.20
   0  -3  -6  145.59    7.40
   0  -3   6  144.19    7.70
   0  -3   6  149.39    8.70
   0   3  -6  149.39    8.10
   0   3  -6  150.88    7.80
   0   3  -6  141.79    8.70
   0   3  -6  158.68    7.70
   0   3  -6  150.68    8.10
   0   3   6  147.99    7.60
   0   3  -6  162.38   11.40
   0   3  -6  147.69    7.70
   0   3  -6  157.58    7.00
  -1  -3  -6  156.58    7.40
   1  -3   6  142.29    8.00
  -1  -3  -6  153.58    7.60
  -1  -3  -6  159.38    7.50
  -1  -3  -6  145.39    7.30
  -1   3  -6  149.79    8.60
  -1   3  -6  154.98    7.90
  -1   3  -6  156.88    7.90
   1   3   6  150.58    7.80
  -1   3  -6  153.18   10.70
  -1   3  -6  161.18    8.40
  -1   3  -6  150.58    9.40
  -1   3  -6  160.58    7.20
  -1   3  -6  154.68    7.90
   2  -3   6  123.49    6.50
  -2  -3  -6  133.49    6.60
  -2  -3  -6  126.79    6.50
   2  -3   6  124.59    7.10
  -2  -3  -6  122.39    6.30
   2   3   6  124.59    6.10
  -2   3  -6  126.09    6.70
  -2   3  -6  113.49    7.20
  -2   3  -6  122.39    7.30
  -2   3  -6  128.49    6.70
  -2   3  -6  123.19    7.10
  -2   3  -6  120.49    5.70
  -2   3  -6  128.49    9.60
   2   3   6  121.99    6.50
   3  -3   6  490.55   24.80
  -3  -3  -6  588.84   24.50
  -3  -3  -6  524.45   24.70
   3  -3   6  528.05   24.60
  -3  -3  -6  525.75   24.70
  -3   3  -6  462.05   23.30
  -3   3  -6  493.45   23.10
  -3   3  -6  507.25   23.30
   3   3   6  492.75   23.00
  -3   3  -6  492.55   23.70
  -3   3  -6  487.65   22.40
  -3   3  -6  485.65   26.10
  -3   3  -6  514.15   23.50
   4  -3   6  145.89    7.90
  -4  -3  -6  152.58    7.50
   4  -3   6  153.88    7.40
  -4  -3  -6  145.89    7.80
  -4   3  -6  158.88    8.70
   4   3   6  153.28    8.00
  -4   3  -6  162.98   11.60
  -4   3  -6  159.78    8.60
  -4   3  -6  154.08    8.10
   5  -3   6  117.59    5.70
  -5  -3  -6  110.89    6.00
   5  -3   6  108.79    6.10
  -5   3  -6   84.19    5.20
   5   3   6   85.49    4.80
  -5   3  -6   91.59    5.50
  -5   3  -6   87.19    5.20
   6  -3   6    7.30    1.70
   6  -3   6    5.40    0.90
  -6  -3  -6    7.50    1.80
  -6   3  -6    9.10    1.70
  -6   3  -6    7.80    1.50
  -6   3  -6    3.60    3.20
   6   3   6    7.40    1.20
   9  -4  -6  111.49    5.70
  -9  -4   6  108.79    5.50
   9  -4  -6  111.89    5.60
   9  -4  -6  111.49    5.40
  -9   4   6  104.59    5.70
  -9   4   6  104.69    5.50
   8  -4  -6  324.87   15.40
   8  -4  -6  318.07   15.40
  -8  -4   6  312.47   15.30
  -8  -4   6  350.16   15.30
   8  -4  -6  331.57   15.20
  -8   4   6  280.17   12.70
  -8   4   6  282.67   13.00
  -8   4   6  223.08   15.00
  -7  -4   6   77.99    4.10
   7  -4  -6   77.79    4.20
   7  -4  -6   78.09    4.50
  -7  -4   6   83.69    4.40
   7   4  -6   57.49    4.20
  -7   4   6   55.29    4.00
  -7   4   6   51.89    5.10
  -7   4   6   51.79    3.60
  -6  -4   6  434.96   21.80
   6  -4  -6  505.75   22.00
  -6  -4   6  460.05   22.40
  -6   4   6  426.26   20.50
  -6   4   6  411.16   19.20
  -5  -4   6  563.24   26.30
   5  -4  -6  568.04   26.20
  -5  -4   6  569.14   26.10
   5  -4  -6  572.14   26.40
   5   4  -6  546.65   26.60
   5   4  -6  565.24   26.30
  -5   4   6  550.94   27.40
  -5   4   6  603.04   26.70
   4  -4  -6  413.06   18.80
  -4  -4   6  398.76   18.70
   4  -4  -6  391.56   18.80
   4  -4  -6  417.36   19.00
  -4  -4   6  402.86   18.90
  -4   4   6  439.56   21.40
   4   4  -6  447.36   21.30
   4   4  -6  470.75   21.00
  -4   4   6  421.16   22.20
   4   4  -6  447.96   24.90
   4   4  -6  477.35   21.50
  -3  -4   6  515.95   23.00
   3  -4  -6  491.65   22.90
   3  -4  -6  507.75   23.00
  -3  -4   6  473.55   23.00
   3  -4  -6  484.45   22.80
  -3   4   6  589.74   28.00
   3   4  -6  610.54   31.20
   3   4  -6  622.94   28.00
   3   4  -6  589.24   27.90
   3   4  -6  566.04   28.20
   3   4  -6  602.54   27.60
  -2  -4   6  523.45   25.50
   2  -4  -6  522.65   25.60
   2  -4  -6  561.54   25.50
  -2  -4   6  595.54   27.40
  -2  -4   6  529.05   25.40
   2  -4  -6  584.94   25.80
  -2   4   6  613.54   29.00
   2   4  -6  625.44   29.10
   2   4  -6  656.83   32.60
   2   4  -6  659.63   29.50
   2   4  -6  639.74   29.50
   2   4  -6  621.84   29.30
   2   4  -6  603.24   29.80
  -1  -4   6  337.07   16.10
  -1  -4   6  344.37   16.40
   1  -4  -6  361.66   16.20
   1  -4  -6  332.07   16.10
   1  -4  -6  350.96   16.30
   1   4  -6  425.36   19.60
   1   4  -6  422.16   19.70
   1   4  -6  433.66   19.90
   1   4  -6  418.86   22.90
   1   4  -6  397.36   19.40
  -1   4   6  399.86   19.30
   0  -4  -6  663.43   31.00
   0  -4  -6  710.63   31.30
   0  -4  -6  694.63   31.20
   0  -4   6  636.24   31.10
   0   4  -6  629.24   30.70
   0   4  -6  657.53   30.80
   0   4  -6  677.53   31.30
   0   4  -6  674.43   30.90
   0   4  -6  656.93   30.60
   0   4   6  646.44   30.30
   0   4  -6  661.53   30.40
   0   4  -6  671.53   33.90
  -1  -4  -6  217.38   10.20
  -1  -4  -6  213.58   10.50
  -1  -4  -6  214.08   10.40
  -1   4  -6  172.58    9.20
  -1   4  -6  177.48    9.00
  -1   4  -6  180.98    9.30
  -1   4  -6  172.68    9.70
  -1   4  -6  175.88   12.20
  -1   4  -6  178.48    8.90
   1   4   6  170.08    8.70
  -1   4  -6  175.58    8.80
  -2  -4  -6  183.98    8.70
   2  -4   6  176.98    8.70
  -2  -4  -6  176.78    8.70
  -2  -4  -6  168.28    8.40
   2  -4   6  164.18    9.30
  -2   4  -6  171.98    9.10
   2   4   6  150.18    8.40
  -2   4  -6  170.78    8.70
  -2   4  -6  179.68    8.70
  -2   4  -6  174.88   12.00
  -2   4  -6  159.18    9.40
  -2   4  -6  181.18    9.30
  -2   4  -6  168.48    9.00
  -3  -4  -6   71.99    4.20
  -3  -4  -6   72.49    3.90
  -3  -4  -6   70.19    4.40
   3  -4   6   65.09    5.20
   3  -4   6   69.29    4.20
  -3   4  -6   48.30    4.50
   3   4   6   52.29    3.50
  -3   4  -6   47.50    4.40
  -3   4  -6   54.69    4.10
  -3   4  -6   53.59    3.70
  -3   4  -6   54.99    7.10
  -3   4  -6   50.19    6.00
   4  -4   6  542.65   24.20
  -4  -4  -6  527.75   24.30
   4  -4   6  519.15   24.90
  -4  -4  -6  504.05   24.50
  -4   4  -6  507.75   23.50
  -4   4  -6  486.05   23.70
   4   4   6  499.25   22.90
  -4   4  -6  480.25   23.10
  -4   4  -6  494.75   26.00
  -5  -4  -6   55.89    3.30
   5  -4   6   57.89    4.70
   5   4   6   60.19    3.70
  -5   4  -6   66.29    3.90
  -5   4  -6   64.09    4.30
  -5   4  -6   66.19    4.10
   6  -4   6   80.99    4.20
  -6   4  -6   79.19    4.60
  -6   4  -6   82.69    5.00
  -6   4  -6   74.29    4.60
   9  -5  -6   50.19    3.00
   9  -5  -6   49.40    2.60
  -9  -5   6   49.60    2.80
  -9   5   6   37.10    2.90
  -9   5   6   35.20    2.50
   8  -5  -6   37.30    2.60
  -8  -5   6   39.20    2.50
  -8  -5   6   39.20    2.20
   8  -5  -6   41.60    2.30
   8  -5  -6   39.90    2.60
  -8   5   6   28.70    2.80
  -8   5   6   28.70    2.40
  -8   5   6   20.70    3.70
  -7  -5   6   67.99    3.70
   7  -5  -6   64.49    3.80
   7  -5  -6   61.89    3.50
  -7  -5   6   63.69    3.40
  -7   5   6   72.49    5.50
  -7   5   6   75.99    4.80
   7   5  -6   70.99    4.80
  -7   5   6   76.29    4.50
  -6  -5   6   31.40    2.50
   6  -5  -6   33.40    2.20
   6  -5  -6   30.70    2.60
  -6  -5   6   31.70    2.10
  -6   5   6   35.60    4.10
  -6   5   6   32.30    1.90
   6   5  -6   32.00    3.00
  -6   5   6   33.30    3.20
  -6   5   6   30.90    3.50
  -5  -5   6  211.08   10.10
   5  -5  -6  210.38   10.00
   5  -5  -6  213.08   10.40
  -5  -5   6  201.88   10.30
  -5   5   6  240.38   11.90
  -5   5   6  257.57   11.80
   5   5  -6  205.18   11.90
  -5   5   6  225.48   10.70
   5   5  -6  226.48   11.20
  -4  -5   6  170.68    8.50
   4  -5  -6  173.88    8.30
   4  -5  -6  164.28    8.50
  -4  -5   6  172.38    8.20
  -4   5   6  181.88    9.70
  -4   5   6  183.38   10.50
   4   5  -6  217.98   14.60
   4   5  -6  184.68    9.20
   4   5  -6  187.98    9.70
  -4   5   6  188.08   10.00
   4   5  -6  167.48    9.80
   3  -5  -6  390.56   18.20
  -3  -5   6  366.66   18.10
  -3  -5   6  391.96   18.30
   3  -5  -6  395.76   18.30
   3  -5  -6  401.96   18.20
   3   5  -6  398.76   20.00
   3   5  -6  407.26   19.70
  -3   5   6  420.86   19.90
   3   5  -6  434.16   19.70
   3   5  -6  408.16   23.20
  -3   5   6  400.06   20.30
   3   5  -6  399.16   19.20
   2  -5  -6  109.19    5.90
   2  -5  -6  114.89    5.70
  -2  -5   6  106.99    5.80
   2  -5  -6  116.49    5.90
  -2  -5   6  113.89    6.50
  -2   5   6  125.19    8.30
   2   5  -6  118.49    7.70
   2   5  -6  121.89    6.30
   2   5  -6  120.09    6.40
   2   5  -6  120.29   10.50
   2   5  -6  119.49    6.80
   2   5  -6  122.89    6.80
   1  -5  -6  143.59    7.10
   1  -5  -6  143.49    7.10
  -1  -5   6  128.79    7.10
   1  -5  -6  139.29    6.90
   1   5  -6  142.99    8.00
   1   5  -6  164.18    8.90
  -1   5   6  138.39    9.30
   1   5  -6  149.69    7.50
   1   5  -6  150.78    7.80
   1   5  -6  150.78   11.40
   1   5  -6  152.88    8.10
   0  -5   6   34.40    3.40
   0  -5  -6   42.20    2.50
   0  -5  -6   35.60    2.80
   0  -5  -6   34.60    2.90
   0   5  -6   34.40    3.00
   0   5  -6   41.20    6.50
   0   5  -6   41.30    3.10
   0   5  -6   40.20    3.70
   0   5   6   33.50    6.10
   0   5  -6   36.30    4.50
   0   5  -6   36.10    3.70
   0   5  -6   41.90    3.50
  -1  -5  -6  107.79    5.80
   1  -5   6  103.69    6.10
  -1  -5  -6  109.19    5.80
  -1   5  -6  122.89    7.00
  -1   5  -6  127.39    7.00
  -1   5  -6  127.19    6.40
  -1   5  -6  124.89    7.10
  -1   5  -6  126.49    6.60
   1   5   6  104.59    6.40
  -1   5  -6  126.79   10.20
  -1   5  -6  118.29    7.60
   1   5   6  122.69    9.20
  -2  -5  -6   83.69    4.80
  -2  -5  -6   81.09    4.30
  -2  -5  -6   79.19    4.60
  -2   5  -6   82.59    5.20
  -2   5  -6   83.09    8.20
  -2   5  -6   85.49    4.90
  -2   5  -6   87.99    5.90
  -2   5  -6   83.49    4.90
  -2   5  -6   83.19    6.20
  -2   5  -6   82.19    5.40
   2   5   6   77.59    4.90
  -3  -5  -6  151.08    7.60
  -3  -5  -6  145.09    7.80
  -3  -5  -6  157.48    7.40
  -3   5  -6  129.09   10.10
  -3   5  -6  128.59    6.70
  -3   5  -6  126.19    7.00
  -3   5  -6  127.19    7.10
   3   5   6  122.99    6.60
  -3   5  -6  128.39    7.40
  -4  -5  -6  214.98   10.40
  -4   5  -6  187.48   12.50
  -4   5  -6  192.88    9.70
  -4   5  -6  197.18    9.40
  -4   5  -6  183.38   10.00
   5  -5   6    3.10    1.00
  -5  -5  -6    3.80    1.00
  -5   5  -6    7.60    1.80
  -5   5  -6    5.90    1.30
  -5   5  -6    7.00    1.30
  -8  -6   6  162.88    7.70
  -8  -6   6  169.78    7.90
   8  -6  -6  174.08    7.90
   8  -6  -6  170.18    7.90
   8  -6  -6  143.69    7.70
  -8   6   6  168.68    7.90
  -8   6   6  133.29   10.10
  -8   6   6  174.08    8.20
  -7  -6   6  255.67   11.90
  -7  -6   6  261.87   12.00
   7  -6  -6  247.98   11.90
   7  -6  -6  254.37   12.10
  -7   6   6  247.38   12.30
  -7   6   6  257.77   12.90
  -7   6   6  260.87   12.50
   6  -6  -6  265.77   12.00
   6  -6  -6  243.18   12.10
  -6  -6   6  252.07   12.10
  -6  -6   6  252.67   11.90
  -6   6   6  252.77   13.20
   6   6  -6  281.57   13.00
  -6   6   6  243.18   12.50
  -6   6   6  252.77   12.80
   5  -6  -6  215.58   10.70
  -5  -6   6  225.18   10.90
  -5  -6   6  243.88   10.70
   5  -6  -6  217.98   10.90
  -5   6   6  190.98    9.80
  -5   6   6  176.48    8.60
  -5   6   6  196.38    9.90
   5   6  -6  183.58    9.20
  -5   6   6  187.38   10.20
   4  -6  -6  363.96   17.60
   4  -6  -6  374.86   17.40
  -4  -6   6  363.36   17.60
  -4  -6   6  393.06   17.40
   4   6  -6  403.26   19.00
   4   6  -6  401.76   18.60
   4   6  -6  410.76   22.60
  -4   6   6  392.56   18.10
   4   6  -6  369.66   19.30
  -4   6   6  393.46   19.20
  -4   6   6  400.96   19.80
   3  -6  -6  416.06   19.80
   3  -6  -6  422.46   19.60
  -3  -6   6  444.56   19.60
  -3  -6   6  402.46   20.00
   3   6  -6  471.85   23.20
   3   6  -6  474.75   22.60
   3   6  -6  481.35   26.70
   3   6  -6  511.15   23.20
  -3   6   6  494.95   23.80
   3   6  -6  480.95   23.40
   2  -6  -6  187.58    9.90
  -2  -6   6  191.98    9.60
   2  -6  -6  185.08    9.60
   2   6  -6  175.78   18.70
   2   6  -6  171.08    9.80
   2   6  -6  185.58   10.20
   2   6  -6  216.68   10.80
   2   6  -6  210.98   10.20
   1  -6  -6  288.37   13.20
   1  -6  -6  254.77   13.40
   1  -6  -6  278.77   13.50
   1   6  -6  304.67   13.40
   1   6  -6  263.37   13.50
   1   6  -6  259.17   13.50
  -1   6   6  250.07   15.20
   1   6  -6  264.17   13.00
   0  -6  -6  216.78   10.60
   0  -6  -6  223.08   10.40
   0  -6  -6  208.98   10.70
   0   6  -6  215.98   11.30
   0   6  -6  224.48   10.70
   0   6  -6  209.88   11.50
   0   6  -6  218.38   10.90
   0   6  -6  225.38   11.20
   0   6  -6  200.18   11.50
   0   6   6  254.17   12.40
   0   6  -6  219.98   14.60
  -1  -6  -6   77.49    4.60
  -1  -6  -6   75.89    4.80
  -1  -6  -6   85.69    4.30
  -1   6  -6   57.69    4.10
  -1   6  -6   60.19    7.40
  -1   6  -6   62.09    4.20
  -1   6  -6   53.99    4.70
  -1   6  -6   57.39    3.60
   1   6   6   62.19    7.10
  -1   6  -6   58.59    3.80
  -1   6  -6   47.70    6.80
  -2  -6  -6  327.37   15.40
  -2  -6  -6  329.17   15.60
  -2  -6  -6  313.67   15.10
  -2   6  -6  332.37   16.70
  -2   6  -6  328.47   16.30
  -2   6  -6  343.27   15.80
  -2   6  -6  342.27   16.40
  -2   6  -6  339.37   16.10
  -2   6  -6  340.87   19.40
  -3  -6  -6  255.57   11.70
   3  -6   6  242.08   11.70
  -3  -6  -6  237.18   11.70
  -3   6  -6  222.28   10.40
  -3   6  -6  209.88   10.60
  -3   6  -6  210.88   14.00
  -3   6  -6  206.28   10.90
  -4  -6  -6  327.57   15.40
   4  -6   6  332.77   15.40
  -4   6  -6  305.97   14.30
  -4   6  -6  293.97   14.60
  -4   6  -6  305.27   14.50
  -5  -6  -6   79.79    4.00
   5  -6   6   77.39    4.20
  -5   6  -6   72.29    3.80
  -5   6  -6   71.09    3.90
  -7  -7   6   59.99    2.90
   7  -7  -6   53.99    3.50
   7  -7  -6   58.89    3.00
  -7  -7   6   54.39    3.20
  -7   7   6   54.09    4.00
  -7   7   6   56.89    3.90
  -6  -7   6    4.30    0.80
  -6  -7   6    1.50    1.20
   6  -7  -6    2.30    0.80
   6  -7  -6    3.30    1.40
  -6   7   6    0.10    2.20
   6   7  -6    0.00    1.80
  -6   7   6    2.30    1.50
  -5  -7   6  428.86   19.40
   5  -7  -6  444.36   19.70
  -5  -7   6  400.46   19.50
   5  -7  -6  401.96   19.50
  -5   7   6  420.46   20.10
  -5   7   6  405.96   19.70
   5   7  -6  413.06   19.20
   4  -7  -6   41.20    3.10
   4  -7  -6   42.10    2.60
  -4  -7   6   41.90    2.60
  -4   7   6   27.30    5.50
  -4   7   6   45.50    4.00
   4   7  -6   47.20    3.00
  -3  -7   6  283.07   12.20
   3  -7  -6  235.48   12.30
   3  -7  -6  254.67   12.20
   3   7  -6  235.18   11.90
   3   7  -6  231.48   11.40
   3   7  -6  233.38   15.30
  -3   7   6  248.38   12.50
  -2  -7   6   78.99    4.60
   2  -7  -6   75.69    4.20
   2  -7  -6   77.39    4.50
   2   7  -6   77.59    4.40
  -2   7   6   80.39    5.80
   2   7  -6   80.29    8.50
   2   7  -6   78.89    5.00
   2   7  -6   79.39    5.60
   1  -7  -6    9.50    1.50
   1  -7  -6    7.90    1.20
   1  -7  -6   14.40    3.80
   1   7  -6   13.20    2.60
   1   7  -6   10.90    1.40
   1   7  -6   10.10    1.80
   1   7  -6   10.70    1.90
  -1   7   6   11.20    2.50
   1   7  -6   12.80    4.60
   0  -7  -6  156.88    7.70
   0  -7  -6  153.78    8.40
   0  -7  -6  161.38    7.90
   0   7  -6  164.88    9.30
   0   7  -6  188.38   12.60
   0   7  -6  175.08    8.50
   0   7  -6  176.88    9.10
   0   7   6  169.18    9.90
   0   7  -6  175.28    8.80
  -1  -7  -6  220.98   10.50
  -1  -7  -6  219.78   10.70
  -1   7  -6  233.08   11.20
  -1   7  -6  225.68   11.40
  -1   7  -6  224.58   10.90
  -1   7  -6  232.48   11.80
  -2  -7  -6  157.88    8.10
  -2  -7  -6  169.38    7.90
  -2   7  -6  172.88    8.20
  -2   7  -6  172.08    8.50
  -2   7  -6  167.18    7.90
  -2   7  -6  171.78    8.90
  -2   7  -6  139.19   10.80
  -3  -7  -6   21.70    1.70
  -3  -7  -6   22.20    1.90
  -3   7  -6   27.70    2.20
  -3   7  -6   18.30    4.70
  -3   7  -6   27.90    2.40
  -3   7  -6   26.10    2.80
  -4  -7  -6  118.29    5.80
  -4   7  -6  102.09    5.00
  -4   7  -6  100.09    5.20
  -4   7  -6   96.99    5.40
  -6  -8   6  223.08   10.50
   6  -8  -6  230.48   10.50
  -6   8   6  145.29    7.50
   5  -8  -6   25.70    1.80
  -5  -8   6   27.40    1.80
   5  -8  -6   23.60    2.80
   5   8  -6   19.30    1.90
  -5   8   6   16.90    2.60
   4  -8  -6  292.87   13.50
   4  -8  -6  284.77   13.80
  -4  -8   6  289.37   13.40
   4   8  -6  241.58   11.70
   4   8  -6  250.17   15.10
  -4   8   6  253.07   12.50
   3  -8  -6  189.88    9.70
   3  -8  -6  206.88    9.50
  -3  -8   6  203.88    9.50
   3   8  -6  215.18   13.40
   3   8  -6  223.28   10.30
  -3   8   6  211.18   11.20
   2  -8  -6   73.29    3.80
   2  -8  -6   68.09    4.10
   2   8  -6   86.39    5.40
   2   8  -6  104.49    5.00
  -2   8   6  102.69    6.20
   2   8  -6   96.49    6.00
   2   8  -6   92.89    8.50
   1  -8  -6   12.60    1.50
   1  -8  -6   10.40    1.20
   1   8  -6   17.80    5.00
  -1   8   6   24.50    3.80
   1   8  -6   26.30    2.60
   1   8  -6   25.00    1.90
   1   8  -6   23.90    3.20
   0  -8  -6  190.78    9.00
   0  -8  -6  187.48    9.20
   0   8   6  150.58    9.80
   0   8  -6  174.88    8.00
   0   8  -6  167.68    8.40
   0   8  -6  169.28    8.20
   0   8  -6  172.78    8.80
  -1  -8  -6   60.49    3.60
  -1  -8  -6   68.19    3.40
  -1   8  -6   71.79    4.00
  -1   8  -6   73.09    4.20
  -1   8  -6   69.59    4.50
  -1   8  -6   68.19    3.70
  -2  -8  -6  332.77   15.50
  -2   8  -6  301.87   15.00
  -2   8  -6  318.87   14.90
  -2   8  -6  300.27   15.20
  -2   8  -6  351.66   14.80
   3  -9  -6  126.29    6.10
  -3   9   6  112.29    6.50
   3   9  -6  119.19    5.60
   2  -9  -6   30.70    4.00
   2  -9  -6   39.40    2.60
   2   9  -6   19.80    4.40
  -2   9   6   26.20    3.20
   1  -9  -6   16.30    1.90
   1   9  -6   16.70    1.50
   0  -9  -6   49.40    3.30
   0  -9  -6   56.99    2.90
   0   9  -6   50.29    2.60
   0   9  -6   43.00    3.20
 -10   0   7   60.29    3.80
 -10   0   7   65.49    3.70
  10   0  -7   49.30    3.40
  -9   0   7  398.26   18.30
  -9   0   7  369.96   17.80
   9   0  -7  383.16   17.90
  -8   0   7   41.90    2.80
   8   0  -7   41.90    3.00
   7   0  -7    2.70    1.30
  -7   0   7    0.00    1.10
  -6   0   7   68.99    4.00
  -6   0   7   85.99    4.30
   6   0  -7   71.59    4.30
  -6   0   7   74.29    4.00
   6   0  -7   74.39    4.40
  -5   0   7  186.28    9.20
   5   0  -7  184.68    9.60
   5   0  -7  193.08    9.10
   5   0  -7  200.08    9.30
  -5   0   7  186.98    9.00
   5   0  -7  190.28    9.00
  -4   0   7  393.76   18.40
   4   0  -7  416.36   18.80
   4   0  -7  396.86   18.20
   4   0  -7  396.26   18.50
   4   0  -7  374.76   21.50
  -4   0   7  384.86   18.40
  -3   0   7   18.20    2.00
   3   0  -7   19.40    1.20
  -3   0   7   17.60    1.60
  -3   0   7   19.90    3.20
   3   0  -7   17.20    1.80
   3   0  -7   17.20    2.00
   2   0  -7  345.17   16.20
   2   0  -7  344.47   16.50
  -2   0   7  337.37   16.30
  -2   0   7  354.96   16.10
   2   0  -7  351.46   16.30
  -2   0   7  354.06   17.00
   2   0  -7  349.27   16.10
   1   0  -7   71.19    4.30
   1   0  -7   73.49    3.90
  -1   0   7   73.59    5.10
   1   0  -7   70.09    3.60
   1   0  -7   75.89    4.20
  -1   0   7   70.89    4.10
  -1   0   7   71.79    3.80
   0   0   7  160.58    6.90
   0   0  -7  131.79    8.50
   0   0  -7  135.29    7.20
   0   0  -7  142.49    6.70
   0   0  -7  139.29    7.30
   0   0   7  146.49    7.30
   0   0   7  124.19    8.70
  -1   0  -7    9.10    2.60
  -1   0  -7    6.20    0.70
  -1   0  -7    6.60    2.40
   1   0   7    6.10    1.10
   1   0   7    5.60    1.40
  -1   0  -7    6.20    1.60
  -1   0  -7    7.30    1.90
  -2   0  -7  412.66   20.50
  -2   0  -7  431.66   20.10
  -2   0  -7  406.06   19.50
   2   0   7  453.65   19.70
  -2   0  -7  434.96   19.80
   2   0   7  422.16   20.00
  -2   0  -7  403.76   20.50
  -3   0  -7  127.39   10.50
   3   0   7  109.39    6.40
  -3   0  -7  118.19    6.80
  -3   0  -7  104.89    5.70
  -3   0  -7  131.29    7.50
  -3   0  -7  114.39    6.70
   3   0   7  117.29    6.00
  -4   0  -7   38.60    5.20
   4   0   7   42.40    3.10
  -4   0  -7   42.40    6.60
   4   0   7   43.10    2.60
  -4   0  -7   37.80    2.30
  -4   0  -7   38.40    3.90
  -5   0  -7    8.80    3.00
   5   0   7    4.50    1.20
   5   0   7    5.80    1.00
   6   0   7    3.00    0.90
  -6   0  -7    3.70    1.60
   6   0   7    3.00    0.90
 -10  -1   7  136.89    7.20
 -10  -1   7  139.99    6.90
  10  -1  -7  140.39    6.80
 -10   1   7  145.79    7.50
   9  -1  -7  113.19    5.90
  -9  -1   7  115.79    5.70
  -9   1   7  155.48    8.00
   9   1  -7  153.48    7.70
   8  -1  -7   66.59    4.00
  -8  -1   7   73.69    3.90
   8  -1  -7   67.59    4.00
   8   1  -7   68.59    4.80
   8   1  -7   74.49    4.30
  -8   1   7   68.29    4.00
   7  -1  -7  265.67   12.90
   7  -1  -7  276.87   13.00
  -7  -1   7  278.57   12.90
  -7  -1   7  250.37   12.50
   7  -1  -7  274.07   12.60
  -7   1   7  283.57   13.90
   7   1  -7  312.97   14.20
  -7   1   7  296.57   14.10
  -6  -1   7  599.34   25.50
   6  -1  -7  544.35   25.40
   6  -1  -7  535.85   25.50
   6  -1  -7  524.95   25.30
  -6  -1   7  544.65   25.30
  -6   1   7  519.35   23.80
  -6   1   7  509.15   23.60
   6   1  -7  528.35   23.80
  -6   1   7  491.35   25.20
  -5  -1   7  836.22   38.70
   5  -1  -7  837.22   38.70
   5  -1  -7  825.12   38.90
  -5  -1   7  843.22   38.90
   5  -1  -7  889.31   39.20
  -5   1   7  796.12   39.10
   5   1  -7  835.02   39.60
  -5   1   7  892.11   39.40
   5   1  -7  911.41   39.40
  -4  -1   7  356.86   16.70
  -4  -1   7  356.96   17.80
   4  -1  -7  367.96   16.70
   4  -1  -7  343.77   17.00
   4  -1  -7  353.86   16.90
   4  -1  -7  365.76   16.70
  -4  -1   7  377.66   16.90
   4   1  -7  349.27   17.00
   4   1  -7  343.07   20.00
  -4   1   7  349.96   17.50
  -4   1   7  360.36   16.60
   4   1  -7  363.16   16.50
   4   1  -7  380.06   16.80
  -4   1   7  362.76   16.80
   3  -1  -7  455.95   20.70
   3  -1  -7  448.76   20.70
   3  -1  -7  455.45   20.90
  -3  -1   7  443.56   20.70
  -3  -1   7  464.35   21.80
  -3  -1   7  429.66   20.90
   3  -1  -7  448.06   20.80
  -3   1   7  419.66   20.10
   3   1  -7  410.76   22.30
   3   1  -7  434.26   19.80
   3   1  -7  433.36   19.60
  -3   1   7  392.96   19.40
  -3   1   7  427.36   19.60
   3   1  -7  425.16   20.20
   2  -1  -7  484.65   22.40
  -2  -1   7  506.85   22.20
   2  -1  -7  495.65   22.30
   2  -1  -7  463.05   22.20
  -2  -1   7  478.45   23.10
   2  -1  -7  478.85   22.10
  -2  -1   7  469.05   22.40
  -2   1   7  446.16   20.70
  -2   1   7  459.55   20.00
   2   1  -7  413.56   22.90
   2   1  -7  433.86   20.30
  -2   1   7  438.56   20.10
   2   1  -7  429.76   20.10
   2   1  -7  407.26   20.60
  -1  -1   7   56.79    4.90
  -1  -1   7   58.29    3.70
   1  -1  -7   58.59    3.00
   1  -1  -7   59.69    3.40
   1  -1  -7   60.89    3.70
  -1  -1   7   59.29    3.30
   1  -1  -7   61.49    3.70
   1   1  -7   42.10    6.70
  -1   1   7   44.30    3.10
   1   1  -7   44.20    3.40
  -1   1   7   48.70    2.70
   1   1  -7   47.30    2.40
   1   1  -7   44.70    3.00
   1   1  -7   39.70    4.40
  -1   1   7   45.60    4.20
   0  -1  -7  546.85   24.90
   0  -1   7  521.85   26.00
   0  -1  -7  494.55   25.60
   0  -1   7  553.64   24.80
   0  -1  -7  573.44   25.30
   0   1  -7  509.95   22.40
   0   1  -7  457.65   23.10
   0   1   7  489.25   23.30
   0   1  -7  490.15   22.60
   0   1   7  469.15   22.50
   0   1  -7  462.25   22.80
   0   1   7  484.45   22.30
   0   1  -7  487.65   22.20
   0   1  -7  458.85   25.20
   0   1  -7  483.25   22.60
   0   1  -7  524.05   22.50
  -1  -1  -7  250.97   11.90
  -1  -1  -7  241.78   12.70
  -1  -1  -7  245.98   11.60
   1  -1   7  246.18   12.00
   1  -1   7  247.98   11.80
  -1  -1  -7  254.37   11.90
   1   1   7  199.38   10.30
   1   1   7  228.08   13.50
  -1   1  -7  212.08   11.40
  -1   1  -7  228.48   10.40
  -1   1  -7  201.08   12.20
   1   1   7  225.28   10.70
  -1   1  -7  220.18   10.10
  -1   1  -7  234.28   10.70
  -1   1  -7  211.28   13.60
  -1   1  -7  211.08   10.70
  -2  -1  -7  276.87   13.00
  -2  -1  -7  280.07   13.00
  -2  -1  -7  267.37   12.80
  -2  -1  -7  251.47   13.70
   2  -1   7  266.87   13.20
   2  -1   7  289.97   12.90
  -2   1  -7  223.28   11.60
  -2   1  -7  235.28   10.90
  -2   1  -7  239.98   14.30
  -2   1  -7  228.28   12.00
   2   1   7  236.18   11.10
   2   1   7  244.78   11.50
  -2   1  -7  240.28   11.60
  -2   1  -7  225.98   12.10
  -3  -1  -7   80.59    4.30
  -3  -1  -7   82.29    5.70
   3  -1   7   91.99    4.50
  -3  -1  -7   82.59    5.00
  -3  -1  -7   80.89    5.60
   3  -1   7   84.89    5.00
  -3  -1  -7   85.29    4.90
  -3   1  -7   88.49    8.00
   3   1   7   93.89    4.50
  -3   1  -7   79.99    5.70
  -3   1  -7   86.89    5.80
  -3   1  -7   79.39    4.20
   3   1   7   84.59    5.00
  -3   1  -7   79.89    5.60
  -3   1  -7   87.39    5.80
   4  -1   7  132.19    6.60
   4  -1   7  110.79    6.20
  -4  -1  -7  137.79    9.80
  -4  -1  -7  133.29    7.30
  -4  -1  -7  102.89    8.10
   4   1   7  110.49    5.90
  -4   1  -7  118.59    7.00
  -4   1  -7  123.09    7.00
   4   1   7  124.19    6.40
  -4   1  -7  109.49    5.80
  -4   1  -7  140.19    9.70
   5  -1   7  360.06   15.40
  -5  -1  -7  296.07   16.00
   5  -1   7  332.07   15.60
  -5   1  -7  316.27   15.60
   5   1   7  317.57   15.20
   5   1   7  311.07   14.90
  -5   1  -7  345.67   15.90
   6  -1   7  298.67   13.10
   6  -1   7  264.87   13.40
  -6  -1  -7  277.87   13.50
   6   1   7  270.47   11.80
  -6   1  -7  228.98   12.00
 -10  -2   7   27.50    2.70
  10  -2  -7   38.80    2.30
 -10   2   7   23.40    2.40
 -10   2   7   26.30    2.10
   9  -2  -7  390.76   17.40
   9  -2  -7  356.76   17.30
  -9  -2   7  366.16   17.20
  -9   2   7  362.56   17.70
  -9   2   7  383.26   17.50
  -8  -2   7    9.20    1.30
   8  -2  -7   12.80    2.20
  -8  -2   7   13.30    1.70
   8  -2  -7   10.30    1.30
   8  -2  -7   13.30    1.60
   8   2  -7   18.30    3.20
   8   2  -7   19.80    3.00
  -8   2   7   19.70    2.70
  -7  -2   7  309.97   14.80
   7  -2  -7  306.17   14.60
   7  -2  -7  320.57   14.80
  -7  -2   7  315.07   14.60
   7  -2  -7  312.47   14.90
   7   2  -7  321.47   15.00
  -7   2   7  308.97   14.70
  -7   2   7  311.47   14.80
   7   2  -7  331.57   15.00
  -7   2   7  304.07   16.30
   6  -2  -7  192.28    9.10
   6  -2  -7  184.88    9.30
  -6  -2   7  192.58    9.30
  -6  -2   7  189.18    9.10
  -6   2   7  184.38    9.20
   6   2  -7  195.08    9.50
   6   2  -7  195.38    9.40
  -6   2   7  182.88   11.10
   5  -2  -7  229.88   10.50
  -5  -2   7  219.88   10.50
   5  -2  -7  217.18   10.70
  -5  -2   7  218.08   10.70
  -5   2   7  220.78   10.60
   5   2  -7  226.48   10.70
   5   2  -7  219.68   10.80
   5   2  -7  214.98   11.10
   4  -2  -7  470.75   21.60
  -4  -2   7  463.55   21.40
   4  -2  -7  470.65   21.40
  -4  -2   7  441.86   21.50
   4  -2  -7  471.75   21.80
  -4   2   7  406.06   22.60
  -4   2   7  459.85   20.70
   4   2  -7  476.45   21.20
   4   2  -7  443.76   20.90
   4   2  -7  431.56   23.90
   3  -2  -7  351.76   16.20
   3  -2  -7  359.56   16.10
  -3  -2   7  327.67   17.10
   3  -2  -7  341.97   16.20
  -3  -2   7  335.67   16.70
   3  -2  -7  354.36   16.00
  -3  -2   7  337.97   16.00
   3   2  -7  300.37   18.20
   3   2  -7  340.07   15.80
   3   2  -7  337.77   15.10
  -3   2   7  311.37   15.80
  -3   2   7  334.47   15.40
  -3   2   7  339.07   15.10
   3   2  -7  316.87   15.40
   3   2  -7  330.57   15.60
   2  -2  -7  107.69    5.60
  -2  -2   7  106.39    5.60
   2  -2  -7  106.59    5.40
   2  -2  -7  107.39    5.90
  -2  -2   7  106.99    6.90
   2  -2  -7  105.89    5.20
  -2  -2   7  102.69    5.50
   2   2  -7  106.49    9.10
   2   2  -7  106.59    5.70
   2   2  -7   94.99    6.20
   2   2  -7  103.49    5.10
   2   2  -7  121.79    6.20
  -2   2   7  101.09    6.30
  -2   2   7  110.79    5.30
  -1  -2   7   83.29    5.30
  -1  -2   7   88.19    6.30
   1  -2  -7   87.09    4.50
   1  -2  -7   86.29    4.50
   1  -2  -7   84.39    4.70
  -1  -2   7   83.79    4.80
   1  -2  -7   83.59    4.30
  -1   2   7   85.99    4.30
   1   2  -7   81.69    5.10
   1   2  -7   76.19    6.60
   1   2  -7   76.79    5.20
   1   2  -7   82.29    4.70
  -1   2   7   82.69    4.60
  -1   2   7   78.59    5.60
   1   2  -7   82.59    7.70
   1   2  -7   88.29    4.90
   1   2  -7   83.39    4.00
   0  -2  -7  554.54   23.20
   0  -2  -7  494.25   23.00
   0  -2   7  490.65   22.80
   0  -2  -7  486.15   22.90
   0  -2   7  466.35   23.00
   0  -2  -7  472.05   22.80
   0   2  -7  481.15   25.30
   0   2   7  488.45   22.20
   0   2   7  471.55   23.80
   0   2  -7  491.95   22.10
   0   2  -7  436.76   23.00
   0   2  -7  502.35   22.60
   0   2  -7  488.55   22.60
   0   2   7  490.85   22.50
  -1  -2  -7   20.30    1.60
   1  -2   7   23.00    2.80
  -1  -2  -7   20.80    2.30
   1  -2   7   19.70    2.00
  -1  -2  -7   21.90    2.10
   1   2   7   20.60    1.90
  -1   2  -7   28.10    5.30
   1   2   7   22.50    2.40
  -1   2  -7   28.00    3.50
  -1   2  -7   22.70    1.30
  -1   2  -7   21.40    2.90
  -1   2  -7   23.90    3.20
  -1   2  -7   24.00    2.50
  -1   2  -7   25.50    2.60
   2  -2   7   99.49    5.50
  -2  -2  -7  114.79    5.40
  -2  -2  -7   99.29    5.60
   2  -2   7  106.89    5.90
  -2  -2  -7  104.99    5.70
   2   2   7   92.79    5.20
  -2   2  -7  101.49    6.10
  -2   2  -7   97.99    5.90
  -2   2  -7   88.99    7.80
  -2   2  -7   85.79    5.50
   2   2   7   91.89    4.70
  -2   2  -7   86.09    5.50
  -3  -2  -7    3.60    1.40
  -3  -2  -7    6.40    1.80
   3  -2   7    6.20    1.20
  -3  -2  -7    4.20    0.90
   3  -2   7    7.40    1.70
  -3   2  -7   11.20    3.20
  -3   2  -7    7.20    2.00
  -3   2  -7   16.20    2.60
   3   2   7   11.30    1.60
  -3   2  -7   13.40    4.20
  -3   2  -7   12.70    2.30
  -3   2  -7    8.90    0.70
   3   2   7    8.90    1.20
   4  -2   7  156.78    8.10
  -4  -2  -7  168.98   11.20
  -4  -2  -7  153.18    8.60
   4  -2   7  158.68    7.80
  -4   2  -7  175.08    9.10
  -4   2  -7  154.58    8.90
  -4   2  -7  176.18   11.70
   4   2   7  179.18    8.30
   4   2   7  178.08    8.60
  -4   2  -7  170.58    9.20
  -5  -2  -7  115.49    6.40
   5  -2   7  116.09    5.60
   5  -2   7  107.99    5.90
  -5   2  -7  111.59    6.40
  -5   2  -7  112.79    6.30
   5   2   7  117.29    5.80
  -6  -2  -7   15.50    2.00
   6  -2   7    9.50    1.30
   6  -2   7   12.60    1.20
  -6   2  -7   19.80    2.40
   6   2   7   18.00    1.70
  -6   2  -7   14.00    2.60
   9  -3  -7  456.65   20.80
  -9  -3   7  444.56   20.80
   9  -3  -7  453.65   20.90
  -9   3   7  467.15   21.90
  -9   3   7  464.15   21.70
  -8  -3   7  118.79    5.90
   8  -3  -7  121.19    5.70
   8  -3  -7  113.19    5.90
  -8  -3   7  106.99    6.00
   8  -3  -7  119.39    6.00
  -8   3   7  132.09    6.90
   8   3  -7  120.89    6.90
  -7  -3   7  523.85   24.30
  -7  -3   7  525.85   24.50
   7  -3  -7  512.95   24.30
   7  -3  -7  546.45   24.50
   7   3  -7  515.25   25.10
  -7   3   7  525.65   25.50
  -7   3   7  565.94   25.30
  -7   3   7  561.24   26.30
  -6  -3   7  628.44   29.60
  -6  -3   7  626.04   29.20
   6  -3  -7  604.24   29.40
   6  -3  -7  684.03   29.90
  -6   3   7  566.74   27.20
   6   3  -7  640.04   28.20
  -6   3   7  578.34   28.30
  -5  -3   7 1508.75   67.69
   5  -3  -7 1523.05   67.79
  -5  -3   7 1457.25   67.89
   5  -3  -7 1459.75   67.89
   5   3  -7 1339.97   62.19
   5   3  -7 1341.87   62.49
  -5   3   7 1431.56   63.49
  -5   3   7 1334.17   62.09
   4  -3  -7  522.85   23.70
   4  -3  -7  483.65   23.70
  -4  -3   7  517.25   23.60
  -4  -3   7  511.45   23.80
   4  -3  -7  528.35   23.90
   4   3  -7  522.35   23.90
   4   3  -7  495.85   27.20
  -4   3   7  515.45   23.80
   4   3  -7  540.15   24.30
   4   3  -7  495.35   24.20
   3  -3  -7  256.17   11.90
  -3  -3   7  253.87   12.10
   3  -3  -7  255.67   12.10
  -3  -3   7  243.88   11.80
   3  -3  -7  250.77   12.00
   3   3  -7  251.47   12.20
   3   3  -7  243.98   15.40
   3   3  -7  252.07   12.30
  -3   3   7  248.18   11.80
   3   3  -7  238.48   11.80
   2  -3  -7  129.69    6.40
  -2  -3   7  122.49    6.50
   2  -3  -7  127.49    6.50
  -2  -3   7  120.89    6.20
   2   3  -7  174.08    9.00
   2   3  -7  175.38    8.80
   2   3  -7  179.48    8.50
   2   3  -7  176.58    8.70
   2   3  -7  167.18   10.10
   2   3  -7  168.08    8.10
   2   3  -7  175.58   11.90
  -2   3   7  170.78    8.50
  -1  -3   7    5.60    1.20
   1  -3  -7    5.00    1.30
  -1  -3   7    6.10    1.60
   1  -3  -7    5.20    1.10
   1  -3  -7    4.60    1.30
  -1   3   7    5.80    1.30
   1   3  -7    5.20    1.60
   1   3  -7    5.10    1.40
   1   3  -7    4.50    1.30
   1   3  -7    3.20    1.40
   1   3  -7    5.80    0.50
   1   3  -7    9.70    3.20
   1   3  -7    7.90    3.40
   0  -3   7  136.89    7.40
   0  -3  -7  146.69    7.20
   0  -3  -7  140.89    7.20
   0  -3  -7  139.29    6.90
   0  -3   7  142.19    7.00
   0   3  -7  178.28    9.00
   0   3  -7  175.38    8.10
   0   3  -7  177.18    9.80
   0   3  -7  174.98    8.70
   0   3  -7  182.38    9.20
   0   3  -7  181.98    8.90
   0   3   7  163.98    8.60
   0   3  -7  168.58   11.70
  -1  -3  -7  101.19    5.30
   1  -3   7  101.19    5.40
   1  -3   7  100.69    5.80
  -1  -3  -7  108.99    5.60
  -1  -3  -7  102.89    5.50
  -1   3  -7  111.09    5.80
  -1   3  -7  108.49    5.80
   1   3   7  100.59    5.50
  -1   3  -7  102.19    4.80
  -1   3  -7   98.59    6.60
  -1   3  -7  102.29    6.50
  -1   3  -7   93.19    8.40
  -1   3  -7  104.89    6.20
   2  -3   7   47.70    5.20
  -2  -3  -7   44.30    4.60
  -2  -3  -7   39.20    3.70
  -2   3  -7   43.20    5.10
  -2   3  -7   45.10    9.10
  -2   3  -7   52.59    4.40
  -2   3  -7   51.29    2.40
  -3  -3  -7   73.19    4.30
   3  -3   7   77.99    4.80
  -3  -3  -7   75.39    4.70
   3  -3   7   77.09    4.20
   3   3   7   60.69    3.70
  -3   3  -7   65.09    7.60
  -3   3  -7   57.79    4.60
  -3   3  -7   58.59    4.10
  -3   3  -7   61.79    4.50
  -3   3  -7   57.29    6.90
  -4  -3  -7   87.09    4.70
   4  -3   7   86.09    4.40
   4  -3   7   81.69    4.90
  -4  -3  -7   79.99    5.30
   4   3   7   87.69    4.80
  -4   3  -7   92.59    8.40
  -4   3  -7   87.09    5.40
  -4   3  -7   83.29    5.50
  -4   3  -7   85.39    5.30
   5  -3   7   45.70    2.50
  -5  -3  -7   37.30    3.30
   5  -3   7   41.40    3.10
  -5   3  -7   28.40    3.50
   5   3   7   41.80    2.60
  -5   3  -7   39.90    3.10
  -5   3  -7   45.40    3.40
   9  -4  -7   80.99    4.20
   9  -4  -7   82.79    4.10
  -9  -4   7   80.69    4.10
  -9   4   7   79.99    4.30
  -9   4   7   75.59    4.40
  -8  -4   7   30.20    1.90
   8  -4  -7   28.60    2.20
   8  -4  -7   25.90    2.50
  -8  -4   7   30.30    2.10
   8  -4  -7   27.00    1.90
  -8   4   7   21.00    2.60
  -8   4   7   22.40    2.30
   7  -4  -7  127.29    6.60
  -7  -4   7  133.09    6.50
  -7  -4   7  125.39    6.30
   7  -4  -7  128.99    6.30
   7   4  -7  112.89    6.00
  -7   4   7  109.49    7.10
  -7   4   7  116.59    6.40
  -7   4   7  110.79    6.00
  -6  -4   7   73.79    4.10
  -6  -4   7   83.09    4.40
   6  -4  -7   80.89    4.40
   6  -4  -7   81.59    4.20
  -6   4   7   71.39    4.90
  -6   4   7   73.39    3.60
   6   4  -7   71.19    4.30
  -6   4   7   67.79    5.80
  -5  -4   7  168.68    8.90
   5   4  -7  129.89    8.20
   5   4  -7  162.58    8.80
  -5   4   7  167.08    9.60
   4  -4  -7  285.97   13.20
   4  -4  -7  286.57   13.00
  -4  -4   7  275.67   12.90
   4  -4  -7  258.47   13.10
  -4  -4   7  268.77   13.10
   4   4  -7  280.87   14.00
   4   4  -7  292.07   13.60
  -4   4   7  283.07   14.20
  -4   4   7  280.57   15.10
   4   4  -7  277.37   17.70
   4   4  -7  295.37   14.40
  -3  -4   7  192.88    9.00
   3  -4  -7  193.48    9.30
   3  -4  -7  195.08    9.10
   3  -4  -7  177.38    9.20
  -3  -4   7  183.38    9.20
   3   4  -7  174.88   10.70
   3   4  -7  187.28    9.70
   3   4  -7  198.28    9.70
  -3   4   7  198.68   10.60
  -3   4   7  184.68    9.20
   3   4  -7  183.58   13.10
   3   4  -7  183.88    9.20
  -2  -4   7   65.79    4.40
  -2  -4   7   70.39    3.90
   2  -4  -7   68.69    3.90
   2  -4  -7   73.29    4.10
   2  -4  -7   75.39    4.20
   2   4  -7   74.69    4.70
   2   4  -7   70.39    4.10
   2   4  -7   66.99    6.20
   2   4  -7   72.29    4.70
  -2   4   7   67.79    4.30
   2   4  -7   74.69    4.30
   2   4  -7   76.19    8.20
  -1  -4   7  287.97   13.80
  -1  -4   7  283.17   13.60
   1  -4  -7  292.27   13.80
   1  -4  -7  286.67   13.60
   1  -4  -7  294.27   13.80
   1   4  -7  307.87   14.70
  -1   4   7  292.77   14.10
   1   4  -7  301.77   14.40
   1   4  -7  291.17   14.20
   1   4  -7  304.77   15.20
   1   4  -7  294.27   17.70
   1   4  -7  298.67   14.60
   0  -4  -7  393.66   17.80
   0  -4  -7  382.06   17.80
   0  -4  -7  386.36   17.60
   0  -4   7  366.76   17.60
   0  -4   7  357.06   17.80
   0   4  -7  393.16   18.60
   0   4  -7  388.36   19.60
   0   4  -7  402.16   22.30
   0   4  -7  403.66   18.90
   0   4  -7  423.16   19.20
   0   4  -7  390.06   19.10
   0   4   7  388.66   18.60
   1  -4   7   88.09    5.50
   1  -4   7   84.49    4.90
  -1  -4  -7   87.39    5.10
  -1  -4  -7   86.79    5.10
  -1   4  -7   83.99    5.70
  -1   4  -7   82.29    5.90
   1   4   7   92.49    5.20
  -1   4  -7   85.59    6.00
  -1   4  -7   98.89    5.50
  -1   4  -7   90.69    8.00
  -2  -4  -7   46.30    3.10
  -2  -4  -7   45.10    3.00
   2  -4   7   39.90    4.20
  -2  -4  -7   46.70    3.40
   2  -4   7   46.30    3.10
  -2   4  -7   51.59    6.60
  -2   4  -7   56.49    4.30
   2   4   7   60.69    8.60
   2   4   7   53.69    3.60
  -2   4  -7   56.79    4.70
  -2   4  -7   65.19    3.90
   3  -4   7   47.60    5.80
  -3  -4  -7   44.40    3.10
  -3  -4  -7   46.90    3.80
   3  -4   7   48.80    3.00
  -3   4  -7   36.50    3.30
  -3   4  -7   38.20    3.70
  -3   4  -7   32.30    6.00
  -3   4  -7   33.80    3.00
   3   4   7   38.20    2.80
  -4  -4  -7  247.88   11.70
   4  -4   7  243.38   11.70
   4  -4   7  255.07   12.20
  -4   4  -7  243.78   11.70
  -4   4  -7  223.98   11.40
   4   4   7  241.08   11.20
  -4   4  -7  235.38   14.20
  -4   4  -7  240.98   11.90
  -5  -4  -7  215.58   10.40
   5  -4   7  170.88    9.00
  -5   4  -7  114.49    6.20
  -5   4  -7  132.89    6.50
  -5   4  -7  124.29    6.60
   5   4   7  122.09    6.70
  -8  -5   7   89.59    4.40
   8  -5  -7   88.89    4.40
   8  -5  -7   88.79    4.70
   8  -5  -7   90.79    4.60
  -8  -5   7   91.39    4.60
  -8   5   7   73.69    5.90
  -8   5   7   93.49    5.00
  -8   5   7   86.89    4.70
  -7  -5   7  108.19    5.40
  -7  -5   7  106.49    5.40
   7  -5  -7  113.59    5.50
   7  -5  -7   88.59    5.40
   7   5  -7  104.39    6.00
  -7   5   7  114.09    6.90
  -7   5   7  111.99    6.00
  -7   5   7  114.99    6.30
  -6  -5   7   42.00    2.50
  -6  -5   7   45.90    2.90
   6  -5  -7   38.10    2.50
   6  -5  -7   38.70    2.80
   6   5  -7   19.60    2.00
  -6   5   7   18.90    2.40
  -6   5   7   23.80    3.00
  -6   5   7   21.40    3.60
   5  -5  -7   57.19    3.30
  -5  -5   7   59.59    3.70
   5  -5  -7   56.09    3.60
  -5  -5   7   58.89    3.20
   5   5  -7   36.40    4.60
  -5   5   7   36.80    4.30
  -5   5   7   34.10    4.10
  -5   5   7   35.20    4.10
  -5   5   7   37.20    2.00
   5   5  -7   40.30    3.00
  -4  -5   7  398.96   18.60
   4  -5  -7  403.16   18.70
  -4  -5   7  410.36   18.80
   4  -5  -7  391.66   18.80
   4   5  -7  375.06   18.00
   4   5  -7  361.06   21.50
   4   5  -7  342.37   18.10
  -4   5   7  393.46   18.90
   4   5  -7  387.06   17.60
  -4   5   7  375.76   18.10
   3  -5  -7   79.39    5.20
   3  -5  -7   93.69    5.70
  -3  -5   7   91.09    5.10
  -3  -5   7   90.69    5.50
   3   5  -7  100.69    6.00
   3   5  -7   86.79    5.50
  -3   5   7   76.39    7.80
   3   5  -7   72.69    6.30
   3   5  -7  102.49    7.90
   2  -5  -7  668.13   30.60
  -2  -5   7  604.64   30.50
   2  -5  -7  692.33   30.70
   2  -5  -7  686.13   30.60
  -2  -5   7  658.73   30.40
   2   5  -7  735.13   35.10
   2   5  -7  719.63   34.90
   2   5  -7  729.23   34.60
  -2   5   7  752.62   36.00
   2   5  -7  769.92   35.00
   2   5  -7  783.12   34.60
   2   5  -7  740.13   38.50
  -1  -5   7  117.29    5.90
   1  -5  -7   88.49    6.20
   1  -5  -7  122.79    6.50
  -1   5   7   89.59   11.20
   1   5  -7  116.49    6.60
   0  -5  -7 1002.40   44.90
   0  -5  -7  946.91   44.90
   0  -5   7  995.00   44.70
   0  -5  -7  961.60   44.70
   0   5  -7  966.50   44.20
   0   5  -7  989.80   43.80
   0   5  -7  965.20   43.60
   0   5  -7  867.11   43.20
   0   5   7  944.01   44.50
   0   5  -7  885.31   43.80
   0   5  -7  990.30   47.30
  -1  -5  -7  481.35   22.00
  -1  -5  -7  455.05   21.70
   1  -5   7  468.15   21.80
  -1  -5  -7  474.15   22.10
  -1   5  -7  459.25   21.40
  -1   5  -7  464.55   21.70
  -1   5  -7  468.35   22.00
  -1   5  -7  448.86   22.40
   1   5   7  501.85   23.00
   1   5   7  445.96   21.40
  -1   5  -7  438.86   24.90
  -2  -5  -7  664.33   31.30
   2  -5   7  697.53   31.50
  -2  -5  -7  691.23   31.60
  -2   5  -7  699.43   31.80
   2   5   7  633.64   31.60
  -2   5  -7  683.13   32.10
  -2   5  -7  707.53   31.60
  -2   5  -7  608.24   34.20
  -2   5  -7  749.42   31.80
  -3  -5  -7   12.00    1.60
  -3   5  -7   28.70    5.60
  -3   5  -7   25.50    3.70
  -3   5  -7   30.60    3.80
   4  -5   7  206.78    9.60
  -4  -5  -7  199.58    9.60
  -4   5  -7  196.18    9.80
  -4   5  -7  190.28    9.30
  -4   5  -7  191.78    9.50
  -7  -6   7   30.50    1.90
  -7  -6   7   30.00    2.20
   7  -6  -7   30.50    2.30
   7  -6  -7   33.00    1.90
  -7   6   7   35.80    3.60
  -7   6   7   37.00    3.30
  -7   6   7   32.20    3.40
   7   6  -7   32.70    3.30
  -6  -6   7    2.90    0.80
   6  -6  -7    5.60    1.00
  -6  -6   7    3.50    1.10
   6  -6  -7    1.60    1.10
  -6   6   7    3.40    1.70
   6   6  -7    5.20    1.30
  -6   6   7    7.00    2.10
  -6   6   7    4.60    3.30
  -5  -6   7   28.90    2.00
   5  -6  -7   28.00    2.00
   5  -6  -7   28.00    2.40
  -5  -6   7   31.50    3.40
  -5   6   7   24.70    3.40
   5   6  -7   25.30    2.30
  -5   6   7   23.70    3.10
  -4  -6   7   40.80    3.50
   4  -6  -7   39.30    2.60
  -4  -6   7   40.30    2.60
   4  -6  -7   46.70    3.10
   4   6  -7   44.50    8.60
   4   6  -7   39.70    2.90
  -4   6   7   39.60    4.20
  -3  -6   7   47.30    2.80
   3  -6  -7   45.50    3.00
   3  -6  -7   36.00    2.60
  -3  -6   7   39.10    4.10
  -3   6   7   46.10    4.60
   3   6  -7   47.00    3.10
   3   6  -7   47.40    3.70
   3   6  -7   45.40    5.10
   3   6  -7   42.40    5.00
   3   6  -7   46.70    7.70
   2  -6  -7   81.29    4.40
  -2  -6   7   83.59    4.50
   2  -6  -7   82.59    4.60
   2  -6  -7   78.39    5.50
   2   6  -7   85.89    4.70
  -2   6   7   89.69    6.40
   2   6  -7   77.99    6.20
   2   6  -7   89.79    5.20
   2   6  -7   84.69    8.60
   2   6  -7   85.49    6.10
   1  -6  -7  263.87   13.80
  -1  -6   7  319.47   13.50
   1  -6  -7  290.27   13.50
   1  -6  -7  267.07   13.60
   1   6  -7  270.17   14.70
   1   6  -7  281.67   14.70
   1   6  -7  289.87   17.70
  -1   6   7  308.07   15.30
   1   6  -7  295.77   14.30
   1   6  -7  301.87   13.80
   1   6  -7  289.67   14.00
   0  -6   7   58.39    3.70
   0  -6  -7   53.49    3.50
   0  -6  -7   54.39    3.20
   0  -6  -7   51.29    4.20
   0   6  -7   46.70    4.50
   0   6   7   44.50    5.60
   0   6  -7   44.60    3.20
   0   6  -7   46.80    6.80
   0   6  -7   50.39    3.70
   0   6  -7   46.30    3.10
  -1  -6  -7   81.39    5.40
   1  -6   7   86.09    5.00
  -1  -6  -7   91.49    4.60
  -1  -6  -7   91.69    4.80
  -1   6  -7   78.09    5.30
  -1   6  -7   79.39    4.80
   1   6   7   74.09    7.80
  -1   6  -7   82.09    4.40
  -1   6  -7   71.49    7.40
  -1   6  -7   77.99    4.50
  -2  -6  -7  124.39    6.20
   2  -6   7  131.79    6.50
  -2   6  -7  116.19    6.40
  -2   6  -7  117.79    7.10
  -2   6  -7  123.29    9.00
  -2   6  -7  101.79    6.20
   3  -6   7   15.90    1.60
  -3  -6  -7   15.10    1.70
  -3   6  -7    9.40    3.70
  -3   6  -7   11.60    1.60
  -3   6  -7   11.00    1.90
  -3   6  -7    8.40    1.30
  -4  -6  -7   33.10    2.10
   4  -6   7   27.80    2.30
  -4   6  -7   23.50    2.50
  -4   6  -7   25.00    1.90
  -4   6  -7   24.70    2.10
  -6  -7   7  238.08   11.10
   6  -7  -7  243.88   11.40
  -6  -7   7  224.48   11.30
   6  -7  -7  247.38   11.10
   6   7  -7  232.08   11.40
  -6   7   7  254.47   12.20
  -6   7   7  242.78   13.40
  -5  -7   7  412.66   20.10
   5  -7  -7  448.86   20.00
  -5  -7   7  433.26   19.90
   5  -7  -7  435.06   20.00
   5   7  -7  480.35   22.90
  -5   7   7  513.45   23.80
   4  -7  -7  167.48    8.80
  -4  -7   7  182.48    8.60
   4  -7  -7  191.18    8.80
   4   7  -7  132.69   11.10
   4   7  -7  137.09    6.60
  -4   7   7  122.59    8.00
   3  -7  -7   86.79    4.30
  -3  -7   7   75.59    4.30
   3   7  -7   85.59    5.10
   3   7  -7   86.29    8.50
   3   7  -7   89.29    4.60
  -3   7   7   84.89    5.80
  -2  -7   7  334.37   15.80
   2  -7  -7  349.96   15.90
   2  -7  -7  336.17   16.00
   2   7  -7  327.77   15.70
  -2   7   7  329.27   16.70
   2   7  -7  342.17   19.50
   2   7  -7  345.37   16.20
   1  -7  -7  157.28    7.80
  -1  -7   7  159.68    8.00
   1  -7  -7  166.08    8.00
   1   7  -7  150.38    7.70
   1   7  -7  155.38    7.50
   1   7  -7  132.09   10.50
   1   7  -7  149.29    7.30
  -1   7   7  151.48    8.50
   0  -7  -7  419.46   20.40
   0  -7  -7  457.15   20.50
   0   7  -7  371.26   16.50
   0   7  -7  328.97   16.20
   0   7  -7  341.57   16.90
   0   7   7  349.87   17.20
  -1  -7  -7  350.96   16.00
  -1  -7  -7  337.77   16.10
  -1   7  -7  297.47   14.00
  -1   7  -7  261.67   16.70
  -1   7  -7  306.87   14.50
  -1   7  -7  338.77   15.00
  -1   7  -7  304.47   14.30
  -2  -7  -7  454.25   22.00
  -2  -7  -7  502.15   22.10
  -2   7  -7  429.96   18.90
  -2   7  -7  414.06   19.00
  -2   7  -7  367.36   21.10
  -2   7  -7  412.46   19.30
   5  -8  -7   49.40    3.40
  -5  -8   7   55.99    2.90
   5  -8  -7   55.89    2.90
   5   8  -7   48.10    2.80
  -5   8   7   46.20    3.40
   4  -8  -7   40.00    2.70
  -4  -8   7   38.00    2.40
   4  -8  -7   42.00    2.30
   4   8  -7   35.30    2.20
  -4   8   7   35.20    3.20
   3  -8  -7   54.99    3.40
   3  -8  -7   55.79    3.00
  -3  -8   7   55.09    3.20
  -3   8   7   54.89    4.20
   3   8  -7   51.49    3.00
   2  -8  -7    5.80    0.90
   2  -8  -7    8.00    1.30
  -2  -8   7    6.50    1.50
   2   8  -7    5.40    3.40
   2   8  -7    5.20    0.90
   2   8  -7    4.30    1.40
  -2   8   7    7.60    1.90
   1  -8  -7   43.70    2.70
   1   8  -7   43.80    3.50
   1   8  -7   32.70    5.10
  -1   8   7   41.10    4.40
   1   8  -7   44.20    2.50
   1   8  -7   44.20    3.00
   0  -8  -7    2.90    1.00
   0  -8  -7    2.00    0.80
   0   8  -7    1.80    1.00
   0   8  -7    3.10    3.10
   0   8  -7    1.10    1.60
   0   8  -7    3.60    1.30
  -1  -8  -7   13.50    1.60
  -1   8  -7    7.80    2.90
  -1   8  -7   10.00    1.30
  -1   8  -7    9.10    1.40
  -1   8  -7    5.90    1.50
   9   0  -8 1266.57   58.19
  -9   0   8 1308.07   58.49
  -9   0   8 1252.87   58.29
  -8   0   8    3.80    1.10
   8   0  -8    7.10    1.90
   8   0  -8    2.70    1.20
   7   0  -8   96.79    5.30
  -7   0   8  101.79    5.30
  -6   0   8  129.39    7.20
  -5   0   8    6.10    1.20
  -5   0   8    9.30    1.20
   5   0  -8   11.10    1.60
   5   0  -8   10.60    2.90
   5   0  -8    9.30    1.00
  -4   0   8   53.49    3.00
   4   0  -8   55.39    8.20
  -4   0   8   51.99    3.30
   4   0  -8   51.69    4.00
   4   0  -8   58.89    3.50
   4   0  -8   53.49    2.90
   3   0  -8    2.50    0.50
  -3   0   8    4.50    1.10
   3   0  -8    2.50    1.50
  -3   0   8    2.10    0.80
   3   0  -8    2.90    1.40
   2   0  -8   82.39    4.60
   2   0  -8   85.69    4.80
   2   0  -8   83.09    4.00
  -2   0   8   85.09    4.50
  -2   0   8   70.89    4.20
   1   0  -8 1759.82   77.89
   1   0  -8 1675.33   77.99
   1   0  -8 1729.43   78.39
   1   0  -8 1801.12   78.19
  -1   0   8 1665.63   78.09
  -1   0   8 1649.13   77.89
   0   0  -8  479.95   21.90
   0   0  -8  449.86   22.70
   0   0   8  485.95   22.00
   0   0   8  499.15   21.80
   0   0  -8  490.55   21.70
   0   0  -8  445.86   21.90
   0   0  -8  499.85   22.30
   0   0  -8  408.06   22.00
  -1   0  -8  650.93   30.00
   1   0   8  644.04   29.90
   1   0   8  659.73   30.20
  -1   0  -8  681.13   30.40
  -1   0  -8  638.84   30.70
  -1   0  -8  627.24   29.90
  -2   0  -8  582.54   26.20
  -2   0  -8  516.25   25.90
  -2   0  -8  559.94   26.90
   2   0   8  541.75   26.30
   2   0   8  600.34   26.10
  -2   0  -8  571.94   26.60
  -2   0  -8  586.84   29.30
  -3   0  -8  744.53   33.70
   3   0   8  668.33   30.90
  -3   0  -8  621.64   31.30
   3   0   8  632.14   30.60
   4   0   8  114.99    5.80
  -4   0  -8  121.59    6.70
  -4   0  -8  123.49    9.00
   5   0   8   14.90    1.50
  -5   0  -8   11.00    1.90
   5   0   8   14.20    1.40
   9  -1  -8  207.48   10.70
  -9  -1   8  223.68   10.40
   9  -1  -8  232.88   10.60
   9   1  -8  186.08    9.90
  -9   1   8  217.08   10.00
  -8  -1   8   12.10    1.40
   8  -1  -8   14.20    1.50
   8   1  -8   22.50    2.30
  -8   1   8   16.80    2.20
   8   1  -8   20.10    2.00
   7  -1  -8   66.79    3.90
  -7  -1   8   67.69    3.80
  -7  -1   8   59.39    3.50
  -7   1   8   73.19    4.10
   7   1  -8   75.89    4.40
  -7   1   8   63.89    7.70
   7   1  -8   72.39    4.40
   6  -1  -8   13.30    1.60
  -6  -1   8   17.90    1.90
  -6  -1   8   15.20    1.60
   6  -1  -8   13.60    1.90
  -6   1   8    9.20    1.10
   6   1  -8   11.50    1.70
  -6   1   8   12.80    1.50
   5  -1  -8   92.89    7.90
   5  -1  -8  102.99    5.60
  -5  -1   8  110.39    5.30
   5  -1  -8  104.89    5.40
   5  -1  -8  110.09    5.60
  -5  -1   8  106.09    5.50
   5   1  -8  112.69    5.70
  -5   1   8   97.89    5.40
  -5   1   8  108.49    5.50
   5   1  -8  102.49    6.60
  -4  -1   8  254.97   12.00
   4  -1  -8  256.87   12.00
  -4  -1   8  249.38   11.80
   4  -1  -8  246.98   11.80
   4  -1  -8  250.37   11.80
   4  -1  -8  247.78   12.30
   4   1  -8  221.98   15.00
   4   1  -8  254.07   11.80
   4   1  -8  240.58   12.10
  -4   1   8  255.87   11.50
  -4   1   8  241.78   11.70
   4   1  -8  255.27   11.50
  -3  -1   8  154.98    7.60
   3  -1  -8  163.28    7.90
   3  -1  -8  157.28    7.50
   3  -1  -8  155.48    8.20
  -3  -1   8  154.28    7.80
   3   1  -8  163.78    8.00
  -3   1   8  163.48    7.80
   3   1  -8  153.78    7.40
  -3   1   8  152.08    7.50
   3   1  -8  147.89   11.10
   3   1  -8  157.78    8.10
  -2  -1   8   99.69    5.10
  -2  -1   8  102.29    5.40
   2  -1  -8  100.69    5.30
   2  -1  -8   98.09    5.70
   2  -1  -8   99.99    5.00
   2  -1  -8  101.29    5.40
   2   1  -8  101.89    8.80
   2   1  -8  102.89    7.30
   2   1  -8   94.59    5.60
   2   1  -8   98.49    4.80
  -2   1   8  109.19    5.30
  -2   1   8   94.59    5.00
  -1  -1   8  116.29    6.10
   1  -1  -8  116.89    6.20
   1  -1  -8  115.69    6.00
   1  -1  -8  116.49    5.70
  -1  -1   8  117.09    5.80
  -1   1   8   95.69    5.40
   1   1  -8   91.89    7.00
   1   1  -8  110.49    5.90
   1   1  -8  113.19    5.30
   1   1  -8  115.39    6.10
   1   1  -8  117.89    9.30
  -1   1   8  119.19    5.80
   0  -1  -8    5.60    1.50
   0  -1   8    4.70    1.30
   0  -1  -8    5.60    3.80
   0  -1  -8    5.60    1.30
   0  -1   8    5.70    1.00
   0   1  -8    5.00    0.60
   0   1  -8    7.70    3.80
   0   1  -8    6.40    3.20
   0   1  -8    2.50    2.80
   0   1  -8    3.80    1.80
   0   1   8    4.70    1.20
   0   1  -8    5.50    1.60
   0   1   8    3.10    0.90
  -1  -1  -8    7.60    3.00
  -1  -1  -8    9.50    1.80
  -1  -1  -8   10.80    2.20
  -1  -1  -8   12.90    1.10
  -1  -1  -8   14.20    1.70
   1  -1   8    8.30    1.50
   1  -1   8   14.00    1.60
  -1   1  -8    9.90    2.20
  -1   1  -8    8.90    2.90
   1   1   8    6.70    1.00
  -1   1  -8    6.00    0.70
  -1   1  -8    8.60    2.70
   1   1   8    4.30    1.20
  -1   1  -8    4.50    1.90
  -2  -1  -8  107.79    5.90
   2  -1   8  110.89    5.20
  -2  -1  -8   98.29    6.40
  -2  -1  -8   90.19    5.00
  -2  -1  -8  103.39    5.70
  -2  -1  -8   94.29    6.50
   2  -1   8  106.19    5.60
  -2   1  -8  100.29    6.30
   2   1   8  118.39    5.90
   2   1   8  117.19    5.50
  -2   1  -8  102.69    5.30
  -2   1  -8  105.79    6.80
  -2   1  -8  105.89    7.10
  -2   1  -8  110.49    6.70
  -2   1  -8  118.79    9.00
   3  -1   8  574.14   28.60
  -3  -1  -8  619.54   28.80
  -3  -1  -8  584.04   29.10
  -3  -1  -8  658.83   31.30
   3  -1   8  648.14   28.40
  -3   1  -8  606.14   29.20
   3   1   8  585.54   26.10
   3   1   8  585.24   26.50
  -3   1  -8  525.95   26.90
  -3   1  -8  537.25   28.10
   4  -1   8  144.19    7.40
  -4  -1  -8  175.18   10.50
   4  -1   8  155.88    7.70
  -4  -1  -8  142.09    8.20
   4   1   8  160.88    7.50
   4   1   8  153.18    7.80
  -4   1  -8  154.18    8.40
  -4   1  -8  162.88   10.60
   5  -1   8  274.97   11.50
  -5  -1  -8  208.28   12.10
   5   1   8  270.07   12.40
  -5   1  -8  259.07   12.80
   9  -2  -8  307.67   16.90
  -9  -2   8  392.76   16.80
   9  -2  -8  386.46   16.90
  -9   2   8  380.76   17.30
  -9   2   8  357.66   17.40
   8  -2  -8  103.19    5.30
  -8  -2   8   95.69    5.20
   8  -2  -8  110.59    5.40
  -8  -2   8  105.69    5.30
  -8   2   8  128.89    6.80
   8   2  -8  121.39    6.50
   7  -2  -8  159.88    7.70
   7  -2  -8  156.18    8.60
  -7  -2   8  162.48    7.90
   7  -2  -8  155.88    7.90
  -7  -2   8  160.48    7.60
  -7   2   8  144.39    9.20
  -7   2   8  145.99    7.30
   7   2  -8  147.09    7.40
  -6  -2   8  179.68    8.40
  -6  -2   8  173.68    8.60
   6  -2  -8  163.98    8.60
   6  -2  -8  183.38    8.40
   6   2  -8  208.88   10.10
  -6   2   8  197.38    9.70
  -6   2   8  213.48   10.00
  -6   2   8  199.78   11.80
   5  -2  -8  156.98    7.90
  -5  -2   8  156.78    7.80
  -5  -2   8  154.48    7.60
   5  -2  -8  160.38    7.60
   5   2  -8  160.48    7.80
   5   2  -8  147.79    8.70
  -5   2   8  150.28    7.60
  -4  -2   8  647.04   28.50
   4  -2  -8  614.74   28.40
  -4  -2   8  607.24   28.60
   4  -2  -8  610.64   28.90
   4  -2  -8  613.34   28.60
   4   2  -8  550.24   26.60
  -4   2   8  585.74   26.20
   4   2  -8  561.54   29.50
   3  -2  -8  582.34   27.60
   3  -2  -8  582.94   27.40
  -3  -2   8  588.64   27.60
   3  -2  -8  612.24   27.70
  -3  -2   8  613.74   27.40
   3   2  -8  585.04   28.90
   3   2  -8  591.34   28.50
  -3   2   8  638.04   28.30
   3   2  -8  629.14   31.70
  -3   2   8  621.84   28.50
   3   2  -8  625.24   28.90
   3   2  -8  629.34   28.30
   2  -2  -8 1356.66   62.89
  -2  -2   8 1370.56   62.69
   2  -2  -8 1358.06   62.89
   2  -2  -8 1446.56   62.69
  -2  -2   8 1353.26   62.89
   2   2  -8 1459.45   66.19
   2   2  -8 1353.96   66.49
   2   2  -8 1458.25   65.99
  -2   2   8 1381.66   65.89
   2   2  -8 1481.45   69.29
   2   2  -8 1513.05   66.59
  -2   2   8 1508.95   66.29
   1  -2  -8  313.87   16.30
   1  -2  -8  386.66   16.30
  -1  -2   8  356.06   16.50
  -1  -2   8  333.17   16.30
   1  -2  -8  365.76   16.60
   1  -2  -8  345.47   16.50
  -1   2   8  290.67   14.00
  -1   2   8  315.17   14.30
   1   2  -8  300.17   14.20
   1   2  -8  309.27   14.70
   1   2  -8  307.77   13.90
   1   2  -8  285.07   14.70
   1   2  -8  293.67   14.40
   1   2  -8  308.37   17.50
   1   2  -8  298.77   15.50
   0  -2   8  108.09    5.50
   0  -2  -8  111.59    5.80
   0  -2  -8  101.39    5.40
   0  -2  -8  110.39    5.80
   0  -2   8  110.29    5.90
   0   2   8  113.59    5.90
   0   2  -8  125.69    9.40
   0   2   8  113.79    6.20
   0   2  -8  124.59    6.70
   0   2  -8  118.49    7.70
   0   2  -8  114.89    6.90
   0   2  -8  123.59    6.40
   0   2  -8  115.59    6.50
   1  -2   8  613.64   27.40
   1  -2   8  627.24   26.70
  -1  -2  -8  591.44   26.80
  -1  -2  -8  530.85   26.40
  -1  -2  -8  503.45   27.10
  -1   2  -8  565.34   26.70
  -1   2  -8  631.44   31.00
  -1   2  -8  588.44   27.40
   1   2   8  622.64   27.20
  -1   2  -8  509.85   27.70
  -2  -2  -8  432.36   23.50
  -2  -2  -8  503.45   23.10
  -2  -2  -8  485.95   22.90
  -2  -2  -8  556.94   23.60
   2  -2   8  485.55   22.80
   2  -2   8  500.95   23.10
  -2   2  -8  482.05   22.20
   2   2   8  463.05   21.80
  -2   2  -8  477.15   22.30
  -2   2  -8  466.15   22.50
  -2   2  -8  439.46   21.80
  -2   2  -8  462.95   24.70
  -2   2  -8  472.65   21.40
   3  -2   8  192.68    9.30
   3  -2   8  194.98    9.60
  -3  -2  -8  210.18   10.30
  -3  -2  -8  177.28   12.30
  -3  -2  -8  194.38    9.50
  -3   2  -8  147.79    8.40
  -3   2  -8  156.38    8.60
  -3   2  -8  158.98   10.60
   3   2   8  159.08    7.70
   3   2   8  138.49    7.40
  -3   2  -8  166.98    8.60
   4  -2   8   96.99    4.70
  -4  -2  -8   98.79    7.90
  -4  -2  -8   86.89    5.60
   4  -2   8   89.89    4.90
  -4   2  -8   69.29    4.90
  -4   2  -8   67.69    4.60
  -4   2  -8   76.89    7.40
   4   2   8   73.49    4.00
  -5  -2  -8   28.50    2.90
   5  -2   8   32.50    2.30
   5  -2   8   37.20    2.20
   5   2   8   21.10    1.70
  -5   2  -8   20.80    2.50
   9  -3  -8   98.89    4.90
  -9  -3   8   95.89    4.80
  -9   3   8   85.19    4.50
  -9   3   8   83.69    4.70
  -8  -3   8   78.69    4.10
  -8  -3   8   82.99    4.30
   8  -3  -8   80.89    4.20
   8  -3  -8   84.49    4.40
   8   3  -8   72.19    4.60
  -8   3   8   80.19    4.70
  -7  -3   8   37.50    2.50
   7  -3  -8   36.60    2.30
  -7  -3   8   33.80    2.20
   7  -3  -8   37.80    3.00
   7  -3  -8   36.40    2.60
   7   3  -8   28.90    2.90
  -7   3   8   29.20    4.90
  -7   3   8   37.60    3.30
   6  -3  -8   62.59    3.80
  -6  -3   8   64.19    3.50
   6  -3  -8   65.89    3.60
  -6  -3   8   65.69    3.80
  -6   3   8   76.29    5.00
  -6   3   8   76.79    6.30
  -6   3   8   63.09    6.00
   6   3  -8   73.59    4.30
  -5  -3   8   15.30    1.60
   5  -3  -8   16.90    1.80
   5  -3  -8   12.60    1.50
  -5   3   8   17.30    3.50
   5   3  -8   10.90    3.40
   5   3  -8   15.10    1.80
  -5   3   8   11.10    1.70
  -4  -3   8  109.49    5.80
   4  -3  -8  113.29    5.90
   4  -3  -8  107.89    7.00
  -4  -3   8  105.79    5.50
   4  -3  -8  113.79    5.60
  -4   3   8  107.39    5.50
   4   3  -8  106.49    5.50
   4   3  -8  101.99    6.20
   4   3  -8  101.79    6.40
   4   3  -8   98.59   10.10
  -3  -3   8  127.29    6.60
   3  -3  -8  125.69    6.60
   3  -3  -8  133.99    6.70
  -3  -3   8  124.59    6.30
   3  -3  -8  132.99    6.40
   3   3  -8  127.29    7.30
  -3   3   8  127.49    6.60
   3   3  -8  127.19   10.40
   3   3  -8  136.19    6.60
   3   3  -8  128.09    7.30
   2  -3  -8  726.93   34.00
  -2  -3   8  738.33   33.70
   2  -3  -8  712.83   33.90
  -2  -3   8  743.43   33.90
   2  -3  -8  757.72   33.70
   2   3  -8  762.12   35.00
   2   3  -8  772.72   36.10
   2   3  -8  734.63   34.90
   2   3  -8  758.12   38.00
   2   3  -8  713.33   34.50
  -2   3   8  759.12   34.50
   1  -3  -8   60.79    3.70
  -1  -3   8   60.19    3.40
   1  -3  -8   59.99    3.70
  -1  -3   8   58.39    3.80
   1  -3  -8   58.89    3.50
   1   3  -8   59.09    6.80
   1   3  -8   55.49    4.30
  -1   3   8   60.59    3.50
   1   3  -8   55.69    3.70
   1   3  -8   59.09    5.90
   1   3  -8   55.79    3.60
   1   3  -8   52.29    4.30
   1   3  -8   55.29    2.90
   0  -3  -8   60.99    4.40
   0  -3   8   63.19    4.10
   0  -3   8   57.09    4.40
   0  -3  -8   62.99    3.80
   0   3  -8   72.49    7.00
   0   3  -8   74.19    4.80
   0   3  -8   69.79    3.30
   0   3  -8   72.59    4.50
   0   3   8   62.49    4.60
   0   3  -8   61.99   10.10
   0   3  -8   72.99    5.20
   0   3  -8   70.89    4.90
  -1  -3  -8  148.39    7.20
  -1  -3  -8  124.39    8.60
  -1  -3  -8  141.59    7.30
   1  -3   8  140.89    7.30
   1  -3   8  146.19    7.00
  -1   3  -8  162.08    7.50
  -1   3  -8  162.28    8.40
  -1   3  -8  160.48    9.20
  -1   3  -8  167.38   11.40
  -1   3  -8  159.58    8.70
   1   3   8  160.88    8.10
  -1   3  -8  176.58    8.60
  -1   3  -8  159.38    8.90
   2  -3   8  337.37   15.60
  -2  -3  -8  346.97   15.70
  -2  -3  -8  319.07   22.70
   2  -3   8  329.37   15.90
  -2  -3  -8  332.37   16.00
  -2   3  -8  362.26   17.20
  -2   3  -8  352.26   19.80
  -2   3  -8  348.37   17.50
  -2   3  -8  346.77   16.90
   2   3   8  372.56   16.80
   3  -3   8    5.60    1.50
  -3  -3  -8    4.80    1.40
   3  -3   8    4.30    1.00
  -3  -3  -8    4.40    2.30
   3   3   8    2.40    1.80
  -3   3  -8    1.00    2.10
  -3   3  -8    2.00    1.80
  -3   3  -8    3.70    3.60
  -3   3  -8    2.70    1.60
  -4  -3  -8   18.40    2.90
   4  -3   8   17.30    2.50
   4  -3   8   21.00    1.60
  -4  -3  -8   18.40    5.60
   4   3   8   21.80    1.80
  -4   3  -8   19.10    2.60
  -4   3  -8   20.90    2.70
  -4   3  -8   19.50    2.30
  -4   3  -8   18.90    4.80
   8  -4  -8  251.97   11.30
   8  -4  -8  214.58   11.90
   8  -4  -8  254.77   11.50
  -8  -4   8  251.47   11.50
  -8  -4   8  245.58   11.30
  -8   4   8  240.38   11.20
   8   4  -8  210.88   11.20
  -8   4   8  248.28   11.40
   7  -4  -8  181.88    8.80
  -7  -4   8  175.08    9.00
  -7  -4   8  183.78    8.70
   7  -4  -8  179.58    8.90
  -7   4   8  152.28    8.60
  -7   4   8  141.69    7.50
  -7   4   8  158.18    8.00
   7   4  -8  145.89    7.40
  -6  -4   8  337.27   16.40
  -6  -4   8  346.37   16.20
   6  -4  -8  361.16   16.30
   6  -4  -8  352.96   16.40
  -6   4   8  296.77   15.10
   6   4  -8  297.67   14.00
  -6   4   8  290.27   14.40
   5  -4  -8  460.35   21.90
   5  -4  -8  480.05   21.80
  -5  -4   8  466.85   21.70
  -5  -4   8  473.35   21.90
  -5   4   8  422.66   20.60
   5   4  -8  432.36   19.30
   5   4  -8  380.96   20.30
  -5   4   8  411.06   19.70
   4  -4  -8  401.06   18.80
  -4  -4   8  399.46   18.80
   4  -4  -8  396.06   18.60
  -4  -4   8  404.96   18.60
  -4   4   8  321.47   16.20
   4   4  -8  304.17   16.30
  -4   4   8  333.47   17.00
   4   4  -8  342.57   16.00
   4   4  -8  322.07   19.50
   4   4  -8  347.87   15.60
   3  -4  -8  594.14   26.90
  -3  -4   8  599.64   26.80
  -3  -4   8  561.54   27.00
   3  -4  -8  575.74   27.10
   3  -4  -8  582.24   27.00
   3   4  -8  514.75   24.00
   3   4  -8  489.95   27.20
  -3   4   8  491.75   23.50
   3   4  -8  522.05   23.60
   3   4  -8  514.45   24.20
  -2  -4   8 1102.29   50.19
  -2  -4   8 1107.09   50.79
   2  -4  -8 1174.18   50.49
   2  -4  -8 1071.89   50.39
   2  -4  -8 1039.70   50.19
  -2   4   8 1090.19   49.50
   2   4  -8 1058.99   49.90
   2   4  -8 1138.69   53.59
   2   4  -8 1017.20   49.40
   2   4  -8 1082.79   49.90
   1  -4  -8  230.38   10.60
   1  -4  -8  217.58   10.90
   1  -4  -8  219.88   10.80
  -1  -4   8  214.38   10.80
  -1  -4   8  229.88   10.60
   1   4  -8  275.67   13.80
   1   4  -8  280.87   14.20
   1   4  -8  275.67   13.30
  -1   4   8  278.77   13.10
   1   4  -8  269.47   13.60
   1   4  -8  274.07   13.10
   1   4  -8  274.67   16.80
   0  -4   8  307.07   14.50
   0  -4  -8  306.67   14.40
   0  -4  -8  316.87   14.70
   0  -4   8  304.77   14.70
   0  -4  -8  309.17   14.80
   0   4   8  359.36   17.10
   0   4  -8  373.06   18.20
   0   4  -8  371.96   17.20
   0   4  -8  363.46   17.40
   0   4  -8  351.66   17.80
   0   4  -8  366.96   20.80
   0   4  -8  375.86   17.70
   1  -4   8  378.76   18.30
   1  -4   8  437.76   18.10
  -1  -4  -8  367.66   18.40
  -1  -4  -8  384.96   18.20
  -1  -4  -8  352.66   17.90
  -1  -4  -8  409.66   19.40
  -1   4  -8  418.46   18.80
  -1   4  -8  402.06   19.00
  -1   4  -8  407.66   19.30
  -1   4  -8  392.06   22.10
   1   4   8  405.46   18.80
  -1   4  -8  389.96   19.70
  -2  -4  -8  245.28   12.70
  -2  -4  -8  240.78   11.70
   2  -4   8  254.27   11.60
   2  -4   8  244.08   11.90
  -2   4  -8  203.48   13.10
  -2   4  -8  213.58   10.40
   2   4   8  236.88   10.60
  -2   4  -8  200.08   11.00
  -2   4  -8  213.58   10.70
  -3  -4  -8  127.59    6.60
  -3  -4  -8  132.99    7.40
   3  -4   8  137.29    6.50
   3  -4   8  134.99    7.60
  -3   4  -8  145.19    9.80
   3   4   8  156.08    7.10
  -3   4  -8  138.79    7.80
  -3   4  -8  143.39    7.50
  -3   4  -8  137.29    7.20
  -4  -4  -8   20.30    3.20
   4  -4   8   24.10    1.80
  -4  -4  -8   23.10    6.80
  -4   4  -8   14.10    1.70
  -4   4  -8   15.30    2.50
  -4   4  -8   13.20    5.80
  -4   4  -8   11.60    1.70
  -8  -5   8  101.09    4.70
   8  -5  -8   94.59    5.00
  -8  -5   8   99.69    5.10
   8  -5  -8   98.39    4.80
  -8   5   8   85.89    5.00
  -8   5   8   90.09    5.00
  -7  -5   8   79.59    3.80
   7  -5  -8   75.89    4.10
  -7  -5   8   74.39    4.00
   7  -5  -8   75.89    3.90
  -7   5   8   66.89    4.30
   7   5  -8   59.89    3.80
  -7   5   8   66.09    4.90
  -7   5   8   64.69    4.90
   6  -5  -8  140.89    6.70
  -6  -5   8  123.49    6.20
  -6  -5   8  128.59    6.40
   6  -5  -8  120.69    6.30
  -6   5   8  120.39    7.10
   6   5  -8  143.19    6.70
  -6   5   8  121.59    7.00
   5  -5  -8   38.30    2.50
  -5  -5   8   40.30    2.80
   5  -5  -8   39.30    2.70
  -5  -5   8   39.80    2.40
   5   5  -8   41.20    2.80
  -5   5   8   39.20    4.30
  -5   5   8   32.90    5.10
   4  -5  -8   10.30    1.20
   4  -5  -8    8.30    1.40
  -4  -5   8    8.30    1.10
  -4  -5   8    6.30    1.50
  -4   5   8    6.70    2.30
   4   5  -8    5.60    5.70
   4   5  -8    9.90    1.90
   4   5  -8    7.70    1.30
   3  -5  -8  120.79    7.50
   3  -5  -8  135.69    6.60
   3  -5  -8  134.89    6.80
  -3  -5   8  137.89    6.60
  -3  -5   8  132.69    7.00
   3   5  -8  133.79    6.70
   3   5  -8  139.79    7.30
   3   5  -8  130.59    8.20
  -3   5   8  132.09    8.20
   3   5  -8  122.79    8.90
   3   5  -8  132.59   11.00
  -2  -5   8  367.06   17.40
   2  -5  -8  371.06   17.40
   2  -5  -8  377.36   17.20
   2  -5  -8  347.27   17.50
  -2  -5   8  380.86   17.20
   2   5  -8  364.36   18.20
   2   5  -8  368.86   17.70
  -2   5   8  390.36   18.80
   2   5  -8  365.46   17.30
   2   5  -8  367.16   21.10
   2   5  -8  350.46   18.00
   1  -5  -8   42.70    3.60
   1  -5  -8   45.10    2.90
  -1  -5   8   38.30    4.00
   1  -5  -8   41.00    2.60
  -1  -5   8   37.90    2.70
   1   5  -8   37.50    4.60
  -1   5   8   42.70    5.30
   1   5  -8   38.00    4.70
   1   5  -8   37.90    2.90
   1   5  -8   39.80    3.40
   1   5  -8   38.60    6.30
   1   5  -8   37.40    3.00
   0  -5   8  149.69    7.30
   0  -5  -8  150.48    7.50
   0   5  -8  158.28    7.90
   0   5  -8  163.88    8.40
   0   5   8  153.48    9.60
   0   5  -8  171.08    9.00
   0   5  -8  158.48   11.30
   0   5  -8  155.38    8.10
   1  -5   8  121.89    6.80
  -1  -5  -8  139.69    6.40
  -1  -5  -8  128.49    6.60
   1   5   8  121.39    8.80
  -1   5  -8  126.99    6.40
  -1   5  -8  121.59    7.20
  -1   5  -8  108.29    9.10
  -1   5  -8  127.09    6.40
  -1   5  -8  130.79    6.70
  -2  -5  -8  285.77   13.80
   2  -5   8  299.87   13.70
  -2   5  -8  273.77   12.80
  -2   5  -8  260.37   13.30
  -2   5  -8  280.87   13.10
  -2   5  -8  259.67   15.40
  -3  -5  -8   50.09    5.20
   3  -5   8   55.29    3.20
  -3  -5  -8   49.99    3.00
  -3   5  -8   58.69    3.50
  -3   5  -8   64.19    4.30
  -3   5  -8   62.09    6.90
  -3   5  -8   57.39    3.70
  -7  -6   8  109.29    5.50
   7  -6  -8  122.09    5.70
   7  -6  -8  113.49    5.60
  -7  -6   8  112.69    5.60
  -7   6   8  104.19    6.20
  -7   6   8  113.59    7.20
   7   6  -8  117.49    6.70
   6  -6  -8   54.39    2.80
  -6  -6   8   51.99    2.80
   6  -6  -8   51.89    3.00
  -6  -6   8   50.39    3.10
   6   6  -8   62.79    3.50
  -6   6   8   57.29    5.20
  -6   6   8   59.99    4.50
   5  -6  -8  337.47   15.60
  -5  -6   8  327.87   15.60
  -5  -6   8  324.77   15.40
   5  -6  -8  340.67   15.50
  -5   6   8  305.47   15.10
   5   6  -8  295.57   14.10
  -4  -6   8  135.19    7.10
   4  -6  -8  138.99    6.70
  -4  -6   8  141.29    7.20
   4  -6  -8  136.59    6.90
  -4   6   8  161.58    9.30
   4   6  -8  163.18    8.10
   4   6  -8  170.88   12.40
   3  -6  -8  135.29    6.90
  -3  -6   8  129.39    7.30
   3  -6  -8  135.79    6.70
  -3  -6   8  144.29    6.70
   3   6  -8  111.99    6.30
   3   6  -8  112.89    5.80
  -3   6   8  116.49    7.10
  -2  -6   8   78.99    5.20
   2  -6  -8   88.39    4.80
   2  -6  -8   93.59    4.50
   2   6  -8   68.79    5.70
   2   6  -8   64.39    7.40
   2   6  -8   72.89    4.50
  -2   6   8   73.59    5.50
   2   6  -8   68.09    3.90
  -1  -6   8  325.97   14.50
   1  -6  -8  295.07   14.70
   1  -6  -8  309.77   14.50
   1   6  -8  355.26   20.40
   1   6  -8  344.07   17.20
   1   6  -8  367.46   18.40
  -1   6   8  426.76   20.10
   1   6  -8  359.76   17.70
   0  -6  -8  274.27   12.80
   0  -6   8  288.67   12.80
   0  -6  -8  255.67   13.40
   0   6  -8  283.37   14.10
   0   6  -8  277.67   13.90
   0   6   8  271.77   14.60
   0   6  -8  288.17   14.40
   0   6  -8  300.27   13.40
   1  -6   8   17.30    2.00
  -1  -6  -8   18.30    1.80
  -1  -6  -8   13.90    1.80
  -1   6  -8   18.50    2.90
  -1   6  -8   21.30    2.60
  -1   6  -8   21.40    4.50
  -1   6  -8   24.20    2.40
  -1   6  -8   22.40    2.00
   2  -6   8    9.80    1.30
  -2  -6  -8   14.60    1.60
  -2   6  -8    8.20    1.70
  -2   6  -8    7.20    3.10
  -2   6  -8    6.90    1.30
  -2   6  -8    9.30    1.20
   5  -7  -8   95.49    5.00
  -5  -7   8   93.99    4.60
   5  -7  -8   91.19    4.60
  -5   7   8   79.69    5.10
   5   7  -8   83.09    4.20
   4  -7  -8   30.90    2.20
   4  -7  -8   31.20    2.00
  -4  -7   8   29.70    2.00
  -4   7   8   28.00    3.10
   4   7  -8   31.90    2.20
   4   7  -8   28.60    7.10
   3  -7  -8   84.59    4.30
  -3  -7   8   88.59    4.30
   3  -7  -8   79.79    4.50
   3   7  -8   81.69    4.30
  -3   7   8   84.09    5.40
   3   7  -8   78.49    7.60
  -2  -7   8   71.69    3.80
   2  -7  -8   67.59    3.60
   2  -7  -8   67.89    3.80
  -2   7   8   76.39    4.90
   2   7  -8   54.69    6.60
   2   7  -8   70.89    5.40
   2   7  -8   69.99    4.20
   2   7  -8   64.99    3.60
   1  -7  -8   77.69    4.20
  -1  -7   8   76.59    4.20
   1  -7  -8   81.89    4.00
   1   7  -8   66.09    4.70
   1   7  -8   67.39    3.80
   1   7  -8   68.49    7.00
  -1   7   8   77.09    5.50
   1   7  -8   78.99    4.30
   0  -7  -8  113.09    5.40
   0  -7  -8  114.79    5.60
   0  -7   8  106.59    5.70
   0   7  -8  114.29    6.20
   0   7  -8  113.29    5.80
   0   7  -8  124.89    5.90
   0   7  -8   92.59    7.80
  -1  -7  -8   43.80    2.70
  -1   7  -8   31.70    3.00
  -1   7  -8   34.90    2.30
  -1   7  -8   36.00    2.70
  -1   7  -8   24.80    5.10
   2  -8  -8   70.89    3.80
   2  -8  -8   72.29    3.60
  -2   8   8   59.89    5.50
  -9   0   9   12.80    1.70
   8   0  -9   48.20    3.30
   8   0  -9   49.60    3.30
  -8   0   9   50.39    2.90
  -7   0   9  214.28   10.40
   7   0  -9  221.08   10.50
  -6   0   9    1.40    1.00
  -6   0   9    1.70    1.30
   6   0  -9    3.80    1.40
   5   0  -9   10.50    1.60
   5   0  -9   12.80    1.30
  -5   0   9   12.80    1.30
  -5   0   9    8.30    1.20
   4   0  -9  120.09    7.20
  -4   0   9  124.69    6.80
   4   0  -9  116.59   13.20
   4   0  -9  121.39    5.90
   3   0  -9  911.51   42.70
  -3   0   9  926.01   42.70
   3   0  -9  918.31   43.30
   3   0  -9  941.41   45.90
  -3   0   9  915.81   42.90
   3   0  -9  997.20   42.90
   2   0  -9   18.90    5.60
   2   0  -9   21.10    2.10
  -2   0   9   17.40    1.60
   2   0  -9   18.20    1.30
   2   0  -9   14.20    2.20
  -2   0   9   20.70    2.10
  -1   0   9   90.39    5.20
   1   0  -9   84.09    4.20
   1   0  -9   85.59    5.30
  -1   0   9   70.69    4.60
   0   0  -9   42.50    4.10
   0   0  -9   40.10    2.40
   0   0  -9   43.10    3.80
   0   0  -9   44.90    6.20
   0   0   9   46.40    3.00
   0   0   9   43.40    2.60
  -1   0  -9    7.10    3.70
   1   0   9    5.20    1.20
  -1   0  -9    2.60    3.30
  -1   0  -9    8.60    2.70
   1   0   9    6.70    1.00
  -1   0  -9    3.90    0.70
   2   0   9   44.00    3.00
  -2   0  -9   48.70    5.80
   2   0   9   46.60    2.70
   3   0   9  156.58    7.70
  -3   0  -9  176.98   10.40
   3   0   9  162.18    8.00
  -3   0  -9  153.68    8.60
  -4   0  -9  100.79   11.40
  -4   0  -9  116.49    6.40
   4   0   9  127.39    5.80
  -9  -1   9   54.69    3.50
   9  -1  -9   49.70    3.00
  -9  -1   9   47.00    2.80
   9  -1  -9   43.90    4.20
  -9   1   9   62.79    3.80
   8  -1  -9  166.58    8.10
  -8  -1   9  167.28    8.10
  -8   1   9  168.28    8.30
  -8   1   9  156.88    7.80
   8   1  -9  158.88    7.90
   7  -1  -9  210.48    9.80
  -7  -1   9  195.98    9.50
  -7  -1   9  201.28    9.80
  -7   1   9  189.78   11.50
  -7   1   9  191.98    9.30
   7   1  -9  199.88    9.40
   7   1  -9  191.68    9.60
  -6  -1   9   83.39    4.30
   6  -1  -9   89.39    4.70
  -6  -1   9   78.79    4.50
  -6   1   9   67.19    4.00
   6   1  -9   78.59    4.30
   6   1  -9   67.79    4.60
  -5  -1   9  220.68   10.40
  -5  -1   9  216.78   10.60
   5  -1  -9  223.58   10.70
   5   1  -9  234.28   13.60
   5   1  -9  238.18   11.50
  -5   1   9  243.08   11.50
  -4  -1   9  143.79    7.60
   4  -1  -9  157.98   14.90
  -4  -1   9  155.48    7.30
   4  -1  -9  160.28    7.70
   4  -1  -9  141.79    7.30
   4  -1  -9  143.79    8.40
   4   1  -9  172.18    7.90
   4   1  -9  167.08    9.20
   4   1  -9  156.78   16.20
  -4   1   9  149.88    8.20
  -4   1   9  183.08    8.30
   3  -1  -9 1310.57   59.49
  -3  -1   9 1343.87   59.09
   3  -1  -9 1248.98   58.99
  -3  -1   9 1229.58   59.39
   3  -1  -9 1338.27   59.19
   3   1  -9 1165.78   56.79
   3   1  -9 1263.17   56.49
  -3   1   9 1190.08   56.49
   3   1  -9 1266.27   57.19
   3   1  -9 1319.07   60.09
   2  -1  -9  563.84   26.00
   2  -1  -9  607.44   26.10
  -2  -1   9  554.34   26.20
   2  -1  -9  546.05   25.80
   2  -1  -9  559.54   26.40
  -2  -1   9  527.45   25.90
  -2   1   9  563.74   25.80
   2   1  -9  550.44   25.70
   2   1  -9  538.55   26.30
  -2   1   9  585.24   26.40
   2   1  -9  529.55   29.40
   2   1  -9  590.34   26.00
  -1  -1   9  421.36   19.90
  -1  -1   9  423.66   19.70
   1  -1  -9  437.36   19.90
   1  -1  -9  413.86   20.30
   1  -1  -9  440.16   19.90
   1  -1  -9  408.96   19.60
  -1   1   9  470.95   21.70
   1   1  -9  452.35   25.10
   1   1  -9  454.85   21.60
  -1   1   9  473.95   22.00
   1   1  -9  464.25   22.40
   1   1  -9  508.45   22.00
   0  -1  -9  232.08   11.20
   0  -1  -9  224.08   11.00
   0  -1  -9  235.58   11.30
   0  -1   9  235.38   11.00
   0  -1   9  231.68   11.20
   0  -1  -9  233.98   11.80
   0   1  -9  221.58   14.00
   0   1   9  240.08   10.60
   0   1  -9  204.08   12.20
   0   1  -9  237.08   11.00
   0   1  -9  214.28   10.40
   0   1   9  231.68   10.80
   0   1  -9  210.48   11.30
  -1  -1  -9  380.06   19.30
  -1  -1  -9  375.66   18.50
   1  -1   9  402.06   18.20
  -1  -1  -9  378.26   18.70
   1  -1   9  386.36   18.40
  -1  -1  -9  434.56   19.40
  -1   1  -9  367.96   20.00
   1   1   9  381.76   16.80
  -1   1  -9  389.06   18.30
  -1   1  -9  335.77   17.90
   1   1   9  366.86   17.10
  -1   1  -9  336.37   16.70
  -2  -1  -9    9.90    3.60
   2  -1   9    9.30    1.30
  -2  -1  -9   10.00    2.90
   2  -1   9    9.70    1.10
  -2   1  -9   21.60    4.60
   2   1   9   24.60    2.00
   2   1   9   21.10    2.10
  -3  -1  -9   70.59    6.30
   3  -1   9   67.79    3.50
   3  -1   9   65.79    3.70
  -3  -1  -9   62.39    4.80
   3   1   9   67.19    3.60
   3   1   9   56.69    3.50
  -3   1  -9   65.49    4.70
  -3   1  -9   64.89    6.30
  -4  -1  -9   34.10    3.40
   4  -1   9   39.10    2.40
  -4   1  -9   38.00    3.40
   4   1   9   45.70    2.60
   9  -2  -9    2.90    0.90
  -9  -2   9    2.70    0.80
  -9   2   9    5.60    1.20
  -9   2   9    4.40    1.10
  -8  -2   9   20.30    1.70
   8  -2  -9   20.60    1.80
  -8   2   9   23.20    2.50
   8   2  -9   19.80    1.90
   7  -2  -9  118.99    6.00
  -7  -2   9  113.89    5.70
  -7  -2   9  119.39    5.90
  -7   2   9  116.29    6.30
  -7   2   9  104.09    7.60
   7   2  -9  119.59    5.90
  -7   2   9  100.59    5.70
  -6  -2   9  111.99    6.00
   6  -2  -9  116.59    6.00
  -6  -2   9  120.99    5.70
  -6   2   9  124.19    6.10
   6   2  -9  123.19    6.20
  -6   2   9  107.59    7.90
  -5  -2   9   24.60    1.80
   5  -2  -9   22.90    2.20
  -5  -2   9   24.50    2.20
   5  -2  -9   20.80    2.00
  -5   2   9   24.80    2.40
   5   2  -9   27.90    2.60
   5   2  -9   24.30    4.50
   4  -2  -9   82.99    4.50
  -4  -2   9   80.19    4.40
  -4  -2   9   80.89    4.20
   4  -2  -9   78.99    4.60
   4  -2  -9   77.79    6.20
   4   2  -9   77.19    4.40
   4   2  -9   71.49    5.80
   4   2  -9   74.19    8.90
  -4   2   9   80.99    4.30
  -3  -2   9  277.87   13.00
   3  -2  -9  277.17   13.20
   3  -2  -9  266.67   13.80
  -3  -2   9  281.07   13.20
   3   2  -9  265.67   13.20
   3   2  -9  274.67   13.90
   3   2  -9  284.57   14.10
  -3   2   9  288.37   13.20
   3   2  -9  269.27   16.60
   3   2  -9  277.77   12.80
  -2  -2   9   35.40    2.40
  -2  -2   9   36.20    2.80
   2  -2  -9   36.70    3.00
   2  -2  -9   37.80    4.10
   2  -2  -9   41.10    3.00
   2   2  -9   39.10    3.10
   2   2  -9   38.30    4.70
   2   2  -9   39.80    2.20
  -2   2   9   44.70    3.20
  -2   2   9   43.90    2.90
   2   2  -9   44.70    6.30
   2   2  -9   38.80    4.00
  -1  -2   9  501.25   23.60
   1  -2  -9  530.25   23.80
  -1  -2   9  510.65   23.80
   1  -2  -9  507.25   23.90
  -1   2   9  515.55   22.50
  -1   2   9  469.45   22.10
   1   2  -9  506.25   23.00
   1   2  -9  504.95   22.40
   1   2  -9  443.46   25.40
   1   2  -9  431.76   22.80
   1   2  -9  500.65   22.10
   0  -2   9  262.37   12.30
   0  -2  -9  211.78   13.50
   0  -2   9  263.57   12.00
   0  -2  -9  268.47   12.20
   0  -2  -9  259.37   12.40
   0   2  -9  256.07   12.00
   0   2   9  275.07   12.10
   0   2  -9  258.17   13.60
   0   2  -9  274.07   12.50
   0   2   9  265.47   12.40
   0   2  -9  248.68   13.50
   0   2  -9  264.77   15.60
   0   2  -9  230.38   12.90
   1  -2   9  201.78    9.70
  -1  -2  -9  188.88   10.50
  -1  -2  -9  211.18    9.90
   1  -2   9  206.68    9.90
   1   2   9  188.08   10.40
   1   2   9  217.88   10.10
  -1   2  -9  215.98   13.20
  -1   2  -9  199.68   10.80
  -1   2  -9  211.38   11.10
  -2  -2  -9    6.90    3.10
   2  -2   9    7.50    1.00
   2  -2   9    5.50    1.60
  -2  -2  -9    2.00    3.30
  -2   2  -9   10.80    2.60
   2   2   9    7.70    1.20
  -2   2  -9   12.70    3.60
  -2   2  -9    9.00    2.90
  -3  -2  -9   61.39    6.00
  -3  -2  -9   51.99    5.50
   3  -2   9   63.59    3.50
  -3   2  -9   63.89    4.50
  -3   2  -9   61.19    5.90
   3   2   9   68.39    3.60
   4  -2   9   32.90    1.90
   4  -2   9   32.60    2.20
  -4   2  -9   29.80    3.00
   4   2   9   30.60    2.00
   8  -3  -9  104.99    5.00
  -8  -3   9   87.89    5.50
  -8  -3   9  102.79    5.00
  -8   3   9  117.09    6.10
  -8   3   9  115.59    5.80
   8   3  -9  104.09    5.70
  -7  -3   9  123.19    6.00
   7  -3  -9  122.69    6.30
  -7  -3   9  130.39    6.30
   7  -3  -9  122.79    6.20
  -7   3   9  124.99    6.90
  -7   3   9  130.29    7.80
   7   3  -9  127.09    6.40
   6  -3  -9  168.08    8.20
  -6  -3   9  165.48    8.20
   6  -3  -9  150.18    8.40
  -6  -3   9  179.58    8.00
  -6   3   9  229.38   11.80
   6   3  -9  235.88   11.40
  -6   3   9  246.48   12.70
  -5  -3   9  529.15   25.10
   5  -3  -9  568.44   24.90
   5  -3  -9  522.55   25.10
  -5  -3   9  542.65   24.90
   5   3  -9  530.65   23.80
  -5   3   9  504.55   24.20
  -5   3   9  532.85   25.10
  -5   3   9  481.85   23.60
   4  -3  -9  410.66   18.80
  -4  -3   9  406.66   18.80
  -4  -3   9  406.26   19.00
   4  -3  -9  413.26   19.10
   4  -3  -9  394.16   20.40
  -4   3   9  399.76   19.10
   4   3  -9  379.66   21.90
   4   3  -9  399.76   18.40
  -4   3   9  390.16   18.30
   4   3  -9  397.76   19.40
   3  -3  -9  601.94   26.80
  -3  -3   9  588.54   26.60
  -3  -3   9  578.54   26.70
   3  -3  -9  535.75   27.80
   3  -3  -9  549.54   26.80
   3  -3  -9  601.94   26.50
   3   3  -9  536.25   24.50
  -3   3   9  520.45   23.50
   3   3  -9  437.56   23.90
   3   3  -9  529.85   23.60
   3   3  -9  515.95   27.10
   2  -3  -9  266.07   12.90
  -2  -3   9  279.17   12.90
  -2  -3   9  271.67   13.10
   2  -3  -9  272.17   13.20
   2  -3  -9  286.17   13.20
   2   3  -9  242.98   12.40
   2   3  -9  243.18   15.10
   2   3  -9  241.68   11.50
  -2   3   9  255.57   11.50
   2   3  -9  217.48   11.90
   1  -3  -9 1044.20   49.80
   1  -3  -9 1093.09   49.70
  -1  -3   9 1116.09   49.70
  -1  -3   9 1084.59   49.50
   1   3  -9 1103.29   49.30
   1   3  -9 1070.69   48.30
   1   3  -9 1017.20   48.90
   1   3  -9 1052.09   49.20
  -1   3   9 1068.69   48.60
   1   3  -9 1041.80   51.89
   1   3  -9 1073.19   48.50
   0  -3   9   40.50    2.90
   0  -3  -9   37.80    2.90
   0  -3  -9   37.10    3.30
   0  -3   9   39.20    2.50
   0   3  -9   47.90    3.60
   0   3   9   44.60    2.90
   0   3  -9   43.60    6.00
   0   3  -9   45.60    5.50
   0   3  -9   40.90    4.00
   1  -3   9   17.20    1.60
  -1  -3  -9   15.80    1.70
  -1  -3  -9   12.40    2.50
   1  -3   9   20.50    2.10
  -1   3  -9   10.30    3.40
   1   3   9   12.70    1.40
  -1   3  -9   14.90    4.40
  -1   3  -9   16.00    1.90
   2  -3   9  152.58    7.20
   2  -3   9  146.59    7.50
  -2  -3  -9  151.58    7.40
  -2   3  -9  176.88   11.30
  -2   3  -9  172.48    9.40
  -2   3  -9  177.68    9.10
   2   3   9  185.78    8.60
   3  -3   9  145.79    7.50
  -3  -3  -9  138.49    9.50
  -3  -3  -9  179.08   11.30
  -3   3  -9  116.69    6.90
  -3   3  -9  115.79    7.10
  -3   3  -9  151.48   10.50
   3   3   9  141.69    6.50
  -8  -4   9   71.49    3.90
  -8  -4   9   83.39    4.30
  -8   4   9  101.19    5.50
  -8   4   9   97.29    5.20
   7  -4  -9   18.70    2.00
   7  -4  -9   17.30    1.80
  -7  -4   9   21.30    1.50
  -7  -4   9   21.00    1.80
  -7   4   9   17.10    2.10
  -7   4   9   14.40    2.40
   7   4  -9   15.60    1.60
  -7   4   9   15.40    2.10
  -6  -4   9   42.10    2.70
   6  -4  -9   43.10    2.60
  -6  -4   9   42.00    2.70
  -6   4   9   37.60    3.40
  -6   4   9   33.50    3.80
  -6   4   9   35.80    4.10
   6   4  -9   38.00    2.80
   5  -4  -9   22.20    1.80
   5  -4  -9   16.10    1.90
  -5  -4   9   19.20    1.60
  -5  -4   9   18.70    2.00
  -5   4   9   20.00    3.10
  -5   4   9   26.70    4.00
   5   4  -9   18.90    2.10
   4  -4  -9   30.80    2.50
   4  -4  -9   35.10    2.30
  -4  -4   9   34.10    2.20
  -4  -4   9   34.00    2.60
  -4   4   9   38.10    4.80
   4   4  -9   30.90    8.40
   4   4  -9   33.30    2.60
  -3  -4   9   92.19    4.70
   3  -4  -9   96.49    4.80
   3  -4  -9   76.49    6.10
   3  -4  -9   95.39    5.00
  -3  -4   9   93.69    5.00
   3   4  -9   86.69    4.70
   3   4  -9   86.99    8.60
  -3   4   9   83.29    4.90
  -3   4   9   88.39    6.60
   3   4  -9   81.39    5.40
   2  -4  -9   48.10    2.80
   2  -4  -9   40.10    3.80
  -2  -4   9   40.80    2.60
  -2  -4   9   40.90    3.20
   2  -4  -9   40.90    3.00
   2   4  -9   38.60    6.20
  -2   4   9   37.50    3.00
   2   4  -9   39.30    2.80
   2   4  -9   34.90    3.50
  -1  -4   9  289.07   13.50
   1  -4  -9  301.17   14.10
   1  -4  -9  298.47   13.80
  -1  -4   9  267.77   13.70
   1  -4  -9  285.27   13.70
   1   4  -9  259.17   13.10
   1   4  -9  272.27   16.10
   1   4  -9  258.87   12.70
   1   4  -9  273.57   14.50
  -1   4   9  273.37   12.70
   0  -4  -9  163.48    8.30
   0  -4   9  168.78    8.40
   0  -4   9  163.38    8.10
   0  -4  -9  193.18   10.10
   0   4  -9  145.59    7.80
   0   4   9  135.89    9.20
   0   4  -9  154.38    7.40
   0   4  -9  140.49   10.30
   0   4  -9  155.08   10.00
   0   4   9  147.49    7.70
   1  -4   9   37.70    3.10
   1  -4   9   35.70    2.30
  -1  -4  -9   35.50    2.60
   1   4   9   28.60    2.40
  -1   4  -9   29.10    3.90
  -1   4  -9   28.00    5.00
  -1   4  -9   24.10    2.40
   1   4   9   31.70    4.30
  -1   4  -9   25.40    3.00
   2  -4   9  131.29    6.20
   2  -4   9  126.19    6.60
  -2  -4  -9  129.19    6.40
  -2   4  -9  137.69    9.10
   2   4   9  136.79    6.70
  -2   4  -9  126.69    7.30
  -2   4  -9  142.99    7.10
  -3  -4  -9   55.79    5.50
   3  -4   9   54.19    2.90
  -3   4  -9   48.00    5.40
  -3   4  -9   53.19    3.80
   7  -5  -9  412.56   19.00
  -7  -5   9  443.86   19.40
   7  -5  -9  414.96   19.20
  -7  -5   9  392.36   19.10
   7   5  -9  363.56   17.00
  -7   5   9  358.16   17.90
  -7   5   9  382.66   17.70
  -6  -5   9  761.22   36.00
  -6  -5   9  772.92   35.80
   6  -5  -9  794.72   36.00
   6  -5  -9  812.92   35.80
   6   5  -9  839.42   35.90
  -6   5   9  718.63   36.20
  -6   5   9  791.92   36.60
   5  -5  -9   46.30    2.80
  -5  -5   9   49.20    2.80
   5  -5  -9   55.09    3.00
  -5  -5   9   49.80    3.10
  -5   5   9   34.40    3.70
   5   5  -9   31.70    2.40
   4  -5  -9  122.69    6.20
  -4  -5   9  129.39    6.20
  -4  -5   9  118.09    6.30
   4  -5  -9  122.09    6.20
  -4   5   9  121.19    7.60
   4   5  -9  133.49   10.90
   4   5  -9  119.49    6.30
  -3  -5   9   80.49    4.60
   3  -5  -9   71.09    4.40
   3  -5  -9   79.69    4.40
  -3  -5   9   85.29    4.10
   3   5  -9   92.69    5.70
  -3   5   9  116.29    6.80
   3   5  -9   82.69   11.80
   3   5  -9   98.49    5.10
  -2  -5   9   49.70    3.70
   2  -5  -9   51.19    3.20
  -2  -5   9   53.09    3.10
   2  -5  -9   52.29    3.30
   2   5  -9   38.30    3.50
   2   5  -9   38.10    6.10
   2   5  -9   40.00    2.70
  -2   5   9   43.80    4.60
   1  -5  -9  265.87   12.80
   1  -5  -9  295.37   13.10
  -1  -5   9  263.37   13.20
  -1  -5   9  276.57   12.90
   1   5  -9  278.37   16.30
   1   5  -9  262.97   12.50
   1   5  -9  272.37   13.00
   1   5  -9  246.98   13.40
  -1   5   9  262.07   13.70
   0  -5   9   79.39    3.90
   0  -5  -9   69.49    4.10
   0   5  -9   89.59    5.10
   0   5   9   84.39    6.50
   0   5  -9   85.29    5.80
   0   5  -9   82.69    7.40
   0   5  -9   85.39    4.70
   1  -5   9   93.19    4.60
  -1  -5  -9   91.89    4.80
  -1   5  -9  100.49    6.20
  -1   5  -9  109.29    8.10
  -1   5  -9  125.09    6.00
   2  -5   9  240.38   11.30
  -2  -5  -9  247.18   11.40
  -2   5  -9  187.48   11.90
  -2   5  -9  226.88   10.00
  -2   5  -9  203.98   10.20
   6  -6  -9   39.80    2.30
   6  -6  -9   40.00    2.20
  -6  -6   9   35.70    2.50
  -6  -6   9   35.10    2.20
  -6   6   9   41.10    3.50
   6   6  -9   40.20    2.60
  -5  -6   9   24.30    1.60
   5  -6  -9   24.60    1.70
  -5  -6   9   23.00    2.40
   5  -6  -9   24.40    1.80
  -5   6   9   27.10    3.10
   5   6  -9   28.00    2.10
  -4  -6   9   11.50    1.30
   4  -6  -9   12.10    1.50
  -4  -6   9   11.30    1.80
   4  -6  -9   11.90    1.40
   4   6  -9   11.60    6.10
  -4   6   9   15.20    2.30
   4   6  -9   13.80    1.70
   3  -6  -9   94.69    4.70
   3  -6  -9   95.69    4.90
  -3  -6   9   94.49    4.70
   3   6  -9   98.19    5.30
   3   6  -9   93.39    4.90
  -3   6   9  100.39    6.10
   3   6  -9   86.09    8.30
  -2  -6   9   16.10    1.60
   2  -6  -9   16.00    1.60
   2  -6  -9   17.80    1.80
  -2   6   9   18.30    3.50
   2   6  -9   17.20    2.40
   2   6  -9   15.00    4.70
   2   6  -9   16.60    1.80
   1  -6  -9   13.70    1.80
   1  -6  -9   14.90    1.70
  -1  -6   9   12.20    1.50
   1   6  -9   14.10    4.40
  -1   6   9   15.00    2.70
   1   6  -9   18.90    3.10
   1   6  -9   16.20    2.30
   1   6  -9   15.90    1.80
   0  -6   9   16.40    1.60
   0  -6  -9   16.50    1.70
   0   6  -9   14.60    1.50
   0   6  -9   12.70    3.70
   0   6  -9   17.40    2.20
   0   6  -9   18.10    2.60
   1  -6   9  451.25   21.10
  -1  -6  -9  473.55   21.30
  -1   6  -9  437.06   20.30
  -1   6  -9  408.36   21.80
  -1   6  -9  451.95   20.10
  -4  -7   9  146.59    7.40
   4  -7  -9  164.58    7.40
   4  -7  -9  158.98    7.50
  -4   7   9  171.28    8.80
   3  -7  -9  372.36   16.50
   3  -7  -9  365.86   16.60
  -3  -7   9  339.37   16.50
   3   7  -9  362.16   17.60
  -3   7   9  396.06   18.20
   3   7  -9  382.86   22.20
   2  -7  -9   15.20    1.50
  -2  -7   9   13.50    1.60
   2  -7  -9   17.10    1.60
  -2   7   9   16.40    3.10
   2   7  -9   13.60    1.40
   2   7  -9    8.30    3.40
   8   0 -10  208.28    9.80
  -8   0  10  203.88    9.70
  -7   0  10  593.44   26.80
   7   0 -10  543.75   26.90
   7   0 -10  611.54   26.90
   6   0 -10  334.67   15.50
  -6   0  10  321.17   15.50
   6   0 -10  333.37   15.40
   5   0 -10  326.07   16.60
  -5   0  10  345.77   15.80
  -5   0  10  349.77   16.00
  -4   0  10    1.30    0.90
  -4   0  10    2.80    0.90
   4   0 -10    1.10    1.80
   4   0 -10    2.00    4.40
   3   0 -10  227.28   11.10
   3   0 -10  225.28   10.90
   3   0 -10  232.98   14.30
  -3   0  10  229.08   10.80
   3   0 -10  235.18   12.50
  -3   0  10  228.08   11.10
   2   0 -10   34.20    5.90
  -2   0  10   38.80    2.70
  -2   0  10   36.70    2.30
   2   0 -10   33.50    3.10
   2   0 -10   35.20    2.70
   2   0 -10   42.30    6.10
  -1   0  10  109.09    5.60
   1   0 -10  113.19    8.80
   1   0 -10  109.29    6.00
  -1   0  10  101.29    5.30
   0   0 -10  168.98   11.30
   0   0  10  182.08    8.20
   0   0  10  163.28    8.40
   1   0  10  140.49    7.10
   1   0  10  147.19    7.30
  -1   0 -10  158.08   10.00
   2   0  10  403.56   17.40
  -2   0 -10  361.56   19.60
   2   0  10  371.96   17.60
   3   0  10  133.89    6.30
  -3   0 -10  129.19    9.00
   8  -1 -10    2.00    1.30
  -8  -1  10    1.30    0.80
   8  -1 -10    1.50    1.40
  -8   1  10   -0.20    1.10
   8   1 -10    0.50    1.20
   7  -1 -10   39.50    2.70
  -7  -1  10   39.80    2.50
  -7   1  10   45.10    2.80
  -7   1  10   48.70    6.80
   7   1 -10   45.80    3.00
  -6  -1  10    7.90    1.10
  -6  -1  10    6.40    1.10
   6  -1 -10    6.90    1.30
  -6   1  10    7.50    3.20
   6   1 -10    7.20    1.30
   5  -1 -10   22.40    2.40
  -5  -1  10   21.50    1.90
  -5  -1  10   17.70    1.70
  -5   1  10   21.30    2.10
   5   1 -10   21.10    2.20
   4  -1 -10  158.18    7.50
  -4  -1  10  144.89    7.40
   4  -1 -10  151.18   11.20
  -4  -1  10  145.19    7.20
   4   1 -10  142.59    7.50
   4   1 -10  154.88   11.30
  -4   1  10  153.48    7.50
   3  -1 -10  503.35   26.80
  -3  -1  10  510.15   24.00
   3  -1 -10  527.05   23.90
  -3  -1  10  528.35   23.80
  -3   1  10  512.45   22.90
   3   1 -10  461.25   23.00
   3   1 -10  505.05   26.20
   3   1 -10  504.45   23.10
  -3   1  10  507.45   23.20
   2  -1 -10  532.75   24.20
  -2  -1  10  542.85   24.30
   2  -1 -10  477.55   24.20
  -2  -1  10  520.95   24.10
   2  -1 -10  540.95   27.60
  -2   1  10  519.55   23.90
   2   1 -10  477.25   23.90
  -2   1  10  547.35   24.20
   2   1 -10  513.35   27.10
   2   1 -10  543.05   24.10
  -1  -1  10    6.50    1.30
  -1  -1  10    4.40    0.90
   1  -1 -10    7.30    3.70
   1   1 -10    4.70    3.30
  -1   1  10    5.20    1.10
  -1   1  10    5.80    1.10
   1   1 -10    5.80    1.80
   0  -1  10   15.40    1.90
   0  -1 -10   18.90    4.40
   0  -1  10   13.00    1.50
   0   1  10   17.50    1.90
   0   1 -10   20.60    4.40
   0   1  10   20.30    1.90
   1  -1  10    9.90    1.30
  -1  -1 -10   14.20    4.10
   1  -1  10   11.20    1.20
  -1   1 -10   20.90    4.30
   1   1  10   15.00    1.80
   1   1  10   15.20    1.70
   2  -1  10   31.00    1.80
  -2  -1 -10   27.80    4.30
   2  -1  10   30.00    2.10
  -2   1 -10   34.00    5.30
   2   1  10   37.60    2.30
  -2   1 -10   36.40    4.70
   8  -2 -10  296.37   15.20
  -8  -2  10  370.66   15.40
   8  -2 -10  318.77   15.20
   8   2 -10  311.37   14.60
  -8   2  10  319.57   14.90
  -7  -2  10  377.26   17.20
  -7  -2  10  353.56   17.00
   7  -2 -10  377.56   17.20
  -7   2  10  417.36   19.30
  -7   2  10  376.26   18.30
   7   2 -10  372.06   18.00
  -6  -2  10  320.47   15.00
  -6  -2  10  321.07   15.60
   6  -2 -10  328.57   15.20
  -6   2  10  298.17   14.00
   6   2 -10  238.78   13.60
  -6   2  10  289.67   13.40
  -6   2  10  317.87   14.80
  -5  -2  10  235.78   11.10
  -5  -2  10  220.68   10.80
   5  -2 -10  237.98   11.10
  -5   2  10  246.38   11.40
   5   2 -10  226.48   11.30
   4  -2 -10   24.30    2.30
  -4  -2  10   24.20    1.80
   4  -2 -10   27.80    5.80
  -4  -2  10   29.10    2.20
   4   2 -10   31.60    7.50
  -4   2  10   29.80    2.40
   4   2 -10   29.10    2.40
  -3  -2  10  289.07   13.40
  -3  -2  10  270.37   13.20
   3  -2 -10  288.97   13.40
   3   2 -10  238.28   11.20
  -3   2  10  238.38   11.20
   3   2 -10  226.08   14.30
  -2  -2  10  161.38    8.10
  -2  -2  10  159.38    7.90
   2  -2 -10  174.18    8.20
  -2   2  10  151.18    7.30
   2   2 -10  147.19   10.50
   2   2 -10  143.89    7.40
   1  -2 -10  226.68   11.20
   1  -2 -10  203.48   10.70
  -1  -2  10  221.78   10.50
  -1  -2  10  216.18   10.30
   1   2 -10  199.38   13.00
   1   2 -10  223.08   11.00
  -1   2  10  210.18   10.10
   0  -2  10   38.60    3.50
   0  -2 -10   51.09    3.60
   0  -2  10   54.39    2.80
   0   2 -10   58.39    6.20
   0   2  10   62.19    3.60
  -1  -2 -10   14.90    4.20
   1  -2  10   16.80    1.40
   1  -2  10   13.60    1.80
  -1   2 -10   18.90    4.20
  -1   2 -10   21.00    4.10
   1   2  10   25.50    1.90
  -2  -2 -10   54.39    5.30
   2  -2  10   56.79    2.90
   2  -2  10   55.09    3.20
  -2   2 -10   45.00    5.10
   2   2  10   50.39    2.70
  -2   2 -10   45.40    5.70
  -7  -3  10   67.69    3.60
   7  -3 -10   69.19    3.60
  -7  -3  10   64.89    3.40
  -7   3  10   55.79    5.00
   7   3 -10   58.79    3.30
  -7   3  10   58.59    4.20
  -6  -3  10   47.80    2.90
  -6  -3  10   48.40    2.60
   6  -3 -10   45.30    2.80
  -6   3  10   39.90    4.50
  -6   3  10   39.60    4.10
   6   3 -10   42.20    2.70
   5  -3 -10  103.09    5.60
  -5  -3  10   95.09    5.40
  -5  -3  10   97.59    5.20
  -5   3  10   85.19    8.00
  -5   3  10   79.59    6.40
  -5   3  10   87.89    5.00
   5   3 -10  108.79    5.30
  -4  -3  10   18.10    2.00
  -4  -3  10   20.70    1.60
   4  -3 -10   20.60    2.00
   4   3 -10   24.60    6.00
  -4   3  10   22.40    2.40
   4   3 -10   21.00    2.20
  -3  -3  10   27.20    1.90
  -3  -3  10   28.80    2.30
   3  -3 -10   28.80    2.30
  -3   3  10   31.20    3.40
   3   3 -10   27.70    2.30
   3   3 -10   25.30    5.90
   2  -3 -10   46.40    3.10
  -2  -3  10   48.50    3.10
  -2  -3  10   47.20    2.70
  -2   3  10   54.29    3.60
   2   3 -10   37.30    4.70
   2   3 -10   51.99    6.30
   2   3 -10   49.10    3.20
  -1  -3  10  117.59    6.10
  -1  -3  10  121.19    5.80
   1  -3 -10  117.49    6.10
  -1   3  10  109.29    5.50
   1   3 -10  109.69    5.60
   1   3 -10   97.79    6.70
   1   3 -10  103.29    8.40
   0  -3  10  330.77   14.80
   0  -3  10  293.77   14.70
   0  -3 -10  324.47   14.80
   0   3 -10  302.07   17.00
   0   3  10  312.47   14.20
   0   3 -10  289.67   16.30
   1  -3  10  203.98    8.60
  -1  -3 -10  155.78   10.80
   1  -3  10  188.48    8.80
  -1   3 -10  173.58   10.80
  -1   3 -10  165.48    9.60
   1   3  10  192.38    8.40
   1   3  10  171.08   10.00
   2  -3  10   27.50    1.90
  -2  -3 -10   29.50    4.20
   2  -3  10   28.50    2.30
  -2   3 -10   25.10    4.20
   2   3  10   24.90    2.00
  -7  -4  10  117.89    5.70
  -7  -4  10  122.89    5.90
   7  -4 -10  123.49    6.00
   7   4 -10  116.29    5.70
  -7   4  10  114.29    6.70
   6  -4 -10  176.58    8.30
  -6  -4  10  169.68    8.10
  -6  -4  10  171.28    8.30
   6   4 -10  152.88    7.50
  -6   4  10  154.88    8.40
  -5  -4  10  237.68   11.00
  -5  -4  10  231.58   10.80
   5  -4 -10  223.58   10.90
  -5   4  10  233.98   12.30
   5   4 -10  240.18   11.20
  -4  -4  10  142.89    6.80
  -4  -4  10  138.89    7.00
   4  -4 -10  140.49    6.90
   4   4 -10  128.49   10.80
   4   4 -10  128.59    6.50
  -4   4  10  138.19    8.00
  -3  -4  10  129.89    6.20
   3  -4 -10  128.99    6.40
  -3  -4  10  121.19    6.40
   3   4 -10   95.49    8.70
  -3   4  10  109.59    7.00
   3   4 -10  103.19    5.30
   2  -4 -10  182.78    8.70
  -2  -4  10  168.98    8.70
  -2  -4  10  184.18    8.50
   2   4 -10  119.69    7.20
  -2   4  10  142.89    8.20
   2   4 -10  134.79    9.70
   2   4 -10  142.39    6.70
  -1  -4  10  230.98   11.10
  -1  -4  10  236.48   10.90
   1  -4 -10  233.48   11.10
  -1   4  10  184.08    9.60
   1   4 -10  195.48   10.00
   1   4 -10  204.58    9.50
  -1   4  10  201.68   10.60
   1   4 -10  205.98   12.40
   0  -4  10  307.37   14.60
   0  -4  10  316.97   14.40
   0  -4 -10  308.57   14.50
   0   4  10  321.97   15.70
   0   4 -10  328.07   18.20
   0   4 -10  330.27   16.10
   0   4  10  364.36   17.50
   1  -4  10  342.47   14.10
  -1  -4 -10  271.67   14.30
   1  -4  10  297.47   14.50
  -1   4 -10  265.57   13.90
  -1   4 -10  229.08   12.90
  -6  -5  10   84.79    4.50
   6  -5 -10   93.09    4.50
  -6  -5  10   89.29    4.30
   6   5 -10   81.39    4.20
  -6   5  10   79.69    5.00
   5  -5 -10   34.20    2.20
  -5  -5  10   33.30    1.90
  -5  -5  10   30.80    2.30
   5   5 -10   31.60    2.20
  -5   5  10   31.20    3.40
  -4  -5  10   29.60    1.80
   4  -5 -10   26.30    2.00
  -4  -5  10   25.60    2.40
   4   5 -10   29.70    8.00
   4   5 -10   27.50    2.10
  -4   5  10   31.50    3.60
  -3  -5  10   63.59    3.30
  -3  -5  10   65.19    3.90
   3  -5 -10   64.59    3.50
  -3   5  10   63.39    4.70
   3   5 -10   55.89    6.70
   3   5 -10   58.59    3.30
  -2  -5  10   56.19    2.90
  -2  -5  10   45.50    3.70
   2  -5 -10   56.59    3.10
   2   5 -10   44.10    5.80
  -2   5  10   48.50    4.30
   2   5 -10   46.20    3.50
   2   5 -10   46.60    2.90
   1  -5 -10   40.00    2.50
  -1  -5  10   37.80    2.20
   1   5 -10   30.80    4.90
  -1   5  10   34.40    4.90
   1   5 -10   33.10    3.10
   1   5 -10   33.10    2.60
   0  -5 -10  135.99    6.60
   0  -5  10  137.49    6.50
   0   5 -10  110.09    5.80
   0   5 -10  103.99    7.60
  -3  -6  10  206.58    9.40
   3  -6 -10  197.68    9.50
  -3   6  10  195.28    9.80
   3   6 -10  187.68    9.00
   2  -6 -10  201.18    9.20
  -2  -6  10  189.08    9.10
  -2   6  10  184.88    9.00
   2   6 -10  178.48    8.20
   2   6 -10  156.08   10.30
  -7   0  11   83.49    4.20
   7   0 -11   81.99    4.30
  -6   0  11    0.50    0.80
   6   0 -11   -0.50    1.00
  -6   0  11    1.90    3.60
   5   0 -11    5.10    1.20
  -5   0  11    4.70    1.00
  -4   0  11   -0.20    1.80
   4   0 -11    2.00    1.30
   4   0 -11    2.00    4.50
  -4   0  11    0.20    0.80
   3   0 -11   11.60    3.60
  -3   0  11   12.70    1.40
   3   0 -11   12.80    1.70
  -3   0  11   11.60    1.30
   2   0 -11    2.10    2.70
  -2   0  11    1.80    0.90
  -2   0  11    0.70    0.90
   2   0 -11    1.50    1.60
   1   0 -11  131.49    9.00
  -1   0  11  141.69    6.60
  -1   0  11  129.99    6.40
   0   0 -11   40.90    4.80
   0   0  11   34.90    2.30
   0   0  11   39.80    2.40
   1   0  11   69.59    3.80
   7  -1 -11  136.79    6.30
  -7  -1  11  118.69    6.40
   7   1 -11  156.88    7.10
  -7   1  11  130.19    7.10
  -7   1  11  141.39    7.30
  -6  -1  11   97.19    5.10
  -6  -1  11  100.89    8.20
   6  -1 -11  110.59    5.30
   6   1 -11  105.69    5.40
  -6   1  11  114.09    7.80
  -6   1  11  104.29    5.30
  -6   1  11  105.69    6.70
  -5  -1  11  101.09    5.00
   5  -1 -11  100.99    5.30
  -5  -1  11  103.09    5.20
   5   1 -11   99.59    5.20
  -5   1  11  101.39    5.10
   4  -1 -11  121.89    9.60
  -4  -1  11  121.39    6.10
  -4  -1  11  113.29    5.80
   4  -1 -11  129.29    6.20
   4   1 -11  169.48    8.20
   4   1 -11  163.68   11.80
  -4   1  11  173.68    8.20
   3  -1 -11   39.70    2.90
  -3  -1  11   36.50    2.20
  -3  -1  11   39.30    2.50
   3  -1 -11   36.30    5.40
  -3   1  11   68.59    3.80
   3   1 -11   72.49    4.00
   3   1 -11   66.69    6.90
  -2  -1  11  121.19    6.00
   2  -1 -11  119.89    6.30
   2  -1 -11  115.99    8.50
  -2  -1  11  119.69    5.80
   2   1 -11  141.39    7.00
  -2   1  11  141.19    6.90
   2   1 -11  140.09    9.60
   1  -1 -11  256.67   14.70
  -1  -1  11  278.87   12.20
  -1  -1  11  250.07   12.30
  -1   1  11  244.98   11.80
   1   1 -11  255.97   14.40
   0  -1 -11  459.95   22.50
   0  -1  11  432.46   20.00
   0  -1  11  414.96   20.10
   0   1 -11  421.76   21.70
   0   1  11  419.16   19.40
  -1  -1 -11  278.27   14.10
   1  -1  11  241.78   11.60
   1  -1  11  235.98   11.70
  -1   1 -11  274.47   14.50
   1   1  11  240.88   12.00
  -7  -2  11  121.39    6.10
   7  -2 -11  134.19    6.20
  -7   2  11  125.89    7.50
   7   2 -11  131.89    6.30
  -6  -2  11    2.80    0.80
  -6  -2  11    3.50    1.10
   6  -2 -11    3.60    1.20
   6   2 -11    3.00    1.00
  -6   2  11    3.70    3.30
  -6   2  11    5.70    3.70
   5  -2 -11   20.10    2.40
  -5  -2  11   18.80    1.50
  -5  -2  11   19.00    1.70
  -5   2  11   22.10    3.10
  -5   2  11   19.90    2.10
   5   2 -11   18.80    1.90
   4  -2 -11  203.38    9.20
  -4  -2  11  191.68    9.20
   4  -2 -11  172.28   15.40
  -4  -2  11  191.28    9.00
  -4   2  11  186.18    8.80
   4   2 -11  183.08    8.90
  -3  -2  11    7.40    1.10
   3  -2 -11    7.20    1.70
  -3  -2  11   10.40    1.20
   3  -2 -11    8.70    3.60
   3  -2 -11    8.20    1.60
   3   2 -11    8.70    1.40
   3   2 -11    9.30    3.90
  -3   2  11    7.30    1.10
  -2  -2  11    9.50    1.00
   2  -2 -11   13.00    3.70
   2  -2 -11    9.40    2.30
  -2  -2  11   11.00    1.30
   2   2 -11    7.40    1.40
   2   2 -11    5.80    3.10
  -2   2  11    7.30    1.10
  -1  -2  11   36.70    2.40
   1  -2 -11   37.60    4.90
  -1  -2  11   37.90    2.20
   1   2 -11   41.50    5.20
  -1   2  11   44.30    2.60
   0  -2  11   58.89    3.20
   0  -2  11   58.59    3.00
   0  -2 -11   56.09    5.50
   0   2 -11   61.09    5.80
   0   2  11   68.59    3.40
  -6  -3  11  103.59    5.10
  -6  -3  11  104.19    5.50
   6  -3 -11  109.79    5.30
  -6   3  11  104.39    6.20
   6   3 -11  104.39    5.30
  -5  -3  11  125.19    6.10
  -5  -3  11  127.29    6.30
   5  -3 -11  135.09    6.50
  -5   3  11  124.59    7.10
   5   3 -11  117.59    6.00
  -4  -3  11  575.64   26.70
   4  -3 -11  553.84   28.60
   4  -3 -11  613.04   26.80
  -4  -3  11  589.14   26.80
   4   3 -11  583.24   27.20
   4   3 -11  543.05   29.60
  -4   3  11  653.43   28.40
  -3  -3  11  196.68    9.50
   3  -3 -11  194.58   11.70
   3  -3 -11  209.88    9.40
  -3  -3  11  194.08    9.30
  -3   3  11  192.38   10.30
   3   3 -11  197.38   12.00
  -3   3  11  185.78    9.10
   3   3 -11  191.68    9.10
  -2  -3  11  282.97   13.10
   2  -3 -11  291.17   15.60
   2  -3 -11  278.97   13.20
  -2  -3  11  277.97   13.20
   2   3 -11  245.08   15.30
   2   3 -11  311.17   13.40
  -2   3  11  285.17   13.10
  -1  -3  11  191.08    9.60
   1  -3 -11  197.18   11.50
  -1  -3  11  200.48    9.20
   1   3 -11  149.59   10.10
  -1   3  11  168.28    7.90
  -1   3  11  181.98    9.30
   0  -3 -11  391.16   18.60
   0  -3  11  334.47   15.80
   0  -3  11  304.57   15.80
   0   3 -11  308.77   16.50
   0   3  11  295.07   14.20
   5  -4 -11    9.30    1.00
  -5  -4  11   10.80    1.10
  -5  -4  11    9.00    1.10
   5   4 -11   12.80    1.50
  -5   4  11   13.10    2.10
  -4  -4  11   89.49    4.30
  -4  -4  11   87.59    4.60
   4  -4 -11   89.79    4.50
  -4   4  11   83.99    5.60
   4   4 -11   95.69    4.70
   3  -4 -11    2.70    1.00
   3  -4 -11    3.20    3.40
  -3  -4  11    1.80    1.10
   3  -4 -11   -0.60    3.00
  -3  -4  11    2.30    0.70
   3   4 -11    4.60    1.20
   3   4 -11    3.70    3.90
  -3   4  11    4.20    1.90
   2  -4 -11    7.30    3.50
   2  -4 -11    5.50    1.20
  -2  -4  11    7.90    0.80
  -2  -4  11    4.70    1.20
  -2   4  11    8.80    2.60
   2   4 -11    5.40    1.30
   2   4 -11    7.20    3.40
   1  -4 -11   31.70    4.40
  -1  -4  11   33.20    1.90
  -1   4  11   32.10    3.90
   1   4 -11   23.40    4.30
  -5   0  12  104.29    6.80
  -5   0  12  127.99    5.80
   5   0 -12  126.09    5.90
  -4   0  12  604.84   26.80
   4   0 -12  560.64   26.70
   3   0 -12   87.29    7.20
  -3   0  12   87.39    4.40
   3   0 -12   85.89    5.20
   2   0 -12  119.99    8.40
  -2   0  12  144.19    6.50
  -5  -1  12    8.40    1.00
   5  -1 -12   11.50    1.30
  -5   1  12    9.60    1.10
  -5   1  12    9.60    2.40
   5   1 -12   10.90    1.20
   4  -1 -12  274.87   13.50
  -4  -1  12  305.77   13.70
   4   1 -12  287.57   13.40
  -4   1  12  288.97   13.40
  -3  -1  12   23.80    1.90
   3  -1 -12   21.50    5.10
   3   1 -12   20.20    5.50
   3   1 -12   18.40    2.30
  -3   1  12   22.80    1.70
  -2  -1  12   69.89    3.50
   2  -1 -12   61.39    5.60
  -2   1  12   65.69    3.30
   2   1 -12   57.89    5.50
  -4  -2  12  351.26   17.00
   4  -2 -12  384.66   17.20
   4   2 -12  329.57   15.20
   3  -2 -12  154.48   10.70
  -3  -2  12  173.28    7.80
   3   2 -12  179.28   12.60
   3   2 -12  163.58    9.00
  -3   2  12  193.58    9.30
  -3   2  12  169.28    8.50
   0   0   0    0.00    0.00

_computing_structure_solution     'SHELXT 2014/5 (Sheldrick, 2014)'
;
_shelx_hkl_checksum              93941
_olex2_submission_special_instructions 'No special instructions were received'
loop_
_space_group_symop_operation_xyz
'x, y, z'
'-x, y+1/2, -z'
loop_
_atom_site_label
_atom_site_type_symbol
_atom_site_fract_x
_atom_site_fract_y
_atom_site_fract_z
_atom_site_U_iso_or_equiv
_atom_site_adp_type
_atom_site_occupancy
_atom_site_site_symmetry_order
_atom_site_calc_flag
_atom_site_refinement_flags_posn
_atom_site_refinement_flags_adp
_atom_site_refinement_flags_occupancy
_atom_site_disorder_assembly
_atom_site_disorder_group
S1 S 0.51383(5) 0.56709(6) 0.75496(5) 0.01738(16) Uani 1 1 d . . . . .
O1 O 0.57963(16) 0.61320(16) 0.11426(14) 0.0146(3) Uani 1 1 d . . . . .
N1 N 0.45241(19) 0.3889(2) 0.04333(17) 0.0139(4) Uani 1 1 d . . . . .
H1 H 0.463826 0.290582 0.033180 0.017 Uiso 1 1 calc R U . . .
C1 C -0.0128(2) 0.5660(3) -0.0872(2) 0.0285(5) Uani 1 1 d . . . . .
H1A H -0.118000 0.605922 -0.116989 0.034 Uiso 1 1 calc R U . . .
C2 C 0.0374(3) 0.4721(3) -0.1744(2) 0.0248(5) Uani 1 1 d . . . . .
H2 H -0.034067 0.447311 -0.263874 0.030 Uiso 1 1 calc R U . . .
C3 C 0.1916(2) 0.4138(3) -0.1320(2) 0.0190(4) Uani 1 1 d . . . . .
H3 H 0.225733 0.349618 -0.192079 0.023 Uiso 1 1 calc R U . . .
C4 C 0.2956(2) 0.4505(2) -0.0004(2) 0.0148(4) Uani 1 1 d . . . . .
C5 C 0.5848(2) 0.4738(2) 0.09970(19) 0.0121(4) Uani 1 1 d . . . . .
C6 C 0.7417(2) 0.3894(2) 0.14522(19) 0.0138(4) Uani 1 1 d . . . . .
H6A H 0.795305 0.401517 0.074193 0.017 Uiso 1 1 calc R U . . .
H6B H 0.722112 0.279620 0.154134 0.017 Uiso 1 1 calc R U . . .
C7 C 0.8503(2) 0.4517(2) 0.2864(2) 0.0139(4) Uani 1 1 d . . . . .
H7 H 0.861106 0.564031 0.276622 0.017 Uiso 1 1 calc R U . . .
C8 C 0.7749(2) 0.4249(2) 0.3976(2) 0.0143(4) Uani 1 1 d . . . . .
H8 H 0.763988 0.322698 0.423399 0.017 Uiso 1 1 calc R U . . .
C9 C 0.7223(2) 0.5344(2) 0.46238(19) 0.0150(4) Uani 1 1 d . . . . .
H9 H 0.733428 0.636248 0.435791 0.018 Uiso 1 1 calc R U . . .
C10 C 0.6487(2) 0.5115(2) 0.5711(2) 0.0143(4) Uani 1 1 d . . . . .
C11 C 0.6237(2) 0.3682(2) 0.6279(2) 0.0158(4) Uani 1 1 d . . . . .
H11 H 0.654392 0.273580 0.599223 0.019 Uiso 1 1 calc R U . . .
C12 C 0.5520(2) 0.3810(3) 0.7267(2) 0.0177(4) Uani 1 1 d . . . . .
H12 H 0.526045 0.297214 0.774331 0.021 Uiso 1 1 calc R U . . .
C13 C 0.5957(2) 0.6291(3) 0.6332(2) 0.0170(4) Uani 1 1 d . . . . .
H13 H 0.603455 0.733227 0.611162 0.020 Uiso 1 1 calc R U . . .
C14 C 1.0176(2) 0.3815(3) 0.3267(2) 0.0167(4) Uani 1 1 d . . . . .
H14A H 1.012616 0.274212 0.354674 0.020 Uiso 1 1 calc R U . . .
H14B H 1.055274 0.382585 0.245005 0.020 Uiso 1 1 calc R U . . .
C15 C 1.1357(2) 0.4683(3) 0.4462(2) 0.0246(5) Uani 1 1 d . . . . .
H15A H 1.139534 0.574860 0.419286 0.037 Uiso 1 1 calc R U . . .
H15B H 1.241836 0.422841 0.467262 0.037 Uiso 1 1 calc R U . . .
H15C H 1.101575 0.462800 0.528670 0.037 Uiso 1 1 calc R U . . .
C16 C 0.2449(2) 0.5429(2) 0.0881(2) 0.0195(5) Uani 1 1 d . . . . .
H16 H 0.315076 0.566023 0.178493 0.023 Uiso 1 1 calc R U . . .
C17 C 0.0910(3) 0.6014(3) 0.0436(3) 0.0256(5) Uani 1 1 d . . . . .
H17 H 0.056794 0.666116 0.103314 0.031 Uiso 1 1 calc R U . . .
loop_
_atom_site_aniso_label
_atom_site_aniso_U_11
_atom_site_aniso_U_22
_atom_site_aniso_U_33
_atom_site_aniso_U_23
_atom_site_aniso_U_13
_atom_site_aniso_U_12
S1 0.0206(3) 0.0193(3) 0.0158(2) -0.00076(18) 0.01087(17) 0.0008(2)
O1 0.0162(7) 0.0119(8) 0.0156(7) 0.0005(5) 0.0051(5) 0.0008(5)
N1 0.0140(8) 0.0112(8) 0.0155(8) -0.0008(7) 0.0035(6) 0.0005(7)
C1 0.0154(9) 0.0307(12) 0.0423(13) 0.0172(12) 0.0134(9) 0.0056(11)
C2 0.0146(10) 0.0299(13) 0.0271(11) 0.0099(10) 0.0030(9) -0.0008(9)
C3 0.0179(10) 0.0193(11) 0.0195(10) 0.0031(8) 0.0054(8) -0.0011(8)
C4 0.0134(9) 0.0132(10) 0.0191(10) 0.0033(7) 0.0069(8) -0.0010(8)
C5 0.0160(9) 0.0145(10) 0.0075(8) 0.0010(7) 0.0064(7) -0.0004(8)
C6 0.0144(9) 0.0150(10) 0.0134(9) -0.0010(8) 0.0062(7) 0.0004(8)
C7 0.0141(9) 0.0156(10) 0.0132(9) -0.0002(7) 0.0061(7) -0.0007(8)
C8 0.0122(9) 0.0171(11) 0.0131(9) 0.0015(7) 0.0033(7) -0.0002(7)
C9 0.0140(9) 0.0176(11) 0.0136(9) 0.0019(8) 0.0046(7) -0.0003(7)
C10 0.0115(9) 0.0189(11) 0.0115(9) 0.0002(7) 0.0024(7) -0.0006(7)
C11 0.0175(10) 0.0147(11) 0.0161(9) 0.0006(8) 0.0065(8) 0.0009(8)
C12 0.0177(10) 0.0183(11) 0.0178(10) 0.0022(8) 0.0068(8) -0.0008(8)
C13 0.0188(10) 0.0185(10) 0.0152(9) 0.0009(8) 0.0077(8) 0.0008(8)
C14 0.0152(9) 0.0198(11) 0.0164(9) -0.0012(8) 0.0069(8) 0.0013(8)
C15 0.0145(10) 0.0314(13) 0.0252(11) -0.0063(10) 0.0026(8) 0.0010(9)
C16 0.0198(10) 0.0181(12) 0.0236(10) 0.0003(9) 0.0112(8) 0.0002(9)
C17 0.0238(11) 0.0210(13) 0.0400(13) 0.0055(10) 0.0211(10) 0.0038(9)
loop_
_atom_type_symbol
_atom_type_description
_atom_type_scat_dispersion_real
_atom_type_scat_dispersion_imag
_atom_type_scat_source
C C 0.0181 0.0091 'International Tables Vol C Tables 4.2.6.8 and 6.1.1.4'
H H 0.0000 0.0000 'International Tables Vol C Tables 4.2.6.8 and 6.1.1.4'
N N 0.0311 0.0180 'International Tables Vol C Tables 4.2.6.8 and 6.1.1.4'
O O 0.0492 0.0322 'International Tables Vol C Tables 4.2.6.8 and 6.1.1.4'
S S 0.3331 0.5567 'International Tables Vol C Tables 4.2.6.8 and 6.1.1.4'
loop_
_geom_angle_atom_site_label_1
_geom_angle_atom_site_label_2
_geom_angle_atom_site_label_3
_geom_angle
_geom_angle_site_symmetry_1
_geom_angle_site_symmetry_3
_geom_angle_publ_flag
C13 S1 C12 91.73(10) . . ?
C4 N1 H1 118.4 . . ?
C5 N1 H1 118.4 . . ?
C5 N1 C4 123.25(17) . . ?
C2 C1 H1A 120.1 . . ?
C2 C1 C17 119.77(19) . . ?
C17 C1 H1A 120.1 . . ?
C1 C2 H2 119.7 . . ?
C1 C2 C3 120.5(2) . . ?
C3 C2 H2 119.7 . . ?
C2 C3 H3 120.3 . . ?
C2 C3 C4 119.4(2) . . ?
C4 C3 H3 120.3 . . ?
C3 C4 N1 119.18(19) . . ?
C16 C4 N1 120.57(18) . . ?
C16 C4 C3 120.24(19) . . ?
O1 C5 N1 122.52(19) . . ?
O1 C5 C6 121.05(19) . . ?
N1 C5 C6 116.43(18) . . ?
C5 C6 H6A 109.6 . . ?
C5 C6 H6B 109.6 . . ?
C5 C6 C7 110.20(16) . . ?
H6A C6 H6B 108.1 . . ?
C7 C6 H6A 109.6 . . ?
C7 C6 H6B 109.6 . . ?
C6 C7 H7 108.0 . . ?
C8 C7 C6 110.22(16) . . ?
C8 C7 H7 108.0 . . ?
C8 C7 C14 111.23(16) . . ?
C14 C7 C6 111.29(16) . . ?
C14 C7 H7 108.0 . . ?
C7 C8 H8 117.7 . . ?
C9 C8 C7 124.67(19) . . ?
C9 C8 H8 117.7 . . ?
C8 C9 H9 117.1 . . ?
C8 C9 C10 125.80(19) . . ?
C10 C9 H9 117.1 . . ?
C11 C10 C9 126.01(19) . . ?
C13 C10 C9 123.03(19) . . ?
C13 C10 C11 110.96(18) . . ?
C10 C11 H11 123.3 . . ?
C12 C11 C10 113.30(19) . . ?
C12 C11 H11 123.3 . . ?
S1 C12 H12 124.2 . . ?
C11 C12 S1 111.66(16) . . ?
C11 C12 H12 124.2 . . ?
S1 C13 H13 123.8 . . ?
C10 C13 S1 112.34(17) . . ?
C10 C13 H13 123.8 . . ?
C7 C14 H14A 109.3 . . ?
C7 C14 H14B 109.3 . . ?
H14A C14 H14B 108.0 . . ?
C15 C14 C7 111.47(18) . . ?
C15 C14 H14A 109.3 . . ?
C15 C14 H14B 109.3 . . ?
C14 C15 H15A 109.5 . . ?
C14 C15 H15B 109.5 . . ?
C14 C15 H15C 109.5 . . ?
H15A C15 H15B 109.5 . . ?
H15A C15 H15C 109.5 . . ?
H15B C15 H15C 109.5 . . ?
C4 C16 H16 120.2 . . ?
C17 C16 C4 119.7(2) . . ?
C17 C16 H16 120.2 . . ?
C1 C17 C16 120.4(2) . . ?
C1 C17 H17 119.8 . . ?
C16 C17 H17 119.8 . . ?
loop_
_geom_bond_atom_site_label_1
_geom_bond_atom_site_label_2
_geom_bond_distance
_geom_bond_site_symmetry_2
_geom_bond_publ_flag
S1 C12 1.714(2) . ?
S1 C13 1.713(2) . ?
O1 C5 1.237(3) . ?
N1 H1 0.8800 . ?
N1 C4 1.423(3) . ?
N1 C5 1.352(3) . ?
C1 H1A 0.9500 . ?
C1 C2 1.385(4) . ?
C1 C17 1.385(4) . ?
C2 H2 0.9500 . ?
C2 C3 1.392(3) . ?
C3 H3 0.9500 . ?
C3 C4 1.394(3) . ?
C4 C16 1.390(3) . ?
C5 C6 1.511(3) . ?
C6 H6A 0.9900 . ?
C6 H6B 0.9900 . ?
C6 C7 1.547(3) . ?
C7 H7 1.0000 . ?
C7 C8 1.506(3) . ?
C7 C14 1.535(3) . ?
C8 H8 0.9500 . ?
C8 C9 1.332(3) . ?
C9 H9 0.9500 . ?
C9 C10 1.467(3) . ?
C10 C11 1.433(3) . ?
C10 C13 1.371(3) . ?
C11 H11 0.9500 . ?
C11 C12 1.355(3) . ?
C12 H12 0.9500 . ?
C13 H13 0.9500 . ?
C14 H14A 0.9900 . ?
C14 H14B 0.9900 . ?
C14 C15 1.526(3) . ?
C15 H15A 0.9800 . ?
C15 H15B 0.9800 . ?
C15 H15C 0.9800 . ?
C16 H16 0.9500 . ?
C16 C17 1.390(3) . ?
C17 H17 0.9500 . ?
loop_
_geom_torsion_atom_site_label_1
_geom_torsion_atom_site_label_2
_geom_torsion_atom_site_label_3
_geom_torsion_atom_site_label_4
_geom_torsion
_geom_torsion_site_symmetry_1
_geom_torsion_site_symmetry_2
_geom_torsion_site_symmetry_3
_geom_torsion_site_symmetry_4
_geom_torsion_publ_flag
O1 C5 C6 C7 41.3(3) . . . . ?
N1 C4 C16 C17 -179.70(19) . . . . ?
N1 C5 C6 C7 -138.55(17) . . . . ?
C1 C2 C3 C4 0.1(3) . . . . ?
C2 C1 C17 C16 -0.2(3) . . . . ?
C2 C3 C4 N1 179.10(19) . . . . ?
C2 C3 C4 C16 0.8(3) . . . . ?
C3 C4 C16 C17 -1.4(3) . . . . ?
C4 N1 C5 O1 -1.9(3) . . . . ?
C4 N1 C5 C6 177.88(17) . . . . ?
C4 C16 C17 C1 1.1(3) . . . . ?
C5 N1 C4 C3 131.2(2) . . . . ?
C5 N1 C4 C16 -50.5(3) . . . . ?
C5 C6 C7 C8 62.9(2) . . . . ?
C5 C6 C7 C14 -173.21(16) . . . . ?
C6 C7 C8 C9 -113.3(2) . . . . ?
C6 C7 C14 C15 166.48(18) . . . . ?
C7 C8 C9 C10 -179.87(17) . . . . ?
C8 C7 C14 C15 -70.2(2) . . . . ?
C8 C9 C10 C11 1.3(3) . . . . ?
C8 C9 C10 C13 -179.4(2) . . . . ?
C9 C10 C11 C12 -179.57(18) . . . . ?
C9 C10 C13 S1 179.42(14) . . . . ?
C10 C11 C12 S1 -0.5(2) . . . . ?
C11 C10 C13 S1 -1.2(2) . . . . ?
C12 S1 C13 C10 0.83(16) . . . . ?
C13 S1 C12 C11 -0.19(17) . . . . ?
C13 C10 C11 C12 1.1(3) . . . . ?
C14 C7 C8 C9 122.8(2) . . . . ?
C17 C1 C2 C3 -0.4(4) . . . . ?
