#------------------------------------------------------------------------------
#$Date: 2022-08-27 01:37:51 +0300 (Sat, 27 Aug 2022) $
#$Revision: 277414 $
#$URL: file:///home/coder/svn-repositories/cod/cif/1/56/75/1567526.cif $
#------------------------------------------------------------------------------
#
# This file is available in the Crystallography Open Database (COD),
# http://www.crystallography.net/
#
# All data on this site have been placed in the public domain by the
# contributors.
#
data_1567526
loop_
_publ_author_name
'Gonz\'alvez, Miguel A.'
'Su, Chuyi'
'Williams, Craig M.'
'Bernhardt, Paul V.'
_publ_section_title
;
 Organocopper(ii) complexes: new catalysts for carbon--carbon bond
 formation via electrochemical atom transfer radical addition (eATRA)
;
_journal_name_full               'Chemical Science'
_journal_paper_doi               10.1039/D2SC03418B
_journal_year                    2022
_chemical_formula_sum            'C28 H36 N2'
_chemical_formula_weight         400.59
_space_group_IT_number           2
_space_group_name_Hall           '-P 1'
_space_group_name_H-M_alt        'P -1'
_symmetry_cell_setting           triclinic
_symmetry_Int_Tables_number      2
_symmetry_space_group_name_Hall  '-P 1'
_symmetry_space_group_name_H-M   'P -1'
_atom_sites_solution_hydrogens   geom
_audit_conform_dict_location     ftp://ftp.iucr.org/pub/cif_core.dic
_audit_conform_dict_name         cif_core.dic
_audit_conform_dict_version      2.4.5
_audit_creation_date             2022-05-30T15:54:19-00:00
_audit_creation_method           'WinGX routine CIF_UPDATE'
_audit_update_record
;
2022-06-01 deposited with the CCDC.	2022-08-17 downloaded from the CCDC.
;
_cell_angle_alpha                73.723(11)
_cell_angle_beta                 77.522(10)
_cell_angle_gamma                79.838(8)
_cell_formula_units_Z            1
_cell_length_a                   6.2887(6)
_cell_length_b                   9.7101(10)
_cell_length_c                   10.8010(14)
_cell_measurement_reflns_used    520
_cell_measurement_temperature    190(2)
_cell_measurement_theta_max      59.73
_cell_measurement_theta_min      4.78
_cell_measurement_wavelength     1.54184
_cell_volume                     613.42(12)
_computing_cell_refinement       'CrysalisPro (Agilent Technologies,     )'
_computing_data_collection       'CrysalisPro (Agilent Technologies,     )'
_computing_data_reduction        'CrysalisPro (Agilent Technologies,     )'
_computing_molecular_graphics    'Ortep for Windows (Farrugia, 2012)'
_computing_publication_material  'WinGX publication routines (Farrugia, 2012)'
_computing_structure_refinement  'SHELXL-2018/1 (Sheldrick, 2018)'
_diffrn_ambient_temperature      190(2)
_diffrn_detector                 'CCD plate'
_diffrn_detector_area_resol_mean 8.02
_diffrn_measured_fraction_theta_full 0.985
_diffrn_measured_fraction_theta_max 0.985
_diffrn_measurement_device       '\k-geometry diffractometer'
_diffrn_measurement_device_type
'Agilent Technologies Xcalibur, EosS2, Gemini ultra'
_diffrn_measurement_method       '\w scans'
_diffrn_orient_matrix_UB_11      0.04854
_diffrn_orient_matrix_UB_12      0.058324
_diffrn_orient_matrix_UB_13      -0.150052
_diffrn_orient_matrix_UB_21      -0.05242
_diffrn_orient_matrix_UB_22      0.156011
_diffrn_orient_matrix_UB_23      0.015469
_diffrn_orient_matrix_UB_31      0.242536
_diffrn_orient_matrix_UB_32      0.000579
_diffrn_orient_matrix_UB_33      0.005625
_diffrn_radiation_monochromator  mirror
_diffrn_radiation_probe          x-ray
_diffrn_radiation_type           CuK\a
_diffrn_radiation_wavelength     1.54184
_diffrn_reflns_av_R_equivalents  0.0592
_diffrn_reflns_av_unetI/netI     0.0798
_diffrn_reflns_Laue_measured_fraction_full 0.985
_diffrn_reflns_Laue_measured_fraction_max 0.985
_diffrn_reflns_limit_h_max       6
_diffrn_reflns_limit_h_min       -6
_diffrn_reflns_limit_k_max       11
_diffrn_reflns_limit_k_min       -11
_diffrn_reflns_limit_l_max       12
_diffrn_reflns_limit_l_min       -12
_diffrn_reflns_number            3087
_diffrn_reflns_point_group_measured_fraction_full 0.985
_diffrn_reflns_point_group_measured_fraction_max 0.985
_diffrn_reflns_reduction_process
;
 Scaled and merged with Sortav
 R.H. Blessing, (1987) Cryst. Rev. 1, 3-58
 R.H. Blessing, (1989) J. Appl. Cryst. 22, 396-397
;
_diffrn_reflns_theta_full        61.543
_diffrn_reflns_theta_max         61.543
_diffrn_reflns_theta_min         4.332
_diffrn_source                   'fine-focus sealed X-ray tube'
_diffrn_standards_number         0
_exptl_absorpt_coefficient_mu    0.471
_exptl_absorpt_correction_T_max  1
_exptl_absorpt_correction_T_min  0.983
_exptl_absorpt_correction_type   multi-scan
_exptl_absorpt_process_details
;
        CrysAlisPro 1.171.40.53 (Rigaku Oxford Diffraction, 2019)
        Empirical absorption correction using spherical harmonics,
        implemented in SCALE3 ABSPACK scaling algorithm.
;
_exptl_crystal_colour            colourless
_exptl_crystal_density_diffrn    1.084
_exptl_crystal_density_method    'not measured'
_exptl_crystal_description       plate
_exptl_crystal_F_000             218
_exptl_crystal_recrystallization_method
'Re-crystallisation from solvent: hexane and ethyl acetate'
_exptl_crystal_size_max          0.4
_exptl_crystal_size_mid          0.1
_exptl_crystal_size_min          0.01
_refine_diff_density_max         0.211
_refine_diff_density_min         -0.124
_refine_diff_density_rms         0.037
_refine_ls_extinction_method     none
_refine_ls_goodness_of_fit_ref   0.813
_refine_ls_hydrogen_treatment    constr
_refine_ls_matrix_type           full
_refine_ls_number_constraints    0
_refine_ls_number_parameters     137
_refine_ls_number_reflns         3087
_refine_ls_number_restraints     0
_refine_ls_restrained_S_all      0.813
_refine_ls_R_factor_all          0.0947
_refine_ls_R_factor_gt           0.0502
_refine_ls_shift/su_max          0
_refine_ls_shift/su_mean         0
_refine_ls_structure_factor_coef Fsqd
_refine_ls_weighting_details
'w=1/[\s^2^(Fo^2^)+(0.0590P)^2^] where P=(Fo^2^+2Fc^2^)/3'
_refine_ls_weighting_scheme      calc
_refine_ls_wR_factor_gt          0.1062
_refine_ls_wR_factor_ref         0.1168
_reflns_Friedel_coverage         0
_reflns_number_gt                1672
_reflns_number_total             3087
_reflns_threshold_expression     'I > 2\s(I)'
_iucr_refine_instructions_details
;
TITL shelxt_a.res in P-1
    shelx.res
    created by SHELXL-2018/1 at 15:52:49 on 30-May-2022
CELL  1.54184   6.2887   9.7101  10.8010   73.723   77.522   79.838
ZERR     1.00   0.0006   0.0010   0.0014    0.011    0.010    0.008
LATT   1
SFAC  C    H    N
UNIT  28 36 2
MERG   2
OMIT    -2.00 125.00
FMAP   2
PLAN   20
ACTA
BOND
LIST   4
L.S.  10
TEMP   -83.00
WGHT    0.059000
BASF   0.47627
FVAR      16.07202
C3    1    0.484988    0.370125    0.173704    11.00000    0.03759    0.03599 =
         0.03519   -0.01047   -0.00628    0.00063
C11   1    0.564298    0.426159    0.027946    11.00000    0.03338    0.04097 =
         0.03353   -0.00885   -0.00374   -0.00174
AFIX  13
H11   2    0.721111    0.441906    0.016117    11.00000   -1.20000
AFIX   0
C6    1    0.335851    0.268308    0.447758    11.00000    0.04215    0.03757 =
         0.03265   -0.00730   -0.00513    0.00066
N1    3    1.074189    0.163974    0.022318    11.00000    0.06498    0.06177 =
         0.07531   -0.02567   -0.01296   -0.00371
C4    1    0.283174    0.318926    0.222762    11.00000    0.04315    0.07043 =
         0.03342   -0.01442   -0.00646   -0.01583
AFIX  43
H4    2    0.191546    0.318347    0.163610    11.00000   -1.20000
AFIX   0
C12   1    0.558457    0.317179   -0.048470    11.00000    0.04599    0.04823 =
         0.03876   -0.01483   -0.00343   -0.00414
AFIX  23
H12A  2    0.629756    0.353897   -0.140426    11.00000   -1.20000
H12B  2    0.403316    0.310631   -0.048932    11.00000   -1.20000
AFIX   0
C5    1    0.212398    0.268636    0.356129    11.00000    0.04339    0.06490 =
         0.03797   -0.01356   -0.00084   -0.01889
AFIX  43
H5    2    0.074034    0.233075    0.385745    11.00000   -1.20000
AFIX   0
C13   1    0.671115    0.164633    0.005153    11.00000    0.05103    0.04540 =
         0.05167   -0.01209   -0.00271   -0.00948
AFIX  23
H13A  2    0.588311    0.121873    0.092633    11.00000   -1.20000
H13B  2    0.667426    0.103258   -0.053512    11.00000   -1.20000
AFIX   0
C2    1    0.609022    0.369594    0.265351    11.00000    0.04347    0.06742 =
         0.03831   -0.00799   -0.00485   -0.01890
AFIX  43
H2    2    0.748030    0.404282    0.235906    11.00000   -1.20000
AFIX   0
C7    1    0.251857    0.215355    0.594727    11.00000    0.05235    0.05432 =
         0.03180   -0.00591   -0.00545   -0.00547
C1    1    0.536636    0.320117    0.398345    11.00000    0.05095    0.07251 =
         0.03564   -0.00767   -0.01217   -0.01399
AFIX  43
H1    2    0.627405    0.321718    0.457614    11.00000   -1.20000
AFIX   0
C14   1    0.893191    0.164457    0.015794    11.00000    0.05807    0.04328 =
         0.04698   -0.01180   -0.00555   -0.00092
C8    1    0.431218    0.187153    0.675249    11.00000    0.07977    0.13622 =
         0.03529    0.00139   -0.00976   -0.01201
AFIX  33
H8A   2    0.499687    0.275461    0.657669    11.00000   -1.50000
H8B   2    0.368116    0.157888    0.768559    11.00000   -1.50000
H8C   2    0.542130    0.109829    0.651719    11.00000   -1.50000
AFIX   0
C9    1    0.075100    0.332608    0.636378    11.00000    0.11025    0.10096 =
         0.04199   -0.00659    0.01629    0.02588
AFIX  33
H9A   2   -0.042028    0.351674    0.584673    11.00000   -1.50000
H9B   2    0.013857    0.299443    0.729606    11.00000   -1.50000
H9C   2    0.140683    0.421527    0.621433    11.00000   -1.50000
AFIX   0
C10   1    0.149893    0.076316    0.624579    11.00000    0.15988    0.09037 =
         0.05342    0.01010   -0.00997   -0.06905
AFIX  33
H10A  2    0.032799    0.091867    0.573406    11.00000   -1.50000
H10B  2    0.262573   -0.000315    0.601370    11.00000   -1.50000
H10C  2    0.088560    0.047745    0.718210    11.00000   -1.50000
AFIX   0
HKLF    5




REM  shelxt_a.res in P-1
REM R1 =  0.0502 for    1672 Fo > 4sig(Fo)  and  0.0947 for all    3087 data
REM    137 parameters refined using      0 restraints

END

WGHT      0.0590      0.0000

REM Highest difference peak  0.211,  deepest hole -0.124,  1-sigma level  0.037
Q1    1   0.7358  0.0626 -0.0536  11.00000  0.05    0.21
Q2    1   0.2690  0.3429  0.6573  11.00000  0.05    0.18
Q3    1   0.8057  0.4102 -0.0194  11.00000  0.05    0.17
Q4    1  -0.0296  0.1815  0.6165  11.00000  0.05    0.15
Q5    1   0.7920 -0.0238 -0.0992  11.00000  0.05    0.14
Q6    1   0.1561  0.0280  0.7200  11.00000  0.05    0.14
Q7    1   0.0593  0.2098  0.6211  11.00000  0.05    0.14
Q8    1   0.4532  0.0662  0.6567  11.00000  0.05    0.13
Q9    1   0.5000  0.5000  0.0000  10.50000  0.05    0.13
Q10   1   0.5518  0.3869  0.0023  11.00000  0.05    0.12
Q11   1   0.3316  0.3473  0.4272  11.00000  0.05    0.12
Q12   1   0.2310  0.3251  0.4163  11.00000  0.05    0.12
Q13   1   0.3422  0.3951  0.1923  11.00000  0.05    0.12
Q14   1   0.4403  0.4130  0.3968  11.00000  0.05    0.12
Q15   1   0.4885  0.4606  0.2734  11.00000  0.05    0.11
Q16   1   0.4236  0.3371  0.1989  11.00000  0.05    0.11
Q17   1   0.5855  0.5138  0.2315  11.00000  0.05    0.11
Q18   1   0.6500  0.5035  0.2426  11.00000  0.05    0.11
Q19   1   0.0644  0.2747  0.3815  11.00000  0.05    0.11
Q20   1   0.4983  0.4385  0.3146  11.00000  0.05    0.10
;
_cod_data_source_file            d2sc03418b2.cif
_cod_data_source_block           2118mg16
_cod_database_code               1567526
_shelx_shelxl_version_number     2018/1
_iucr_refine_reflections_details
;
   0   0  -1 5964.68 510.854  -2
   0   0  -1 5964.68 510.854   1
   0   0  -2 217165. 1701.56  -2
   0   0  -2 217165. 1701.56   1
   0   0  -3 934807. 5309.08  -2
   0   0  -3 934807. 5309.08   1
   0   0  -4 4099.44 1055.34  -2
   0   0  -4 4099.44 1055.34   1
   0   0  -5 405936. 4878.80  -2
   0   0  -5 405936. 4878.80   1
   0   0   6 13434.0 640.124  -2
   0   0   6 13434.0 640.124   1
   0   0   7 937.179 574.842  -2
   0   0   7 937.179 574.842   1
   0   0   8 11150.6 715.467  -2
   0   0   8 11150.6 715.467   1
   0   0   9-360.867 626.489  -2
   0   0   9-360.867 626.489   1
   0   0  10 516.957 534.951  -2
   0   0  10 516.957 534.951   1
   0   0 -11 706.065 663.225  -2
   0   0 -11 706.065 663.225   1
   0   1 -11 501.407 660.014   1
   0   1 -10 2154.28 585.642   1
   0   1  -9 7955.62 672.242   1
   0   1  -8 1284.53 484.493   1
   0  -1   7 3107.82 422.129   1
   0  -1   6 1840.23 365.781   1
   0   1  -5 18704.2 1589.26   1
   0   1  -4 52921.7 1921.40   1
   0   1  -3 6997.86 1032.81   1
   0   1  -2 117411. 1966.90   1
   0   1  -1 11509.2 774.721   1
   0   1   0 23902.7 631.211   1
   0   1   1 34623.9 797.144   1
   0  -1  -2 312.583 655.275   1
   0  -1  -3 64508.3 1540.35   1
   0  -1  -4 23344.4 1260.87   1
   0  -1  -5 32259.9 1188.32   1
   0   1   6 621.610 387.215   1
   0  -1  -7 1214.83 431.794   1
   0   1   8 232.003 494.269   1
   0  -1  -9 169.337 463.142   1
   0   1  10 1019.67 484.420   1
   0   1  11 377.426 419.272   1
   0   2 -10 236.932 752.899   1
   0   2  10-157.660 777.140  -2
   0  -2   9-157.660 777.140   1
   0   2   9 6087.29 810.554  -2
   0  -2   8 6087.29 810.554   1
   0  -2  -8 2490.21 726.609  -2
   0   2  -7 2490.21 726.609   1
   0  -2  -7 2476.82 501.787  -2
   0   2  -6 2476.82 501.787   1
   0   2   6 8843.82 479.115  -2
   0  -2   5 8843.82 479.115   1
   0  -2  -5 70796.9 2413.09  -2
   0   2  -4 70796.9 2413.09   1
   0  -2  -4 31724.1 1743.29  -2
   0   2  -3 31724.1 1743.29   1
   0  -2  -3 109481. 2226.69  -2
   0   2  -2 109481. 2226.69   1
   0   2  -1 67271.9 1634.46   1
   0   2   0 514526. 3437.71   1
   0   2   1 350268. 2934.14   1
   0  -2  -2 95881.2 1225.17   1
   0   2  -2 112266. 2015.41  -2
   0  -2  -3 112266. 2015.41   1
   0   2  -3 33580.7 1557.12  -2
   0  -2  -4 33580.7 1557.12   1
   0   2  -4 65611.9 2153.16  -2
   0  -2  -5 65611.9 2153.16   1
   0  -2   5 8647.01 565.444  -2
   0   2   6 8647.01 565.444   1
   0  -2   6 3076.68 578.305  -2
   0   2   7 3076.68 578.305   1
   0  -2   7 3292.13 694.701  -2
   0   2   8 3292.13 694.701   1
   0  -2   8 7088.65 776.923  -2
   0   2   9 7088.65 776.923   1
   0   2  10 46.9305 794.963   1
   0  -2   9 616.724 761.280  -2
   0   2  10 616.724 761.280   1
   0   2  11-65.2130 792.899   1
   0  -2  10 635.070 679.270  -2
   0   2  11 635.070 679.270   1
   0   3 -10 1329.43 710.308   1
   0   3  -9 6446.98 915.006   1
   0   3  -8 4260.64 960.741   1
   0  -3   7 3013.33 576.524   1
   0   3  -6 9484.06 565.266   1
   0   3  -5 3070.51 450.303   1
   0   3  -4 4009.18 610.328   1
   0   3  -3 83062.1 2473.01   1
   0   3  -2 4601.91 1127.42   1
   0   3  -1 69742.8 1928.04   1
   0   3   0 26516.7 1347.13   1
   0   3   1 77678.6 1875.17   1
   0   3   2 326848. 3598.75   1
   0  -3  -3 26849.6 1341.50   1
   0  -3  -4 74873.5 2112.70   1
   0  -3  -5 13497.2 1355.94   1
   0   3   6 29193.2 592.637   1
   0  -3  -7 30905.7 640.767   1
   0   3   8 24222.5 739.583   1
   0   3   9 5045.96 616.031   1
   0   3  10 10272.7 681.921   1
   0   3  11 95.4889 428.468   1
   0   3  12 1319.10 565.690   1
   0   4  -9 2526.77 728.405   1
   0   4  -8 6909.61 949.216   1
   0   4  -7 6669.63 1006.55   1
   0   4  -6 19471.4 734.941   1
   0   4  -5 10321.8 569.765   1
   0   4  -4 70905.4 1216.64   1
   0   4  -3 18158.0 775.330   1
   0   4  -2 11036.9 1405.25   1
   0   4  -1 36664.3 1816.05   1
   0   4   1 127677. 2683.30   1
   0   4   2 30918.8 1616.17   1
   0  -4  -3 2948.59 724.597   1
   0  -4  -4 11956.2 1330.83   1
   0  -4  -5 238.689 514.410   1
   0   4   6 2622.03 436.054   1
   0  -4  -7 5768.10 505.573   1
   0   4   8 1608.16 542.905   1
   0   4   9 23894.5 773.925   1
   0   4  10 226.546 550.406   1
   0   4  11 185.798 488.648   1
   0   5  -8 3005.95 791.010   1
   0   5  -7 11942.2 1001.05   1
   0   5  -6 597.842 570.219   1
   0   5  -5-135.797 568.753   1
   0   5  -4 12065.2 621.901   1
   0   5  -3 6379.71 672.122   1
   0  -5  -6 15600.0 1071.34  -2
   0   5  -3 15600.0 1071.34   1
   0   5  -2 1306.20 676.372   1
   0  -5  -5 4522.26 786.727  -2
   0   5  -2 4522.26 786.727   1
   0   5  -1 2432.44 649.817   1
   0  -5  -4 2750.68 840.538  -2
   0   5  -1 2750.68 840.538   1
   0  -5  -3 390.002 1466.02  -2
   0   5   0 390.002 1466.02   1
   0  -5  -2 39157.5 2114.80  -2
   0   5   1 39157.5 2114.80   1
   0   5   2 8870.44 1304.79   1
   0  -5   0 564.182 1474.96  -2
   0   5   3 564.182 1474.96   1
   0  -5  -4 1144.41 525.958   1
   0  -5  -5 4108.40 618.991   1
   0  -5  -6 12643.0 742.699   1
   0   5   7 5692.81 751.040   1
   0   5   8 11045.9 641.883   1
   0   5   9 1213.25 562.335   1
   0   5  10 2618.97 780.208   1
   0   5  11 2030.58 674.576   1
   0   6  -8 809.127 636.274   1
   0   6  -7 956.307 746.040   1
   0   6  -6 138.895 567.716   1
   0   6  -5 1119.87 593.698   1
   0   6  -4 6452.10 657.095   1
   0   6  -3 778.179 565.862   1
   0   6  -2 16204.3 673.812   1
   0   6  -1 13807.0 599.636   1
   0   6   0 16690.7 568.286   1
   0   6   1 27402.6 843.529   1
   0   6   2 6014.00 608.760   1
   0   6   3 33147.7 649.214   1
   0  -6  -4 5421.56 652.877   1
   0   6   5 7169.79 700.830   1
   0   6   6 4228.40 672.924   1
   0   6   7-10.2093 746.598   1
   0   6   8-77.5368 755.744   1
   0   6   9 388.954 831.493   1
   0  -6 -10 8363.34 600.486   1
   0   6  11 271.896 644.570   1
   0  -7 -10 6208.29 685.228  -2
   0   7  -6 6208.29 685.228   1
   0  -7  -9 5280.46 786.487  -2
   0   7  -5 5280.46 786.487   1
   0  -7  -8 2172.58 809.397  -2
   0   7  -4 2172.58 809.397   1
   0  -7  -7 4120.20 830.613  -2
   0   7  -3 4120.20 830.613   1
   0  -7  -6 13978.2 925.352  -2
   0   7  -2 13978.2 925.352   1
   0  -7  -5 2875.26 758.084  -2
   0   7  -1 2875.26 758.084   1
   0  -7  -4 14518.5 1068.31  -2
   0   7   0 14518.5 1068.31   1
   0  -7  -3 26282.0 1173.53  -2
   0   7   1 26282.0 1173.53   1
   0  -7  -2 24299.6 1105.21  -2
   0   7   2 24299.6 1105.21   1
   0  -7  -1 24101.0 831.630  -2
   0   7   3 24101.0 831.630   1
   0   7   0 14865.9 1088.45  -2
   0  -7  -4 14865.9 1088.45   1
   0  -7   1 2565.97 1050.37  -2
   0   7   5 2565.97 1050.37   1
   0  -7   2 11965.7 1199.82  -2
   0   7   6 11965.7 1199.82   1
   0  -7   3 4115.67 1137.25  -2
   0   7   7 4115.67 1137.25   1
   0  -7   4 2741.44 1049.03  -2
   0   7   8 2741.44 1049.03   1
   0  -7   5 5455.35 1053.72  -2
   0   7   9 5455.35 1053.72   1
   0  -7   6 7173.00 674.160  -2
   0   7  10 7173.00 674.160   1
   0   8  -5 565.795 481.386   1
   0   8  -4 47.6615 561.592   1
   0   8  -3 107.504 584.811   1
   0   8  -2 8508.19 702.143   1
   0   8  -1-40.2231 860.401   1
   0   8   0 2914.88 869.238   1
   0   8   1 7440.92 914.537   1
   0   8   2 645.065 562.217   1
   0   8   3 32603.9 833.359   1
   0   8   4 3515.29 893.107   1
   0   8   5 7256.49 952.798   1
   0   8   6 2809.21 871.694   1
   0   8   7 693.240 849.043   1
   0   8   8 2853.64 777.230   1
   0   8   9 2722.80 467.896   1
   0  -8 -10 2320.40 606.525   1
   0  -9  -9 2264.43 823.572  -2
   0   9  -4 2264.43 823.572   1
   0  -9  -8 523.404 769.688  -2
   0   9  -3 523.404 769.688   1
   0  -9  -7 4873.28 1117.01  -2
   0   9  -2 4873.28 1117.01   1
   0  -9  -6 2207.30 1093.07  -2
   0   9  -1 2207.30 1093.07   1
   0  -9  -5 1452.39 841.095  -2
   0   9   0 1452.39 841.095   1
   0  -9  -4 6382.78 833.718  -2
   0   9   1 6382.78 833.718   1
   0  -9  -3 2336.87 672.685  -2
   0   9   2 2336.87 672.685   1
   0  -9  -2 3181.33 1156.67  -2
   0   9   3 3181.33 1156.67   1
   0  -9  -1 7571.56 1175.18  -2
   0   9   4 7571.56 1175.18   1
   0  -9   0 1533.50 615.159  -2
   0   9   5 1533.50 615.159   1
   0   9  -1 3678.62 757.233  -2
   0  -9  -6 3678.62 757.233   1
   0   9  -2 5878.09 750.066  -2
   0  -9  -7 5878.09 750.066   1
   0   9  -3 1315.62 629.227  -2
   0  -9  -8 1315.62 629.227   1
   0   9  -4 2137.48 674.521  -2
   0  -9  -9 2137.48 674.521   1
   0  10  -1 2051.09 484.925   1
   0  10   0 1072.63 493.665   1
   0  10   1 260.675 712.447   1
   0 -10  -5 90.1924 925.031  -2
   0  10   1 90.1924 925.031   1
   0  10   2 731.118 706.839   1
   0 -10  -4 2695.19 953.281  -2
   0  10   2 2695.19 953.281   1
   0  10   3-70.4854 695.326   1
   0  10   4 1336.99 719.454   1
   0  10   5-177.502 712.310   1
   0  10   6 997.127 465.461   1
   0  10   7 260.347 598.368   1
   1 -10   1 259.131 683.521  -2
  -1  10   6 259.131 683.521   1
   1 -10   0 8.90291 820.812  -2
  -1  10   5 8.90291 820.812   1
   1 -10  -1 2406.36 937.990  -2
  -1  10   4 2406.36 937.990   1
   1 -10  -2 1829.50 912.541  -2
  -1  10   3 1829.50 912.541   1
   1 -10  -3 2341.79 958.320  -2
  -1  10   2 2341.79 958.320   1
   1 -10  -4 1599.21 932.647  -2
  -1  10   1 1599.21 932.647   1
   1 -10  -5 668.205 630.844  -2
  -1  10   0 668.205 630.844   1
   1  -9  -8 564.688 439.673   1
  -1   9   7 294.127 476.364   1
  -1   9   6-308.292 516.319   1
   1  -9  -5 345.498 539.589   1
  -1   9   4 280.723 823.630   1
   1  -9  -1 8835.62 1169.49  -2
  -1   9   3 8835.62 1169.49   1
   1  -9  -2 2833.21 1141.21  -2
  -1   9   2 2833.21 1141.21   1
  -1   9   1 744.537 540.481   1
  -1   9   0 494.035 1030.29   1
   1  -9  -4 517.311 1079.02  -2
  -1   9   0 517.311 1079.02   1
  -1   9  -1 1748.66 553.986   1
  -1   9  -2 3010.55 790.312   1
  -1   9  -3 390.329 671.289   1
   1  -8   5 1041.26 594.909  -2
  -1   8   9 1041.26 594.909   1
   1  -8   4 1393.47 656.322  -2
  -1   8   8 1393.47 656.322   1
   1  -8   3 814.928 737.020  -2
  -1   8   7 814.928 737.020   1
   1  -8   2 4841.07 788.288  -2
  -1   8   6 4841.07 788.288   1
   1  -8   1 3446.21 785.623  -2
  -1   8   5 3446.21 785.623   1
  -1   8   0 1127.07 727.858  -2
   1  -8  -4 1127.07 727.858   1
   1  -8  -1 4056.59 1138.50  -2
  -1   8   3 4056.59 1138.50   1
   1  -8  -2-442.600 1113.43  -2
  -1   8   2-442.600 1113.43   1
   1  -8  -3 4620.03 796.839  -2
  -1   8   1 4620.03 796.839   1
   1  -8  -4 1009.78 1047.33  -2
  -1   8   0 1009.78 1047.33   1
   1  -8  -5 2204.12 1065.46  -2
  -1   8  -1 2204.12 1065.46   1
   1  -8  -6 4274.99 1149.41  -2
  -1   8  -2 4274.99 1149.41   1
   1  -8  -7 792.802 1103.41  -2
  -1   8  -3 792.802 1103.41   1
   1  -8  -8 2137.91 988.298  -2
  -1   8  -4 2137.91 988.298   1
   1  -8  -9 1890.83 871.766  -2
  -1   8  -5 1890.83 871.766   1
  -1   7  10 240.124 587.898   1
   1  -7  -9 1317.11 530.073   1
  -1   7   8 1810.70 571.106   1
  -1   7   7 11637.1 733.236   1
  -1   7   6 347.602 578.609   1
   1  -7  -5 5988.45 662.765   1
  -1   7   4 2518.33 606.232   1
   1  -7  -3 1825.57 759.727   1
   1  -7   0 900.229 1077.25  -2
  -1   7   3 900.229 1077.25   1
   1  -7  -2 65841.6 1335.07   1
   1  -7  -1 69060.3 1729.74  -2
  -1   7   2 69060.3 1729.74   1
  -1   7   1 3066.59 777.922   1
  -1   7   0 233.575 792.992   1
  -1   7  -1 315.357 829.465   1
  -1   7  -2 209.518 874.771   1
   1  -7  -5 5113.57 1062.81  -2
  -1   7  -2 5113.57 1062.81   1
  -1   7  -3 3988.75 632.509   1
  -1   7  -4 2945.21 605.577   1
  -1   7  -5 151.878 578.220   1
  -1   7  -6 344.648 512.922   1
  -1   6  10 450.395 659.034   1
  -1   6   9-5.38941 425.816   1
  -1   6   8 3345.40 497.196   1
  -1   6   7 2251.99 589.114   1
  -1   6   6 9835.53 945.071   1
   1  -6  -5 4803.90 732.452   1
  -1   6   4 442.249 619.986   1
   1  -6  -3 366.975 1276.25   1
   1  -6   0 887.277 934.865  -2
  -1   6   3 887.277 934.865   1
   1  -6  -2 54620.8 1168.53   1
   1  -6  -1 58698.8 2757.15  -2
  -1   6   2 58698.8 2757.15   1
  -1   6   1 12216.1 780.714   1
   1  -6  -2 56677.0 2757.18  -2
  -1   6   1 56677.0 2757.18   1
  -1   6   0 69.2550 680.177   1
   1  -6  -3 862.430 1809.28  -2
  -1   6   0 862.430 1809.28   1
  -1   6  -1 617.734 749.821   1
   1  -6  -4 1131.64 817.471  -2
  -1   6  -1 1131.64 817.471   1
  -1   6  -2-54.3314 666.749   1
   1  -6  -5 3735.84 971.302  -2
  -1   6  -2 3735.84 971.302   1
  -1   6  -3 8308.21 663.986   1
  -1   6  -4 50.0731 569.514   1
  -1   6  -5 1094.93 584.592   1
  -1   6  -6 356.857 592.041   1
  -1   6  -7 1067.60 506.265   1
  -1   5  11 616.461 594.872   1
  -1   5  10 775.889 513.213   1
  -1   5   9 1109.24 454.451   1
   1  -5  -8 997.966 464.989   1
  -1   5   7 9635.38 657.632   1
   1  -5  -6 4720.49 750.308   1
   1  -5  -5 7498.13 711.909   1
  -1   5   4 11953.0 713.331   1
   1  -5   1 18674.4 878.845  -2
  -1   5   3 18674.4 878.845   1
   1  -5   0 68388.9 1092.32  -2
  -1   5   2 68388.9 1092.32   1
   1  -5  -1 61166.9 2502.73  -2
  -1   5   1 61166.9 2502.73   1
   1  -5  -2 60482.3 1108.00  -2
  -1   5   0 60482.3 1108.00   1
   1  -5  -3 18517.6 638.780  -2
  -1   5  -1 18517.6 638.780   1
   1  -5  -4 15650.4 682.054  -2
  -1   5  -2 15650.4 682.054   1
   1  -5  -5 7077.65 617.387  -2
  -1   5  -3 7077.65 617.387   1
   1  -5   4 5377.81 729.253   1
   1  -5  -6 8397.76 927.543  -2
  -1   5  -4 8397.76 927.543   1
  -1   5  -5 774.330 609.037   1
  -1   5  -6 2343.52 625.177   1
  -1   5  -7 406.043 560.240   1
  -1   5  -8 494.581 698.964   1
  -1   4  11 1516.49 391.186   1
  -1   4  10 1190.03 546.008   1
  -1   4   9 2944.72 597.873   1
  -1   4   8 308.951 457.897   1
   1  -4  -7 2158.79 524.899   1
  -1   4   6 2913.02 642.244   1
   1  -4  -5 310.351 547.583   1
  -1   4   4 616.869 602.894   1
   1  -4  -3-3.11877 1150.54   1
   1  -4  -2 125593. 2026.70   1
  -1   4   1 84849.4 2379.66   1
  -1   4   0 39031.4 1845.46   1
  -1   4  -2 13503.6 1412.10   1
  -1   4  -3 619.910 402.370   1
  -1   4  -4 5951.87 472.320   1
   1  -4   5 9228.38 534.316   1
  -1   4  -6 2920.46 854.471   1
  -1   4  -7 613.442 860.924   1
  -1   4  -8 4995.33 592.286   1
  -1   4  -9 736.717 688.198   1
   1  -3  10 601.616 498.315  -2
  -1   3  11 601.616 498.315   1
   1  -3   9 4041.93 607.850  -2
  -1   3  10 4041.93 607.850   1
   1  -3   8 2718.23 777.702  -2
  -1   3   9 2718.23 777.702   1
   1  -3   7 17172.7 905.527  -2
  -1   3   8 17172.7 905.527   1
   1  -3   6 1780.23 620.574  -2
  -1   3   7 1780.23 620.574   1
   1  -3   5 46507.9 1183.68  -2
  -1   3   6 46507.9 1183.68   1
   1  -3   4 32403.7 1011.64  -2
  -1   3   5 32403.7 1011.64   1
  -1   3  -3 13271.5 1718.93  -2
   1  -3  -4 13271.5 1718.93   1
  -1   3  -2 45376.7 2175.21  -2
   1  -3  -3 45376.7 2175.21   1
  -1   3  -1 111911. 1933.55  -2
   1  -3  -2 111911. 1933.55   1
   1  -3   0 217485. 3398.47  -2
  -1   3   1 217485. 3398.47   1
   1  -3  -1 209117. 3703.67  -2
  -1   3   0 209117. 3703.67   1
   1  -3  -2 121964. 2868.22  -2
  -1   3  -1 121964. 2868.22   1
   1  -3  -3 50112.3 2291.23  -2
  -1   3  -2 50112.3 2291.23   1
   1  -3  -4 11657.5 1637.18  -2
  -1   3  -3 11657.5 1637.18   1
   1  -3  -5 34985.5 1035.66  -2
  -1   3  -4 34985.5 1035.66   1
   1  -3  -6 43413.1 1191.99  -2
  -1   3  -5 43413.1 1191.99   1
   1  -3  -7 1383.37 880.094  -2
  -1   3  -6 1383.37 880.094   1
   1  -3  -8 15855.5 1310.53  -2
  -1   3  -7 15855.5 1310.53   1
   1  -3  -9 2120.41 1133.44  -2
  -1   3  -8 2120.41 1133.44   1
   1  -3 -10 2266.47 1057.76  -2
  -1   3  -9 2266.47 1057.76   1
   1  -3 -11 1757.81 926.828  -2
  -1   3 -10 1757.81 926.828   1
  -1   2  11 1830.57 396.450   1
   1  -2 -10 95.4545 458.073   1
  -1   2   9 22331.0 810.073   1
  -1   2   8 3447.07 580.926   1
   1  -2  -7 3797.76 478.380   1
   1  -2  -6 43716.4 687.484   1
   1  -2  -5 10788.2 1449.64   1
   1  -2  -4 1629.57 1086.35   1
   1  -2  -3 1528.36 994.416   1
   1  -2  -2 1015.34 891.155   1
   1  -2  -1 428268. 2496.29   1
  -1   2   0 13727.0 971.750   1
  -1   2  -1 29483.6 1183.94   1
  -1   2  -2 24566.5 587.470   1
  -1   2  -3-226.298 944.192   1
  -1   2  -4 13803.4 1400.04   1
  -1   2  -5 893.054 404.621   1
   1  -2   6 1140.99 472.113   1
  -1   2  -7 9382.52 605.016   1
  -1   2  -8 2710.84 897.791   1
  -1   2  -9 499.895 812.365   1
  -1   2 -10 167.859 745.153   1
  -1   1 -11 187.444 611.738  -2
   1  -1 -11 187.444 611.738   1
   1  -1  10 8861.34 660.969  -2
  -1   1  10 8861.34 660.969   1
  -1   1  -9 1277.58 627.678  -2
   1  -1  -9 1277.58 627.678   1
   1  -1   8 2976.69 760.993  -2
  -1   1   8 2976.69 760.993   1
   1  -1   7 17912.3 800.874  -2
  -1   1   7 17912.3 800.874   1
  -1   1  -6 5366.83 605.240  -2
   1  -1  -6 5366.83 605.240   1
  -1   1  -5 61530.2 2068.75  -2
   1  -1  -5 61530.2 2068.75   1
  -1   1  -4 82405.1 3008.17  -2
   1  -1  -4 82405.1 3008.17   1
  -1   1  -3 2572.37 1230.06  -2
   1  -1  -3 2572.37 1230.06   1
  -1   1  -2 15385.3 1391.13  -2
   1  -1  -2 15385.3 1391.13   1
  -1   1  -1 102459. 2165.07  -2
   1  -1  -1 102459. 2165.07   1
   1  -1   0 999999. 4962.05  -2
  -1   1   0 999999. 4962.05   1
   1  -1  -1 114449. 1335.51  -2
  -1   1  -1 114449. 1335.51   1
   1  -1  -2 15782.3 775.469  -2
  -1   1  -2 15782.3 775.469   1
  -1   1   3 3628.54 689.537  -2
   1  -1   3 3628.54 689.537   1
   1  -1  -4 76827.8 2735.53  -2
  -1   1  -4 76827.8 2735.53   1
   1  -1  -5 64289.9 2866.06  -2
  -1   1  -5 64289.9 2866.06   1
   1  -1  -6 5072.54 433.033  -2
  -1   1  -6 5072.54 433.033   1
   1  -1  -7 15707.5 663.811  -2
  -1   1  -7 15707.5 663.811   1
   1  -1  -8 2620.33 804.506  -2
  -1   1  -8 2620.33 804.506   1
  -1   1   9 366.329 753.721  -2
   1  -1   9 366.329 753.721   1
   1  -1 -10 8378.99 1231.90  -2
  -1   1 -10 8378.99 1231.90   1
   1  -1 -11-70.6035 871.308  -2
  -1   1 -11-70.6035 871.308   1
  -1   0  11-2.91234 367.178   1
  -1   0  10 398.073 432.281   1
   1   0  -9 833.571 479.327   1
  -1   0   8 246.855 463.328   1
   1   0  -7 1293.27 403.400   1
  -1   0   6 245.549 412.266   1
   1   0  -5 1246.01 1145.29   1
   1   0  -4 21196.0 1456.87   1
   1   0  -3 884.640 684.534   1
   1   0  -2 73568.2 866.019   1
   1   0  -1 30574.4 746.605   1
   1   0   0 155237. 1400.61   1
   1   0   1 146.243 203.343   1
   1   0   2 27444.6 688.388   1
  -1   0  -3 28746.1 1171.25   1
  -1   0  -4 56.1803 931.507   1
  -1   0  -5 302.539 1047.72   1
   1   0   6 2851.17 425.865   1
   1   0   7 13782.9 469.209   1
  -1   0  -8 42237.1 706.369   1
  -1   0  -9 460.910 473.153   1
   1   0  10 249.921 593.821   1
  -1   0 -11 4796.44 825.836   1
   1   1 -10 4366.05 449.160   1
  -1  -1   9 2715.62 616.014   1
   1   1  -8 996.790 466.256   1
  -1  -1   7 44980.5 716.726   1
   1   1  -6 847.474 431.582   1
  -1  -1  -7 1550.21 848.951  -2
   1   1  -6 1550.21 848.951   1
   1   1  -5 9277.10 459.852   1
   1   1  -4 312473. 4225.54   1
  -1  -1  -4 345.597 1211.47  -2
   1   1  -3 345.597 1211.47   1
  -1  -1  -3 208298. 2495.19  -2
   1   1  -2 208298. 2495.19   1
  -1  -1  -2 142938. 1743.23  -2
   1   1  -1 142938. 1743.23   1
   1   1   0 3112.67 389.630   1
   1   1   1 846009. 2596.39   1
  -1  -1  -2 3569.94 384.473   1
  -1  -1  -3 26273.1 772.506   1
  -1  -1  -4 227.106 821.263   1
  -1  -1  -5 3470.69 1174.74   1
  -1  -1  -6 742.229 1109.07   1
   1   1   7 870.632 432.863   1
  -1  -1   6 1699.64 867.349  -2
   1   1   7 1699.64 867.349   1
   1   1   8 1619.41 477.589   1
  -1  -1   7 41767.4 1321.87  -2
   1   1   8 41767.4 1321.87   1
   1   1   9 11831.4 717.325   1
  -1  -1   8 12231.7 1166.05  -2
   1   1   9 12231.7 1166.05   1
  -1  -1 -10 1216.42 570.505   1
  -1  -1   9 4487.51 1141.99  -2
   1   1  10 4487.51 1141.99   1
  -1  -1 -11 544.974 547.627   1
  -1  -1 -12 374.781 674.719   1
   1   2 -10 766.392 710.849   1
  -1  -2   9 1000.42 448.086   1
   1   2  -8 3230.94 489.123   1
   1   2  -7-140.974 555.064   1
  -1  -2   6 1321.93 390.998   1
   1   2  -5 65.2873 324.735   1
   1   2  -4 449.716 1127.41   1
   1   2  -3 10557.5 1245.16   1
   1   2  -2 3365.54 928.618   1
   1   2  -1 15776.8 1004.82   1
   1   2   0 4277.76 539.474   1
   1   2   1 57532.4 904.943   1
   1   2   2 2091.01 616.040   1
  -1  -2  -3 8639.05 688.849   1
  -1  -2  -4 453.621 664.657   1
  -1  -2  -5 88.3191 765.986   1
  -1  -2  -6 851.023 1102.00   1
   1   2   7 2224.76 419.928   1
   1   2   8 38342.6 638.438   1
   1   2   9 8832.57 631.496   1
   1   2  10 185.877 557.157   1
  -1  -2 -11 1186.01 435.462   1
  -1  -2 -12 289.705 698.515   1
   1   3  -9 1520.74 737.193   1
   1   3  -8 2006.79 477.496   1
  -1  -3   7 495.458 465.263   1
  -1  -3   6-112.821 399.761   1
   1   3  -5-30.8860 372.847   1
   1   3  -4 20033.6 553.647   1
   1   3  -3 4820.23 1220.67   1
   1   3  -2 3317.28 1168.25   1
   1   3  -1 71877.2 2022.80   1
   1   3   0 571.122 485.750   1
   1   3   1 33258.2 832.425   1
   1   3   2 20736.7 1155.70   1
   1   3   3 4544.32 616.620   1
  -1  -3  -4 4174.32 846.867   1
  -1  -3  -5 24372.3 1282.68   1
   1   3   6 1797.05 598.294   1
   1   3   7 1074.65 420.228   1
   1   3   8 6403.79 511.352   1
   1   3   9 20176.7 596.537   1
   1   3  10 7531.07 634.118   1
   1   3  11 181.691 415.351   1
   1   3  12 1306.66 376.056   1
   1   4  -9 861.080 658.405   1
   1   4  -8 3409.26 826.907   1
   1   4  -7 5726.11 638.791   1
   1   4  -6 2593.23 599.953   1
   1   4  -5 210.211 503.800   1
   1   4  -4 166.494 358.253   1
   1   4  -3 10298.6 624.340   1
  -1  -4  -6 13064.2 654.152  -2
   1   4  -3 13064.2 654.152   1
   1   4  -2 392.340 1115.70   1
  -1  -4  -4 40171.0 1989.95  -2
   1   4  -1 40171.0 1989.95   1
   1   4   0 6793.68 1130.39   1
   1   4   1 1373.28 713.427   1
  -1  -4  -2 53743.2 1919.22  -2
   1   4   1 53743.2 1919.22   1
   1   4   2 62354.1 1902.74   1
  -1  -4   0 17212.3 1567.42  -2
   1   4   3 17212.3 1567.42   1
  -1  -4  -4 43145.6 1637.76   1
  -1  -4  -5 29470.5 1495.17   1
   1   4   6 3506.49 621.506   1
   1   4   7 1161.81 621.867   1
  -1  -4  -8 1780.65 631.857   1
   1   4   9 41768.6 1273.66   1
   1   4  10 1033.13 562.509   1
   1   4  11 23.2775 653.465   1
  -1  -4 -12-38.1935 428.949   1
   1   5  -8 2275.23 722.130   1
   1   5  -7 6799.37 867.094   1
   1   5  -6 4017.79 626.853   1
   1   5  -5 17271.9 727.738   1
   1   5  -4 371.848 417.670   1
   1   5  -3 14455.1 463.860   1
   1   5  -2 629.269 359.360   1
   1   5  -1 1975.25 348.531   1
   1   5   0 25543.0 1762.27   1
   1   5   1 22606.3 1622.63   1
   1   5   2 2870.01 702.527   1
   1   5   3 793.590 1107.04   1
  -1  -5  -4 15838.2 1304.24   1
  -1  -5  -5 32086.8 828.551   1
   1   5   6 125.232 619.984   1
   1   5   7 1873.45 708.181   1
   1   5   8 590.133 565.808   1
   1   5   9 1597.80 760.599   1
   1   5  10 13248.3 968.079   1
   1   5  11 2457.95 678.124   1
  -1  -5 -12 433.452 655.195   1
  -1  -6 -11 311.548 900.028  -2
   1   6  -7 311.548 900.028   1
  -1  -6 -10 13387.0 1178.07  -2
   1   6  -6 13387.0 1178.07   1
  -1  -6  -9 8227.34 811.875  -2
   1   6  -5 8227.34 811.875   1
  -1  -6  -8 7590.52 640.080  -2
   1   6  -4 7590.52 640.080   1
  -1  -6  -7 3057.96 611.289  -2
   1   6  -3 3057.96 611.289   1
  -1  -6  -6 1023.53 554.316  -2
   1   6  -2 1023.53 554.316   1
  -1  -6  -5 809.181 623.367  -2
   1   6  -1 809.181 623.367   1
  -1  -6  -4 17666.7 737.404  -2
   1   6   0 17666.7 737.404   1
  -1  -6  -3 10567.1 903.325  -2
   1   6   1 10567.1 903.325   1
  -1  -6  -2 1102.02 731.623  -2
   1   6   2 1102.02 731.623   1
  -1  -6  -1 8175.62 593.443  -2
   1   6   3 8175.62 593.443   1
  -1  -6   0 19001.0 753.522  -2
   1   6   4 19001.0 753.522   1
  -1  -6   1 897.238 539.954  -2
   1   6   5 897.238 539.954   1
  -1  -6   2 1544.80 885.852  -2
   1   6   6 1544.80 885.852   1
  -1  -6   3 3828.95 987.189  -2
   1   6   7 3828.95 987.189   1
  -1  -6   4 7477.36 1094.04  -2
   1   6   8 7477.36 1094.04   1
  -1  -6   5 10599.7 906.530  -2
   1   6   9 10599.7 906.530   1
  -1  -6   6 13952.6 1162.31  -2
   1   6  10 13952.6 1162.31   1
  -1  -6   7 1642.33 834.518  -2
   1   6  11 1642.33 834.518   1
   1   7  -6 1110.00 726.330   1
   1   7  -5 1762.89 535.442   1
   1   7  -4 86.2337 582.123   1
   1   7  -3 1363.74 591.701   1
   1   7  -2 172.321 548.912   1
   1   7  -1 6871.44 635.409   1
   1   7   0 1546.78 534.723   1
   1   7   1 3860.18 693.428   1
   1   7   2 2698.54 498.336   1
   1   7   3 1252.10 454.474   1
   1   7   4-132.582 439.485   1
   1   7   5 758.978 457.206   1
   1   7   6 2576.19 737.518   1
   1   7   7 46.7391 758.401   1
   1   7   8 962.369 730.899   1
   1   7   9 978.570 615.426   1
   1   7  10 122.039 675.689   1
   1   7  11 4398.19 601.386   1
  -1  -8 -10 2644.69 516.322  -2
   1   8  -5 2644.69 516.322   1
  -1  -8  -9 678.237 681.716  -2
   1   8  -4 678.237 681.716   1
  -1  -8  -8 11741.3 885.188  -2
   1   8  -3 11741.3 885.188   1
  -1  -8  -7 647.967 594.490  -2
   1   8  -2 647.967 594.490   1
  -1  -8  -6 5247.46 1213.86  -2
   1   8  -1 5247.46 1213.86   1
  -1  -8  -5 8812.56 1286.91  -2
   1   8   0 8812.56 1286.91   1
  -1  -8  -4 411.482 926.225  -2
   1   8   1 411.482 926.225   1
  -1  -8  -3 14572.7 902.322  -2
   1   8   2 14572.7 902.322   1
  -1  -8  -2 13843.1 867.020  -2
   1   8   3 13843.1 867.020   1
  -1  -8  -1 720.462 677.141  -2
   1   8   4 720.462 677.141   1
  -1  -8   0 9356.87 1133.56  -2
   1   8   5 9356.87 1133.56   1
  -1  -8   1 5299.06 1061.04  -2
   1   8   6 5299.06 1061.04   1
  -1  -8   2 457.209 993.286  -2
   1   8   7 457.209 993.286   1
  -1  -8   3 11490.6 1122.56  -2
   1   8   8 11490.6 1122.56   1
  -1  -8   4 1180.03 731.859  -2
   1   8   9 1180.03 731.859   1
  -1  -8   5 2935.17 696.958  -2
   1   8  10 2935.17 696.958   1
   1   9  -3 1879.45 722.097   1
   1   9  -2 1595.21 782.023   1
   1   9  -1 3851.12 842.329   1
   1   9   0 922.461 549.270   1
   1   9   1 301.344 573.838   1
   1   9   2 7930.96 636.592   1
   1   9   3 587.040 557.399   1
   1   9   4 2242.88 551.473   1
   1   9   5 686.786 774.204   1
   1   9   6 1533.23 706.815   1
   1   9   7 790.521 675.353   1
   1   9   8 638.366 545.611   1
   1   9   9 343.713 515.325   1
  -1 -10  -7-56.9741 894.654  -2
   1  10  -1-56.9741 894.654   1
  -1 -10  -6 1029.27 968.830  -2
   1  10   0 1029.27 968.830   1
  -1 -10  -5 2969.30 1001.25  -2
   1  10   1 2969.30 1001.25   1
  -1 -10  -4 1993.62 997.425  -2
   1  10   2 1993.62 997.425   1
  -1 -10  -3-230.231 926.738  -2
   1  10   3-230.231 926.738   1
  -1 -10  -2 1808.50 569.292  -2
   1  10   4 1808.50 569.292   1
  -1 -10  -1 3260.63 1038.23  -2
   1  10   5 3260.63 1038.23   1
  -1 -10   0 2062.34 1170.08  -2
   1  10   6 2062.34 1170.08   1
   1  10  -1 1586.87 666.835  -2
  -1 -10  -7 1586.87 666.835   1
   1  10   8 896.658 867.360   1
  -1 -11  -4 828.165 934.990  -2
   1  11   3 828.165 934.990   1
   2  -9   2 1037.37 825.518  -2
  -2   9   6 1037.37 825.518   1
  -2   9  -1-75.5008 674.929  -2
   2  -9  -5-75.5008 674.929   1
   2  -9   0 669.305 955.267  -2
  -2   9   4 669.305 955.267   1
   2  -9  -1 4240.21 1059.05  -2
  -2   9   3 4240.21 1059.05   1
   2  -9  -2 4910.01 1091.92  -2
  -2   9   2 4910.01 1091.92   1
   2  -9  -3 3925.37 1057.35  -2
  -2   9   1 3925.37 1057.35   1
   2  -9  -4 137.102 956.143  -2
  -2   9   0 137.102 956.143   1
   2  -9  -5 660.571 903.797  -2
  -2   9  -1 660.571 903.797   1
   2  -9  -6 1100.82 599.127  -2
  -2   9  -2 1100.82 599.127   1
   2  -8  -8 157.800 646.754   1
   2  -8  -7 1522.96 499.472   1
  -2   8   6 705.027 539.333   1
   2  -8  -5-101.264 575.877   1
   2  -8   2 608.489 1039.69  -2
  -2   8   5 608.489 1039.69   1
   2  -8  -4-461.465 789.174   1
   2  -8   1 1082.66 1037.47  -2
  -2   8   4 1082.66 1037.47   1
   2  -8  -3 1328.16 765.174   1
   2  -8   0 2798.33 1083.21  -2
  -2   8   3 2798.33 1083.21   1
   2  -8  -1 7658.45 1203.69  -2
  -2   8   2 7658.45 1203.69   1
   2  -8  -2 8933.96 1196.44  -2
  -2   8   1 8933.96 1196.44   1
   2  -8  -3 2029.82 1126.98  -2
  -2   8   0 2029.82 1126.98   1
  -2   8  -1 655.351 761.912   1
  -2   8  -2-71.3917 762.221   1
  -2   8  -3 910.437 774.633   1
  -2   8  -4 456.441 704.989   1
  -2   7   8-79.6903 499.445   1
  -2   7   7 2356.04 448.969   1
  -2   7   6 1747.24 605.147   1
  -2   7   5 334.655 586.905   1
   2  -7  -4 1286.44 585.284   1
   2  -7  -3 2766.56 819.009   1
   2  -7   0 3564.12 1111.13  -2
  -2   7   3 3564.12 1111.13   1
   2  -7  -2 21102.9 758.619   1
   2  -7  -2 21124.3 1338.48  -2
  -2   7   1 21124.3 1338.48   1
  -2   7   0 1632.10 801.550   1
  -2   7  -1 129.854 787.023   1
  -2   7  -2 1704.14 865.067   1
  -2   7  -3 1323.90 887.015   1
  -2   7  -4 360.517 532.463   1
  -2   7  -5 2481.55 802.240   1
  -2   7  -6 5542.67 780.831   1
  -2   6   9 1152.08 417.642   1
   2  -6  -8-96.2895 762.745   1
   2  -6   6 1179.65 697.782  -2
  -2   6   8 1179.65 697.782   1
   2  -6   5 979.480 609.819  -2
  -2   6   7 979.480 609.819   1
  -2   6  -4 12621.3 845.838  -2
   2  -6  -6 12621.3 845.838   1
  -2   6  -3 1176.81 640.190  -2
   2  -6  -5 1176.81 640.190   1
   2  -6   2 2514.99 729.245  -2
  -2   6   4 2514.99 729.245   1
   2  -6   1 53.5245 684.479  -2
  -2   6   3 53.5245 684.479   1
  -2   6   0 4352.44 650.896  -2
   2  -6  -2 4352.44 650.896   1
   2  -6  -1 34171.9 811.122  -2
  -2   6   1 34171.9 811.122   1
  -2   6   2 7144.79 1437.62  -2
   2  -6   0 7144.79 1437.62   1
   2  -6  -3 313.826 881.407  -2
  -2   6  -1 313.826 881.407   1
   2  -6  -4 1799.28 710.344  -2
  -2   6  -2 1799.28 710.344   1
   2  -6  -5 698.377 729.316  -2
  -2   6  -3 698.377 729.316   1
   2  -6  -6 10751.4 820.523  -2
  -2   6  -4 10751.4 820.523   1
  -2   6  -5 172.664 874.561   1
   2  -6  -7 5.33267 944.768  -2
  -2   6  -5 5.33267 944.768   1
  -2   6  -6 743.957 548.885   1
  -2   6  -7 985.131 482.408   1
  -2   5  10 415.042 476.932   1
  -2   5   9 3442.47 541.837   1
  -2   5   8 317.958 441.219   1
  -2   5   7 134.682 470.126   1
  -2   5   6 5965.65 642.702   1
   2  -5  -5 542.596 452.283   1
   2  -5  -4 658.678 479.639   1
  -2   5   3 111.144 455.258   1
  -2   5   2 7113.13 494.528   1
  -2   5   1 16787.5 667.530   1
   2  -5   0 1587.45 409.352   1
  -2   5  -1 244.446 600.193   1
  -2   5  -2 3212.57 659.502   1
  -2   5  -3 904.765 486.578   1
   2  -5   4 533.335 535.509   1
   2  -5   5 191.982 558.563   1
   2  -5   6 6146.03 604.174   1
  -2   5  -7 4987.45 584.694   1
  -2   5  -8 278.465 461.898   1
   2  -4   9 1793.94 605.219  -2
  -2   4  10 1793.94 605.219   1
   2  -4   8 746.502 704.463  -2
  -2   4   9 746.502 704.463   1
   2  -4   7 2253.86 769.896  -2
  -2   4   8 2253.86 769.896   1
   2  -4   6 12226.1 715.789  -2
  -2   4   7 12226.1 715.789   1
  -2   4  -5 11414.9 803.620  -2
   2  -4  -6 11414.9 803.620   1
  -2   4  -4 16221.9 648.918  -2
   2  -4  -5 16221.9 648.918   1
  -2   4  -3 472.090 544.383  -2
   2  -4  -4 472.090 544.383   1
   2  -4   2 15819.9 687.117  -2
  -2   4   3 15819.9 687.117   1
   2  -4   1 11779.4 637.723  -2
  -2   4   2 11779.4 637.723   1
   2  -4   0 13740.6 771.492  -2
  -2   4   1 13740.6 771.492   1
  -2   4   1 16045.8 882.453  -2
   2  -4   0 16045.8 882.453   1
   2  -4  -2 12663.5 861.463  -2
  -2   4  -1 12663.5 861.463   1
   2  -4  -3 15987.6 951.045  -2
  -2   4  -2 15987.6 951.045   1
   2  -4  -4 725.957 576.130  -2
  -2   4  -3 725.957 576.130   1
   2  -4  -5 15608.3 761.436  -2
  -2   4  -4 15608.3 761.436   1
  -2   4   6 10615.0 783.382  -2
   2  -4   5 10615.0 783.382   1
  -2   4   7 14434.4 872.345  -2
   2  -4   6 14434.4 872.345   1
  -2   4   8 3927.84 729.329  -2
   2  -4   7 3927.84 729.329   1
   2  -4  -9 1482.50 1118.87  -2
  -2   4  -8 1482.50 1118.87   1
   2  -4 -10 1854.99 612.854  -2
  -2   4  -9 1854.99 612.854   1
  -2   3  10 381.034 491.249   1
  -2   3   9 14128.4 705.981   1
  -2   3   8 1109.74 576.953   1
  -2   3   7 5565.47 611.753   1
  -2   3   6 14898.6 574.159   1
   2  -3  -5 4530.18 461.665   1
   2  -3  -4 10157.3 411.629   1
   2  -3  -3 976.102 555.494   1
   2  -3  -2 1957.63 1172.39   1
   2  -3  -1 35236.6 1130.91   1
  -2   3   0 48949.1 1207.15   1
  -2   3  -1 9470.01 1094.27   1
  -2   3  -3 4690.50 579.993   1
  -2   3  -4 1868.02 422.951   1
  -2   3  -5 2055.29 621.329   1
   2  -3   6 431.848 509.059   1
   2  -3   7 28265.8 797.122   1
  -2   3  -8 1791.36 558.544   1
  -2   3  -9-78.1326 695.012   1
  -2   3 -10 1215.96 638.499   1
   2  -2  10 443.067 655.638  -2
  -2   2  10 443.067 655.638   1
   2  -2   9 5871.11 759.707  -2
  -2   2   9 5871.11 759.707   1
   2  -2   8 1989.67 752.785  -2
  -2   2   8 1989.67 752.785   1
   2  -2   7 9494.73 805.477  -2
  -2   2   7 9494.73 805.477   1
  -2   2  -6 4958.72 615.183  -2
   2  -2  -6 4958.72 615.183   1
  -2   2  -5 11796.5 577.794  -2
   2  -2  -5 11796.5 577.794   1
  -2   2  -4 9013.10 1786.59  -2
   2  -2  -4 9013.10 1786.59   1
  -2   2  -3 27534.6 2159.68  -2
   2  -2  -3 27534.6 2159.68   1
  -2   2  -2 19312.1 1787.92  -2
   2  -2  -2 19312.1 1787.92   1
  -2   2  -1 6194.96 1343.61  -2
   2  -2  -1 6194.96 1343.61   1
   2  -2   0 8137.54 813.093  -2
  -2   2   0 8137.54 813.093   1
   2  -2  -1 6317.89 760.664  -2
  -2   2  -1 6317.89 760.664   1
  -2   2   2 17093.9 940.690  -2
   2  -2   2 17093.9 940.690   1
   2  -2  -3 28367.6 1822.29  -2
  -2   2  -3 28367.6 1822.29   1
   2  -2  -4 9662.44 784.794  -2
  -2   2  -4 9662.44 784.794   1
   2  -2  -5 11456.0 638.419  -2
  -2   2  -5 11456.0 638.419   1
   2  -2  -6 5025.81 656.520  -2
  -2   2  -6 5025.81 656.520   1
  -2   2   7 10149.7 815.858  -2
   2  -2   7 10149.7 815.858   1
   2  -2  -8 2218.63 1106.21  -2
  -2   2  -8 2218.63 1106.21   1
   2  -2  -9 5393.44 1123.28  -2
  -2   2  -9 5393.44 1123.28   1
   2  -2 -10 945.664 936.369  -2
  -2   2 -10 945.664 936.369   1
  -2   1  10-81.8747 463.353   1
  -2   1   9 180.972 520.787   1
  -2   1   8 5537.66 610.127   1
  -2   1   7 1050.75 555.653   1
  -2   1   6 159.965 440.792   1
   2  -1  -5 2853.58 397.091   1
   2  -1  -4 7975.52 924.865   1
   2  -1  -3 4829.34 1210.61   1
   2  -1  -2-103.446 928.219   1
   2  -1  -1 15498.1 1119.56   1
   2  -1   0 7373.00 845.653   1
  -2   1  -1 412.054 351.812   1
  -2   1  -2 25.9523 353.453   1
   2  -1   3 69006.4 1198.16   1
   2  -1   4 4349.62 681.074   1
  -2   1  -5 1704.79 432.049   1
  -2   1  -6 292.094 414.737   1
  -2   1  -7 12164.5 769.490   1
  -2   1  -8 59940.9 1059.65   1
  -2   1  -9 864.642 586.027   1
  -2   1 -10 1843.01 771.903   1
  -2   1 -11 2838.41 696.161   1
  -2   0  10 11.0115 495.191   1
  -2   0   9 3915.56 550.356   1
  -2   0   8-101.715 524.142   1
  -2   0   7 450.420 539.233   1
  -2   0   6 1541.39 453.873   1
  -2   0   5 39.3034 378.537   1
   2   0  -4 11340.6 1275.02   1
   2   0  -3 78.0652 559.744   1
   2   0  -2 4913.89 653.998   1
  -2   0  -3 46427.3 1610.87  -2
   2   0  -2 46427.3 1610.87   1
   2   0  -1 39452.3 1469.54   1
  -2   0  -2 43078.2 1011.55  -2
   2   0  -1 43078.2 1011.55   1
   2   0   0 20072.7 377.263   1
  -2   0  -1 41366.5 950.029  -2
   2   0   0 41366.5 950.029   1
   2   0   1 24553.7 765.396   1
  -2   0   0 39970.9 1550.30  -2
   2   0   1 39970.9 1550.30   1
  -2   0  -2 3782.29 467.682   1
  -2   0   1 40484.9 1534.03  -2
   2   0   2 40484.9 1534.03   1
  -2   0  -3 47722.4 1236.95   1
  -2   0   2 48660.7 1680.53  -2
   2   0   3 48660.7 1680.53   1
  -2   0  -4 15596.9 819.962   1
  -2   0  -5 1251.98 672.976   1
   2   0   6 11346.0 338.927   1
  -2   0   5 10330.6 897.832  -2
   2   0   6 10330.6 897.832   1
   2   0   7 1611.56 303.595   1
   2   0   8 8312.14 440.345   1
  -2   0  -9 5017.77 920.205   1
  -2   0 -10 1279.55 780.804   1
  -2   0 -11 531.587 728.916   1
   2   1 -10 289.236 474.435   1
   2   1  -9 1373.85 583.166   1
  -2  -1   8 581.439 532.122   1
  -2  -1   7 23.6413 526.999   1
  -2  -1   6 497.969 437.736   1
  -2  -1   5 16391.6 516.971   1
   2   1  -4 1203.82 701.003   1
   2   1  -3 10428.9 791.987   1
   2   1  -2 1001.62 602.272   1
   2   1  -1 59910.2 999.637   1
   2   1   0 123653. 830.504   1
   2   1   1-47.9761 521.474   1
   2   1   2 72242.6 687.342   1
   2   1   3 112418. 1290.18   1
   2   1   4 54892.5 1173.87   1
   2   1   5 10151.9 853.569   1
   2   1   6 112.685 377.018   1
   2   1   7 557.717 305.093   1
   2   1   8 35987.1 663.900   1
   2   1   9 47344.8 674.357   1
  -2  -1 -10 594.606 851.382   1
  -2  -1 -11 1729.50 804.909   1
   2   2  -9 1207.35 504.506   1
   2   2  -8 96.8086 577.628   1
  -2  -2   7 302.438 539.497   1
  -2  -2   6 328.996 479.495   1
   2   2  -5 20183.0 568.371   1
   2   2  -4 525.018 1091.62   1
   2   2  -3 3777.21 1108.65   1
   2   2  -2-92.9060 853.816   1
   2   2  -1 20590.2 1018.60   1
   2   2   0 26565.9 745.064   1
   2   2   1 2851.38 397.123   1
   2   2   2 41466.1 1063.05   1
   2   2   3 1272.67 940.850   1
   2   2   4 770.554 971.936   1
  -2  -2  -5 50241.3 1311.62   1
   2   2   6 6325.11 497.644   1
   2   2   7 134.940 326.249   1
   2   2   8 4464.12 413.732   1
   2   2   9 1351.58 456.873   1
   2   2  10 5836.23 436.075   1
  -2  -2 -11 242.520 752.275   1
  -2  -2 -12 177.622 654.428   1
   2   3  -9 1683.35 683.024   1
   2   3  -8-34.2871 530.559   1
   2   3  -7 422.041 567.105   1
   2   3  -6 563.026 569.236   1
   2   3  -5 1653.06 1515.79   1
  -2  -3  -8 1117.37 678.815  -2
   2   3  -5 1117.37 678.815   1
   2   3  -4 10929.6 1422.13   1
  -2  -3  -7 8789.01 657.614  -2
   2   3  -4 8789.01 657.614   1
  -2  -3  -6 5173.81 791.298  -2
   2   3  -3 5173.81 791.298   1
  -2  -3  -5 5853.12 1329.60  -2
   2   3  -2 5853.12 1329.60   1
  -2  -3  -4 34295.9 1576.97  -2
   2   3  -1 34295.9 1576.97   1
  -2  -3  -3 18081.7 881.251  -2
   2   3   0 18081.7 881.251   1
  -2  -3  -2 3244.81 731.509  -2
   2   3   1 3244.81 731.509   1
  -2  -3  -1 3080.44 615.354  -2
   2   3   2 3080.44 615.354   1
   2   3   3 329.625 759.010   1
  -2  -3   0 16091.8 1545.73  -2
   2   3   3 16091.8 1545.73   1
  -2  -3   1 33896.1 1843.64  -2
   2   3   4 33896.1 1843.64   1
  -2  -3   2 6970.63 1525.87  -2
   2   3   5 6970.63 1525.87   1
  -2  -3   3 5579.46 1029.17  -2
   2   3   6 5579.46 1029.17   1
   2   3   7 356.253 688.055   1
   2   3   8 701.541 1487.38   1
  -2  -3   5 1719.31 833.962  -2
   2   3   8 1719.31 833.962   1
   2   3   9 28105.2 805.478   1
   2   3  10 6160.20 622.638   1
   2   3  11-63.5663 419.091   1
  -2  -3 -12 936.549 649.187   1
   2   4  -8 472.774 702.660   1
   2   4  -7-30.5775 554.080   1
   2   4  -6 97.4855 581.251   1
   2   4  -5 29277.7 814.346   1
   2   4  -4 19628.6 643.305   1
   2   4  -3 3877.73 463.287   1
   2   4  -2 39.6247 398.532   1
   2   4  -1 3341.88 1086.58   1
   2   4   0 76077.5 1796.70   1
   2   4   1 66568.4 1325.50   1
   2   4   2 11217.6 787.842   1
   2   4   3 2583.77 710.067   1
   2   4   4 51402.8 2077.06   1
   2   4   5 46532.8 1096.09   1
   2   4   6 110.276 912.239   1
  -2  -4  -7 7238.17 831.831   1
   2   4   8 2408.08 561.665   1
   2   4   9 18798.1 739.613   1
   2   4  10 4425.11 590.040   1
   2   4  11 224.297 503.940   1
  -2  -4 -12 797.779 675.099   1
  -2  -5 -11 962.207 655.494  -2
   2   5  -7 962.207 655.494   1
  -2  -5 -10 12194.2 850.141  -2
   2   5  -6 12194.2 850.141   1
  -2  -5  -9 1184.10 753.180  -2
   2   5  -5 1184.10 753.180   1
  -2  -5  -8 15038.1 903.319  -2
   2   5  -4 15038.1 903.319   1
  -2  -5  -7 1409.68 654.132  -2
   2   5  -3 1409.68 654.132   1
  -2  -5  -6 2398.17 416.683  -2
   2   5  -2 2398.17 416.683   1
  -2  -5  -5 24961.5 558.370  -2
   2   5  -1 24961.5 558.370   1
  -2  -5  -4 6744.18 432.960  -2
   2   5   0 6744.18 432.960   1
  -2  -5  -3 2140.79 707.189  -2
   2   5   1 2140.79 707.189   1
  -2  -5  -2 471.204 592.692  -2
   2   5   2 471.204 592.692   1
  -2  -5  -1 2909.68 629.629  -2
   2   5   3 2909.68 629.629   1
  -2  -5   0 5544.06 774.617  -2
   2   5   4 5544.06 774.617   1
  -2  -5   1 25242.4 1051.58  -2
   2   5   5 25242.4 1051.58   1
  -2  -5   2 3107.83 962.079  -2
   2   5   6 3107.83 962.079   1
  -2  -5   3 1383.43 1022.80  -2
   2   5   7 1383.43 1022.80   1
  -2  -5   4 13386.7 1513.44  -2
   2   5   8 13386.7 1513.44   1
  -2  -5   5 1659.34 1278.75  -2
   2   5   9 1659.34 1278.75   1
  -2  -5   6 11255.7 1375.29  -2
   2   5  10 11255.7 1375.29   1
  -2  -5   7 922.202 1043.37  -2
   2   5  11 922.202 1043.37   1
   2   5  -8 1212.89 834.645  -2
  -2  -5 -12 1212.89 834.645   1
   2   6  -7 1483.76 645.385   1
   2   6  -6 494.909 513.007   1
   2   6  -5-118.612 563.686   1
   2   6  -4 22264.8 785.418   1
   2   6  -3 7917.67 512.566   1
   2   6  -2-16.2399 423.977   1
   2   6  -1 4566.41 451.206   1
   2   6   0 5339.45 397.239   1
   2   6   1 12259.7 512.914   1
   2   6   2 20115.8 568.931   1
   2   6   3 2076.21 588.962   1
   2   6   4 223.551 595.220   1
   2   6   5 1131.44 664.155   1
   2   6   6 3047.36 677.749   1
   2   6   7 967.277 1080.98   1
   2   6   8 1368.75 1121.77   1
   2   6   9 1219.95 1084.09   1
   2   6  11 402.944 747.049   1
  -2  -7 -11 4063.91 899.367  -2
   2   7  -6 4063.91 899.367   1
  -2  -7 -10 2371.56 686.074  -2
   2   7  -5 2371.56 686.074   1
  -2  -7  -9 955.307 984.062  -2
   2   7  -4 955.307 984.062   1
  -2  -7  -8 7952.06 811.430  -2
   2   7  -3 7952.06 811.430   1
  -2  -7  -7 3110.00 760.875  -2
   2   7  -2 3110.00 760.875   1
  -2  -7  -6 6079.33 638.493  -2
   2   7  -1 6079.33 638.493   1
  -2  -7  -5 2746.80 696.120  -2
   2   7   0 2746.80 696.120   1
  -2  -7  -4 560.596 601.574  -2
   2   7   1 560.596 601.574   1
  -2  -7  -3 2483.64 906.423  -2
   2   7   2 2483.64 906.423   1
  -2  -7  -2 2274.46 897.229  -2
   2   7   3 2274.46 897.229   1
  -2  -7  -1 974.194 991.926  -2
   2   7   4 974.194 991.926   1
  -2  -7   0 2973.57 1150.99  -2
   2   7   5 2973.57 1150.99   1
  -2  -7   1 6394.58 1131.30  -2
   2   7   6 6394.58 1131.30   1
  -2  -7   2 3944.60 1423.58  -2
   2   7   7 3944.60 1423.58   1
  -2  -7   3 8413.91 1577.93  -2
   2   7   8 8413.91 1577.93   1
  -2  -7   4 982.494 1324.93  -2
   2   7   9 982.494 1324.93   1
  -2  -7   5 3300.00 1237.19  -2
   2   7  10 3300.00 1237.19   1
  -2  -7   6 6369.30 1029.71  -2
   2   7  11 6369.30 1029.71   1
   2   8  -4 1021.69 707.844   1
   2   8  -3 7864.34 608.475   1
   2   8  -2 263.743 553.558   1
   2   8  -1 684.946 581.229   1
   2   8   0 297.486 542.941   1
   2   8   1 1175.67 878.369   1
   2   8   2 11430.9 981.008   1
   2   8   3 1307.98 660.559   1
   2   8   4 4992.11 707.309   1
   2   8   5 1021.74 713.404   1
   2   8   6 2131.35 718.209   1
   2   8   7 109.188 1116.64   1
   2   8   8 170.811 1077.35   1
   2   8   9 940.818 1046.09   1
   2   8  10-173.618 926.217   1
   2   9  -3 363.275 447.645   1
  -2  -9  -8 6662.07 660.693  -2
   2   9  -2 6662.07 660.693   1
  -2  -9  -7 2031.54 739.811  -2
   2   9  -1 2031.54 739.811   1
  -2  -9  -6 784.969 1047.53  -2
   2   9   0 784.969 1047.53   1
  -2  -9  -5-270.378 1078.14  -2
   2   9   1-270.378 1078.14   1
  -2  -9  -4 1799.72 1130.05  -2
   2   9   2 1799.72 1130.05   1
  -2  -9  -3 3878.49 1096.24  -2
   2   9   3 3878.49 1096.24   1
  -2  -9  -2 1824.42 846.393  -2
   2   9   4 1824.42 846.393   1
  -2  -9  -1 393.522 868.425  -2
   2   9   5 393.522 868.425   1
  -2  -9   0 1612.06 861.760  -2
   2   9   6 1612.06 861.760   1
  -2  -9   1 1924.19 1390.94  -2
   2   9   7 1924.19 1390.94   1
  -2  -9   2 6512.11 1366.26  -2
   2   9   8 6512.11 1366.26   1
   2   9   9-409.644 926.098   1
   2  10  -1 111.331 651.907   1
   2  10   0 177.661 498.661   1
   2  10   1 312.925 752.440   1
  -2 -10  -6 1177.64 1031.47  -2
   2  10   1 1177.64 1031.47   1
  -2 -10  -5 656.518 726.517  -2
   2  10   2 656.518 726.517   1
   2  10   3 796.486 774.570   1
  -2 -10  -4 1093.60 1104.64  -2
   2  10   3 1093.60 1104.64   1
  -2 -10  -3 1324.28 1119.59  -2
   2  10   4 1324.28 1119.59   1
  -2 -10  -2 1423.79 799.625  -2
   2  10   5 1423.79 799.625   1
  -2 -10  -1 774.121 759.161  -2
   2  10   6 774.121 759.161   1
  -2 -10   0 1253.77 1176.42  -2
   2  10   7 1253.77 1176.42   1
   2  10   8 862.701 894.073   1
  -3   9   1 316.896 966.186  -2
   3  -9  -2 316.896 966.186   1
  -3   9   2 941.399 941.052  -2
   3  -9  -1 941.399 941.052   1
  -3   8   5 1241.57 484.035   1
  -3   8   4-34.9473 510.556   1
  -3   8   3 366.250 537.729   1
   3  -8  -1 294.546 986.855  -2
  -3   8   2 294.546 986.855   1
   3  -8  -2 1072.73 951.577  -2
  -3   8   1 1072.73 951.577   1
   3  -8  -3 40.4641 916.071  -2
  -3   8   0 40.4641 916.071   1
   3  -8   1 773.845 671.131   1
   3  -8  -4 1814.03 910.536  -2
  -3   8  -1 1814.03 910.536   1
  -3   8  -2 1077.69 680.295   1
  -3   7   7 499.035 683.095   1
   3  -7   5 180.607 843.467  -2
  -3   7   7 180.607 843.467   1
   3  -7   4 1122.58 827.516  -2
  -3   7   6 1122.58 827.516   1
  -3   7  -3 146.441 689.934  -2
   3  -7  -5 146.441 689.934   1
  -3   7  -2 1059.84 745.096  -2
   3  -7  -4 1059.84 745.096   1
  -3   7  -1 1244.03 779.733  -2
   3  -7  -3 1244.03 779.733   1
   3  -7   0 1145.03 992.459  -2
  -3   7   2 1145.03 992.459   1
   3  -7  -1 3202.82 1059.97  -2
  -3   7   1 3202.82 1059.97   1
   3  -7  -2 689.204 734.254  -2
  -3   7   0 689.204 734.254   1
   3  -7  -3-209.277 989.463  -2
  -3   7  -1-209.277 989.463   1
   3  -7  -4 2253.87 981.720  -2
  -3   7  -2 2253.87 981.720   1
   3  -7  -5 928.584 945.827  -2
  -3   7  -3 928.584 945.827   1
   3  -7  -6 588.653 934.801  -2
  -3   7  -4 588.653 934.801   1
   3  -7  -7 868.608 878.320  -2
  -3   7  -5 868.608 878.320   1
  -3   6   8 2456.41 686.740   1
  -3   6   7 1969.00 504.315   1
   3  -6  -6 3999.38 578.918   1
   3  -6  -5 2633.62 495.364   1
   3  -6  -4 294.089 489.326   1
  -3   6   3 8083.95 864.350   1
  -3   6   2 6376.85 846.995   1
   3  -6  -1 2013.64 565.588   1
  -3   6   0 464.713 814.372   1
  -3   6  -2 6052.49 865.335   1
  -3   6  -3 317.964 792.514   1
  -3   6  -4 136.846 811.126   1
  -3   6  -5 408.816 826.337   1
  -3   6  -6 1282.26 708.987   1
   3  -5   8 1275.31 969.783  -2
  -3   5   9 1275.31 969.783   1
   3  -5   7 3694.00 1043.23  -2
  -3   5   8 3694.00 1043.23   1
   3  -5   6 7832.46 785.543  -2
  -3   5   7 7832.46 785.543   1
   3  -5   5 325.517 618.159  -2
  -3   5   6 325.517 618.159   1
  -3   5  -4 1861.39 625.957  -2
   3  -5  -5 1861.39 625.957   1
  -3   5  -3 1001.39 543.585  -2
   3  -5  -4 1001.39 543.585   1
   3  -5   2 718.914 622.784  -2
  -3   5   3 718.914 622.784   1
   3  -5   1 2667.21 955.696  -2
  -3   5   2 2667.21 955.696   1
  -3   5   0 901.455 458.700  -2
   3  -5  -1 901.455 458.700   1
   3  -5  -1 1954.01 916.753  -2
  -3   5   0 1954.01 916.753   1
  -3   5   2 2835.36 1008.41  -2
   3  -5   1 2835.36 1008.41   1
  -3   5   3 1002.56 698.580  -2
   3  -5   2 1002.56 698.580   1
  -3   5   4 2252.61 1155.80  -2
   3  -5   3 2252.61 1155.80   1
  -3   5   5 1991.10 1093.51  -2
   3  -5   4 1991.10 1093.51   1
  -3   5   6 613.141 1052.83  -2
   3  -5   5 613.141 1052.83   1
  -3   5   7 9310.00 1194.47  -2
   3  -5   6 9310.00 1194.47   1
  -3   5   8 3679.66 978.916  -2
   3  -5   7 3679.66 978.916   1
   3  -5  -9 2178.03 958.503  -2
  -3   5  -8 2178.03 958.503   1
  -3   4   9 197.815 685.549   1
  -3   4   8 567.032 844.793   1
  -3   4   7 56.7533 856.419   1
  -3   4   6 598.454 520.239   1
   3  -4  -5 556.440 449.453   1
   3  -4  -4 1240.46 441.958   1
   3  -4  -3 2307.20 544.254   1
   3  -4  -2 97.4802 627.019   1
   3  -4  -1 220.818 434.457   1
   3  -4   0 41.3789 697.629   1
   3  -4   1 2510.33 500.819   1
   3  -4   2 11707.7 624.468   1
   3  -4   3 3024.15 563.199   1
   3  -4   4 492.353 558.550   1
   3  -4   5 1792.13 873.458   1
   3  -4   6 312.396 840.593   1
   3  -4   7 7192.27 869.202   1
   3  -4   8 2812.81 707.907   1
   3  -3   9 1830.33 965.852  -2
  -3   3   9 1830.33 965.852   1
   3  -3   8 314.289 1105.35  -2
  -3   3   8 314.289 1105.35   1
   3  -3   7 29435.3 1420.75  -2
  -3   3   7 29435.3 1420.75   1
  -3   3  -6 9940.95 1041.28  -2
   3  -3  -6 9940.95 1041.28   1
  -3   3  -5 3206.74 733.511  -2
   3  -3  -5 3206.74 733.511   1
  -3   3  -4 2133.94 655.471  -2
   3  -3  -4 2133.94 655.471   1
  -3   3  -3 3104.20 649.689  -2
   3  -3  -3 3104.20 649.689   1
  -3   3  -2 34845.7 607.180  -2
   3  -3  -2 34845.7 607.180   1
  -3   3  -1 34714.7 688.941  -2
   3  -3  -1 34714.7 688.941   1
  -3   3   0 2099.59 490.944  -2
   3  -3   0 2099.59 490.944   1
  -3   3   1 32253.9 897.822  -2
   3  -3   1 32253.9 897.822   1
  -3   3   2 37475.7 952.851  -2
   3  -3   2 37475.7 952.851   1
  -3   3   3 3672.92 672.654  -2
   3  -3   3 3672.92 672.654   1
  -3   3   4 1457.55 687.325  -2
   3  -3   4 1457.55 687.325   1
  -3   3   5 3221.33 766.703  -2
   3  -3   5 3221.33 766.703   1
  -3   3   6 10438.8 832.256  -2
   3  -3   6 10438.8 832.256   1
  -3   3   7 32782.5 1441.26  -2
   3  -3   7 32782.5 1441.26   1
  -3   3   8 1455.59 987.286  -2
   3  -3   8 1455.59 987.286   1
  -3   3   9 1321.48 850.471  -2
   3  -3   9 1321.48 850.471   1
  -3   2   9 331.926 740.012   1
  -3   2   8 7821.50 960.993   1
  -3   2   7 3077.43 902.550   1
  -3   2   6 1128.21 898.557   1
   3  -2  -5 177.950 673.546   1
   3  -2  -4 2770.99 487.468   1
   3  -2  -3 293.293 436.438   1
   3  -2  -2 7036.53 485.314   1
   3  -2  -1 7598.58 343.499   1
   3  -2   0 9357.65 397.885   1
   3  -2   1 3937.52 472.327   1
   3  -2   2-10.9907 706.782   1
   3  -2   3 50894.9 635.445   1
   3  -2   4 373.377 498.815   1
   3  -2   5 851.973 543.773   1
   3  -2   6 1041.39 856.004   1
   3  -2   7 418.880 831.509   1
   3  -2   8 7140.03 943.559   1
   3  -2   9 1951.48 804.736   1
  -3   1   9 1183.82 713.542   1
  -3   1   8 511.814 785.153   1
  -3   1   7 1041.31 890.909   1
  -3   1   6 29715.6 1148.40   1
   3  -1  -5 8239.47 872.046   1
   3  -1  -4 342.713 677.353   1
   3  -1  -3 354.057 618.156   1
   3  -1  -2 13.5629 1123.58   1
  -3   1  -3 1091.54 939.739  -2
   3  -1  -2 1091.54 939.739   1
   3  -1  -1 16251.7 1365.65   1
   3  -1   0 10216.5 1065.73   1
  -3   1   1 17667.9 1530.31  -2
   3  -1   2 17667.9 1530.31   1
  -3   1   2 1116.82 739.878  -2
   3  -1   3 1116.82 739.878   1
   3  -1   4 19.3947 400.987   1
  -3   1   3 81.2770 715.146  -2
   3  -1   4 81.2770 715.146   1
   3  -1   5 1403.62 545.006   1
   3  -1   6 2112.34 568.939   1
   3  -1   7 2682.23 636.020   1
   3  -1   8 11100.7 1062.22   1
   3  -1   9-4.05083 838.031   1
   3  -1  10 43.3506 492.657   1
   3   0  -9-11.5128 498.449   1
  -3   0   8 2480.85 778.650   1
  -3   0   7 1903.14 846.556   1
  -3   0   6 6082.55 886.904   1
  -3   0   5 296.416 507.709   1
   3   0  -4 4575.73 748.818   1
   3   0  -3 573.560 715.591   1
  -3   0  -4 73244.1 1356.59  -2
   3   0  -2 73244.1 1356.59   1
   3   0  -1 26702.9 1543.76   1
   3   0   0 1782.29 868.841   1
   3   0   1 36259.3 1710.35   1
  -3   0   0 4889.64 1456.94  -2
   3   0   2 4889.64 1456.94   1
   3   0   3 18469.4 1411.97   1
   3   0   4 66339.2 788.026   1
   3   0   5 4469.27 367.999   1
   3   0   6 1670.67 450.382   1
   3   0   7 1602.09 492.599   1
   3   0   8 1514.10 642.063   1
   3   0   9 15378.5 1135.79   1
   3   0  10 471.499 799.067   1
   3   0  11 556.765 696.547   1
   3   1  -9-32.8985 698.261   1
   3   1  -8-16.0593 541.216   1
  -3  -1   7 649.557 754.422   1
  -3  -1   6 2694.55 783.964   1
  -3  -1   5 46566.0 833.515   1
  -3  -1   4 978.764 499.104   1
   3   1  -3 76.5230 581.681   1
   3   1  -2 797.878 571.677   1
   3   1  -1 9772.69 1331.67   1
   3   1   0 43931.8 1875.67   1
   3   1   1 2218.06 1092.87   1
   3   1   2 17707.1 1461.34   1
   3   1   3 495.106 1115.70   1
   3   1   4 236.529 1044.15   1
   3   1   5 1911.18 389.278   1
   3   1   6 1846.37 422.489   1
   3   1   7 771.477 520.257   1
   3   1   8 701.216 601.900   1
   3   1   9 8132.78 688.041   1
   3   1  10 532.674 914.468   1
   3   1  11 1821.58 807.925   1
   3   2  -9 382.334 692.539   1
  -3  -2 -11 254.115 1056.86  -2
   3   2  -8 254.115 1056.86   1
  -3  -2 -10 4373.08 1185.49  -2
   3   2  -7 4373.08 1185.49   1
  -3  -2  -9 3407.58 761.602  -2
   3   2  -6 3407.58 761.602   1
  -3  -2  -8 23017.6 1343.79  -2
   3   2  -5 23017.6 1343.79   1
  -3  -2  -7 22206.5 1053.12  -2
   3   2  -4 22206.5 1053.12   1
  -3  -2  -6 2350.64 570.738  -2
   3   2  -3 2350.64 570.738   1
  -3  -2  -5 38426.7 635.587  -2
   3   2  -2 38426.7 635.587   1
  -3  -2  -4 23939.1 1831.91  -2
   3   2  -1 23939.1 1831.91   1
  -3  -2  -3 56608.2 1691.64  -2
   3   2   0 56608.2 1691.64   1
  -3  -2  -2 29820.9 1374.77  -2
   3   2   1 29820.9 1374.77   1
  -3  -2  -1 27912.6 1899.99  -2
   3   2   2 27912.6 1899.99   1
  -3  -2   0 49512.6 2358.38  -2
   3   2   3 49512.6 2358.38   1
  -3  -2   1 25837.7 1926.04  -2
   3   2   4 25837.7 1926.04   1
  -3  -2   2 40124.5 702.161  -2
   3   2   5 40124.5 702.161   1
  -3  -2   3 1920.59 522.824  -2
   3   2   6 1920.59 522.824   1
  -3  -2   4 20968.8 774.240  -2
   3   2   7 20968.8 774.240   1
  -3  -2   5 22664.6 903.904  -2
   3   2   8 22664.6 903.904   1
  -3  -2   6 3681.60 629.520  -2
   3   2   9 3681.60 629.520   1
  -3  -2 -10 3729.96 815.340   1
  -3  -2   7 4852.04 1226.95  -2
   3   2  10 4852.04 1226.95   1
  -3  -2   8 556.229 1096.49  -2
   3   2  11 556.229 1096.49   1
   3   3  -8 246.493 752.548   1
   3   3  -7 1494.89 826.334   1
   3   3  -6 572.737 568.508   1
   3   3  -5 19181.2 729.783   1
   3   3  -4 34895.1 780.450   1
   3   3  -3 358.132 384.880   1
   3   3  -2 1251.82 369.498   1
   3   3  -1 3091.45 323.129   1
   3   3   0 13103.5 593.814   1
   3   3   1 10097.8 927.361   1
   3   3   2 4106.82 813.050   1
   3   3   3-149.684 1197.81   1
   3   3   4 63.6363 378.253   1
   3   3   5 1425.73 487.633   1
   3   3   6 947.725 492.783   1
   3   3   7-99.4192 443.814   1
   3   3   8-115.645 669.963   1
   3   3   9 2311.13 622.034   1
   3   3  10 845.615 584.151   1
   3   3  11 484.588 531.766   1
   3   3  12 803.536 699.824   1
  -3  -4 -11 2324.98 690.735  -2
   3   4  -7 2324.98 690.735   1
  -3  -4 -10 776.460 676.575  -2
   3   4  -6 776.460 676.575   1
  -3  -4  -9 6050.25 843.326  -2
   3   4  -5 6050.25 843.326   1
  -3  -4  -8 8238.78 838.291  -2
   3   4  -4 8238.78 838.291   1
  -3  -4  -7 4992.48 695.808  -2
   3   4  -3 4992.48 695.808   1
  -3  -4  -6 2224.24 484.416  -2
   3   4  -2 2224.24 484.416   1
  -3  -4  -5 11914.9 571.063  -2
   3   4  -1 11914.9 571.063   1
  -3  -4  -4 7492.49 387.516  -2
   3   4   0 7492.49 387.516   1
  -3  -4  -3 9914.02 396.060  -2
   3   4   1 9914.02 396.060   1
  -3  -4  -2 428.507 309.105  -2
   3   4   2 428.507 309.105   1
  -3  -4  -1 9664.83 539.236  -2
   3   4   3 9664.83 539.236   1
  -3  -4   0 7418.96 536.614  -2
   3   4   4 7418.96 536.614   1
  -3  -4   1 12854.6 624.334  -2
   3   4   5 12854.6 624.334   1
  -3  -4   2 1347.29 635.770  -2
   3   4   6 1347.29 635.770   1
  -3  -4   3 4241.14 791.277  -2
   3   4   7 4241.14 791.277   1
  -3  -4   4 8644.48 729.391  -2
   3   4   8 8644.48 729.391   1
  -3  -4   5 6236.05 1367.92  -2
   3   4   9 6236.05 1367.92   1
  -3  -4   6 1520.70 1241.76  -2
   3   4  10 1520.70 1241.76   1
   3   4  -7 2783.38 718.154  -2
  -3  -4 -11 2783.38 718.154   1
   3   5  -7 3019.89 477.668   1
   3   5  -6 1515.72 547.470   1
   3   5  -5 669.015 598.934   1
   3   5  -4 31095.2 879.774   1
   3   5  -3 20234.9 610.388   1
   3   5  -2 528.941 430.981   1
   3   5  -1 1282.00 366.448   1
   3   5   0 378.203 307.031   1
   3   5   1 6190.64 328.279   1
   3   5   2 19200.6 429.228   1
   3   5   3 1915.02 329.457   1
   3   5   4 11745.0 484.621   1
   3   5   5 10963.5 486.751   1
   3   5   6 1583.50 569.656   1
   3   5   7 1725.35 636.258   1
   3   5   8 1494.02 1089.16   1
   3   5   9-48.5315 731.330   1
   3   5  10 1336.99 910.915   1
   3   5  11 243.502 758.885   1
  -3  -6 -11 1224.98 611.553  -2
   3   6  -6 1224.98 611.553   1
  -3  -6 -10 1254.98 718.633  -2
   3   6  -5 1254.98 718.633   1
  -3  -6  -9 10569.2 884.568  -2
   3   6  -4 10569.2 884.568   1
  -3  -6  -8 4706.91 836.794  -2
   3   6  -3 4706.91 836.794   1
  -3  -6  -7 784.650 787.236  -2
   3   6  -2 784.650 787.236   1
  -3  -6  -6 2712.73 596.098  -2
   3   6  -1 2712.73 596.098   1
  -3  -6  -5-20.3887 542.395  -2
   3   6   0-20.3887 542.395   1
  -3  -6  -4 8668.09 587.630  -2
   3   6   1 8668.09 587.630   1
  -3  -6  -3 652.328 519.804  -2
   3   6   2 652.328 519.804   1
  -3  -6  -2 191.585 487.733  -2
   3   6   3 191.585 487.733   1
  -3  -6  -1 9295.38 619.997  -2
   3   6   4 9295.38 619.997   1
  -3  -6   0 260.984 546.869  -2
   3   6   5 260.984 546.869   1
  -3  -6   1 2637.87 869.652  -2
   3   6   6 2637.87 869.652   1
  -3  -6   2 1585.72 1496.58  -2
   3   6   7 1585.72 1496.58   1
  -3  -6   3 5412.85 1518.06  -2
   3   6   8 5412.85 1518.06   1
  -3  -6   4 11113.8 1480.25  -2
   3   6   9 11113.8 1480.25   1
  -3  -6   5 910.855 838.275  -2
   3   6  10 910.855 838.275   1
  -3  -6   6 1124.99 983.421  -2
   3   6  11 1124.99 983.421   1
   3   7  -5 917.782 658.748   1
   3   7  -4 894.147 749.708   1
   3   7  -3 7157.27 939.347   1
   3   7  -2 3498.84 860.731   1
   3   7  -1 420.206 558.753   1
   3   7   0 1639.14 479.232   1
   3   7   1 131.051 461.463   1
   3   7   2 309.225 542.868   1
  -3  -7  -4 1437.76 1173.33  -2
   3   7   2 1437.76 1173.33   1
   3   7   3 3.61430 470.290   1
  -3  -7  -3 1055.00 1203.67  -2
   3   7   3 1055.00 1203.67   1
   3   7   4 864.084 601.216   1
  -3  -7  -2 770.244 1237.54  -2
   3   7   4 770.244 1237.54   1
   3   7   5 3737.61 729.048   1
   3   7   6 143.736 707.496   1
   3   7   7 441.683 701.356   1
   3   7   8-208.442 1123.27   1
   3   7   9-75.9192 1132.31   1
   3   7  10 869.842 629.951   1
   3   7  11 185.571 693.854   1
   3   8  -4 1258.32 655.087   1
   3   8  -3 2146.98 731.499   1
   3   8  -2 434.450 516.419   1
   3   8  -1 274.112 754.075   1
  -3  -8  -7 392.866 991.913  -2
   3   8  -1 392.866 991.913   1
  -3  -8  -6 314.131 612.416  -2
   3   8   0 314.131 612.416   1
  -3  -8  -5 1136.60 623.990  -2
   3   8   1 1136.60 623.990   1
  -3  -8  -4 2778.13 636.430  -2
   3   8   2 2778.13 636.430   1
  -3  -8  -3 918.687 806.421  -2
   3   8   3 918.687 806.421   1
  -3  -8  -2 3998.07 947.246  -2
   3   8   4 3998.07 947.246   1
  -3  -8  -1 441.721 923.486  -2
   3   8   5 441.721 923.486   1
  -3  -8   0 22.0783 869.238  -2
   3   8   6 22.0783 869.238   1
   3   8   7 724.111 829.697   1
  -3  -8   1 153.507 1400.60  -2
   3   8   7 153.507 1400.60   1
   3   8   8-423.392 1147.25   1
   3   8   9 873.446 1101.15   1
   3   8  10 2040.08 597.031   1
   3   9  -2 4726.79 690.183   1
   3   9  -1 1094.48 486.832   1
   3   9   0 1582.02 779.298   1
  -3  -9  -7 1254.87 703.990  -2
   3   9   0 1254.87 703.990   1
  -3  -9  -6 2714.43 762.679  -2
   3   9   1 2714.43 762.679   1
  -3  -9  -5 4832.41 821.957  -2
   3   9   2 4832.41 821.957   1
  -3  -9  -4 3950.79 812.148  -2
   3   9   3 3950.79 812.148   1
  -3  -9  -3 3761.53 1205.87  -2
   3   9   4 3761.53 1205.87   1
  -3  -9  -2 5827.32 895.222  -2
   3   9   5 5827.32 895.222   1
  -3  -9  -1 3485.66 872.303  -2
   3   9   6 3485.66 872.303   1
   3   9   7 403.095 794.165   1
  -3  -9   0 1472.13 1348.71  -2
   3   9   7 1472.13 1348.71   1
   3   9   8 514.060 1043.70   1
   3   9   9 134.904 939.304   1
   3  10   0 715.879 627.802   1
   3  10   1 163.874 493.438   1
  -3 -10  -5 3585.64 1020.04  -2
   3  10   2 3585.64 1020.04   1
  -3 -10  -4 821.264 1015.63  -2
   3  10   3 821.264 1015.63   1
  -3 -10  -3 1078.96 1039.78  -2
   3  10   4 1078.96 1039.78   1
   3  10   5 2137.71 793.684   1
   3  10   6 435.961 575.764   1
   3  10   7 988.586 931.880   1
   4  -7  -4 688.063 731.144   1
   4  -7  -3 1609.04 847.150   1
   4  -7  -2-56.9857 834.206   1
   4  -7  -1 441.107 568.376   1
   4  -7   0 321.615 516.975   1
   4  -7   1 129.409 507.164   1
   4  -7   2 3058.78 496.407   1
   4  -7   3 309.926 620.612   1
   4  -6   5 1014.00 920.102  -2
  -4   6   6 1014.00 920.102   1
  -4   6  -4 1791.15 1070.51  -2
   4  -6  -5 1791.15 1070.51   1
  -4   6  -3 333.250 1120.71  -2
   4  -6  -4 333.250 1120.71   1
  -4   6  -2 4460.22 1294.77  -2
   4  -6  -3 4460.22 1294.77   1
  -4   6  -1 8855.10 1409.28  -2
   4  -6  -2 8855.10 1409.28   1
  -4   6   0 2894.89 1303.81  -2
   4  -6  -1 2894.89 1303.81   1
  -4   6   1 3225.42 547.857  -2
   4  -6   0 3225.42 547.857   1
  -4   6   2 7979.04 632.329  -2
   4  -6   1 7979.04 632.329   1
  -4   6   3 4597.61 645.736  -2
   4  -6   2 4597.61 645.736   1
  -4   6   4 371.485 1047.00  -2
   4  -6   3 371.485 1047.00   1
   4  -6  -5 1231.41 670.055  -2
  -4   6  -4 1231.41 670.055   1
   4  -6  -6 630.241 554.083  -2
  -4   6  -5 630.241 554.083   1
  -4   5   7 7390.32 781.740   1
  -4   5   6 2315.74 816.344   1
   4  -5  -5 80.1727 878.819   1
   4  -5  -4 1001.95 932.006   1
   4  -5  -3 572.014 939.653   1
   4  -5  -2 3194.08 1006.59   1
   4  -5  -1 119.342 474.859   1
   4  -5   0 22.1751 496.590   1
   4  -5   1 598.620 439.588   1
   4  -5   2 617.817 482.132   1
   4  -5   3 4766.14 642.636   1
   4  -5   4 116.891 565.253   1
   4  -5   5 441.776 530.092   1
   4  -5   6 304.845 706.710   1
   4  -4   7 1622.15 1000.23  -2
  -4   4   7 1622.15 1000.23   1
  -4   4  -5 5.27171 1253.47  -2
   4  -4  -5 5.27171 1253.47   1
  -4   4  -4 1454.55 1249.58  -2
   4  -4  -4 1454.55 1249.58   1
  -4   4  -3 10818.1 1400.92  -2
   4  -4  -3 10818.1 1400.92   1
  -4   4  -2 656.882 783.852  -2
   4  -4  -2 656.882 783.852   1
  -4   4  -1 3559.66 653.068  -2
   4  -4  -1 3559.66 653.068   1
  -4   4   0 12051.1 727.910  -2
   4  -4   0 12051.1 727.910   1
  -4   4   1 3639.82 522.124  -2
   4  -4   1 3639.82 522.124   1
  -4   4   2 1098.43 489.958  -2
   4  -4   2 1098.43 489.958   1
  -4   4   3 10146.7 712.862  -2
   4  -4   3 10146.7 712.862   1
  -4   4   4 618.254 644.864  -2
   4  -4   4 618.254 644.864   1
  -4   4   5 917.561 622.921  -2
   4  -4   5 917.561 622.921   1
  -4   4   6 8099.29 782.093  -2
   4  -4   6 8099.29 782.093   1
  -4   4   7 1977.35 642.325  -2
   4  -4   7 1977.35 642.325   1
  -4   3   8 342.522 676.604   1
  -4   3   7 3332.87 826.420   1
  -4   3   6 2898.62 870.600   1
   4  -3  -5 5510.35 963.087   1
   4  -3  -4-29.2323 935.195   1
   4  -3  -3 108.011 924.783   1
   4  -3  -2 368.184 592.623   1
   4  -3  -1 5804.96 576.864   1
  -4   3  -2 4296.18 1185.47  -2
   4  -3  -1 4296.18 1185.47   1
   4  -3   0 4474.31 487.677   1
  -4   3  -1 16420.4 1276.17  -2
   4  -3   0 16420.4 1276.17   1
   4  -3   1 13836.0 545.317   1
  -4   3   0 17991.5 717.609  -2
   4  -3   1 17991.5 717.609   1
   4  -3   2 667.254 394.865   1
  -4   3   1 5295.32 1073.40  -2
   4  -3   2 5295.32 1073.40   1
   4  -3   3 16823.4 598.576   1
  -4   3   2 18557.8 1261.88  -2
   4  -3   3 18557.8 1261.88   1
   4  -3   4 2115.74 511.450   1
   4  -3   5 297.118 486.890   1
   4  -3   6 8613.38 545.360   1
   4  -3   7 2294.69 462.665   1
   4  -3   8 734.387 727.963   1
  -4   2   8 652.002 679.344   1
  -4   2   7 5296.61 837.923   1
  -4   2   6 15858.2 1030.87   1
   4  -2  -5 10924.4 1001.81   1
   4  -2  -4 832.466 905.132   1
   4  -2  -3 36.4257 912.641   1
  -4   2  -3 18102.1 1313.25  -2
   4  -2  -2 18102.1 1313.25   1
  -4   2  -2 4201.75 747.523  -2
   4  -2  -1 4201.75 747.523   1
  -4   2  -1 19307.1 578.865  -2
   4  -2   0 19307.1 578.865   1
  -4   2   0 17316.2 509.923  -2
   4  -2   1 17316.2 509.923   1
   4  -2   2 1655.71 496.988   1
  -4   2   1 5356.75 600.796  -2
   4  -2   2 5356.75 600.796   1
   4  -2   3 18235.9 683.541   1
  -4   2   2 18775.0 679.151  -2
   4  -2   3 18775.0 679.151   1
   4  -2   4 227.934 448.476   1
  -4   2   3 148.739 1152.76  -2
   4  -2   4 148.739 1152.76   1
   4  -2   5-90.8074 587.815   1
   4  -2   6 3337.29 503.193   1
   4  -2   7 279.095 612.887   1
   4  -2   8 3214.86 600.948   1
   4  -2   9 46.8603 492.705   1
   4  -1  -8 247.236 466.282   1
   4  -1  -7 413.164 535.205   1
  -4   1   6 16419.6 986.357   1
  -4   1   5 601.505 595.899   1
   4  -1  -4 2923.26 955.442   1
  -4   1  -5 2391.26 1204.30  -2
   4  -1  -3 2391.26 1204.30   1
  -4   1  -4-380.614 1134.72  -2
   4  -1  -2-380.614 1134.72   1
  -4   1  -3 7568.37 751.568  -2
   4  -1  -1 7568.37 751.568   1
  -4   1  -2 4728.48 571.722  -2
   4  -1   0 4728.48 571.722   1
  -4   1  -1 406.135 411.954  -2
   4  -1   1 406.135 411.954   1
   4  -1   2 4343.89 666.691   1
  -4   1   0 5482.82 430.998  -2
   4  -1   2 5482.82 430.998   1
  -4   1   1 7241.06 492.390  -2
   4  -1   3 7241.06 492.390   1
   4  -1   4 480.044 729.349   1
  -4   1   2 522.517 557.449  -2
   4  -1   4 522.517 557.449   1
   4  -1   5 2028.59 769.446   1
  -4   1   3 3051.31 765.515  -2
   4  -1   5 3051.31 765.515   1
   4  -1   6 5559.87 619.877   1
  -4   1   4 7568.39 1236.57  -2
   4  -1   6 7568.39 1236.57   1
   4  -1   7 212.888 636.224   1
   4  -1   8 901.317 886.981   1
   4  -1   9 1335.64 823.867   1
   4  -1  10 453.356 464.926   1
   4   0  -8 79.8294 478.942   1
   4   0  -7 1039.57 789.732   1
   4   0  -6 1247.77 577.657   1
  -4   0   5 11745.8 682.235   1
  -4   0   4 11978.3 672.744   1
   4   0  -3 3273.30 888.101   1
   4   0  -2 6530.20 600.642   1
   4   0  -1 196.418 537.476   1
   4   0   0-27.3966 336.702   1
   4   0   1 11298.3 418.639   1
   4   0   2 934.544 233.901   1
   4   0   3 5644.31 284.041   1
   4   0   4 6164.26 348.021   1
   4   0   5 588.772 395.401   1
   4   0   6 73.9109 518.392   1
   4   0   7 2207.13 654.244   1
   4   0   8 2070.87 666.087   1
   4   0   9 228.185 913.792   1
   4   0  10 143.237 716.586   1
  -4  -1 -11 2341.53 869.544  -2
   4   1  -8 2341.53 869.544   1
  -4  -1 -10 1366.77 684.893  -2
   4   1  -7 1366.77 684.893   1
  -4  -1  -9 4625.71 787.089  -2
   4   1  -6 4625.71 787.089   1
  -4  -1  -8 33980.2 1025.43  -2
   4   1  -5 33980.2 1025.43   1
  -4  -1  -7 1310.53 783.083  -2
   4   1  -4 1310.53 783.083   1
  -4  -1  -6 285.775 710.276  -2
   4   1  -3 285.775 710.276   1
  -4  -1  -5 3632.53 1103.42  -2
   4   1  -2 3632.53 1103.42   1
  -4  -1  -4 2021.12 690.739  -2
   4   1  -1 2021.12 690.739   1
  -4  -1  -3 21070.3 654.707  -2
   4   1   0 21070.3 654.707   1
  -4  -1  -2 15778.2 390.380  -2
   4   1   1 15778.2 390.380   1
  -4  -1  -1 15697.7 392.822  -2
   4   1   2 15697.7 392.822   1
  -4  -1   0 19283.9 503.469  -2
   4   1   3 19283.9 503.469   1
  -4  -1   1 2438.00 417.137  -2
   4   1   4 2438.00 417.137   1
  -4  -1   2 3217.18 514.539  -2
   4   1   5 3217.18 514.539   1
  -4  -1   3 483.363 467.667  -2
   4   1   6 483.363 467.667   1
  -4  -1   4 1412.64 605.603  -2
   4   1   7 1412.64 605.603   1
  -4  -1   5 33727.6 1107.08  -2
   4   1   8 33727.6 1107.08   1
  -4  -1   6 4783.84 823.614  -2
   4   1   9 4783.84 823.614   1
  -4  -1   7 1630.82 1100.87  -2
   4   1  10 1630.82 1100.87   1
  -4  -1   8 4087.92 931.482  -2
   4   1  11 4087.92 931.482   1
   4   2  -7 105.435 744.602   1
   4   2  -6 579.533 584.081   1
   4   2  -5-312.522 603.351   1
   4   2  -4 31645.8 853.877   1
   4   2  -3 2183.85 590.009   1
   4   2  -2 3190.86 381.129   1
   4   2  -1 800.560 415.683   1
   4   2   0 10676.4 364.116   1
   4   2   1 17190.9 378.808   1
   4   2   2 9021.13 328.371   1
   4   2   3 11257.0 464.257   1
   4   2   4-72.6550 338.660   1
   4   2   5-34.2954 372.534   1
   4   2   6 604.778 424.915   1
   4   2   7 2008.30 414.821   1
   4   2   8 44.3922 457.779   1
   4   2   9 626.533 509.307   1
   4   2  10 809.655 561.244   1
   4   2  11 209.224 754.677   1
  -4  -3 -11 1938.47 950.426  -2
   4   3  -7 1938.47 950.426   1
  -4  -3 -10 1370.95 1035.06  -2
   4   3  -6 1370.95 1035.06   1
  -4  -3  -9 8565.24 830.903  -2
   4   3  -5 8565.24 830.903   1
  -4  -3  -8 9452.10 680.024  -2
   4   3  -4 9452.10 680.024   1
  -4  -3  -7 4065.16 628.205  -2
   4   3  -3 4065.16 628.205   1
  -4  -3  -6 1984.71 565.260  -2
   4   3  -2 1984.71 565.260   1
  -4  -3  -5 5999.60 499.189  -2
   4   3  -1 5999.60 499.189   1
  -4  -3  -4 28153.0 643.193  -2
   4   3   0 28153.0 643.193   1
  -4  -3  -3 4723.97 436.816  -2
   4   3   1 4723.97 436.816   1
  -4  -3  -2 8380.29 453.461  -2
   4   3   2 8380.29 453.461   1
  -4  -3  -1 5017.29 474.684  -2
   4   3   3 5017.29 474.684   1
  -4  -3   0 31618.7 772.876  -2
   4   3   4 31618.7 772.876   1
  -4  -3   1 6447.00 694.972  -2
   4   3   5 6447.00 694.972   1
  -4  -3   2 1916.61 614.324  -2
   4   3   6 1916.61 614.324   1
  -4  -3   3 4463.02 628.183  -2
   4   3   7 4463.02 628.183   1
  -4  -3   4 9309.17 802.610  -2
   4   3   8 9309.17 802.610   1
  -4  -3   5 9030.79 743.068  -2
   4   3   9 9030.79 743.068   1
  -4  -3   6 1145.58 602.255  -2
   4   3  10 1145.58 602.255   1
  -4  -3   7 894.589 961.621  -2
   4   3  11 894.589 961.621   1
   4   4  -6 448.943 750.570   1
   4   4  -5-38.1857 443.012   1
   4   4  -4 1902.25 486.989   1
   4   4  -3 10551.9 563.635   1
   4   4  -2 10.2836 467.761   1
   4   4  -1 2279.23 459.886   1
   4   4   0 130.112 341.707   1
   4   4   1 177.922 323.494   1
   4   4   2 2111.60 404.544   1
   4   4   3 1877.55 411.337   1
   4   4   4 6393.16 498.242   1
   4   4   5 77.2929 391.975   1
   4   4   6 251.668 413.826   1
   4   4   7 585.470 484.443   1
   4   4   8 2650.51 536.686   1
   4   4   9 35.9238 549.382   1
   4   4  10 447.771 473.211   1
   4   4  11 425.937 511.051   1
   4   5  -6 101.248 683.926   1
  -4  -5 -10 614.623 667.468  -2
   4   5  -5 614.623 667.468   1
  -4  -5  -9 14922.7 665.222  -2
   4   5  -4 14922.7 665.222   1
  -4  -5  -8 1621.24 623.264  -2
   4   5  -3 1621.24 623.264   1
  -4  -5  -7 9202.51 676.099  -2
   4   5  -2 9202.51 676.099   1
  -4  -5  -6 5249.84 648.518  -2
   4   5  -1 5249.84 648.518   1
  -4  -5  -5 329.388 507.313  -2
   4   5   0 329.388 507.313   1
  -4  -5  -4 63400.9 1005.38  -2
   4   5   1 63400.9 1005.38   1
  -4  -5  -3 244.875 632.743  -2
   4   5   2 244.875 632.743   1
  -4  -5  -2 70.7322 579.117  -2
   4   5   3 70.7322 579.117   1
  -4  -5  -1 69638.9 1040.12  -2
   4   5   4 69638.9 1040.12   1
  -4  -5   0 988.125 647.879  -2
   4   5   5 988.125 647.879   1
  -4  -5   1 6125.43 736.566  -2
   4   5   6 6125.43 736.566   1
  -4  -5   2 9898.70 760.523  -2
   4   5   7 9898.70 760.523   1
  -4  -5   3 1948.54 591.860  -2
   4   5   8 1948.54 591.860   1
  -4  -5   4 16552.4 915.029  -2
   4   5   9 16552.4 915.029   1
  -4  -5   5 312.039 569.586  -2
   4   5  10 312.039 569.586   1
   4   5  11 120.540 495.356   1
   4   6  -5 733.024 457.626   1
   4   6  -4 1513.58 544.060   1
   4   6  -3 4594.27 621.018   1
   4   6  -2 129.853 592.510   1
   4   6  -1 903.509 597.333   1
   4   6   0 1318.89 595.514   1
   4   6   1 527.782 604.939   1
  -4  -6  -4 405.292 780.386  -2
   4   6   2 405.292 780.386   1
   4   6   3 96.5101 1019.06   1
  -4  -6  -3 1446.33 773.107  -2
   4   6   3 1446.33 773.107   1
  -4  -6  -2 531.355 662.189  -2
   4   6   4 531.355 662.189   1
   4   6   5 7584.92 667.311   1
  -4  -6  -1 6703.27 1341.22  -2
   4   6   5 6703.27 1341.22   1
   4   6   6 526.902 696.723   1
   4   6   7 1934.45 560.895   1
   4   6   8 488.847 521.733   1
   4   6   9 467.875 866.095   1
   4   6  10 25.4532 609.187   1
   4   7  -4 185.404 630.183   1
   4   7  -3 151.351 691.029   1
   4   7  -2-426.966 747.089   1
  -4  -7  -7 363.357 1038.51  -2
   4   7  -1 363.357 1038.51   1
   4   7   0 2217.18 900.831   1
  -4  -7  -6 1563.33 1097.88  -2
   4   7   0 1563.33 1097.88   1
  -4  -7  -5 17612.9 910.811  -2
   4   7   1 17612.9 910.811   1
  -4  -7  -4 3800.26 809.115  -2
   4   7   2 3800.26 809.115   1
  -4  -7  -3 514.794 761.593  -2
   4   7   3 514.794 761.593   1
  -4  -7  -2 4656.03 682.513  -2
   4   7   4 4656.03 682.513   1
  -4  -7  -1 21234.1 789.023  -2
   4   7   5 21234.1 789.023   1
  -4  -7   0 2305.09 951.062  -2
   4   7   6 2305.09 951.062   1
   4   7   7 577.442 521.961   1
   4   7   8-62.6491 481.361   1
   4   7   9 1056.62 653.788   1
   4   7  10 645.881 705.634   1
   4   8  -2-115.447 671.381   1
  -4  -8  -8 94.1308 941.283  -2
   4   8  -1 94.1308 941.283   1
  -4  -8  -7-556.733 980.867  -2
   4   8   0-556.733 980.867   1
  -4  -8  -6 10631.7 808.644  -2
   4   8   1 10631.7 808.644   1
  -4  -8  -5-250.217 741.735  -2
   4   8   2-250.217 741.735   1
  -4  -8  -4 2831.34 766.017  -2
   4   8   3 2831.34 766.017   1
  -4  -8  -3 3655.11 752.155  -2
   4   8   4 3655.11 752.155   1
  -4  -8  -2 397.326 892.849  -2
   4   8   5 397.326 892.849   1
  -4  -8  -1 12379.4 996.952  -2
   4   8   6 12379.4 996.952   1
  -4  -8   0 533.209 822.197  -2
   4   8   7 533.209 822.197   1
  -4  -8   1 44.0139 794.281  -2
   4   8   8 44.0139 794.281   1
   4   8   9 518.835 573.082   1
   4   9   0 3150.12 682.869   1
   4   9   1 1094.95 500.912   1
   4   9   2 600.975 509.025   1
   4   9   3 1684.39 873.099   1
   4   9   4 2187.48 929.429   1
   4   9   5 9169.63 722.003   1
   4   9   6 777.728 629.456   1
   4   9   7-77.9424 569.342   1
   4   9   8 2.94842 916.499   1
  -4 -10  -5 1910.71 1378.45  -2
   4  10   3 1910.71 1378.45   1
  -4 -10  -4 562.864 924.123  -2
   4  10   4 562.864 924.123   1
  -4 -10  -3 1480.98 953.127  -2
   4  10   5 1480.98 953.127   1
   5  -6  -2 497.095 521.586   1
   5  -6  -1 902.875 520.510   1
   5  -6   0-244.163 489.749   1
   5  -6   1 2025.67 474.839   1
   5  -6   2 1314.46 614.310   1
  -5   5  -4 2235.54 695.537  -2
   5  -5  -4 2235.54 695.537   1
  -5   5  -3 1508.28 736.597  -2
   5  -5  -3 1508.28 736.597   1
  -5   5  -2 4850.78 803.257  -2
   5  -5  -2 4850.78 803.257   1
  -5   5  -1 5043.16 807.128  -2
   5  -5  -1 5043.16 807.128   1
  -5   5   0 4739.72 620.536  -2
   5  -5   0 4739.72 620.536   1
  -5   5   1 4603.22 519.563  -2
   5  -5   1 4603.22 519.563   1
  -5   5   2 3608.26 703.709  -2
   5  -5   2 3608.26 703.709   1
  -5   5   3 1218.27 659.311  -2
   5  -5   3 1218.27 659.311   1
  -5   5   4 2419.09 625.411  -2
   5  -5   4 2419.09 625.411   1
  -5   4   5 239.360 413.367   1
   5  -4  -4 386.373 583.991   1
   5  -4  -3 909.876 888.001   1
  -5   4  -3 408.762 841.060  -2
   5  -4  -2 408.762 841.060   1
  -5   4  -2 2228.41 848.808  -2
   5  -4  -1 2228.41 848.808   1
  -5   4  -1 2767.49 664.516  -2
   5  -4   0 2767.49 664.516   1
   5  -4   1 2593.48 867.512   1
  -5   4   0 2324.11 649.367  -2
   5  -4   1 2324.11 649.367   1
   5  -4   2 2866.33 603.982   1
  -5   4   1 2512.67 776.659  -2
   5  -4   2 2512.67 776.659   1
   5  -4   3-531.299 793.293   1
  -5   4   2 374.525 752.720  -2
   5  -4   3 374.525 752.720   1
   5  -4   4 57.4293 550.113   1
  -5   4   3 601.825 1009.99  -2
   5  -4   4 601.825 1009.99   1
   5  -4   5 426.913 342.908   1
   5  -4   6 1452.55 462.870   1
  -5   3   6 552.610 657.790   1
  -5   3   5 2593.95 435.909   1
   5  -3  -4 2228.87 594.336   1
   5  -3  -3 319.381 637.417   1
   5  -3  -2 4237.59 1035.05   1
  -5   3  -3 4784.18 1209.38  -2
   5  -3  -2 4784.18 1209.38   1
  -5   3  -2 3476.83 887.882  -2
   5  -3  -1 3476.83 887.882   1
  -5   3  -1 34.8451 673.977  -2
   5  -3   0 34.8451 673.977   1
   5  -3   1 38.9521 867.543   1
  -5   3   0 653.738 575.382  -2
   5  -3   1 653.738 575.382   1
   5  -3   2 428.294 489.315   1
  -5   3   1 2352.56 827.683  -2
   5  -3   2 2352.56 827.683   1
   5  -3   3 698.405 481.773   1
  -5   3   2 5271.79 815.652  -2
   5  -3   3 5271.79 815.652   1
   5  -3   4 1689.71 581.269   1
  -5   3   3 2914.00 795.043  -2
   5  -3   4 2914.00 795.043   1
   5  -3   5 345.319 392.762   1
   5  -3   6 413.404 368.090   1
   5  -3   7 597.842 379.860   1
  -5   2   6 374.139 695.331   1
   5  -2   7 8363.44 738.664  -2
  -5   2   5 8363.44 738.664   1
  -5   2  -6 6146.20 800.783  -2
   5  -2  -4 6146.20 800.783   1
  -5   2  -5 10009.5 893.819  -2
   5  -2  -3 10009.5 893.819   1
  -5   2  -4 2560.34 877.214  -2
   5  -2  -2 2560.34 877.214   1
  -5   2  -3 6279.24 921.870  -2
   5  -2  -1 6279.24 921.870   1
  -5   2  -2 46601.9 988.470  -2
   5  -2   0 46601.9 988.470   1
  -5   2  -1 5043.60 611.147  -2
   5  -2   1 5043.60 611.147   1
  -5   2   0 50052.6 751.364  -2
   5  -2   2 50052.6 751.364   1
  -5   2   1 6538.72 589.654  -2
   5  -2   3 6538.72 589.654   1
  -5   2   2 3949.77 564.057  -2
   5  -2   4 3949.77 564.057   1
  -5   2   3 8999.81 582.407  -2
   5  -2   5 8999.81 582.407   1
   5  -2   6 1720.20 773.512   1
  -5   2   4 5111.25 795.298  -2
   5  -2   6 5111.25 795.298   1
  -5   2   5 7941.90 599.922  -2
   5  -2   7 7941.90 599.922   1
   5  -2   8 93.6135 471.643   1
   5  -1  -5 2781.87 849.570   1
   5  -1  -4 4001.62 947.182   1
   5  -1  -3 271.391 628.646   1
   5  -1  -2 1493.40 671.582   1
   5  -1  -1 80.0580 637.558   1
   5  -1   0 268.138 431.301   1
   5  -1   1 939.858 433.935   1
   5  -1   2 9083.31 491.671   1
   5  -1   3 3499.74 451.611   1
   5  -1   4 351.844 356.105   1
   5  -1   5 308.373 372.476   1
   5  -1   6-26.2267 397.187   1
   5  -1   7 3626.50 484.444   1
   5  -1   8 376.874 544.943   1
   5  -1   9-488.244 443.860   1
  -5   0  -9 982.368 935.618  -2
   5   0  -6 982.368 935.618   1
  -5   0  -8 4682.22 1114.38  -2
   5   0  -5 4682.22 1114.38   1
  -5   0  -7 219.121 1154.37  -2
   5   0  -4 219.121 1154.37   1
  -5   0  -6 5058.24 1292.93  -2
   5   0  -3 5058.24 1292.93   1
  -5   0  -5 7707.78 882.521  -2
   5   0  -2 7707.78 882.521   1
  -5   0  -4 4592.20 855.331  -2
   5   0  -1 4592.20 855.331   1
  -5   0  -3 8125.31 688.241  -2
   5   0   0 8125.31 688.241   1
  -5   0  -2 14195.9 658.446  -2
   5   0   1 14195.9 658.446   1
  -5   0  -1 16271.6 673.645  -2
   5   0   2 16271.6 673.645   1
  -5   0   0 10519.0 739.894  -2
   5   0   3 10519.0 739.894   1
  -5   0   1 5323.68 661.582  -2
   5   0   4 5323.68 661.582   1
  -5   0   2 8786.74 702.999  -2
   5   0   5 8786.74 702.999   1
  -5   0   3 3443.62 672.615  -2
   5   0   6 3443.62 672.615   1
  -5   0   4 1847.97 792.736  -2
   5   0   7 1847.97 792.736   1
  -5   0   5 3634.62 1183.48  -2
   5   0   8 3634.62 1183.48   1
  -5   0   6 661.366 996.062  -2
   5   0   9 661.366 996.062   1
   5   1  -6 243.686 683.484   1
   5   1  -5 587.686 815.498   1
   5   1  -4-48.4306 625.420   1
   5   1  -3 2970.34 664.024   1
   5   1  -2 1669.47 658.705   1
   5   1  -1 2921.64 520.958   1
   5   1   0 2872.56 506.056   1
   5   1   1 595.603 394.042   1
   5   1   2 3033.61 417.603   1
   5   1   3 10469.1 448.555   1
   5   1   4 9212.40 430.597   1
   5   1   5 115.320 443.878   1
   5   1   6 1958.21 553.482   1
   5   1   7 102.797 631.414   1
   5   1   8 2571.95 625.252   1
   5   1   9 3631.62 592.004   1
   5   1  10 360.857 676.657   1
  -5  -2 -10 2942.46 869.794  -2
   5   2  -6 2942.46 869.794   1
  -5  -2  -9 7188.79 1059.77  -2
   5   2  -5 7188.79 1059.77   1
  -5  -2  -8 8147.79 1186.93  -2
   5   2  -4 8147.79 1186.93   1
  -5  -2  -7 3071.56 1152.89  -2
   5   2  -3 3071.56 1152.89   1
  -5  -2  -6 7146.28 906.900  -2
   5   2  -2 7146.28 906.900   1
  -5  -2  -5 3101.76 835.984  -2
   5   2  -1 3101.76 835.984   1
  -5  -2  -4 18167.4 755.336  -2
   5   2   0 18167.4 755.336   1
  -5  -2  -3 17910.6 737.140  -2
   5   2   1 17910.6 737.140   1
  -5  -2  -2 2317.75 465.461  -2
   5   2   2 2317.75 465.461   1
  -5  -2  -1 18063.9 794.117  -2
   5   2   3 18063.9 794.117   1
  -5  -2   0 20859.0 843.932  -2
   5   2   4 20859.0 843.932   1
  -5  -2   1 2699.60 699.615  -2
   5   2   5 2699.60 699.615   1
  -5  -2   2 7193.20 643.991  -2
   5   2   6 7193.20 643.991   1
  -5  -2   3 2146.08 732.566  -2
   5   2   7 2146.08 732.566   1
  -5  -2   4 8148.48 727.315  -2
   5   2   8 8148.48 727.315   1
  -5  -2   5 8336.01 811.345  -2
   5   2   9 8336.01 811.345   1
  -5  -2   6 1788.10 916.775  -2
   5   2  10 1788.10 916.775   1
   5   3  -5 4525.00 526.988   1
   5   3  -4 1940.84 560.744   1
   5   3  -3 3963.96 912.469   1
   5   3  -2 5055.86 614.531   1
   5   3  -1 5687.41 619.244   1
   5   3   0 2085.43 492.025   1
   5   3   1 1077.26 430.917   1
   5   3   2 1929.86 506.476   1
   5   3   3 25859.5 662.662   1
   5   3   4-123.934 656.586   1
   5   3   5 1697.72 521.929   1
   5   3   6 1369.01 449.062   1
   5   3   7 411.854 445.971   1
   5   3   8 3054.52 543.213   1
   5   3   9-23.7451 481.153   1
   5   3  10-1.44921 497.021   1
   5   4  -5 468.163 611.201   1
   5   4  -4 254.846 735.095   1
  -5  -4  -9 1215.06 929.686  -2
   5   4  -4 1215.06 929.686   1
  -5  -4  -8 2055.64 579.198  -2
   5   4  -3 2055.64 579.198   1
  -5  -4  -7 1257.04 591.087  -2
   5   4  -2 1257.04 591.087   1
  -5  -4  -6 2284.89 758.555  -2
   5   4  -1 2284.89 758.555   1
  -5  -4  -5 26128.3 956.827  -2
   5   4   0 26128.3 956.827   1
  -5  -4  -4 16398.6 887.939  -2
   5   4   1 16398.6 887.939   1
  -5  -4  -3 12251.6 732.673  -2
   5   4   2 12251.6 732.673   1
  -5  -4  -2 11583.9 956.982  -2
   5   4   3 11583.9 956.982   1
  -5  -4  -1 17731.3 991.722  -2
   5   4   4 17731.3 991.722   1
  -5  -4   0 25182.3 1077.02  -2
   5   4   5 25182.3 1077.02   1
  -5  -4   1 1968.62 961.626  -2
   5   4   6 1968.62 961.626   1
  -5  -4   2 1969.04 571.685  -2
   5   4   7 1969.04 571.685   1
  -5  -4   3 938.775 664.652  -2
   5   4   8 938.775 664.652   1
   5   4   9 1164.45 565.342   1
  -5  -4   4 1053.10 758.330  -2
   5   4   9 1053.10 758.330   1
   5   4  10 749.920 510.221   1
   5   5  -4 1183.46 382.708   1
   5   5  -3 260.652 413.794   1
   5   5  -2 241.243 445.156   1
   5   5  -1 553.827 597.812   1
  -5  -5  -6 4039.27 790.677  -2
   5   5   0 4039.27 790.677   1
  -5  -5  -5 3028.19 796.705  -2
   5   5   1 3028.19 796.705   1
  -5  -5  -4 10133.9 839.657  -2
   5   5   2 10133.9 839.657   1
  -5  -5  -3 1055.40 683.916  -2
   5   5   3 1055.40 683.916   1
  -5  -5  -2 13077.6 970.076  -2
   5   5   4 13077.6 970.076   1
  -5  -5  -1 2096.03 1533.54  -2
   5   5   5 2096.03 1533.54   1
   5   5   6 194.676 886.526   1
  -5  -5   0 3396.84 1523.80  -2
   5   5   6 3396.84 1523.80   1
   5   5   7-185.255 656.468   1
   5   5   8 84.1131 490.197   1
   5   5   9 761.239 478.616   1
   5   5  10 254.795 641.663   1
   5   6  -3 2085.42 656.344   1
   5   6  -2-138.477 714.430   1
   5   6  -1 336.744 766.121   1
  -5  -6  -6 10836.9 1122.63  -2
   5   6   0 10836.9 1122.63   1
  -5  -6  -5 44340.6 1035.98  -2
   5   6   1 44340.6 1035.98   1
  -5  -6  -4 9020.51 865.718  -2
   5   6   2 9020.51 865.718   1
  -5  -6  -3 3642.79 816.112  -2
   5   6   3 3642.79 816.112   1
  -5  -6  -2 8393.06 734.922  -2
   5   6   4 8393.06 734.922   1
  -5  -6  -1 44911.0 1811.02  -2
   5   6   5 44911.0 1811.02   1
   5   6   6 396.981 887.258   1
  -5  -6   0 10025.9 1520.55  -2
   5   6   6 10025.9 1520.55   1
   5   6   7 1410.38 643.562   1
   5   6   8 1381.66 613.204   1
   5   6   9 633.795 566.018   1
  -5  -7  -9 1752.17 807.533  -2
   5   7  -2 1752.17 807.533   1
  -5  -7  -8 1959.52 890.360  -2
   5   7  -1 1959.52 890.360   1
  -5  -7  -7 1481.25 981.537  -2
   5   7   0 1481.25 981.537   1
  -5  -7  -6 712.498 704.928  -2
   5   7   1 712.498 704.928   1
  -5  -7  -5 1845.38 758.814  -2
   5   7   2 1845.38 758.814   1
  -5  -7  -4 4352.93 786.464  -2
   5   7   3 4352.93 786.464   1
  -5  -7  -3 4451.07 700.351  -2
   5   7   4 4451.07 700.351   1
  -5  -7  -2 1673.62 665.274  -2
   5   7   5 1673.62 665.274   1
  -5  -7   0 1025.42 793.031  -2
   5   7   7 1025.42 793.031   1
  -5  -7   1 2718.02 724.621  -2
   5   7   8 2718.02 724.621   1
  -5  -7   2 1183.36 1151.33  -2
   5   7   9 1183.36 1151.33   1
   5   8   0 161.914 636.723   1
   5   8   1 2090.34 708.492   1
   5   8   2 254.890 513.415   1
   5   8   3 349.335 525.763   1
   5   8   4 424.268 528.452   1
   5   8   5 1312.99 631.862   1
   5   8   6 1872.51 570.769   1
   5   8   7 382.572 505.378   1
   5   8   8 335.353 822.761   1
  -5  -9  -5 1154.82 894.522  -2
   5   9   3 1154.82 894.522   1
  -5  -9  -4 146.730 910.918  -2
   5   9   4 146.730 910.918   1
  -5  -9  -3 1276.66 962.183  -2
   5   9   5 1276.66 962.183   1
  -6   4  -2 1205.74 758.410  -2
   6  -4  -1 1205.74 758.410   1
   6  -4   0 601.659 684.721   1
  -6   4  -1 3039.73 900.231  -2
   6  -4   0 3039.73 900.231   1
  -6   4   0 4643.69 902.913  -2
   6  -4   1 4643.69 902.913   1
  -6   3  -4 841.593 668.806  -2
   6  -3  -2 841.593 668.806   1
  -6   3  -3 2261.90 727.177  -2
   6  -3  -1 2261.90 727.177   1
  -6   3  -2 4760.62 758.015  -2
   6  -3   0 4760.62 758.015   1
  -6   3  -1 2482.78 738.840  -2
   6  -3   1 2482.78 738.840   1
  -6   3   0 6359.21 731.815  -2
   6  -3   2 6359.21 731.815   1
  -6   3   1 2907.64 939.193  -2
   6  -3   3 2907.64 939.193   1
  -6   3   2 1127.90 862.403  -2
   6  -3   4 1127.90 862.403   1
   6  -2  -3 50.0405 397.001   1
   6  -2  -2 58.8957 539.928   1
   6  -2  -1 427.468 576.842   1
   6  -2   0 479.024 585.879   1
   6  -2   1 489.068 585.945   1
   6  -2   2 8606.50 668.377   1
   6  -2   3 190.087 565.787   1
   6  -2   4 812.535 549.448   1
   6  -2   5-124.945 494.130   1
   6  -2   6 23.1707 678.887   1
  -6   1  -7 698.441 606.463  -2
   6  -1  -4 698.441 606.463   1
  -6   1  -6 246.944 647.370  -2
   6  -1  -3 246.944 647.370   1
  -6   1  -5 9455.63 607.763  -2
   6  -1  -2 9455.63 607.763   1
  -6   1  -4 1818.83 787.762  -2
   6  -1  -1 1818.83 787.762   1
  -6   1  -3 16068.8 862.420  -2
   6  -1   0 16068.8 862.420   1
  -6   1  -2 1907.18 805.266  -2
   6  -1   1 1907.18 805.266   1
  -6   1  -1 1853.89 772.584  -2
   6  -1   2 1853.89 772.584   1
  -6   1   0 18506.5 961.961  -2
   6  -1   3 18506.5 961.961   1
  -6   1   1 1577.83 669.681  -2
   6  -1   4 1577.83 669.681   1
  -6   1   2 7637.05 778.770  -2
   6  -1   5 7637.05 778.770   1
  -6   1   3 783.636 626.736  -2
   6  -1   6 783.636 626.736   1
  -6   1   4 873.880 904.904  -2
   6  -1   7 873.880 904.904   1
   6   0  -4 569.627 666.122   1
   6   0  -3 727.885 548.646   1
   6   0  -2 2172.06 591.698   1
   6   0  -1 1370.75 486.358   1
   6   0   0 2322.79 629.296   1
   6   0   1 940.319 612.025   1
   6   0   2 803.230 864.054   1
   6   0   3 15916.8 1089.91   1
   6   0   4 1035.15 563.600   1
   6   0   5 571.257 541.145   1
   6   0   6 388.420 800.883   1
   6   0   7 378.296 482.948   1
  -6  -1  -8 1239.84 838.869  -2
   6   1  -4 1239.84 838.869   1
  -6  -1  -7 1449.04 924.718  -2
   6   1  -3 1449.04 924.718   1
  -6  -1  -6 4292.45 779.780  -2
   6   1  -2 4292.45 779.780   1
  -6  -1  -5 2401.57 780.950  -2
   6   1  -1 2401.57 780.950   1
  -6  -1  -4 7651.46 808.645  -2
   6   1   0 7651.46 808.645   1
  -6  -1  -3 4686.40 1198.73  -2
   6   1   1 4686.40 1198.73   1
  -6  -1  -2 3516.24 1072.97  -2
   6   1   2 3516.24 1072.97   1
  -6  -1  -1 2844.24 1066.47  -2
   6   1   3 2844.24 1066.47   1
  -6  -1   0 8074.71 1174.44  -2
   6   1   4 8074.71 1174.44   1
  -6  -1   1 3502.32 747.440  -2
   6   1   5 3502.32 747.440   1
  -6  -1   2 4023.77 755.424  -2
   6   1   6 4023.77 755.424   1
  -6  -1   3 1108.15 658.829  -2
   6   1   7 1108.15 658.829   1
  -6  -1   4 983.969 871.645  -2
   6   1   8 983.969 871.645   1
   6   2  -4 1003.98 676.475   1
   6   2  -3 709.546 719.728   1
   6   2  -2 1074.22 811.971   1
   6   2  -1 414.155 788.550   1
   6   2   0 361.890 605.005   1
   6   2   1 232.187 570.853   1
   6   2   2 596.134 854.445   1
   6   2   4 4633.85 848.919   1
   6   2   5 1408.97 563.700   1
   6   2   6-163.257 550.399   1
   6   2   7 335.062 568.442   1
   6   2   8 442.118 493.255   1
   6   3  -3 416.818 681.032   1
  -6  -3  -7 3616.81 984.568  -2
   6   3  -2 3616.81 984.568   1
  -6  -3  -6 8671.47 1074.06  -2
   6   3  -1 8671.47 1074.06   1
  -6  -3  -5 12148.2 1139.93  -2
   6   3   0 12148.2 1139.93   1
  -6  -3  -4 1071.54 680.538  -2
   6   3   1 1071.54 680.538   1
  -6  -3  -3 1158.44 1014.80  -2
   6   3   2 1158.44 1014.80   1
  -6  -3  -2 592.604 966.310  -2
   6   3   3 592.604 966.310   1
  -6  -3  -1 1130.61 1011.62  -2
   6   3   4 1130.61 1011.62   1
  -6  -3   0 12103.4 699.596  -2
   6   3   5 12103.4 699.596   1
  -6  -3   1 6330.23 1073.19  -2
   6   3   6 6330.23 1073.19   1
  -6  -3   2 2264.07 694.984  -2
   6   3   7 2264.07 694.984   1
   6   3   8 127.729 689.110   1
  -6  -3   3-98.8263 881.457  -2
   6   3   8-98.8263 881.457   1
   6   4  -2 475.043 738.585   1
  -6  -4  -7 2906.56 973.297  -2
   6   4  -1 2906.56 973.297   1
  -6  -4  -6 1424.76 667.483  -2
   6   4   0 1424.76 667.483   1
  -6  -4  -5 1150.52 697.688  -2
   6   4   1 1150.52 697.688   1
  -6  -4  -4 4814.56 1018.24  -2
   6   4   2 4814.56 1018.24   1
  -6  -4  -3-111.959 957.305  -2
   6   4   3-111.959 957.305   1
  -6  -4  -2 5382.65 836.606  -2
   6   4   4 5382.65 836.606   1
  -6  -4  -1 1545.06 804.840  -2
   6   4   5 1545.06 804.840   1
   6   4   6 705.525 841.997   1
  -6  -4   0 2356.68 1430.53  -2
   6   4   6 2356.68 1430.53   1
   6   4   7 186.329 465.494   1
   6   4   8-218.588 552.564   1
   6   5  -1 635.812 607.250   1
   6   5   0 1869.98 765.754   1
  -6  -5  -5 6045.86 965.134  -2
   6   5   1 6045.86 965.134   1
  -6  -5  -4 1634.85 991.499  -2
   6   5   2 1634.85 991.499   1
  -6  -5  -3 511.374 677.401  -2
   6   5   3 511.374 677.401   1
  -6  -5  -2 463.749 779.573  -2
   6   5   4 463.749 779.573   1
  -6  -5  -1 5984.55 826.788  -2
   6   5   5 5984.55 826.788   1
   6   5   6 6.68408 607.027   1
   6   5   7 748.725 583.514   1
   6   5   8 27.5181 540.012   1
  -6  -6  -7 1342.29 802.669  -2
   6   6   0 1342.29 802.669   1
  -6  -6  -6 1000.67 867.079  -2
   6   6   1 1000.67 867.079   1
  -6  -6  -5 2112.61 931.739  -2
   6   6   2 2112.61 931.739   1
  -6  -6  -4 12.9384 928.927  -2
   6   6   3 12.9384 928.927   1
  -6  -6  -3 138.178 930.687  -2
   6   6   4 138.178 930.687   1
  -6  -6  -2 2272.11 778.777  -2
   6   6   5 2272.11 778.777   1
  -6  -6  -1 1625.21 725.561  -2
   6   6   6 1625.21 725.561   1
  -6  -6   0 2317.58 692.389  -2
   6   6   7 2317.58 692.389   1
   6   7   1 4386.24 644.528   1
   6   7   2 523.154 653.344   1
   6   7   3 407.916 652.802   1
   6   7   4 1043.14 686.701   1
   6   7   5 777.168 657.029   1
   6   7   6 659.090 640.081   1
   0  -1  11-67.8453 491.350   2
   0  -1  10 2081.36 482.506   2
   0  -1   9 6580.15 566.237   2
   0  -1   8 1780.59 571.167   2
   0  -1   7 2848.54 508.140   2
   0  -1   6 1951.39 445.130   2
   0   1  -5 16677.5 1540.06   2
   0   1  -4 48023.5 1290.48   2
   0   1  -3 6791.18 983.197   2
   0   1  -2 113261. 1796.46   2
   0   1  -1 10267.5 709.739   2
   0  -1   0 22886.6 628.367   2
   0  -1  -1 33498.1 808.552   2
   0  -1  -2 474.530 831.584   2
   0  -1  -3 57788.6 1594.18   2
   0  -1  -4 19212.4 1386.76   2
   0  -1  -5 30275.2 1711.68   2
   0   1   6 671.024 347.568   2
   0   1   7 610.704 389.473   2
   0   1   8 100.191 439.713   2
   0   1   9 165.985 481.325   2
   0  -1 -10 461.838 633.312   2
   0   1  11 326.238 553.290   2
   0  -2  10 636.403 731.534   2
   0  -2   9 99.2956 828.818   2
   0   2  -1 58902.0 1471.61   2
   0  -2   0 473358. 3378.45   2
   0  -2  -1 340249. 2903.10   2
   0  -2  -2 89816.3 1767.51   2
   0  -2 -11 307.134 810.360   2
   0  -3  10 908.423 395.735   2
   0  -3   9 6040.22 512.200   2
   0  -3   8 3818.08 621.194   2
   0  -3   7 2920.41 603.993   2
   0  -3   6 8427.91 578.199   2
   0  -3   5 2348.61 443.362   2
   0   3  -4 3832.37 562.327   2
   0   3  -3 71795.1 2207.34   2
   0   3  -2 4267.02 988.825   2
   0   3  -1 65682.7 1766.98   2
   0  -3   0 25429.5 1325.55   2
   0  -3  -1 74045.6 1864.43   2
   0  -3  -2 313034. 3524.59   2
   0  -3  -3 24285.9 1445.16   2
   0  -3  -4 70796.2 2190.50   2
   0  -3  -5 11964.0 1496.78   2
   0   3   6 26027.1 586.650   2
   0   3   7 26470.5 664.804   2
   0   3   8 20362.6 744.528   2
   0   3   9 4084.52 636.537   2
   0  -3 -10 8704.54 1040.96   2
   0  -3 -11-407.028 815.774   2
   0  -3 -12 1566.09 679.292   2
   0  -4   9 2215.17 422.743   2
   0  -4   8 6137.59 616.124   2
   0  -4   7 7385.72 639.400   2
   0  -4   6 16959.1 728.196   2
   0  -4   5 9292.90 548.549   2
   0  -4   4 62833.8 817.506   2
   0   4  -3 16252.1 729.436   2
   0   4  -2 8811.27 1284.85   2
   0   4  -1 34682.4 1652.37   2
   0  -4   0 43328.5 1811.28   2
   0  -4  -1 120248. 2634.20   2
   0  -4  -2 29666.9 1663.67   2
   0  -4  -3 2445.83 1250.90   2
   0  -4  -4 10092.8 1451.06   2
   0  -4  -5 193.773 590.005   2
   0  -4  -6 2949.03 680.878   2
   0  -4  -7 4802.94 524.291   2
   0  -4  -8 1688.74 578.002   2
   0  -4  -9 19899.1 1146.48   2
   0  -4 -10 125.889 840.575   2
   0  -4 -11 2.79237 759.972   2
   0  -5   8 2680.42 729.642   2
   0  -5   7 11550.6 670.871   2
   0  -5   6 300.556 574.923   2
   0  -5   5 414.937 541.130   2
   0   5  -4 10915.2 812.707   2
   0   5  -3 5425.48 662.288   2
   0   5  -2 1162.03 550.053   2
   0   5  -1 2026.28 565.280   2
   0  -5  -1 28533.9 1807.28   2
   0  -5  -4 1200.93 606.751   2
   0  -5  -5 3684.71 724.574   2
   0  -5  -6 11208.2 754.483   2
   0  -5  -7 4930.15 554.977   2
   0  -5  -8 8052.35 675.774   2
   0  -5  -9 308.659 609.412   2
   0  -5 -10 1554.19 885.534   2
   0  -5 -11 902.059 748.811   2
   0  -6   8 626.679 732.699   2
   0  -6   7 366.834 487.171   2
   0  -6   6 954.098 819.495   2
   0  -6   5 914.373 854.679   2
   0  -6   4 6025.50 886.172   2
   0   6  -3 303.654 661.329   2
   0   6  -2 14335.0 814.877   2
   0   6  -1 11732.9 786.382   2
   0   6   0 13917.0 675.284   2
   0  -6  -1 24137.1 600.893   2
   0  -6  -2 5840.44 629.912   2
   0  -6  -3 30582.3 686.843   2
   0  -6  -4 4704.37 526.017   2
   0  -6  -5 6230.34 592.398   2
   0  -6  -6 3507.36 601.847   2
   0  -6  -7-247.766 588.909   2
   0  -6  -8 53.3730 600.219   2
   0  -6  -9 220.736 597.872   2
   0  -6 -10 6743.14 588.112   2
   0  -6 -11 609.032 679.026   2
   0  -8   5 362.990 417.467   2
   0  -8   4-93.7340 753.553   2
   0  -8   3-126.129 822.896   2
   0  -8   2 8076.25 948.293   2
   0  -8   1 285.792 808.149   2
   0  -8   0 2444.03 840.767   2
   0  -8  -1 5928.98 614.844   2
   0  -8  -2 1019.78 565.762   2
   0  -8  -3 28006.9 874.951   2
   0  -8  -4 3525.98 912.453   2
   0  -8  -5 7013.18 976.955   2
   0  -8  -6 2349.12 867.903   2
   0  -8  -7 574.965 620.448   2
   0  -8  -8 2149.29 592.585   2
   0  -8  -9 2355.87 528.360   2
   0  -8 -10 2041.19 685.715   2
   0 -10   1 1716.20 456.198   2
   0 -10   0 1129.78 703.564   2
   0 -10  -1 246.641 765.754   2
   0 -10  -2 988.424 757.431   2
   0 -10  -3 44.3375 765.414   2
   0 -10  -4 789.451 729.298   2
   0 -10  -5-90.9125 706.037   2
   0 -10  -6 797.904 499.511   2
   0 -10  -7 80.2223 465.885   2
   1  -9  -8 1041.55 649.145   2
   1  -9  -7 283.414 709.328   2
   1  -9  -6 12.7275 748.844   2
   1  -9  -5 170.126 584.700   2
   1  -9  -4 188.170 754.735   2
   1  -9  -3 7536.95 943.937   2
   1  -9   0 644.386 543.172   2
   1  -9   1 556.746 533.391   2
   1  -9   2 2472.77 514.327   2
   1  -9   3-205.021 456.243   2
   1  -7 -10 316.615 448.885   2
   1  -7  -9 1067.48 533.028   2
   1  -7  -8 1776.00 597.881   2
   1  -7  -7 10334.3 720.219   2
   1  -7  -6 157.717 605.247   2
   1  -7  -5 5319.78 941.503   2
   1  -7  -4 2190.81 842.184   2
   1  -7  -3 1615.74 789.593   2
   1  -7  -2 56300.3 1278.84   2
  -1   7   1 2213.55 680.440   2
  -1   7   0 314.926 687.094   2
   1  -7   1 365.853 592.107   2
   1  -7   2 44.9042 558.159   2
   1  -7   3 3596.02 670.418   2
   1  -7   4 1870.54 615.238   2
   1  -7   5 605.319 571.291   2
   1  -7   6-233.907 495.749   2
   1  -6 -10 202.730 485.849   2
   1  -6  -9 336.028 575.340   2
   1  -6  -8 2245.50 616.727   2
   1  -6  -7 1718.88 643.071   2
   1  -6  -6 7997.08 691.400   2
   1  -6  -5 3869.10 735.925   2
   1  -6  -4 561.410 755.878   2
   1  -6  -3 371.483 709.677   2
   1  -6  -2 47064.7 1094.24   2
  -1   6   1 9210.55 701.925   2
  -1   6   0 153.850 1250.81   2
  -1   6  -1 478.979 669.290   2
  -1   6  -2 576.190 714.056   2
   1  -6   3 7330.35 988.827   2
   1  -6   4 488.994 603.787   2
   1  -6   5 705.471 456.271   2
   1  -6   6 306.703 457.578   2
   1  -6   7 1081.69 494.452   2
   1  -5 -11 1210.72 666.771   2
   1  -5 -10 748.028 536.124   2
   1  -5  -9 876.587 603.388   2
   1  -5  -8 701.090 619.092   2
   1  -5  -7 8109.99 529.709   2
  -1   5   6 3588.88 692.274   2
  -1   5  -2 6897.24 682.455   2
  -1   5  -3 138.905 641.112   2
  -1   5  -4 4620.46 732.805   2
   1  -5   5 759.615 576.983   2
   1  -5   6 2122.95 482.358   2
   1  -5   7 179.528 443.210   2
   1  -5   8 5.18180 515.732   2
   1  -4 -11 1465.22 703.196   2
   1  -4 -10 813.746 842.021   2
   1  -4  -9 2130.17 605.926   2
   1  -4  -8 435.304 876.579   2
   1  -4  -7 1754.12 724.285   2
   1  -4  -6 2233.65 477.610   2
   1  -4  -5 9.55752 411.132   2
   1  -4  -4 636.887 1185.52   2
   1  -4  -3-99.1776 1145.35   2
   1  -4  -2 117802. 2796.69   2
   1  -4  -1 80912.8 2374.70   2
   1  -4   0 36130.9 1787.54   2
  -1   4  -1 5588.05 1195.43   2
  -1   4  -2 12360.3 1404.80   2
  -1   4  -3 675.707 575.928   2
  -1   4  -4 5196.13 713.164   2
   1  -4   5 6950.36 608.938   2
   1  -4   6 3152.36 612.296   2
   1  -4   7 183.397 601.271   2
   1  -4   8 4866.11 619.358   2
   1  -4   9 355.906 409.659   2
   1  -2 -11 2192.59 744.692   2
   1  -2 -10 265.585 853.782   2
   1  -2  -9 18208.9 1165.52   2
  -1   2   8 3157.77 614.659   2
  -1   2   7 3028.81 525.715   2
  -1   2   6 39489.5 711.338   2
   1  -2  -5 11924.7 1470.32   2
   1  -2  -4 1496.86 1062.95   2
  -1   2   3 1452.86 421.583   2
   1  -2  -2 1317.59 868.704   2
   1  -2  -1 414514. 3368.09   2
   1  -2   0 12438.4 959.219   2
  -1   2  -1 25186.2 854.287   2
  -1   2  -2 23333.0 1334.37   2
  -1   2  -3 276.935 1067.92   2
  -1   2  -4 9868.18 1345.77   2
   1  -2   5 766.050 426.184   2
   1  -2   6 983.803 447.090   2
   1  -2   7 8840.64 603.445   2
   1  -2   8 2437.60 594.280   2
   1  -2   9 116.416 479.709   2
   1  -2  10-31.2653 434.168   2
   1  -2  11 1022.22 635.877   2
   1   0 -11 11.8790 708.603   2
   1   0 -10 251.416 847.736   2
  -1   0   9 349.919 489.240   2
  -1   0   8 18.2056 483.988   2
  -1   0   7 1199.95 424.926   2
  -1   0   6 115.494 353.310   2
   1   0  -5 1832.18 1173.32   2
   1   0  -4 19423.2 1374.33   2
   1   0  -3 1250.42 926.412   2
   1   0  -2 70599.9 1468.95   2
  -1   0   1 31883.0 639.734   2
  -1   0   0 161907. 1074.66   2
  -1   0  -1-69.2605 586.854   2
  -1   0  -2 23434.3 577.758   2
  -1   0  -3 25380.1 870.783   2
  -1   0  -4-132.343 678.536   2
  -1   0  -5-1.11259 1059.35   2
   1   0   6 3192.33 428.544   2
   1   0   7 13600.4 479.549   2
   1   0   8 42286.6 730.178   2
   1   0   9 437.731 469.377   2
   1   0  10 74.6784 484.702   2
   1   0  11 4505.23 581.564   2
  -1  -1  10 3894.15 582.427   2
  -1  -1   9 3101.64 614.297   2
  -1  -1   8 756.932 616.657   2
  -1  -1   7 41742.4 823.771   2
  -1  -1   6 678.979 447.210   2
  -1  -1   5 8511.09 460.390   2
   1   1  -4 288683. 4037.44   2
   1   1  -3 358.198 895.233   2
   1   1  -2 190570. 1731.91   2
   1   1  -1 137859. 1049.65   2
  -1  -1   0 4397.88 752.656   2
  -1  -1  -1 775604. 2610.98   2
  -1  -1  -5 5195.97 1310.03   2
  -1  -1  -6 1928.57 1182.84   2
   1   1   7 663.379 430.987   2
   1   1   8 1421.60 417.263   2
   1   1   9 11773.3 565.924   2
   1   1  10 805.661 617.340   2
  -1  -1 -11 636.067 452.498   2
  -1  -2  10 422.306 499.634   2
  -1  -2   9 630.125 464.756   2
  -1  -2   8 2613.67 611.747   2
  -1  -2   7-164.541 461.696   2
   1   2  -6 1270.95 420.582   2
  -1  -2   5 197.036 396.153   2
   1   2  -4 459.700 1146.42   2
   1   2  -3 7227.45 857.132   2
   1   2  -2 2408.00 667.524   2
   1   2  -1 13583.7 513.066   2
  -1  -2   0 4281.92 782.072   2
  -1  -2  -1 52368.6 866.123   2
  -1  -2  -2 1644.86 497.781   2
  -1  -2  -3 7026.14 1016.06   2
  -1  -2  -4 456.272 966.718   2
  -1  -2  -5-181.363 1171.54   2
  -1  -2  -6 1156.31 1232.18   2
   1   2   7 2017.93 370.220   2
   1   2   8 35886.0 631.244   2
   1   2   9 8888.47 666.092   2
  -1  -2 -10 159.961 488.726   2
  -1  -2 -11 1065.87 445.732   2
  -1  -2 -12-249.866 647.342   2
   1   3 -10 945.339 669.431   2
  -1  -3   9 1236.94 433.238   2
  -1  -3   8 1202.79 570.531   2
  -1  -3   7 564.405 466.656   2
  -1  -3   6 451.344 501.655   2
  -1  -3   5 150.756 433.326   2
  -1  -3   4 19175.2 824.474   2
   1   3  -3 4123.48 946.949   2
   1   3  -2 2260.58 821.117   2
   1   3  -1 70145.8 941.234   2
  -1  -3   0 487.740 861.976   2
  -1  -3  -1 30298.3 839.719   2
  -1  -3  -2 18854.5 676.507   2
  -1  -3  -3 3694.95 1030.95   2
  -1  -3  -4 4296.71 1077.59   2
  -1  -3  -5 20321.9 1571.87   2
  -1  -3  -6 1852.90 444.881   2
  -1  -3  -7 734.800 376.709   2
  -1  -3  -8 4625.75 451.306   2
  -1  -3  -9 17230.3 599.070   2
   1   3  10 7913.67 529.281   2
  -1  -3 -11 82.1301 552.697   2
  -1  -3 -12 1361.31 685.713   2
  -1  -4   9 333.064 472.731   2
  -1  -4   8 2590.14 792.232   2
  -1  -4   7 5149.13 661.609   2
  -1  -4   6 2300.64 820.944   2
  -1  -4   5 216.791 649.452   2
  -1  -4   4 671.189 682.313   2
   1   4  -3 9365.98 625.378   2
   1   4  -2 1476.93 949.075   2
   1   4  -1 1300.56 933.733   2
  -1  -4  -1 1806.20 641.781   2
  -1  -4  -2 54510.5 1274.52   2
  -1  -4  -3 11883.7 1308.80   2
  -1  -4  -5 29624.7 1757.07   2
  -1  -4  -6 3481.39 583.498   2
  -1  -4  -7 1052.93 381.901   2
  -1  -4  -8 1623.01 545.578   2
  -1  -4  -9 33839.3 872.528   2
  -1  -4 -10 609.870 601.915   2
  -1  -4 -11-147.261 771.433   2
  -1  -4 -12 498.812 674.181   2
  -1  -5   8 1913.71 704.510   2
  -1  -5   7 5365.24 634.305   2
  -1  -5   6 4346.52 860.711   2
  -1  -5   5 16411.2 748.736   2
  -1  -5   4 420.655 743.720   2
  -1  -5   3 12801.4 813.924   2
   1   5  -2 269.145 517.262   2
   1   5  -1 2299.09 1005.82   2
  -1  -5   0 24442.3 1677.70   2
  -1  -5  -1 20472.6 974.729   2
  -1  -5  -2 2665.69 1199.75   2
  -1  -5  -3 1089.48 1206.64   2
  -1  -5  -4 14539.7 551.071   2
  -1  -5  -5 28325.2 522.328   2
  -1  -5  -6 49.2186 373.593   2
  -1  -5  -7 1479.87 420.178   2
  -1  -5  -8 270.996 457.322   2
  -1  -5  -9 1940.26 610.265   2
  -1  -5 -10 11566.1 986.909   2
  -1  -5 -11 1774.97 780.333   2
  -1  -7   6 560.751 606.841   2
  -1  -7   5 929.095 554.428   2
  -1  -7   4 87.0376 628.180   2
  -1  -7   3 1643.04 797.547   2
  -1  -7   2 59.2508 718.444   2
  -1  -7   1 7685.06 850.349   2
  -1  -7   0 1084.99 478.857   2
  -1  -7  -1 4092.81 507.620   2
  -1  -7  -2 2010.81 501.853   2
  -1  -7  -3 1126.51 682.311   2
  -1  -7  -4 356.705 649.619   2
  -1  -7  -5 1115.26 504.721   2
  -1  -7  -6 1793.18 597.730   2
  -1  -7  -7 287.937 590.581   2
  -1  -7  -8 179.548 568.374   2
  -1  -7  -9 936.199 584.037   2
  -1  -7 -10 576.323 780.095   2
  -1  -7 -11 3296.58 706.114   2
  -1  -9   3 1832.62 562.694   2
  -1  -9   2 1903.87 595.161   2
  -1  -9   1 3632.30 827.654   2
  -1  -9   0 540.909 564.796   2
  -1  -9  -1 308.829 547.430   2
  -1  -9  -2 7459.55 642.056   2
  -1  -9  -3 976.471 582.869   2
  -1  -9  -4 1398.93 592.280   2
  -1  -9  -5 898.358 603.999   2
  -1  -9  -6 1869.17 898.525   2
  -1  -9  -7 1035.88 821.960   2
  -1  -9  -8-33.6150 756.401   2
  -1  -9  -9-69.1726 674.773   2
  -1 -10  -8 417.040 626.235   2
   2  -8  -8 182.048 659.000   2
   2  -8  -7 799.264 736.954   2
   2  -8  -6 477.691 797.392   2
   2  -8  -5 0.24241 801.730   2
   2  -8  -4 161.980 778.567   2
  -2   8   0 504.361 739.331   2
  -2   8  -1-123.766 767.349   2
  -2   8  -2 246.110 587.064   2
   2  -8   3 524.014 499.417   2
   2  -8   4 687.494 471.379   2
   2  -7  -9 58.0045 677.650   2
   2  -7  -8 529.651 774.324   2
   2  -7  -7 1911.24 581.331   2
   2  -7  -6 1040.65 884.829   2
   2  -7  -5 151.924 825.629   2
   2  -7  -4 1246.31 825.871   2
   2  -7  -3 2859.64 814.903   2
   2  -7  -1 1717.41 550.834   2
  -2   7   0 668.552 768.096   2
   2  -7   1-18.0800 558.990   2
   2  -7   2 934.122 617.109   2
   2  -7   3 778.566 582.219   2
   2  -7   4 401.540 467.438   2
   2  -7   5 1902.03 427.934   2
   2  -7   6 4071.23 481.454   2
   2  -6  -9 863.785 492.030   2
   2  -6  -8 11.2371 540.244   2
   2  -6  -7 575.894 851.177   2
  -2   6  -6 350.478 713.249   2
   2  -6   7 981.272 375.063   2
   2  -5 -10-518.449 646.480   2
   2  -5  -9 2508.30 553.687   2
  -2   5   8 175.993 537.944   2
  -2   5   7-241.017 539.455   2
  -2   5   6 5738.76 607.455   2
   2  -5  -5 523.643 508.991   2
   2  -5  -4 357.474 473.326   2
   2  -5  -3 57.3825 608.392   2
   2  -5  -2 6912.60 631.874   2
   2  -5  -1 13309.7 607.659   2
   2  -5   0 1609.99 400.196   2
  -2   5  -1 297.825 450.512   2
  -2   5  -2 2894.62 453.705   2
  -2   5  -3 849.322 513.338   2
   2  -5   4 297.760 534.595   2
   2  -5   5 261.501 549.695   2
   2  -5   6 5496.14 522.875   2
   2  -5   7 4089.16 462.753   2
   2  -5   8 379.576 480.157   2
   2  -3 -10 243.735 713.348   2
   2  -3  -9 11466.2 955.236   2
  -2   3   8 779.928 542.677   2
  -2   3   7 4735.97 607.350   2
   2  -3  -6 12380.7 775.529   2
   2  -3  -5 4021.11 600.785   2
  -2   3   4 8926.77 642.008   2
   2  -3  -3 756.480 527.210   2
   2  -3  -2 1196.37 998.104   2
   2  -3  -1 31905.6 1087.67   2
   2  -3   0 43944.2 1187.48   2
  -2   3  -1 9975.07 1227.81   2
  -2   3  -2 17617.5 1545.76   2
  -2   3  -3 4139.16 540.897   2
  -2   3  -4 1518.43 357.078   2
  -2   3  -5 1425.96 460.215   2
  -2   3  -6 154.229 421.053   2
   2  -3   7 27333.0 833.529   2
   2  -3   8 1902.05 594.530   2
   2  -3   9 229.800 528.153   2
   2  -3  10 86.0665 458.372   2
   2  -1 -10 52.1296 729.373   2
   2  -1  -9 171.965 828.600   2
  -2   1   8 4575.27 648.856   2
   2  -1  -7 1226.38 809.146   2
   2  -1  -6 266.516 458.427   2
  -2   1   5 2599.04 372.010   2
   2  -1  -4 5965.19 1111.25   2
   2  -1  -3 5722.67 690.510   2
  -2   1   2 470.291 555.084   2
  -2   1   1 14483.7 467.276   2
   2  -1   0 6054.82 412.165   2
  -2   1  -1 668.398 781.093   2
  -2   1  -2-287.635 905.291   2
  -2   1  -3 64149.9 2058.27   2
  -2   1  -4 4678.56 820.119   2
  -2   1  -5 1690.50 829.230   2
   2  -1   6 217.619 418.766   2
   2  -1   7 11635.4 574.905   2
   2  -1   8 56722.7 990.559   2
   2  -1   9 1123.34 572.908   2
   2  -1  10 1795.90 543.129   2
   2  -1  11 2293.78 734.486   2
   2   0 -10 514.666 695.639   2
   2   0  -9 3958.50 859.298   2
   2   0  -8-188.950 864.335   2
  -2   0   7 477.874 481.735   2
  -2   0   6 1475.24 313.285   2
  -2   0   5 4.66155 293.029   2
  -2   0   4 9831.59 825.244   2
  -2   0   3 178.033 619.445   2
   2   0  -2 5171.53 792.491   2
   2   0  -1 39271.1 865.643   2
  -2   0   0 19059.5 662.087   2
  -2   0  -2 3653.70 920.490   2
  -2   0  -3 40066.6 1009.29   2
  -2   0  -4 13689.2 690.180   2
  -2   0  -5 947.064 660.727   2
   2   0   6 10663.6 472.837   2
   2   0   7 1183.04 447.838   2
   2   0   8 7583.73 620.778   2
   2   0   9 4711.91 599.931   2
   2   0  10 499.892 562.361   2
   2   0  11-274.323 725.283   2
  -2  -1  10 298.226 495.937   2
   2   1  -9 1080.72 824.535   2
  -2  -1   8-104.356 622.562   2
  -2  -1   7 511.644 397.896   2
  -2  -1   6 474.384 352.811   2
  -2  -1   5 15012.3 380.232   2
  -2  -1   4 2044.86 394.256   2
  -2  -1   3 9580.68 803.756   2
   2   1  -2 1098.07 578.012   2
  -2  -1   1 56455.8 895.189   2
  -2  -1   0 112334. 2085.66   2
  -2  -1  -1-288.462 532.233   2
  -2  -1  -2 64236.1 738.607   2
  -2  -1  -3 102255. 1326.59   2
  -2  -1  -4 49095.8 1141.35   2
  -2  -1  -5 9790.37 797.261   2
  -2  -1  -6 6.62493 459.317   2
   2   1   7 501.253 423.290   2
   2   1   8 33892.3 708.952   2
   2   1   9 45008.7 883.718   2
   2   1  10 71.3746 815.183   2
  -2  -1 -11 1495.36 560.868   2
   2   2  -9 1591.71 810.810   2
  -2  -2   8 386.264 474.994   2
  -2  -2   7-273.231 473.518   2
  -2  -2   6 332.979 423.460   2
  -2  -2   5 18381.2 477.543   2
   2   2  -4 474.871 459.876   2
   2   2  -3 2718.27 741.687   2
  -2  -2   2-103.823 963.613   2
  -2  -2   1 16922.1 1190.89   2
  -2  -2   0 23337.0 885.453   2
  -2  -2  -1 2810.68 396.976   2
  -2  -2  -2 38576.6 1010.55   2
  -2  -2  -3 1035.83 548.189   2
  -2  -2  -4 1539.25 891.002   2
  -2  -2  -5 54451.3 1868.42   2
  -2  -2  -6 6860.60 1261.52   2
   2   2   7 53.9706 548.343   2
   2   2   8 4450.97 405.804   2
   2   2   9 1794.41 548.144   2
  -2  -2 -10 5513.16 524.799   2
  -2  -2 -11 132.441 545.455   2
  -2  -2 -12 204.411 728.567   2
   2   3  -9 871.200 734.723   2
  -2  -3   8-55.2936 454.320   2
  -2  -3   7 679.058 584.599   2
  -2  -3   6 628.185 580.399   2
  -2  -3   5 1720.56 1024.43   2
  -2  -3   4 8339.91 719.835   2
  -2  -3   0 15707.9 1074.08   2
  -2  -3  -7 711.426 1194.55   2
  -2  -3  -8-46.1254 1547.02   2
  -2  -3  -9 23330.4 798.530   2
  -2  -3 -10 5998.30 663.383   2
  -2  -3 -11 301.142 827.044   2
  -2  -3 -12 615.365 698.318   2
  -2  -4   8 389.211 803.341   2
  -2  -4   7 525.082 562.185   2
  -2  -4   6 532.491 583.731   2
  -2  -4   5 27802.5 1041.51   2
   2   4  -4 19305.7 988.500   2
  -2  -4   3 3439.35 928.864   2
  -2  -4   2 582.718 718.019   2
  -2  -4   1 2631.54 1182.14   2
  -2  -4   0 62070.2 1343.23   2
  -2  -4  -1 63072.8 1330.68   2
  -2  -4  -2 10614.6 785.153   2
  -2  -4  -3 2054.89 645.369   2
  -2  -4  -4 52217.5 1941.29   2
  -2  -4  -5 39557.4 915.463   2
  -2  -4  -6 57.1811 351.363   2
  -2  -4  -7 6843.00 534.992   2
  -2  -4  -8 2598.87 542.065   2
  -2  -4  -9 16297.3 744.741   2
  -2  -4 -10 4315.63 634.972   2
  -2  -4 -11 120.609 533.773   2
  -2  -4 -12 34.2294 675.245   2
  -2  -6   7 1517.79 734.257   2
  -2  -6   6-94.2503 910.028   2
  -2  -6   5 1150.55 1025.60   2
  -2  -6   4 21616.0 1363.54   2
  -2  -6   3 6157.37 1229.16   2
  -2  -6   2 25.5822 999.197   2
  -2  -6   1 3681.90 707.287   2
  -2  -6   0 4820.85 515.207   2
  -2  -6  -1 10800.1 825.028   2
  -2  -6  -2 18215.1 552.921   2
  -2  -6  -3 1982.21 438.662   2
  -2  -6  -4 364.850 442.155   2
  -2  -6  -5 929.002 346.173   2
  -2  -6  -6 2907.17 445.991   2
  -2  -6  -7 767.645 456.988   2
  -2  -6  -8 1085.78 600.141   2
  -2  -6  -9 331.279 586.245   2
  -2  -6 -10 621.714 560.172   2
  -2  -6 -11 443.060 492.936   2
  -2  -7 -11 4455.03 720.493   2
  -2  -8   4 540.057 856.722   2
  -2  -8   3 7555.33 1066.94   2
  -2  -8   2 558.990 1156.91   2
  -2  -8   1 951.406 974.162   2
  -2  -8   0 174.281 640.010   2
  -2  -8  -1 805.914 504.852   2
  -2  -8  -2 9552.46 768.450   2
  -2  -8  -3 1009.09 815.251   2
  -2  -8  -4 4137.50 940.866   2
  -2  -8  -5 590.619 864.687   2
  -2  -8  -6 1367.01 589.788   2
  -2  -8  -7 451.090 560.255   2
  -2  -8  -8 78.7385 555.605   2
  -2  -8  -9 792.920 525.095   2
  -2  -8 -10 439.215 662.344   2
  -2  -9   3 555.613 825.408   2
  -2  -9  -9-213.557 451.430   2
  -2 -10   1 445.616 802.815   2
  -2 -10  -3 268.984 770.580   2
  -2 -10  -4 95.0212 802.113   2
  -2 -10  -6 818.369 727.537   2
  -2 -10  -7 126.979 507.485   2
  -2 -10  -8 791.154 1480.43   2
   3  -8  -5 108.612 672.876   2
  -3   8   4-264.993 742.297   2
  -3   8   3 508.271 738.468   2
  -3   8   0 123.040 574.930   2
  -3   8  -1 1537.92 551.328   2
  -3   8  -2 771.853 505.771   2
   3  -6  -8 1635.20 748.890   2
   3  -6  -7 981.340 807.794   2
   3  -6  -6 3974.21 897.809   2
   3  -6  -5 2931.10 865.832   2
   3  -6  -4 464.832 797.740   2
   3  -6  -3 6363.36 861.242   2
   3  -6  -2 4033.09 891.841   2
  -3   6   1 1905.28 595.470   2
   3  -6   0 752.006 824.349   2
   3  -6   1 3566.32 866.845   2
  -3   6  -2 4249.19 520.762   2
  -3   6  -3 190.911 482.327   2
  -3   6  -4 90.1764 459.837   2
   3  -6   5 324.011 531.317   2
   3  -6   6 1271.55 500.241   2
  -3   4   9 222.269 707.967   2
  -3   4   8 388.083 718.594   2
  -3   4   7-9.05440 821.754   2
  -3   4   6 942.917 821.877   2
  -3   4   5 942.798 869.245   2
  -3   4   4 1500.67 567.265   2
  -3   4   3 2397.62 550.642   2
  -3   4   2 328.497 501.200   2
  -3   4   1 8.04109 490.631   2
  -3   4   0 123.218 512.771   2
  -3   4  -1 1972.50 459.347   2
  -3   4  -2 9351.16 571.876   2
  -3   4  -3 3001.55 570.032   2
  -3   4  -4 391.519 443.229   2
  -3   4  -5 2070.86 475.432   2
   3  -4   6 468.263 498.121   2
   3  -4   7 6168.39 945.754   2
   3  -4   8 2340.45 805.566   2
   3  -4   9 664.837 644.700   2
  -3   2   9 86.6492 669.059   2
  -3   2   8 6085.83 876.747   2
  -3   2   7 3140.68 887.885   2
  -3   2   6 1067.99 902.135   2
  -3   2   5 128.490 811.423   2
  -3   2   4 2868.93 563.382   2
  -3   2   3 447.968 477.204   2
  -3   2   2 6154.62 409.574   2
  -3   2   1 7671.71 736.097   2
  -3   2   0 9323.38 528.017   2
  -3   2  -1 3611.15 374.588   2
  -3   2  -2 78.9114 317.063   2
  -3   2  -3 46216.4 613.902   2
  -3   2  -4-7.01455 456.772   2
  -3   2  -5 846.692 465.030   2
  -3   2  -6 937.016 848.717   2
   3  -2   7 248.709 893.404   2
   3  -2   8 7444.92 1008.17   2
   3  -2   9 1578.02 843.580   2
   3  -2  10 750.228 730.155   2
  -3   1   9 464.307 704.301   2
  -3   1   8 205.772 866.072   2
  -3   1   7 928.226 909.101   2
  -3   1   6 25652.4 842.012   2
  -3   1   5 6999.64 637.707   2
  -3   1   4 528.385 510.218   2
  -3   1   3 183.998 439.262   2
  -3   1  -1 1276.51 819.622   2
  -3   1  -2 1504.02 999.899   2
  -3   1  -3 794.265 1118.13   2
  -3   1  -4-170.249 634.166   2
  -3   1  -5 532.767 687.680   2
  -3   1  -6 1797.08 808.597   2
   3  -1   7 2988.33 914.596   2
   3  -1   8 10689.4 1006.19   2
   3  -1   9 153.647 882.225   2
   3  -1  10 351.840 744.719   2
  -3   1 -11 261.069 724.886   2
  -3   0   9 126.556 800.687   2
  -3   0   8 2285.52 864.160   2
  -3   0   7 2579.67 997.509   2
  -3   0   6 6557.61 678.899   2
  -3   0   5 257.574 470.449   2
  -3   0   4 4517.59 478.017   2
  -3   0   3 576.757 306.775   2
  -3   0   2 16522.3 542.616   2
  -3   0   1 24858.6 1537.01   2
  -3   0  -1 31856.7 1642.59   2
  -3   0  -2 4288.59 994.589   2
  -3   0  -3 18821.0 1411.69   2
  -3   0  -5 4272.18 818.557   2
  -3   0  -6 1592.17 789.219   2
   3   0   7 2127.53 562.572   2
   3   0   8 1333.90 850.680   2
   3   0   9 16486.8 1032.12   2
   3   0  10 287.785 766.661   2
  -3   0 -11 615.405 488.733   2
  -3  -1   9-25.7546 751.630   2
  -3  -1   8 471.215 865.305   2
  -3  -1   7 168.543 784.553   2
  -3  -1   6 2170.70 636.711   2
  -3  -1   5 42523.2 930.366   2
  -3  -1   4 855.241 548.075   2
  -3  -1   3 274.895 397.267   2
  -3  -1   2 838.489 355.162   2
  -3  -1   1 9457.86 1342.15   2
  -3  -1   0 39272.9 1815.12   2
  -3  -1  -1 1510.05 1065.93   2
  -3  -1  -2 17141.5 1431.39   2
  -3  -1  -3-70.9031 1083.55   2
  -3  -1  -4 989.833 1072.71   2
  -3  -1  -5 1945.91 627.245   2
  -3  -1  -6 1948.49 653.012   2
   3   1   7 869.861 535.509   2
   3   1   8 939.207 789.903   2
   3   1   9 8536.42 914.965   2
  -3  -1 -10 685.208 582.213   2
  -3  -1 -11 1527.13 785.945   2
   3   2  -7 392.562 791.761   2
  -3  -3   8 64.3333 817.734   2
  -3  -3   7 1714.99 610.669   2
  -3  -3   6 466.784 975.655   2
  -3  -3   5 17671.5 770.762   2
  -3  -3   4 36373.2 718.249   2
  -3  -3   3 312.989 507.183   2
  -3  -3   2 1247.43 491.092   2
  -3  -3   1 2720.83 393.365   2
  -3  -3   0 12072.5 703.889   2
  -3  -3  -1 10075.4 912.383   2
  -3  -3  -2 3686.21 840.546   2
  -3  -3  -3 438.425 744.082   2
  -3  -3  -4 170.303 353.666   2
  -3  -3  -5 1558.07 359.490   2
  -3  -3  -6 937.621 374.913   2
  -3  -3  -7 73.7272 482.996   2
  -3  -3  -8 16.2443 562.717   2
  -3  -3  -9 2140.90 586.284   2
  -3  -3 -10 822.866 928.943   2
  -3  -3 -11 88.4876 832.160   2
  -3  -3 -12 906.564 675.721   2
  -3  -5   7 1513.61 773.349   2
  -3  -5   6 1429.92 913.080   2
  -3  -5   5 710.088 687.099   2
  -3  -5   4 30941.5 994.811   2
  -3  -5   3 19274.8 755.249   2
  -3  -5   2 825.152 635.757   2
  -3  -5   1 1338.90 442.173   2
  -3  -5   0 56.6521 415.423   2
  -3  -5  -1 5530.71 404.701   2
  -3  -5  -2 17685.7 422.245   2
  -3  -5  -3 1641.52 321.781   2
  -3  -5  -4 9953.82 353.439   2
  -3  -5  -5 9812.44 371.513   2
  -3  -5  -6 907.080 434.987   2
  -3  -5  -7 1436.78 454.278   2
  -3  -5  -8 1218.75 602.241   2
  -3  -5  -9 483.669 619.574   2
  -3  -5 -10 1272.66 593.331   2
  -3  -5 -11-82.6525 518.147   2
  -3  -7   5 1139.57 827.830   2
  -3  -7   4 396.127 682.468   2
  -3  -7   3 5519.75 1188.97   2
  -3  -7   2 1861.20 1184.85   2
  -3  -7   1 260.923 663.161   2
  -3  -7   0 2064.70 726.612   2
  -3  -7  -1-14.3019 631.251   2
  -3  -7  -2 215.180 459.123   2
  -3  -7  -3 120.031 460.604   2
  -3  -7  -4 1258.66 558.193   2
  -3  -7  -5 3664.46 525.035   2
  -3  -7  -6 34.7810 471.319   2
  -3  -7  -7 420.138 572.648   2
  -3  -7  -8 22.1112 827.580   2
  -3  -7  -9 230.870 818.704   2
  -3  -7 -10 769.041 727.146   2
  -3  -7 -11-316.714 630.077   2
  -3  -8   4 954.682 795.371   2
  -3  -8   3 2730.18 1011.31   2
  -3  -8   2 399.146 948.840   2
  -3  -8  -7 594.760 791.129   2
  -3  -8  -8 205.788 523.856   2
  -3  -8  -9 204.678 742.479   2
  -3  -8 -10 1063.47 669.017   2
  -3  -9   2 5330.94 1004.77   2
  -3  -9   1 1548.90 964.957   2
  -3  -9   0 1136.98 842.650   2
  -3  -9  -7-20.8417 746.198   2
  -3  -9  -8 176.796 466.805   2
  -3  -9  -9 514.743 612.395   2
  -3 -10   0 731.029 1595.19   2
  -3 -10  -1 154.459 544.818   2
  -3 -10  -2-86.0419 573.276   2
  -3 -10  -6 353.462 498.122   2
  -3 -10  -7 611.716 654.079   2
  -4   7   5 270.787 661.393   2
  -4   7   4 349.692 494.679   2
  -4   7   3 1189.43 550.042   2
  -4   7   2 8.07710 547.104   2
  -4   7   1 61.5827 919.554   2
  -4   7   0 44.7028 908.669   2
  -4   7  -1 645.340 874.744   2
  -4   7  -2 3552.86 846.785   2
  -4   7  -3 276.994 743.214   2
   4  -5  -7 5134.40 532.999   2
  -4   5   6 1207.56 787.081   2
  -4   5   5 37.6131 582.743   2
  -4   5   4 99.5901 860.830   2
  -4   5   3 749.869 620.570   2
  -4   5   2 1813.35 680.118   2
  -4   5   1 329.134 446.868   2
  -4   5   0 267.762 515.942   2
  -4   5  -1 753.391 502.528   2
  -4   5  -2 1505.49 1044.65   2
  -4   5  -3 5590.54 1061.43   2
  -4   5  -4 259.830 934.950   2
  -4   5  -5 202.994 878.115   2
   4  -5   6 478.228 780.207   2
   4  -4   8 2294.26 687.882   2
  -4   3   8 155.819 660.392   2
  -4   3   7 2775.10 792.712   2
  -4   3   6 2415.19 495.349   2
  -4   3   5 4161.81 526.186   2
  -4   3   4 255.612 495.173   2
  -4   3   3 134.556 499.668   2
  -4   3   2 146.960 462.790   2
  -4   3   1 5457.56 447.651   2
  -4   3   0 4449.80 563.940   2
  -4   3  -1 13831.2 568.772   2
  -4   3  -2 700.604 786.488   2
  -4   3  -3 16564.3 1184.24   2
  -4   3  -4 2456.33 1052.39   2
  -4   3  -5-165.689 982.986   2
  -4   3  -6 6918.06 981.673   2
   4  -3   7 2768.79 895.161   2
   4  -3   8 662.532 770.461   2
  -4   2   8-27.0853 664.762   2
  -4   2   7 2832.04 572.730   2
  -4   2   6 11996.0 723.234   2
  -4   2   5 9166.46 577.100   2
  -4   2   4 1304.57 633.527   2
  -4   2   3 814.433 558.962   2
  -4   2   2 2387.95 533.978   2
  -4   2   1 3082.34 550.811   2
  -4   2   0 17750.7 819.590   2
  -4   2  -2 2076.93 781.510   2
  -4   2  -4 147.810 945.037   2
  -4   2  -5 351.466 1018.40   2
  -4   2  -6 2792.37 987.681   2
   4  -2   7-17.4197 634.619   2
   4  -2   8 2527.22 878.134   2
   4  -2   9 392.810 719.383   2
  -4   1   8-140.654 483.872   2
  -4   1   7-27.4352 770.136   2
  -4   1   6 13967.6 1085.93   2
  -4   1   5 403.945 625.782   2
  -4   1   4 2205.25 589.564   2
  -4   1   3 461.850 766.922   2
  -4   1   2 28.9541 739.904   2
  -4   1  -6 4016.24 1000.86   2
   4  -1   7 319.743 611.665   2
   4  -1   8 2001.86 873.185   2
  -4   1  -9 722.405 563.564   2
  -4   1 -10 435.877 472.085   2
  -4   0   8 969.680 742.954   2
  -4   0   7 1376.69 898.893   2
  -4   0   6 1002.22 622.679   2
  -4   0   5 10881.0 739.342   2
  -4   0   4 10149.0 733.124   2
  -4   0   3 3245.62 431.083   2
  -4   0   2 6262.17 367.067   2
  -4   0   1 276.324 287.922   2
  -4   0   0 176.696 260.040   2
  -4   0  -1 10267.7 355.740   2
  -4   0  -2 867.047 359.056   2
  -4   0  -3 5123.85 449.558   2
  -4   0  -4 6406.98 599.328   2
  -4   0  -5 246.029 1008.78   2
  -4   0  -6 648.618 950.188   2
   4   0   7 2528.30 642.265   2
  -4   0  -8 1812.26 501.735   2
  -4   0  -9 714.168 577.159   2
  -4   0 -10 582.430 507.956   2
  -4  -2   7 702.745 788.755   2
  -4  -2   6 765.588 611.183   2
  -4  -2   5 90.0445 536.240   2
  -4  -2   4 26960.0 650.981   2
  -4  -2   3 2338.46 468.977   2
  -4  -2   2 2806.34 424.730   2
  -4  -2   1 726.348 373.836   2
  -4  -2   0 9360.39 478.074   2
  -4  -2  -1 15764.1 363.027   2
  -4  -2  -2 8386.83 336.539   2
  -4  -2  -3 11231.6 367.331   2
  -4  -2  -4 35.6002 393.843   2
  -4  -2  -5 80.9815 411.251   2
  -4  -2  -6 866.625 438.608   2
  -4  -2  -7 1813.52 511.058   2
  -4  -2  -8 292.770 590.768   2
  -4  -2  -9 189.763 587.161   2
  -4  -2 -10 604.763 524.364   2
  -4  -2 -11 530.735 696.849   2
  -4  -4   6 641.958 603.162   2
  -4  -4   5 95.4708 551.567   2
  -4  -4   4 1757.12 568.589   2
  -4  -4   3 9543.34 584.487   2
  -4  -4   2 100.795 441.627   2
  -4  -4   1 2427.50 550.458   2
  -4  -4   0 419.417 469.301   2
  -4  -4  -1 64.3516 448.350   2
  -4  -4  -2 1902.67 416.069   2
  -4  -4  -3 1511.32 364.158   2
  -4  -4  -4 5750.64 382.289   2
  -4  -4  -5 146.925 405.344   2
  -4  -4  -6 390.836 448.721   2
  -4  -4  -7 380.827 467.952   2
  -4  -4  -8 2049.97 485.779   2
  -4  -4  -9 105.166 446.773   2
  -4  -4 -10 204.927 529.850   2
  -4  -4 -11 190.650 699.428   2
  -4  -5   6-111.000 752.794   2
  -4  -5 -11 533.343 695.034   2
  -4  -6   5 631.586 769.427   2
  -4  -6   4 884.469 875.388   2
  -4  -6   3 3012.86 511.125   2
  -4  -6   2 92.7956 523.051   2
  -4  -6   1 709.038 670.978   2
  -4  -6   0 1203.94 524.617   2
  -4  -6  -1 545.611 604.166   2
  -4  -6  -3 576.950 953.780   2
  -4  -6  -5 5620.73 681.169   2
  -4  -6  -6 489.963 866.429   2
  -4  -6  -7 1832.62 628.428   2
  -4  -6  -8 465.725 593.841   2
  -4  -6  -9 284.386 567.810   2
  -4  -6 -10-61.8550 511.520   2
  -4  -7   4 79.2262 769.490   2
  -4  -7   3 77.0130 598.079   2
  -4  -7   2-97.9202 692.736   2
  -4  -7   1-123.872 488.029   2
  -4  -7  -6 301.080 866.874   2
  -4  -7  -8-17.9933 786.579   2
  -4  -7  -9 1514.16 739.147   2
  -4  -7 -10 641.545 632.429   2
  -4  -8   2 37.8020 549.793   2
  -4  -8  -9-256.497 654.270   2
  -4  -9   1-119.980 855.202   2
  -4  -9   0 2638.41 581.523   2
  -4  -9  -1 342.052 591.992   2
  -4  -9  -2 559.805 594.089   2
  -4  -9  -3 1273.90 896.204   2
  -4  -9  -4 1443.74 850.199   2
  -4  -9  -5 8818.28 606.632   2
  -4  -9  -6 504.583 506.594   2
  -4  -9  -7 132.746 641.693   2
  -4  -9  -8 5.85434 613.129   2
  -5   6   2 624.254 645.021   2
  -5   6   1 736.301 524.171   2
  -5   6   0-101.018 498.965   2
  -5   6  -1 1652.31 530.444   2
  -5   6  -2 1053.25 527.961   2
  -5   4   5 461.140 345.493   2
  -5   4   4 208.378 370.361   2
  -5   4   3 713.154 600.433   2
  -5   4   2 435.732 566.943   2
  -5   4   1 262.053 587.180   2
  -5   4   0 436.834 878.855   2
  -5   4  -4 431.020 954.121   2
  -5   4  -5 344.708 551.607   2
   5  -4   6 1305.71 412.229   2
  -5   3   6 342.507 462.496   2
  -5   3   5 2110.15 385.113   2
  -5   3   4 2474.08 414.511   2
  -5   3   3-358.243 588.740   2
  -5   3   2 4102.30 513.716   2
  -5   3   1 2268.55 505.003   2
  -5   3   0 319.201 940.007   2
  -5   3  -3 471.414 1029.13   2
  -5   3  -4 1690.65 678.530   2
  -5   3  -5 210.084 621.765   2
   5  -3   6 357.971 451.082   2
   5  -3   7 556.159 530.695   2
  -5   2   6 513.388 393.035   2
  -5   2   4 4177.82 867.507   2
   5  -2   8 517.660 656.514   2
  -5   1   6 2159.46 530.871   2
  -5   1   5 2553.66 593.382   2
  -5   1   4 2177.45 491.477   2
  -5   1   3 190.214 375.342   2
  -5   1   2 1657.49 382.904   2
  -5   1   1 458.988 379.064   2
  -5   1   0 351.396 506.600   2
  -5   1  -1 1020.13 449.625   2
  -5   1  -2 9297.47 507.208   2
  -5   1  -3 2778.73 685.092   2
  -5   1  -4 430.423 667.447   2
  -5   1  -5 605.641 641.670   2
  -5   1  -6 395.139 985.620   2
  -5   1  -7 3392.90 946.940   2
  -5   1  -8 985.931 778.989   2
  -5   1  -9-4.37715 641.435   2
  -5  -1   6 574.096 788.305   2
  -5  -1   5 1427.34 623.934   2
  -5  -1   4 445.473 600.725   2
  -5  -1   3 2184.27 655.311   2
  -5  -1   2 1690.53 553.720   2
  -5  -1   1 3045.47 407.896   2
  -5  -1   0 2651.94 384.901   2
  -5  -1  -1 701.914 393.013   2
  -5  -1  -2 3089.84 417.314   2
  -5  -1  -3 9327.56 532.089   2
  -5  -1  -4 8230.12 542.474   2
  -5  -1  -5 104.505 625.193   2
  -5  -1  -6 1331.63 663.391   2
  -5  -1  -7 310.226 639.830   2
  -5  -1  -8 2280.65 845.870   2
  -5  -1  -9 3093.71 756.735   2
  -5  -3   5 4198.44 577.327   2
  -5  -3   4 1436.12 498.363   2
  -5  -3   3 4375.14 570.888   2
  -5  -3   2 4789.94 492.435   2
  -5  -3   1 4624.56 566.195   2
  -5  -3   0 1922.96 707.188   2
  -5  -3  -1 575.689 530.078   2
  -5  -3  -2 1427.13 497.825   2
  -5  -3  -3 22927.3 562.347   2
  -5  -3  -4 324.740 487.161   2
  -5  -3  -5 1383.29 566.902   2
  -5  -3  -6 873.450 566.080   2
  -5  -3  -7 37.1130 826.673   2
  -5  -3  -8 3481.10 596.526   2
  -5  -3  -9 335.910 527.249   2
  -5  -3 -10 76.1245 463.561   2
  -5  -4   5 121.840 455.384   2
  -5  -4   4-34.2995 752.895   2
  -5  -4  -9 578.300 731.160   2
  -5  -4 -10 317.279 460.899   2
  -5  -5   4 825.344 435.975   2
  -5  -5   3 177.206 471.430   2
  -5  -5   2 202.379 525.822   2
  -5  -5   1 213.961 674.100   2
  -5  -5   0 2183.20 937.564   2
  -5  -5  -1 59.8155 819.925   2
  -5  -5  -7-136.369 568.613   2
  -5  -5  -8 303.030 437.849   2
  -5  -5  -9 1213.93 409.273   2
  -5  -5 -10 275.274 677.175   2
  -5  -6   3 1280.04 593.625   2
  -5  -6   2 178.561 490.162   2
  -5  -6   1 575.590 634.967   2
  -5  -6   0 8722.53 963.676   2
  -5  -6  -7 1706.13 835.179   2
  -5  -6  -8 1519.21 782.468   2
  -5  -6  -9 661.680 668.345   2
  -5  -8   0 232.186 519.726   2
  -5  -8  -1 1605.37 574.978   2
  -5  -8  -2 323.368 651.099   2
  -5  -8  -3 439.556 529.552   2
  -5  -8  -4 137.774 526.596   2
  -5  -8  -5 1945.75 560.353   2
  -5  -8  -6 2025.36 529.843   2
  -5  -8  -7-59.5919 635.642   2
  -5  -8  -8-22.6148 627.919   2
  -6   4  -1 3517.52 755.353   2
  -6   3   3 636.654 636.904   2
  -6   2   3 82.0323 480.246   2
  -6   2   2-25.4244 547.557   2
  -6   2   1 239.890 559.115   2
  -6   2   0 637.449 567.665   2
  -6   2  -1 465.644 578.635   2
  -6   2  -2 8464.04 667.322   2
  -6   2  -3 83.9873 595.567   2
  -6   2  -4 901.130 572.440   2
  -6   2  -5 217.349 504.462   2
  -6   2  -6 526.920 775.684   2
  -6   0   4 83.3986 700.832   2
  -6   0   3 564.326 748.999   2
  -6   0   2 2225.83 886.699   2
  -6   0   1 1467.93 569.756   2
  -6   0   0 2217.20 601.054   2
  -6   0  -1 476.930 844.345   2
  -6   0  -2 1631.52 899.232   2
  -6   0  -3 15609.8 760.189   2
  -6   0  -4 1356.89 612.487   2
  -6   0  -5 496.422 456.548   2
  -6   0  -6-209.839 560.537   2
  -6   0  -7 481.876 517.659   2
  -6  -2   4 912.513 615.912   2
  -6  -2   3 480.385 517.391   2
  -6  -2   2 982.514 544.267   2
  -6  -2   1 380.332 548.767   2
  -6  -2   0-44.2627 539.687   2
  -6  -2  -1 370.363 749.745   2
  -6  -2  -3 11650.6 1010.18   2
  -6  -2  -4 5196.21 637.059   2
  -6  -2  -5 1693.83 609.283   2
  -6  -2  -6 546.979 760.992   2
  -6  -2  -7 258.029 736.243   2
  -6  -2  -8 263.662 659.061   2
  -6  -3   3 221.825 690.442   2
  -6  -3  -8 76.1246 667.368   2
  -6  -4   2-39.3227 560.747   2
  -6  -4   1 1691.89 490.436   2
  -6  -4   0 243.177 798.007   2
  -6  -4  -8 337.605 656.905   2
  -6  -5   2 716.697 514.617   2
  -6  -5   1 289.641 565.931   2
  -6  -5   0 1234.51 627.248   2
  -6  -5  -6 539.884 712.538   2
  -6  -5  -7 502.856 625.252   2
  -6  -7  -1 2661.91 666.033   2
  -6  -7  -2 418.592 527.373   2
  -6  -7  -3-393.989 659.757   2
  -6  -7  -4 1514.77 669.654   2
  -6  -7  -5 620.040 651.193   2
  -6  -7  -6 1048.35 619.653   2
;
loop_
_symmetry_equiv_pos_as_xyz
'x, y, z'
'-x, -y, -z'
loop_
_atom_site_label
_atom_site_type_symbol
_atom_site_fract_x
_atom_site_fract_y
_atom_site_fract_z
_atom_site_U_iso_or_equiv
_atom_site_adp_type
_atom_site_occupancy
_atom_site_site_symmetry_order
_atom_site_calc_flag
_atom_site_refinement_flags_posn
_atom_site_refinement_flags_adp
_atom_site_refinement_flags_occupancy
_atom_site_disorder_assembly
_atom_site_disorder_group
C3 C 0.4850(4) 0.3701(3) 0.1737(2) 0.0366(7) Uani 1 1 d . . . . .
C11 C 0.5643(4) 0.4262(3) 0.0279(2) 0.0368(6) Uani 1 1 d . . . . .
H11 H 0.721111 0.441906 0.016117 0.044 Uiso 1 1 calc R U . . .
C6 C 0.3359(5) 0.2683(3) 0.4478(3) 0.0387(7) Uani 1 1 d . . . . .
N1 N 1.0742(5) 0.1640(3) 0.0223(3) 0.0660(8) Uani 1 1 d . . . . .
C4 C 0.2832(5) 0.3189(3) 0.2228(3) 0.0476(8) Uani 1 1 d . . . . .
H4 H 0.191546 0.318347 0.16361 0.057 Uiso 1 1 calc R U . . .
C12 C 0.5585(5) 0.3172(3) -0.0485(3) 0.0444(7) Uani 1 1 d . . . . .
H12A H 0.629756 0.353897 -0.140426 0.053 Uiso 1 1 calc R U . . .
H12B H 0.403316 0.310631 -0.048932 0.053 Uiso 1 1 calc R U . . .
C5 C 0.2124(5) 0.2686(3) 0.3561(3) 0.0481(8) Uani 1 1 d . . . . .
H5 H 0.074034 0.233075 0.385745 0.058 Uiso 1 1 calc R U . . .
C13 C 0.6711(4) 0.1646(3) 0.0052(3) 0.0499(8) Uani 1 1 d . . . . .
H13A H 0.588311 0.121873 0.092633 0.06 Uiso 1 1 calc R U . . .
H13B H 0.667426 0.103258 -0.053512 0.06 Uiso 1 1 calc R U . . .
C2 C 0.6090(5) 0.3696(3) 0.2654(3) 0.0497(8) Uani 1 1 d . . . . .
H2 H 0.74803 0.404282 0.235906 0.06 Uiso 1 1 calc R U . . .
C7 C 0.2519(5) 0.2154(3) 0.5947(3) 0.0476(8) Uani 1 1 d . . . . .
C1 C 0.5366(5) 0.3201(4) 0.3983(3) 0.0527(8) Uani 1 1 d . . . . .
H1 H 0.627405 0.321718 0.457614 0.063 Uiso 1 1 calc R U . . .
C14 C 0.8932(6) 0.1645(3) 0.0158(3) 0.0506(8) Uani 1 1 d . . . . .
C8 C 0.4312(6) 0.1872(5) 0.6752(3) 0.0888(14) Uani 1 1 d . . . . .
H8A H 0.499687 0.275461 0.657669 0.133 Uiso 1 1 calc R U . . .
H8B H 0.368116 0.157888 0.768559 0.133 Uiso 1 1 calc R U . . .
H8C H 0.54213 0.109829 0.651719 0.133 Uiso 1 1 calc R U . . .
C9 C 0.0751(6) 0.3326(5) 0.6364(3) 0.0964(15) Uani 1 1 d . . . . .
H9A H -0.042028 0.351674 0.584673 0.145 Uiso 1 1 calc R U . . .
H9B H 0.013857 0.299443 0.729606 0.145 Uiso 1 1 calc R U . . .
H9C H 0.140683 0.421527 0.621433 0.145 Uiso 1 1 calc R U . . .
C10 C 0.1499(8) 0.0763(5) 0.6246(4) 0.1016(16) Uani 1 1 d . . . . .
H10A H 0.032799 0.091867 0.573406 0.152 Uiso 1 1 calc R U . . .
H10B H 0.262573 -0.000315 0.60137 0.152 Uiso 1 1 calc R U . . .
H10C H 0.08856 0.047745 0.71821 0.152 Uiso 1 1 calc R U . . .
loop_
_atom_site_aniso_label
_atom_site_aniso_U_11
_atom_site_aniso_U_22
_atom_site_aniso_U_33
_atom_site_aniso_U_23
_atom_site_aniso_U_13
_atom_site_aniso_U_12
C3 0.0376(16) 0.0360(17) 0.0352(15) -0.0105(12) -0.0063(13) 0.0006(13)
C11 0.0334(14) 0.0410(16) 0.0335(14) -0.0089(12) -0.0037(12) -0.0017(12)
C6 0.0421(16) 0.0376(17) 0.0327(15) -0.0073(13) -0.0051(13) 0.0007(14)
N1 0.065(2) 0.062(2) 0.075(2) -0.0257(15) -0.0130(16) -0.0037(15)
C4 0.0432(17) 0.070(2) 0.0334(16) -0.0144(15) -0.0065(13) -0.0158(16)
C12 0.0460(16) 0.0482(19) 0.0388(15) -0.0148(14) -0.0034(13) -0.0041(15)
C5 0.0434(17) 0.065(2) 0.0380(18) -0.0136(15) -0.0008(15) -0.0189(16)
C13 0.0510(18) 0.0454(19) 0.0517(19) -0.0121(14) -0.0027(15) -0.0095(15)
C2 0.0435(17) 0.067(2) 0.0383(17) -0.0080(15) -0.0048(14) -0.0189(15)
C7 0.0523(18) 0.054(2) 0.0318(15) -0.0059(14) -0.0054(14) -0.0055(16)
C1 0.0509(19) 0.073(2) 0.0356(17) -0.0077(15) -0.0122(15) -0.0140(17)
C14 0.058(2) 0.043(2) 0.0470(17) -0.0118(14) -0.0056(16) -0.0009(15)
C8 0.080(3) 0.136(4) 0.0353(18) 0.001(2) -0.0098(19) -0.012(2)
C9 0.110(3) 0.101(3) 0.042(2) -0.0066(19) 0.016(2) 0.026(3)
C10 0.160(4) 0.090(3) 0.053(2) 0.010(2) -0.010(3) -0.069(3)
loop_
_atom_type_symbol
_atom_type_description
_atom_type_scat_dispersion_real
_atom_type_scat_dispersion_imag
_atom_type_scat_source
C C 0.0181 0.0091 'International Tables Vol C Tables 4.2.6.8 and 6.1.1.4'
H H 0 0 'International Tables Vol C Tables 4.2.6.8 and 6.1.1.4'
N N 0.0311 0.018 'International Tables Vol C Tables 4.2.6.8 and 6.1.1.4'
loop_
_geom_angle_atom_site_label_1
_geom_angle_atom_site_label_2
_geom_angle_atom_site_label_3
_geom_angle
_geom_angle_site_symmetry_1
_geom_angle_site_symmetry_3
_geom_angle_publ_flag
C2 C3 C4 116.3(2) . . ?
C2 C3 C11 121.7(2) . . ?
C4 C3 C11 122.0(2) . . ?
C3 C11 C12 112.2(2) . . ?
C3 C11 C11 111.5(3) . 2_665 ?
C12 C11 C11 111.2(3) . 2_665 ?
C5 C6 C1 116.0(2) . . ?
C5 C6 C7 121.4(3) . . ?
C1 C6 C7 122.6(3) . . ?
C5 C4 C3 121.4(3) . . ?
C11 C12 C13 114.8(2) . . ?
C6 C5 C4 122.4(3) . . ?
C14 C13 C12 112.5(2) . . ?
C1 C2 C3 122.0(3) . . ?
C8 C7 C10 107.9(3) . . ?
C8 C7 C6 112.6(3) . . ?
C10 C7 C6 110.8(3) . . ?
C8 C7 C9 108.9(3) . . ?
C10 C7 C9 108.8(3) . . ?
C6 C7 C9 107.8(2) . . ?
C2 C1 C6 121.9(3) . . ?
N1 C14 C13 178.8(3) . . ?
loop_
_geom_bond_atom_site_label_1
_geom_bond_atom_site_label_2
_geom_bond_distance
_geom_bond_site_symmetry_2
_geom_bond_publ_flag
C3 C2 1.385(4) . ?
C3 C4 1.387(4) . ?
C3 C11 1.516(4) . ?
C11 C12 1.523(4) . ?
C11 C11 1.546(5) 2_665 ?
C6 C5 1.383(4) . ?
C6 C1 1.384(4) . ?
C6 C7 1.529(4) . ?
N1 C14 1.155(4) . ?
C4 C5 1.385(4) . ?
C12 C13 1.535(4) . ?
C13 C14 1.425(4) . ?
C2 C1 1.382(4) . ?
C7 C8 1.512(4) . ?
C7 C10 1.520(5) . ?
C7 C9 1.536(5) . ?
