#------------------------------------------------------------------------------
#$Date: 2023-03-04 20:23:28 +0200 (Sat, 04 Mar 2023) $
#$Revision: 281467 $
#$URL: file:///home/coder/svn-repositories/cod/cif/1/56/72/1567251.cif $
#------------------------------------------------------------------------------
#
# This file is available in the Crystallography Open Database (COD),
# http://www.crystallography.net/
#
# All data on this site have been placed in the public domain by the
# contributors.
#
data_1567251
loop_
_publ_author_name
'Zuffa, Caterina'
'Cappuccino, Chiara'
'Marchini, Marianna'
'Contini, Laura'
'Farinella, Francesco'
'Maini, Lucia'
_publ_section_title
;
 AgX-based hybrid coordination polymers: mechanochemical synthesis,
 structure and luminescence property characterization.
;
_journal_issue                   0
_journal_name_full               'Faraday discussions'
_journal_page_first              448
_journal_page_last               465
_journal_paper_doi               10.1039/d2fd00093h
_journal_volume                  241
_journal_year                    2023
_chemical_formula_moiety         'C6 H8 Ag Br N2'
_chemical_formula_sum            'C6 H8 Ag Br N2'
_chemical_formula_weight         295.92
_space_group_crystal_system      monoclinic
_space_group_IT_number           14
_space_group_name_Hall           '-P 2ybc'
_space_group_name_H-M_alt        'P 1 21/c 1'
_atom_sites_solution_hydrogens   geom
_audit_creation_date             2022-05-02
_audit_creation_method
;
Olex2 1.5
(compiled 2022.04.07 svn.rca3783a0 for OlexSys, GUI svn.r6498)
;
_cell_angle_alpha                90
_cell_angle_beta                 105.712(6)
_cell_angle_gamma                90
_cell_formula_units_Z            4
_cell_length_a                   9.4518(6)
_cell_length_b                   6.1880(3)
_cell_length_c                   14.3981(9)
_cell_measurement_reflns_used    1046
_cell_measurement_temperature    293(2)
_cell_measurement_theta_max      26.9610
_cell_measurement_theta_min      3.5870
_cell_volume                     810.65(9)
_computing_cell_refinement
;
CrysAlisPro, Agilent Technologies,
Version 1.171.37.35 (release 13-08-2014 CrysAlis171 .NET)
(compiled Aug 13 2014,18:06:01)
;
_computing_data_collection
;
CrysAlisPro, Agilent Technologies,
Version 1.171.37.35 (release 13-08-2014 CrysAlis171 .NET)
(compiled Aug 13 2014,18:06:01)
;
_computing_data_reduction
;
CrysAlisPro, Agilent Technologies,
Version 1.171.37.35 (release 13-08-2014 CrysAlis171 .NET)
(compiled Aug 13 2014,18:06:01)
;
_computing_molecular_graphics    'Olex2 1.5 (Dolomanov et al., 2009)'
_computing_publication_material  'Olex2 1.5 (Dolomanov et al., 2009)'
_computing_structure_refinement  'SHELXL 2018/3 (Sheldrick, 2015)'
_diffrn_ambient_temperature      293(2)
_diffrn_detector_area_resol_mean 16.1340
_diffrn_detector_type            Sapphire3
_diffrn_measured_fraction_theta_full 0.998
_diffrn_measured_fraction_theta_max 0.858
_diffrn_measurement_details
;
#__ type_ start__ end____ width___ exp.time_
  1 omega    5.00   67.00   1.0000    3.7400
omega____ theta____ kappa____ phi______ frames
    -       19.0017   57.0000   60.0000 62

#__ type_ start__ end____ width___ exp.time_
  2 omega  -19.00    6.00   1.0000    3.7400
omega____ theta____ kappa____ phi______ frames
    -      -17.8298  -99.0000  -30.0000 25

#__ type_ start__ end____ width___ exp.time_
  3 omega  -51.00   47.00   1.0000    3.7400
omega____ theta____ kappa____ phi______ frames
    -       19.0017  -77.0000 -120.0000 98

#__ type_ start__ end____ width___ exp.time_
  4 omega  -69.00  -37.00   1.0000    3.7400
omega____ theta____ kappa____ phi______ frames
    -      -17.8298  178.0000    0.0000 32
;
_diffrn_measurement_device       'four-circle diffractometer'
_diffrn_measurement_device_type  'Xcalibur, Sapphire3'
_diffrn_measurement_method       '\w scans'
_diffrn_radiation_type           MoK\a
_diffrn_radiation_wavelength     0.71073
_diffrn_reflns_av_R_equivalents  0.0307
_diffrn_reflns_av_unetI/netI     0.0551
_diffrn_reflns_Laue_measured_fraction_full 0.998
_diffrn_reflns_Laue_measured_fraction_max 0.858
_diffrn_reflns_limit_h_max       11
_diffrn_reflns_limit_h_min       -12
_diffrn_reflns_limit_k_max       7
_diffrn_reflns_limit_k_min       -7
_diffrn_reflns_limit_l_max       19
_diffrn_reflns_limit_l_min       -12
_diffrn_reflns_number            3457
_diffrn_reflns_point_group_measured_fraction_full 0.998
_diffrn_reflns_point_group_measured_fraction_max 0.858
_diffrn_reflns_theta_full        25.000
_diffrn_reflns_theta_max         29.112
_diffrn_reflns_theta_min         3.606
_exptl_absorpt_coefficient_mu    7.339
_exptl_absorpt_correction_T_max  1.00000
_exptl_absorpt_correction_T_min  0.45264
_exptl_absorpt_correction_type   multi-scan
_exptl_absorpt_process_details
;
CrysAlisPro, Agilent Technologies,
Version 1.171.37.35 (release 13-08-2014 CrysAlis171 .NET)
(compiled Aug 13 2014,18:06:01)
Empirical absorption correction using spherical harmonics,
 implemented in SCALE3 ABSPACK scaling algorithm.
;
_exptl_crystal_colour            colourless
_exptl_crystal_colour_primary    colourless
_exptl_crystal_density_diffrn    2.425
_exptl_crystal_description       rectangular
_exptl_crystal_F_000             560
_exptl_crystal_size_max          0.141
_exptl_crystal_size_mid          0.134
_exptl_crystal_size_min          0.041
_refine_diff_density_max         0.728
_refine_diff_density_min         -0.630
_refine_diff_density_rms         0.132
_refine_ls_extinction_coef       0.0064(5)
_refine_ls_extinction_expression Fc^*^=kFc[1+0.001xFc^2^\l^3^/sin(2\q)]^-1/4^
_refine_ls_extinction_method     'SHELXL-2018/3 (Sheldrick 2018)'
_refine_ls_goodness_of_fit_ref   1.041
_refine_ls_hydrogen_treatment    constr
_refine_ls_matrix_type           full
_refine_ls_number_parameters     92
_refine_ls_number_reflns         1874
_refine_ls_number_restraints     0
_refine_ls_restrained_S_all      1.041
_refine_ls_R_factor_all          0.0581
_refine_ls_R_factor_gt           0.0419
_refine_ls_shift/su_max          0.001
_refine_ls_shift/su_mean         0.000
_refine_ls_structure_factor_coef Fsqd
_refine_ls_weighting_details
'w=1/[\s^2^(Fo^2^)+(0.0282P)^2^] where P=(Fo^2^+2Fc^2^)/3'
_refine_ls_weighting_scheme      calc
_refine_ls_wR_factor_gt          0.0749
_refine_ls_wR_factor_ref         0.0852
_reflns_Friedel_coverage         0.000
_reflns_number_gt                1478
_reflns_number_total             1874
_reflns_threshold_expression     'I > 2\s(I)'
_cod_data_source_file            d2fd00093h5.cif
_cod_data_source_block           agbr_3pica_new
_cod_depositor_comments
'Adding full bibliography for 1567249--1567254.cif.'
_cod_database_code               1567251
_shelx_shelxl_version_number     2018/3
_shelx_space_group_comment
;
The symmetry employed for this shelxl refinement is uniquely defined
by the following loop, which should always be used as a source of
symmetry information in preference to the above space-group names.
They are only intended as comments.
;
_olex2_refinement_description
;
1. Fixed Uiso
 At 1.2 times of:
  All C(H) groups, All C(H,H) groups, All N(H,H) groups
2.a Secondary CH2 refined with riding coordinates:
 N2(H2A,H2B), C7(H7A,H7B)
2.b Aromatic/amide H refined with riding coordinates:
 C2(H2), C5(H5), C6(H6), C4(H4)
;
_shelx_res_file
;
TITL shelxt_a.res in P2(1)/c
    agbr_3pica_new.res
    created by SHELXL-2018/3 at 20:34:22 on 02-May-2022
CELL 0.71073 9.4518 6.188 14.3981 90 105.712 90
ZERR 4 0.0006 0.0003 0.0009 0 0.006 0
LATT 1
SYMM -X,0.5+Y,0.5-Z
SFAC C H N Br Ag
UNIT 24 32 8 4 4

L.S. 10
PLAN  2
CONF
BOND $H
LIST 6
MORE -1
fmap 2
acta 50.0
MERG 2
REM <olex2.extras>
REM <HklSrc "%.\\AgBr_3pica_new.hkl">
REM </olex2.extras>

WGHT    0.028200
EXTI    0.006357
FVAR       5.12559
AG1   5    0.847093    0.694417    0.768094    11.00000    0.04458    0.06132 =
         0.05259   -0.01297    0.00768   -0.00730
BR1   4    0.945259    0.884544    0.630596    11.00000    0.03683    0.04452 =
         0.04241   -0.00649    0.01040   -0.00049
N2    3    0.872839    0.904033    0.901575    11.00000    0.02875    0.04366 =
         0.03312   -0.00054    0.00034   -0.00405
AFIX  23
H2A   2    0.899365    0.815052    0.951870    11.00000   -1.20000
H2B   2    0.949835    0.989149    0.904524    11.00000   -1.20000
AFIX   0
N1    3    0.648616    0.489632    0.688993    11.00000    0.03625    0.04344 =
         0.03916   -0.00366    0.00930   -0.00307
C2    1    0.509781    0.561050    0.662692    11.00000    0.03078    0.03313 =
         0.04414   -0.00234    0.01114    0.00262
AFIX  43
H2    2    0.491566    0.699336    0.681979    11.00000   -1.20000
AFIX   0
C3    1    0.392349    0.443997    0.609143    11.00000    0.02884    0.03804 =
         0.03201    0.00211    0.00435   -0.00028
C5    1    0.560780    0.159034    0.610780    11.00000    0.04076    0.03876 =
         0.05158   -0.01381    0.01415    0.00452
AFIX  43
H5    2    0.580818    0.019134    0.594426    11.00000   -1.20000
AFIX   0
C6    1    0.671969    0.288355    0.662956    11.00000    0.03071    0.04500 =
         0.04652   -0.00703    0.01237    0.00480
AFIX  43
H6    2    0.767217    0.233875    0.680888    11.00000   -1.20000
AFIX   0
C7    1    0.758452    1.043710    0.920059    11.00000    0.03366    0.04897 =
         0.04677   -0.01105    0.01180   -0.00710
AFIX  23
H7A   2    0.756530    1.178239    0.885158    11.00000   -1.20000
H7B   2    0.783372    1.077686    0.988345    11.00000   -1.20000
AFIX   0
C4    1    0.418993    0.237916    0.582719    11.00000    0.03930    0.05013 =
         0.04367   -0.01414    0.00738   -0.00719
AFIX  43
H4    2    0.342710    0.152904    0.546499    11.00000   -1.20000
AFIX   0
HKLF 4




REM  shelxt_a.res in P2(1)/c
REM wR2 = 0.0852, GooF = S = 1.041, Restrained GooF = 1.041 for all data
REM R1 = 0.0419 for 1478 Fo > 4sig(Fo) and 0.0581 for all 1874 data
REM 92 parameters refined using 0 restraints

END

WGHT      0.0282      0.0000

REM Highest difference peak  0.728,  deepest hole -0.630,  1-sigma level  0.132
Q1    1   0.8412  0.8519  0.7560  11.00000  0.05    0.73
Q2    1   0.9391  1.0705  0.6236  11.00000  0.05    0.69
;
_shelx_res_checksum              81812
_shelx_hkl_file
;
   0   0   3 290.999 107.315   1
   0   0   3 74.0025 144.983   3
   0   0   4 99699.0 2489.62   1
   0   0  -4 106855. 2757.92   1
   0   0   4 104933. 3001.37   3
   0   0   5 65.0716 49.8934   1
   0   0   5 293.370 194.072   3
   0   0  -5 119.574 101.807   1
   0   0   6 201420. 4526.32   1
   0   0   6 203892. 5329.71   3
   0   0  -6 208046. 5079.17   1
   0   0   7 108.832 192.999   3
   0   0   7 253.934 167.019   1
   0   0   8 334609. 8075.92   3
   0   0   8 311412. 6789.92   1
   0   0   9 1463.46 560.980   3
   0   0   9 1319.79 377.326   1
   0   0  10 20833.0 1455.94   1
   0   0  10 20619.9 1880.61   3
   0   0  11 413.469 305.960   3
   0   0  11 485.193 305.494   1
   0   0  12 6528.62 857.366   1
   0   0  12 7926.67 1261.62   3
   0   0  13 59.7622 139.860   1
   0   0  13 270.747 425.392   3
   0   0  14 902.234 463.604   3
   0   0  15-203.783 322.024   3
   0   0  16 2890.68 1110.52   3
   0   0  17 502.029 516.879   3
   0   0  18 1717.89 794.257   3
   0   1   0 219.612 76.6101   3
   0   1   0 121.856 74.1738   1
   0  -1   1 3052.56 323.403   3
   0   1  -1 2967.61 364.727   1
   0  -1   1 3035.47 376.981   1
   0   1   2 5044.58 468.489   4
   0   1  -2 4237.62 471.060   1
   0  -1   2 3955.69 458.572   1
   0  -1   2 4091.11 456.819   3
   0  -1  -2 4227.36 432.043   4
   0   1   3 47612.0 1737.51   4
   0   1  -3 45775.0 1816.71   1
   0  -1  -3 44903.1 1631.89   4
   0  -1   3 45099.7 1802.50   1
   0  -1   3 45007.8 1839.29   3
   0  -1   4 21498.4 1271.18   1
   0  -1   4 22410.2 1379.76   3
   0   1  -4 19394.6 1231.32   1
   0   1   4 20680.3 1013.46   3
   0  -1  -4 20087.9 1134.83   4
   0  -1   5 3000.81 503.054   1
   0  -1   5 2533.16 546.148   3
   0  -1  -5 2965.81 472.975   4
   0   1   5 2894.55 441.111   3
   0   1  -5 4072.22 590.041   1
   0   1   6 313804. 6678.70   3
   0  -1  -6 311773. 6918.55   4
   0  -1   6 301926. 6938.07   1
   0   1   6 309516. 5842.74   1
   0   1  -6 310390. 7149.35   1
   0  -1   6 311001. 7519.02   3
   0   1   7 26149.1 1602.40   3
   0   1  -7 28787.3 1841.75   1
   0  -1   7 26189.2 1665.75   1
   0  -1   7 28027.2 1955.71   3
   0  -1  -7 26920.0 1701.24   4
   0   1   7 26929.3 1171.81   1
   0   1   8 203481. 5609.99   3
   0  -1   8 206973. 6370.48   3
   0   1   8 207792. 4446.47   1
   0  -1  -8 202747. 5701.53   4
   0  -1   8 205700. 5633.43   1
   0  -1   9 56144.3 2726.46   1
   0   1   9 56853.9 1967.82   1
   0  -1  -9 57258.2 2851.83   4
   0  -1   9 61967.4 3324.50   3
   0   1   9 56091.4 2801.36   3
   0  -1  10 8263.40 1241.03   3
   0  -1  10 8349.96 1043.15   1
   0   1  10 8012.49 713.185   1
   0   1  10 7730.90 1056.82   3
   0   1  11 112013. 4607.70   3
   0  -1  11 113692. 5139.37   3
   0  -1  11 111668. 4277.41   1
   0   1  11 109188. 3183.08   1
   0   1  12 14011.3 1662.60   3
   0  -1  12 13276.6 1800.59   3
   0  -1  12 13418.3 1461.08   1
   0   1  13 4.55702 324.654   3
   0  -1  13 682.342 494.493   3
   0   1  14 64594.2 3964.13   3
   0  -1  14 63478.9 4344.92   3
   0   1  15 5585.08 1189.75   3
   0  -1  15 5229.37 1358.71   3
   0  -1  16 24635.1 2919.57   3
   0   1  16 23153.3 2555.32   3
   0   1  17 2423.12 999.343   3
   0  -1  17 2044.13 1102.21   3
   0   2   0 128929. 3550.73   1
   0  -2   0 115313. 2774.19   3
   0  -2  -1 4547.72 365.629   3
   0  -2   1 4154.41 503.031   3
   0   2   1 4227.77 534.071   1
   0   2  -1 5391.97 700.776   1
   0  -2   2 222567. 5121.97   3
   0   2  -2 231128. 5615.50   1
   0   2   2 218224. 5232.31   4
   0  -2   3 440321. 9082.80   3
   0  -2   3 452848. 9512.56   1
   0   2   3 459915. 9073.42   4
   0   2  -3 469771. 9548.23   1
   0  -2   4 254398. 6198.33   3
   0   2   4 239936. 4314.62   3
   0   2   4 241846. 5887.99   4
   0  -2   4 245631. 6298.41   1
   0  -2  -5 376274. 8041.78   4
   0  -2   5 367518. 8641.62   1
   0   2   5 377570. 6775.04   3
   0   2   5 373670. 8342.84   4
   0  -2   5 390721. 8765.37   3
   0   2   6 88709.6 2581.05   3
   0  -2   6 88581.0 3596.16   1
   0  -2   6 90895.4 3762.05   3
   0  -2  -6 89941.4 3239.02   4
   0  -2   7 1322.73 456.938   3
   0  -2   7 1306.84 491.990   1
   0   2   7 920.567 287.707   3
   0  -2   8 28780.7 2257.64   3
   0   2   8 31228.1 1725.64   3
   0  -2   8 29443.2 2127.39   1
   0   2   9 22112.7 1565.28   3
   0  -2   9 26485.8 2293.07   3
   0   2   9 22479.8 1075.27   1
   0  -2   9 25085.2 2033.07   1
   0   2  10 24783.8 1102.58   1
   0   2  10 24057.9 1761.97   3
   0  -2  10 23810.9 2037.64   1
   0  -2  10 24138.3 2313.91   3
   0   2  11 15927.2 1534.76   3
   0  -2  11 15837.5 1956.61   3
   0  -2  11 15512.5 1718.74   1
   0  -2  12 7558.43 1374.10   3
   0   2  12 7614.56 1097.52   3
   0   2  13 19891.7 1904.80   3
   0  -2  13 16293.3 2161.98   3
   0  -2  14 37.1094 356.705   3
   0   2  14 84.5716 168.009   3
   0  -2  15 3597.75 1144.38   3
   0  -2  16 870.915 475.496   3
   0  -3   0 72.1457 109.836   3
   0  -3  -1 102048. 2720.72   3
   0  -3   1 104778. 3242.94   3
   0   3   2 160196. 4878.28   4
   0   3   2 160718. 4644.15   1
   0  -3   2 159851. 4518.70   3
   0  -3   3 160660. 4832.18   3
   0   3   3 158835. 4920.65   4
   0   3   3 162050. 4546.82   1
   0   3   4 23027.9 1716.10   4
   0  -3   4 20413.1 1623.52   3
   0   3   5 6980.71 992.869   4
   0  -3   5 8809.79 1127.97   3
   0   3   6 16371.4 848.748   3
   0   3   6 15245.0 682.812   3
   0  -3   6 16292.2 1642.18   3
   0   3   6 16666.6 1567.90   4
   0  -3   7 13785.5 1574.10   3
   0   3   7 12168.4 775.509   3
   0  -3   8-148.456 262.518   3
   0   3   8 316.149 183.506   3
   0   3   9 74944.5 2720.17   3
   0  -3   9 83702.7 4461.69   3
   0   3  10 37791.9 1995.85   3
   0  -3  10 44569.9 3344.86   3
   0  -3  11 63430.1 4179.45   3
   0   3  11 53105.2 2598.22   3
   0  -3  12 27399.2 2839.93   3
   0  -3  13 7236.42 1499.08   3
   0  -3  14-24.4146 495.164   3
   0  -3  15 133.631 366.296   3
   0  -3  16 581.960 466.318   3
   0  -4   0 33649.9 1814.92   3
   0  -4  -1 180347. 4522.23   3
   0  -4   1 173999. 5031.08   3
   0  -4   2 6335.38 888.489   3
   0  -4  -2 4788.94 470.738   3
   0   4   2 5259.30 944.233   4
   0  -4   3 48580.6 2701.03   3
   0   4   3 49163.6 2846.69   4
   0   4   4 117343. 4692.63   4
   0  -4   4 119094. 4618.06   3
   0   4   5 47528.8 2967.02   4
   0  -4   5 49845.0 2979.68   3
   0  -4   6 9175.88 1331.57   3
   0   4   6 9677.66 1336.51   4
   0  -4   7 84623.0 4364.41   3
   0   4   7 83290.4 4203.60   4
   0  -4   8 40136.9 3107.48   3
   0  -4   9 10316.6 1617.18   3
   0  -4  10 1124.11 737.537   3
   0  -4  11 2573.40 826.280   3
   0  -4  12 28943.2 3101.34   3
   0  -4  13 929.702 706.330   3
   0  -4  14 5794.90 1432.73   3
   0  -5   0-135.841 207.414   3
   0   5   1 9577.25 1378.75   4
   0  -5   1 11431.2 1280.31   3
   0  -5  -1 10082.5 1011.17   3
   0  -5   2 6210.79 978.302   3
   0   5   2 6098.15 1124.18   4
   0  -5  -2 5892.60 536.541   3
   0   5   3 10796.1 1536.98   4
   0  -5   3 10572.5 1380.44   3
   0   5   4 1225.43 572.278   4
   0  -5   4 741.844 477.561   3
   0  -5   5 26293.9 2362.94   3
   0   5   5 23559.1 2268.38   4
   0  -5   6 16966.4 2004.48   3
   0   5   6 15687.7 1882.92   4
   0  -5   7 71226.7 4312.72   3
   0   5   7 65327.3 4071.12   4
   0   5   8 2802.29 834.442   4
   0  -5   8 5548.11 1292.50   3
   0  -5   9 8407.58 1590.81   3
   0  -5  10 426.956 386.570   3
   0  -5  11-289.411 451.079   3
   0  -5  12 309.270 376.204   3
   0  -5  13 12917.9 2327.85   3
   0   6   0 492.431 659.298   4
   0   6   1 55491.6 3729.64   4
   0   6   2 9455.28 1525.88   4
   0  -6   2 8928.47 1308.63   3
   0  -6   3 285.294 266.572   3
   0   6   3 1237.51 625.580   4
   0   6   4 17515.8 2150.04   4
   0  -6   4 20986.7 2211.13   3
   0  -6   5 268.171 426.768   3
   0   6   5 651.943 642.205   4
   0  -6   6 292.983 506.925   3
   0   6   6-352.430 354.753   4
   0   6   7 21396.3 2482.60   4
   0  -6   7 20287.6 2470.00   3
   0  -6   8 2341.74 877.803   3
   0   6   8 1318.13 708.642   4
   0  -6   9 18417.5 2515.04   3
   0  -6  10 155.341 307.702   3
   0  -6  11 1349.11 881.142   3
   0  -6  12 72.4962 409.772   3
   0   7   0 421.193 543.060   4
   0   7   1 2341.46 836.406   4
   0   7  -1 2804.33 1046.78   4
   0   7  -2 15954.0 2239.38   4
   0   7   2 15213.0 2205.05   4
   0   7   3 3149.12 1032.58   4
   0   7   4 4721.81 1377.17   4
   0   7   5 2863.06 1058.70   4
   0   7   6 946.734 686.179   4
   0   7   7 4720.39 1257.35   4
   0   7   8 64.3949 515.833   4
   0  -7   8 1844.22 1051.08   3
   0  -7   9 286.367 522.550   3
   0  -7  10 15995.6 2709.20   3
  -1   0  18-490.621 352.894   3
  -1   0  17 376.233 263.940   3
  -1   0  16 45.1524 461.025   3
  -1   0  15 667.294 699.586   3
  -1   0  14 91124.7 3886.63   1
  -1   0  14 88682.3 4813.04   3
  -1   0  13 413.211 397.225   1
  -1   0  13 2656.60 846.530   3
  -1   0  12 124531. 5299.37   3
  -1   0  12 117181. 4262.24   1
  -1   0  11 129.916 153.861   1
  -1   0  11 109.763 282.143   3
  -1   0  10 1306.91 475.640   3
  -1   0  10 844.686 318.004   1
  -1   0   9 54.5131 94.8326   1
  -1   0   8 6829.24 809.388   1
  -1   0   7 220.972 207.766   1
  -1   0   6 26361.1 1499.11   1
  -1   0   5 212.481 153.444   1
  -1   0   4 26770.0 1393.69   1
  -1   0   3 628.076 202.941   2
   1   0   2 213144. 4523.02   3
  -1   0  -2 211895. 4520.11   3
  -1   0  -3 136.404 151.913   3
  -1   0  -3 167.791 91.9100   1
   1   0   3 113.943 138.620   3
  -1   0  -4 4129.24 401.783   1
   1   0   4 3685.82 547.507   3
  -1   0  -4 4511.99 617.473   3
  -1   0  -5-38.8014 147.658   3
  -1   0  -5 318.255 147.962   1
   1   0   5-16.4532 161.897   3
  -1   0  -6 343302. 6758.01   1
   1   0   6 344755. 7946.47   3
   1   0   7 209.773 232.624   3
  -1   0  -7-6.53566 87.5133   2
  -1   0  -7-117.921 148.144   1
   1   0   8 792805. 15733.3   3
  -1   0  -8 776301. 14355.2   1
   1   0   9 1705.16 783.537   3
  -1   0  -9 191.511 189.918   1
   1   0  10 116995. 4955.14   3
   1   0  11 650.038 682.172   3
   1   0  12 779.167 505.099   3
   1   0  13 962.164 655.034   3
   1   0  14 12339.4 1890.09   3
   1   0  15 955.886 667.370   3
   1   0  16 25023.8 2889.37   3
   1   0  17 849.010 747.178   3
   1   0  18 2553.69 1085.57   3
  -1  -1  18 128.673 348.481   3
  -1   1  18-192.900 580.621   3
  -1  -1  17 917.290 501.859   3
  -1   1  17 26.6801 256.669   3
  -1   1  16 10353.1 1676.95   3
  -1  -1  16 11730.6 1971.23   3
  -1  -1  15 6428.84 1382.43   3
  -1   1  15 5218.17 1129.41   3
  -1  -1  15 6024.65 1102.70   1
  -1  -1  14 24243.2 2160.35   1
  -1   1  14 26280.9 2413.83   3
  -1  -1  14 24856.7 2605.92   3
  -1  -1  13-11.8229 426.668   3
  -1   1  13 1395.29 580.514   3
  -1   1  13 653.373 292.350   1
  -1  -1  13 589.957 456.913   1
  -1  -1  12 3489.45 772.122   1
  -1   1  12 4606.18 713.778   1
  -1   1  12 4248.27 931.217   3
  -1  -1  12 4984.13 1084.02   3
  -1  -1  11 68652.8 3852.90   3
   1  -1 -11 70359.2 3123.39   2
  -1  -1  11 65365.3 3271.35   1
  -1   1  11 69865.4 3486.90   3
  -1   1  11 65242.7 2717.12   1
   1  -1 -11 63538.4 2563.81   4
  -1  -1  10 15309.7 1689.79   3
   1  -1 -10 11843.5 990.316   4
  -1   1  10 12917.4 1118.59   1
  -1   1  10 11507.8 1328.45   3
  -1  -1  10 12282.7 1318.80   1
   1  -1 -10 14199.3 1282.12   2
  -1   1   9 13498.8 1120.32   1
  -1  -1   9 14532.7 1579.91   3
  -1  -1   9 12714.4 1287.41   1
   1  -1  -9 14037.0 1016.31   4
   1  -1  -8 263229. 5628.03   4
  -1   1   8 272182. 6304.29   1
  -1  -1   8 257002. 6750.12   1
  -1  -1   7 95903.6 3536.58   1
   1  -1  -7 98618.7 2712.96   4
   1  -1  -6 776345. 12962.7   4
  -1  -1   6 783367. 14484.3   1
   1   1  -6 793228. 14936.1   1
   1   1  -5 38995.8 2016.51   1
  -1  -1   5 37161.1 1918.11   1
  -1  -1   4 328949. 7023.16   1
  -1   1   4 328458. 6011.13   4
   1   1  -4 318298. 7087.43   1
  -1  -1   3 970609. 16483.6   1
   1   1  -3 967840. 16555.2   1
  -1  -1   2 16540.8 1024.74   1
  -1   1   2 17006.1 956.128   3
   1   1  -2 17292.8 1049.86   1
   1   1  -1 164882. 3564.78   4
  -1   1   1 162800. 3824.56   3
   1   1  -1 163570. 3707.89   1
   1  -1  -1 154961. 3752.00   3
  -1  -1   1 168257. 3767.21   1
  -1  -1   0 481651. 8378.95   1
   1  -1   0 478413. 8781.10   3
   1   1   0 486778. 8643.88   4
  -1  -1   0 481185. 8644.77   4
   1   1   0 490544. 8366.54   1
  -1   1   0 489092. 8688.39   3
   1   1   1 61941.5 1608.63   1
   1  -1   1 62418.2 2105.05   3
   1   1   1 63737.2 1692.19   3
  -1   1  -1 59813.6 2040.72   3
   1   1   1 61893.5 2126.80   4
  -1  -1  -1 61983.4 2141.03   4
  -1  -1  -1 60891.2 1709.52   3
  -1  -1  -1 63183.0 1621.55   1
  -1  -1  -2 715679. 12736.2   4
   1  -1   2 728691. 12566.0   3
   1   1   2 720364. 11685.4   3
  -1  -1  -2 693697. 11453.9   3
  -1   1  -2 705308. 12517.3   3
  -1  -1  -3 1128.39 207.800   3
   1  -1   3 464.293 247.971   3
  -1   1  -3 618.252 270.195   3
  -1  -1  -3 412.640 95.0807   4
  -1   1  -3 776.071 248.010   1
   1   1   3 785.444 212.408   3
   1  -1   4 44799.8 1638.50   2
   1  -1   4 41989.2 2097.29   3
   1   1   4 42275.0 1684.76   3
  -1  -1  -4 41394.4 1624.31   3
  -1   1  -4 40881.3 1863.81   1
  -1   1  -4 40204.9 2032.37   3
   1   1   5 32298.7 1601.15   3
  -1   1  -5 33653.1 1743.88   1
   1  -1   5 30865.6 1391.63   2
   1  -1   5 33914.6 1995.87   3
   1   1   6 6688.22 783.177   3
  -1   1  -6 6309.66 781.846   1
   1  -1   6 8036.40 1028.12   3
   1  -1   7 8936.46 1140.68   3
   1   1   7 6389.15 842.275   3
  -1   1  -7 7643.39 893.368   1
   1   1   8 5726.98 830.035   3
   1  -1   8 4619.41 872.604   3
   1   1   9 15486.6 1503.52   3
   1  -1   9 16815.4 1810.66   3
   1   1  10 10702.0 1308.07   3
   1  -1  10 10232.9 1483.35   3
   1  -1  11 25284.2 2420.48   3
   1   1  11 19292.2 1893.04   3
   1  -1  12 5505.76 1172.06   3
   1   1  12 4818.65 993.879   3
   1   1  13 948.055 656.438   3
   1  -1  13 1297.76 682.062   3
   1  -1  14 33421.4 3222.87   3
   1   1  14 28518.7 2729.97   3
   1   1  15 1827.41 755.705   3
   1  -1  15 3122.75 1179.18   3
   1   1  16 7097.34 1540.67   3
   1  -1  16 8722.48 1823.23   3
   1   1  17 3951.94 1277.69   3
   1  -1  17 3026.43 1088.74   3
  -1  -2  17 14769.7 2445.17   3
  -1  -2  16 5867.27 1486.72   3
  -1  -2  15 1163.51 647.010   3
  -1  -2  15 1771.29 706.821   1
  -1   2  15 2692.72 812.044   3
  -1  -2  14 2071.99 886.525   3
  -1   2  14 2778.42 717.768   3
  -1  -2  14 2084.34 770.547   1
  -1   2  13 470.482 349.282   3
  -1  -2  13 986.995 574.005   3
  -1  -2  13 837.617 426.764   1
  -1  -2  12 7748.42 1225.54   1
  -1  -2  12 6292.11 1252.50   3
  -1   2  12 6732.36 1054.57   3
  -1   2  11 11115.1 1262.88   3
  -1  -2  11 13058.5 1582.91   1
  -1  -2  11 11945.9 1665.42   3
  -1   2  11 12304.7 1093.58   1
  -1  -2  10 9306.33 1392.02   3
  -1   2  10 9480.40 983.657   1
  -1  -2  10 7844.05 1198.75   1
  -1   2  10 10710.0 1177.05   3
  -1  -2   9 120925. 5034.13   3
  -1  -2   9 111623. 4613.88   1
  -1  -2   8 11584.6 1412.48   3
  -1  -2   8 11205.0 1325.65   1
  -1  -2   7 30726.1 2169.91   3
  -1  -2   7 30811.1 2136.96   1
  -1   2   6 20520.3 1392.83   4
  -1  -2   6 21209.0 1672.94   1
  -1  -2   5 127924. 4396.98   1
  -1   2   5 139487. 3848.91   4
  -1   2   4 8854.13 812.233   4
  -1  -2   4 9401.02 1041.82   1
  -1   2   4 10994.2 843.163   3
  -1   2   3 127828. 3477.90   3
   1   2  -3 132562. 4141.67   1
  -1  -2   3 134884. 4171.58   1
   1   2  -2 117471. 3691.99   1
  -1   2   2 116056. 3029.17   3
  -1  -2   2 116744. 3683.54   1
   1  -2  -2 115128. 3046.94   3
  -1   2   1 122854. 3131.33   3
  -1  -2   1 120788. 3657.56   1
   1   2  -1 129089. 3677.22   1
   1  -2  -1 121259. 3420.99   3
  -1   2   0 60221.9 2091.15   3
   1   2   0 60384.1 2241.17   1
  -1  -2   0 55697.7 2204.05   1
   1   2   0 59585.0 2364.56   4
   1  -2   0 58204.4 2193.90   3
   1   2   1 2375.55 381.523   1
   1  -2   1 2632.98 470.135   3
  -1   2  -1 2646.15 440.670   3
  -1  -2  -1 2844.23 429.010   1
   1   2   1 3590.60 581.776   4
  -1  -2  -2 150561. 4303.52   4
   1  -2   2 152847. 4305.61   3
  -1   2  -2 146280. 4401.20   1
   1   2   2 147230. 3526.13   1
   1   2   2 149022. 4353.40   4
  -1   2  -2 144650. 4115.03   3
   1   2   3 602498. 12006.5   4
  -1   2  -3 610067. 11837.6   3
  -1  -2  -3 597730. 11876.5   4
   1   2   3 610709. 10334.6   1
   1  -2   3 612557. 11985.3   3
   1  -2   4 244143. 6447.57   3
   1   2   4 239926. 4587.74   1
   1   2   4 241994. 4786.41   3
   1   2   5 385531. 7447.76   3
   1   2   5 395868. 6636.06   1
   1   2   6 84440.6 2754.52   3
   1  -2   6 93675.3 3990.79   3
   1   2   7 420.327 215.906   3
   1  -2   7 249.401 285.099   3
   1   2   8 50822.9 2400.32   3
   1  -2   8 52091.2 2062.74   2
   1  -2   8 52469.1 3281.62   3
   1   2   9 516.553 278.281   3
   1  -2   9 456.550 478.423   3
   1  -2  10 48625.5 3438.69   3
   1   2  10 47688.6 2640.61   3
   1   2  11 74599.2 3577.88   3
   1  -2  11 75916.6 4554.34   3
   1  -2  12 26970.9 2783.00   3
   1   2  12 20883.5 1946.60   3
   1   2  13 37124.4 2749.27   3
   1  -2  13 41626.0 3629.52   3
   1  -2  14 6189.20 1491.63   3
   1   2  14 6019.64 1150.45   3
   1  -2  15 1670.95 1041.10   3
   1  -2  16 3278.46 1121.10   3
  -1  -3  16 257.899 527.714   3
  -1  -3  15 2295.69 885.154   3
  -1  -3  14 6518.04 1488.52   3
  -1  -3  13 11949.3 1738.78   1
  -1  -3  13 12245.3 1905.76   3
  -1  -3  12 29977.3 2902.44   3
  -1  -3  12 26820.0 2618.30   1
  -1   3  12 26952.6 1914.31   3
  -1  -3  11 86253.4 4814.59   3
  -1  -3  11 78028.8 4418.81   1
  -1   3  11 83656.7 3281.61   3
  -1  -3  10 95599.3 4787.16   1
  -1  -3  10 101794. 5036.74   3
  -1   3  10 100538. 3419.68   3
  -1  -3   9 33448.4 2697.73   1
  -1   3   9 34181.2 1777.46   3
  -1  -3   9 38671.1 2899.95   3
  -1  -3   8 972.505 459.670   3
  -1   3   8 681.785 235.416   3
  -1   3   8 1328.10 434.171   4
  -1  -3   8 293.502 448.914   1
  -1   3   7 16800.7 1497.11   4
  -1  -3   7 17570.3 1727.83   3
  -1  -3   7 17161.9 1799.55   1
  -1   3   6 572.076 315.989   4
  -1  -3   6 965.837 383.533   3
  -1   3   6 1555.29 319.116   3
  -1  -3   6 368.587 224.178   1
  -1  -3   5 135107. 5088.80   1
  -1   3   5 136275. 4424.79   4
  -1  -3   5 138807. 4723.15   3
  -1   3   5 126819. 3488.71   3
  -1  -3   4 176204. 5718.64   1
  -1   3   4 168873. 3762.13   3
  -1   3   4 173956. 5020.99   4
  -1  -3   4 170764. 5114.51   3
  -1  -3   3 260970. 7200.65   1
  -1  -3   3 260334. 6395.76   3
  -1   3   3 260881. 5108.75   3
  -1   3   2 176796. 3986.56   3
   1  -3  -2 173233. 4508.42   3
  -1  -3   2 183741. 4703.14   3
  -1  -3   1 147146. 3803.66   3
  -1  -3   1 143643. 4737.93   1
  -1   3   1 143949. 3679.74   3
   1  -3  -1 153364. 4281.51   3
   1  -3   0 3932.62 608.888   3
   1   3   0 3477.82 699.535   4
  -1  -3   0 3599.23 436.375   3
  -1   3   0 3760.12 526.011   3
   1   3   1 36128.0 2173.61   4
   1   3   1 36511.0 1977.10   1
  -1  -3  -1 32640.3 1117.65   3
  -1   3  -1 33762.2 1795.41   3
   1  -3   1 33568.5 1934.53   3
   1   3   2 7700.83 1011.21   4
   1   3   2 8713.59 901.585   1
   1  -3   2 7764.45 971.596   3
   1   3   3 13778.6 1080.86   1
   1   3   3 12744.1 1339.78   4
   1  -3   3 12913.4 1319.23   3
   1  -3   4 58985.3 3038.06   3
   1   3   4 58627.0 2247.44   1
   1   3   4 58337.3 3036.49   4
   1   3   5 61758.9 2185.05   1
   1   3   5 57801.1 3175.69   4
   1  -3   5 61612.8 3285.89   3
   1   3   6 127111. 3171.09   1
   1   3   6 117075. 2906.74   3
   1  -3   6 127223. 5122.66   3
   1   3   7 24938.5 1077.82   1
   1  -3   7 24941.1 2249.36   3
   1   3   7 24117.7 1279.82   3
   1  -3   8-128.078 427.189   3
   1   3   8-38.9231 163.649   3
   1   3   9 8229.04 904.803   3
   1  -3   9 9148.53 1513.24   3
   1  -3  10 36552.7 3160.40   3
   1   3  10 34128.6 2017.39   3
   1  -3  11 22515.1 2569.83   3
   1  -3  12 1155.64 687.464   3
   1  -3  13 2479.73 922.937   3
   1  -3  14 8209.42 1765.34   3
   1  -3  15 776.268 676.873   3
  -1  -4  15 7751.16 1753.69   3
  -1  -4  14 4940.21 1290.91   3
  -1  -4  13 12066.6 2022.33   3
  -1  -4  12 3664.78 1087.96   3
  -1  -4  11 6790.95 1339.42   3
  -1  -4  10 9766.70 1604.17   3
  -1  -4   9 2014.83 784.460   3
  -1   4   9 2140.35 695.162   4
  -1  -4   9 2166.67 749.235   1
  -1  -4   8 15140.4 1954.85   1
  -1   4   8 15200.7 1696.39   4
  -1  -4   8 17413.3 1973.62   3
  -1  -4   7 2514.50 787.250   3
  -1   4   7 1673.80 538.178   4
  -1  -4   7 2868.92 835.076   1
  -1  -4   6 30544.7 2612.59   1
  -1   4   6 30593.5 2264.77   4
  -1  -4   6 29629.5 2310.18   3
  -1   4   5 4570.00 877.653   4
  -1  -4   5 5297.72 950.799   3
  -1   4   4 110817. 2371.78   3
  -1   4   4 119525. 4529.40   4
  -1  -4   4 122393. 4465.85   3
  -1  -4   3 3084.93 632.516   3
  -1   4   3 2600.75 340.824   3
  -1   4   2 5679.81 590.949   3
   1  -4  -2 4321.20 674.005   3
  -1  -4   2 5955.17 798.157   3
  -1   4   1 50096.3 2051.88   3
   1  -4  -1 51181.2 2545.57   3
   1   4  -1 49572.2 2888.29   4
  -1  -4   1 53106.2 2287.28   3
   1   4   0 115155. 4529.00   4
  -1   4   0 103414. 3450.75   3
  -1  -4   0 107287. 3156.15   3
   1  -4   0 107479. 3992.39   3
   1   4   1 89101.7 3997.56   4
   1  -4   1 86846.5 3631.40   3
  -1  -4  -1 84044.4 2375.99   3
   1   4   2 7122.77 1116.03   4
   1  -4   2 5738.93 939.775   3
   1   4   3 72516.5 3704.97   4
   1  -4   3 70667.1 3522.13   3
   1  -4   4 64888.3 3523.39   3
   1   4   4 67204.5 3659.32   4
   1   4   5 45968.7 3051.55   4
   1  -4   5 45222.4 3020.25   3
   1  -4   6 220.662 369.522   3
   1   4   6 606.838 246.142   4
   1  -4   7 51583.9 3540.42   3
   1  -4   8 15870.9 2045.16   3
   1  -4   9 44513.3 3536.05   3
   1  -4  10 4336.42 1173.81   3
   1  -4  11 18292.5 2509.48   3
   1  -4  12 26225.6 3033.17   3
   1  -4  13 5143.92 1429.92   3
   1  -4  14 1032.72 443.191   3
  -1  -5  14 1253.72 872.142   3
  -1  -5  13 5214.16 1454.36   3
  -1  -5  12 2273.57 913.960   3
  -1  -5  11 1528.66 855.322   3
  -1  -5  10 2807.40 1098.31   3
  -1  -5   9 7578.82 1533.60   3
  -1   5   9 6851.28 1273.99   4
  -1  -5   8 5410.65 1144.54   3
  -1   5   8 4751.22 1080.75   4
  -1  -5   7 107880. 5224.31   3
  -1   5   7 102975. 4956.19   4
  -1   5   6 12107.8 1592.55   4
  -1  -5   6 11417.6 1624.84   3
  -1   5   5 61137.0 3609.58   4
  -1  -5   5 67444.3 3704.64   3
  -1   5   4 887.055 547.772   4
  -1  -5   4 974.325 403.790   3
  -1   5   3 2565.81 763.621   4
  -1  -5   3 1843.22 451.384   3
   1  -5  -2 2990.10 548.329   3
  -1  -5   2 2724.33 646.691   3
  -1  -5   1 27918.7 1830.57   3
   1   5  -1 29079.9 2442.36   4
   1  -5  -1 33021.2 2204.48   3
   1  -5   0 6255.49 1009.48   3
  -1  -5   0 5278.09 705.216   3
   1   5   0 6888.94 1212.24   4
   1  -5   1 161400. 5721.88   3
  -1  -5  -1 150669. 3879.64   3
   1   5   1 158600. 6165.19   4
   1  -5   2 15605.5 1699.63   3
   1   5   2 16273.5 1870.53   4
   1  -5   3 43390.9 2999.26   3
   1   5   3 40877.7 3063.93   4
   1  -5   4 412.504 437.603   3
   1   5   4 423.513 497.006   4
   1   5   5 10082.2 1584.16   4
   1  -5   5 10753.8 1626.25   3
   1   5   6 20512.0 2282.43   4
   1  -5   6 19993.6 2277.84   3
   1  -5   7 5145.65 1150.59   3
   1   5   7 3000.24 893.423   4
   1  -5   8 7416.82 1528.07   3
   1  -5   9 7182.65 1519.55   3
   1  -5  10 1372.30 756.523   3
   1  -5  11 1799.00 858.890   3
   1  -5  12 724.953 727.716   3
   1  -5  13 4468.98 1483.73   3
  -1  -6  12 591.007 453.107   3
  -1  -6  11 794.314 839.089   3
  -1   6  10 518.277 246.299   4
  -1  -6  10 1389.55 835.943   3
  -1   6   9 7050.64 1516.79   4
  -1  -6   9 7532.99 1592.70   3
  -1   6   8 3593.33 1029.15   4
  -1  -6   8 4930.05 1377.96   3
  -1   6   7-84.4850 200.761   4
  -1  -6   7 1048.19 698.405   3
  -1  -6   6 1215.46 728.994   3
  -1   6   6 422.488 563.384   4
  -1   6   5 15718.0 1951.68   4
  -1  -6   5 16238.3 1956.90   3
  -1   6   4 2269.11 782.958   4
  -1  -6   4 2728.56 795.600   3
  -1  -6   3 764.311 362.248   3
   1   6  -3 1119.11 624.468   4
  -1   6   3 1078.03 561.877   4
   1   6  -2 1220.73 577.553   4
  -1   6   2 1683.19 762.464   4
   1   6  -1 34791.4 3016.05   4
   1   6   0 919.594 727.623   4
   1  -6   1 36437.4 2807.58   3
   1   6   1 33125.3 3003.94   4
   1  -6   2 3764.16 1015.72   3
   1   6   2 3530.97 910.361   4
   1  -6   3 459.337 565.579   3
   1   6   3 757.591 778.848   4
   1  -6   4 15728.7 2090.75   3
   1   6   4 20047.2 2416.96   4
   1  -6   5-51.4668 574.538   3
   1   6   5 462.135 394.779   4
   1  -6   6 2046.17 732.581   3
   1   6   6 3293.34 1036.89   4
   1  -6   7 42950.6 3739.41   3
   1   6   7 36044.5 3414.88   4
   1  -6   8 869.366 727.895   3
   1  -6   9 20797.0 2748.64   3
   1  -6  10 4893.48 1542.19   3
   1  -6  11 974.950 647.268   3
  -1  -7  11 809.135 573.879   3
  -1  -7  10 5307.77 1595.26   3
  -1   7  10 4840.31 1314.71   4
  -1   7   9 2416.91 703.785   4
  -1  -7   9 4366.39 1568.86   3
  -1   7   8-683.400 449.670   4
  -1   7   7 3184.88 967.964   4
   1   7  -6 484.512 451.953   4
  -1   7   6 664.461 711.716   4
   1   7  -5 3733.62 1195.47   4
  -1   7   5 2497.33 1012.42   4
   1   7  -4 16480.2 2295.98   4
  -1   7   4 15445.2 2164.69   4
  -1   7   3 2640.38 1022.96   4
   1   7  -3 3744.45 1195.01   4
  -1   7   2 24001.9 2674.05   4
   1   7  -2 29257.5 3037.66   4
   1   7  -1 3404.65 1104.23   4
  -1   7   1 2773.01 993.083   4
   1   7   0 969.905 802.454   4
   1   7   1 3122.04 1040.57   4
   1   7   2 1275.21 762.553   4
   1   7   3 2536.05 951.159   4
   1   7   4 1893.24 872.485   4
   1   7   5 204.821 272.985   4
   1   7   6 2975.95 1147.43   4
   1  -7   7 686.045 747.595   3
   1   7   7-176.325 432.187   4
   1  -7   8-2168.87 960.577   3
   1  -7   9 1363.49 845.210   3
   1  -7  10 2448.29 785.001   3
  -2   0  18 636.989 668.054   3
  -2   0  17-373.940 346.257   3
  -2   0  16 7943.84 1574.28   3
  -2   0  15 627.814 656.763   3
  -2   0  15-416.991 387.219   1
  -2   0  14 95615.4 4253.23   1
  -2   0  14 95891.6 5017.73   3
  -2   0  13 112.948 257.363   1
  -2   0  13 563.003 463.396   3
  -2   0  12 107537. 4362.15   1
  -2   0  11 218.656 329.433   1
   2   0 -11-3.09962 52.2012   4
   2   0 -10 2647.10 300.211   4
  -2   0  10 4130.91 742.259   1
   2   0  -9 40.5540 22.4886   4
  -2   0   9 585.656 316.996   1
  -2   0   8 27617.6 1911.80   1
  -2   0   7 1638.26 457.821   1
  -2   0   6 750803. 14537.7   1
  -2   0   5 263.935 219.243   2
  -2   0   4 999999. 18154.3   2
  -2   0   3 62.6588 223.306   2
  -2   0   2 36786.4 2424.03   2
  -2   0   1 524.610 217.575   3
   2   0  -1 417.550 196.897   3
  -2   0   0 63037.0 2598.93   3
   2   0   0 56227.8 2402.63   3
  -2   0  -1 1325.75 377.626   3
   2   0   1 642.165 337.925   3
   2   0   2 57425.0 2420.65   3
  -2   0  -2 53977.8 2335.86   3
   2   0   3 96.9647 195.688   3
  -2   0  -3-12.2627 126.946   3
   2   0   4 95822.8 3478.98   3
  -2   0  -4 93956.5 3378.17   3
   2   0   5 526.460 281.398   3
  -2   0  -5 102.912 120.541   1
  -2   0  -6 127703. 3302.98   1
   2   0   6 130942. 4585.85   3
  -2   0  -7 48.7365 154.851   1
   2   0   7 7.14754 186.989   3
  -2   0  -7-82.6936 161.809   2
  -2   0  -8 256799. 5916.90   1
  -2   0  -8 269819. 6576.96   2
   2   0   8 267620. 7691.06   3
  -2   0  -9-27.6501 95.4506   1
  -2   0  -9 324.005 200.672   2
   2   0  10 10547.8 1520.16   3
   2   0  11 42.8143 235.923   3
   2   0  12 1785.75 789.155   3
   2   0  13-436.734 239.926   3
   2   0  14 30631.3 3062.81   3
   2   0  15 905.460 916.704   3
   2   0  16 39008.9 3712.43   3
   2   0  17 90.2461 381.321   3
  -2   1  19-229.375 415.505   3
  -2   1  18 4460.51 1164.17   3
  -2  -1  18 4367.26 1422.69   3
  -2   1  17 5322.32 1247.22   3
  -2  -1  17 3971.77 1125.07   3
  -2   1  16 58.8737 573.415   3
  -2  -1  16 67.1251 468.933   3
  -2  -1  15 15853.3 1846.42   1
  -2   1  15 18261.4 2132.58   3
  -2  -1  15 18033.6 2295.13   3
  -2   1  14-15.1836 316.204   3
  -2  -1  14 74.7903 247.499   1
  -2   1  14-289.688 271.711   1
  -2   1  13 379.897 183.768   1
  -2  -1  13 538.210 368.500   1
  -2  -1  13-43.4647 455.340   3
  -2   1  13 642.491 522.219   3
  -2  -1  12 28040.8 2276.55   1
  -2  -1  12 28192.3 2548.10   3
  -2   1  12 28252.6 2034.01   1
  -2  -1  11 17502.6 1709.39   1
  -2   1  11 14514.1 1423.25   1
   2  -1 -11 17223.3 1811.19   2
   2  -1 -10 2487.58 684.795   2
  -2   1  10 1769.86 515.947   1
  -2  -1  10 1457.80 508.715   1
  -2  -1   9 2589.15 593.168   1
   2  -1  -9 2337.83 633.313   2
  -2   1   9 3267.75 693.575   1
  -2  -1   9 2862.13 504.633   2
  -2  -1   8 192946. 5897.91   1
  -2  -1   8 180286. 5398.52   2
  -2  -1   7 9293.07 1117.62   1
   2  -1  -7 10516.2 1178.20   2
  -2  -1   6 138317. 4655.40   1
  -2   1   6 147084. 3151.74   4
  -2  -1   5 9036.48 1026.69   1
  -2   1   5 9163.49 541.168   4
   2   1  -5 9099.41 632.412   4
   2   1  -5 10359.4 1130.53   1
   2   1  -4 865.200 291.566   1
   2   1  -4 1176.17 250.801   4
   2   1  -3 279082. 5625.38   4
  -2  -1   3 291400. 6740.99   1
  -2   1   3 293111. 6568.89   3
   2   1  -3 288123. 6727.53   1
   2  -1  -2 171346. 4540.50   3
  -2   1   2 173269. 4751.95   3
  -2  -1   2 169251. 4568.54   1
   2   1  -2 170734. 4546.09   1
   2   1  -2 165487. 3965.87   4
  -2  -1   2 167852. 3959.17   4
  -2   1   1 56653.8 2561.01   3
  -2  -1   1 56500.1 2144.27   4
   2  -1  -1 56276.0 2481.68   3
  -2  -1   1 59489.1 2315.72   1
  -2  -1   0 856825. 14622.8   3
   2  -1   0 863289. 15318.4   2
  -2   1   0 839928. 15365.8   3
   2  -1   0 852391. 15495.8   3
  -2  -1   0 825830. 15063.6   4
  -2  -1   0 825062. 14549.4   1
  -2  -1  -1 124690. 3198.40   1
   2  -1   1 127305. 3932.72   2
   2   1   1 111094. 3440.72   3
  -2   1  -1 119940. 3834.65   3
   2  -1   1 124342. 3934.08   3
  -2  -1  -1 120654. 3570.88   3
  -2   1  -2 822870. 14991.6   3
  -2  -1  -2 829154. 14224.3   3
   2  -1   2 816586. 15010.2   3
   2   1   2 798607. 14602.5   3
   2  -1   2 774449. 14819.1   2
  -2  -1  -2 823888. 13363.6   1
  -2  -1  -3 27989.4 1495.49   3
   2  -1   3 25598.3 1742.95   3
  -2  -1  -3 26887.3 967.262   1
   2   1   3 26993.0 1574.54   3
  -2   1  -3 27109.2 1758.02   3
   2  -1   3 28225.5 1751.16   2
   2   1   4 230498. 5752.59   3
   2  -1   4 225925. 6149.03   2
   2  -1   4 248088. 6484.64   3
  -2  -1  -4 229631. 5548.27   3
  -2   1  -5 278903. 6582.22   1
   2  -1   5 294037. 7563.28   3
   2   1   5 275561. 6717.04   3
  -2  -1  -5 281728. 6566.94   3
   2   1   6 38487.1 2187.23   3
   2  -1   6 42759.2 2635.28   3
  -2   1  -6 40597.6 2112.63   1
   2   1   7 47361.0 2571.03   3
   2  -1   7 51380.4 3047.81   3
   2   1   8 103711. 4176.25   3
   2  -1   8 110468. 4781.48   3
   2   1   9 5814.98 949.800   3
   2  -1   9 7356.96 1222.72   3
   2   1  10 106385. 4697.07   3
   2  -1  10 113036. 5306.19   3
   2   1  11 772.828 354.110   3
   2  -1  11 1160.22 596.938   3
   2   1  12 8161.78 1353.49   3
   2  -1  12 6737.96 1402.87   3
   2  -1  13 7952.88 1546.81   3
   2   1  13 8812.59 1454.64   3
   2  -1  14 853.414 577.559   3
   2   1  14 556.885 444.378   3
   2   1  15 2926.33 847.033   3
   2  -1  15 2840.23 969.803   3
   2   1  16-102.378 279.928   3
   2  -1  16 850.147 627.677   3
  -2  -2  17 20895.3 2811.26   3
  -2   2  16 10331.2 1579.53   3
  -2  -2  16 11432.9 1971.65   3
  -2  -2  16 8766.36 1555.39   1
  -2  -2  15 1206.13 617.115   1
  -2  -2  15 769.369 604.252   3
  -2   2  15 848.474 576.902   3
  -2   2  14 15577.3 1738.00   3
  -2  -2  14 14131.1 2043.76   3
  -2  -2  14 15280.9 1922.27   1
  -2  -2  13 7215.98 1314.81   1
  -2  -2  13 8029.04 1515.60   3
  -2   2  13 8201.14 1205.37   3
  -2  -2  12 25453.4 2339.91   1
  -2  -2  12 21098.8 2338.39   3
  -2   2  12 22939.8 1843.11   1
  -2  -2  11 52542.8 2471.08   2
  -2  -2  11 56692.4 3657.59   3
  -2  -2  11 60858.6 3553.64   1
  -2  -2  10 101662. 4613.90   1
  -2  -2   9 243692. 7443.71   1
  -2  -2   8 78920.5 3782.33   1
  -2   2   7 37019.1 1792.16   4
  -2  -2   7 36126.5 2409.29   1
  -2   2   6 12516.0 962.749   4
  -2  -2   6 13594.7 1418.60   1
  -2   2   5 6611.93 854.125   3
  -2  -2   5 7060.69 987.974   1
   2   2  -4 65701.9 2503.50   4
  -2  -2   4 62957.8 2947.80   1
  -2   2   4 62487.8 2769.38   3
   2   2  -3 65124.1 2506.69   4
  -2   2   3 62521.2 2847.74   3
  -2  -2   3 61401.4 2799.64   1
   2  -2  -2 104936. 3631.59   3
  -2   2   2 106979. 3721.16   3
   2   2  -2 112130. 3526.70   4
  -2  -2   2 107014. 3670.18   1
   2   2  -2 108046. 3680.05   1
  -2   2   1 328490. 7537.48   3
  -2  -2   1 347529. 7533.36   1
   2  -2  -1 321995. 7956.19   3
   2   2  -1 346006. 7540.22   4
   2   2  -1 336999. 7428.39   1
  -2   2   0 37430.2 2017.17   3
   2   2   0 37030.2 1819.97   1
  -2  -2   0 39584.5 1878.22   1
   2   2   0 38817.6 2068.89   4
  -2  -2   0 40238.5 2088.43   4
   2  -2   0 36629.0 2121.72   3
  -2   2  -1 12726.4 1175.71   3
   2   2   1 12721.0 1209.44   4
   2  -2   1 11848.2 1190.56   3
   2   2   1 12968.4 961.322   1
  -2  -2  -1 11980.0 941.190   1
  -2  -2  -1 12087.6 891.627   3
  -2  -2  -2 20489.0 1135.52   1
  -2  -2  -2 19712.1 1118.45   3
   2  -2   2 19368.1 1568.37   3
   2   2   2 19844.8 1116.52   1
   2  -2   3 205201. 5977.66   3
   2   2   3 193559. 4753.09   3
  -2  -2  -3 189577. 4300.97   3
   2   2   3 199353. 4242.49   1
  -2  -2  -3 193943. 4129.36   1
   2  -2   4 5187.38 902.310   3
   2   2   4 4913.89 669.344   3
  -2  -2  -4 4232.61 511.390   3
   2   2   5 17837.7 1306.81   3
   2  -2   5 15722.3 1611.98   3
   2  -2   5 19615.0 1480.41   2
  -2  -2  -5 15135.1 1060.80   3
   2  -2   6 5630.63 1044.99   3
   2   2   6 6525.56 843.223   3
  -2  -2  -6 6198.17 720.570   3
   2  -2   6 6555.90 882.359   2
   2   2   7 36519.8 2086.46   3
   2  -2   7 35399.3 2695.77   3
   2  -2   7 35855.0 2100.62   2
   2   2   8 782.324 337.435   3
   2  -2   8 1528.38 630.852   3
   2   2   9 4862.99 798.110   3
   2  -2   9 4941.18 1061.00   3
   2   2  10 21252.0 1869.97   3
   2  -2  10 21149.1 2363.41   3
   2   2  11 91912.9 4325.04   3
   2  -2  11 103407. 5562.81   3
   2   2  12 15864.8 1819.95   3
   2  -2  12 17075.3 2316.29   3
   2   2  13 30426.6 2620.09   3
   2  -2  13 26943.8 3033.49   3
   2  -2  14 4728.63 1458.85   3
   2  -2  15-432.952 753.669   3
  -2  -3  17 2820.30 1010.70   1
  -2  -3  16 4653.46 1281.47   1
  -2  -3  16 5815.90 1578.19   3
  -2  -3  15 2974.72 1080.85   3
  -2  -3  15 6699.92 1447.90   1
  -2  -3  14 1729.34 723.746   3
  -2  -3  14 1897.02 721.241   1
  -2  -3  13 331.720 596.560   1
  -2  -3  13 1208.23 660.044   3
  -2  -3  12 17810.4 2147.60   1
  -2  -3  12 17730.0 2173.94   3
  -2   3  12 16630.9 1517.45   3
  -2  -3  11 4214.94 999.105   1
  -2  -3  11 6012.42 1239.01   3
  -2  -3  10 30787.9 2661.12   1
  -2  -3  10 26826.4 2518.59   3
  -2   3   9 1686.15 468.485   4
  -2  -3   9 1200.89 580.817   1
  -2  -3   9 1185.51 579.993   3
  -2   3   8 13940.3 1391.93   3
  -2  -3   8 12545.3 1610.47   1
  -2   3   8 11726.4 1234.22   4
  -2   3   7 18974.5 1496.41   4
  -2   3   7 18770.2 1595.81   3
  -2  -3   7 16265.6 1802.89   1
  -2  -3   6 12952.8 1551.46   1
  -2   3   6 13494.7 1228.33   4
  -2   3   6 13270.8 1310.92   3
  -2   3   5 38176.4 2235.93   3
  -2  -3   5 38351.7 2592.22   1
  -2  -3   4 165717. 5691.07   1
  -2   3   4 169039. 4933.31   3
  -2   3   3 358725. 7988.09   3
  -2  -3   3 371019. 9127.68   1
   2   3  -3 376868. 8639.24   4
   2  -3  -3 359088. 8052.02   3
  -2   3   2 219479. 5577.27   3
   2  -3  -2 203428. 5900.46   3
   2   3  -2 219306. 6137.88   4
  -2  -3   2 213215. 6287.40   1
  -2  -3   1 194156. 5735.35   1
  -2   3   1 190175. 5163.41   3
   2  -3  -1 185470. 5780.07   3
   2   3  -1 188388. 5688.87   4
   2  -3   0 120.196 151.507   3
   2   3   0 757.475 354.475   4
  -2   3   0 1009.82 409.682   3
  -2  -3   0 269.972 264.570   1
   2  -3   1 38139.6 2380.50   3
   2   3   1 37293.1 2364.18   4
  -2  -3  -1 37754.6 1538.26   3
   2   3   1 39712.6 2087.98   1
  -2  -3  -1 33878.8 1993.11   1
  -2  -3  -2 411.623 135.137   3
   2   3   2 626.636 251.186   1
   2  -3   2 137.486 186.805   3
   2   3   2 570.502 370.581   4
   2   3   3 112075. 3372.64   1
  -2  -3  -3 99650.8 2152.79   3
   2   3   3 114044. 4554.29   4
   2  -3   3 106998. 4416.44   3
   2   3   4 119261. 3357.43   1
   2  -3   4 117032. 4814.54   3
   2   3   5 243848. 5063.32   1
   2   3   5 233285. 4990.88   3
   2  -3   5 225519. 7399.14   3
   2  -3   6 100883. 4748.33   3
   2   3   6 93236.4 3086.91   3
   2   3   7 91393.7 3350.16   3
   2  -3   7 101013. 4947.54   3
   2  -3   8 5613.18 1195.01   3
   2   3   8 6828.67 885.489   3
   2   3   9 323.960 193.886   3
   2  -3   9 944.518 615.766   3
   2  -3  10 1144.11 755.522   3
   2  -3  11 801.861 651.552   3
   2  -3  12 5831.48 1518.51   3
   2  -3  13 8420.72 1772.28   3
   2  -3  14 13717.9 2287.91   3
  -2  -4  15 5383.64 1365.08   3
  -2  -4  14 4461.83 1201.91   1
  -2  -4  14 3936.04 1252.83   3
  -2  -4  13 17172.9 2367.69   3
  -2  -4  13 18732.8 2472.73   1
  -2  -4  12 1376.09 665.802   3
  -2  -4  12 1721.58 746.488   1
  -2  -4  11 30586.0 3012.69   1
  -2  -4  11 27227.7 2772.92   3
  -2   4  10 31253.5 2456.94   4
  -2  -4  10 30487.0 2911.23   1
  -2  -4  10 27925.6 2722.66   3
  -2  -4   9 34265.0 3028.59   1
  -2  -4   9 35112.1 2915.44   3
  -2   4   9 32017.9 2405.00   4
  -2  -4   8 10093.4 1656.86   1
  -2   4   8 10988.1 1335.61   4
  -2  -4   8 10515.4 1507.22   3
  -2  -4   7 35875.2 2986.54   1
  -2   4   7 39037.4 2519.02   4
  -2  -4   7 43820.3 2946.23   3
  -2  -4   6 15046.0 1871.25   1
  -2   4   6 17269.5 1222.63   3
  -2  -4   6 19439.7 1848.98   3
  -2   4   6 17485.4 1635.82   4
  -2  -4   5 79728.9 4280.06   1
  -2  -4   5 77407.8 3652.59   3
  -2   4   5 74846.8 2673.92   3
  -2  -4   4 7982.00 1300.89   1
  -2   4   4 7896.89 795.928   3
   2   4  -4 7092.29 1119.94   4
  -2  -4   4 7503.21 1029.30   3
  -2  -4   3 62162.0 3611.04   1
   2  -4  -3 62543.5 2767.87   3
   2   4  -3 67680.2 3434.23   4
  -2   4   3 64503.6 2516.23   3
  -2  -4   3 59010.0 2830.96   3
   2   4  -2 48587.8 2940.75   4
  -2   4   2 46103.7 2210.83   3
  -2  -4   2 50305.5 2411.72   3
   2  -4  -2 48982.5 2762.81   3
  -2  -4   2 54299.9 3217.02   1
   2  -4  -1 3772.78 798.720   3
   2   4  -1 4675.73 934.833   4
  -2  -4   1 2824.80 511.914   3
  -2  -4   1 3469.78 849.125   1
   2   4   0 82458.2 3982.82   4
  -2  -4   0 77251.4 2533.66   3
   2  -4   0 81380.7 3849.30   3
   2  -4   1 4878.36 974.271   3
  -2  -4  -1 5159.41 539.244   3
   2   4   1 6030.99 1082.92   4
  -2  -4  -1 4188.75 444.460   3
   2  -4   2 9851.66 1311.04   3
   2   4   2 9162.18 1343.39   4
   2   4   3 14314.6 1749.87   4
   2  -4   3 14381.8 1677.41   3
   2   4   4 68934.3 3957.68   4
   2  -4   4 68932.6 3921.36   3
   2   4   5 7498.90 857.851   1
   2  -4   5 6233.57 1213.55   3
   2  -4   6 6156.87 1149.09   3
   2  -4   7 48390.2 3595.34   3
   2  -4   8 51023.0 3860.21   3
   2  -4   9 14502.9 2104.28   3
   2  -4  10 1140.57 712.512   3
   2  -4  11 5450.90 1374.80   3
   2  -4  12 13689.0 2316.09   3
   2  -4  13 9500.79 1960.59   3
  -2  -5  14-239.940 472.099   3
  -2  -5  13 2091.78 925.851   3
  -2  -5  12 7524.56 1703.10   3
  -2  -5  11 13829.4 2140.09   3
  -2   5  10 3860.06 929.619   4
  -2  -5  10 3887.53 1148.60   3
  -2   5   9 2176.23 685.945   4
  -2  -5   9 2448.61 953.809   1
  -2  -5   9 1476.66 630.427   3
  -2  -5   8 2061.40 638.185   3
  -2   5   8 2055.88 703.080   4
  -2  -5   8 2123.55 994.769   1
  -2   5   7 71365.5 3897.92   4
  -2  -5   7 71085.8 4119.01   3
  -2  -5   7 76762.1 4847.93   1
  -2  -5   6 4297.59 959.694   3
  -2   5   6 3589.47 857.868   4
  -2   5   5 17525.7 1820.98   4
  -2  -5   5 18478.5 1860.13   3
   2   5  -5 16508.1 1867.66   4
   2   5  -4 3643.84 958.253   4
  -2  -5   4 3088.40 778.750   3
   2  -5  -3 1370.18 488.126   3
   2   5  -3 1347.97 613.971   4
  -2  -5   3 1025.23 394.333   3
   2   5  -2 2898.28 861.114   4
  -2  -5   2 2967.15 608.673   3
   2  -5  -2 2288.21 552.785   3
   2   5  -1 34246.1 2784.23   4
   2  -5  -1 36912.7 2754.25   3
  -2  -5   1 35655.1 1991.03   3
   2   5   0 19646.3 2141.25   4
   2  -5   0 22621.3 2154.49   3
  -2  -5   0 21908.9 1357.34   3
   2   5   1 133840. 5861.02   4
   2  -5   1 144515. 5896.88   3
   2   5   2 8995.21 1471.40   4
   2  -5   2 11388.8 1624.76   3
   2  -5   3 38330.0 3022.60   3
   2   5   3 41022.0 3253.43   4
   2  -5   4 4400.80 1014.80   3
   2   5   4 5963.71 1221.65   4
   2  -5   5 1618.49 804.949   3
   2   5   5 2088.82 765.637   4
   2  -5   6 66.7723 503.402   3
   2  -5   7 18322.9 2349.62   3
   2  -5   8 3392.17 1015.69   3
   2  -5   9 52068.9 4291.52   3
   2  -5  10 1240.85 1015.00   3
   2  -5  11 8182.85 1711.83   3
   2  -5  12 896.851 993.309   3
  -2  -6  12 191.129 420.151   3
  -2  -6  11-26.9235 688.648   3
  -2  -6  10 6269.96 1518.78   3
  -2   6  10 4427.52 1041.18   4
  -2  -6   9-130.414 513.840   3
  -2   6   9-124.481 299.480   4
  -2   6   8 6045.70 1229.89   4
  -2  -6   8 6629.85 1485.29   3
   2   6  -8 9181.51 1609.51   4
   2   6  -7 19838.0 2299.45   4
  -2  -6   7 20324.2 2286.74   3
  -2   6   7 16129.8 2041.64   4
   2   6  -6 978.019 528.134   4
  -2  -6   6 416.237 470.700   3
  -2   6   6 886.417 791.151   4
   2   6  -5 46547.5 3551.50   4
  -2   6   5 44658.3 3307.60   4
  -2  -6   5 46207.3 3223.21   3
   2   6  -4 557.063 692.743   4
  -2   6   4 49.8488 323.257   4
  -2  -6   4 406.233 308.682   3
   2   6  -3 2168.23 858.026   4
   2   6  -2 11480.5 1774.02   4
   2   6  -1 13424.5 1948.94   4
   2   6   0 4301.02 1075.81   4
   2   6   1 205.513 374.991   4
   2  -6   1 412.235 355.412   3
   2  -6   2 3140.71 969.712   3
   2   6   2 3690.39 1077.53   4
   2   6   3 17243.4 2289.41   4
   2  -6   3 21784.6 2555.02   3
   2  -6   4 4893.55 1202.58   3
   2   6   4 5259.49 1239.27   4
   2   6   5 3837.68 1141.37   4
   2  -6   5 3198.90 977.486   3
   2  -6   6 969.874 603.052   3
   2  -6   7 8788.15 1772.27   3
   2  -6   8 1598.50 637.404   3
   2  -6   9 9110.76 1826.90   3
   2  -6  10 4855.66 1662.85   3
  -2  -7  11 288.816 509.928   3
  -2  -7  10 837.221 552.727   3
   2   7 -10 2058.38 740.004   4
   2   7  -9 1343.90 838.899   4
  -2   7   9 1404.73 901.870   4
   2   7  -8 1767.62 974.229   4
  -2   7   8 1151.56 531.174   4
   2   7  -7 5074.47 1268.38   4
  -2   7   7 2359.90 816.989   4
   2   7  -6 2336.75 889.512   4
  -2   7   6 1249.78 822.043   4
   2   7  -5 1330.51 803.246   4
  -2   7   5 308.274 534.158   4
  -2   7   4 11296.0 1836.87   4
   2   7  -4 12855.6 2061.69   4
  -2   7   3-466.073 211.053   4
   2   7  -3 681.014 603.310   4
   2   7  -2 18674.1 2457.88   4
   2   7  -1 2425.97 940.684   4
   2   7   0 381.902 500.024   4
   2   7   1 6636.24 1604.00   4
   2   7   2-31.4182 303.771   4
   2   7   3 8752.89 1674.29   4
   2   7   4 16747.2 2507.61   4
   2   7   5 1732.63 801.891   4
   2   7   6 13462.1 2267.72   4
   2  -7   7-970.008 842.845   3
   2  -7   8 1024.51 955.509   3
   2  -7   9 2628.48 1148.73   3
  -3   0  18 11384.3 1984.52   3
  -3   0  17-352.760 701.660   3
  -3   0  16 615.161 493.777   3
  -3   0  15-88.1724 259.770   1
  -3   0  14 47853.1 3213.19   1
  -3   0  13 405.014 370.989   1
  -3   0  12 22098.2 2056.63   1
  -3   0  11 310.118 304.131   1
  -3   0  10 7365.92 1128.97   1
  -3   0   9 541.498 375.559   1
  -3   0   8 124767. 5001.01   1
  -3   0   7 65.1938 327.718   2
  -3   0   6 870520. 17421.8   2
  -3   0   5-11.3727 42.2915   4
  -3   0   5 57.3092 345.455   2
  -3   0   4 451840. 11608.0   2
  -3   0   3-236.195 267.061   2
  -3   0   2 37745.2 2133.56   3
  -3   0   2 27056.2 2627.61   2
   3   0  -1 489.306 380.093   3
  -3   0   1 612.726 274.228   3
   3   0   0 179021. 5524.81   3
  -3   0   0 182749. 5718.45   3
  -3   0  -1 205.282 111.696   3
   3   0   1 1656.75 530.089   3
   3   0   2 710599. 14397.5   3
  -3   0  -2 710666. 14152.4   3
   3   0   3 390.008 363.666   3
   3   0   4 475060. 10827.9   3
   3   0   5-14.4944 180.872   3
   3   0   6 9939.25 1270.36   3
  -3   0  -6 8463.52 807.948   1
  -3   0  -7-104.789 116.915   1
   3   0   7 289.130 312.673   3
  -3   0  -7-50.4507 362.476   2
   3   0   8 5770.02 1072.22   3
  -3   0  -8 4769.06 627.048   1
  -3   0  -8 6950.34 1142.29   2
   3   0   9 390.525 464.755   3
  -3   0  -9 393.991 292.558   2
   3   0  10 31775.8 2816.63   3
   3   0  11-692.127 527.988   3
   3   0  12 23956.1 2645.06   3
   3   0  13-657.495 536.284   3
   3   0  14 14378.9 2227.80   3
   3   0  15-773.830 579.640   3
   3   0  16 19057.9 2689.34   3
  -3   1  19-412.129 458.445   3
  -3   1  18 2025.35 829.461   3
  -3  -1  18 3154.41 1092.10   3
  -3   1  17 5594.77 1331.37   3
  -3  -1  17 5019.54 1306.40   3
  -3  -1  16 1246.94 591.947   1
  -3  -1  16 422.442 465.751   3
  -3   1  16 1086.97 558.082   3
  -3  -1  15 18220.4 2321.10   3
  -3  -1  15 13557.0 1818.95   1
  -3  -1  14 20710.6 2163.50   1
  -3   1  14 20235.2 1978.76   1
  -3  -1  13 2648.26 778.397   1
  -3   1  13 2723.84 753.812   1
  -3  -1  12 78071.0 4159.10   1
  -3   1  12 81399.4 4094.22   1
   3   1 -11 16302.8 763.444   4
  -3   1  11 17350.6 1801.53   1
  -3  -1  11 17986.0 1876.67   1
   3   1 -10 84783.1 2150.79   4
  -3  -1  10 95268.2 3779.02   2
  -3  -1  10 89462.7 4279.54   1
  -3  -1   9 64955.6 3430.33   2
  -3  -1   9 66511.1 3597.81   1
   3   1  -9 64641.7 1832.84   4
  -3  -1   8 14021.0 1747.09   2
  -3  -1   8 14412.9 1601.40   1
   3  -1  -8 14778.7 1723.44   2
   3   1  -8 13714.4 779.210   4
  -3   1   7 211490. 3925.64   4
  -3  -1   7 221863. 6805.61   1
   3   1  -7 221860. 4519.95   4
   3   1  -6 1124.76 242.751   4
   3  -1  -6 1640.80 544.769   2
  -3  -1   6 1002.84 360.031   1
  -3  -1   5 2088.02 578.589   1
   3  -1  -5 2664.84 686.583   2
  -3  -1   4 133973. 3480.13   4
   3  -1  -4 142109. 5223.66   2
  -3  -1   4 133309. 4843.24   1
  -3   1   4 140935. 4679.25   3
  -3  -1   3 152465. 4076.15   4
   3  -1  -3 154527. 5423.73   2
  -3  -1   3 154828. 5141.32   1
  -3   1   3 157664. 5066.69   3
  -3  -1   2 21482.7 1443.63   4
  -3   1   2 24436.7 1902.31   3
   3  -1  -2 22370.8 1882.30   2
  -3  -1   2 19841.1 1636.93   1
   3  -1  -2 20147.6 1657.14   3
  -3  -1   1 5296.03 767.646   4
   3  -1  -1 5669.62 895.656   3
   3  -1  -1 5917.04 940.407   2
  -3  -1   1 5654.34 808.080   3
  -3   1   1 5889.81 936.291   3
   3  -1   0 338859. 8755.63   2
   3  -1   0 354215. 8866.61   3
  -3   1   0 335601. 8564.63   3
  -3  -1   0 330811. 7997.42   3
   3   1   1 100809. 3847.03   3
   3  -1   1 109185. 4252.94   3
   3  -1   1 99598.5 4267.74   2
  -3   1  -1 108791. 4151.40   3
  -3  -1  -1 106753. 3952.19   3
  -3  -1  -2 127370. 4332.07   3
   3   1   2 129888. 4566.56   3
   3  -1   2 123734. 4907.67   2
   3  -1   2 129854. 4760.07   3
  -3  -1  -3 86792.5 3420.34   3
   3   1   3 85046.9 3628.97   3
   3  -1   3 88804.0 3874.84   3
   3  -1   4 450.000 286.119   3
  -3  -1  -4 473.643 288.141   3
   3   1   4 111.173 130.689   3
   3   1   5 236733. 6736.49   3
   3  -1   5 230302. 7124.85   3
   3   1   6 38241.2 2464.84   3
   3  -1   6 39785.8 2787.40   3
   3   1   7 3741.97 752.999   3
   3  -1   7 3803.24 866.913   3
   3   1   8 183680. 6266.72   3
   3  -1   8 178556. 6817.87   3
   3   1   9 7770.87 1249.23   3
   3  -1   9 8057.74 1363.61   3
   3   1  10 115656. 5226.88   3
   3  -1  10 114246. 5744.81   3
   3   1  11 8792.54 1411.11   3
   3  -1  11 10531.7 1771.74   3
   3   1  12 13764.5 1868.33   3
   3  -1  12 14707.6 2126.18   3
   3   1  13 11081.6 1747.51   3
   3  -1  13 15159.8 2285.47   3
   3  -1  14 1164.05 911.484   3
   3   1  14 1209.24 575.397   3
   3   1  15 551.731 441.100   3
   3  -1  15 66.6325 417.736   3
   3  -1  16 7656.92 1887.16   3
  -3  -2  17 2161.56 761.292   1
  -3  -2  17 841.193 788.749   3
  -3  -2  16 712.080 615.585   3
  -3   2  16 42.1363 351.805   3
  -3  -2  16 950.989 584.059   1
  -3  -2  15 14720.7 2005.70   1
  -3   2  15 13123.1 1702.22   3
  -3  -2  15 12126.5 1963.84   3
  -3  -2  14 2800.07 967.237   3
  -3  -2  14 2451.77 849.330   1
  -3   2  13 10428.8 1415.00   1
  -3  -2  13 8847.57 1521.25   1
  -3  -2  12 3176.81 878.868   1
  -3  -2  11 64187.8 3839.95   1
   3   2 -11 59301.6 2392.34   4
   3   2 -10 4063.23 588.681   4
  -3  -2  10 3750.63 880.180   1
  -3  -2   9 112073. 5036.50   1
   3   2  -9 116300. 3554.11   4
   3   2  -8 60954.9 2442.41   4
  -3   2   8 61784.1 2245.24   4
  -3  -2   8 61827.8 3525.00   1
  -3   2   7 161.612 178.204   4
   3   2  -7-45.6224 92.7995   4
   3   2  -6 154760. 4319.93   4
  -3  -2   6 149241. 5543.59   1
  -3  -2   5 1446.90 506.868   1
   3   2  -5 1253.08 355.652   4
  -3   2   5 2293.07 593.687   3
   3   2  -4 153858. 4453.16   4
  -3  -2   4 151220. 5290.91   1
  -3   2   4 156831. 5474.97   3
   3   2  -3 224988. 5818.71   4
   3  -2  -3 217268. 6283.10   3
  -3   2   3 221297. 6909.89   3
  -3  -2   3 219031. 6381.72   1
   3  -2  -2 274202. 7634.87   3
   3   2  -2 296498. 7119.44   4
  -3   2   2 272744. 7804.88   3
  -3  -2   2 304094. 7560.41   1
  -3  -2   1 484705. 10397.6   1
  -3   2   1 478286. 11140.2   3
   3   2  -1 511054. 10457.5   1
   3   2  -1 501247. 10590.3   4
   3  -2  -1 465397. 11340.0   3
  -3  -2   0 200756. 5515.15   1
   3  -2   0 219587. 6700.10   3
  -3  -2   0 208517. 5466.63   3
  -3  -2  -1 190477. 5064.59   1
  -3  -2  -1 193892. 5452.42   3
   3  -2   1 197837. 6312.89   3
  -3  -2  -2 94240.5 3055.18   1
   3   2   2 93387.6 3466.64   3
  -3  -2  -2 94978.6 3436.52   3
   3  -2   2 101196. 4320.54   3
  -3  -2  -3 6661.79 638.484   1
   3   2   3 9571.10 1060.34   3
  -3  -2  -3 7387.65 839.455   3
   3  -2   3 7366.79 1132.75   3
  -3  -2  -4 89261.8 2331.01   1
   3   2   4 91161.0 3724.09   3
   3  -2   4 85611.9 4129.72   3
  -3  -2  -4 91946.1 3257.40   3
   3  -2   5 2306.60 695.512   3
  -3  -2  -5 1999.43 481.265   3
   3   2   5 3013.43 688.275   3
   3  -2   6 33665.8 2435.96   2
   3   2   6 36185.7 2335.51   3
   3  -2   6 34639.5 2754.74   3
   3   2   7 106344. 4328.91   3
   3  -2   7 111313. 5257.51   3
   3   2   8 12472.0 1452.19   3
   3  -2   8 14268.0 1828.87   3
   3   2   9 7292.13 1168.29   3
   3  -2   9 7697.07 1504.31   3
   3   2  10 2205.84 734.148   3
   3  -2  10 1323.14 634.877   3
   3   2  11 32386.9 2672.09   3
   3  -2  11 34740.5 3317.36   3
   3   2  12 2486.95 848.531   3
   3  -2  12 2511.78 1068.88   3
   3  -2  13 5260.08 1399.39   3
   3  -2  14 254.691 724.559   3
   3  -2  15 6234.95 1717.98   3
  -3  -3  18 1564.09 848.445   1
  -3  -3  17 9914.40 1767.35   1
  -3  -3  16 13515.3 2258.94   3
  -3  -3  16 10410.2 1895.87   1
  -3  -3  15 20462.4 2548.34   1
  -3  -3  15 18015.9 2497.21   3
  -3  -3  14 7401.97 1464.85   1
  -3  -3  14 9436.93 1721.90   3
  -3  -3  13 5828.70 1238.35   1
  -3  -3  13 5272.51 1217.12   3
  -3  -3  12 3091.44 877.503   1
  -3  -3  12 5392.42 1306.96   3
  -3  -3  11 8190.91 1487.99   1
   3   3 -10 474.254 268.309   4
  -3  -3  10 475.656 421.704   1
  -3   3  10-178.007 237.375   4
   3   3  -9 48491.4 2597.53   4
  -3   3   9 50424.2 2502.74   4
  -3  -3   9 47933.1 3423.58   1
  -3   3   8 83209.9 3245.14   4
  -3  -3   8 83891.0 4468.72   1
   3   3  -8 86192.1 3553.78   4
  -3   3   7 59013.6 2634.45   4
  -3  -3   7 60413.6 3675.80   1
   3   3  -7 66102.0 3042.56   4
   3   3  -6 36056.4 2232.17   4
  -3  -3   6 34945.5 2672.18   1
  -3   3   6 32630.4 2506.21   3
   3   3  -5 641.078 380.018   4
  -3  -3   5 257.180 311.529   1
  -3   3   5 26.6171 148.256   3
   3   3  -4 65807.6 3095.66   4
  -3  -3   4 61691.6 3400.56   1
  -3   3   4 57673.1 3199.86   3
   3  -3  -3 32600.4 2263.54   3
   3   3  -3 34456.6 2231.29   4
  -3  -3   3 31202.0 2308.50   1
  -3   3   3 34240.6 2353.75   3
  -3  -3   2 28029.8 2110.38   1
   3  -3  -2 27164.0 2165.09   3
   3   3  -2 28317.0 2040.37   4
  -3  -3   1 935.295 399.906   1
   3   3  -1 1279.54 498.007   4
   3  -3  -1 876.450 488.279   3
  -3  -3   0 69831.5 3204.40   1
  -3  -3   0 74435.1 2828.69   3
   3  -3   0 76448.4 3883.06   3
   3   3   0 77889.9 3677.42   4
  -3  -3  -1 7672.58 976.320   1
   3   3   1 8145.87 1176.32   4
  -3  -3  -1 8034.85 869.922   3
   3  -3   1 8757.61 1268.60   3
   3  -3   2 5726.46 1038.92   3
  -3  -3  -2 6338.10 829.157   1
  -3  -3  -2 5577.87 701.755   3
   3   3   2 6746.55 859.211   1
   3  -3   3 60906.2 3556.12   3
  -3  -3  -3 62666.1 2326.48   3
   3   3   3 60554.8 2508.54   1
  -3  -3  -3 61533.8 2524.06   1
   3  -3   4 116508. 5170.97   3
  -3  -3  -4 113780. 3242.70   3
   3  -3   5 135307. 5809.76   3
  -3  -3  -5 127818. 3522.32   3
   3   3   5 123706. 4065.96   3
   3   3   6 48694.6 2547.09   3
   3  -3   6 50885.4 3551.80   3
  -3  -3  -6 46804.4 2044.46   3
   3   3   7 40696.8 2497.59   3
   3  -3   7 41924.7 3368.20   3
   3  -3   8 3567.75 1020.04   3
   3   3   8 4685.20 836.704   3
   3  -3   9 7426.22 1491.31   3
   3  -3  10 817.532 729.283   3
   3  -3  11 15583.2 2356.82   3
   3  -3  12 21316.2 2857.74   3
   3  -3  13 27958.2 3445.24   3
   3  -3  14 6515.97 1724.24   3
  -3  -4  16 1064.78 776.556   1
  -3  -4  15 795.715 562.240   3
  -3  -4  15 943.718 644.585   1
  -3  -4  14 9548.80 1865.45   3
  -3  -4  14 9050.67 1845.68   1
  -3  -4  13 7519.04 1559.93   3
  -3  -4  13 6090.05 1458.17   1
  -3  -4  12 1090.71 567.031   1
  -3  -4  12 462.666 580.722   3
   3   4 -12 1224.61 500.208   4
  -3  -4  11 1684.31 806.516   1
   3   4 -11 876.941 436.824   4
  -3  -4  11 2721.49 945.067   3
  -3  -4  10 63201.1 4357.17   1
   3   4 -10 59051.1 3346.23   4
  -3   4  10 57473.9 3242.99   4
  -3  -4  10 62907.3 4097.65   3
  -3  -4   9 6751.95 1425.13   1
   3   4  -9 10135.9 1338.56   4
  -3   4   9 8089.17 1150.19   4
  -3  -4   8 16570.0 2089.68   1
   3   4  -8 14193.5 1582.80   4
  -3   4   8 14215.4 1474.41   4
  -3  -4   7 62234.2 4083.29   1
  -3   4   7 58791.2 3040.65   4
   3   4  -7 64236.6 3443.61   4
  -3  -4   6 28100.4 2662.19   1
   3   4  -6 33046.2 2433.92   4
  -3   4   6 29147.4 2153.12   3
  -3  -4   5 76434.8 4353.22   1
   3   4  -5 79708.2 3915.03   4
  -3   4   5 75793.6 3493.01   3
  -3  -4   4 1776.76 686.504   1
   3   4  -4 478.011 444.431   4
  -3  -4   3 82636.7 4307.58   1
   3   4  -3 83236.8 4069.59   4
   3  -4  -3 79104.0 3746.15   3
  -3  -4   2 82697.9 4185.48   1
   3   4  -2 79802.0 4044.87   4
   3  -4  -2 82098.9 4122.95   3
  -3  -4   1 83550.5 4088.37   1
   3   4  -1 84645.9 4189.32   4
   3  -4  -1 83662.1 4420.21   3
  -3  -4   0 16655.9 1717.80   1
   3   4   0 17804.2 1930.48   4
   3  -4   0 15506.8 1876.00   3
  -3  -4   0 15310.6 1211.06   3
  -3  -4  -1 60017.6 2432.43   3
   3  -4   1 64198.5 3817.52   3
   3   4   1 66837.4 3852.46   4
  -3  -4  -1 61863.3 3277.85   1
  -3  -4  -2 33144.9 1526.93   3
   3  -4   2 37604.0 2945.50   3
   3   4   2 34625.4 2771.70   4
  -3  -4  -3 65565.3 1702.70   3
   3  -4   3 69134.3 4145.19   3
   3  -4   4 3532.50 928.715   3
   3  -4   5 36335.6 3105.84   3
   3  -4   6 49354.0 3728.79   3
   3  -4   7 2258.24 777.916   3
   3  -4   8 32477.1 3232.89   3
   3  -4   9 2391.43 1086.06   3
   3  -4  10 757.103 293.232   3
   3  -4  11 2146.91 990.231   3
   3  -4  12 2265.77 903.299   3
  -3  -5  14 1861.05 1061.99   3
  -3  -5  14 1574.22 853.922   1
  -3  -5  13 14361.0 2344.63   1
  -3  -5  13 11935.2 2098.20   3
  -3  -5  12 6129.62 1633.03   1
  -3  -5  12 5128.47 1395.09   3
  -3  -5  11 24654.0 3029.93   1
   3   5 -11 27613.3 2577.49   4
  -3  -5  11 25796.4 2891.17   3
   3   5 -10 1252.46 758.976   4
  -3   5  10-52.3534 321.642   4
  -3  -5  10 432.534 389.137   3
  -3  -5  10 935.831 713.976   1
   3   5  -9 2350.18 684.942   4
  -3   5   9 712.226 442.815   4
  -3  -5   9 1313.09 669.621   3
  -3  -5   9 1762.41 802.620   1
   3   5  -8 3648.71 1026.56   4
  -3  -5   8 2306.20 853.287   3
  -3   5   8 2648.44 700.548   4
  -3  -5   8 3259.29 1096.17   1
  -3   5   7 5525.35 1074.98   4
   3   5  -7 4840.98 1061.46   4
  -3  -5   7 4515.58 1255.97   1
  -3  -5   7 7105.52 1305.54   3
   3   5  -6 3467.92 935.508   4
  -3  -5   6 1690.51 640.006   3
  -3  -5   6 1963.19 753.000   1
  -3  -5   5 20992.5 2435.82   1
   3   5  -5 14724.3 1895.28   4
  -3  -5   5 16759.0 1789.11   3
   3   5  -4 5515.27 1165.34   4
  -3  -5   4 6821.73 1143.41   3
  -3  -5   4 7284.42 1463.87   1
   3   5  -3 63661.1 3926.90   4
   3  -5  -3 57279.6 3252.23   3
  -3  -5   3 66367.8 3276.87   3
  -3  -5   3 63115.5 4130.35   1
   3   5  -2 2858.51 812.922   4
  -3  -5   2 4011.23 754.260   3
  -3  -5   2 2963.08 863.348   1
   3  -5  -2 2210.05 714.234   3
   3   5  -1 2742.18 961.911   4
  -3  -5   1 3718.02 648.141   3
   3  -5  -1 3882.74 895.409   3
   3   5   0 1956.00 792.963   4
  -3  -5   0 1480.10 360.669   3
   3  -5   0 1562.97 640.913   3
   3   5   1 87989.7 4916.34   4
   3  -5   1 91681.5 5023.46   3
   3   5   2 27350.2 2702.75   4
   3  -5   2 26827.5 2693.13   3
   3   5   3 9402.16 1630.29   4
   3  -5   3 12202.8 1877.93   3
   3  -5   4 3555.97 1049.93   3
   3  -5   5 352.487 293.191   3
   3  -5   6 3160.57 901.396   3
   3  -5   7 16406.2 2343.80   3
   3  -5   8 4286.65 1326.08   3
   3  -5   9 37380.3 3826.57   3
   3  -5  10 7527.93 1835.82   3
   3  -5  11 4845.82 1435.82   3
  -3  -6  12 1460.14 812.248   3
   3   6 -11 1190.99 697.899   4
  -3  -6  11-201.785 646.118   3
   3   6 -10 2937.54 946.943   4
  -3  -6  10 1678.81 772.267   3
   3   6  -9 1065.43 745.552   4
  -3   6   9 482.771 206.595   4
  -3  -6   9-564.190 325.953   3
   3   6  -8 3019.38 1043.92   4
  -3   6   8 1919.23 793.066   4
  -3  -6   8 968.843 782.293   3
  -3   6   7 15706.9 1953.64   4
   3   6  -7 19559.6 2399.64   4
  -3  -6   7 13505.6 1932.02   3
  -3   6   6 1642.07 708.072   4
   3   6  -6 1321.84 690.782   4
  -3  -6   6 980.528 481.399   3
   3   6  -5 42380.0 3485.14   4
  -3  -6   5 41882.9 3054.12   3
   3   6  -4 3223.31 1170.35   4
   3   6  -3 2857.65 877.034   4
   3   6  -2 3901.30 1143.56   4
   3   6  -1 1176.25 730.127   4
   3   6   0 5312.97 1345.96   4
   3  -6   0 4445.19 1160.74   3
   3   6   1 40241.5 3549.54   4
   3  -6   1 35444.4 3379.49   3
   3   6   2 994.997 638.221   4
   3  -6   2 2151.39 877.450   3
   3   6   3 49621.6 4055.53   4
   3  -6   3 49817.1 4128.23   3
   3  -6   4-235.355 340.996   3
   3   6   4 569.328 500.218   4
   3  -6   5 1959.73 913.133   3
   3  -6   6 2476.24 1105.08   3
   3  -6   7 1626.62 879.851   3
   3  -6   8 171.132 725.699   3
   3  -6   9-829.213 817.841   3
   3  -6  10 2657.39 1098.57   3
   3   7 -10 803.496 489.567   4
   3   7  -9-1308.20 673.255   4
  -3   7   9 352.080 558.700   4
   3   7  -8 9585.56 1831.53   4
  -3   7   8 10468.5 1799.68   4
  -3   7   7-217.731 284.145   4
   3   7  -7 178.528 524.686   4
  -3   7   6 5174.90 1279.04   4
   3   7  -6 4143.18 1250.39   4
  -3   7   5 673.096 659.504   4
   3   7  -5-608.171 524.739   4
  -3   7   4 4794.19 1261.19   4
   3   7  -4 4889.03 1303.71   4
   3   7  -3 661.008 261.620   4
   3   7  -2 6902.42 1676.81   4
   3   7  -1 1051.30 633.209   4
   3   7   0 4972.52 1337.98   4
   3   7   1 1661.46 1014.07   4
   3   7   2 214.551 686.420   4
   3   7   3-380.156 361.805   4
   3   7   4 9137.42 1888.92   4
   3  -7   6 7965.38 1879.74   3
   3  -7   7 394.587 704.323   3
   3  -7   8 1076.98 1087.68   3
  -4   0  18 21366.1 2718.91   3
  -4   0  16 941.554 570.750   1
  -4   0  15-230.100 314.487   1
  -4   0  14 6486.23 1257.57   1
  -4   0  13 977.501 559.016   1
  -4   0  12 31880.8 2767.92   1
  -4   0  11-32.9304 366.998   1
  -4   0  10 156124. 6385.52   1
  -4   0   9-52.2929 334.993   1
  -4   0   8 1363.03 571.342   2
  -4   0   7 120.467 159.701   2
  -4   0   6 281056. 5558.68   4
  -4   0   6 270252. 9015.94   2
  -4   0   5 102.301 218.610   2
  -4   0   4 19948.7 2420.52   2
  -4   0   3 308.708 524.630   2
  -4   0   2 31547.3 3236.77   2
   4   0  -1 342.427 252.739   3
   4   0   0 251945. 7572.57   3
   4   0   1 711.080 309.052   3
   4   0   2 908318. 18754.4   3
   4   0   3-129.937 415.815   3
   4   0   4 315003. 8980.13   3
   4   0   5 2261.72 648.813   3
  -4   0  -5 23.7381 586.310   2
  -4   0  -6 38396.5 3436.33   2
   4   0   6 33304.8 2672.60   3
   4   0   7 871.373 562.185   3
  -4   0  -7 236.673 318.652   2
  -4   0  -7 217.468 200.575   1
   4   0   8 36573.9 2975.62   3
  -4   0  -8 42464.0 3305.27   2
   4   0   9 233.416 482.487   3
  -4   0  -9 56.7738 242.212   2
   4   0  10 77736.2 4710.44   3
   4   0  11-183.835 345.328   3
   4   0  12 33638.2 3294.90   3
   4   0  13-847.219 708.489   3
   4   0  14 1504.04 613.232   3
   4   0  15-768.758 931.665   3
   4   0  16 718.374 820.859   3
  -4   1  19-46.4591 342.760   3
  -4  -1  18 1361.10 938.108   3
  -4   1  18 440.029 538.322   3
  -4  -1  17 3523.55 1051.78   1
  -4  -1  17 6066.26 1533.29   3
  -4  -1  16-265.353 394.733   1
  -4   1  15 2995.56 912.364   1
  -4  -1  15 2384.39 778.624   1
  -4  -1  14 27641.4 2688.52   1
  -4   1  14 24102.4 2411.91   1
  -4   1  13 714.445 406.153   1
  -4  -1  13 671.102 446.491   1
  -4   1  12 120739. 5699.96   1
  -4  -1  12 122907. 5672.42   1
  -4  -1  11 869.278 555.611   1
  -4  -1  11 992.816 516.756   2
  -4  -1  10 56241.4 3615.71   1
  -4  -1  10 51533.6 3458.43   2
  -4  -1   9 55472.3 3904.68   2
  -4  -1   9 57083.4 3610.05   1
  -4  -1   8 15567.6 1867.53   1
  -4  -1   8 15267.5 2126.82   2
  -4  -1   7 95885.0 4742.05   1
  -4  -1   6 172406. 6462.44   1
  -4  -1   5 819.650 262.963   4
  -4  -1   5 255.695 368.852   1
  -4  -1   4 486704. 9817.50   4
  -4  -1   4 459834. 11750.5   1
  -4  -1   3 11467.9 1178.64   4
   4  -1  -2 397069. 10125.4   3
  -4   1   2 397177. 10902.2   2
   4  -1  -1 54066.8 3257.26   3
  -4   1   1 52595.0 3549.24   2
   4   1   0 14447.4 1526.05   3
   4  -1   0 12605.0 1587.92   3
  -4   1   0 14625.5 1845.62   2
   4   1   1 101205. 4330.58   3
   4  -1   1 104668. 4844.49   3
  -4   1  -1 96035.0 4921.55   2
   4   1   2 2279.94 728.592   3
  -4   1  -2 2997.64 841.757   2
   4  -1   2 2799.61 782.240   3
   4  -1   3 365.329 482.155   3
   4   1   3 482.330 338.880   3
  -4   1  -3 506.401 378.764   2
  -4   1  -4 110304. 5153.85   2
   4   1   4 128608. 5206.26   3
   4  -1   4 115449. 5171.14   3
   4   1   5 51599.6 3203.19   3
   4  -1   5 55732.5 3559.46   3
   4  -1   6 10503.4 1517.18   3
   4   1   6 10277.7 1405.15   3
   4   1   7 2640.30 722.075   3
   4  -1   7 1400.52 548.708   3
  -4  -1  -7 2050.84 254.954   1
   4   1   8 57309.3 3629.30   3
   4  -1   8 55539.2 3822.69   3
   4   1   9 31389.3 2745.82   3
   4  -1   9 29945.5 2898.03   3
   4  -1  10 12036.1 1964.38   3
   4   1  10 14531.8 1949.16   3
   4   1  11 6049.85 1289.08   3
   4  -1  11 6431.54 1521.69   3
   4   1  12 1946.98 924.035   3
   4  -1  12-573.971 426.605   3
   4  -1  13 27901.1 3279.49   3
   4   1  13 28208.7 3018.90   3
   4   1  14 3583.32 1148.56   3
   4  -1  14 2158.71 801.783   3
   4  -1  15-550.769 815.489   3
  -4  -2  18-85.7917 526.695   1
  -4  -2  17 348.829 562.157   1
  -4  -2  17-396.125 452.121   3
  -4   2  17 289.212 424.759   3
  -4  -2  16 3296.54 1031.16   1
  -4  -2  16 4137.88 1297.18   3
  -4  -2  15 21085.6 2503.60   1
  -4  -2  14 21600.0 2463.95   1
  -4   2  14 19211.6 2209.08   1
  -4  -2  13 38586.4 3303.80   1
  -4  -2  12 2644.59 869.443   1
  -4  -2  12 1695.94 574.648   2
   4   2 -11 14611.2 1113.18   4
  -4  -2  11 15064.9 1948.36   1
   4   2 -10 4869.29 644.187   4
  -4  -2  10 5250.97 1153.66   1
  -4   2   9 27667.6 1344.70   4
   4   2  -9 27990.8 1656.41   4
  -4  -2   9 27972.4 2597.69   1
  -4  -2   8 921.538 557.610   1
   4   2  -8 210.838 203.059   4
   4   2  -7 87713.8 3235.97   4
  -4  -2   7 93599.2 4632.90   1
  -4  -2   6 2418.47 696.663   1
   4   2  -6 2106.12 474.318   4
   4   2  -5 33418.0 1991.98   4
  -4  -2   5 33039.8 2583.98   1
  -4  -2   4 21778.8 2060.81   1
   4  -2  -3 327865. 9073.62   3
  -4  -2   3 333339. 9068.81   1
   4  -2  -2 44389.6 2972.79   3
  -4  -2   2 44711.6 2796.15   1
   4  -2  -1 242415. 7892.95   3
  -4  -2   1 239753. 7032.36   1
  -4  -2   0 82462.9 3657.29   3
   4  -2   0 79234.1 4294.27   3
  -4  -2   0 79180.6 3568.23   1
  -4  -2  -1 7643.89 1098.46   3
  -4  -2  -1 7100.76 970.793   1
   4  -2   1 8099.29 1311.53   3
   4   2   2 52644.2 2920.58   3
  -4  -2  -2 55807.4 2613.70   1
   4  -2   2 58748.2 3613.29   3
  -4  -2  -2 53725.3 2937.86   3
   4  -2   3 1128.19 542.263   3
  -4  -2  -3 706.263 296.852   1
   4   2   3 1279.28 498.012   3
  -4  -2  -4 75775.3 2545.13   1
   4   2   4 76495.5 3797.15   3
   4  -2   4 77797.1 4329.00   3
  -4  -2  -5 148045. 3307.87   1
   4   2   5 156788. 5846.74   3
   4  -2   5 147943. 6318.84   3
   4  -2   6 74451.4 4442.90   3
   4   2   6 78523.6 4089.25   3
   4   2   7 150872. 5945.66   3
   4  -2   7 156897. 6785.75   3
   4   2   8 24704.1 2296.10   3
   4  -2   8 27552.5 2813.69   3
   4  -2   9 7627.53 1536.67   3
   4   2   9 10588.4 1527.15   3
   4   2  10 21017.3 2270.09   3
   4  -2  10 20089.7 2529.87   3
   4   2  11 3010.00 833.373   3
   4  -2  11 1695.47 761.509   3
   4  -2  12 17803.2 2648.87   3
   4  -2  13 2262.10 1115.44   3
   4  -2  14 5091.81 1449.65   3
  -4  -3  18 2825.00 1000.37   1
  -4  -3  17 6567.37 1443.08   1
  -4  -3  16 9314.73 1815.25   1
  -4  -3  16 9130.99 1877.35   3
  -4  -3  15 4023.77 1171.68   3
  -4  -3  15 5006.09 1337.89   1
  -4  -3  14 876.288 618.337   1
  -4  -3  13 224.762 365.172   1
  -4  -3  12 135.214 359.525   1
   4   3 -11 7165.53 974.265   4
  -4  -3  11 6808.28 1440.59   1
   4   3 -10 20344.7 1682.33   4
  -4   3  10 21306.1 1534.51   4
  -4  -3  10 22071.5 2445.89   1
  -4   3   9 90329.6 3340.64   4
   4   3  -9 96330.0 3854.32   4
  -4  -3   9 91346.8 5034.16   1
   4   3  -8 93678.8 3845.83   4
  -4  -3   8 94567.4 5019.31   1
   4   3  -7 115325. 4359.58   4
  -4  -3   7 111765. 5436.31   1
   4   3  -6 45282.9 2633.72   4
  -4  -3   6 47973.1 3362.64   1
   4   3  -5 48662.9 2788.27   4
  -4  -3   5 54533.9 3543.69   1
   4   3  -4 9072.95 1190.83   4
  -4  -3   4 8680.04 1339.08   1
   4   3  -3 37899.8 2520.56   4
  -4  -3   3 37385.2 2774.71   1
   4  -3  -3 32771.6 2577.68   3
  -4  -3   2 528.119 442.054   1
   4  -3  -2-88.4515 279.131   3
   4   3  -2-66.9983 189.975   4
  -4  -3   1 110704. 4581.12   1
   4  -3  -1 103056. 5163.91   3
  -4  -3   0 184115. 5941.35   1
  -4  -3   0 184615. 5690.91   3
   4  -3   0 194530. 7316.38   3
  -4  -3  -1 104312. 4111.82   1
   4  -3   1 106277. 5194.21   3
  -4  -3  -1 107499. 4235.49   3
  -4  -3  -2 60346.9 2935.28   3
  -4  -3  -2 62038.1 2877.90   1
   4  -3   2 61613.6 3930.90   3
   4  -3   3 819.946 535.485   3
  -4  -3  -3 379.857 163.217   3
  -4  -3  -3 548.051 297.821   1
  -4  -3  -4 29275.4 1613.90   1
   4  -3   4 29871.2 2769.21   3
  -4  -3  -4 27214.6 1793.95   3
   4   3   5 16124.3 1609.65   3
   4  -3   5 16943.3 2167.83   3
   4  -3   6 2061.32 826.530   3
   4   3   6 2475.20 663.732   3
   4  -3   7 319.923 525.250   3
   4   3   7 502.096 272.109   3
   4   3   8 31958.5 2568.75   3
   4  -3   8 28828.4 3037.78   3
   4  -3   9 564.359 847.382   3
   4  -3  10 3012.21 1043.73   3
   4  -3  11 6070.58 1543.70   3
   4  -3  12 9739.13 2043.93   3
   4  -3  13 9597.99 2124.93   3
  -4  -4  16 159.553 367.255   1
  -4  -4  15 2566.10 1215.62   1
  -4  -4  15 2812.61 1086.83   3
  -4  -4  14 10039.6 1952.74   1
  -4  -4  14 5513.44 1543.84   3
  -4  -4  13 945.044 777.682   1
  -4  -4  13 557.294 597.579   3
  -4  -4  12 2892.07 1015.35   1
  -4  -4  11 5983.85 1530.38   1
   4   4 -11 7548.08 1216.68   4
  -4  -4  10 38642.2 3536.21   1
   4   4 -10 38177.7 2679.45   4
  -4   4  10 35311.3 2373.46   4
  -4  -4   9 12684.5 1998.74   1
  -4   4   9 11319.5 1327.89   4
   4   4  -9 12196.2 1513.16   4
  -4  -4   8 332.114 258.229   1
   4   4  -8 652.917 488.840   4
  -4  -4   7 2904.44 936.769   1
   4   4  -7 3371.18 844.399   4
  -4  -4   6 53901.0 3819.97   1
   4   4  -6 55389.6 3336.77   4
  -4  -4   5 11387.6 1720.70   1
   4   4  -5 13051.0 1598.61   4
  -4  -4   4 408.747 405.432   1
   4   4  -4 673.039 520.692   4
  -4  -4   3 3396.91 886.815   1
   4   4  -3 2538.80 766.411   4
   4  -4  -3 2851.69 828.861   3
  -4  -4   2 58396.4 3646.18   1
   4  -4  -2 56350.4 3726.16   3
   4   4  -2 61327.9 3676.30   4
  -4  -4   1 38767.6 2856.08   1
   4   4  -1 40483.4 3044.77   4
   4  -4  -1 42268.2 3356.22   3
  -4  -4   0 9281.51 1305.93   1
   4   4   0 6835.63 1238.16   4
  -4  -4   0 5105.68 808.894   3
   4  -4   0 5554.72 1213.78   3
  -4  -4  -1 94707.7 4295.17   1
  -4  -4  -1 98319.2 3846.91   3
   4  -4   1 101637. 5383.52   3
  -4  -4  -2 16471.7 1629.33   1
   4  -4   2 17960.3 2226.09   3
   4  -4   3 54993.2 3967.52   3
   4  -4   4 3346.80 1062.45   3
   4  -4   5 31966.2 3117.69   3
   4  -4   6 30110.9 3119.05   3
   4  -4   7 30272.1 3239.39   3
   4  -4   8 10083.4 1871.71   3
   4  -4   9 20150.9 2737.81   3
   4  -4  10 8171.57 1818.38   3
   4  -4  11 10765.7 2184.91   3
   4  -4  12 1240.60 716.276   3
  -4  -5  14-1682.79 884.141   3
  -4  -5  13 17738.8 2604.98   3
  -4  -5  13 13843.5 2449.71   1
  -4  -5  12 3976.92 1281.97   3
  -4  -5  12 1238.93 838.288   1
  -4  -5  11 23119.4 3009.02   1
   4   5 -11 22049.8 2300.28   4
  -4  -5  11 24775.0 2855.54   3
  -4  -5  10 1122.31 714.141   1
   4   5 -10 827.454 578.122   4
  -4  -5  10 258.604 524.100   3
  -4  -5   9 3684.77 1179.71   1
  -4   5   9 3511.77 854.586   4
   4   5  -9 5067.27 1118.68   4
  -4  -5   9 4589.93 1162.14   3
  -4  -5   8 5166.37 1349.40   1
  -4   5   8 4890.22 982.427   4
   4   5  -8 3711.24 1010.48   4
  -4  -5   7 4681.20 1241.88   1
   4   5  -7 7237.35 1363.19   4
  -4  -5   6 1928.82 784.832   1
   4   5  -6 3683.51 979.650   4
  -4  -5   5 64557.1 4505.66   1
   4   5  -5 60935.6 3972.60   4
  -4  -5   4 26239.0 2792.05   1
   4   5  -4 25462.3 2549.11   4
  -4  -5   3 76857.2 4718.81   1
   4   5  -3 76847.2 4526.52   4
   4  -5  -3 69153.4 4071.18   3
   4   5  -2 653.765 524.297   4
   4  -5  -2 1031.23 627.650   3
  -4  -5   2 2056.18 812.952   1
   4   5  -1 348.819 243.398   4
   4  -5  -1 998.494 337.865   3
   4   5   0 17211.7 2175.72   4
   4  -5   0 15576.2 2192.91   3
  -4  -5   0 19464.5 2201.75   1
   4   5   1 3838.03 989.931   4
   4  -5   1 4298.14 1157.81   3
   4  -5   2 1048.52 703.977   3
   4  -5   3 29418.5 3103.24   3
   4  -5   4 5110.08 1461.23   3
   4  -5   5 40166.5 3783.51   3
   4  -5   6 1631.86 1059.67   3
   4  -5   7 1440.98 956.913   3
   4  -5   8 5537.17 1586.33   3
   4  -5   9 19056.0 2844.18   3
   4  -5  10 4729.25 1503.10   3
  -4  -6  12 3671.56 1416.16   3
   4   6 -11 10420.1 1807.03   4
  -4  -6  11 9437.08 1806.15   3
   4   6 -10 356.305 456.442   4
  -4  -6  10 1833.24 1189.55   3
  -4  -6  10 2295.15 1098.34   1
  -4   6   9 4907.22 1111.76   4
   4   6  -9 3700.49 1167.48   4
  -4  -6   9 5914.25 1401.34   3
  -4  -6   9 5741.63 1595.08   1
  -4   6   8 64.6956 352.851   4
   4   6  -8 734.146 570.676   4
  -4  -6   8-595.355 537.794   3
  -4  -6   8 758.131 592.612   1
  -4   6   7 8560.53 1407.19   4
   4   6  -7 8530.37 1707.79   4
  -4  -6   7 8137.00 1506.47   3
  -4  -6   7 9356.74 1908.58   1
   4   6  -6 7793.29 1530.71   4
  -4  -6   6 7991.82 1416.39   3
  -4  -6   6 8457.83 1859.16   1
   4   6  -5 22194.9 2604.34   4
  -4  -6   5 22750.2 2958.73   1
   4   6  -4 363.746 303.738   4
  -4  -6   4 397.106 625.221   1
   4   6  -3 610.813 670.491   4
   4   6  -2 16692.2 2359.95   4
   4   6  -1 5490.55 1386.52   4
   4  -6  -1 3725.25 1102.84   3
   4   6   0 3084.73 948.392   4
   4  -6   0 6713.79 1418.59   3
   4   6   1 14915.5 2250.19   4
   4  -6   1 13739.8 2205.37   3
   4  -6   2 390.324 564.804   3
   4  -6   3 35194.0 3681.97   3
   4  -6   4 6708.18 1632.96   3
   4  -6   5 3906.09 1346.01   3
   4  -6   6 5825.26 1555.46   3
   4  -6   7 652.858 801.995   3
   4  -6   8-309.099 665.044   3
   4  -6   9 11200.2 2401.62   3
   4   7 -10 1244.35 662.491   4
   4   7  -9-801.586 746.926   4
  -4   7   8 12723.7 1986.14   4
   4   7  -8 13733.7 2198.03   4
  -4   7   7 1620.92 798.560   4
   4   7  -7 2585.94 1145.88   4
  -4   7   6 2553.19 998.307   4
   4   7  -6 676.040 946.634   4
   4   7  -5 7293.52 1743.07   4
   4   7  -4 436.125 623.113   4
   4   7  -3 4511.39 1352.41   4
   4   7  -2 2676.62 828.441   4
   4   7  -1 595.262 447.941   4
   4   7   0 15935.9 2500.23   4
   4   7   1 284.680 399.387   4
   4   7   2 2379.26 1111.35   4
   4  -7   5 883.814 429.042   3
   4  -7   6 1887.83 1186.09   3
   4  -7   7 957.208 710.026   3
  -5   0  17 202.498 400.218   1
  -5   0  16 6213.01 1363.70   1
  -5   0  15 26.0976 190.494   1
  -5   0  14 734.046 304.952   1
  -5   0  13 314.069 390.788   1
  -5   0  12 84194.9 5073.20   1
  -5   0  11 595.126 555.366   1
  -5   0  10 252808. 9173.55   1
  -5   0   9 464.049 430.786   2
  -5   0   8 50230.9 1504.38   4
  -5   0   8 49602.4 3829.45   2
  -5   0   7 458.765 165.056   4
  -5   0   7 892.638 685.014   2
  -5   0   6 1454.11 797.125   2
  -5   0   5 150.149 184.578   2
  -5   0   4 84610.7 5775.97   2
  -5   0   3-22.1325 246.910   2
  -5   0   2 231920. 10308.9   2
  -5   0   1-118.272 486.099   2
   5   0  -1 530.141 349.579   3
  -5   0   0 166.692 405.332   2
   5   0   0 492.357 288.085   3
  -5   0  -1 61.6427 650.923   2
   5   0   1 31.4730 272.054   3
   5   0   2 207209. 7644.88   3
  -5   0  -2 217946. 9972.21   2
  -5   0  -3-23.0761 506.266   2
   5   0   3 708.753 476.082   3
  -5   0  -4 14077.0 2404.49   2
   5   0   4 9929.95 1489.04   3
  -5   0  -5 223.923 640.043   2
   5   0   5-78.6288 333.659   3
  -5   0  -6 58204.8 4668.41   2
   5   0   6 43703.6 3393.39   3
   5   0   7 305.480 517.920   3
  -5   0  -7-222.862 263.439   2
  -5   0  -8 29086.9 3082.79   2
   5   0   8 26206.8 2745.79   3
   5   0   9 15.8558 467.189   3
  -5   0  -9-62.1237 164.046   2
   5   0  10 148287. 7226.89   3
   5   0  11 573.055 463.482   3
   5   0  12 28116.1 3216.91   3
   5   0  13 513.608 475.583   3
   5   0  14 2215.39 1150.71   3
   5   0  15 224.875 753.134   3
  -5   1  19 1760.89 823.366   3
  -5  -1  18 6832.55 1513.66   1
  -5  -1  17 7619.44 1623.54   1
  -5   1  16 7042.45 1386.24   1
  -5  -1  16 4603.92 1241.64   1
  -5   1  15-257.312 227.290   1
  -5  -1  15-114.702 351.293   1
  -5  -1  14 5990.79 1375.98   1
  -5   1  14 6947.71 1416.83   1
  -5  -1  13 28758.8 2905.95   1
  -5   1  13 27118.9 2862.68   1
  -5  -1  12 15144.1 2100.14   1
  -5  -1  12 16772.6 2000.70   2
  -5  -1  11 1703.94 664.284   1
  -5  -1  11 1918.36 720.074   2
  -5  -1  10 1586.18 734.726   2
  -5  -1  10 1621.11 618.006   1
  -5  -1   9 57868.0 4030.22   1
  -5  -1   9 48852.2 4218.49   2
  -5  -1   8-184.549 523.218   2
  -5  -1   8 576.141 288.165   1
  -5  -1   7 21453.0 1309.26   4
  -5  -1   7 19824.1 2288.60   1
  -5  -1   6 187396. 5044.10   4
  -5  -1   6 183696. 7313.06   1
  -5  -1   5 20678.2 1587.49   4
  -5  -1   5 17769.8 2124.61   1
  -5   1   4 352438. 11171.3   2
  -5   1   3 2600.58 958.798   2
   5  -1  -2 98480.4 4845.48   3
  -5   1   2 98175.5 5601.70   2
   5  -1  -1 223185. 7709.79   3
  -5   1   1 188815. 8245.82   2
   5   1   0 51367.4 3271.94   3
   5  -1   0 52124.6 3558.46   3
  -5   1   0 43598.0 3757.97   2
   5   1   1 160831. 6164.44   3
   5  -1   1 166118. 6848.86   3
   5   1   2 177825. 6701.25   3
   5  -1   2 190436. 7349.42   3
   5   1   3 589.485 346.550   3
  -5   1  -3 373.991 308.539   2
   5  -1   3 813.753 523.341   3
   5   1   4 251522. 8531.80   3
   5  -1   4 266787. 8935.70   3
   5  -1   5 2713.08 824.078   3
   5   1   5 3191.47 956.203   3
  -5   1  -5 1215.12 627.715   2
   5   1   6 86466.3 4792.94   3
   5  -1   6 87079.7 5002.28   3
   5   1   7 19405.7 2271.16   3
   5  -1   7 18021.1 2289.70   3
   5  -1   8 6276.35 1468.48   3
   5   1   8 3871.82 1118.75   3
   5  -1   9 11916.9 2005.38   3
   5   1   9 9104.39 1632.74   3
   5  -1  10 2293.93 984.767   3
   5   1  10 1640.84 709.936   3
   5   1  11 3167.68 981.665   3
   5  -1  11 4917.91 1273.81   3
   5   1  12 11224.5 2001.46   3
   5  -1  12 13562.6 2346.60   3
   5   1  13 2946.82 1117.29   3
   5  -1  13 3615.31 1352.97   3
   5   1  14 586.227 548.670   3
   5  -1  14 2373.06 1198.67   3
  -5  -2  18 3676.85 1115.04   1
  -5  -2  17 2101.54 793.805   1
  -5  -2  16 2097.91 792.845   1
  -5  -2  15 28907.8 3119.16   1
  -5   2  15 29890.6 3090.94   1
  -5   2  14 7743.92 1549.43   1
  -5  -2  14 6664.03 1521.99   1
  -5  -2  13 12694.6 1984.19   1
  -5  -2  12 18666.4 2371.82   1
  -5  -2  12 19295.2 2553.33   2
  -5  -2  11 4085.47 1042.27   1
  -5   2  10 19233.5 1010.14   4
  -5  -2  10 13893.7 2023.46   1
  -5  -2   9 3159.80 1075.40   1
  -5  -2   8 41862.2 3371.83   1
  -5  -2   7 188026. 7478.20   1
  -5  -2   6 79726.7 4633.60   1
  -5  -2   5 128976. 5856.79   1
  -5  -2   4 30117.5 2658.70   1
   5  -2  -3 35789.9 2866.76   3
  -5  -2   3 39828.5 3006.66   1
  -5  -2   2 4214.14 968.578   1
   5  -2  -2 4765.22 1075.88   3
   5  -2  -1 29625.9 2729.88   3
  -5  -2   1 24719.7 2261.02   1
  -5  -2   0 2697.14 787.379   1
   5  -2   0 3234.34 952.885   3
   5  -2   1 63044.5 4194.49   3
  -5  -2  -1 56264.5 3202.97   1
   5   2   2 486.778 321.538   3
  -5  -2  -2 391.083 290.587   1
   5  -2   2 508.710 695.441   3
  -5  -2  -3 5595.73 869.925   1
   5   2   3 5419.53 1065.56   3
   5  -2   3 5636.57 1247.51   3
   5   2   4 9892.83 1466.50   3
  -5  -2  -4 8297.00 957.266   1
   5  -2   4 6802.40 1357.07   3
  -5  -2  -5 90207.2 2993.93   1
   5   2   5 95591.9 4814.07   3
   5  -2   5 103840. 5594.19   3
   5   2   6 19927.4 2200.24   3
   5  -2   6 24597.8 2734.13   3
   5   2   7 64090.3 4143.41   3
   5  -2   7 58385.0 4396.21   3
   5   2   8 16327.0 2092.46   3
   5  -2   8 13764.7 2226.30   3
   5  -2   9 653.997 776.300   3
   5   2   9 25.6252 309.961   3
   5  -2  10 5054.04 1406.70   3
   5   2  10 6293.96 1301.46   3
   5  -2  11 810.563 809.092   3
   5   2  11 1003.46 487.748   3
   5  -2  12 4547.55 1613.00   3
   5  -2  13 9889.60 2173.09   3
  -5  -3  17-40.0787 377.631   1
  -5  -3  16 7058.22 1633.77   1
  -5  -3  15 2753.88 1091.72   1
  -5  -3  14 2798.08 984.272   1
  -5  -3  13 5251.59 1357.34   1
  -5  -3  12 11984.8 1975.93   1
  -5  -3  11 591.992 653.328   1
   5   3 -10 22398.7 1843.95   4
  -5  -3  10 21607.4 2585.29   1
   5   3  -9 47569.9 2780.62   4
  -5  -3   9 47353.3 3808.11   1
   5   3  -8 42530.8 2665.66   4
  -5  -3   8 41643.5 3511.16   1
   5   3  -7 39403.2 2571.30   4
  -5  -3   7 41110.0 3413.19   1
   5   3  -6 178.115 227.248   4
  -5  -3   6 568.258 185.485   1
  -5  -3   5 5330.75 1094.87   1
  -5  -3   4 417.217 293.599   1
  -5  -3   3 22227.3 2297.89   1
   5  -3  -3 25742.4 2521.52   3
  -5  -3   2 62307.6 3781.25   1
   5  -3  -2 64945.6 4167.66   3
  -5  -3   1 140455. 5717.33   1
   5  -3  -1 139023. 6470.13   3
  -5  -3   0 103314. 4627.17   1
   5  -3   0 107506. 5780.43   3
  -5  -3  -1 168456. 5875.21   1
   5  -3   1 172931. 7520.82   3
  -5  -3  -2 23813.7 1894.05   1
   5  -3   2 22773.4 2565.24   3
  -5  -3  -3 20174.6 1629.90   1
   5  -3   3 21808.0 2534.37   3
   5  -3   4 4142.19 1237.20   3
  -5  -3  -4 3986.54 670.828   1
   5  -3   5 2982.81 1017.63   3
   5   3   5 2454.37 691.808   3
   5  -3   6 7549.61 1546.01   3
   5   3   6 5291.14 1063.00   3
   5   3   7 41005.7 3044.51   3
   5  -3   7 43096.6 3958.31   3
   5  -3   8 60879.8 4817.21   3
   5  -3   9 32995.1 3627.61   3
   5  -3  10 8246.43 1768.17   3
   5  -3  11-118.401 309.332   3
   5  -3  12 3134.66 1235.13   3
  -5  -4  15 4002.72 1277.82   1
  -5  -4  15 4283.39 1436.50   3
  -5  -4  14 7793.21 1848.61   1
  -5  -4  13 9608.56 2019.53   1
  -5  -4  12 238.047 343.181   1
  -5  -4  11 20758.3 2769.96   1
   5   4 -10 12046.6 1585.26   4
  -5  -4  10 12822.7 2114.64   1
  -5  -4   9 43347.6 3820.59   1
   5   4  -9 43267.8 2999.08   4
   5   4  -8 6386.09 1197.25   4
  -5  -4   8 5779.09 1414.86   1
   5   4  -7 13773.2 1703.16   4
  -5  -4   7 10912.7 1842.68   1
   5   4  -6 60412.9 3680.66   4
  -5  -4   6 69168.7 4623.46   1
   5   4  -5 556.686 265.781   4
  -5  -4   5 653.444 610.346   1
   5   4  -4 4641.87 996.987   4
   5  -4  -4 4010.71 950.337   3
  -5  -4   4 3753.23 997.330   1
  -5  -4   3 18089.9 2169.04   1
   5   4  -3 15622.2 1900.58   4
   5  -4  -3 15483.9 2039.31   3
  -5  -4   2 82186.1 4604.66   1
   5  -4  -2 78422.8 4820.84   3
  -5  -4   1 28893.3 2593.41   1
   5  -4  -1 30626.0 3045.55   3
  -5  -4   0 8105.50 1306.47   1
   5  -4   0 8681.01 1661.47   3
  -5  -4  -1 2678.43 789.588   1
   5  -4   1 2226.92 978.973   3
  -5  -4  -2 84031.2 4025.68   1
   5  -4   2 77162.0 5119.37   3
  -5  -4  -3 15343.3 1546.60   1
   5  -4   3 14980.5 2179.68   3
   5  -4   4 670.269 487.277   3
   5  -4   5 2367.02 984.073   3
   5  -4   6 16713.7 2524.82   3
   5  -4   7 10868.0 2180.64   3
   5  -4   8 835.964 688.301   3
   5  -4   9 19630.7 2980.45   3
   5  -4  10 3823.22 1435.55   3
  -5  -5  14-379.006 715.096   3
  -5  -5  13 10286.8 2073.80   1
  -5  -5  13 7733.54 1778.94   3
  -5  -5  12 652.998 908.572   1
  -5  -5  12 147.209 457.743   3
  -5  -5  11 2722.33 1248.94   1
  -5  -5  10 4762.46 1498.82   1
   5   5 -10 4257.23 997.605   4
  -5  -5   9 6287.83 1601.94   1
  -5   5   9 3826.95 913.487   4
   5   5  -9 5264.49 1175.97   4
  -5  -5   8 3820.61 1225.60   1
   5   5  -8 4040.07 1045.23   4
  -5  -5   7 499.223 699.565   1
   5   5  -7 619.342 388.751   4
  -5  -5   6 977.335 833.107   1
   5   5  -6 185.522 467.921   4
  -5  -5   5 51155.2 4166.48   1
   5   5  -5 55908.3 3954.26   4
  -5  -5   4 7030.03 1552.36   1
   5   5  -4 7768.64 1452.87   4
  -5  -5   3 51310.4 3997.74   1
   5   5  -3 48887.3 3770.58   4
   5  -5  -3 49220.2 3727.37   3
  -5  -5   2 3943.45 1087.80   1
   5   5  -2 2916.98 832.384   4
   5  -5  -2 3473.33 982.831   3
   5  -5  -1 5141.22 1367.03   3
  -5  -5   1 7070.70 1418.48   1
   5  -5   0-280.830 475.132   3
  -5  -5   0 1473.82 634.311   1
   5  -5   1 12958.3 2257.60   3
  -5  -5  -1 12831.1 1760.14   1
   5  -5   2 223.665 318.463   3
   5  -5   3 58852.3 4719.99   3
   5  -5   4 6934.57 1693.78   3
   5  -5   5 37430.1 3875.11   3
   5  -5   6-273.572 334.205   3
   5  -5   7 1167.16 999.699   3
   5  -5   8 3537.22 1222.37   3
   5  -5   9 1191.86 889.494   3
  -5  -6  12 1262.49 888.867   3
  -5  -6  11 15991.2 2480.27   3
   5   6 -10 532.378 521.466   4
  -5  -6  10 159.244 431.761   3
  -5  -6  10 1011.05 1078.37   1
   5   6  -9 3505.63 998.557   4
  -5  -6   9 5336.54 1364.89   3
  -5  -6   9 3852.46 1331.81   1
  -5   6   8 1820.40 597.635   4
   5   6  -8 1190.23 510.222   4
  -5  -6   8 1815.31 772.760   3
  -5  -6   8 1859.57 1009.63   1
   5   6  -7 3211.59 1119.21   4
  -5  -6   7 1872.48 792.253   3
  -5  -6   7 2534.56 1047.15   1
   5   6  -6 2687.48 843.418   4
  -5  -6   6 3896.38 1273.76   1
   5   6  -5 1211.40 664.088   4
  -5  -6   5 2862.41 1056.43   1
   5   6  -4-90.1382 329.472   4
  -5  -6   4 717.638 762.390   1
   5   6  -3 26851.6 3041.89   4
  -5  -6   3 24168.2 3022.44   1
   5   6  -2 1263.97 848.632   4
  -5  -6   2 2173.52 807.480   1
   5   6  -1 6978.11 1519.94   4
   5  -6  -1 7855.63 1703.39   3
   5  -6   0-470.173 723.479   3
   5  -6   1 4398.50 1250.40   3
   5  -6   2 1020.55 316.964   3
   5  -6   3 9866.93 2075.46   3
   5  -6   4 1306.13 764.360   3
   5  -6   5 575.360 471.492   3
   5  -6   6 6049.00 1792.07   3
   5  -6   7 314.556 519.691   3
   5   7  -9-140.102 305.520   4
   5   7  -8 6511.65 1673.09   4
  -5   7   7 24.6460 268.321   4
   5   7  -7 1089.94 747.516   4
   5   7  -6 784.739 555.454   4
   5   7  -5 1787.20 811.495   4
   5   7  -4 1495.59 861.302   4
   5   7  -3 2275.25 1070.92   4
   5   7  -2 3080.05 1224.17   4
   5   7  -1-1496.88 1100.92   4
   5  -7   5 4189.16 1637.93   3
  -6   0  18 913.560 686.011   1
  -6   0  17 1908.10 1026.45   1
  -6   0  16 8035.34 1759.44   1
  -6   0  15 197.375 412.459   1
  -6   0  14-644.623 464.643   1
  -6   0  13 17.1634 397.625   1
  -6   0  12 82683.3 5482.05   1
  -6   0  11-245.692 267.897   1
  -6   0  10 155557. 7288.94   2
  -6   0   9 148.505 118.450   4
  -6   0   9 167.287 432.609   2
  -6   0   8 4232.53 594.422   4
  -6   0   8 3359.06 1217.91   2
  -6   0   7-154.340 349.089   2
  -6   0   6 340.398 491.661   2
  -6   0   5 314.561 554.921   2
  -6   0   4 481022. 16370.6   2
  -6   0   3 908.585 858.019   2
  -6   0   2 698922. 21042.1   2
  -6   0   1-149.246 316.942   2
   6   0  -1 168.889 444.183   3
   6   0   0 41076.2 3276.61   3
  -6   0   0 45950.1 4743.78   2
  -6   0  -1 254.025 468.823   2
   6   0   1 1013.78 664.402   3
  -6   0  -2 11869.7 2386.24   2
   6   0   2 11576.0 1766.67   3
  -6   0  -3 57.5168 279.378   2
   6   0   3-22.8477 377.166   3
   6   0   4 89222.2 5348.07   3
  -6   0  -4 112635. 7298.13   2
  -6   0  -5-94.7313 492.718   2
   6   0   5 788.648 539.803   3
   6   0   6 26424.2 2912.74   3
  -6   0  -6 41394.5 4191.74   2
  -6   0  -7 475.128 489.754   2
   6   0   7 225.428 367.080   3
  -6   0  -8 1526.09 850.273   2
   6   0   8 1325.56 673.885   3
   6   0   9 165.685 597.704   3
   6   0  10 10263.3 2013.39   3
   6   0  11 841.998 615.848   3
   6   0  12 440.154 381.016   3
   6   0  13-144.873 551.738   3
  -6  -1  18 8075.35 1736.36   1
  -6   1  17 2607.75 1026.89   1
  -6  -1  17 2127.31 857.896   1
  -6  -1  16 18554.2 2630.80   1
  -6   1  16 12777.8 2122.66   1
  -6  -1  15 4248.88 1268.23   1
  -6   1  15 1566.63 810.690   1
  -6  -1  14 1031.84 873.039   1
  -6   1  14 1775.14 792.414   1
  -6  -1  13 35487.0 3501.32   1
  -6  -1  13 34442.1 3152.57   2
  -6   1  13 36323.6 3659.91   1
  -6  -1  12 2864.15 1017.27   1
  -6  -1  12 3198.15 1048.82   2
  -6  -1  11 1013.97 840.360   1
  -6  -1  11 474.324 452.225   2
  -6  -1  10 59293.6 4900.98   2
  -6  -1  10 59916.0 4522.44   1
  -6  -1   9 19857.7 2967.76   2
  -6  -1   9 20514.9 2585.93   1
  -6  -1   8 40103.0 1989.83   4
  -6  -1   8 38497.0 3536.04   1
  -6  -1   7 1150.40 530.881   1
  -6  -1   6 3654.91 985.843   1
  -6   1   5 28055.5 3150.43   2
  -6   1   4 26330.8 3098.69   2
  -6   1   3 3980.30 1253.12   2
   6  -1  -2 527.313 429.908   3
  -6   1   2 875.238 515.511   2
   6  -1  -1 80009.7 4763.83   3
  -6   1   1 69193.1 5318.80   2
   6   1   0 936.351 502.972   3
   6  -1   0 640.228 553.390   3
  -6   1   0 496.276 401.077   2
   6   1   1 25413.7 2501.94   3
   6  -1   1 24582.0 2713.32   3
  -6   1  -1 17989.6 2641.04   2
   6   1   2 80598.3 4610.07   3
   6  -1   2 69230.3 4706.16   3
  -6   1  -2 64197.7 5111.51   2
   6   1   3 26537.8 2664.39   3
   6  -1   3 25624.7 2835.59   3
  -6   1  -3 20368.4 2802.02   2
   6   1   4 193935. 7742.36   3
   6  -1   4 186267. 8051.66   3
  -6   1  -4 167329. 8280.96   2
   6   1   5 1846.59 771.240   3
  -6   1  -5 2138.67 841.243   2
   6  -1   5 1389.06 758.266   3
   6   1   6 43051.3 3651.80   3
   6  -1   6 43475.5 3793.96   3
   6   1   7 54416.8 4229.26   3
   6  -1   7 47786.8 4129.24   3
   6   1   8 2017.24 844.595   3
   6  -1   8 2462.24 965.583   3
   6   1   9 27160.5 3041.93   3
   6  -1   9 25231.2 3101.92   3
   6   1  10 21026.3 2717.46   3
   6  -1  10 22157.3 3006.18   3
   6  -1  11 1068.97 1084.47   3
   6   1  11-195.952 520.552   3
   6   1  12 31053.0 3563.70   3
   6  -1  12 30923.1 3742.25   3
   6   1  13-237.035 447.034   3
  -6  -2  18-189.395 602.029   1
  -6  -2  17 1.73949 543.717   1
  -6   2  16 237.529 439.172   1
  -6  -2  16 87.3668 305.436   1
  -6  -2  15 14255.5 2350.61   1
  -6   2  15 14764.7 2305.39   1
  -6  -2  14 6584.42 1629.60   1
  -6  -2  13 1094.43 632.065   1
  -6  -2  13 207.688 372.572   2
  -6  -2  12 7566.97 1641.06   1
  -6  -2  12 9175.54 1982.93   2
  -6  -2  11 6663.67 1519.49   1
  -6  -2  11 7836.09 1927.50   2
  -6  -2  10 16430.8 2341.36   1
  -6  -2   9 22069.2 2694.81   1
  -6  -2   8 58361.2 4398.86   1
  -6  -2   7 157899. 7310.21   1
  -6  -2   6 63134.8 4399.99   1
  -6  -2   5 68762.0 4579.88   1
  -6  -2   4 43293.1 3568.68   1
  -6  -2   3 4039.56 1142.76   1
   6  -2  -3 4857.76 1187.54   3
   6  -2  -2 47508.4 3686.81   3
  -6  -2   2 39258.6 3279.20   1
  -6  -2   1 6581.46 1294.78   1
   6  -2  -1 4872.76 1169.75   3
   6  -2   0 56791.8 4183.95   3
  -6  -2   0 55715.0 3716.73   1
   6  -2   1 216069. 8667.52   3
  -6  -2  -1 181075. 6923.13   1
   6  -2   2 42377.2 3775.34   3
  -6  -2  -2 38900.2 2837.19   1
   6   2   3 58280.7 3841.81   3
   6  -2   3 59143.9 4439.79   3
  -6  -2  -3 49586.6 3060.25   1
   6   2   4 17938.2 2176.58   3
   6  -2   4 20783.4 2643.45   3
  -6  -2  -4 18642.5 1688.04   1
   6   2   5 30446.0 2848.49   3
   6  -2   5 26212.0 2990.24   3
   6   2   6 5599.49 1264.07   3
   6  -2   6 8789.00 1754.52   3
   6   2   7 6523.55 1410.03   3
   6  -2   7 6562.87 1602.45   3
   6  -2   8 5126.66 1502.01   3
   6   2   8 3619.13 982.725   3
   6  -2   9 12176.7 2212.02   3
   6   2   9 10187.8 1836.84   3
   6  -2  10 905.560 686.727   3
   6   2  10 292.158 485.869   3
   6  -2  11 1188.34 815.815   3
   6  -2  12-228.502 582.938   3
  -6  -3  16 621.203 801.003   1
  -6  -3  15 6050.61 1625.26   1
  -6  -3  14 16593.9 2589.78   1
  -6  -3  13 23632.0 3021.68   1
  -6  -3  12 23288.6 2940.06   1
  -6  -3  11 3473.07 1127.06   1
  -6  -3  10 4706.03 1263.85   1
  -6  -3   9 1703.27 699.909   1
  -6  -3   8 28370.2 3113.15   1
  -6  -3   7 10154.1 1780.70   1
  -6  -3   6 12097.9 1898.58   1
  -6  -3   5 46014.4 3768.79   1
  -6  -3   4 47495.7 3755.87   1
  -6  -3   3 5567.45 1284.92   1
   6  -3  -3 5250.70 1286.15   3
  -6  -3   2 17481.9 2146.56   1
   6  -3  -2 13006.0 1958.57   3
   6  -3  -1 73269.4 4874.09   3
  -6  -3   1 67332.6 4176.79   1
  -6  -3   0 37973.8 2996.61   1
   6  -3   0 40595.5 3750.76   3
  -6  -3  -1 24041.9 2252.63   1
   6  -3   1 29080.0 3156.94   3
  -6  -3  -2-309.002 438.385   1
   6  -3   2 1586.23 716.517   3
  -6  -3  -3 9616.96 1249.75   1
   6  -3   3 9893.05 1878.05   3
   6  -3   4 1629.72 841.086   3
   6  -3   5 25496.0 3095.37   3
   6   3   6 6739.09 1286.02   3
   6  -3   6 10901.7 2142.12   3
   6  -3   7 38651.5 4000.55   3
   6  -3   8 28213.5 3451.36   3
   6  -3   9 24365.1 3271.14   3
   6  -3  10 1579.81 820.025   3
  -6  -4  14 3858.99 1441.16   1
  -6  -4  13 641.794 808.157   1
  -6  -4  12 5680.42 1607.20   1
  -6  -4  11 11693.0 2213.70   1
  -6  -4  10 3398.06 1214.39   1
  -6  -4   9 11013.4 2055.56   1
  -6  -4   8 21488.6 2808.62   1
  -6  -4   7 12564.5 2093.91   1
  -6  -4   6 21340.9 2680.35   1
  -6  -4   5 58649.5 4417.04   1
  -6  -4   4 3961.87 1129.44   1
   6  -4  -4 3314.14 1085.10   3
  -6  -4   3 70335.5 4643.16   1
   6  -4  -3 74099.0 4892.97   3
  -6  -4   2 10418.3 1752.19   1
   6  -4  -2 10138.5 1862.24   3
  -6  -4   1 34222.5 3016.82   1
   6  -4  -1 33920.2 3419.39   3
  -6  -4   0 16116.5 1990.58   1
   6  -4   0 18548.5 2696.24   3
  -6  -4  -1 5966.58 1138.69   1
   6  -4   1 7560.81 1765.79   3
  -6  -4  -2 53163.6 3335.22   1
   6  -4   2 60000.2 4854.63   3
   6  -4   3 15146.6 2474.43   3
   6  -4   4 1036.83 629.793   3
   6  -4   5 15593.3 2521.05   3
   6  -4   6 16531.5 2620.18   3
   6  -4   7 176.213 325.203   3
   6  -4   8 4869.58 1617.30   3
   6  -4   9 369.043 862.888   3
  -6  -5  12 1577.94 983.341   1
  -6  -5  11 10190.3 2214.26   1
  -6  -5  10 4156.78 1373.94   1
   6   5 -10 4429.63 1137.14   4
  -6  -5   9 24473.5 3233.02   1
   6   5  -9 22258.9 2496.03   4
  -6  -5   8 4313.59 1366.69   1
   6   5  -8 914.626 464.480   4
  -6  -5   7 385.148 479.821   1
   6   5  -7 1087.74 560.725   4
  -6  -5   6 3733.91 1288.93   1
  -6  -5   5 16946.5 2500.18   1
  -6  -5   4 5031.95 1400.25   1
  -6  -5   3 2297.92 888.187   1
   6  -5  -3 7455.40 1715.19   3
  -6  -5   2 1098.43 789.558   1
   6  -5  -2 1643.24 957.649   3
  -6  -5   1 4123.57 1170.76   1
   6  -5  -1 4785.80 1368.98   3
  -6  -5   0 2560.30 890.358   1
   6  -5   0 2134.67 915.737   3
   6  -5   1 565.231 502.360   3
  -6  -5  -1 860.795 584.938   1
   6  -5   2 7417.02 1731.63   3
   6  -5   3 31583.6 3779.98   3
   6  -5   4 7969.24 1870.15   3
   6  -5   5 21729.7 3151.37   3
   6  -5   6 1210.79 1015.31   3
   6  -5   7 1025.54 942.416   3
   6  -5   8-1676.51 902.112   3
  -6  -6  12 587.215 442.433   3
  -6  -6  11 7969.65 1891.71   3
  -6  -6  10 1174.51 1014.62   3
  -6  -6   9 6688.06 1854.63   1
   6   6  -9 5305.48 1303.56   4
  -6  -6   8 900.325 552.557   1
   6   6  -8 732.240 378.515   4
  -6  -6   7 145.909 707.633   1
   6   6  -7 397.208 837.681   4
  -6  -6   6 12092.6 2308.74   1
   6   6  -6 10843.2 1959.11   4
   6   6  -5 2619.90 1033.35   4
  -6  -6   5 4733.01 1523.93   1
  -6  -6   4 5315.60 1668.88   1
  -6  -6   3 35846.4 3762.25   1
   6  -6  -2 64.1950 547.781   3
  -6  -6   2 1538.06 930.877   1
   6  -6  -1 12463.9 2216.55   3
  -6  -6   1 11858.8 2034.71   1
   6  -6   0 5422.32 1577.66   3
   6  -6   1 959.066 858.500   3
   6  -6   2 4155.78 1397.41   3
   6  -6   3-70.5079 421.605   3
   6  -6   4 472.940 335.923   3
   6  -6   5 13591.5 2715.75   3
   6  -6   6 443.125 543.969   3
  -6  -7   5 1259.98 1045.15   1
  -7   0  18 2677.36 1170.85   1
  -7   0  17 40.5283 346.898   1
  -7   0  16 22347.5 3078.01   1
  -7   0  15 93.0955 577.791   1
  -7   0  14 3606.37 1274.33   1
  -7   0  13-447.598 263.072   1
  -7   0  12 9479.42 1914.90   1
  -7   0  11 927.572 594.262   1
  -7   0  10 729.528 647.140   2
  -7   0   9 114.888 603.203   2
  -7   0   8 8085.18 1977.70   2
  -7   0   7-554.661 526.738   2
  -7   0   6 4473.63 1519.09   2
  -7   0   5-176.929 310.034   2
  -7   0   4 181583. 10060.8   2
  -7   0   3-605.891 388.614   2
  -7   0   2 331938. 14299.5   2
  -7   0   1 878.114 919.774   2
   7   0  -1 487.748 491.327   3
  -7   0   0 5467.47 1846.74   2
   7   0   0 5615.77 1363.63   3
  -7   0  -1 238.974 630.939   2
   7   0   1-326.370 288.715   3
  -7   0  -2 4122.96 1512.90   2
   7   0   2 3399.73 1161.49   3
  -7   0  -3 641.448 709.244   2
   7   0   3-409.508 297.590   3
   7   0   4 152966. 7579.40   3
  -7   0  -4 195593. 10320.2   2
  -7   0  -5 122.965 423.196   2
   7   0   5 357.015 319.645   3
   7   0   6 203834. 9325.70   3
  -7   0  -6 264854. 11754.3   2
  -7   0  -7-190.668 635.845   2
   7   0   7-554.745 702.492   3
   7   0   8 4830.08 1434.54   3
   7   0   9-815.518 675.929   3
   7   0  10 312.054 711.476   3
   7   0  11-445.255 393.741   3
   7   0  12 12120.8 2415.25   3
  -7  -1  18 7884.23 1770.25   1
  -7  -1  17 319.520 523.181   1
  -7   1  17 1077.82 589.771   1
  -7  -1  16 9885.46 2082.67   1
  -7   1  16 5566.33 1524.36   1
  -7   1  15 2321.32 1073.07   1
  -7  -1  15 3303.24 1295.88   1
  -7   1  14 304.112 390.339   1
  -7  -1  14 374.250 568.240   1
  -7  -1  13 19988.2 2858.46   1
  -7  -1  13 24382.1 3014.06   2
  -7  -1  12 8980.35 1918.33   1
  -7  -1  12 7622.87 1777.68   2
  -7  -1  11 401.628 716.026   1
  -7  -1  11 705.712 847.957   2
  -7  -1  10 108151. 7325.84   2
  -7  -1  10 101826. 6460.30   1
  -7  -1   9 21179.2 3407.26   2
  -7  -1   9 16089.5 2473.59   1
  -7  -1   8 135862. 8810.82   2
  -7  -1   8 98435.6 6253.44   1
  -7  -1   7 31917.2 4300.25   2
  -7  -1   7 24836.6 3024.67   1
  -7   1   6 5772.74 1555.66   2
  -7   1   5 95379.2 6517.69   2
  -7   1   4 18192.4 2898.68   2
  -7   1   3 1395.04 803.453   2
   7  -1  -2 166958. 7501.98   3
  -7   1   2 141476. 8468.14   2
   7  -1  -1 5955.46 1442.26   3
  -7   1   1 4857.91 1512.00   2
   7  -1   0 44581.8 3792.79   3
  -7   1   0 38513.8 4331.33   2
   7   1   1 2316.25 907.614   3
   7  -1   1 4566.41 1269.07   3
  -7   1  -1 2801.74 1201.87   2
   7   1   2 9539.63 1677.36   3
   7  -1   2 10413.7 1895.66   3
  -7   1  -2 10728.5 2184.21   2
   7   1   3 9007.61 1703.94   3
   7  -1   3 5478.60 1420.23   3
  -7   1  -3 8035.87 1954.99   2
   7   1   4 2132.86 810.487   3
   7  -1   4 2031.49 883.313   3
  -7   1  -4 1433.83 867.736   2
   7   1   5 2362.85 1048.44   3
   7  -1   5 2118.83 907.200   3
  -7   1  -5 2654.43 1146.15   2
   7   1   6 1412.35 908.566   3
   7  -1   6 2338.91 824.846   3
   7   1   7 17590.7 2510.97   3
  -7  -1  -7 20526.0 3328.16   2
   7  -1   7 15023.6 2508.61   3
  -7  -1  -8-196.578 415.611   2
   7   1   8 740.103 631.558   3
   7  -1   8 560.746 376.074   3
   7   1   9 535.202 503.263   3
   7  -1   9 1217.64 841.798   3
   7   1  10 5985.32 1598.95   3
   7  -1  10 9060.16 2029.31   3
   7   1  11 1159.95 622.702   3
   7  -1  11 969.206 640.050   3
   7   1  12 15138.5 2655.85   3
  -7  -2  17 420.703 650.388   1
  -7   2  16 1494.19 892.756   1
  -7  -2  16 1620.06 1193.27   1
  -7  -2  15 1891.52 928.917   1
  -7  -2  14 221.305 556.997   1
  -7  -2  13 10809.3 2176.08   1
  -7  -2  13 9555.06 2106.87   2
  -7  -2  12 324.464 727.505   1
  -7  -2  12-225.743 637.306   2
  -7  -2  11 34013.9 4381.21   2
  -7  -2  11 31008.8 3496.43   1
  -7  -2  10 963.807 771.005   1
  -7  -2   9 5127.57 1407.43   1
  -7  -2   8 1437.11 861.043   1
  -7  -2   7 72747.5 5242.75   1
  -7  -2   6 9453.48 1840.46   1
  -7  -2   5 3460.48 1122.40   1
  -7  -2   4 9550.92 1816.95   1
   7  -2  -3 16325.9 2281.45   3
  -7  -2   3 11487.0 1924.94   1
   7  -2  -2 17085.1 2352.54   3
  -7  -2   2 14598.7 2114.46   1
   7  -2  -1 25380.7 2882.73   3
  -7  -2   1 20035.4 2421.00   1
   7  -2   0 77609.2 5236.18   3
  -7  -2   0 58806.0 4149.34   1
   7  -2   1 167098. 7912.28   3
  -7  -2  -1 131282. 6261.95   1
   7  -2   2 54298.6 4510.86   3
  -7  -2  -2 42322.1 3276.63   1
   7   2   3 36857.0 3285.32   3
   7  -2   3 39804.2 3950.80   3
  -7  -2  -3 32158.7 2719.15   1
   7   2   4 13437.6 1992.51   3
   7  -2   4 13282.0 2368.32   3
   7   2   5 3481.56 1060.58   3
   7  -2   5 3105.42 1154.67   3
   7   2   6 15894.5 2208.05   3
   7  -2   6 16904.4 2678.92   3
   7   2   7 3508.77 1161.91   3
   7  -2   7 2340.07 1008.13   3
   7   2   8 11433.8 2011.18   3
   7  -2   8 13160.3 2407.04   3
   7   2   9 31058.7 3342.53   3
   7  -2   9 34023.9 4012.38   3
   7  -2  10 5370.25 1538.30   3
  -7  -3  15 7732.82 1902.69   1
  -7  -3  14 15816.5 2686.80   1
  -7  -3  13 15270.2 2600.10   1
  -7  -3  12 5866.19 1712.13   1
  -7  -3  11 8071.82 1924.86   1
  -7  -3  10 2751.61 1046.14   1
  -7  -3   9 7223.78 1707.83   1
  -7  -3   8 4603.22 1416.64   1
  -7  -3   7 25910.5 3112.68   1
  -7  -3   6 71873.2 5188.42   1
  -7  -3   5 51176.4 4305.06   1
  -7  -3   4 27980.8 3066.15   1
   7  -3  -3 14989.4 2332.86   3
  -7  -3   3 13573.2 2098.73   1
  -7  -3   2 8232.73 1591.45   1
   7  -3  -2 8758.03 1805.88   3
  -7  -3   1 872.000 639.123   1
   7  -3  -1 2431.34 1005.30   3
  -7  -3   0 2259.57 878.850   1
   7  -3   0 4056.35 1400.67   3
  -7  -3  -1 2464.37 792.855   1
   7  -3   1 3270.32 1058.33   3
  -7  -3  -2 30923.0 2652.06   1
   7  -3   2 29323.1 3513.74   3
   7  -3   3 18998.1 2821.41   3
   7  -3   4 21854.3 3066.52   3
   7  -3   5 517.847 662.391   3
   7  -3   6 3517.56 1271.29   3
   7  -3   7 14376.3 2678.36   3
   7  -3   8 3767.41 1353.99   3
   7  -3   9 7327.88 2052.56   3
  -7  -4  13 1812.51 1189.88   1
  -7  -4  12 5933.45 1636.32   1
  -7  -4  11 260.465 628.267   1
  -7  -4  10 969.655 437.739   1
  -7  -4   9 1386.93 764.931   1
  -7  -4   8 17522.8 2718.48   1
  -7  -4   7-369.306 562.675   1
  -7  -4   6 12789.3 2289.45   1
  -7  -4   5 2111.31 804.030   1
  -7  -4   4 11790.9 2017.99   1
  -7  -4   3 17437.8 2457.23   1
   7  -4  -3 17076.4 2450.21   3
  -7  -4   2 9613.33 1769.70   1
   7  -4  -2 11316.7 2087.14   3
  -7  -4   1 29656.8 3000.54   1
   7  -4  -1 31102.3 3483.92   3
  -7  -4   0 8851.95 1536.34   1
   7  -4   0 10895.9 2110.49   3
  -7  -4  -1 18079.1 2141.33   1
   7  -4   1 20012.4 2895.63   3
   7  -4   2 13614.5 2483.81   3
   7  -4   3 16710.3 2707.14   3
   7  -4   4 3445.57 1136.61   3
   7  -4   5 32949.5 3975.81   3
   7  -4   6 6345.74 1936.15   3
   7  -4   7 9704.36 2245.48   3
  -7  -5  11 8944.19 2101.11   1
  -7  -5  10 4875.40 1584.01   1
  -7  -5   9 38959.9 4282.52   1
  -7  -5   8 2279.58 1148.54   1
  -7  -5   7 4018.55 1373.04   1
  -7  -5   6 1508.80 892.055   1
  -7  -5   5 1042.53 710.156   1
  -7  -5   4 603.775 625.778   1
  -7  -5   3 15674.7 2462.04   1
   7  -5  -3 17589.0 2672.98   3
  -7  -5   2 1884.22 972.520   1
   7  -5  -2 1413.12 673.858   3
  -7  -5   1 43920.5 3825.64   1
   7  -5  -1 52006.0 4706.26   3
  -7  -5   0 1217.32 683.780   1
   7  -5   0 1523.57 955.993   3
   7  -5   1 875.471 358.633   3
   7  -5   2 1143.20 457.455   3
   7  -5   3 7541.20 1912.60   3
   7  -5   4 6473.56 1906.29   3
   7  -5   5 1402.76 790.904   3
   7  -5   6-9.47820 577.023   3
  -7  -6   8 1446.32 1022.52   1
  -7  -6   7 4980.19 1732.03   1
  -7  -6   6 2168.67 1027.65   1
  -7  -6   5 3517.64 1159.43   1
  -7  -6   4 1066.14 783.853   1
  -7  -6   3 15279.8 2554.22   1
   7  -6  -2 257.223 386.900   3
  -7  -6   2 468.020 750.116   1
   7  -6  -1 2187.49 1236.88   3
   7  -6   0 5514.98 1651.72   3
   7  -6   1 1587.93 939.104   3
   7  -6   2 6320.25 1886.03   3
   7  -6   3 4587.72 1683.73   3
   7  -6   4 1347.59 956.258   3
  -7  -7   4 4780.56 1702.12   1
  -8   0  17 936.832 751.577   1
  -8   0  16 34114.8 4020.66   1
  -8   0  15 491.254 711.021   1
  -8   0  14 6799.16 1853.47   1
  -8   0  13 217.756 467.159   1
  -8   0  12 3962.66 1320.69   1
  -8   0  11-156.226 526.512   2
  -8   0  10 17430.9 2966.45   2
  -8   0   9-282.029 669.847   2
  -8   0   8 149681. 9346.88   2
  -8   0   7 757.113 924.666   2
  -8   0   6 23343.9 3709.72   2
  -8   0   5 384.178 920.159   2
  -8   0   4 12751.2 2761.18   2
  -8   0   3 454.479 630.765   2
  -8   0   2 230.573 471.444   2
  -8   0   1-442.233 643.501   2
   8   0  -1 93.9929 479.914   3
  -8   0   0 16185.9 3104.35   2
   8   0   0 14784.5 2306.95   3
  -8   0  -1-28.3985 340.191   2
   8   0   1 988.022 798.221   3
  -8   0  -2 3868.98 1625.25   2
   8   0   2 3365.89 1154.24   3
  -8   0  -3 353.067 716.278   2
   8   0   3 1996.37 1042.03   3
   8   0   4 82789.1 5775.18   3
  -8   0  -4 96459.9 7524.57   2
  -8   0  -5-155.005 602.961   2
   8   0   5 384.953 577.262   3
   8   0   6 52052.4 4677.17   3
  -8   0  -6 70295.9 6250.29   2
  -8   0  -7 30.0481 479.343   2
   8   0   7 410.366 842.506   3
   8   0   8-882.816 819.170   3
   8   0   9 469.651 790.730   3
   8   0  10-119.320 375.217   3
  -8   1  17 784.017 847.762   1
  -8  -1  16 834.067 807.880   1
  -8   1  16-994.305 961.940   1
  -8  -1  15 3041.84 1222.13   1
  -8   1  15 2051.92 1181.75   1
  -8   1  14 3910.26 1344.01   1
  -8  -1  14 5145.34 1683.86   1
  -8  -1  13 4148.46 1414.34   2
  -8  -1  13 6093.96 1633.70   1
  -8  -1  12 4404.92 1445.04   1
  -8  -1  12 2572.68 1166.22   2
  -8  -1  11 1202.04 715.400   1
  -8  -1  11 894.167 924.413   2
  -8  -1  10 57600.8 5690.86   2
  -8  -1  10 45700.0 4581.77   1
  -8  -1   9 6221.78 1885.30   2
  -8  -1   9 5114.32 1479.05   1
  -8  -1   8 34110.9 4642.86   2
  -8  -1   8 21869.1 3079.21   1
  -8  -1   7 28804.6 4292.35   2
  -8  -1   7 19408.7 2863.54   1
  -8  -1   6 5386.21 2017.56   2
  -8   1   6 2947.47 1241.71   2
  -8  -1   5 117684. 9040.37   2
  -8   1   5 94657.0 7114.07   2
  -8  -1   4 32903.1 4791.53   2
  -8   1   4 28101.7 3872.06   2
  -8   1   3 1258.60 769.291   2
   8  -1  -2 124416. 6842.75   3
  -8   1   2 120502. 8329.38   2
   8  -1  -1 32514.9 3443.82   3
  -8   1   1 31551.3 4149.97   2
   8  -1   0 112228. 6553.11   3
  -8   1   0 111959. 7979.37   2
   8   1   1 27812.4 3094.25   3
   8  -1   1 26133.2 3158.61   3
  -8   1  -1 26794.5 3834.31   2
   8   1   2 13036.9 2106.25   3
   8  -1   2 14750.2 2389.28   3
  -8   1  -2 12785.2 2669.23   2
   8   1   3 50844.5 4250.60   3
   8  -1   3 54146.4 4627.39   3
  -8   1  -3 58649.4 5497.27   2
  -8  -1  -4 11363.3 2821.60   2
   8   1   4 8296.40 1793.26   3
   8  -1   4 7747.03 1824.78   3
  -8   1  -4 9330.74 2164.48   2
  -8  -1  -5 701.341 870.280   2
   8   1   5 2027.01 996.459   3
   8  -1   5 174.224 533.009   3
   8   1   6 31289.7 3530.18   3
   8  -1   6 35533.3 4082.44   3
  -8  -1  -7 2933.28 1363.76   2
   8   1   7 2923.37 939.402   3
   8  -1   7 2192.54 1186.92   3
   8   1   8 9129.44 1922.91   3
   8  -1   8 10194.7 2279.73   3
   8   1   9 123.834 618.269   3
   8  -1   9 1066.93 772.852   3
   8   1  10 1120.84 894.983   3
   8   1  11 1268.49 495.717   3
  -8   2  17 1525.71 858.870   1
  -8   2  16-995.134 961.169   1
  -8  -2  15 111.255 457.808   1
  -8  -2  14 8602.44 2045.46   1
  -8  -2  13 26309.3 3499.76   1
  -8  -2  13 25473.3 3665.54   2
  -8  -2  12 27209.7 3567.70   1
  -8  -2  12 28745.8 4174.13   2
  -8  -2  11 24311.9 3975.88   2
  -8  -2  11 19075.8 2965.60   1
  -8  -2  10 5048.65 1846.75   2
  -8  -2  10 4888.61 1458.65   1
  -8  -2   9 3992.63 1419.21   1
  -8  -2   8 2438.50 1112.58   1
  -8  -2   7 1333.42 609.813   1
  -8  -2   6 4102.28 1306.09   1
  -8  -2   5 34472.8 3754.68   1
  -8  -2   4 84.0585 458.821   1
   8  -2  -3 25726.2 3098.96   3
  -8  -2   3 22201.8 2873.76   1
  -8  -2   2 13.8829 317.161   1
   8  -2  -2 1811.36 1023.99   3
  -8  -2   1 10484.7 1890.57   1
   8  -2  -1 12348.0 2193.13   3
  -8  -2   0 539.046 339.040   1
   8  -2   0 1185.25 847.543   3
   8  -2   1 48658.9 4444.77   3
  -8  -2  -1 34481.4 3253.63   1
   8  -2   2 4353.61 1413.50   3
  -8  -2  -2 1870.82 683.364   1
   8  -2   3 4256.77 1360.43   3
   8   2   4 2670.39 950.165   3
   8  -2   4 3647.44 1361.16   3
   8   2   5 3253.49 1184.08   3
   8  -2   5 1408.47 982.767   3
   8   2   6 4587.82 1395.45   3
   8  -2   6 3961.07 1327.26   3
   8   2   7 2173.14 818.983   3
   8  -2   7 2831.00 1213.31   3
   8   2   8 8311.72 1769.51   3
   8  -2   8 8937.13 2060.80   3
  -8  -3  14 5795.54 1624.32   1
  -8  -3  13 5623.03 1671.66   2
  -8  -3  13 3928.59 1335.86   1
  -8  -3  12 2900.04 1129.23   1
  -8  -3  11 599.545 706.746   1
  -8  -3  10 3271.91 1165.78   1
  -8  -3   9 1015.41 804.009   1
  -8  -3   8 367.913 526.461   1
  -8  -3   7 27484.1 3459.25   1
  -8  -3   6 38957.0 4012.56   1
  -8  -3   5 44003.5 4226.87   1
  -8  -3   4 16434.8 2523.93   1
   8  -3  -3 18412.3 2670.97   3
  -8  -3   3 16023.1 2462.80   1
  -8  -3   2 3311.22 1144.02   1
   8  -3  -2 4079.22 1390.07   3
  -8  -3   1 6847.86 1490.31   1
   8  -3  -1 10681.0 2080.18   3
  -8  -3   0 2259.07 992.003   1
   8  -3   0 2170.39 947.539   3
   8  -3   1 43907.2 4313.46   3
  -8  -3  -1 32060.9 3077.12   1
   8  -3   2 49098.7 4720.25   3
   8  -3   3 41635.2 4460.96   3
   8  -3   4 10934.5 2303.30   3
   8  -3   5 2676.00 1230.97   3
   8  -3   6 2462.65 1071.48   3
   8  -3   7-59.1479 487.008   3
  -8  -4  12 11125.0 2399.64   1
  -8  -4  11 2361.68 1041.53   1
  -8  -4  10 946.094 918.261   1
  -8  -4   9 9468.44 2171.70   1
  -8  -4   8 9918.19 2181.55   1
  -8  -4   7 12534.9 2331.04   1
  -8  -4   6 383.111 673.119   1
  -8  -4   5 679.424 447.125   1
  -8  -4   4 21806.9 2979.48   1
  -8  -4   3 329.267 371.564   1
   8  -4  -3 268.276 650.463   3
  -8  -4   2 5402.01 1420.78   1
   8  -4  -2 7434.93 1825.60   3
  -8  -4   1 320.100 405.068   1
   8  -4  -1 98.4692 514.042   3
  -8  -4   0 9446.72 1707.45   1
   8  -4   0 10412.9 2129.34   3
   8  -4   1 394.045 868.394   3
   8  -4   2 5380.77 1706.95   3
   8  -4   3 5901.31 1709.44   3
   8  -4   4 10044.1 2255.60   3
   8  -4   5 5787.86 1809.15   3
   8  -4   6 3401.18 1281.31   3
  -8  -5  10 375.728 268.961   1
  -8  -5   9 11398.4 2380.80   1
  -8  -5   8-588.279 863.799   1
  -8  -5   7 1723.78 876.036   1
  -8  -5   6-306.050 519.127   1
  -8  -5   5 557.954 922.383   1
  -8  -5   4 456.506 586.934   1
  -8  -5   3 23487.3 3067.71   1
   8  -5  -3 26446.0 3416.57   3
  -8  -5   2 7790.71 1743.48   1
   8  -5  -2 4983.87 1513.63   3
  -8  -5   1 31820.0 3410.15   1
   8  -5  -1 35342.6 4082.18   3
   8  -5   0 245.482 513.901   3
   8  -5   1 1012.84 715.954   3
   8  -5   2 444.485 530.398   3
   8  -5   3-79.5282 818.553   3
   8  -5   4 1128.97 373.722   3
  -8  -6   6 1042.51 1174.88   1
  -8  -6   5 1533.40 1019.55   1
  -8  -6   4 33.3102 399.498   1
  -8  -6   3 1550.56 923.627   1
   8  -6  -2 776.038 912.977   3
   8  -6  -1 245.648 404.575   3
   8  -6   0-1152.79 962.605   3
   8  -6   1 5138.59 1771.73   3
   8  -6   2 1714.10 1186.36   3
  -9   0  15-106.872 597.367   1
  -9   0  14-368.518 692.225   1
  -9   0  13-94.5386 489.286   1
  -9   0  12 1308.37 857.327   1
  -9   0  11 818.459 663.680   2
  -9   0  10 44103.9 5129.41   2
  -9   0   9 1117.97 1024.87   2
  -9   0   8 158634. 10291.2   2
  -9   0   7 1959.85 1311.88   2
  -9   0   6 23203.1 3981.90   2
  -9   0   5-436.118 576.924   2
  -9   0   4 3067.71 1363.02   2
  -9   0   3 1334.68 996.905   2
  -9   0   2 49106.9 5779.71   2
  -9   0   1 48.8504 794.794   2
   9   0   0 87118.9 5982.60   3
  -9   0   0 106631. 8534.82   2
   9   0   1 761.752 740.106   3
  -9   0  -1-497.248 614.399   2
  -9   0  -2 15675.1 3182.08   2
   9   0   2 14743.9 2450.29   3
  -9   0  -3 548.074 694.028   2
   9   0   3-109.022 476.953   3
  -9   0  -4 3323.95 1429.76   2
   9   0   4 2422.38 1044.02   3
  -9   0  -5-420.123 351.867   2
   9   0   5 367.357 920.692   3
   9   0   6 133.493 446.859   3
  -9   0  -6 13.0867 800.395   2
   9   0   7 363.984 556.581   3
   9   0   8 8076.73 1986.38   3
  -9   1  15 3030.69 1342.13   1
  -9  -1  15 3709.60 1581.28   1
  -9  -1  14 4851.46 1624.61   1
  -9  -1  14 8499.76 2088.03   2
  -9   1  14 5995.21 1751.30   1
  -9  -1  13 477.335 642.549   1
  -9  -1  13 287.749 406.183   2
  -9  -1  12 730.330 629.338   1
  -9  -1  12 1281.15 1040.51   2
  -9  -1  11 15893.0 3222.29   2
  -9  -1  11 14014.5 2714.26   1
  -9  -1  10 2074.97 892.726   1
  -9  -1  10 3342.09 1656.66   2
  -9  -1   9 3529.77 1410.01   1
  -9  -1   9 3601.10 1670.96   2
  -9  -1   8 2583.14 1086.58   1
  -9  -1   8 2904.85 1467.26   2
  -9  -1   7 3790.60 1405.98   1
  -9  -1   7 2719.08 1749.31   2
  -9  -1   6 18199.1 3666.48   2
  -9   1   6 19995.8 3395.76   2
  -9  -1   5 6300.03 2375.16   2
  -9   1   5 2143.34 1353.42   2
  -9  -1   4 8939.94 2579.36   2
  -9   1   4 5862.04 1908.28   2
  -9  -1   3 2081.80 1621.03   2
  -9   1   3 440.903 660.811   2
  -9  -1   2 93222.0 8317.87   2
  -9   1   2 85769.1 7392.16   2
  -9  -1   1 2318.26 1503.22   2
   9  -1  -1 136.160 620.902   3
  -9   1   1 1816.30 1062.51   2
  -9  -1   0 18373.6 3622.01   2
   9  -1   0 15885.0 2549.74   3
  -9   1   0 16026.8 3152.72   2
   9  -1   1 22715.2 3039.45   3
  -9   1  -1 27336.2 4091.12   2
  -9  -1  -1 20299.6 3843.73   2
  -9  -1  -2-134.667 900.203   2
   9   1   2 192.737 384.871   3
   9  -1   2 1300.82 972.651   3
  -9   1  -2-349.918 651.265   2
   9   1   3 27392.3 3318.18   3
   9  -1   3 30483.9 3602.88   3
  -9  -1  -3 37411.4 5165.65   2
  -9   1  -3 32672.5 4417.35   2
  -9  -1  -4 14221.4 3125.01   2
   9   1   4 11612.6 2147.19   3
   9  -1   4 14352.3 2604.19   3
  -9  -1  -5 376.844 670.564   2
   9   1   5 266.696 394.792   3
   9  -1   5-980.554 1000.04   3
   9   1   6 29787.5 3596.81   3
   9  -1   6 33728.0 4064.69   3
   9   1   7 718.863 809.444   3
   9  -1   7 494.899 461.266   3
   9   1   8 15277.4 2604.85   3
   9   1   9 1954.84 955.197   3
  -9  -2  14 1385.70 1041.32   1
  -9  -2  13 16832.6 3021.84   1
  -9  -2  13 22274.3 3757.53   2
  -9  -2  12 3522.04 1377.86   1
  -9  -2  12 3346.24 1316.65   2
  -9  -2  11 21290.6 3266.27   1
  -9  -2  11 24189.1 4143.48   2
  -9  -2  10 12836.3 3089.12   2
  -9  -2  10 5557.21 1650.55   1
  -9  -2   9 114.017 535.490   1
  -9  -2   9 948.610 783.788   2
  -9  -2   8 1949.84 1047.96   1
  -9  -2   7 818.441 738.047   1
  -9  -2   6 22285.8 3242.11   1
  -9  -2   5 39140.0 4250.62   1
  -9  -2   4 43172.6 4382.14   1
  -9  -2   3 35389.1 3854.42   1
  -9  -2   2 12580.2 2249.79   1
   9  -2  -2 13636.6 2356.45   3
  -9  -2   1 988.295 627.130   1
   9  -2  -1 828.706 775.962   3
  -9  -2   0 2304.73 1001.74   1
   9  -2   0 4846.69 1557.45   3
  -9  -2  -1 3071.59 1104.35   1
   9  -2   1 1799.99 971.717   3
   9  -2   2 5855.09 1686.37   3
   9  -2   3 17761.0 2923.26   3
   9  -2   4 1803.25 1005.67   3
   9   2   5 9572.41 2012.77   3
   9  -2   5 9260.92 2242.74   3
   9   2   6 1709.93 1094.83   3
   9  -2   6 3637.88 1461.19   3
  -9  -3  13 2344.65 1338.76   2
  -9  -3  12 2140.05 1080.50   1
  -9  -3  12 4043.67 1759.92   2
  -9  -3  11 9326.33 2320.76   1
  -9  -3  10 11173.2 2428.23   1
  -9  -3   9 1487.77 1072.35   1
  -9  -3   8 131.405 632.146   1
  -9  -3   7 8464.38 2016.34   1
  -9  -3   6 8386.57 2055.19   1
  -9  -3   5 4444.09 1552.16   1
  -9  -3   4-53.8533 455.236   1
  -9  -3   3 643.518 589.892   1
   9  -3  -3 781.830 803.087   3
  -9  -3   2 4829.32 1301.28   1
   9  -3  -2 7387.17 1891.29   3
  -9  -3   1-121.403 393.456   1
   9  -3  -1 74.1550 471.530   3
  -9  -3   0 711.397 685.715   1
   9  -3   0 592.984 658.035   3
   9  -3   1 21194.1 3198.59   3
   9  -3   2 26215.1 3580.75   3
   9  -3   3 20338.1 3158.01   3
   9  -3   4 6506.16 1796.96   3
   9  -3   5 9506.96 2445.20   3
  -9  -4  10 1480.33 1190.97   1
  -9  -4   9 5002.43 1577.06   1
  -9  -4   8 3893.59 1370.08   1
  -9  -4   7 9344.13 2127.32   1
  -9  -4   6 2220.23 989.454   1
  -9  -4   5 5929.40 1576.02   1
  -9  -4   4 12608.6 2278.86   1
   9  -4  -3 5193.45 1603.63   3
  -9  -4   3 4558.74 1383.04   1
   9  -4  -2 347.875 645.500   3
  -9  -4   2-383.787 596.813   1
  -9  -4   1 9140.82 1869.12   1
   9  -4  -1 11165.4 2366.28   3
   9  -4   0 6756.47 1903.06   3
   9  -4   1 7429.61 2004.90   3
   9  -4   2 1700.77 640.263   3
   9  -4   3 656.907 1125.60   3
  -9  -5   8 455.380 635.574   1
  -9  -5   7 69.4237 658.618   1
  -9  -5   6 89.0565 480.127   1
  -9  -5   5 405.604 446.425   1
  -9  -5   4 270.493 728.390   1
  -9  -5   3 3197.38 1181.32   1
   9  -5  -3 6543.17 1784.93   3
   9  -5  -2 4766.32 1518.34   3
   9  -5  -1 12155.6 2497.04   3
   9  -5   0 1502.31 834.175   3
   9  -5   1 2156.94 1384.97   3
  -9  -6   5 1441.35 1230.83   1
  -9  -6   4 4171.99 1470.53   1
   9  -6  -2 1479.40 1015.86   3
 -10   0  13 464.450 391.124   1
 -10   0  12 5178.42 1566.06   1
 -10   0  11 996.521 861.162   2
 -10   0  10 5265.75 1912.15   2
 -10   0   9 1543.38 1194.07   2
 -10   0   8 51808.3 6121.97   2
 -10   0   7 469.643 843.333   2
 -10   0   6 3873.69 1919.63   2
 -10   0   5 77.6962 890.880   2
 -10   0   4 4206.04 2035.11   2
 -10   0   3-855.200 642.278   2
 -10   0   2 64549.2 6991.67   2
 -10   0   1-270.616 676.873   2
 -10   0   0 136914. 10124.8   2
  10   0   1-1038.79 515.074   3
 -10   0  -1-1382.37 1021.01   2
  10   0   2 10212.1 2184.63   3
 -10   0  -2 17902.6 3555.36   2
  10   0   3-298.213 394.315   3
 -10   0  -3 900.066 1249.35   2
  10   0   4 3450.09 1331.16   3
 -10   0  -4 3439.28 1513.91   2
  10   0   5-557.650 723.470   3
 -10   0  -5-151.649 717.020   2
  10   0   6 10396.0 2268.05   3
 -10  -1  14 12535.7 2784.99   2
 -10  -1  13 298.194 690.783   1
 -10  -1  13 399.354 463.947   2
 -10  -1  12 1766.89 585.221   1
 -10  -1  12 2857.35 1464.56   2
 -10  -1  11 19070.8 3299.87   1
 -10  -1  11 21538.8 3918.45   2
 -10  -1  10 1847.84 1147.28   1
 -10  -1  10 3222.49 1627.14   2
 -10  -1   9 1034.97 749.250   1
 -10  -1   9 3078.39 1515.54   2
 -10  -1   8 34475.3 5123.44   2
 -10  -1   8 21146.8 3358.99   1
 -10  -1   7 10041.1 2274.97   1
 -10  -1   7 14514.8 3380.60   2
 -10  -1   6 33061.0 5008.60   2
 -10  -1   5 2221.75 1539.63   2
 -10   1   5-605.535 734.329   2
 -10  -1   4 3880.35 2052.57   2
 -10   1   4 2559.06 1282.76   2
 -10  -1   3 22451.8 4163.15   2
 -10   1   3 17348.2 3400.03   2
 -10  -1   2 237.248 799.373   2
 -10   1   2 1362.19 1049.94   2
 -10  -1   1 5160.03 2053.78   2
 -10   1   1 7402.35 2382.20   2
 -10  -1   0 8120.00 2526.09   2
  10  -1   0 3902.02 1289.96   3
 -10   1   0 5948.54 1948.53   2
 -10  -1  -1 7962.65 2452.88   2
  10  -1   1 5116.01 1436.12   3
 -10   1  -1 6558.35 2034.16   2
 -10  -1  -2 8689.02 2447.96   2
  10  -1   2 10258.4 2239.09   3
 -10   1  -2 7375.49 2298.00   2
 -10  -1  -3 10255.2 2739.46   2
  10   1   3 8987.43 2034.09   3
  10  -1   3 6645.58 1815.86   3
 -10  -1  -4 4664.86 1857.10   2
  10   1   4 1576.63 901.867   3
  10  -1   4 2365.98 1316.81   3
 -10  -1  -5 6793.59 2150.81   2
  10   1   5 2558.72 1253.60   3
  10  -1   5 3501.30 1509.73   3
 -10  -1  -6 17523.7 3493.64   2
  10   1   6 15140.5 2627.79   3
  10   1   7 179.674 661.997   3
 -10  -2  13 8377.96 2476.92   2
 -10  -2  12 1219.62 1149.90   1
 -10  -2  12 787.330 648.111   2
 -10  -2  11 1757.23 1166.11   2
 -10  -2  11-728.879 1069.42   1
 -10  -2  10 3499.78 1712.42   2
 -10  -2  10 1831.40 1203.24   1
 -10  -2   9 12608.3 2557.30   1
 -10  -2   9 14268.0 3452.29   2
 -10  -2   8 4510.40 1535.89   1
 -10  -2   8 7347.94 2537.36   2
 -10  -2   7-237.459 661.306   1
 -10  -2   7 1321.94 494.092   2
 -10  -2   6 3212.17 1380.41   1
 -10  -2   6 5147.76 1867.32   2
 -10  -2   5 42754.8 4606.37   1
 -10  -2   4 5281.57 1709.48   1
 -10  -2   3 14588.6 2561.39   1
 -10  -2   2 4649.12 1448.97   1
 -10  -2   1 201.550 267.036   1
  10  -2  -1 2617.17 1132.92   3
 -10  -2   0 5651.19 1486.11   1
  10  -2   0 6185.04 1797.64   3
  10  -2   1 2101.02 1190.04   3
  10  -2   2 10520.6 2224.09   3
  10  -2   3 21971.3 3316.87   3
 -10  -2  -4 10759.5 2968.53   2
  10  -2   4 9044.61 2240.46   3
 -10  -2  -5 12889.5 3142.45   2
 -10  -2  -6 4536.91 1889.49   2
 -10  -3  13 2944.13 1650.80   2
 -10  -3  12 4403.77 1780.80   2
 -10  -3  11 9258.91 2760.37   2
 -10  -3  10 12383.8 2674.36   1
 -10  -3   9 6349.46 1955.98   1
 -10  -3   8-91.2594 911.813   1
 -10  -3   7 1672.87 530.636   1
 -10  -3   6 3875.87 1402.91   1
 -10  -3   5 286.641 301.211   1
 -10  -3   4 1757.90 742.837   1
 -10  -3   3 7063.02 1762.41   1
 -10  -3   2 14070.8 2390.94   1
  10  -3  -2 16854.8 2938.39   3
 -10  -3   1 3097.67 1107.54   1
  10  -3  -1 1431.96 1063.42   3
  10  -3   0-702.401 621.841   3
  10  -3   1 7097.45 2024.08   3
  10  -3   2 5231.01 1755.91   3
 -10  -4   8 5707.35 1820.29   1
 -10  -4   7 1021.66 676.090   1
 -10  -4   6 1588.95 1059.00   1
 -10  -4   5 1203.82 665.224   1
 -10  -4   4 5979.12 1717.30   1
 -10  -4   3 5303.04 1386.69   1
  10  -4  -2 1252.30 927.205   3
  10  -4  -1 10465.9 2336.53   3
  10  -4   0 5909.02 1847.50   3
 -10  -5   6 1716.46 892.380   1
 -10  -5   5 1844.25 909.665   1
 -10  -5   4-639.700 664.741   1
 -11   0  10 3601.26 1552.23   2
 -11   0   9 535.058 976.551   2
 -11   0   8 1097.11 983.268   2
 -11   0   7 536.954 1480.55   2
 -11   0   6 20681.7 4044.18   2
 -11   0   5 797.798 875.001   2
 -11   0   4 18168.3 3878.58   2
 -11   0   3 847.646 826.341   2
 -11   0   2 16663.5 3684.61   2
 -11   0   1 604.288 399.710   2
 -11   0   0 43479.5 5863.69   2
 -11   0  -1 752.536 1085.59   2
  11   0   2 132.639 423.469   3
 -11   0  -2 1313.46 1304.34   2
 -11   0  -3-280.615 838.390   2
 -11   0  -4 2498.42 1305.38   2
 -11   0  -5 190.975 753.249   2
 -11  -1  14 1609.04 1160.83   2
 -11  -1  13 863.254 1371.28   2
 -11  -1  12-439.228 387.887   2
 -11  -1  11 6244.74 2376.30   2
 -11  -1  10 1463.32 1279.01   1
 -11  -1  10-536.926 991.953   2
 -11  -1   9-36.1884 795.851   2
 -11  -1   9 896.430 887.704   1
 -11  -1   8 16532.6 3072.52   1
 -11  -1   8 25686.4 4659.59   2
 -11  -1   7 2117.43 1362.81   1
 -11  -1   7 5648.58 2237.74   2
 -11  -1   6 30035.6 5067.31   2
 -11  -1   6 23103.7 3528.04   1
 -11  -1   5 7225.66 2492.16   2
 -11  -1   4 7992.17 2480.08   2
 -11  -1   3 20504.5 4115.52   2
 -11  -1   2 5673.67 2246.90   2
 -11  -1   1 1567.23 917.707   2
 -11  -1   0 18656.1 3861.75   2
 -11  -1  -1 1505.16 1447.92   2
  11  -1   1-139.412 364.114   3
 -11  -1  -2 17112.3 3582.84   2
 -11  -1  -3 3.35747 666.231   2
 -11  -1  -4 4347.31 1634.14   2
 -11  -1  -5 3754.32 1750.81   2
 -11  -2  13 2477.68 1646.59   2
 -11  -2  12-551.188 767.324   2
 -11  -2  11 1905.46 1524.55   2
 -11  -2  10 2884.05 1827.60   2
 -11  -2   9 11014.2 2505.64   1
 -11  -2   9 17465.3 3940.47   2
 -11  -2   8 3957.95 1410.14   1
 -11  -2   8 14126.4 3531.29   2
 -11  -2   7 63.4246 563.703   1
 -11  -2   7 2366.78 1457.04   2
 -11  -2   6 1637.45 1100.39   1
 -11  -2   6 998.488 905.309   2
 -11  -2   5 7644.72 2042.25   1
 -11  -2   5 14943.9 3402.78   2
 -11  -2   4-448.580 665.348   2
 -11  -2   4-329.802 338.579   1
 -11  -2   3-83.8789 1223.72   2
 -11  -2   3-33.8527 335.260   1
 -11  -2   2-368.754 872.941   2
 -11  -2   2 149.753 808.775   1
 -11  -2   1 14844.7 3608.56   2
 -11  -2   1 9972.82 2232.45   1
 -11  -2   0 880.939 854.552   2
  11  -2   0-476.701 557.168   3
 -11  -2  -1 1368.06 559.320   2
 -11  -2  -2 4042.75 1916.74   2
 -11  -3   8 1192.26 872.787   1
 -11  -3   7-349.231 1058.65   1
 -11  -3   6 942.502 1363.80   1
 -11  -3   5 3230.19 1431.97   1
 -11  -3   4 4443.87 1440.06   1
 -11  -3   3 11785.4 2374.96   1
 -11  -4   6 3247.59 1281.49   1
 -11  -4   5 382.602 607.947   1
 -11  -4   4 1919.82 1141.97   1
 -12  -1   7 4918.45 1856.98   1
 -12  -1   6 793.561 899.158   1
 -12  -1   5 4201.46 1740.70   1
 -12  -1   4 153.237 626.842   1
 -12  -2   6 1952.13 1148.79   1
 -12  -2   5 3152.76 1543.40   1
 -12  -2   4 1249.35 775.891   1
 -12  -2   3 2957.36 1297.64   1
 -12  -3   5 2360.40 1171.34   1
 -12  -3   4 2771.51 1318.53   1
   0   0   0    0.00    0.00   0
TITL AgBr_3pica_new in P2(1)/c
REM P2(1)/c (#14 in standard setting)
CELL 0.71073   9.451771   6.187988  14.398094  90.0000 105.7122  90.0000
ZERR    5.00   0.000565   0.000326   0.000885   0.0000   0.0062   0.0000
LATT  1
SYMM -x, y+1/2,-z+1/2
SFAC C H N Br Ag
UNIT 30.00 40.00 10.00 5.00 5.00
TREF
HKLF 4
END
;
_shelx_hkl_checksum              42493
_olex2_submission_special_instructions 'No special instructions were received'
_oxdiff_exptl_absorpt_empirical_details
;
Empirical correction (ABSPACK) includes:
- Absorption correction using spherical harmonics
- Frame scaling
;
loop_
_space_group_symop_operation_xyz
'x, y, z'
'-x, y+1/2, -z+1/2'
'-x, -y, -z'
'x, -y-1/2, z-1/2'
loop_
_atom_site_label
_atom_site_type_symbol
_atom_site_fract_x
_atom_site_fract_y
_atom_site_fract_z
_atom_site_U_iso_or_equiv
_atom_site_adp_type
_atom_site_occupancy
_atom_site_site_symmetry_order
_atom_site_calc_flag
_atom_site_refinement_flags_posn
_atom_site_refinement_flags_adp
_atom_site_refinement_flags_occupancy
_atom_site_disorder_assembly
_atom_site_disorder_group
Ag1 Ag 0.84709(5) 0.69442(7) 0.76809(3) 0.0539(2) Uani 1 1 d . . . . .
Br1 Br 0.94526(6) 0.88454(8) 0.63060(4) 0.04132(19) Uani 1 1 d . . . . .
N2 N 0.8728(5) 0.9040(6) 0.9016(3) 0.0367(10) Uani 1 1 d . . . . .
H2A H 0.899365 0.815052 0.951870 0.044 Uiso 1 1 calc R U . . .
H2B H 0.949835 0.989149 0.904524 0.044 Uiso 1 1 calc R U . . .
N1 N 0.6486(5) 0.4896(6) 0.6890(3) 0.0398(10) Uani 1 1 d . . . . .
C2 C 0.5098(6) 0.5610(8) 0.6627(3) 0.0358(12) Uani 1 1 d . . . . .
H2 H 0.491566 0.699336 0.681979 0.043 Uiso 1 1 calc R U . . .
C3 C 0.3923(6) 0.4440(8) 0.6091(3) 0.0337(11) Uani 1 1 d . . . . .
C5 C 0.5608(7) 0.1590(8) 0.6108(4) 0.0434(13) Uani 1 1 d . . . . .
H5 H 0.580818 0.019134 0.594426 0.052 Uiso 1 1 calc R U . . .
C6 C 0.6720(6) 0.2884(8) 0.6630(4) 0.0404(12) Uani 1 1 d . . . . .
H6 H 0.767217 0.233875 0.680888 0.048 Uiso 1 1 calc R U . . .
C7 C 0.7585(6) 1.0437(8) 0.9201(4) 0.0430(13) Uani 1 1 d . . . . .
H7A H 0.756530 1.178239 0.885158 0.052 Uiso 1 1 calc R U . . .
H7B H 0.783372 1.077686 0.988345 0.052 Uiso 1 1 calc R U . . .
C4 C 0.4190(7) 0.2379(8) 0.5827(4) 0.0451(14) Uani 1 1 d . . . . .
H4 H 0.342710 0.152904 0.546499 0.054 Uiso 1 1 calc R U . . .
loop_
_atom_site_aniso_label
_atom_site_aniso_U_11
_atom_site_aniso_U_22
_atom_site_aniso_U_33
_atom_site_aniso_U_23
_atom_site_aniso_U_13
_atom_site_aniso_U_12
Ag1 0.0446(3) 0.0613(3) 0.0526(3) -0.0130(2) 0.0077(2) -0.0073(2)
Br1 0.0368(4) 0.0445(3) 0.0424(3) -0.0065(2) 0.0104(3) -0.0005(2)
N2 0.029(3) 0.044(2) 0.033(2) -0.0005(18) 0.0003(18) -0.004(2)
N1 0.036(3) 0.043(2) 0.039(2) -0.004(2) 0.009(2) -0.003(2)
C2 0.031(3) 0.033(3) 0.044(3) -0.002(2) 0.011(2) 0.003(2)
C3 0.029(3) 0.038(3) 0.032(2) 0.002(2) 0.004(2) 0.000(2)
C5 0.041(4) 0.039(3) 0.052(3) -0.014(2) 0.014(3) 0.005(3)
C6 0.031(3) 0.045(3) 0.047(3) -0.007(2) 0.012(2) 0.005(2)
C7 0.034(3) 0.049(3) 0.047(3) -0.011(3) 0.012(2) -0.007(3)
C4 0.039(4) 0.050(3) 0.044(3) -0.014(3) 0.007(3) -0.007(3)
loop_
_atom_type_symbol
_atom_type_description
_atom_type_scat_dispersion_real
_atom_type_scat_dispersion_imag
_atom_type_scat_source
C C 0.0033 0.0016 'International Tables Vol C Tables 4.2.6.8 and 6.1.1.4'
H H 0.0000 0.0000 'International Tables Vol C Tables 4.2.6.8 and 6.1.1.4'
N N 0.0061 0.0033 'International Tables Vol C Tables 4.2.6.8 and 6.1.1.4'
Br Br -0.2901 2.4595 'International Tables Vol C Tables 4.2.6.8 and 6.1.1.4'
Ag Ag -0.8971 1.1015 'International Tables Vol C Tables 4.2.6.8 and 6.1.1.4'
loop_
_geom_angle_atom_site_label_1
_geom_angle_atom_site_label_2
_geom_angle_atom_site_label_3
_geom_angle
_geom_angle_site_symmetry_1
_geom_angle_site_symmetry_3
_geom_angle_publ_flag
Br1 Ag1 Br1 110.25(2) . 2_746 ?
N2 Ag1 Br1 113.26(11) . . ?
N2 Ag1 Br1 92.86(10) . 2_746 ?
N2 Ag1 N1 128.30(15) . . ?
N1 Ag1 Br1 106.04(10) . . ?
N1 Ag1 Br1 103.88(10) . 2_746 ?
Ag1 Br1 Ag1 104.248(19) . 2_756 ?
Ag1 N2 H2A 106.1 . . ?
Ag1 N2 H2B 106.1 . . ?
H2A N2 H2B 106.3 . . ?
C7 N2 Ag1 125.1(3) . . ?
C7 N2 H2A 106.1 . . ?
C7 N2 H2B 106.1 . . ?
C2 N1 Ag1 124.4(3) . . ?
C6 N1 Ag1 118.6(4) . . ?
C6 N1 C2 116.9(4) . . ?
N1 C2 H2 117.8 . . ?
N1 C2 C3 124.5(5) . . ?
C3 C2 H2 117.8 . . ?
C2 C3 C7 120.1(5) . 2_646 ?
C4 C3 C2 117.7(5) . . ?
C4 C3 C7 122.3(5) . 2_646 ?
C6 C5 H5 120.2 . . ?
C6 C5 C4 119.6(5) . . ?
C4 C5 H5 120.2 . . ?
N1 C6 C5 122.5(5) . . ?
N1 C6 H6 118.8 . . ?
C5 C6 H6 118.8 . . ?
N2 C7 C3 113.4(4) . 2_656 ?
N2 C7 H7A 108.9 . . ?
N2 C7 H7B 108.9 . . ?
C3 C7 H7A 108.9 2_656 . ?
C3 C7 H7B 108.9 2_656 . ?
H7A C7 H7B 107.7 . . ?
C3 C4 C5 118.9(5) . . ?
C3 C4 H4 120.5 . . ?
C5 C4 H4 120.5 . . ?
loop_
_geom_bond_atom_site_label_1
_geom_bond_atom_site_label_2
_geom_bond_distance
_geom_bond_site_symmetry_2
_geom_bond_publ_flag
Ag1 Br1 2.8471(7) 2_746 ?
Ag1 Br1 2.6757(7) . ?
Ag1 N2 2.276(4) . ?
Ag1 N1 2.295(4) . ?
N2 H2A 0.8900 . ?
N2 H2B 0.8900 . ?
N2 C7 1.464(6) . ?
N1 C2 1.338(6) . ?
N1 C6 1.336(6) . ?
C2 H2 0.9300 . ?
C2 C3 1.374(7) . ?
C3 C7 1.505(7) 2_646 ?
C3 C4 1.373(7) . ?
C5 H5 0.9300 . ?
C5 C6 1.372(7) . ?
C5 C4 1.380(8) . ?
C6 H6 0.9300 . ?
C7 H7A 0.9700 . ?
C7 H7B 0.9700 . ?
C4 H4 0.9300 . ?
loop_
_geom_torsion_atom_site_label_1
_geom_torsion_atom_site_label_2
_geom_torsion_atom_site_label_3
_geom_torsion_atom_site_label_4
_geom_torsion
_geom_torsion_site_symmetry_1
_geom_torsion_site_symmetry_2
_geom_torsion_site_symmetry_3
_geom_torsion_site_symmetry_4
_geom_torsion_publ_flag
Ag1 N2 C7 C3 40.1(6) . . . 2_656 ?
Ag1 N1 C2 C3 175.0(4) . . . . ?
Ag1 N1 C6 C5 -176.3(4) . . . . ?
N1 C2 C3 C7 -177.4(5) . . . 2_646 ?
N1 C2 C3 C4 1.5(8) . . . . ?
C2 N1 C6 C5 0.7(7) . . . . ?
C2 C3 C4 C5 -0.1(8) . . . . ?
C6 N1 C2 C3 -1.9(8) . . . . ?
C6 C5 C4 C3 -1.0(8) . . . . ?
C7 C3 C4 C5 178.8(5) 2_646 . . . ?
C4 C5 C6 N1 0.6(8) . . . . ?
