#------------------------------------------------------------------------------
#$Date: 2023-12-12 14:54:19 +0200 (Tue, 12 Dec 2023) $
#$Revision: 288248 $
#$URL: file:///home/coder/svn-repositories/cod/cif/1/56/72/1567254.cif $
#------------------------------------------------------------------------------
#
# This file is available in the Crystallography Open Database (COD),
# http://www.crystallography.net/
#
# All data on this site have been placed in the public domain by the
# contributors.
#
data_1567254
loop_
_publ_author_name
'Zuffa, Caterina'
'Cappuccino, Chiara'
'Marchini, Marianna'
'Contini, Laura'
'Farinella, Francesco'
'Maini, Lucia'
_publ_section_title
;
 AgX-based hybrid coordination polymers: mechanochemical synthesis,
 structure and luminescence property characterization.
;
_journal_issue                   0
_journal_name_full               'Faraday discussions'
_journal_page_first              448
_journal_page_last               465
_journal_paper_doi               10.1039/d2fd00093h
_journal_volume                  241
_journal_year                    2023
_chemical_formula_moiety         'C6 H8 Ag Br N2'
_chemical_formula_sum            'C6 H8 Ag Br N2'
_chemical_formula_weight         295.92
_space_group_crystal_system      triclinic
_space_group_IT_number           2
_space_group_name_Hall           '-P 1'
_space_group_name_H-M_alt        'P -1'
_atom_sites_solution_hydrogens   geom
_audit_creation_date             2022-04-26
_audit_creation_method
;
Olex2 1.5
(compiled 2022.04.07 svn.rca3783a0 for OlexSys, GUI svn.r6498)
;
_cell_angle_alpha                113.498(14)
_cell_angle_beta                 97.081(12)
_cell_angle_gamma                93.535(9)
_cell_formula_units_Z            2
_cell_length_a                   4.3871(5)
_cell_length_b                   10.1081(12)
_cell_length_c                   10.2510(18)
_cell_measurement_reflns_used    703
_cell_measurement_temperature    293(2)
_cell_measurement_theta_max      25.7570
_cell_measurement_theta_min      4.0340
_cell_volume                     410.63(11)
_computing_cell_refinement       'CrysAlisPro 1.171.38.42b (Rigaku OD, 2015)'
_computing_data_collection       'CrysAlisPro 1.171.38.42b (Rigaku OD, 2015)'
_computing_data_reduction        'CrysAlisPro 1.171.38.42b (Rigaku OD, 2015)'
_computing_molecular_graphics    'Olex2 1.5 (Dolomanov et al., 2009)'
_computing_publication_material  'Olex2 1.5 (Dolomanov et al., 2009)'
_computing_structure_refinement  'SHELXL 2018/3 (Sheldrick, 2015)'
_diffrn_ambient_temperature      293(2)
_diffrn_detector                 'CCD plate'
_diffrn_detector_area_resol_mean 16.1340
_diffrn_detector_type            Sapphire3
_diffrn_measured_fraction_theta_full 0.997
_diffrn_measured_fraction_theta_max 0.846
_diffrn_measurement_details
;
List of Runs (angles in degrees, time in seconds):

  # Type    Start    End  Width  t~exp~   \w     \q     \k     \f   Frames
--------------------------------------------------------------------------
  1  \w    -53.00  45.00   1.00    4.84    --   19.00 -38.00   0.00   98
  2  \w    -14.00  22.00   1.00    4.84    --  -17.75 -99.00  90.00   36
  3  \w    -21.00  55.00   1.00    4.84    --   19.00 -99.00 -90.00   76
  4  \w     43.00  93.00   1.00    4.84    --   19.00-178.00  60.00   50
  5  \w     -6.00  84.00   1.00    4.84    --   19.00  38.00-180.00   90
;
_diffrn_measurement_device       'four-circle diffractometer'
_diffrn_measurement_device_type  'Xcalibur, Sapphire3'
_diffrn_measurement_method       '\w scans'
_diffrn_orient_matrix_type
'CrysAlisPro convention (1999,Acta A55,543-557)'
_diffrn_orient_matrix_UB_11      -0.0315461000
_diffrn_orient_matrix_UB_12      0.0116298000
_diffrn_orient_matrix_UB_13      0.0697160000
_diffrn_orient_matrix_UB_21      0.1560934000
_diffrn_orient_matrix_UB_22      0.0300654000
_diffrn_orient_matrix_UB_23      0.0296770000
_diffrn_orient_matrix_UB_31      -0.0397762000
_diffrn_orient_matrix_UB_32      0.0700267000
_diffrn_orient_matrix_UB_33      0.0102065000
_diffrn_radiation_monochromator  graphite
_diffrn_radiation_probe          x-ray
_diffrn_radiation_type           'Mo K\a'
_diffrn_radiation_wavelength     0.71073
_diffrn_reflns_av_R_equivalents  0.0253
_diffrn_reflns_av_unetI/netI     0.0584
_diffrn_reflns_Laue_measured_fraction_full 0.997
_diffrn_reflns_Laue_measured_fraction_max 0.846
_diffrn_reflns_limit_h_max       4
_diffrn_reflns_limit_h_min       -5
_diffrn_reflns_limit_k_max       12
_diffrn_reflns_limit_k_min       -13
_diffrn_reflns_limit_l_max       13
_diffrn_reflns_limit_l_min       -13
_diffrn_reflns_number            3052
_diffrn_reflns_point_group_measured_fraction_full 0.997
_diffrn_reflns_point_group_measured_fraction_max 0.846
_diffrn_reflns_theta_full        25.000
_diffrn_reflns_theta_max         29.105
_diffrn_reflns_theta_min         3.704
_diffrn_source                   'fine-focus sealed X-ray tube'
_diffrn_source_type              'Enhance (Mo) X-ray Source'
_exptl_absorpt_coefficient_mu    7.244
_exptl_absorpt_correction_T_max  1.00000
_exptl_absorpt_correction_T_min  0.67900
_exptl_absorpt_correction_type   multi-scan
_exptl_absorpt_process_details
;
CrysAlisPro 1.171.38.42b (Rigaku Oxford Diffraction, 2015)
Empirical absorption correction using spherical harmonics,
 implemented in SCALE3 ABSPACK scaling algorithm.
;
_exptl_crystal_colour            colourless
_exptl_crystal_density_diffrn    2.393
_exptl_crystal_density_method    'not measured'
_exptl_crystal_description       prism
_exptl_crystal_F_000             280
_exptl_crystal_size_max          0.379
_exptl_crystal_size_mid          0.201
_exptl_crystal_size_min          0.039
_refine_diff_density_max         0.504
_refine_diff_density_min         -0.695
_refine_diff_density_rms         0.119
_refine_ls_extinction_coef       0.0030(12)
_refine_ls_extinction_expression Fc^*^=kFc[1+0.001xFc^2^\l^3^/sin(2\q)]^-1/4^
_refine_ls_extinction_method     'SHELXL-2018/3 (Sheldrick 2018)'
_refine_ls_goodness_of_fit_ref   0.983
_refine_ls_hydrogen_treatment    constr
_refine_ls_matrix_type           full
_refine_ls_number_parameters     92
_refine_ls_number_reflns         1853
_refine_ls_number_restraints     0
_refine_ls_restrained_S_all      0.983
_refine_ls_R_factor_all          0.0717
_refine_ls_R_factor_gt           0.0448
_refine_ls_shift/su_max          0.000
_refine_ls_shift/su_mean         0.000
_refine_ls_structure_factor_coef Fsqd
_refine_ls_weighting_details
'w=1/[\s^2^(Fo^2^)+(0.0274P)^2^] where P=(Fo^2^+2Fc^2^)/3'
_refine_ls_weighting_scheme      calc
_refine_ls_wR_factor_gt          0.0725
_refine_ls_wR_factor_ref         0.0854
_reflns_Friedel_coverage         0.000
_reflns_number_gt                1271
_reflns_number_total             1853
_reflns_threshold_expression     'I > 2\s(I)'
_cod_data_source_file            d2fd00093h4.cif
_cod_data_source_block           agbr_2pica_new
_cod_depositor_comments
'Adding full bibliography for 1567249--1567254.cif.'
_cod_original_cell_volume        410.63(10)
_cod_database_code               1567254
_shelx_shelxl_version_number     2018/3
_chemical_oxdiff_formula         Ag
_shelx_space_group_comment
;
The symmetry employed for this shelxl refinement is uniquely defined
by the following loop, which should always be used as a source of
symmetry information in preference to the above space-group names.
They are only intended as comments.
;
_cell_oxdiff_angle_alpha         113.498(14)
_cell_oxdiff_angle_beta          97.081(12)
_cell_oxdiff_angle_gamma         93.535(9)
_cell_oxdiff_length_a            4.3871(5)
_cell_oxdiff_length_b            10.1081(12)
_cell_oxdiff_length_c            10.2510(18)
_cell_oxdiff_measurement_reflns_used 703
_cell_oxdiff_volume              410.63(10)
_olex2_refinement_description
;
1. Fixed Uiso
 At 1.2 times of:
  All C(H) groups, All C(H,H) groups, All N(H,H) groups
2.a Secondary CH2 refined with riding coordinates:
 N2(H2A,H2B), C1(H1A,H1B)
2.b Aromatic/amide H refined with riding coordinates:
 C6(H6), C5(H5), C3(H3), C4(H4)
;
_shelx_res_file
;
TITL shelxt_a.res in P-1
    agbr_2pica_new.res
    created by SHELXL-2018/3 at 18:42:06 on 26-Apr-2022
CELL 0.71073 4.3871 10.1081 10.251 113.498 97.081 93.535
ZERR 2 0.0005 0.0012 0.0018 0.014 0.012 0.009
LATT 1
SFAC C H N Br Ag
UNIT 12 16 4 2 2

L.S. 10
PLAN  2
CONF
BOND $H
LIST 6
MORE -1
fmap 2
ACTA 50
MERG 2
REM <olex2.extras>
REM <HklSrc "%.\\agbr_2pica_new.hkl">
REM </olex2.extras>

WGHT    0.027400
EXTI    0.002956
FVAR       7.13147
AG1   5    0.744851    0.098342    0.462842    11.00000    0.06939    0.04835 =
         0.06325    0.00858    0.01821    0.01542
BR1   4    1.160730   -0.019240    0.301987    11.00000    0.04308    0.06279 =
         0.04494    0.01600    0.00681    0.01707
N2    3    0.653744    0.335228    0.575526    11.00000    0.05137    0.04104 =
         0.04833    0.00939    0.00629    0.00255
AFIX  23
H2A   2    0.826064    0.392657    0.586939    11.00000   -1.20000
H2B   2    0.508896    0.353104    0.517904    11.00000   -1.20000
AFIX   0
N1    3    0.257850    0.560755    0.698960    11.00000    0.05744    0.03816 =
         0.04411    0.00966    0.00394    0.00846
C2    1    0.471771    0.526812    0.784299    11.00000    0.05372    0.04351 =
         0.03982    0.01632    0.02181    0.00697
C6    1    0.180214    0.694882    0.757270    11.00000    0.04896    0.04923 =
         0.07168    0.02881    0.01360    0.01188
AFIX  43
H6    2    0.028760    0.720105    0.702490    11.00000   -1.20000
AFIX   0
C5    1    0.303869    0.798788    0.890740    11.00000    0.07387    0.03846 =
         0.06161    0.00598    0.02565    0.00926
AFIX  43
H5    2    0.244845    0.891886    0.923354    11.00000   -1.20000
AFIX   0
C1    1    0.555438    0.374360    0.715155    11.00000    0.07059    0.05132 =
         0.05499    0.02223    0.02164    0.01609
AFIX  23
H1A   2    0.720466    0.362221    0.780193    11.00000   -1.20000
H1B   2    0.377341    0.306756    0.704108    11.00000   -1.20000
AFIX   0
C3    1    0.602253    0.622611    0.919222    11.00000    0.05489    0.05630 =
         0.04660    0.01757    0.00389    0.00057
AFIX  43
H3    2    0.748508    0.595307    0.974421    11.00000   -1.20000
AFIX   0
C4    1    0.515169    0.761317    0.973664    11.00000    0.06814    0.05311 =
         0.04844    0.00132    0.01438   -0.00926
AFIX  43
H4    2    0.600883    0.827918    1.066113    11.00000   -1.20000
AFIX   0
HKLF 4




REM  shelxt_a.res in P-1
REM wR2 = 0.0854, GooF = S = 0.983, Restrained GooF = 0.983 for all data
REM R1 = 0.0448 for 1271 Fo > 4sig(Fo) and 0.0717 for all 1853 data
REM 92 parameters refined using 0 restraints

END

WGHT      0.0274      0.0000

REM Highest difference peak  0.504,  deepest hole -0.695,  1-sigma level  0.119
Q1    1   0.5771  0.1343  0.5065  11.00000  0.05    0.50
Q2    1   0.9254  0.0125  0.4525  11.00000  0.05    0.46
;
_shelx_res_checksum              18881
_shelx_hkl_file
;
   0   0   2 7131.79 743.197   1
   0   0  -2 7167.75 719.713   1
   0   0  -3 870.466 368.148   1
   0   0  -3 530.708 354.399   5
   0   0   3 475.337 223.462   1
   0   0   4 182711. 5425.52   1
   0   0   5 209687. 6486.72   1
   0   0   6 3882.41 1031.64   1
   0   0   7 33068.2 3130.06   1
   0   0   8 33327.4 3399.40   1
   0   0   9 2334.01 1022.71   1
   0   0  10 2647.23 1162.28   1
   0   0  11 508.106 901.002   1
   0  -1  12 10093.0 2421.27   1
   0  -1  11 1102.24 585.917   1
   0  -1  10 638.137 702.964   1
   0  -1   9 10145.3 2001.98   1
   0  -1   8 70357.3 4792.85   1
   0  -1   7 60602.3 4087.37   1
   0  -1   6 5075.01 1177.14   1
   0  -1   5 35441.9 2552.69   1
   0  -1   4 7703.50 1087.25   1
   0   1  -4 8293.45 1072.51   5
   0  -1   3 38589.5 2005.29   1
   0   1  -3 41022.8 2044.64   5
   0  -1   3 36895.4 1998.14   5
   0  -1   2 107204. 2654.67   5
   0   1  -2 110348. 2654.78   5
   0  -1  -1 473822. 5128.31   1
   0  -1  -1 455953. 3978.60   4
   0   1   1 468631. 5096.53   1
   0   1   1 466700. 3885.46   4
   0  -1  -2 22440.1 1404.62   1
   0   1   2 18795.9 1340.38   1
   0   1   3 56718.1 2783.60   1
   0  -1  -3 59348.6 2741.91   1
   0   1   4 100704. 4223.72   1
   0   1   5 250664. 7390.05   1
   0   1   6 56481.1 3854.30   1
   0   1   7 2225.07 904.875   1
   0   1   8 762.825 679.393   1
   0   1   9 3137.01 1189.90   1
   0   1  10 2062.74 1116.57   1
   0   1  11 1587.50 844.137   1
   0  -2  12 3856.12 1498.33   1
   0  -2  11 100.500 613.146   1
   0  -2  10 2823.61 1235.82   1
   0  -2   9 13280.3 2226.47   1
   0  -2   8 91447.8 5291.51   1
   0  -2   7 77796.4 4507.00   1
   0  -2   6 9390.59 1440.22   1
   0  -2   5 1546.00 497.226   1
   0  -2   5 1761.04 615.196   5
   0  -2   4 85874.8 3450.38   5
   0   2  -4 89037.4 3352.12   5
   0   2  -3 338903. 4536.37   3
   0   2  -3 355744. 5651.90   5
   0  -2   3 346945. 5798.61   5
   0   2  -2 305742. 4305.12   5
   0  -2   2 297876. 3596.83   3
   0  -2   2 300115. 4285.74   5
   0   2  -2 300174. 3551.14   3
   0  -2   1 143298. 2527.00   1
   0   2  -1 142299. 2510.95   5
   0  -2   1 137676. 2313.30   3
   0   2  -1 142718. 2305.32   3
   0  -2   1 141621. 2528.97   5
   0  -2   0 249684. 3661.04   1
   0  -2   0 249020. 4183.69   2
   0   2   0 250860. 3650.97   1
   0  -2   0 251751. 3695.39   4
   0   2   0 247526. 4181.67   2
   0   2   1 152960. 3555.47   2
   0  -2  -1 151023. 3453.73   1
   0  -2  -1 150049. 3564.03   2
   0   2   1 154330. 3489.82   1
   0   2   1 148506. 2869.34   4
   0  -2  -1 148442. 2864.08   4
   0  -2  -2 788.111 354.788   1
   0   2   2 696.386 314.673   2
   0   2   2 178.859 149.831   1
   0   2   2 834.889 256.827   4
   0   2   3 46805.8 2694.53   1
   0   2   3 43266.2 1885.05   4
   0   2   4 260886. 7165.89   1
   0   2   4 256256. 5128.66   4
   0   2   5 237032. 7580.70   1
   0   2   5 243714. 5484.18   4
   0   2   6 74473.9 3301.88   4
   0   2   6 76763.0 4751.30   1
   0   2   7 2357.93 997.639   1
   0   2   7 660.559 360.866   4
   0   2   8 1221.47 817.788   1
   0   2   9 9720.80 2260.70   1
   0   2  10 9465.33 2277.21   1
   0  -3  13 697.321 831.481   1
   0  -3  12 2795.12 1405.60   1
   0  -3  11 120.715 648.181   1
   0  -3  10 317.391 617.843   1
   0  -3   9 3322.76 1154.71   1
   0  -3   8 110833. 5688.60   1
   0  -3   7 101512. 4890.03   1
   0  -3   6 24320.3 2208.34   1
   0  -3   6 25870.5 2342.95   5
   0   3  -5 4512.39 729.333   3
   0  -3   5 2789.34 725.139   5
   0   3  -4 124911. 3833.33   5
   0  -3   4 115305. 3917.33   5
   0   3  -4 124396. 3159.44   3
   0   3  -3 513391. 6772.69   5
   0   3  -3 496981. 5653.03   3
   0  -3   3 497076. 5790.38   3
   0  -3   3 499236. 6848.38   5
   0   3  -2 282713. 3898.11   3
   0  -3   2 271926. 3930.33   3
   0  -3   2 272512. 4475.62   5
   0   3  -2 267979. 4388.02   5
   0   3  -1 8532.18 747.643   1
   0  -3   1 6701.02 671.638   5
   0   3  -1 9126.33 779.325   3
   0  -3   1 8246.12 749.100   3
   0  -3   1 7357.01 709.110   1
   0   3   0 73598.2 2472.96   1
   0   3   0 76834.9 2755.42   2
   0  -3   0 76271.3 2499.33   1
   0  -3   0 72042.3 2424.07   4
   0  -3   0 76460.6 2873.46   2
   0  -3  -1 3486.09 533.376   4
   0   3   1 4213.91 693.656   1
   0  -3  -1 3135.37 668.917   2
   0  -3  -1 3559.32 650.610   1
   0   3   1 3761.99 585.620   4
   0   3   1 4869.43 790.557   2
   0   3   2 37201.4 1828.02   4
   0   3   2 40206.2 2358.31   1
   0  -3  -2 41348.6 1984.03   4
   0   3   3 2239.63 685.881   1
   0   3   3 1097.96 410.487   4
   0   3   4 86612.2 3164.01   4
   0   3   4 100775. 4700.35   1
   0   3   5 112556. 3848.34   4
   0   3   5 122950. 5711.24   1
   0   3   6 21786.4 2687.13   1
   0   3   6 20656.3 1757.15   4
   0   3   7 1016.51 730.073   1
   0   3   7 297.726 341.143   4
   0   3   8 2143.17 1046.07   1
   0   3   9 11556.1 2412.22   1
   0   3  10 12513.8 2717.23   1
   0  -4  13 3470.46 1508.39   1
   0  -4  12 383.728 653.881   1
   0  -4  11 10340.5 2147.47   1
   0  -4  10 4252.92 1357.90   1
   0  -4   9 12992.3 2060.04   1
   0  -4   8 38356.8 3173.20   1
   0   4  -8 38326.3 2604.20   3
   0  -4   7 19089.8 2238.81   5
   0   4  -7 18762.8 1723.10   3
   0  -4   6 5092.84 1065.06   5
   0   4  -6 4817.65 816.044   3
   0  -4   5 12145.0 1429.38   5
   0   4  -5 13165.1 1174.86   3
   0  -4   4 134603. 4178.04   5
   0   4  -4 141083. 4157.29   5
   0   4  -4 145740. 3477.81   3
   0  -4   4 147454. 3706.98   3
   0   4  -3 380301. 6223.86   5
   0  -4   3 376117. 5465.53   3
   0   4  -3 384969. 5306.50   3
   0  -4   3 375327. 6308.31   5
   0   4  -2 300657. 5346.07   5
   0  -4   2 291668. 5245.59   1
   0  -4   2 293481. 5297.97   5
   0  -4   2 296760. 4857.84   3
   0   4  -2 307665. 4886.99   3
   0  -4   1 19996.3 1364.57   3
   0   4  -1 19438.9 1337.70   1
   0  -4   1 18907.6 1344.37   1
   0  -4   1 21314.6 1670.40   2
   0  -4   1 19402.5 1340.13   5
   0  -4   0 12576.9 1198.23   4
   0   4   0 11954.1 1155.88   1
   0  -4   0 12657.5 1344.27   2
   0  -4   0 11555.3 1145.03   1
   0  -4  -1 168665. 4208.78   4
   0   4   1 171366. 4842.58   1
   0  -4  -1 163072. 5119.51   2
   0   4   2 179345. 4565.78   4
   0  -4  -2 186824. 4679.03   4
   0   4   2 179774. 5462.81   1
   0   4   3 41701.1 2912.61   1
   0   4   3 37276.0 2180.65   4
   0   4   4 25838.2 1900.29   4
   0   4   4 30145.4 2746.80   1
   0   4   5 24498.4 1935.95   4
   0   4   5 20950.1 2505.48   1
   0   4   6 4005.31 847.080   4
   0   4   6 5708.76 1480.45   1
   0   4   7 466.389 428.534   1
   0   4   8 2439.73 1157.48   1
   0   4   9 11177.5 2439.89   1
   0  -5  13-1804.99 1059.60   1
   0   5 -12 504.928 447.073   3
   0  -5  12 2123.47 1133.39   1
   0  -5  11 6820.76 1739.78   1
   0   5 -11 6259.92 1284.56   3
   0  -5  10 25799.6 3030.26   1
   0   5 -10 23848.3 2296.17   3
   0  -5   9 1588.17 864.830   1
   0   5  -9 742.787 492.188   3
   0  -5   8 7315.50 1520.72   5
   0   5  -8 6993.72 1090.41   3
   0   5  -7 6969.19 1060.68   3
   0  -5   7 7343.08 1382.74   5
   0   5  -6 9863.68 1121.06   3
   0  -5   6 12874.6 1628.23   5
   0  -5   5 9093.59 1241.71   5
   0   5  -5 8591.80 960.658   3
   0  -5   4 100858. 3225.83   3
   0   5  -4 98094.1 3019.09   3
   0  -5   4 99997.8 3734.47   5
   0   5  -3 268586. 5018.48   3
   0   5  -3 285126. 5820.52   5
   0  -5   3 267837. 5143.75   3
   0  -5   3 275136. 5721.21   1
   0  -5   3 271242. 5738.79   5
   0  -5   2 181863. 4626.82   5
   0  -5   2 171384. 4285.15   3
   0  -5   2 180895. 4599.77   1
   0   5  -2 177756. 4328.53   3
   0  -5   1 106932. 3709.09   1
   0  -5   1 107342. 4297.99   2
   0  -5   1 111022. 3627.64   5
   0   5  -1 109157. 3580.67   1
   0   5   0 15476.9 1472.66   1
   0  -5   0 19307.4 1885.74   2
   0   5   1 108010. 4231.41   1
   0  -5  -1 121342. 4872.50   2
   0   5   2 139604. 5279.19   1
   0   5   3 77960.0 3514.76   4
   0   5   3 79310.5 4368.60   1
   0   5   4 609.644 318.751   4
   0   5   4 2181.74 923.410   1
   0   5   5 13919.5 1580.70   4
   0   5   5 13137.3 2148.13   1
   0   5   6 1507.89 765.299   1
   0   5   7 7407.85 1857.78   1
   0   5   8 636.807 779.227   1
   0  -6  13 1723.24 1108.21   1
   0  -6  12 1223.77 841.088   1
   0   6 -11 17472.6 2034.95   3
   0  -6  11 18153.2 2724.96   1
   0  -6  10 11036.4 1956.26   1
   0   6 -10 12212.9 1653.58   3
   0  -6   9-159.219 371.956   5
   0  -6   9-227.463 424.032   1
   0   6  -9 338.857 283.604   3
   0   6  -8 1968.18 594.593   3
   0  -6   8 2723.27 1006.77   5
   0   6  -7 6134.59 934.459   3
   0  -6   7 6219.77 1256.49   5
   0  -6   6 35817.4 2707.63   5
   0   6  -6 34305.0 2040.26   3
   0  -6   5 26161.6 2162.73   5
   0   6  -5 25009.1 1690.21   3
   0  -6   4 9398.54 1221.32   5
   0   6  -4 10800.9 1102.11   3
   0   6  -3 116714. 3759.83   3
   0  -6   3 120560. 4179.20   5
   0  -6   2 19769.1 2022.48   2
   0  -6   2 19240.9 1655.96   5
   0  -6   1 5302.52 911.047   5
   0  -6   1 6765.02 1242.78   2
   0   6  -1 5134.20 918.604   1
   0  -6   0 6408.26 1245.59   2
   0   6   0 6620.24 1080.10   1
   0  -6  -1 108700. 5042.96   2
   0   6   1 107481. 4613.46   1
   0   6   2 197699. 6713.99   1
   0   6   3 17718.7 2214.09   1
   0   6   4 5692.44 1467.79   1
   0   6   5 6069.15 1588.78   1
   0   6   6 20316.8 2942.07   1
   0   6   7 9191.03 2172.89   1
   0  -7  13 1703.32 1137.66   1
   0  -7  12-1591.82 918.595   1
   0  -7  11 7493.18 1753.71   1
   0   7 -10 8422.82 1341.82   3
   0  -7  10 9617.00 1866.06   1
   0  -7  10 12702.8 2303.53   5
   0   7  -9 1176.17 501.003   3
   0  -7   9 799.098 636.435   5
   0   7  -8 313.924 294.131   3
   0  -7   8 731.284 612.579   5
   0  -7   7 21100.6 2331.79   5
   0   7  -7 17685.9 1605.65   3
   0  -7   6 78128.1 4157.69   5
   0   7  -6 70618.7 3086.86   3
   0   7  -5 51289.8 2602.84   3
   0  -7   5 52414.8 3233.60   5
   0  -7   4 1655.34 585.764   5
   0   7  -4 1326.96 468.263   3
   0  -7   3 2476.26 715.874   5
   0  -7   3 912.925 518.035   2
   0  -7   2 649.910 470.456   5
   0  -7   2 1543.19 809.051   2
   0   7  -1 8222.17 1268.31   1
   0  -7   1 9397.01 1557.09   2
   0  -7   1 7764.37 1214.53   5
   0  -7   0-364.263 350.358   2
   0   7   0 220.893 313.521   1
   0  -7  -1 19629.1 2372.82   2
   0   7   1 16712.2 1985.31   1
   0   7   2 77971.1 4584.70   1
   0   7   3 43308.7 3662.40   1
   0   7   4 3137.46 1159.66   1
   0   7   5 3075.24 1272.12   1
   0   7   6 5611.60 1698.66   1
   0   7   7 8531.85 2143.48   1
   0  -8  12 325.777 730.308   1
   0  -8  11 5342.62 1588.90   5
   0  -8  11 6582.50 1685.21   1
   0  -8  10 5309.96 1513.51   5
   0  -8   9 902.756 486.890   5
   0   8  -9 493.541 359.073   3
   0   8  -8 78.8044 219.747   3
   0  -8   8 1560.34 844.736   5
   0   8  -7 17276.9 1645.99   3
   0  -8   7 18105.6 2200.33   5
   0   8  -6 52447.9 2833.42   3
   0  -8   6 56747.3 3685.91   5
   0   8  -5 35442.6 2386.23   3
   0  -8   5 38985.7 2919.89   5
   0  -8   4 7518.86 1288.37   5
   0  -8   4 5635.06 1280.22   2
   0  -8   3-453.649 462.263   5
   0  -8   3-81.4176 404.557   2
   0  -8   2 16941.5 2261.39   2
   0  -8   2 15322.3 1768.42   5
   0  -8   1 41577.6 3548.10   2
   0  -8   1 42065.1 3009.96   5
   0   8  -1 33537.6 2723.18   1
   0   8   0 10875.7 1633.52   1
   0  -8   0 10033.9 1824.16   2
   0  -8  -1 5971.64 1454.56   2
   0   8   1 6516.16 1343.38   1
   0   8   2 3833.96 1240.54   1
   0   8   3 2065.65 1036.11   1
   0   8   4 66.5008 383.647   1
   0   8   5 3500.47 1428.41   1
   0   8   6 4684.70 1653.22   1
   0  -9  11 445.120 878.387   5
   0  -9  10 1034.50 782.351   5
   0  -9   9 1440.06 1023.02   5
   0  -9   8 3648.22 1143.48   5
   0   9  -8 2367.15 679.922   3
   0  -9   7 3539.51 1033.57   5
   0   9  -7 1858.60 598.727   3
   0   9  -6 40834.6 2735.61   3
   0  -9   6 41348.1 3283.75   5
   0  -9   5 21780.0 2330.31   5
   0  -9   4 2883.04 1061.76   2
   0  -9   4 1588.34 695.439   5
   0  -9   3 766.944 395.183   5
   0  -9   3 4632.83 1381.67   2
   0  -9   2 29528.5 3198.95   2
   0  -9   2 27489.3 2547.83   5
   0  -9   1 61473.1 3908.12   5
   0   9  -1 62852.5 3994.41   1
   0  -9   1 58725.4 4581.13   2
   0  -9   0 28066.9 2755.52   5
   0  -9   0 33320.5 3515.26   2
   0   9   0 29799.6 2865.13   1
   0   9   1 279.115 306.407   1
   0   9   2 120.392 443.756   1
   0   9   3-4.45964 395.620   1
   0   9   4 402.595 602.541   1
   0   9   5-1553.39 969.235   1
   0 -10  12 267.019 611.856   5
   0 -10  11 253.052 567.479   5
   0 -10  10 1511.08 951.897   5
   0 -10   9 4158.51 1266.64   5
   0 -10   8 157.948 539.501   5
   0 -10   7 310.819 533.473   5
   0  10  -7 1820.59 684.260   3
   0 -10   6 4436.57 1177.30   5
   0 -10   5 7194.84 1710.69   2
   0 -10   5 4664.84 1146.81   5
   0 -10   4 1148.65 666.460   5
   0 -10   4 1831.76 978.067   2
   0 -10   3 5486.73 1232.55   5
   0 -10   3 4481.27 1340.98   2
   0 -10   2 13497.1 2327.19   2
   0 -10   2 9468.76 1602.73   5
   0 -10   1 26600.4 3301.44   2
   0 -10   1 24202.6 2645.65   5
   0  10  -1 24115.1 2617.59   1
   0 -10   0 16468.4 2626.87   2
   0 -10   0 15166.5 2184.13   5
   0  10   0 13883.2 2095.06   1
   0  10   1 1608.93 751.732   1
   0  10   2 1394.99 760.922   1
   0  10   3 3692.87 1372.43   1
   0  10   4 3020.61 1285.34   1
   0 -11  11-1073.33 1259.01   5
   0 -11  10-352.623 555.391   5
   0 -11   9 2249.81 1027.78   5
   0 -11   8 9023.29 1834.57   5
   0 -11   7-453.514 531.069   5
   0 -11   7 2555.70 1130.86   2
   0 -11   6 1847.35 837.077   5
   0 -11   6 2191.72 1013.17   2
   0 -11   5 117.396 341.572   5
   0 -11   5 7.52475 429.868   2
   0 -11   4 2020.50 990.584   2
   0 -11   4 2103.40 834.871   5
   0 -11   3 363.096 498.319   5
   0 -11   3-190.762 435.129   2
   0 -11   2 6126.95 1702.30   2
   0 -11   2 5948.81 1356.17   5
   0 -11   1 6790.11 1508.57   5
   0 -11   1 8422.59 1985.77   2
   0 -11   0 5677.27 1426.79   5
   0  11   0 4573.03 1334.54   1
   0  11   1 1174.42 635.545   1
   0  11   2 279.679 471.930   1
   0 -12   8 1336.09 956.383   2
   0 -12   7 1834.06 1017.98   2
   0 -12   6 1116.06 824.634   2
   0 -12   5 529.150 535.016   2
   0 -12   4 6028.91 1721.48   2
   0 -12   3 2658.64 1195.19   2
   0 -12   2 2177.41 1201.22   2
   1 -12   1 2603.30 1309.82   2
   1 -12   2 557.084 712.007   2
   1 -12   3 1094.02 901.495   2
   1 -12   4 5389.28 1792.42   2
   1 -12   5 2245.59 1168.38   2
   1 -12   6 1483.16 1122.56   2
  -1  12  -7 849.643 610.174   3
  -1  12  -8 519.638 299.160   3
   1 -11   0 10003.6 2205.45   2
   1 -11   1 3306.41 1606.42   2
   1 -11   2 240.135 551.417   2
   1 -11   3 4848.03 1443.61   2
   1 -11   4 15372.0 2604.36   2
   1 -11   5 16452.8 2670.65   2
  -1  11  -6 1471.22 750.697   3
  -1  11  -7 228.176 449.699   3
  -1  11  -8 869.281 527.731   3
  -1  11  -9 1530.91 698.381   3
  -1  10   4 7476.57 1838.47   1
  -1  10   3 12201.1 2132.19   1
  -1  10   2 2745.93 967.607   1
  -1  10   1 815.209 541.280   1
   1 -10  -1-836.486 691.213   2
   1 -10   0 1374.31 885.849   2
   1 -10   1 309.818 455.629   2
   1 -10   2 1823.55 937.676   2
   1 -10   3 8491.22 1858.92   2
   1 -10   4 27089.2 3207.44   2
  -1  10  -5 25655.7 2575.93   3
  -1  10  -6 529.134 437.709   3
  -1  10  -7 135.591 362.661   3
  -1  10  -8 5001.60 1193.85   3
  -1  10  -9 8700.93 1604.00   3
  -1  10 -10 2012.02 767.558   3
  -1   9   5 4080.66 1355.24   1
  -1   9   4 9558.40 1949.93   1
  -1   9   3 26869.1 3023.40   1
  -1   9   2 8668.81 1616.98   1
   1  -9  -1 321.315 481.505   2
  -1   9   1-56.0098 272.734   1
   1  -9   0 5152.25 1394.17   2
  -1   9   0 3530.82 913.895   1
   1  -9   0 3009.62 807.277   5
   1  -9   1 11683.7 2031.37   2
  -1   9  -1 10257.6 1400.01   1
   1  -9   1 11420.6 1428.41   5
   1  -9   2 10751.6 1902.21   2
   1  -9   2 12620.1 1452.95   5
   1  -9   3 24.6654 193.933   5
   1  -9   3-108.307 420.320   2
  -1   9  -4 6029.47 1178.11   3
   1  -9   4 7785.98 1199.90   5
  -1   9  -5 4667.26 1032.30   3
   1  -9   5 2664.23 718.631   5
  -1   9  -6 4409.84 1038.20   3
   1  -9   6 3239.40 859.216   5
  -1   9  -7 177.648 358.405   3
   1  -9   7 2081.26 721.507   5
  -1   9  -8 1801.15 658.991   3
   1  -9   8 2022.24 860.339   5
  -1   9  -9 6820.21 1294.55   3
  -1   9 -10 8448.26 1601.77   3
  -1   9 -11 164.993 388.180   3
  -1   8   6 1926.95 1022.21   1
  -1   8   5 1986.58 1005.68   1
  -1   8   4 21464.2 2826.97   1
  -1   8   3 48158.3 3821.53   1
  -1   8   2 19292.1 2244.16   1
   1  -8  -2 17163.9 2282.14   2
   1  -8  -1 3996.18 1207.39   2
  -1   8   1 1749.49 636.543   1
   1  -8   0 12445.4 1456.70   5
  -1   8   0 18204.7 1852.25   1
   1  -8   0 15961.8 2114.76   2
  -1   8  -1 93451.7 3783.89   1
   1  -8   1 97718.2 5287.69   2
   1  -8   1 92775.7 3652.23   5
   1  -8   2 80040.2 4779.68   2
   1  -8   2 87063.5 3438.76   5
   1  -8   3 9322.28 1142.03   5
  -1   8  -3 9734.98 1471.78   3
  -1   8  -4 16974.7 1868.12   3
   1  -8   4 16141.0 1560.25   5
  -1   8  -5 837.353 497.239   3
   1  -8   5 1042.40 540.651   5
  -1   8  -6 12585.3 1612.62   3
   1  -8   6 12285.2 1599.33   5
  -1   8  -7 2359.52 784.152   3
   1  -8   7 1161.64 601.388   5
   1  -8   8 5030.43 1249.92   5
  -1   8  -8 3317.75 861.286   3
  -1   8  -9 19067.3 2201.51   3
  -1   8 -10 3294.07 1073.02   3
  -1   8 -11 472.935 466.327   3
  -1   7   7 1080.45 738.767   1
  -1   7   6 5549.97 1638.43   1
  -1   7   5 837.292 619.619   1
  -1   7   5-320.172 564.737   4
  -1   7   4 16019.4 2165.11   4
  -1   7   4 16802.3 2337.01   1
  -1   7   3 37750.0 3216.01   1
  -1   7   3 37717.2 3208.21   4
  -1   7   2 16646.8 2101.62   4
   1  -7  -2 14173.7 1924.48   2
  -1   7   2 14687.1 1858.36   1
   1  -7  -1 3350.04 947.063   2
  -1   7   1 4584.22 990.800   1
  -1   7   0 33134.9 2252.69   1
   1  -7   0 34087.2 2874.57   2
   1  -7   1 107993. 5113.67   2
   1  -7   1 118646. 3691.16   5
  -1   7  -1 115185. 3820.22   1
   1  -7   1 113055. 3953.67   1
  -1   7  -2 104611. 4404.39   3
   1  -7   2 105875. 3380.11   1
   1  -7   2 114883. 3546.81   5
   1  -7   3 16371.3 1217.52   1
  -1   7  -3 19611.8 1872.93   3
   1  -7   3 16341.1 1373.41   5
   1  -7   4 1454.24 447.687   5
  -1   7  -4 829.307 360.980   5
   1  -7   4 997.210 325.134   1
  -1   7  -4 1206.07 546.308   3
   1  -7   5 1493.17 546.926   5
   1  -7   5 1728.34 478.266   1
  -1   7  -5 1671.99 551.905   3
   1  -7   6 34547.3 2651.36   5
  -1   7  -6 34680.7 2580.07   3
   1  -7   7 20692.8 2260.06   5
  -1   7  -7 17573.1 1940.01   3
   1  -7   7 17468.9 1730.59   1
   1  -7   8 145.133 448.808   1
  -1   7  -8-126.179 381.148   3
  -1   7  -9 7015.99 1363.78   3
   1  -7   9 6612.16 1350.61   1
   1  -7  10 2308.92 936.208   1
  -1   7 -10 2138.75 839.029   3
  -1   7 -11 478.300 656.375   3
  -1   7 -12-188.156 360.450   3
  -1   6   8 1493.40 1126.63   1
  -1   6   7 13883.7 2493.56   1
  -1   6   6 32511.5 3592.66   1
  -1   6   6 29212.2 2942.86   4
  -1   6   5 10069.3 1658.38   4
  -1   6   5 10776.2 1963.57   1
  -1   6   4 8354.11 1596.56   1
  -1   6   4 8471.72 1509.89   4
  -1   6   3 675.135 540.691   1
  -1   6   3 517.790 630.003   4
  -1   6   2 4102.86 917.214   1
   1  -6  -2 3384.95 903.834   2
  -1   6   2 3995.83 998.857   4
  -1   6   1 9572.40 1243.40   1
  -1   6   1 11787.9 1595.42   4
   1  -6  -1 11403.6 1531.50   2
  -1   6   0 20058.2 1568.74   1
   1  -6   0 19343.0 1980.56   2
   1  -6   0 21558.2 1794.15   1
  -1   6   0 18923.3 1972.61   4
  -1   6  -1 129904. 4660.45   3
   1  -6   1 135029. 3491.82   5
  -1   6  -1 139633. 3601.43   1
   1  -6   1 134759. 3791.19   1
  -1   6  -2 162851. 5023.17   3
   1  -6   2 159631. 3536.75   1
   1  -6   2 162946. 3654.73   5
   1  -6   3 32365.3 1762.54   5
   1  -6   3 33153.2 1480.81   1
  -1   6  -3 32625.9 2259.75   3
  -1   6  -4 4526.80 703.771   5
  -1   6  -4 4102.23 844.252   3
   1  -6   4 4295.52 749.834   5
   1  -6   4 3956.12 573.037   1
   1  -6   5 29725.4 2206.54   5
  -1   6  -5 34041.8 2413.02   3
  -1   6  -6 105865. 4393.45   3
   1  -6   6 98538.0 3731.74   1
   1  -6   6 98519.3 4500.38   5
   1  -6   7 55521.2 3236.15   1
  -1   6  -7 54973.6 3371.15   3
   1  -6   8 815.210 580.850   1
  -1   6  -8 659.813 626.203   3
  -1   6  -9 7012.04 1315.35   3
   1  -6   9 7539.48 1510.42   1
   1  -6  10-63.1303 325.443   1
  -1   6 -10 105.760 452.249   3
   1  -6  11 2287.92 1042.20   1
  -1   6 -11 2104.26 850.798   3
  -1   6 -12 588.160 521.267   3
   1  -6  12 1562.62 886.760   1
  -1   6 -13-652.775 573.082   3
  -1   5   9 986.356 733.623   1
  -1   5   8 3193.87 1308.82   1
  -1   5   7 33244.7 3703.30   1
  -1   5   7 32667.3 3004.38   4
  -1   5   6 55183.2 4442.10   1
  -1   5   6 49099.1 3596.55   4
  -1   5   5 70321.2 4096.72   4
  -1   5   5 69566.9 4638.51   1
  -1   5   4 2318.61 782.657   1
  -1   5   4 2120.21 706.106   4
  -1   5   3 141.046 297.017   4
  -1   5   3 525.090 396.201   1
  -1   5   2 57849.2 3129.96   1
   1  -5  -2 59807.0 3336.43   2
  -1   5   2 55117.3 3240.83   4
   1  -5  -1 98655.4 4027.51   2
  -1   5   1 95872.3 4203.38   4
  -1   5   1 92740.9 3474.62   1
   1  -5   0 3640.04 654.118   1
  -1   5   0 3577.11 598.549   1
   1  -5   0 3813.27 826.702   2
  -1   5   0 5770.65 1046.80   4
   1  -5   1 203493. 3523.02   5
  -1   5  -1 188102. 5115.31   3
  -1   5  -1 199016. 3622.88   1
   1  -5   1 201788. 3902.03   1
   1  -5   2 126496. 2517.58   1
  -1   5  -2 126258. 4131.51   3
   1  -5   2 128908. 2800.83   5
   1  -5   3 3443.42 419.684   1
  -1   5  -3 4713.26 600.989   5
  -1   5  -3 3172.77 720.995   3
   1  -5   3 3064.59 519.218   5
  -1   5  -4 482.213 260.246   5
  -1   5  -4-91.4285 294.017   3
   1  -5   4 361.153 275.520   5
  -1   5  -5 25950.1 2040.49   3
   1  -5   5 27647.2 2157.38   5
   1  -5   5 24211.0 1693.54   1
   1  -5   6 98825.2 3988.04   1
  -1   5  -6 97705.8 4209.09   3
  -1   5  -7 65947.6 3669.07   3
   1  -5   7 62353.0 3613.05   1
  -1   5  -8 1813.01 640.626   3
   1  -5   8 1395.37 688.267   1
  -1   5  -9 1029.24 651.700   3
   1  -5   9 1212.14 726.280   1
  -1   5 -10 1291.47 743.099   3
   1  -5  10 308.463 662.137   1
   1  -5  11 9835.43 2079.50   1
  -1   5 -11 9275.29 1721.29   3
   1  -5  12 723.169 683.398   1
  -1   5 -12 2229.55 944.625   3
   1  -5  13 347.983 589.253   1
  -1   5 -13 104.504 393.014   3
  -1   4   9 1347.96 871.183   1
  -1   4   8 1759.91 989.869   1
  -1   4   8-67.3544 517.099   4
  -1   4   7 39612.5 3849.76   1
  -1   4   7 38297.9 3185.65   4
  -1   4   6 75100.3 4929.21   1
  -1   4   6 75068.0 4201.03   4
  -1   4   5 5253.99 1219.81   1
  -1   4   5 5996.48 1173.46   4
  -1   4   4 9109.13 1356.86   4
  -1   4   4 10086.4 1545.99   1
  -1   4   3 38107.7 2619.08   4
  -1   4   3 44507.7 2884.63   1
  -1   4   2 262064. 6460.60   4
  -1   4   2 283589. 6410.43   1
   1  -4  -2 273132. 6342.18   2
  -1   4   1 176977. 4325.96   1
  -1   4   1 180840. 5141.12   4
   1  -4  -1 181088. 4782.23   1
   1  -4  -1 170589. 4708.27   2
  -1   4   0 34093.7 1542.36   1
  -1   4   0 33400.7 2048.13   3
   1  -4   0 33847.2 1697.61   1
   1  -4   0 34896.8 2077.55   2
  -1   4   0 35766.9 2247.88   4
  -1   4  -1 1510.86 466.681   4
  -1   4  -1 1084.75 406.168   3
  -1   4  -1 838.673 195.607   1
   1  -4   1 900.444 184.818   5
   1  -4   1 648.476 197.646   1
  -1   4  -2 4210.65 736.802   3
  -1   4  -2 2973.60 365.953   5
   1  -4   2 3564.78 425.225   5
  -1   4  -3 48890.9 2454.96   3
   1  -4   3 45142.1 1463.27   1
   1  -4   3 48555.7 2080.11   5
  -1   4  -3 43655.0 1762.73   5
  -1   4  -4 55488.8 2414.80   5
  -1   4  -4 56235.5 2786.98   3
   1  -4   4 55198.2 2240.81   1
  -1   4  -5 41028.6 2570.11   3
   1  -4   5 41917.3 2386.15   1
   1  -4   6 109764. 4474.09   1
  -1   4  -6 118940. 4532.21   3
   1  -4   7 54119.0 3536.27   1
  -1   4  -7 56741.1 3353.63   3
  -1   4  -8 234.332 412.604   3
   1  -4   8 200.316 437.310   1
   1  -4   9 122.350 602.195   1
  -1   4  -9 351.187 408.628   3
   1  -4  10 8375.37 1864.41   1
  -1   4 -10 8011.33 1557.31   3
   1  -4  11 11393.5 2257.46   1
  -1   4 -11 7528.87 1583.38   3
  -1   4 -12 4018.55 1255.84   3
   1  -4  12 3135.79 1471.08   1
  -1   4 -13 293.458 430.285   3
   1  -4  13-224.160 607.867   1
  -1   3  10 3051.58 1353.63   1
  -1   3   9 13343.8 2455.58   1
  -1   3   8 995.456 824.822   1
  -1   3   8 1876.21 770.249   4
  -1   3   7 7133.72 1655.42   1
  -1   3   7 6533.82 1337.86   4
  -1   3   6 66035.6 4428.93   1
  -1   3   6 67087.9 3862.66   4
  -1   3   5 24596.4 2466.16   1
  -1   3   5 22630.2 2151.90   4
  -1   3   4 2823.37 833.947   1
  -1   3   4 1402.24 528.295   4
  -1   3   3 58241.9 3107.32   1
  -1   3   3 55138.3 2677.47   2
  -1   3   3 57135.4 2977.43   4
  -1   3   2 379935. 6281.64   2
   1  -3  -2 389490. 7329.62   1
  -1   3   2 385456. 7272.10   4
  -1   3   2 382774. 6924.62   1
   1  -3  -2 387330. 6528.72   2
   1  -3  -1 771090. 8510.13   2
  -1   3   1 759665. 8025.37   1
   1  -3  -1 762817. 8690.53   1
  -1   3   1 791058. 9747.19   4
   1  -3   0 160474. 4299.41   4
  -1   3   0 169661. 4049.83   3
  -1   3   0 162186. 2742.25   1
  -1   3   0 173973. 4390.17   4
   1  -3   0 165137. 4110.29   3
  -1   3  -1 7227.57 863.532   3
   1  -3   1 7286.84 917.107   4
  -1   3  -1 6952.52 900.613   4
   1  -3   1 6367.03 806.864   3
  -1   3  -2 29673.0 1768.54   3
   1  -3   2 31405.9 1834.46   3
   1  -3   2 30334.4 1916.11   4
  -1   3  -2 30483.4 1131.16   5
  -1   3  -3 75650.3 2449.15   5
  -1   3  -3 75334.6 2941.39   3
   1  -3   3 71268.5 3003.52   4
   1  -3   3 72716.1 2094.41   1
  -1   3  -4 122939. 4001.72   3
  -1   3  -4 124660. 3860.33   5
   1  -3   4 119156. 3558.97   1
  -1   3  -5 1663.46 573.511   3
   1  -3   5 990.704 412.452   1
   1  -3   6 61288.1 3497.49   1
   1  -3   7 38590.1 3133.86   1
   1  -3   8 46.0535 374.771   1
   1  -3   9 9744.65 1912.24   1
   1  -3  10 3128.35 1243.93   1
   1  -3  11 13105.8 2559.14   1
   1  -3  12 2643.30 1327.09   1
  -1   2  10 10495.0 2282.90   1
  -1   2   9 24576.4 3255.26   1
  -1   2   9 30344.1 3033.94   4
  -1   2   8 8240.87 1769.60   1
  -1   2   8 8255.85 1493.16   4
  -1   2   7 9578.92 1737.04   1
  -1   2   7 7247.35 1359.51   4
  -1   2   6 15438.5 1765.24   4
  -1   2   6 15825.8 2081.08   1
  -1   2   5 1555.13 586.291   4
  -1   2   5 2198.94 757.404   1
  -1   2   4 27909.5 2101.01   4
  -1   2   4 25511.5 1810.50   2
  -1   2   4 28189.1 2306.73   1
   1  -2  -3 37463.4 2281.21   5
  -1   2   3 35322.8 1822.29   2
  -1   2   3 38385.3 2384.23   1
  -1   2   3 34114.7 2176.81   4
   1  -2  -2 331767. 6030.20   3
  -1   2   2 323821. 5995.86   1
  -1   2   2 314983. 6116.30   4
   1  -2  -2 333379. 5688.60   5
  -1   2   2 334669. 4843.88   2
   1  -2  -2 333598. 4912.46   2
  -1   2   1 482315. 6371.55   3
   1  -2  -1 464451. 6442.44   3
   1  -2  -1 474762. 5258.37   2
   1  -2  -1 467726. 5174.66   5
   1  -2  -1 483362. 7023.01   4
  -1   2   1 459966. 5781.73   1
  -1   2   1 487468. 7063.14   4
   1  -2   0 69478.5 2514.64   4
  -1   2   0 71241.7 2309.44   3
   1  -2   0 68711.2 2296.29   3
  -1   2   0 69846.9 1542.58   1
  -1   2   0 68182.7 2423.50   4
  -1   2  -1 2039.88 460.091   4
   1  -2   1 1740.33 396.085   3
  -1   2  -1 2532.80 461.418   3
   1  -2   1 1410.72 358.563   4
  -1   2  -2 94726.1 2973.04   3
   1  -2   2 99467.8 3158.23   3
   1  -2   2 91163.4 1884.14   1
  -1   2  -2 93990.7 2372.24   5
  -1   2  -2 92730.1 1905.52   1
   1  -2   2 89396.6 2794.14   4
  -1   2  -3 563817. 7941.30   3
   1  -2   3 555514. 7329.09   4
  -1   2  -3 555431. 7391.21   5
   1  -2   3 562705. 6715.34   1
  -1   2  -3 572592. 6514.44   1
   1  -2   4 235355. 5458.80   1
  -1   2  -4 236449. 5696.10   5
  -1   2  -4 244778. 5206.86   1
   1  -2   5 14611.2 1593.32   1
   1  -2   6 21357.9 2179.01   1
   1  -2   7 3405.74 972.080   1
   1  -2   8 16168.8 2344.79   1
   1  -2   9 2688.95 1110.79   1
   1  -2  10 4066.58 1600.62   1
   1  -2  11 10901.0 2328.79   1
   1  -2  12 911.534 695.958   1
  -1   1  11-189.682 494.259   1
  -1   1  10 16150.8 2765.35   1
  -1   1   9 46397.1 4318.13   1
  -1   1   8 17296.9 2496.12   1
  -1   1   7-197.007 520.662   1
  -1   1   6 5534.78 1231.31   1
  -1   1   5 87011.0 4296.77   1
  -1   1   4 224975. 6204.71   1
  -1   1   3 10017.4 810.702   2
   1  -1  -3 9809.63 1108.67   5
  -1   1   3 10665.8 1183.48   1
   1  -1  -2 132986. 3228.26   3
  -1   1   2 132688. 3269.46   5
   1  -1  -2 141282. 3414.34   5
  -1   1   2 135883. 2238.87   2
  -1   1   1 283553. 3556.92   5
  -1   1   1 285586. 4132.76   3
   1  -1  -1 285263. 4145.19   3
  -1   1   1 288853. 4802.75   4
   1  -1  -1 278973. 3544.18   5
  -1   1   0 36313.4 998.279   5
  -1   1   0 37511.3 1498.65   3
   1  -1   0 38531.1 1542.67   3
  -1   1   0 38549.1 1604.44   4
   1  -1   0 36521.0 1601.05   4
  -1   1  -1 5715.42 564.883   4
   1  -1   1 5584.18 577.649   4
  -1   1  -1 5681.64 639.168   3
   1  -1   1 4431.79 433.406   1
   1  -1   1 4730.15 609.602   3
  -1   1  -1 5746.81 480.455   1
   1  -1   2 151404. 2846.26   4
  -1   1  -2 157951. 3122.57   1
   1  -1   2 159920. 3246.65   1
   1  -1   3 558385. 5956.72   4
  -1   1  -3 551592. 7217.26   1
   1  -1   3 544298. 7584.48   1
   1  -1   4 387780. 7577.93   1
   1  -1   5 38233.6 2726.88   1
   1  -1   6 447.552 335.830   1
   1  -1   7 591.162 515.313   1
   1  -1   8 38641.2 3708.97   1
   1  -1   9 10937.7 2147.59   1
   1  -1  10 769.481 798.466   1
   1  -1  11 6691.01 1900.05   1
  -1   0  11-553.987 636.950   1
  -1   0  10 9727.51 2069.08   1
  -1   0   9 52783.5 4483.78   1
  -1   0   8 31399.2 3238.06   1
  -1   0   7 964.845 635.265   1
  -1   0   6 33560.6 2838.84   1
  -1   0   5 178094. 5878.10   1
  -1   0   4 246786. 6043.95   5
   1   0  -3 48252.1 2339.45   5
  -1   0   3 49008.6 2327.40   5
  -1   0   2 56120.1 2068.97   5
   1   0  -2 59769.3 2156.76   5
   1   0  -2 58676.5 1647.82   3
   1   0  -1 2774.98 344.550   3
  -1   0   1 2547.08 323.928   3
   1   0  -1 2194.38 353.426   5
  -1   0   1 2360.14 377.764   5
  -1   0   0 8507.93 699.672   1
  -1   0   0 8234.57 649.906   3
  -1   0  -1 58253.5 1965.96   1
   1   0   1 59095.3 1974.92   1
  -1   0  -1 59742.4 1446.95   4
  -1   0  -2 34731.1 1742.77   1
   1   0   2 34355.4 1806.99   1
   1   0   2 33646.6 927.714   4
   1   0   3 208567. 5172.44   1
  -1   0  -3 209429. 4923.94   1
   1   0   3 198891. 2328.44   4
   1   0   4 189965. 5676.65   1
   1   0   5 13028.6 1679.75   1
   1   0   6 152.590 327.315   1
   1   0   7 17807.8 2387.46   1
   1   0   8 44381.4 4131.56   1
   1   0   9 21374.8 3082.60   1
   1   0  10 1600.00 1028.23   1
   1   0  11 1695.41 1123.40   1
  -1  -1  12 8504.20 2233.75   1
  -1  -1  11 977.833 878.310   1
  -1  -1  10 9057.06 1936.84   1
  -1  -1   9 30290.7 3301.53   1
  -1  -1   8 8591.84 1663.12   1
  -1  -1   7 1748.62 734.473   1
  -1  -1   6 802.827 377.772   5
  -1  -1   5 290038. 7219.18   5
  -1  -1   4 498335. 8483.76   5
  -1  -1   3 396767. 6598.73   5
   1   1  -3 401043. 6612.88   5
  -1  -1   2 49706.7 1006.78   3
   1   1  -2 52025.3 2088.67   5
  -1  -1   2 49549.1 2039.08   5
  -1  -1   2 51642.9 1289.45   2
   1   1  -2 50462.0 1004.72   3
  -1  -1   1 22784.1 854.138   3
   1   1  -1 22688.3 1281.44   5
  -1  -1   1 23407.9 1316.09   5
   1   1  -1 20740.2 970.681   2
   1   1   0 762470. 7724.70   1
  -1  -1   0 749975. 7823.13   1
  -1  -1  -1 436953. 6363.64   1
   1   1   1 445171. 6425.88   1
  -1  -1  -2 7304.50 934.635   1
   1   1   2 5829.99 869.257   1
   1   1   3 200548. 5576.24   1
   1   1   4 51807.8 3203.93   1
   1   1   5 512.272 530.676   1
   1   1   5 490.765 145.919   4
   1   1   6 1474.51 707.319   1
   1   1   6 657.532 203.188   4
   1   1   7 17270.0 2476.68   1
   1   1   8 44916.4 4316.77   1
   1   1   9 23833.5 3370.14   1
   1   1  10 1359.16 1241.12   1
  -1  -2  12 9779.22 2239.51   1
  -1  -2  11 3873.05 1346.40   1
  -1  -2  10 2044.02 1059.45   1
  -1  -2   9 6207.92 1584.36   1
  -1  -2   8 4582.59 1236.82   1
  -1  -2   7 8373.65 1473.88   5
  -1  -2   6 17952.0 1977.35   5
  -1  -2   5 232884. 6465.50   5
  -1  -2   4 273917. 6224.42   5
   1   2  -3 72950.1 2878.79   5
  -1  -2   3 70282.2 2884.32   5
   1   2  -2 270268. 5094.98   5
  -1  -2   2 261800. 5157.30   5
  -1  -2   2 252750. 4226.21   2
  -1  -2   1 49977.8 2169.43   5
  -1  -2   1 50139.1 2018.68   2
  -1  -2   1 50293.8 2266.00   1
   1   2  -1 49946.4 1992.98   2
   1   2   0 435590. 6713.74   1
  -1  -2   0 441948. 6829.23   1
   1   2   0 434742. 6625.10   2
   1   2   1 254594. 5529.78   1
  -1  -2  -1 256980. 5559.40   1
   1   2   2 69707.1 3201.10   1
   1   2   3 9521.96 1362.68   1
   1   2   4 9079.63 1438.96   1
   1   2   5 17096.1 2157.25   1
   1   2   6 5719.15 1406.61   1
   1   2   7 5717.81 1462.56   1
   1   2   8 13863.3 2580.17   1
   1   2   9 6465.15 1964.37   1
   1   2  10 83.6578 507.553   1
  -1  -3  12 10325.4 2326.73   1
  -1  -3  11 6679.73 1824.20   1
  -1  -3  10 860.710 764.227   1
  -1  -3   9 1744.79 875.585   1
  -1  -3   9-162.057 434.465   5
  -1  -3   8 13180.7 2003.64   5
  -1  -3   7 67976.1 4172.37   5
  -1  -3   6 6361.39 1235.73   5
   1   3  -5 44189.4 1439.15   3
  -1  -3   5 42106.4 2772.80   5
  -1  -3   4 193165. 5418.70   5
  -1  -3   3 310.422 269.070   5
   1   3  -2 14997.8 1346.26   5
  -1  -3   2 11255.9 1218.89   1
  -1  -3   2 13546.2 1308.24   5
  -1  -3   2 13854.2 1198.87   2
   1   3  -1 65770.6 2818.83   1
  -1  -3   1 62077.8 2858.97   1
   1   3  -1 63371.4 2662.93   2
  -1  -3   1 60231.9 2693.59   2
  -1  -3   1 59494.1 2680.95   5
   1   3   0 480861. 7865.29   1
   1   3   1 414980. 8072.43   1
   1   3   2 44991.7 2823.28   1
  -1  -3  -2 43174.4 1444.23   4
   1   3   3 5612.81 1157.20   1
   1   3   4 12061.4 1778.98   1
   1   3   5 48302.5 3815.85   1
   1   3   6 40524.6 3813.40   1
   1   3   7 61.1965 1112.26   1
   1   3   8 8690.11 2124.81   1
   1   3   9 3298.06 1375.61   1
  -1  -4  13 1903.94 1052.59   1
  -1  -4  12 3466.49 1265.44   1
  -1  -4  11 8468.20 1901.37   1
  -1  -4  10-651.254 511.943   1
  -1  -4  10 31.3474 416.900   5
  -1  -4   9 1809.74 920.278   5
  -1  -4   8 47265.7 3757.96   5
  -1  -4   7 113746. 5388.71   5
   1   4  -7 105891. 3034.09   3
   1   4  -6 49101.8 1675.74   3
  -1  -4   6 49883.5 3291.25   5
   1   4  -5 4309.25 383.577   3
  -1  -4   5 5487.13 1016.10   5
  -1  -4   4 5505.68 995.846   5
  -1  -4   3 5294.73 460.598   3
  -1  -4   3 4799.99 911.060   5
  -1  -4   3 5648.45 884.353   2
  -1  -4   2 29733.3 2066.70   2
  -1  -4   2 29356.2 1389.72   3
  -1  -4   2 30612.7 2092.00   5
   1   4  -1 30962.3 2120.67   1
  -1  -4   1 27737.0 2045.01   5
  -1  -4   1 28982.8 2158.34   2
   1   4   0 209491. 5781.71   1
   1   4   1 256358. 6742.32   1
  -1  -4  -1 256602. 4632.57   4
   1   4   2 37710.7 2814.05   1
  -1  -4  -2 36013.0 1655.07   4
   1   4   3 2689.10 871.550   1
   1   4   4 27477.8 2796.78   1
   1   4   5 56781.1 4337.41   1
   1   4   6 20032.7 2769.33   1
   1   4   7 1085.37 893.346   1
   1   4   8 3056.67 1395.07   1
  -1  -5  13 498.862 616.291   1
  -1  -5  12 6010.32 1719.08   1
  -1  -5  11-242.223 618.885   5
  -1  -5  11 880.713 676.273   1
  -1  -5  10 1133.96 806.159   5
  -1  -5   9 2635.45 1002.92   5
   1   5  -9 2488.37 581.268   3
   1   5  -8 55417.7 2316.75   3
  -1  -5   8 56934.6 4103.23   5
   1   5  -7 72039.6 2238.67   3
  -1  -5   7 78580.9 4461.16   5
   1   5  -6 21612.2 1068.12   3
  -1  -5   6 22221.2 2269.67   5
  -1  -5   5 1299.23 625.958   5
   1   5  -5 552.149 177.026   3
  -1  -5   4 2460.93 366.457   3
  -1  -5   4 4011.97 853.668   5
  -1  -5   3 61337.6 2051.08   3
  -1  -5   3 66984.4 3377.06   2
  -1  -5   3 70882.0 3516.40   5
  -1  -5   2 118290. 3341.06   3
  -1  -5   2 118396. 4462.20   5
  -1  -5   1 532.603 519.622   2
  -1  -5   1-19.4629 300.576   5
   1   5  -1 489.546 350.641   1
   1   5   0 32981.7 2589.63   1
   1   5   1 31058.6 2555.27   1
  -1  -5  -1 32890.8 1932.70   4
  -1  -5  -2 556.611 295.273   4
   1   5   2 455.612 350.158   1
   1   5   3 395.713 490.094   1
   1   5   4 11494.6 1949.86   1
   1   5   5 47745.9 4192.71   1
   1   5   6 27107.3 3375.25   1
   1   5   7 2863.58 1419.32   1
  -1  -6  13 1442.65 958.689   1
  -1  -6  12 3442.84 1301.58   1
  -1  -6  11 184.232 534.241   5
  -1  -6  10 6470.03 1675.76   5
  -1  -6   9 387.244 729.166   5
   1   6  -8 14335.1 1086.02   3
  -1  -6   8 16872.6 2279.57   5
  -1  -6   7 76834.3 4527.56   5
   1   6  -7 74600.6 2285.86   3
   1   6  -6 21548.9 1173.27   3
  -1  -6   6 22338.8 2310.04   5
  -1  -6   5 2091.75 846.588   5
  -1  -6   5 1620.43 355.991   3
  -1  -6   4 32478.4 1606.50   3
  -1  -6   4 29627.2 2492.73   5
  -1  -6   4 29388.1 2415.96   2
  -1  -6   3 91853.0 2984.82   3
  -1  -6   3 98025.5 4414.66   5
  -1  -6   3 97564.8 4536.72   2
  -1  -6   2 151701. 5495.62   5
  -1  -6   2 155207. 5873.97   2
   1   6  -1 47424.0 3151.76   1
  -1  -6   1 44829.3 3127.98   5
  -1  -6   1 52766.9 3561.50   2
   1   6   0 567.841 490.486   1
   1   6   1 284.774 504.110   1
   1   6   2 197.008 583.701   1
   1   6   3 13585.8 2042.07   1
   1   6   4 4216.59 1329.89   1
   1   6   5 14275.6 2453.16   1
   1   6   6 10831.6 2324.98   1
   1   6   7 933.531 848.706   1
  -1  -7  13 1253.01 1081.53   1
  -1  -7  12-121.064 580.538   5
  -1  -7  12 1204.29 832.422   1
  -1  -7  11 1195.68 807.890   5
  -1  -7  10 9101.81 1981.09   5
  -1  -7   9 1143.72 735.612   5
  -1  -7   8 9146.16 1751.74   5
   1   7  -7 17260.2 1200.58   3
  -1  -7   7 21958.1 2530.82   5
  -1  -7   6 6172.76 1312.66   5
  -1  -7   5 709.161 262.970   3
  -1  -7   5 23.3718 363.749   5
  -1  -7   5 775.564 523.835   2
  -1  -7   4 7626.79 1367.40   2
  -1  -7   4 9404.98 1517.43   5
  -1  -7   3 125470. 5347.12   5
  -1  -7   3 131091. 5765.12   2
  -1  -7   2 83394.9 4423.77   5
  -1  -7   2 85981.6 4821.02   2
   1   7  -1 18590.9 2109.60   1
  -1  -7   1 17414.3 2108.84   5
  -1  -7   1 21780.8 2486.95   2
   1   7   0 1399.74 682.233   1
   1   7   1 16829.5 2211.13   1
   1   7   2 31400.1 3251.54   1
   1   7   3 10019.5 1926.48   1
   1   7   4 591.737 754.612   1
   1   7   5 3518.79 1249.34   1
   1   7   6-1754.63 1033.55   1
  -1  -8  13-487.463 682.295   1
  -1  -8  12 261.216 573.026   5
  -1  -8  11 1317.80 840.007   5
  -1  -8  10 9442.16 1999.20   5
  -1  -8   9 2923.74 1224.88   5
  -1  -8   8 1870.73 928.925   5
  -1  -8   7 1377.79 829.533   5
  -1  -8   6 3046.98 992.111   2
  -1  -8   6 2484.03 872.769   5
  -1  -8   5 2592.43 879.327   2
  -1  -8   5 3686.86 1042.01   5
  -1  -8   4 502.439 640.459   2
  -1  -8   4 766.366 621.397   5
  -1  -8   3 18845.8 2229.85   5
  -1  -8   3 20347.4 2512.69   2
  -1  -8   2 35091.2 3057.78   5
  -1  -8   2 26796.1 2961.65   2
   1   8  -1 18064.8 2206.74   1
  -1  -8   1 20378.3 2405.15   5
  -1  -8   1 19841.0 2578.19   2
   1   8   0 7097.42 1513.55   1
   1   8   1 4164.84 1227.89   1
   1   8   2 33681.5 3552.69   1
   1   8   3 19788.1 2893.69   1
   1   8   4 4502.25 1490.40   1
   1   8   5 1537.95 1050.71   1
  -1  -9  13-281.397 610.449   1
  -1  -9  12-2660.94 1281.90   5
  -1  -9  11 5508.62 1736.03   5
  -1  -9  10 10098.6 2129.52   5
  -1  -9   9 5619.10 1526.83   5
  -1  -9   8 569.511 763.038   5
  -1  -9   7 978.740 759.178   5
  -1  -9   7 713.748 597.722   2
  -1  -9   6 7880.78 1613.90   2
  -1  -9   6 4077.17 1202.99   5
  -1  -9   5 17163.5 2300.29   5
  -1  -9   5 15393.8 2281.84   2
  -1  -9   4 1441.26 796.654   2
  -1  -9   4-232.194 357.052   5
  -1  -9   3 7898.97 1781.89   2
  -1  -9   3 6063.83 1372.65   5
  -1  -9   2 10844.4 2019.37   2
  -1  -9   2 13827.3 2069.80   5
  -1  -9   1 113.177 469.345   2
   1   9  -1 648.107 596.198   1
  -1  -9   1-725.633 655.090   5
   1   9   0 1534.70 912.654   1
  -1  -9   0 1165.93 828.198   5
   1   9   1 5559.82 1456.69   1
   1   9   2 11707.0 2203.43   1
   1   9   3 10328.3 2225.42   1
   1   9   4 346.278 839.617   1
  -1 -10  12 591.717 712.923   5
  -1 -10  11 2178.04 1123.18   5
  -1 -10  10 4886.27 1597.19   5
  -1 -10   9 3968.15 1388.75   5
  -1 -10   8 681.925 670.576   5
  -1 -10   8-197.069 525.538   2
  -1 -10   7 882.491 686.662   2
  -1 -10   7-757.384 649.005   5
  -1 -10   6 12004.2 2128.26   2
  -1 -10   6 8121.80 1740.16   5
  -1 -10   5 13808.2 2306.42   2
  -1 -10   5 12378.0 2060.29   5
  -1 -10   4 2550.89 1081.46   2
  -1 -10   4 3368.99 1143.11   5
  -1 -10   3 398.121 605.598   2
  -1 -10   3 267.178 568.159   5
  -1 -10   2-239.206 533.271   2
  -1 -10   2-274.082 453.157   5
  -1 -10   1 2099.39 1023.47   5
   1  10   0 2163.47 1017.32   1
  -1 -10   0 3296.52 1237.55   5
   1  10   1 961.775 817.906   1
  -1 -10  -1 912.304 737.013   5
   1  10   2 2518.62 1178.24   1
  -1 -11  11 1031.69 848.837   5
  -1 -11  10 663.162 905.704   5
  -1 -11   9-259.854 547.643   5
  -1 -11   9 177.275 458.608   2
  -1 -11   8 915.180 761.779   2
  -1 -11   8 369.332 453.934   5
  -1 -11   7-653.257 563.116   2
  -1 -11   7 1202.03 805.442   5
  -1 -11   6 6097.46 1702.64   2
  -1 -11   6 6474.70 1670.06   5
  -1 -11   5 7036.87 1888.91   2
  -1 -11   5 5515.22 1483.61   5
  -1 -11   4 3834.83 1270.15   2
  -1 -11   4 5934.22 1531.62   5
  -1 -11   3 787.853 798.393   2
  -1 -11   3 1257.85 624.864   5
  -1 -11   2 2414.08 1229.78   2
  -1 -11   2 1258.28 758.388   5
  -1 -11   1 5688.86 1595.76   5
   1  11   0 2690.43 1031.43   1
  -1 -11   0 1711.20 960.730   5
   1  11   1 1389.17 854.426   1
  -1 -11  -1 1471.47 1068.68   5
  -1 -11  -2-510.885 624.089   5
  -1 -12  10-321.255 639.412   5
  -1 -12   9-524.179 659.376   5
  -1 -12   9 66.4353 641.930   2
  -1 -12   8 227.018 447.088   2
  -1 -12   8 915.848 482.901   5
  -1 -12   7 772.136 541.331   2
  -1 -12   7-290.269 554.479   5
  -1 -12   6 2692.04 1121.75   2
  -1 -12   6 1961.57 891.459   5
  -1 -12   5 2708.89 1178.15   2
  -1 -12   5 5224.95 1434.98   5
  -1 -12   4-249.713 608.962   2
  -1 -12   4-272.801 519.096   5
  -1 -12   3 314.539 450.925   5
  -1 -12   3 2431.02 1252.92   2
  -1 -12   2 1386.26 971.324   5
  -1 -12   1 1452.05 674.259   5
  -1 -12   0 6461.97 1809.02   5
  -1 -13   9-1003.63 852.304   5
  -1 -13   8 1678.38 1065.69   5
  -1 -13   7-476.477 775.652   5
  -1 -13   6 1494.01 905.796   5
  -1 -13   5 3718.40 1301.39   5
  -1 -13   4-1600.68 943.668   5
   2 -12   0 1808.27 934.268   2
   2 -12   1 370.724 595.537   2
   2 -12   2 835.430 854.789   2
   2 -12   3 2448.76 1127.32   2
   2 -12   4 1028.51 856.545   2
  -2  12  -5-1502.73 821.902   3
   2 -12   5-357.272 735.899   2
  -2  12  -6 130.470 406.248   3
  -2  12  -7 1203.39 674.275   3
  -2  12  -8 2966.67 1146.18   3
  -2  12  -9 731.172 380.596   3
   2 -11  -1 7810.81 1884.70   2
   2 -11   0 13592.6 2533.48   2
   2 -11   1 10171.8 2148.85   2
   2 -11   2 1140.78 790.551   2
   2 -11   3 1152.31 835.678   2
  -2  11  -4-732.676 659.782   3
   2 -11   4 270.125 502.846   2
  -2  11  -5 1749.23 851.957   3
  -2  11  -6 414.070 339.402   3
  -2  11  -7 2099.42 755.182   3
  -2  11  -8 5114.63 1341.34   3
  -2  11  -9 1537.17 708.534   3
  -2  11 -10 145.875 428.074   3
   2 -10  -1 9991.97 2004.68   2
   2 -10   0 25656.3 3209.46   2
   2 -10   1 11679.8 2264.23   2
   2 -10   2 1683.21 835.293   2
   2 -10   3 235.854 593.929   2
  -2  10  -3 177.363 380.616   3
  -2  10  -4 4083.27 1169.35   3
  -2  10  -5 10356.2 1818.52   3
  -2  10  -6 1584.73 794.806   3
  -2  10  -7 1610.56 832.026   3
  -2  10  -8 1047.65 718.780   3
  -2  10  -9-129.916 550.857   3
  -2  10 -10 633.047 554.168   3
  -2  10 -11 91.1458 585.515   3
  -2   9   5 2299.00 1156.27   4
  -2   9   4-1282.12 856.167   4
  -2   9   3 588.716 579.411   4
   2  -9  -2-7.88014 405.125   2
  -2   9   2 1381.83 840.884   4
   2  -9  -1 9811.83 1870.58   2
   2  -9   0 44449.2 3877.40   2
   2  -9   1 26708.4 3028.27   2
  -2   9  -2 2157.12 843.581   3
   2  -9   2 1234.06 726.711   2
  -2   9  -3 2951.58 1019.81   3
  -2   9  -4 16765.4 2174.08   3
  -2   9  -5 42754.9 3468.47   3
  -2   9  -6 5859.07 1397.23   3
  -2   9  -7 1486.24 724.954   3
  -2   9  -8 2178.36 919.211   3
  -2   9  -9 975.942 700.656   3
  -2   9 -10 1564.40 896.582   3
  -2   9 -11 536.434 427.792   3
  -2   8   6 3019.28 1061.94   4
  -2   8   6 7719.52 1845.65   1
  -2   8   5 468.958 595.350   4
  -2   8   5-223.201 470.579   1
  -2   8   4 1081.83 712.114   1
  -2   8   4 2514.51 1100.66   4
  -2   8   3 14581.2 1976.72   1
  -2   8   3 14574.8 2369.56   4
   2  -8  -2 4215.05 1137.22   2
  -2   8   2 3673.86 1160.34   4
  -2   8   2 5744.36 1149.10   1
   2  -8  -1 5493.49 1282.16   2
  -2   8   1 4676.05 958.455   1
  -2   8   1 4384.03 1261.27   4
  -2   8   0 20058.7 2558.23   4
   2  -8   0 19573.6 2401.36   2
  -2   8  -1 14776.9 1998.68   3
   2  -8   1 12095.9 1882.36   2
  -2   8  -2 661.368 646.880   3
  -2   8  -3 6262.98 1281.05   3
  -2   8  -4 17805.5 2119.88   3
  -2   8  -5 37852.1 3175.04   3
  -2   8  -6 18605.3 2257.82   3
  -2   8  -7 608.474 561.998   3
  -2   8  -8 477.656 379.385   3
  -2   8  -9 1911.45 931.998   3
  -2   8 -10 6857.42 1572.08   3
  -2   8 -11 770.104 520.395   3
  -2   7   7 8278.97 2002.55   1
  -2   7   7 11109.5 2150.67   4
  -2   7   6 4406.46 1528.33   4
  -2   7   6 838.030 577.890   1
  -2   7   5 1557.11 751.676   4
  -2   7   5 378.923 529.287   1
  -2   7   4 15844.9 2350.91   4
  -2   7   4 16239.3 2181.29   1
  -2   7   3 69907.5 4092.93   1
  -2   7   3 63130.8 4558.43   4
  -2   7   2 61989.7 4362.51   4
  -2   7   2 56329.4 3293.26   1
   2  -7  -2 55877.3 3771.30   2
   2  -7  -1 243.756 479.797   2
  -2   7   1 166.351 267.126   1
  -2   7   1 1075.41 662.057   4
   2  -7   0 7188.89 1295.51   2
  -2   7   0 8251.29 1422.08   3
  -2   7   0 8026.28 923.698   1
  -2   7   0 10107.9 1729.34   4
  -2   7  -1 9.71539 79.0128   1
  -2   7  -1 776.879 601.846   3
  -2   7  -1 290.820 582.823   4
  -2   7  -2 34574.6 2806.62   3
  -2   7  -3 10674.9 1592.84   3
  -2   7  -4 52927.7 3495.74   3
  -2   7  -5 60205.8 3849.04   3
  -2   7  -6 12612.5 1843.77   3
  -2   7  -7 350.073 423.386   3
  -2   7  -8-318.428 333.072   3
  -2   7  -9 10610.3 1881.68   3
  -2   7 -10 7107.60 1591.86   3
  -2   7 -11 1658.94 949.936   3
  -2   6   8 3100.22 1194.83   4
  -2   6   8 4031.77 1440.24   1
  -2   6   7 5701.60 1504.70   4
  -2   6   7 5484.48 1541.66   1
  -2   6   6 606.047 658.217   4
  -2   6   6 899.218 543.800   1
  -2   6   5 2064.50 792.484   4
  -2   6   5 3708.40 1157.53   1
  -2   6   4 34679.1 3221.02   4
  -2   6   4 34095.2 3029.83   1
  -2   6   3 114375. 5006.37   1
  -2   6   3 119341. 5786.95   4
  -2   6   2 77296.8 3653.77   1
   2  -6  -2 76305.7 3921.86   2
  -2   6   2 82592.2 4683.91   4
  -2   6   1 14405.5 1356.31   1
   2  -6  -1 13441.7 1116.82   5
   2  -6  -1 13896.8 1682.70   2
  -2   6   1 14567.2 1951.46   4
  -2   6   0 1529.74 652.981   4
  -2   6   0 1520.48 637.462   3
  -2   6   0 1481.65 375.922   1
   2  -6   0 1380.92 613.783   2
  -2   6  -1 31293.2 2517.82   3
  -2   6  -1 26545.6 876.914   1
  -2   6  -1 29648.6 2676.39   4
  -2   6  -2 31979.4 2604.98   3
  -2   6  -3 20026.6 2050.12   3
  -2   6  -4 9047.83 1431.49   3
  -2   6  -4 7105.61 695.058   5
  -2   6  -5 32064.8 2702.05   3
  -2   6  -6 2093.07 763.818   3
   2  -6   6 2554.19 443.614   1
  -2   6  -7 1061.28 589.112   3
  -2   6  -8 484.575 739.165   3
  -2   6  -9 6721.83 1497.88   3
  -2   6 -10 9904.80 1882.93   3
  -2   6 -11 756.736 638.412   3
  -2   5   9 556.353 897.932   1
  -2   5   8 1737.53 952.980   4
  -2   5   8 1686.40 1040.86   1
  -2   5   7 2379.51 925.755   4
  -2   5   7 905.366 753.843   1
  -2   5   6 4690.71 1344.08   4
  -2   5   6 7273.31 1664.85   1
  -2   5   5 2140.31 908.119   4
  -2   5   5 1102.35 663.530   1
  -2   5   4 28620.4 2648.45   1
  -2   5   4 25385.3 2640.20   4
  -2   5   3 107603. 4626.26   1
  -2   5   3 93273.5 4888.33   4
   2  -5  -3 95006.9 4069.04   2
  -2   5   2 75559.9 4209.70   4
   2  -5  -2 64214.7 2854.85   5
  -2   5   2 76243.8 3448.61   1
   2  -5  -2 72957.3 3421.86   2
   2  -5  -1 4915.36 918.723   2
  -2   5   1 5897.51 1196.72   4
   2  -5  -1 5650.49 621.222   5
  -2   5   1 6703.68 1171.37   3
  -2   5   1 7394.05 919.317   1
  -2   5   0 5356.33 1137.82   4
  -2   5   0 5312.24 1010.46   3
  -2   5   0 5694.65 612.965   1
  -2   5  -1 81479.9 3869.94   3
  -2   5  -1 86070.5 4216.87   4
  -2   5  -2 230046. 6505.58   3
  -2   5  -2 223970. 6750.92   4
  -2   5  -3 81025.8 3908.67   3
  -2   5  -3 69789.9 1660.12   5
  -2   5  -4 340.223 205.868   5
  -2   5  -4 466.338 390.352   3
  -2   5  -5 8371.08 1342.32   3
   2  -5   5 8699.41 789.719   1
  -2   5  -6 4098.72 993.979   3
   2  -5   6 3005.41 596.322   1
  -2   5  -7 21437.1 2354.35   3
   2  -5   7 15333.4 1630.30   1
   2  -5   8 1506.94 601.842   1
  -2   5  -8 1290.61 669.821   3
   2  -5   9 6560.57 1382.06   1
  -2   5  -9 7095.15 1516.38   3
  -2   5 -10 10126.1 1892.45   3
  -2   5 -11 75.6413 515.661   3
  -2   4   9 3844.77 1263.71   4
  -2   4   9 3858.82 1371.06   1
  -2   4   8 166.773 599.362   4
  -2   4   8-647.358 757.377   1
  -2   4   7 3260.69 1123.34   4
  -2   4   7 3650.40 1171.30   1
  -2   4   6 19592.3 2499.83   1
  -2   4   6 19049.7 2423.39   4
  -2   4   5 53198.3 3798.48   4
  -2   4   5 59855.4 3987.51   1
  -2   4   4 3228.18 861.857   1
  -2   4   4 2681.97 843.729   4
  -2   4   3 77777.0 3775.83   1
  -2   4   3 79525.5 4251.74   4
   2  -4  -2 71128.0 2708.69   5
  -2   4   2 77527.0 3322.45   1
   2  -4  -2 76070.9 3029.03   2
  -2   4   2 71066.0 3905.90   4
  -2   4   1 19.4938 357.701   4
  -2   4   1 231.484 276.772   1
  -2   4   1 141.880 296.210   3
   2  -4  -1 382.050 178.784   5
   2  -4  -1-49.4067 202.134   2
  -2   4   0 3674.72 873.084   4
  -2   4   0 2919.03 433.777   1
  -2   4  -1 161905. 5114.81   3
  -2   4  -1 169197. 5476.14   4
  -2   4  -2 314387. 7299.57   3
  -2   4  -2 314058. 7316.75   4
  -2   4  -3 111028. 4434.33   3
  -2   4  -3 103605. 2672.40   5
   2  -4   4 3411.61 501.372   1
  -2   4  -4 2202.18 515.800   5
  -2   4  -4 2409.98 799.684   3
  -2   4  -5 2394.27 813.892   3
   2  -4   5 908.922 354.266   1
  -2   4  -6 15903.6 1903.40   3
   2  -4   6 13891.8 1519.04   1
  -2   4  -7 32065.7 2876.52   3
   2  -4   7 27046.6 2436.64   1
   2  -4   8 3790.43 979.153   1
  -2   4  -8 5269.09 1278.87   3
   2  -4   9 5928.93 1413.25   1
  -2   4  -9 4932.64 1280.20   3
   2  -4  10 3141.42 1185.07   1
  -2   4 -10 5070.54 1317.11   3
  -2   4 -11 28.8638 619.774   3
   2  -4  11 202.536 479.851   1
  -2   3  10 11049.3 2154.87   4
  -2   3  10 10129.4 2366.97   1
  -2   3   9 3975.88 1511.79   4
  -2   3   9 1575.32 829.473   1
  -2   3   8 1164.28 832.624   4
  -2   3   8 557.442 471.161   1
  -2   3   7 37794.2 3582.56   1
  -2   3   7 40222.8 3611.63   4
  -2   3   6 81248.5 4865.57   1
  -2   3   6 77232.4 4710.00   4
  -2   3   5 49735.0 3517.10   1
  -2   3   5 46548.6 3487.26   4
  -2   3   4 85.1490 496.421   4
  -2   3   4 17.8393 279.952   1
   2  -3  -3 16691.6 1547.41   5
  -2   3   3 14067.5 1550.03   1
  -2   3   3 14431.0 1739.26   4
   2  -3  -2 4627.32 634.816   2
  -2   3   2 4476.17 929.244   4
  -2   3   2 4875.08 930.077   3
   2  -3  -2 4517.45 648.847   5
  -2   3   2 4840.74 795.257   1
  -2   3   1 17218.5 1554.05   3
   2  -3  -1 16568.1 921.482   5
  -2   3   1 18015.5 1820.21   4
  -2   3   0 6259.71 1065.16   4
  -2   3   0 7155.88 1055.17   3
  -2   3  -1 70363.3 3196.34   3
  -2   3  -1 64602.8 1594.27   1
  -2   3  -1 71663.9 3243.32   4
  -2   3  -2 258041. 6275.86   3
  -2   3  -2 243247. 3228.69   1
  -2   3  -2 260720. 6075.10   4
  -2   3  -3 49583.2 2860.20   3
   2  -3   3 46739.8 1825.38   1
  -2   3  -3 45953.8 1773.16   1
  -2   3  -4 640.220 246.623   1
   2  -3   4 1025.94 364.222   1
  -2   3  -4 1039.60 587.314   3
  -2   3  -5 3249.55 926.094   3
   2  -3   5 1876.93 571.815   1
  -2   3  -6 58269.7 3753.74   3
   2  -3   6 55382.2 3423.62   1
  -2   3  -7 68582.0 4282.64   3
   2  -3   7 66451.6 4218.71   1
  -2   3  -8 4422.79 1229.04   3
   2  -3   8 4516.59 1256.79   1
  -2   3  -9 1520.38 857.514   3
   2  -3   9 259.980 379.564   1
  -2   3 -10-284.930 481.119   3
   2  -3  10 1324.24 772.425   1
  -2   3 -11 614.181 588.513   3
   2  -3  11 456.303 583.365   1
   2  -3  12 2065.10 1107.52   1
  -2   2  10 7004.60 1772.54   4
  -2   2  10 2651.91 1245.07   1
  -2   2   9 980.484 698.397   1
  -2   2   9 1251.17 696.259   4
  -2   2   8 910.738 650.437   4
  -2   2   8-156.569 386.193   1
  -2   2   7 8388.98 1565.37   4
  -2   2   7 8656.38 1656.59   1
  -2   2   6 129558. 6032.87   1
  -2   2   5 129714. 3408.96   2
  -2   2   5 134760. 5576.92   1
  -2   2   4 47975.3 3011.72   1
  -2   2   4 46215.0 3069.61   4
  -2   2   3 462.277 410.096   4
  -2   2   3 397.878 301.643   5
   2  -2  -3 332.551 224.994   5
  -2   2   2 63124.6 2438.39   5
   2  -2  -2 60802.5 2305.39   5
   2  -2  -2 62962.7 1797.47   2
  -2   2   2 66437.0 3402.79   4
  -2   2   1 269515. 5689.64   3
   2  -2  -1 264871. 4082.97   5
  -2   2   1 267532. 4146.20   5
  -2   2   1 279278. 6511.24   4
  -2   2   0 89002.7 3316.75   3
  -2   2   0 89973.2 2172.09   5
  -2   2   0 87379.7 3488.81   4
  -2   2  -1 8761.50 1094.34   3
  -2   2  -1 7922.56 725.573   1
  -2   2  -1 7934.28 991.296   4
   2  -2   2 88297.0 2672.17   1
  -2   2  -2 91072.4 3622.36   3
  -2   2  -2 90602.0 2638.15   1
  -2   2  -2 97700.5 3348.15   4
   2  -2   2 89705.9 3419.88   4
  -2   2  -3 73597.7 3482.01   3
   2  -2   3 68645.5 2715.14   1
  -2   2  -3 67454.1 2601.29   1
   2  -2   3 62214.0 2703.78   4
   2  -2   4 1251.19 444.116   4
   2  -2   4 1849.68 561.543   1
  -2   2  -4 1390.00 682.761   3
   2  -2   5 929.618 361.470   4
   2  -2   5 891.053 483.736   1
  -2   2  -5 536.374 490.503   3
   2  -2   6 24627.7 2505.26   1
   2  -2   7 78793.2 4985.34   1
   2  -2   8 17797.2 2582.20   1
   2  -2   9 1684.83 868.898   1
   2  -2  10-54.1549 470.605   1
   2  -2  11 1576.28 990.844   1
  -2   1  11 942.552 759.530   1
  -2   1  10 1401.66 933.829   1
  -2   1   9 4984.05 1561.97   1
  -2   1   8 1867.14 982.918   1
  -2   1   7 20222.7 2480.89   1
  -2   1   6 136387. 3536.96   2
  -2   1   6 138724. 5978.93   1
  -2   1   5 104688. 4580.21   5
  -2   1   5 101824. 2358.66   2
  -2   1   4 15002.5 1593.35   5
  -2   1   3 14001.0 1376.70   5
   2  -1  -3 14548.6 1338.75   5
  -2   1   2 122624. 3470.57   3
   2  -1  -2 123403. 3530.89   3
  -2   1   2 117221. 3428.36   5
   2  -1  -2 117248. 3339.41   5
  -2   1   1 403685. 6427.38   3
   2  -1  -1 404976. 6472.77   3
  -2   1   1 403884. 5719.59   5
   2  -1  -1 404427. 5715.14   5
  -2   1   1 403425. 7341.67   4
  -2   1   0 215610. 4174.00   5
  -2   1   0 217770. 4371.24   1
  -2   1   0 218875. 4956.12   3
  -2   1   0 226095. 5254.83   4
  -2   1  -1 16117.6 1408.14   3
  -2   1  -1 16128.1 1232.51   1
  -2   1  -1 15140.9 1280.16   4
   2  -1   2 21873.8 1564.25   1
  -2   1  -2 22823.9 1573.52   1
  -2   1  -2 23620.8 1861.95   3
  -2   1  -2 22873.2 1430.40   4
   2  -1   3 7699.80 1039.29   1
  -2   1  -3 6776.77 1138.95   3
   2  -1   3 7783.51 841.064   4
   2  -1   4 69626.7 3516.84   1
   2  -1   4 64633.4 2301.78   4
   2  -1   5 2098.50 418.428   4
   2  -1   5 2957.82 841.558   1
   2  -1   6 41162.6 3456.22   1
   2  -1   7 19708.2 2649.76   1
   2  -1   8 3502.09 1180.82   1
   2  -1   9 1095.15 964.518   1
   2  -1  10 876.433 836.705   1
   2  -1  11 2849.99 1426.16   1
  -2   0  11 1692.28 1269.98   1
  -2   0  10 1330.75 826.933   1
  -2   0   9 13266.3 2284.01   1
  -2   0   8 19631.9 2573.95   1
  -2   0   7 1136.29 557.685   5
  -2   0   7 829.160 670.364   1
  -2   0   6 47128.9 3395.81   5
  -2   0   6 42623.8 1741.65   2
  -2   0   5 35389.0 2671.76   5
  -2   0   4 1744.52 610.445   5
   2   0  -4 1278.06 375.197   3
  -2   0   3 701.287 279.525   3
   2   0  -3 730.190 273.092   3
  -2   0   3 427.668 418.459   5
  -2   0   2 124197. 3107.43   3
   2   0  -2 120319. 3159.61   3
  -2   0   2 120638. 3699.45   5
   2   0  -2 128686. 3724.40   5
   2   0  -2 120712. 1888.87   2
  -2   0   1 450832. 6362.52   3
   2   0  -1 452339. 6565.69   3
  -2   0   1 453647. 6942.63   5
  -2   0   0 275653. 5583.29   1
  -2   0   0 268777. 5291.92   3
  -2   0   0 270619. 5417.88   5
   2   0   1 42229.1 2308.32   1
  -2   0  -1 45106.2 2428.34   3
  -2   0  -1 42874.5 2268.70   1
  -2   0  -1 44718.6 1985.45   4
  -2   0  -2 709.840 254.090   4
   2   0   2 719.543 391.816   1
   2   0   3 62750.6 3262.40   1
   2   0   4 84178.2 4231.82   1
   2   0   5 45673.3 3449.46   1
   2   0   6 10774.9 1836.73   1
   2   0   7 25701.2 3098.80   1
   2   0   8 1918.35 1033.67   1
   2   0   9 2330.31 1192.82   1
   2   0  10-290.655 609.800   1
  -2  -1  11 25.1926 480.338   1
  -2  -1  10 1981.50 1016.41   1
  -2  -1   9 41877.3 3966.57   1
  -2  -1   8 45457.9 3849.36   5
  -2  -1   7 1026.76 626.259   5
   2   1  -6 4027.79 657.484   3
  -2  -1   6 6433.69 1297.84   5
   2   1  -5 543.493 234.876   3
  -2  -1   5 1193.65 555.128   5
   2   1  -4 38646.1 1566.31   3
  -2  -1   4 41359.5 2634.44   5
  -2  -1   3 885.988 253.739   3
   2   1  -3 1041.78 264.026   3
  -2  -1   3 562.785 329.153   5
  -2  -1   2 86959.2 2381.99   3
  -2  -1   2 87945.1 3440.74   5
   2   1  -2 85365.3 2237.30   2
  -2  -1   1 316971. 5145.21   3
  -2  -1   1 309832. 6260.32   5
   2   1   1 16216.6 1551.81   1
   2   1   2 7492.93 1175.62   1
  -2  -1  -2 6988.99 549.803   4
   2   1   3 81379.7 4046.74   1
   2   1   4 133432. 5671.35   1
   2   1   5 20624.3 2453.89   1
   2   1   6-304.761 529.445   1
   2   1   7 6197.88 1682.54   1
   2   1   8 2211.27 1104.35   1
   2   1   9 6125.42 1866.08   1
   2   1  10 195.591 679.875   1
  -2  -2  12-407.074 657.541   1
  -2  -2  11 589.451 770.183   1
  -2  -2  10 5278.05 1490.95   1
  -2  -2   9 31972.3 3462.64   5
  -2  -2   8 65132.2 4572.38   5
   2   2  -7 3440.65 569.616   3
  -2  -2   7 5171.49 1262.24   5
   2   2  -6 2240.53 396.913   3
  -2  -2   6 1951.11 750.279   5
   2   2  -5 2776.34 356.960   3
  -2  -2   5 2874.14 844.103   5
  -2  -2   5 3900.22 502.697   2
   2   2  -4 136264. 2133.73   3
  -2  -2   4 137351. 4969.76   5
  -2  -2   4 137162. 2975.14   2
  -2  -2   3 187269. 2629.63   3
  -2  -2   3 180867. 5452.86   5
  -2  -2   2 40950.5 1584.12   3
  -2  -2   2 41730.6 2558.88   5
   2   2  -2 42336.4 1988.32   2
  -2  -2   1 103205. 3940.21   5
   2   2  -1 95937.5 3395.50   2
   2   2   0 30658.5 2264.31   1
   2   2   1 19533.9 1880.44   1
  -2  -2  -2 137.087 78.6516   4
   2   2   2 286.811 317.125   1
   2   2   3 78507.3 4259.89   1
   2   2   4 116626. 5650.81   1
   2   2   5 33763.1 3307.17   1
   2   2   6 240.068 555.622   1
   2   2   7 248.264 376.213   1
   2   2   8 5595.44 1673.61   1
   2   2   9 6912.75 2069.89   1
  -2  -3  12 150.213 590.932   1
  -2  -3  11 4647.42 1545.13   1
  -2  -3  10 464.892 551.642   5
  -2  -3   9 28703.0 3246.45   5
  -2  -3   8 21427.4 2709.74   5
   2   3  -7 4573.37 504.655   3
  -2  -3   7 6595.02 1403.04   5
  -2  -3   6 6323.42 1247.89   5
  -2  -3   5 127830. 5245.00   5
  -2  -3   5 125476. 3498.00   2
  -2  -3   4 106672. 4536.40   5
  -2  -3   4 103938. 3281.54   2
  -2  -3   3 143038. 2156.87   3
  -2  -3   3 141812. 5122.55   5
  -2  -3   3 146468. 4125.51   2
   2   3  -2 22089.7 1681.18   2
  -2  -3   2 20050.9 1905.48   5
  -2  -3   1 1896.91 688.224   5
   2   3   0 816.222 482.579   1
   2   3   1 9396.62 1421.59   1
   2   3   2 5233.11 1091.78   1
  -2  -3  -2 5332.03 403.176   4
   2   3   3 32322.7 2959.07   1
   2   3   4 56122.0 4166.30   1
   2   3   5 13926.7 2207.29   1
   2   3   6-32.9815 376.589   1
   2   3   7 276.184 443.884   1
   2   3   8 5217.45 1733.69   1
  -2  -4  12 2428.93 1152.82   1
  -2  -4  11 4925.63 1380.67   5
  -2  -4  10 118.046 362.499   5
  -2  -4   9 18277.5 2663.42   5
  -2  -4   8 18663.3 2507.01   5
  -2  -4   7 1234.52 705.945   5
  -2  -4   6 2763.07 919.858   5
  -2  -4   6 2670.07 624.384   2
  -2  -4   5 31779.4 2756.54   5
  -2  -4   5 27474.7 1937.45   2
  -2  -4   4 240441. 7183.01   5
  -2  -4   4 243214. 5874.53   2
  -2  -4   3 98991.2 4511.55   5
  -2  -4   3 93179.8 3814.57   2
  -2  -4   2 8060.54 1297.36   5
  -2  -4   1 2926.22 865.029   5
   2   4   0 45279.6 3126.12   1
   2   4   1 77532.6 4285.56   1
   2   4   2 22284.3 2460.58   1
  -2  -4  -2 19589.8 967.605   4
   2   4   3 1097.22 739.797   1
   2   4   4 16698.1 2393.13   1
   2   4   5 2123.57 1074.56   1
   2   4   6 4719.27 1474.50   1
   2   4   7-315.114 478.758   1
  -2  -5  12 4047.14 1603.11   5
  -2  -5  12 5569.49 1839.03   1
  -2  -5  11 9879.93 2176.63   5
  -2  -5  10 658.534 851.243   5
  -2  -5   9 1818.40 932.082   5
  -2  -5   8 504.899 437.444   5
  -2  -5   7 13331.1 1982.91   5
  -2  -5   6 3334.14 816.504   2
  -2  -5   6 4261.13 1137.68   5
  -2  -5   5 5411.22 977.009   2
  -2  -5   5 8117.16 1436.78   5
  -2  -5   4 76970.4 4269.42   5
  -2  -5   4 77521.8 3753.07   2
  -2  -5   3 56590.6 3627.90   5
  -2  -5   3 51670.4 3213.26   2
  -2  -5   2 11379.5 1654.94   5
  -2  -5   1 10928.0 1674.37   5
   2   5   0 40341.1 3259.37   1
   2   5   1 107249. 5433.93   1
   2   5   2 35223.1 3251.79   1
   2   5   3 255.638 732.381   1
   2   5   4 36.6164 385.495   1
   2   5   5-331.043 552.703   1
   2   5   6 2529.01 1099.48   1
  -2  -6  12 8228.81 2139.20   5
  -2  -6  11 3152.46 1402.81   5
  -2  -6  10 834.116 742.869   5
  -2  -6   9 295.514 624.840   5
  -2  -6   8 4108.61 1229.79   5
  -2  -6   7 16205.2 2295.05   5
  -2  -6   7 18333.6 1994.69   2
  -2  -6   6 14389.7 2093.85   5
  -2  -6   6 12823.4 1675.44   2
  -2  -6   5 1549.53 652.697   2
  -2  -6   5 1660.64 778.548   5
  -2  -6   4 28667.9 1236.24   3
  -2  -6   4 28131.0 2783.44   5
  -2  -6   4 30221.9 2628.90   2
  -2  -6   3 14121.7 1148.21   3
  -2  -6   3 13899.8 1949.57   5
  -2  -6   3 17054.3 1998.41   2
  -2  -6   2 271.997 589.402   5
  -2  -6   1 784.497 451.126   5
   2   6   0 24847.4 2646.69   1
   2   6   1 55892.5 4164.21   1
   2   6   2 21786.9 2800.00   1
   2   6   3 1369.76 862.827   1
   2   6   4 81.7597 586.628   1
   2   6   5 4385.25 1499.09   1
  -2  -7  12 4923.07 1611.22   5
  -2  -7  11 6723.35 1902.69   5
  -2  -7  10 1179.12 734.553   5
  -2  -7   9 1014.14 828.135   5
  -2  -7   8 2676.65 1044.80   5
  -2  -7   8 1350.54 689.373   2
  -2  -7   7 29475.6 3157.04   5
  -2  -7   7 24974.6 2528.66   2
  -2  -7   6 18094.4 2401.36   5
  -2  -7   6 21871.9 2402.44   2
  -2  -7   5 1106.30 587.129   2
  -2  -7   5 1592.26 785.328   5
  -2  -7   4 631.712 481.734   2
  -2  -7   4 472.846 411.156   5
  -2  -7   3 310.946 418.069   2
  -2  -7   3 307.832 546.046   5
  -2  -7   2 10618.4 1839.12   5
  -2  -7   1 3384.51 1128.09   5
   2   7   0 3755.90 1149.63   1
  -2  -7   0 2144.92 911.081   5
   2   7   1 20515.3 2664.73   1
   2   7   2 10162.9 1977.31   1
   2   7   3 2011.07 969.550   1
   2   7   4 1501.66 1102.09   1
  -2  -8  11 1830.67 1063.32   5
  -2  -8  10 599.560 743.089   5
  -2  -8   9-577.201 642.489   5
  -2  -8   9 737.800 670.860   2
  -2  -8   8 4542.51 1218.15   2
  -2  -8   8 2151.05 954.892   5
  -2  -8   7 25048.2 3033.51   5
  -2  -8   7 19294.4 2440.50   2
  -2  -8   6 29905.8 3170.54   5
  -2  -8   6 25371.2 2753.13   2
  -2  -8   5 1251.20 648.106   2
  -2  -8   5 1843.63 957.038   5
  -2  -8   4 429.698 400.923   2
  -2  -8   4 1333.22 665.694   5
  -2  -8   3 4455.49 1335.89   2
  -2  -8   3 3908.19 1213.50   5
  -2  -8   2 22009.5 2777.36   5
  -2  -8   1 6968.22 1662.51   5
  -2  -8   0 5828.67 1626.05   5
   2   8   0 5923.64 1492.11   1
   2   8   1 3003.11 1154.51   1
   2   8   2 2427.25 980.986   1
   2   8   3 248.701 545.858   1
  -2  -9  11 2875.46 1208.74   5
  -2  -9  10 2030.83 1091.48   5
  -2  -9  10-232.790 417.482   2
  -2  -9   9 439.971 501.995   2
  -2  -9   9 358.824 656.536   5
  -2  -9   8 1261.29 779.338   2
  -2  -9   8 2390.14 996.643   5
  -2  -9   7 3275.34 1099.33   2
  -2  -9   7 6597.66 1677.02   5
  -2  -9   6 4727.44 1302.12   2
  -2  -9   6 7510.12 1750.54   5
  -2  -9   5 2407.19 979.167   2
  -2  -9   5 2681.63 1105.70   5
  -2  -9   4 1582.66 822.527   2
  -2  -9   4 983.722 559.517   5
  -2  -9   3 5986.10 1511.36   2
  -2  -9   3 4551.96 1447.37   5
  -2  -9   2 5265.10 1558.44   5
  -2  -9   1 17018.5 2698.53   5
  -2  -9   0 2624.61 1315.95   5
   2   9   0 1716.78 1150.04   1
   2   9   1 1038.72 856.339   1
  -2  -9  -1-219.543 540.873   5
   2   9   2-986.906 792.989   1
  -2 -10  10 1383.16 931.066   2
  -2 -10  10 3050.66 1453.37   5
  -2 -10   9 1359.87 909.167   2
  -2 -10   9 2372.77 1251.28   5
  -2 -10   8 224.427 513.896   2
  -2 -10   8 2662.76 1160.42   5
  -2 -10   7 1846.71 995.407   2
  -2 -10   7 2968.24 1215.87   5
  -2 -10   6 1206.06 819.112   2
  -2 -10   6 103.019 494.803   5
  -2 -10   5-409.538 527.835   2
  -2 -10   5 631.964 702.887   5
  -2 -10   4 1726.67 927.748   2
  -2 -10   4 1008.62 970.552   5
  -2 -10   3 11246.3 2215.11   5
  -2 -10   2 15709.4 2684.78   5
  -2 -10   1 5925.12 1729.85   5
  -2 -10   0 2213.94 1145.65   5
  -2 -10  -1 1509.06 1072.05   5
  -2 -11  10 444.430 589.750   2
  -2 -11   9 1670.91 894.012   2
  -2 -11   9 1553.06 1055.93   5
  -2 -11   8 247.000 496.236   2
  -2 -11   8 685.783 753.283   5
  -2 -11   7 723.888 630.184   2
  -2 -11   7 666.655 832.831   5
  -2 -11   6 878.233 571.250   2
  -2 -11   6 46.4519 658.247   5
  -2 -11   5 239.511 544.293   2
  -2 -11   5 292.549 455.548   5
  -2 -11   4 238.724 511.367   2
  -2 -11   4-112.517 512.047   5
  -2 -11   3 567.191 798.310   5
  -2 -11   2 3584.11 1442.18   5
  -2 -11   1 834.384 685.230   5
  -2 -12   8-16.8795 421.172   2
  -2 -12   7 342.590 425.319   2
  -2 -12   7-442.181 428.431   5
  -2 -12   6 1685.47 991.708   2
  -2 -12   6 2056.21 1035.09   5
  -2 -12   5 433.447 712.854   5
  -2 -12   4 193.315 583.195   5
   3 -12   2-258.281 541.062   2
   3 -11   1 1091.68 809.503   2
   3 -11   2 1532.85 941.534   2
  -3  11  -3 10265.3 2092.30   3
   3 -11   3 5396.08 1529.72   2
  -3  11  -4 4431.88 1359.23   3
  -3  11  -5 1611.70 964.450   3
   3 -10   0 1185.39 698.335   2
   3 -10   1 1561.91 757.014   2
  -3  10  -2-107.465 334.861   3
   3 -10   2-309.757 586.138   2
  -3  10  -3 10199.4 1967.49   3
  -3  10  -4 12379.7 2154.97   3
  -3  10  -5 771.925 616.551   3
  -3  10  -6 438.000 528.043   3
  -3  10  -7-59.7703 532.651   3
  -3   9   3 10228.3 2256.18   4
  -3   9   2-296.273 547.297   4
  -3   9   1 441.455 468.533   4
   3  -9   0 11994.4 2071.73   2
  -3   9   0 10833.4 2161.19   4
  -3   9  -1 8145.66 1725.99   3
   3  -9   1 14102.1 2238.63   2
  -3   9  -2-270.927 656.587   3
  -3   9  -3 8306.85 1765.09   3
  -3   9  -4 3807.28 1122.30   3
  -3   9  -5-668.633 648.166   3
  -3   9  -6 662.973 690.588   3
  -3   9  -7 2022.28 1027.56   3
  -3   9  -8 4827.39 1354.93   3
  -3   8   5 9073.96 2132.88   4
  -3   8   4 14208.5 2555.61   4
  -3   8   3 7280.84 1765.32   4
  -3   8   2 1914.81 912.759   4
   3  -8  -1 2161.95 956.294   2
  -3   8   1 4277.01 1255.49   4
  -3   8   0 35424.4 3389.57   3
   3  -8   0 36841.1 3346.82   2
  -3   8   0 34937.5 3584.87   4
  -3   8  -1 48040.1 3918.09   3
  -3   8  -1 45309.9 4064.20   4
  -3   8  -2 8430.63 1614.80   3
  -3   8  -3 3074.30 1044.05   3
  -3   8  -4 395.659 624.752   3
  -3   8  -5 8034.31 1588.21   3
  -3   8  -6 6223.18 1459.00   3
  -3   8  -7 1378.33 723.014   3
  -3   8  -8 8785.48 1826.69   3
  -3   8  -9 1961.13 1018.22   3
  -3   7   6 4271.20 1535.49   4
  -3   7   5 2930.10 1155.52   4
  -3   7   4 11282.5 2132.51   4
  -3   7   3 2463.31 1093.11   4
  -3   7   2 702.365 675.281   4
   3  -7  -2 832.486 642.320   2
  -3   7   1 8470.22 1778.77   4
   3  -7  -1 8110.14 1404.44   2
  -3   7   1 8114.52 1619.19   3
  -3   7   0 57901.0 4106.22   3
   3  -7   0 52316.6 3653.44   2
  -3   7   0 62097.3 4522.52   4
  -3   7  -1 47356.9 3675.17   3
  -3   7  -1 46302.1 3965.94   4
  -3   7  -2 9646.74 1701.83   3
  -3   7  -2 11465.5 2001.90   4
  -3   7  -3 37.2062 398.575   3
  -3   7  -4 156.138 407.138   3
  -3   7  -5 11951.0 1934.16   3
  -3   7  -6 12036.4 1976.75   3
  -3   7  -7-303.051 489.610   3
  -3   7  -8 4529.94 1310.09   3
  -3   7  -9-415.086 667.650   3
  -3   6   8 8709.04 2172.21   1
  -3   6   7 12095.2 2313.36   4
  -3   6   7 15234.3 2524.64   1
  -3   6   6 6722.10 1664.24   4
  -3   6   6 6477.37 1609.07   1
  -3   6   5 774.096 859.483   4
  -3   6   5 657.428 587.428   1
  -3   6   4 3479.67 1106.26   4
  -3   6   4 5451.29 1167.71   1
  -3   6   3 2623.37 997.198   4
  -3   6   3 1720.07 601.076   1
  -3   6   2 13837.0 2141.21   4
  -3   6   2 17926.9 1703.48   1
   3  -6  -2 17377.7 1809.70   2
   3  -6  -1-88.2884 303.289   2
  -3   6   1 266.331 615.757   4
  -3   6   1 374.912 444.685   3
  -3   6   0 48400.3 3557.58   3
  -3   6   0 45650.2 3672.26   4
  -3   6  -1 95309.3 4971.04   3
  -3   6  -1 97433.6 5276.48   4
  -3   6  -2 799.342 600.654   3
  -3   6  -2 1815.73 896.697   4
  -3   6  -3 3207.03 930.672   3
  -3   6  -4 5972.35 1351.87   3
  -3   6  -5 43393.7 3544.28   3
  -3   6  -6 30307.1 3022.05   3
  -3   6  -7 498.716 477.178   3
  -3   6  -8 2419.57 1044.23   3
  -3   6  -9-2.18725 562.437   3
  -3   5   8 9934.42 2196.90   4
  -3   5   8 11289.4 2293.45   1
  -3   5   7 28407.8 3320.86   1
  -3   5   7 32718.1 3752.78   4
  -3   5   6 14463.4 2440.02   4
  -3   5   6 16505.9 2376.88   1
  -3   5   5 531.527 556.505   4
  -3   5   5 1137.68 689.639   1
  -3   5   4 5568.69 1405.93   4
  -3   5   4 3375.36 875.802   1
  -3   5   3 30799.1 2492.45   1
  -3   5   3 31201.1 3109.50   4
   3  -5  -3 32200.8 2193.95   2
  -3   5   2 47680.4 3458.60   3
  -3   5   2 50963.2 2836.33   1
   3  -5  -2 49311.3 2752.94   2
  -3   5   2 49617.4 3753.27   4
  -3   5   1 979.418 561.395   4
  -3   5   1 1174.62 426.057   1
  -3   5   1 1930.88 865.649   3
  -3   5   0 14394.8 1840.10   3
  -3   5   0 14814.1 1019.83   1
  -3   5   0 13644.9 1941.54   4
  -3   5  -1 23486.7 2375.46   3
  -3   5  -1 22349.7 2443.41   4
  -3   5  -2 3873.17 1050.91   3
  -3   5  -2 6676.17 1364.69   4
  -3   5  -3 2878.36 928.589   3
  -3   5  -3 2949.75 973.410   4
  -3   5  -4 5680.16 1237.04   3
  -3   5  -5 34204.9 3088.32   3
  -3   5  -6 32982.7 3192.26   3
  -3   5  -7 265.158 486.224   3
  -3   5  -8 2319.41 1008.52   3
  -3   5  -9 294.326 517.648   3
  -3   4   9-200.184 613.581   4
  -3   4   9 398.943 813.654   1
  -3   4   8 13499.8 2430.42   4
  -3   4   8 13530.1 2409.36   1
  -3   4   7 38246.4 3814.60   1
  -3   4   7 33926.4 3674.90   4
  -3   4   6 12116.3 2092.26   4
  -3   4   6 12137.5 1982.04   1
  -3   4   5 154.420 497.503   4
  -3   4   5 2127.43 790.182   1
  -3   4   4 5473.13 1332.89   4
  -3   4   4 4945.01 1125.24   1
  -3   4   3 70048.0 3743.46   1
   3  -4  -3 70295.6 2721.82   2
  -3   4   3 69649.8 4430.55   4
  -3   4   2 108961. 4833.43   3
   3  -4  -2 100169. 3419.71   2
  -3   4   2 106076. 4049.95   1
  -3   4   2 106871. 5247.12   4
  -3   4   1 27466.0 2422.62   3
  -3   4   1 24799.7 2509.98   4
  -3   4   1 24096.6 1712.67   1
  -3   4   0 16169.9 1875.12   3
  -3   4   0 10984.6 949.536   1
  -3   4   0 14608.7 1831.53   4
  -3   4  -1 2607.37 875.630   4
  -3   4  -1 2907.69 441.336   1
  -3   4  -1 1884.02 761.911   3
  -3   4  -2 14741.4 1856.16   3
  -3   4  -2 14476.9 881.325   1
  -3   4  -2 13135.5 834.127   5
  -3   4  -2 14678.9 1856.58   4
  -3   4  -3 32396.9 2758.22   3
  -3   4  -3 32226.1 2654.54   4
  -3   4  -4 1360.98 699.108   3
   3  -4   5 34467.8 2131.02   1
  -3   4  -5 33265.2 3057.72   3
  -3   4  -6 17433.9 2303.99   3
  -3   4  -7-351.641 589.871   3
  -3   4  -8 1841.84 935.350   3
  -3   4  -9 354.273 586.095   3
  -3   3  10 2985.00 1295.10   4
  -3   3   9 1076.16 856.087   1
  -3   3   9 1299.18 1012.11   4
  -3   3   8 491.228 737.807   4
  -3   3   8 471.209 798.134   1
  -3   3   7 20312.7 2729.70   1
  -3   3   7 22084.8 2935.49   4
  -3   3   6 3599.83 1189.39   4
  -3   3   6 3189.58 1004.97   1
  -3   3   5 1263.66 765.238   4
  -3   3   5 2533.13 800.881   1
  -3   3   4 2066.50 732.932   1
  -3   3   4 2340.98 906.727   4
  -3   3   3 98294.1 4402.21   3
  -3   3   3 93132.5 4957.05   4
   3  -3  -3 88733.9 2363.23   2
  -3   3   2 170105. 5663.80   3
  -3   3   2 176824. 4365.53   5
   3  -3  -2 165642. 4070.10   5
   3  -3  -2 173013. 3756.10   2
  -3   3   2 160792. 6309.89   4
  -3   3   1 46485.9 2980.92   3
  -3   3   1 45922.3 1943.90   5
  -3   3   1 49512.2 3332.80   4
  -3   3   0-91.9957 395.113   4
  -3   3   0 444.433 230.289   1
  -3   3   0 1013.21 519.953   3
  -3   3   0 699.985 226.284   5
  -3   3  -1 5895.75 1121.13   4
  -3   3  -1 5184.83 700.678   1
  -3   3  -1 6283.32 709.935   5
  -3   3  -1 6772.00 1203.51   3
  -3   3  -2 65427.9 3726.85   3
  -3   3  -2 60750.4 2469.19   1
  -3   3  -2 59735.0 2425.72   5
  -3   3  -2 63838.4 3562.82   4
  -3   3  -3 62236.2 3778.03   3
  -3   3  -3 57902.7 2558.29   1
  -3   3  -3 63665.1 3408.97   4
   3  -3   4 1159.75 482.417   1
  -3   3  -4 505.975 569.435   3
  -3   3  -5 19455.3 2362.57   3
   3  -3   5 21383.0 1937.74   1
   3  -3   6 9004.03 1382.22   1
  -3   3  -6 11142.5 1857.85   3
   3  -3   7 1606.15 718.712   1
  -3   3  -7 762.324 769.415   3
   3  -3   8 20.0657 244.081   1
  -3   3  -8 1798.31 1008.90   3
  -3   3  -9 677.060 694.060   3
  -3   2  10 17688.9 3006.49   4
  -3   2  10 21297.0 3297.21   1
  -3   2   9 4171.54 1442.68   4
  -3   2   9 2902.38 1064.12   1
  -3   2   8 3487.26 1287.45   1
  -3   2   8 1491.60 1014.36   4
  -3   2   7 373.835 662.034   4
  -3   2   7 1671.88 868.336   1
  -3   2   6 2526.46 926.722   4
  -3   2   6 1454.77 708.190   1
  -3   2   5 13059.5 2049.80   4
  -3   2   5 14802.9 1848.28   5
  -3   2   4 6845.49 1358.22   4
  -3   2   4 5813.84 1061.14   5
  -3   2   3 68206.7 3396.58   3
  -3   2   3 67218.9 3217.43   5
  -3   2   3 76073.9 4421.87   4
  -3   2   2 112285. 4296.59   3
  -3   2   2 111207. 3716.58   5
   3  -2  -2 111736. 3644.78   5
  -3   2   2 109258. 4994.44   4
  -3   2   1 33419.9 2378.56   3
  -3   2   1 30238.2 1839.71   5
  -3   2   1 28269.9 2421.91   4
  -3   2   0 249.601 352.919   4
  -3   2   0-35.2699 300.363   3
  -3   2   0 328.500 247.045   5
  -3   2  -1 10489.2 1455.44   3
  -3   2  -1 8610.46 1037.91   1
  -3   2  -1 7546.45 972.104   5
  -3   2  -1 9182.59 1356.88   4
  -3   2  -2 115072. 4892.83   3
  -3   2  -2 122777. 4514.92   4
   3  -2   3 78147.2 3555.34   1
  -3   2  -3 76307.1 4201.56   3
  -3   2  -3 84773.0 3542.25   4
   3  -2   4 2693.28 747.891   1
  -3   2  -4 2287.10 885.092   3
   3  -2   5 9864.63 1465.58   1
  -3   2  -5 12052.0 1862.48   3
   3  -2   6 571.937 507.719   1
  -3   2  -6-478.050 430.383   3
   3  -2   7 6250.97 1432.30   1
  -3   2  -7 5539.23 1419.69   3
   3  -2   8 3949.72 1159.09   1
  -3   2  -8 5703.08 1535.03   3
   3  -2   9-667.140 625.968   1
  -3   2  -9 564.039 771.148   3
  -3   1  11 5036.10 1670.53   4
  -3   1  10 8943.47 2201.11   1
  -3   1   9 17151.2 2784.07   1
  -3   1   8-184.147 697.572   1
  -3   1   7 911.018 677.395   5
  -3   1   7-566.431 518.248   1
  -3   1   6 14714.2 1970.70   5
  -3   1   5 65022.9 3830.95   5
  -3   1   4 18569.3 1905.36   5
  -3   1   3 31193.6 2109.75   3
  -3   1   3 29926.9 2228.68   5
  -3   1   2 36935.7 2321.45   3
  -3   1   2 38533.7 2350.91   5
  -3   1   2 40294.4 2893.82   4
  -3   1   1 198.194 400.399   4
  -3   1   1 131.937 313.834   3
  -3   1   1 168.851 355.536   5
  -3   1   0 1215.40 530.965   4
  -3   1   0 2434.15 697.072   3
  -3   1   0 1029.57 427.614   5
  -3   1  -1 3646.07 824.475   4
  -3   1  -1 3948.65 925.160   3
  -3   1  -1 3296.88 706.462   5
  -3   1  -2 95654.1 4505.50   3
  -3   1  -2 102252. 3772.33   4
   3  -1   3 93615.1 4228.85   1
  -3   1  -3 92046.5 4718.10   3
  -3   1  -3 95618.9 3377.55   4
   3  -1   4 21731.0 2191.20   1
  -3   1  -4 20049.9 2357.31   3
   3  -1   5 701.202 461.611   1
  -3   1  -5 1250.49 799.798   3
   3  -1   6 16.0452 386.019   1
  -3   1  -6-720.342 631.170   3
   3  -1   7 13011.0 2232.28   1
   3  -1   8 7171.63 1830.64   1
   3  -1   9-437.629 757.047   1
   3  -1  10 1514.95 809.967   1
  -3   0  10 14471.4 2645.86   1
  -3   0   9 6445.30 1732.50   1
  -3   0   8 561.856 756.089   5
  -3   0   7 1339.15 684.236   5
  -3   0   6 77964.1 4614.43   5
  -3   0   5 98638.8 4775.54   5
  -3   0   4 41989.3 2280.17   3
  -3   0   4 37118.3 2734.43   5
  -3   0   3 2549.39 575.798   3
  -3   0   3 3144.41 772.611   5
  -3   0   2 11635.7 1239.52   3
  -3   0   2 11570.4 1400.02   5
   3   0  -2 11902.5 942.962   2
  -3   0   1 18195.0 1643.83   3
  -3   0   1 21647.3 1898.94   5
  -3   0   0 38760.1 2537.17   3
  -3   0   0 37141.8 2485.94   5
  -3   0   0 40332.3 2576.66   4
  -3   0  -1 7331.35 1031.86   4
  -3   0  -1 6889.45 1167.72   3
   3   0   2 86889.0 4170.76   1
  -3   0  -2 79377.7 4204.05   3
  -3   0  -2 83185.9 3104.41   4
   3   0   3 70778.0 4029.48   1
  -3   0  -3 68523.2 4113.42   3
  -3   0  -3 63217.0 2332.81   4
   3   0   4 477.111 476.467   1
   3   0   5 429.211 643.764   1
   3   0   6 3871.33 1380.22   1
   3   0   7 15399.0 2634.12   1
   3   0   8 4898.28 1625.98   1
   3   0   9 292.686 617.949   1
  -3  -1  11 1836.36 916.448   1
  -3  -1  10 4490.76 1539.30   1
  -3  -1   9 2213.73 838.710   5
  -3  -1   8-4.05349 498.412   5
  -3  -1   7 326.853 330.162   5
  -3  -1   6 49392.9 3674.66   5
   3   1  -5 86597.2 2977.17   3
  -3  -1   5 95762.0 4850.26   5
  -3  -1   4 32160.2 1765.66   3
   3   1  -4 34268.9 1899.23   3
  -3  -1   4 30524.9 2581.10   5
  -3  -1   3 51.4490 144.938   3
  -3  -1   3 40.4152 376.063   5
   3   1  -2 3603.66 622.187   2
  -3  -1   2 4177.26 714.745   3
  -3  -1   2 3561.56 904.568   5
  -3  -1   1 42013.2 2457.10   3
  -3  -1   1 31688.9 2454.07   5
  -3  -1   0 88512.5 3844.08   3
  -3  -1   0 93481.8 4246.81   5
  -3  -1  -1 6577.71 934.388   4
  -3  -1  -1 8545.39 1317.78   3
   3   1   2 9178.85 1511.42   1
  -3  -1  -2 9829.12 962.264   4
   3   1   3 22543.2 2457.93   1
   3   1   4-312.763 419.255   1
   3   1   5 8184.18 1723.55   1
   3   1   6 1300.14 760.442   1
   3   1   7 9645.90 2201.10   1
   3   1   8 6158.15 1864.37   1
   3   1   9 1007.42 486.166   1
  -3  -2  11-260.944 882.109   1
  -3  -2  10 2824.81 1159.99   5
  -3  -2   9 2314.65 972.469   5
  -3  -2   8 11423.8 2123.35   5
  -3  -2   7 1107.05 861.825   5
  -3  -2   6 30415.6 2962.20   5
  -3  -2   5 63284.4 4056.57   5
  -3  -2   4 18439.5 1141.95   3
  -3  -2   4 20420.9 2197.62   5
  -3  -2   3 2138.10 443.783   3
   3   2  -3 2447.06 481.876   2
  -3  -2   2 13852.7 1284.19   3
  -3  -2   2 14224.2 1748.95   5
   3   2  -2 13649.1 1376.24   2
  -3  -2   1 113749. 4036.10   3
  -3  -2   1 113944. 4945.17   5
  -3  -2   0 103287. 4264.95   3
  -3  -2   0 109569. 4932.61   5
   3   2   1 16513.1 2032.17   1
  -3  -2  -1 18257.8 1428.72   4
   3   2   2 7605.71 1466.47   1
  -3  -2  -2 6665.09 705.230   4
   3   2   3-201.181 476.187   1
   3   2   4 4616.69 1326.95   1
   3   2   5 5168.03 1473.88   1
   3   2   6 511.407 784.241   1
   3   2   7 6136.11 1932.86   1
   3   2   8 2895.85 1409.44   1
  -3  -3  11 282.688 937.362   5
  -3  -3  10 783.470 663.283   5
  -3  -3   9 3496.19 1236.47   5
  -3  -3   8 24364.9 3000.00   5
  -3  -3   7 4244.54 1261.02   5
  -3  -3   6 6265.85 1362.99   5
  -3  -3   5 54260.7 3881.45   5
  -3  -3   4 320.341 130.488   3
  -3  -3   4 240.707 310.457   5
  -3  -3   3 4731.52 638.770   3
  -3  -3   3 4103.29 1095.85   5
  -3  -3   2 3141.84 649.405   3
  -3  -3   2 2193.89 772.190   5
  -3  -3   1 75918.3 3399.58   3
  -3  -3   1 70620.2 4224.96   5
  -3  -3   0 78229.5 4458.11   5
   3   3   1 9811.95 1636.84   1
   3   3   2 1276.58 799.818   1
   3   3   3 3196.61 1103.63   1
   3   3   4 15931.5 2498.51   1
   3   3   5 14119.1 2562.52   1
   3   3   6 1681.89 1297.81   1
   3   3   7 1549.79 892.658   1
  -3  -4  11-217.206 509.540   5
  -3  -4  10 363.427 667.924   5
  -3  -4   9 8090.98 1894.55   5
  -3  -4   8 33290.0 3531.34   5
  -3  -4   7 5175.91 1441.99   5
  -3  -4   6 819.826 610.329   5
  -3  -4   5 176.410 480.312   5
  -3  -4   4 1011.03 200.769   3
  -3  -4   4 1560.70 765.841   5
  -3  -4   3 16243.1 1193.27   3
  -3  -4   3 13697.6 1959.35   5
  -3  -4   2 172.398 277.026   3
  -3  -4   2 209.350 344.249   5
  -3  -4   1 17026.4 2157.92   5
  -3  -4   0 40985.4 3528.11   5
   3   4   1 10977.9 1836.51   1
   3   4   2-38.5380 364.664   1
   3   4   3 5009.84 1389.11   1
   3   4   4 14584.4 2555.25   1
   3   4   5 7120.67 1824.78   1
   3   4   6 128.681 444.049   1
  -3  -5  11 671.507 741.145   5
  -3  -5  10-497.510 696.771   5
  -3  -5   9 6093.85 1645.32   5
  -3  -5   8 29473.6 3412.82   5
  -3  -5   7 27219.8 3113.66   5
  -3  -5   6 1399.06 582.670   2
  -3  -5   6 1781.91 959.765   5
  -3  -5   5 1124.65 660.753   5
  -3  -5   4 16364.8 2233.74   5
  -3  -5   3 36641.2 1887.47   3
  -3  -5   3 37528.2 3385.78   5
  -3  -5   2 1459.85 736.611   5
  -3  -5   1 13221.7 2074.78   5
  -3  -5   0 9248.51 1723.88   5
   3   5   1 760.927 629.601   1
   3   5   2 2712.78 1104.82   1
   3   5   3 987.372 721.535   1
   3   5   4 10088.4 2228.56   1
   3   5   5 4921.06 1662.44   1
  -3  -6  11 1602.57 880.495   5
  -3  -6  10-168.589 711.972   5
  -3  -6   9 7656.02 1811.19   5
  -3  -6   8 4930.27 1523.09   5
  -3  -6   7 2587.95 835.705   2
  -3  -6   7 4951.13 1446.67   5
  -3  -6   6 509.968 454.200   2
  -3  -6   6-98.1093 407.792   5
  -3  -6   5 2897.75 1032.42   5
  -3  -6   4 19040.7 2561.64   5
  -3  -6   3 23643.9 2886.02   5
  -3  -6   2 10410.8 1966.83   5
  -3  -6   1-53.4948 466.877   5
  -3  -6   0 684.803 543.543   5
   3   6   1 5593.25 1529.78   1
   3   6   2 1765.93 918.957   1
   3   6   3 1307.97 996.369   1
   3   6   4 3403.49 1401.99   1
  -3  -7  10 1544.22 995.632   5
  -3  -7   9 807.849 916.383   5
  -3  -7   8 4123.78 1306.30   5
  -3  -7   7 407.642 435.414   2
  -3  -7   7 721.551 672.202   5
  -3  -7   6-45.8968 408.498   2
  -3  -7   6-111.741 630.939   5
  -3  -7   5 55.3654 533.985   5
  -3  -7   4 24339.9 3034.44   5
  -3  -7   3 20246.1 2807.28   5
  -3  -7   2 7670.56 1764.07   5
  -3  -7   1 767.766 607.453   5
  -3  -7   0 572.694 659.563   5
  -3  -7  -1 3616.30 1300.09   5
   3   7   1 3716.81 1291.04   1
   3   7   2 5997.71 1654.65   1
   3   7   3 147.960 472.194   1
  -3  -8  10 1602.12 1104.36   5
  -3  -8   9-430.492 864.364   5
  -3  -8   8 1103.92 957.705   5
  -3  -8   7 1063.02 683.978   2
  -3  -8   7 496.654 897.496   5
  -3  -8   6 503.245 507.124   2
  -3  -8   6 1129.32 829.974   5
  -3  -8   5-642.215 461.321   5
  -3  -8   4 5185.67 1615.17   5
  -3  -8   3 6844.34 1840.00   5
  -3  -8   2 1978.20 1043.44   5
  -3  -8   1 3560.44 1343.35   5
  -3  -8   0 318.225 496.028   5
  -3  -8  -1 4129.75 1416.88   5
   3   8   1 4840.60 1619.48   1
  -3  -9   9-394.152 784.636   5
  -3  -9   8 74.8728 575.901   5
  -3  -9   7 3343.24 1274.88   2
  -3  -9   7 1072.53 902.776   5
  -3  -9   6 6802.93 1686.56   2
  -3  -9   6 2280.76 1086.40   5
  -3  -9   5 898.132 778.874   5
  -3  -9   4 555.064 762.356   5
  -3  -9   3 3244.62 1413.74   5
  -3  -9   2 1245.65 1072.57   5
  -3  -9   1 943.658 1029.85   5
  -3 -10   7 1196.54 850.000   2
  -3 -10   7 137.550 667.900   5
  -3 -10   6 904.141 597.525   5
  -3 -10   5-263.944 617.211   5
  -3 -10   4-221.146 625.304   5
  -3 -10   3 1697.93 1148.37   5
  -3 -11   7-660.284 753.729   2
  -4   9  -1-328.917 507.556   3
  -4   9  -2-1175.94 991.918   3
  -4   9  -3 3457.26 1237.55   3
  -4   9  -4 11765.6 2175.86   3
  -4   8   2 1042.41 702.638   4
  -4   8   1 5149.97 1598.21   4
  -4   8   0 3003.36 1250.82   3
  -4   8   0 3113.44 1288.19   4
  -4   8  -1 1129.85 775.983   3
  -4   8  -1 652.916 440.138   4
  -4   8  -2 634.928 776.636   3
  -4   8  -3 9320.02 1895.04   3
  -4   8  -4 17253.9 2511.77   3
  -4   8  -5 1537.76 894.170   3
  -4   7   3 14536.2 2553.72   4
  -4   7   2 640.457 463.693   4
  -4   7   1 2646.24 1105.66   4
  -4   7   1 1395.06 845.354   3
  -4   7   0-466.538 784.586   4
  -4   7   0 421.089 558.612   3
  -4   7  -1 8251.62 1732.36   3
  -4   7  -1 9620.45 1988.87   4
  -4   7  -2 3460.21 1112.23   3
  -4   7  -2 5118.49 1465.89   4
  -4   7  -3 1103.64 804.178   3
  -4   7  -4 15571.1 2392.64   3
  -4   7  -5 2840.23 1039.01   3
  -4   7  -6 1670.06 786.256   3
  -4   6   5 8245.07 2039.74   4
  -4   6   4 25147.1 3276.83   4
  -4   6   3 18688.0 2688.27   4
  -4   6   2 2859.28 1035.56   4
  -4   6   2 2291.64 1007.31   3
  -4   6   1 734.381 631.438   4
  -4   6   1 239.719 554.211   3
  -4   6   0 6669.08 1619.15   4
  -4   6   0 8618.64 1694.18   3
  -4   6  -1 21571.7 2641.56   3
  -4   6  -1 18669.4 2599.16   4
  -4   6  -2 12246.3 2024.54   3
  -4   6  -2 11124.4 2028.18   4
  -4   6  -3 836.474 567.220   3
  -4   6  -4 6644.03 1551.83   3
  -4   6  -5 591.201 604.611   3
  -4   6  -6 1108.68 757.164   3
  -4   6  -7 1583.27 713.111   3
  -4   5   6 2954.85 1217.28   4
  -4   5   5 3017.85 1337.03   4
  -4   5   4 29684.2 3440.69   4
  -4   5   3 20887.2 2790.76   4
  -4   5   2 984.732 613.959   4
  -4   5   2 2698.30 979.061   3
  -4   5   1 1907.22 806.820   4
  -4   5   1 2284.62 875.004   3
  -4   5   0 12671.5 2116.38   4
  -4   5   0 11668.8 1910.57   3
  -4   5  -1 55737.1 4071.18   3
  -4   5  -1 64438.7 4566.64   4
  -4   5  -2 17103.5 2264.82   3
  -4   5  -2 17606.7 2398.96   4
  -4   5  -3 93.8168 356.328   3
  -4   5  -3 1717.11 787.497   4
  -4   5  -4 5493.93 1348.52   3
  -4   5  -5 663.489 563.771   3
  -4   5  -6 6559.40 1654.91   3
  -4   5  -7 233.271 516.720   3
  -4   4   8 1911.33 1063.44   1
  -4   4   7 10473.4 2283.26   4
  -4   4   7 8583.97 1867.32   1
  -4   4   6 10519.4 2193.60   4
  -4   4   6 10820.4 2001.48   1
  -4   4   5 926.323 774.265   4
  -4   4   5 342.126 463.001   1
  -4   4   4 8596.30 1897.69   4
  -4   4   4 12150.5 1824.05   1
  -4   4   3 740.777 609.844   4
  -4   4   3 2885.70 995.888   3
  -4   4   3 2861.89 862.606   1
  -4   4   2 761.877 725.544   4
  -4   4   2 1410.55 661.130   3
  -4   4   1 1146.11 723.650   4
  -4   4   1 864.263 749.830   3
  -4   4   0 11116.5 1843.79   4
  -4   4   0 11185.1 1760.90   3
  -4   4  -1 51872.0 3799.42   3
  -4   4  -1 58914.9 4173.56   4
  -4   4  -2 25565.2 2696.04   3
  -4   4  -2 26863.3 2750.00   4
  -4   4  -3 905.198 730.096   3
  -4   4  -3 346.166 360.719   4
  -4   4  -4 963.221 668.489   3
  -4   4  -5 2281.62 900.878   3
  -4   4  -6 12590.7 2180.42   3
  -4   4  -7 2109.33 1013.58   3
  -4   3   9-97.0978 507.566   1
  -4   3   8 2574.87 1138.19   4
  -4   3   8 3062.56 1252.99   1
  -4   3   7 20795.4 3107.49   4
  -4   3   7 23586.8 3141.30   1
  -4   3   6 29670.2 3247.04   1
  -4   3   6 26470.6 3353.57   4
  -4   3   5 1454.76 996.286   4
  -4   3   5 625.949 516.019   1
  -4   3   4 2544.41 1037.57   4
  -4   3   3 1270.05 802.886   4
  -4   3   3 234.801 295.517   3
  -4   3   2 18253.6 2111.95   3
  -4   3   2 16202.6 2218.16   4
  -4   3   1 6396.22 1409.49   4
  -4   3   1 10256.3 1624.05   3
  -4   3   0 11391.4 1733.82   3
  -4   3   0 13854.5 1940.08   4
  -4   3  -1 40827.5 3300.74   3
  -4   3  -1 42825.6 3332.80   4
  -4   3  -2 18126.8 2270.86   3
  -4   3  -2 19711.0 2230.56   4
  -4   3  -3 338.924 412.198   3
  -4   3  -3 1815.36 678.983   4
  -4   3  -4 580.205 697.945   3
  -4   3  -5 7525.70 1693.95   3
  -4   3  -6 14894.8 2470.52   3
  -4   3  -7 2102.21 1009.80   3
  -4   2   9-468.964 653.989   1
  -4   2   8 1067.97 796.433   4
  -4   2   8 1779.70 1005.93   1
  -4   2   7 19584.9 3067.47   4
  -4   2   7 25018.4 3182.03   1
  -4   2   6 23474.6 2631.64   5
  -4   2   6 24050.7 3154.95   4
  -4   2   5 2373.38 1212.86   4
  -4   2   5 2376.66 793.430   5
  -4   2   4 504.820 579.384   4
  -4   2   4 624.140 484.890   3
  -4   2   4 543.047 476.226   5
  -4   2   3 6952.17 1568.62   4
  -4   2   3 6134.27 1121.48   3
  -4   2   3 5791.04 1046.71   5
  -4   2   2 38220.2 2928.29   3
  -4   2   2 35559.5 2432.41   5
  -4   2   2 40094.1 3484.86   4
  -4   2   1 31075.1 2694.91   3
  -4   2   1 25214.9 2041.90   5
  -4   2   1 26502.4 2681.82   4
  -4   2   0 48.5836 469.689   4
  -4   2   0 1504.30 665.914   3
  -4   2   0 1160.42 468.318   5
  -4   2  -1 14534.5 1648.24   5
  -4   2  -1 13049.4 1871.32   3
  -4   2  -1 15456.2 1931.98   4
  -4   2  -2 5296.70 1152.65   4
  -4   2  -2 4585.80 1216.06   3
  -4   2  -2 2215.12 669.449   5
  -4   2  -3 3188.02 1035.74   3
  -4   2  -3 3156.23 829.519   4
  -4   2  -4 2081.50 928.952   3
  -4   2  -5 10433.8 1977.78   3
  -4   2  -6 13513.0 2388.97   3
  -4   2  -7 1598.31 894.592   3
  -4   1   9 617.159 726.058   1
  -4   1   9 2295.22 1050.99   4
  -4   1   8 2527.28 1161.16   1
  -4   1   8 2403.66 1264.76   4
  -4   1   7 15790.1 2596.30   4
  -4   1   7 15997.8 2364.94   5
  -4   1   6 13306.1 2332.27   4
  -4   1   6 16676.6 2247.17   5
  -4   1   5 1100.14 849.096   4
  -4   1   5 1206.51 672.899   5
  -4   1   4 814.131 830.257   4
  -4   1   4 995.776 534.395   3
  -4   1   4 267.527 314.461   5
  -4   1   3 14863.5 1676.63   3
  -4   1   3 12927.4 1652.33   5
  -4   1   3 14788.1 2217.74   4
  -4   1   2 60438.2 3504.49   3
  -4   1   2 60322.2 3451.28   5
  -4   1   2 66269.9 4334.20   4
  -4   1   1 43942.5 3102.53   3
  -4   1   1 40301.9 2802.61   5
  -4   1   1 46189.9 3438.69   4
  -4   1   0 192.843 409.876   4
  -4   1   0-13.4247 342.497   3
  -4   1   0 32.3680 209.585   5
  -4   1  -1 8180.03 1386.33   4
  -4   1  -1 7997.24 1511.46   3
  -4   1  -1 6635.28 1172.93   5
  -4   1  -2 439.144 354.445   4
  -4   1  -2-295.945 416.092   3
  -4   1  -2 516.694 428.807   5
  -4   1  -3 9944.36 1772.59   3
  -4   1  -4 1878.08 817.551   3
   4  -1   5 5094.67 1239.56   1
  -4   1  -5 4846.43 1356.26   3
   4  -1   6 9914.09 1849.59   1
  -4   1  -6 9150.15 1930.15   3
  -4   1  -7 587.458 651.782   3
  -4   0   9 8460.71 2010.61   5
  -4   0   8 82.6021 592.216   5
  -4   0   7 9547.84 1880.80   5
  -4   0   6 12690.8 1999.86   5
  -4   0   5 1202.09 665.490   5
  -4   0   4 3562.08 782.737   3
  -4   0   4 2275.66 801.491   5
  -4   0   3 13089.5 1505.63   3
  -4   0   3 10777.5 1606.63   5
  -4   0   2 47945.4 3001.92   3
  -4   0   2 49186.4 3367.60   5
  -4   0   2 44779.4 3473.46   4
  -4   0   1 33160.3 2641.91   3
  -4   0   1 30165.7 2682.24   5
  -4   0   1 35740.3 2963.22   4
  -4   0   0 823.089 311.810   4
  -4   0   0 1098.91 477.130   3
  -4   0   0 757.299 526.921   5
  -4   0  -1 1452.43 568.458   4
  -4   0  -1 1341.37 683.727   3
  -4   0  -1 1309.42 582.486   5
  -4   0  -2 5207.71 1242.37   3
  -4   0  -2 2600.66 868.670   5
  -4   0  -3 13296.9 2070.08   3
  -4   0  -4 8424.67 1729.96   3
   4   0   4 11480.3 1968.39   1
   4   0   5 155.292 554.201   1
  -4   0  -5 181.297 481.182   3
   4   0   6 8263.06 1863.87   1
  -4   0  -6 2436.92 1047.87   3
   4   0   7 273.095 405.866   1
  -4  -1  10 4445.03 1795.94   5
  -4  -1   9 11304.6 2273.42   5
  -4  -1   8 796.942 797.893   5
  -4  -1   7 1065.58 702.088   5
  -4  -1   6 711.808 637.116   5
  -4  -1   5 10218.5 1788.10   5
  -4  -1   4 13420.9 1383.61   3
  -4  -1   4 8099.06 1487.20   5
  -4  -1   3 3281.82 749.830   3
  -4  -1   3 4702.30 1174.34   5
  -4  -1   2 50805.5 3003.22   3
  -4  -1   2 56142.2 3842.97   5
  -4  -1   1 17973.8 1909.69   3
  -4  -1   1 18441.6 2240.57   5
  -4  -1   1 17389.8 2037.26   4
  -4  -1   0 222.235 269.431   4
  -4  -1   0-262.243 323.328   5
  -4  -1  -1 599.910 390.623   4
  -4  -1  -1 304.854 482.182   3
  -4  -1  -2 18948.2 2358.61   3
  -4  -1  -2 16784.6 2185.26   5
  -4  -1  -3 23430.6 2717.08   3
   4   1   4 4496.89 1394.82   1
  -4  -1  -4 2648.31 1069.56   3
   4   1   5 1078.20 946.377   1
  -4  -1  -5 1170.29 756.489   3
   4   1   6 1316.25 903.699   1
  -4  -1  -6-210.363 429.824   3
   4   1   7 381.277 608.252   1
  -4  -2  10 3841.06 1428.58   5
  -4  -2   9 12475.4 2473.38   5
  -4  -2   8 2631.30 1187.79   5
  -4  -2   7 1280.34 769.727   5
  -4  -2   6 3369.98 1120.43   5
  -4  -2   5 16188.8 2257.31   5
  -4  -2   4 11035.4 1868.45   5
  -4  -2   3 431.281 341.504   3
  -4  -2   3 55.9099 330.597   5
  -4  -2   2 9754.55 1308.69   3
  -4  -2   2 10286.7 1757.89   5
  -4  -2   1 5131.17 1025.45   3
  -4  -2   1 4047.99 1109.66   5
  -4  -2   0 379.413 363.703   4
  -4  -2   0 639.333 433.920   3
  -4  -2   0 561.238 487.088   5
  -4  -2  -1 1242.81 684.901   3
  -4  -2  -1 465.055 547.352   5
  -4  -2  -2 1076.08 790.682   3
   4   2   3 20176.3 2823.76   1
  -4  -2  -3 20312.7 2595.93   3
   4   2   4 6508.97 1703.75   1
  -4  -2  -4 4794.81 1387.52   3
   4   2   5 441.221 478.560   1
   4   2   6 1390.02 708.930   1
  -4  -3  10 4722.17 1668.54   5
  -4  -3   9 4435.47 1482.82   5
  -4  -3   8 108.909 524.435   5
  -4  -3   7 980.512 656.970   5
  -4  -3   6 2842.23 1159.32   5
  -4  -3   5 28561.7 3147.23   5
  -4  -3   4 24512.7 2828.75   5
  -4  -3   3 75.9013 415.722   5
  -4  -3   2 1604.30 558.296   3
  -4  -3   2 442.651 737.256   5
  -4  -3   1 126.808 319.545   3
  -4  -3   1 656.026 447.588   5
  -4  -3   0 9149.97 1466.95   3
  -4  -3   0 11187.6 1916.69   5
  -4  -3  -1 1431.66 697.016   3
  -4  -3  -1 2157.49 884.771   5
  -4  -3  -2 4492.36 1220.83   3
  -4  -3  -2 1608.63 674.339   5
   4   3   3 5551.51 1573.50   1
   4   3   4 3059.36 1261.01   1
   4   3   5-352.431 691.516   1
  -4  -4  10 4573.39 1659.34   5
  -4  -4   9 1479.91 1175.41   5
  -4  -4   8-427.333 533.230   5
  -4  -4   7 2092.96 1090.29   5
  -4  -4   6 3941.41 1353.52   5
  -4  -4   5 24495.8 2997.06   5
  -4  -4   4 18547.3 2595.51   5
  -4  -4   3 3223.81 1203.62   5
  -4  -4   2 1111.99 677.120   5
  -4  -4   1 2085.23 667.019   3
  -4  -4   1 2332.48 1011.68   5
  -4  -4   0 6760.05 1283.30   3
  -4  -4   0 8351.08 1806.74   5
  -4  -4  -1 4417.80 1369.54   5
  -4  -4  -2 1295.00 905.025   5
   4   4   3 2615.96 1313.31   1
   4   4   4 496.707 901.640   1
  -4  -5   9 56.9408 409.328   5
  -4  -5   8 671.930 862.293   5
  -4  -5   7 695.096 809.218   5
  -4  -5   6 773.947 757.861   5
  -4  -5   5 6623.04 1590.32   5
  -4  -5   4 4601.68 1410.53   5
  -4  -5   3 86.7939 652.664   5
  -4  -5   2-46.6899 578.433   5
  -4  -5   1 2603.29 1060.24   5
  -4  -5   0 8086.97 1836.29   5
  -4  -5  -1 5310.01 1593.81   5
  -4  -5  -2-146.465 558.448   5
   4   5   3 1513.05 1028.04   1
  -4  -6   9-916.390 517.462   5
  -4  -6   8 7598.29 2021.92   5
  -4  -6   7 7060.06 1843.22   5
  -4  -6   6 845.759 607.541   5
  -4  -6   5 4178.81 1421.33   5
  -4  -6   4 3417.40 1281.60   5
  -4  -6   3 1577.99 928.129   5
  -4  -6   2-89.3387 394.801   5
  -4  -6   1 2040.00 1021.38   5
  -4  -6   0 5610.05 1578.32   5
  -4  -6  -1 2122.91 1006.48   5
  -4  -7   8 2816.98 1317.08   5
  -4  -7   7 3595.73 1428.71   5
  -4  -7   6-662.394 750.266   5
  -4  -7   5 53.4223 420.773   5
  -4  -7   4 931.071 1011.78   5
  -4  -7   3 1925.28 1197.64   5
  -4  -7   2 1525.73 678.954   5
  -4  -7   1 979.790 816.491   5
  -4  -8   6 829.236 581.262   5
  -4  -8   5 208.118 554.882   5
  -4  -8   4 634.993 866.956   5
  -5   7  -2 2040.23 1148.13   4
  -5   6   2 1140.06 852.669   3
  -5   6   1 4654.18 1611.51   4
  -5   6   1 2890.36 1171.22   3
  -5   6   0 10100.9 2137.95   4
  -5   6   0 8734.92 1840.95   3
  -5   6  -1 1348.42 666.767   4
  -5   6  -1 555.017 654.426   3
  -5   6  -2-296.441 415.867   3
  -5   6  -2 21.6056 644.919   4
  -5   6  -3 336.140 709.116   3
  -5   5   3 9615.80 1911.81   3
  -5   5   2 1292.01 610.325   4
  -5   5   2-37.9146 511.822   3
  -5   5   1 436.096 982.428   4
  -5   5   1 2705.35 1121.75   3
  -5   5   0 4711.48 1462.57   4
  -5   5   0 4470.57 1308.06   3
  -5   5  -1-244.830 597.307   4
  -5   5  -1-392.683 789.775   3
  -5   5  -2 2240.59 1049.18   3
  -5   5  -2 1500.72 841.528   4
  -5   5  -3-354.544 551.571   3
  -5   5  -3 942.140 811.496   4
  -5   5  -4 4873.77 1476.63   3
  -5   4   4 10041.9 2187.24   4
  -5   4   3 19248.8 2917.63   4
  -5   4   3 22267.5 2780.77   3
  -5   4   2 6226.02 1622.31   4
  -5   4   2 5744.65 1417.15   3
  -5   4   1 5817.47 1483.37   4
  -5   4   1 4413.04 1207.90   3
  -5   4   0 1341.81 577.631   4
  -5   4   0 1277.04 905.809   3
  -5   4  -1 1885.82 843.877   4
  -5   4  -1 1296.66 860.507   3
  -5   4  -2 7141.22 1630.97   3
  -5   4  -2 6998.45 1610.77   4
  -5   4  -3 504.432 711.735   3
  -5   4  -4 3722.04 1374.75   3
  -5   3   4 8515.96 2005.68   4
  -5   3   3 10954.5 2212.09   4
  -5   3   3 10204.3 1814.81   3
  -5   3   2 3875.02 1378.12   4
  -5   3   2 2962.43 1019.82   3
  -5   3   1-4.01112 438.587   4
  -5   3   1-166.186 370.075   3
  -5   3   0-781.238 590.257   4
  -5   3   0 24.5831 532.942   3
  -5   3  -1 7322.14 1649.72   4
  -5   3  -1 5549.55 1360.83   3
  -5   3  -2 8924.46 1814.19   3
  -5   3  -3 557.960 834.713   3
  -5   3  -4 2596.80 1058.19   3
  -5   2   5 1214.43 666.821   4
  -5   2   4 4900.69 1532.34   4
  -5   2   3 17806.0 2227.57   3
  -5   2   3 21807.3 2934.03   4
  -5   2   2 2047.76 956.276   4
  -5   2   2 222.778 553.320   3
  -5   2   1 1807.69 913.081   4
  -5   2   1 929.369 637.324   3
  -5   2   0 476.995 432.432   4
  -5   2   0 216.435 336.524   3
  -5   2  -1 12759.4 1979.02   4
  -5   2  -1 12589.2 2079.58   3
  -5   2  -2 13359.0 2229.99   3
  -5   2  -3 1345.62 818.865   3
  -5   2  -4 2618.85 1134.56   3
  -5   1   6 8534.13 2146.41   4
  -5   1   5 3089.98 1252.91   4
  -5   1   4 1786.65 903.863   4
  -5   1   3 3990.01 1271.63   4
  -5   1   2 89.2567 378.158   4
  -5   1   2-284.448 410.502   3
  -5   1   1 2818.28 985.188   4
  -5   1   1 3360.66 1109.43   3
  -5   1   0-919.900 581.666   4
  -5   1   0 295.017 631.114   3
  -5   1  -1 8921.29 1743.40   3
  -5   1  -2 8251.12 1750.12   3
  -5   1  -3 307.776 522.641   3
  -5   1  -4 3462.40 1228.01   3
  -5   0   6 11319.7 2391.33   4
  -5   0   5 7289.53 2009.78   4
  -5   0   4 259.875 548.000   4
  -5   0   3 1047.65 727.536   4
  -5   0   2 1718.66 813.583   4
  -5   0   1 6917.64 1441.85   4
  -5   0   1 8730.95 1589.18   3
  -5   0   0 114.037 382.794   3
  -5   0  -1 7642.85 1595.80   3
  -5   0  -2 5998.20 1483.55   3
  -5   0  -3-421.489 522.544   3
  -5   0  -4 405.199 556.153   3
  -5  -1   7 4062.20 1375.05   5
  -5  -1   6 12497.8 2181.31   5
  -5  -1   5 4688.42 1305.14   5
  -5  -1   4-863.573 693.146   4
  -5  -1   4-628.040 560.811   5
  -5  -1   3-189.250 654.602   4
  -5  -1   3 1327.31 727.887   5
  -5  -1   2 3397.85 1122.60   4
  -5  -1   2 2731.25 1027.49   5
  -5  -1   1 9791.74 1813.62   5
  -5  -1   0 1726.96 855.786   3
  -5  -1   0 1323.20 700.303   5
  -5  -1  -1 2441.14 988.930   3
  -5  -1  -1 399.415 416.572   5
  -5  -1  -2 2176.33 811.620   3
  -5  -1  -2 1411.59 823.803   5
  -5  -1  -3 212.055 437.157   3
  -5  -1  -3 222.510 444.572   5
  -5  -1  -4 532.299 592.318   3
  -5  -1  -4 968.451 735.777   5
  -5  -2   9 1102.75 1007.08   5
  -5  -2   8 1937.43 1066.97   5
  -5  -2   7 1089.11 814.511   5
  -5  -2   6 5793.28 1619.47   5
  -5  -2   5 933.491 661.778   5
  -5  -2   4 186.638 398.933   5
  -5  -2   3-1074.37 720.957   5
  -5  -2   2 6794.80 1471.62   4
  -5  -2   2 7560.18 1737.21   5
  -5  -2   1 10584.2 1953.71   5
  -5  -2   0 2129.77 888.136   5
  -5  -2  -1 1686.90 769.886   3
  -5  -2  -1 1319.68 636.413   5
  -5  -2  -2 904.034 706.010   3
  -5  -2  -2-1448.04 807.406   5
  -5  -2  -3 2132.26 1084.28   3
  -5  -2  -3 1246.39 926.148   5
  -5  -3   8-40.0887 545.974   5
  -5  -3   7 195.779 455.755   5
  -5  -3   6 2106.30 1175.35   5
  -5  -3   5 139.360 401.648   5
  -5  -3   4-341.422 637.740   5
  -5  -3   3-110.637 542.994   5
  -5  -3   2 4435.13 1393.76   5
  -5  -3   1 4004.68 1296.79   5
  -5  -3   0 3744.42 1338.07   5
  -5  -3  -1 563.259 464.932   5
  -5  -3  -2 41.4758 504.170   5
  -5  -3  -3 671.428 693.256   3
  -5  -4   7-1210.70 908.003   5
  -5  -4   6-371.615 635.680   5
  -5  -4   5 1733.33 1074.15   5
  -5  -4   4 3002.90 1252.65   5
  -5  -4   3 89.0372 567.625   5
  -5  -4   2 1890.80 964.934   5
  -5  -4   1 3485.54 1257.49   5
  -5  -4   0 653.144 707.567   5
  -5  -5   6 1977.09 1100.73   5
  -5  -5   5 2.77050 450.522   5
  -5  -5   4 3154.57 1374.82   5
  -5  -5   3 1050.13 740.049   5
  -5  -5   2 58.8883 433.414   5
   0   0   0    0.00    0.00   0
TITL AgBr_2pica_new in P-1
REM P-1 (#2 in standard setting)
CELL 0.71073   4.387126  10.108066  10.250989 113.4977  97.0810  93.5352
ZERR    2.00   0.000497   0.001201   0.001766   0.0137   0.0115   0.0095
LATT  1
SFAC C H N Br Ag
UNIT 12.00 16.00 4.00 2.00 2.00
TREF
HKLF 4
END
;
_shelx_hkl_checksum              10086
_olex2_submission_special_instructions 'No special instructions were received'
_oxdiff_exptl_absorpt_empirical_details
;
Empirical correction (ABSPACK) includes:
- Absorption correction using spherical harmonics
- Frame scaling
;
_oxdiff_exptl_absorpt_empirical_full_max 1.318
_oxdiff_exptl_absorpt_empirical_full_min 0.790
loop_
_space_group_symop_operation_xyz
'x, y, z'
'-x, -y, -z'
loop_
_atom_site_label
_atom_site_type_symbol
_atom_site_fract_x
_atom_site_fract_y
_atom_site_fract_z
_atom_site_U_iso_or_equiv
_atom_site_adp_type
_atom_site_occupancy
_atom_site_site_symmetry_order
_atom_site_calc_flag
_atom_site_refinement_flags_posn
_atom_site_refinement_flags_adp
_atom_site_refinement_flags_occupancy
_atom_site_disorder_assembly
_atom_site_disorder_group
Ag1 Ag 0.74485(11) 0.09834(5) 0.46284(6) 0.0639(2) Uani 1 1 d . . . . .
Br1 Br 1.16073(13) -0.01924(7) 0.30199(7) 0.0518(2) Uani 1 1 d . . . . .
N2 N 0.6537(10) 0.3352(5) 0.5755(6) 0.0501(13) Uani 1 1 d . . . . .
H2A H 0.826064 0.392657 0.586939 0.060 Uiso 1 1 calc R U . . .
H2B H 0.508896 0.353104 0.517904 0.060 Uiso 1 1 calc R U . . .
N1 N 0.2579(11) 0.5608(5) 0.6990(6) 0.0492(13) Uani 1 1 d . . . . .
C2 C 0.4718(13) 0.5268(6) 0.7843(7) 0.0446(14) Uani 1 1 d . . . . .
C6 C 0.1802(13) 0.6949(7) 0.7573(8) 0.0547(17) Uani 1 1 d . . . . .
H6 H 0.028760 0.720105 0.702490 0.066 Uiso 1 1 calc R U . . .
C5 C 0.3039(15) 0.7988(7) 0.8907(8) 0.0612(19) Uani 1 1 d . . . . .
H5 H 0.244845 0.891886 0.923354 0.073 Uiso 1 1 calc R U . . .
C1 C 0.5554(14) 0.3744(6) 0.7152(7) 0.0574(17) Uani 1 1 d . . . . .
H1A H 0.720466 0.362221 0.780193 0.069 Uiso 1 1 calc R U . . .
H1B H 0.377341 0.306756 0.704108 0.069 Uiso 1 1 calc R U . . .
C3 C 0.6023(14) 0.6226(7) 0.9192(7) 0.0544(16) Uani 1 1 d . . . . .
H3 H 0.748508 0.595307 0.974421 0.065 Uiso 1 1 calc R U . . .
C4 C 0.5152(15) 0.7613(7) 0.9737(8) 0.0632(19) Uani 1 1 d . . . . .
H4 H 0.600883 0.827918 1.066113 0.076 Uiso 1 1 calc R U . . .
loop_
_atom_site_aniso_label
_atom_site_aniso_U_11
_atom_site_aniso_U_22
_atom_site_aniso_U_33
_atom_site_aniso_U_23
_atom_site_aniso_U_13
_atom_site_aniso_U_12
Ag1 0.0694(4) 0.0484(3) 0.0632(4) 0.0086(3) 0.0182(3) 0.0154(3)
Br1 0.0431(3) 0.0628(4) 0.0449(4) 0.0160(3) 0.0068(3) 0.0171(3)
N2 0.051(3) 0.041(3) 0.048(4) 0.009(3) 0.006(3) 0.003(2)
N1 0.057(3) 0.038(3) 0.044(3) 0.010(2) 0.004(3) 0.008(2)
C2 0.054(3) 0.044(3) 0.040(4) 0.016(3) 0.022(3) 0.007(3)
C6 0.049(3) 0.049(4) 0.072(5) 0.029(4) 0.014(3) 0.012(3)
C5 0.074(5) 0.038(4) 0.062(5) 0.006(4) 0.026(4) 0.009(4)
C1 0.071(4) 0.051(4) 0.055(5) 0.022(3) 0.022(4) 0.016(3)
C3 0.055(4) 0.056(4) 0.047(4) 0.018(4) 0.004(3) 0.001(3)
C4 0.068(4) 0.053(4) 0.048(5) 0.001(4) 0.014(4) -0.009(4)
loop_
_atom_type_symbol
_atom_type_description
_atom_type_scat_dispersion_real
_atom_type_scat_dispersion_imag
_atom_type_scat_source
C C 0.0033 0.0016 'International Tables Vol C Tables 4.2.6.8 and 6.1.1.4'
H H 0.0000 0.0000 'International Tables Vol C Tables 4.2.6.8 and 6.1.1.4'
N N 0.0061 0.0033 'International Tables Vol C Tables 4.2.6.8 and 6.1.1.4'
Br Br -0.2901 2.4595 'International Tables Vol C Tables 4.2.6.8 and 6.1.1.4'
Ag Ag -0.8971 1.1015 'International Tables Vol C Tables 4.2.6.8 and 6.1.1.4'
loop_
_geom_angle_atom_site_label_1
_geom_angle_atom_site_label_2
_geom_angle_atom_site_label_3
_geom_angle
_geom_angle_site_symmetry_1
_geom_angle_site_symmetry_3
_geom_angle_publ_flag
Ag1 Ag1 Ag1 84.92(3) 2_656 2_756 ?
Br1 Ag1 Ag1 55.78(2) 1_455 2_656 ?
Br1 Ag1 Ag1 50.13(2) 2_756 2_756 ?
Br1 Ag1 Ag1 120.77(3) . 2_656 ?
Br1 Ag1 Ag1 54.54(2) 2_756 2_656 ?
Br1 Ag1 Ag1 123.29(3) 1_455 2_756 ?
Br1 Ag1 Ag1 55.45(2) . 2_756 ?
Br1 Ag1 Br1 110.31(3) 1_455 2_756 ?
Br1 Ag1 Br1 108.45(3) . 1_455 ?
Br1 Ag1 Br1 105.57(2) . 2_756 ?
N2 Ag1 Ag1 107.64(12) . 2_656 ?
N2 Ag1 Ag1 133.95(13) . 2_756 ?
N2 Ag1 Br1 98.78(12) . 1_455 ?
N2 Ag1 Br1 131.58(12) . . ?
N2 Ag1 Br1 101.15(13) . 2_756 ?
Ag1 Br1 Ag1 108.45(3) . 1_655 ?
Ag1 Br1 Ag1 74.43(2) . 2_756 ?
Ag1 Br1 Ag1 69.69(3) 1_655 2_756 ?
Ag1 N2 H2A 108.4 . . ?
Ag1 N2 H2B 108.4 . . ?
H2A N2 H2B 107.5 . . ?
C1 N2 Ag1 115.4(4) . . ?
C1 N2 H2A 108.4 . . ?
C1 N2 H2B 108.4 . . ?
C6 N1 C2 115.3(5) . . ?
N1 C2 C1 114.0(6) . . ?
N1 C2 C3 122.9(5) . . ?
C3 C2 C1 123.1(6) . . ?
N1 C6 H6 117.2 . . ?
N1 C6 C5 125.7(6) . . ?
C5 C6 H6 117.2 . . ?
C6 C5 H5 121.2 . . ?
C4 C5 C6 117.6(6) . . ?
C4 C5 H5 121.2 . . ?
N2 C1 C2 115.5(5) . . ?
N2 C1 H1A 108.4 . . ?
N2 C1 H1B 108.4 . . ?
C2 C1 H1A 108.4 . . ?
C2 C1 H1B 108.4 . . ?
H1A C1 H1B 107.5 . . ?
C2 C3 H3 120.3 . . ?
C2 C3 C4 119.3(6) . . ?
C4 C3 H3 120.3 . . ?
C5 C4 C3 119.2(7) . . ?
C5 C4 H4 120.4 . . ?
C3 C4 H4 120.4 . . ?
loop_
_geom_bond_atom_site_label_1
_geom_bond_atom_site_label_2
_geom_bond_distance
_geom_bond_site_symmetry_2
_geom_bond_publ_flag
Ag1 Ag1 3.2987(10) 2_756 ?
Ag1 Ag1 3.1990(11) 2_656 ?
Ag1 Br1 2.7782(9) 1_455 ?
Ag1 Br1 2.6281(8) . ?
Ag1 Br1 2.8204(10) 2_756 ?
Ag1 N2 2.292(4) . ?
N2 H2A 0.8900 . ?
N2 H2B 0.8900 . ?
N2 C1 1.454(7) . ?
N1 C2 1.357(7) . ?
N1 C6 1.331(7) . ?
C2 C1 1.508(7) . ?
C2 C3 1.359(8) . ?
C6 H6 0.9300 . ?
C6 C5 1.368(9) . ?
C5 H5 0.9300 . ?
C5 C4 1.353(8) . ?
C1 H1A 0.9700 . ?
C1 H1B 0.9700 . ?
C3 H3 0.9300 . ?
C3 C4 1.385(8) . ?
C4 H4 0.9300 . ?
loop_
_geom_torsion_atom_site_label_1
_geom_torsion_atom_site_label_2
_geom_torsion_atom_site_label_3
_geom_torsion_atom_site_label_4
_geom_torsion
_geom_torsion_site_symmetry_1
_geom_torsion_site_symmetry_2
_geom_torsion_site_symmetry_3
_geom_torsion_site_symmetry_4
_geom_torsion_publ_flag
Ag1 N2 C1 C2 -175.5(4) . . . . ?
N1 C2 C1 N2 53.6(7) . . . . ?
N1 C2 C3 C4 0.1(9) . . . . ?
N1 C6 C5 C4 -2.7(10) . . . . ?
C2 N1 C6 C5 2.2(9) . . . . ?
C2 C3 C4 C5 -0.6(10) . . . . ?
C6 N1 C2 C1 -179.9(5) . . . . ?
C6 N1 C2 C3 -0.8(9) . . . . ?
C6 C5 C4 C3 1.7(10) . . . . ?
C1 C2 C3 C4 179.1(5) . . . . ?
C3 C2 C1 N2 -125.4(7) . . . . ?
