#------------------------------------------------------------------------------
#$Date: 2022-07-23 07:17:47 +0300 (Sat, 23 Jul 2022) $
#$Revision: 276901 $
#$URL: file:///home/coder/svn-repositories/cod/cif/1/56/73/1567353.cif $
#------------------------------------------------------------------------------
#
# This file is available in the Crystallography Open Database (COD),
# http://www.crystallography.net/. The original data for this entry
# were provided by IUCr Journals, http://journals.iucr.org/.
#
# The file may be used within the scientific community so long as
# proper attribution is given to the journal article from which the
# data were obtained.
#
data_1567353
loop_
_publ_author_name
'Chodkiewicz, Michal L.'
'Gajda, Roman'
'Lavina, Barbara'
'Tkachev, Sergey'
'Prakapenka, Vitali B.'
'Dera, Przemyslaw'
'Wozniak, Krzysztof'
_publ_section_title
;
 Accurate crystal structure of ice VI from X-ray diffraction with
 Hirshfeld atom refinement
;
_journal_issue                   5
_journal_name_full               IUCrJ
_journal_page_first
;
;
_journal_paper_doi               10.1107/S2052252522006662
_journal_volume                  9
_journal_year                    2022
_chemical_formula_moiety         'H2 O'
_chemical_formula_sum            'H2 O'
_chemical_formula_weight         18.015
_space_group_crystal_system      tetragonal
_space_group_IT_number           137
_space_group_name_Hall           '-P 4ac 2a'
_space_group_name_H-M_alt        'P 42/n m c :2'
_symmetry_Int_Tables_number      137
_audit_creation_date             2022-01-17
_audit_creation_method
;
Olex2 1.3
(compiled 2020.07.31 svn.rc2a77460 for OlexSys, GUI svn.r6145)
;
_cell_angle_alpha                90
_cell_angle_beta                 90
_cell_angle_gamma                90
_cell_formula_units_Z            10
_cell_length_a                   6.1737(5)
_cell_length_b                   6.1737(5)
_cell_length_c                   5.6843(3)
_cell_measurement_reflns_used    1312
_cell_measurement_temperature    293(3)
_cell_measurement_theta_max      23.7120
_cell_measurement_theta_min      3.6700
_cell_volume                     216.65(3)
_computing_molecular_graphics    'Olex2 1.3 (Dolomanov et al., 2009)'
_computing_publication_material  'Olex2 1.3 (Dolomanov et al., 2009)'
_computing_structure_refinement  'olex2.refine 1.3 (Bourhis et al., 2015)'
_diffrn_ambient_temperature      293(2)
_diffrn_detector                 'CCD plate'
_diffrn_detector_area_resol_mean 16.0128
_diffrn_detector_type            Eos
_diffrn_measured_fraction_theta_full 0.9426
_diffrn_measured_fraction_theta_max 0.8782
_diffrn_measurement_device       'four-circle diffractometer'
_diffrn_measurement_device_type  'SuperNova, Single source at offset/far, Eos'
_diffrn_radiation_monochromator  mirror
_diffrn_radiation_probe          x-ray
_diffrn_radiation_type           'Ag K\a'
_diffrn_radiation_wavelength     0.56087
_diffrn_reflns_av_R_equivalents  0.0574
_diffrn_reflns_av_unetI/netI     0.0240
_diffrn_reflns_Laue_measured_fraction_full 0.9426
_diffrn_reflns_Laue_measured_fraction_max 0.8782
_diffrn_reflns_limit_h_max       9
_diffrn_reflns_limit_h_min       -9
_diffrn_reflns_limit_k_max       8
_diffrn_reflns_limit_k_min       -8
_diffrn_reflns_limit_l_max       8
_diffrn_reflns_limit_l_min       -9
_diffrn_reflns_number            3861
_diffrn_reflns_point_group_measured_fraction_full 0.9426
_diffrn_reflns_point_group_measured_fraction_max 0.8782
_diffrn_reflns_theta_full        19.6651
_diffrn_reflns_theta_max         26.75
_diffrn_reflns_theta_min         3.68
_diffrn_source                   'micro-focus sealed X-ray tube'
_diffrn_source_type              'SuperNova (Ag) X-ray Source'
_exptl_absorpt_coefficient_mu    0.090
_exptl_crystal_colour            colourless
_exptl_crystal_density_diffrn    1.381
_exptl_crystal_description       disc
_exptl_crystal_F_000             100.055
_exptl_crystal_size_max          0.3
_exptl_crystal_size_mid          0.2
_exptl_crystal_size_min          0.2
_refine_diff_density_max         0.2625
_refine_diff_density_min         -0.2668
_refine_diff_density_rms         0.0680
_refine_ls_d_res_high            0.6231
_refine_ls_d_res_low             4.3655
_refine_ls_goodness_of_fit_ref   1.1654
_refine_ls_hydrogen_treatment    refall
_refine_ls_matrix_type           full
_refine_ls_number_constraints    0
_refine_ls_number_parameters     36
_refine_ls_number_reflns         238
_refine_ls_number_restraints     0
_refine_ls_restrained_S_all      1.1654
_refine_ls_R_factor_all          0.0441
_refine_ls_R_factor_gt           0.0296
_refine_ls_shift/su_max          0.0010
_refine_ls_shift/su_mean         0.0001
_refine_ls_structure_factor_coef Fsqd
_refine_ls_weighting_details
'w=1/[\s^2^(Fo^2^)+(0.0249P)^2^+0.0125P] where P=(Fo^2^+2Fc^2^)/3'
_refine_ls_weighting_scheme      calc
_refine_ls_wR_factor_gt          0.0588
_refine_ls_wR_factor_ref         0.0709
_reflns_Friedel_coverage         0.0
_reflns_limit_h_max              9
_reflns_limit_h_min              0
_reflns_limit_k_max              6
_reflns_limit_k_min              0
_reflns_limit_l_max              9
_reflns_limit_l_min              0
_reflns_number_gt                175
_reflns_number_total             238
_reflns_threshold_expression     I>=2u(I)
_iucr_refine_instructions_details
;
TITL appr2fin in P42/nmc #137
REM reset to P42/nmc #137
CELL 0.56087 6.173071 6.17441 5.684276 90 89.9907 90
ZERR 10 0.00045 0.000537 0.000292 0 0.0052 0
LATT 1
SYMM 0.5-Y,+X,0.5+Z
SYMM 0.5-X,0.5-Y,+Z
SYMM +Y,0.5-X,0.5+Z
SYMM 0.5+X,-Y,-Z
SYMM -X,0.5+Y,-Z
SYMM 0.5+Y,0.5+X,0.5-Z
SYMM -Y,-X,0.5-Z
SFAC H O
UNIT 20 10

L.S. 24
PLAN  5
CONF
BOND 
fmap 2 53
acta 
MORE -1
BOND $H
WGHT 0.024949 0.012501
FVAR 10.751451
REM <olex2.extras>
REM <HklSrc "%.\\appr2fin.hkl">
REM </olex2.extras>

O1    2     0.52984  0.75000  0.12913  10.50000  0.03071  0.04315  0.03989 =
 0.00000  0.00066  0.00000 

O2    2     0.25000  0.75000 -0.25000  10.12500  0.04370  0.04370  0.03343 =
 0.00000 -0.00001 -0.00000 

D1A   1     0.45994  0.62776  0.21482  10.50000  0.07540  0.03414  0.06038 =
 0.00050  0.02747 -0.00839 
D1B   1     0.68651  0.75000  0.12715  10.25000  0.00740  0.13355  0.06759 =
 0.00000  0.01933  0.00000 

D2    1     0.13569  0.75000 -0.14427  10.25000  0.05862  0.05936  0.10006 =
 0.00000 -0.01164 -0.00000 

D1C   1     0.46997  0.75000 -0.01253  10.25000  0.07492  0.09727  0.03691 =
 0.00000  0.01128  0.00000 
HKLF 4

END
Q1 1 0.25 0.9 0.041667 11 0.05 0.26
Q2 1 0.64 0.5 0.041667 11 0.05 0.18
Q3 1 0.48 0.52 0.25 11 0.05 0.18
Q4 1 0.16 0.66 -0.25 11 0.05 0.17
Q5 1 0.75 0.75 0.333333 11 0.05 0.14

  REM The information below was added by Olex2.
  REM
  REM R1 = 0.0296 for 175 Fo > 4sig(Fo) and 0.0441 for all 238 data
  REM 36 parameters refined using 0 restraints
  REM Highest difference peak 0.2625, deepest hole -0.2668
  REM Mean Shift 0.0001, Max Shift 0.0010.

  REM +++ Tabular Listing of Refinement Information +++
  REM R1_all = 0.0441
  REM R1_gt = 0.0296
  REM wR_ref = 0.0709
  REM GOOF = 1.1654
  REM Shift_max = 0.0010
  REM Shift_mean = 0.0001
  REM Reflections_all = 238
  REM Reflections_gt = 175
  REM Parameters = 36
  REM Hole = -0.2668
  REM Peak = 0.2625
  REM Flack = n/a

  
;
_cod_data_source_file            lt5051.cif
_cod_data_source_block           H2O_D2O_home_HAR
_cod_original_cell_volume        216.66(3)
_cod_original_sg_symbol_H-M      'P 42/n m c'
_cod_database_code               1567353
_olex2_refinement_description
;
1. Others
 Fixed Sof: D1A(0.5) D1B(0.25) D2(0.25) D1C(0.25)
;
_olex2_submission_special_instructions 'No special instructions were received'
loop_
_space_group_symop_id
_space_group_symop_operation_xyz
1 x,y,z
2 -y+1/2,x,z+1/2
3 y,-x+1/2,z+1/2
4 x+1/2,-y,-z
5 -x,y+1/2,-z
6 -x+1/2,-y+1/2,z
7 y+1/2,x+1/2,-z+1/2
8 -y,-x,-z+1/2
9 -x,-y,-z
10 y-1/2,-x,-z-1/2
11 -y,x-1/2,-z-1/2
12 -x-1/2,y,z
13 x,-y-1/2,z
14 x-1/2,y-1/2,-z
15 -y-1/2,-x-1/2,z-1/2
16 y,x,z-1/2
loop_
_atom_site_label
_atom_site_type_symbol
_atom_site_fract_x
_atom_site_fract_y
_atom_site_fract_z
_atom_site_U_iso_or_equiv
_atom_site_adp_type
_atom_site_occupancy
_atom_site_site_symmetry_order
_atom_site_refinement_flags_posn
_atom_site_refinement_flags_adp
_atom_site_refinement_flags_occupancy
O1 O 0.52984(16) 0.75 0.12913(17) 0.0379(4) Uani 1.000000 2 S T P
O2 O 0.25 0.75 -0.25 0.0403(5) Uani 1.000000 8 S T P
D1A H 0.460(4) 0.628(5) 0.215(5) 0.057(8) Uani 0.500000 1 . . .
D1B H 0.687(7) 0.75 0.127(5) 0.070(15) Uani 0.500000 2 S T P
D2 H 0.136(8) 0.75 -0.144(8) 0.073(13) Uani 0.500000 2 S T P
D1C H 0.470(7) 0.75 -0.013(8) 0.070(15) Uani 0.500000 2 S T P
loop_
_atom_site_aniso_label
_atom_site_aniso_U_11
_atom_site_aniso_U_22
_atom_site_aniso_U_33
_atom_site_aniso_U_12
_atom_site_aniso_U_13
_atom_site_aniso_U_23
O1 0.0307(7) 0.0431(6) 0.0399(6) -0.000000 0.0007(4) 0.000000
O2 0.0437(8) 0.0437(8) 0.0334(8) -0.000000 -0.000000 0.000000
D1A 0.08(2) 0.034(17) 0.060(17) -0.008(13) 0.027(17) 0.000(15)
D1B 0.01(2) 0.13(5) 0.07(3) -0.000000 0.019(16) 0.000000
D2 0.06(4) 0.06(3) 0.10(5) -0.000000 -0.01(2) 0.000000
D1C 0.07(4) 0.10(4) 0.04(2) -0.000000 0.01(2) 0.000000
loop_
_atom_type_symbol
_atom_type_scat_dispersion_real
_atom_type_scat_dispersion_imag
_atom_type_scat_Cromer_Mann_a1
_atom_type_scat_Cromer_Mann_a2
_atom_type_scat_Cromer_Mann_a3
_atom_type_scat_Cromer_Mann_a4
_atom_type_scat_Cromer_Mann_b1
_atom_type_scat_Cromer_Mann_b2
_atom_type_scat_Cromer_Mann_b3
_atom_type_scat_Cromer_Mann_b4
_atom_type_scat_Cromer_Mann_c
_atom_type_scat_source
_atom_type_scat_dispersion_source
H 0.00000 0.00000 0.49300 0.32291 0.14019 0.04081 10.51090 26.12570 3.14236
57.79970 0.0030380000826
'International Tables Volume C Table 6.1.1.4 (pp. 500-502)'
'Henke, Gullikson and Davis, At. Data and Nucl. Data Tables, 1993, 54, 2'
O 0.00627 0.00358 3.04850 2.28680 1.54630 0.86700 13.27710 5.70110 0.32390
32.90890 0.250800013542
'International Tables Volume C Table 6.1.1.4 (pp. 500-502)'
'Henke, Gullikson and Davis, At. Data and Nucl. Data Tables, 1993, 54, 2'
loop_
_diffrn_refln_index_h
_diffrn_refln_index_k
_diffrn_refln_index_l
_diffrn_refln_intensity_net
_diffrn_refln_intensity_u
_diffrn_refln_scale_group_code
0 0 -1 -0.55 2.77 7
0 0 -1 1.19 2.47 6
0 0 1 0.4 2.95 9
0 0 1 0.48 0.72 11
0 0 1 0.85 3.27 2
0 0 1 -1.01 2.04 3
0 0 -1 0.53 5.06 1
0 0 -1 0.01 1.28 4
0 0 2 27999.9 581.07 11
0 0 2 28869.52 572.05 2
0 0 -2 28602.89 439.8 4
0 0 -2 29619.31 416.24 5
0 0 -2 29214.35 583.71 1
0 0 -2 28040.83 538.35 7
0 0 3 19.09 7.51 9
0 0 3 -22.96 23.32 11
0 0 -3 16.79 27.25 1
0 0 -3 2.95 11.57 7
0 0 3 42.35 29.67 2
0 0 -3 -0.81 3.76 6
0 0 3 45.67 17.2 3
0 0 -3 -2.94 3.07 4
0 0 -3 -5.65 10.99 5
0 0 3 5.73 6.25 10
0 0 -4 20889.61 721.4 6
0 0 4 21959.95 718.47 2
0 0 -5 48.9 52.35 1
0 0 5 17.11 27.37 14
0 0 -5 -4.33 11.14 8
0 0 -5 -17.78 21.37 4
0 0 -5 72.01 62.78 7
0 0 5 -10.06 18.07 9
0 0 5 42.28 38.42 2
0 0 -5 31.58 47.96 6
0 0 5 40.62 40.81 11
0 0 -6 -24.44 21.51 7
0 0 6 170.16 87.27 11
0 0 6 67.26 34.98 14
0 0 -6 62.73 74.21 1
0 0 -6 14.88 29.89 6
0 0 6 49.71 57.36 2
0 0 -7 -69.19 75.18 6
0 0 7 52.41 53.34 2
0 0 -7 -44.97 62.92 7
0 0 -7 47.64 53.18 1
0 0 7 -122.33 103.35 11
0 0 -8 2004.19 335.59 1
0 0 8 1800.2 311.91 11
0 0 -8 2033.6 314.05 7
0 0 8 2142.89 343.94 2
0 0 -8 1883.93 327.28 6
1 0 0 2.72 5.11 13
1 0 0 -1.74 1.59 9
0 1 0 -3.85 4.06 12
0 -1 0 1.67 6.39 17
-1 0 0 3.1 4.54 4
1 0 -1 891.78 83.21 5
0 -1 -1 936.86 76.05 1
0 1 1 979.16 74.61 12
-1 0 -1 923.77 84.36 1
0 1 1 983.52 81.1 11
0 -1 -1 936.13 82.04 8
0 1 1 945.07 86.71 2
-1 0 1 965.2 85.75 10
1 0 1 1046.69 72.19 13
0 -1 1 933.09 86.44 3
1 0 1 841.55 79.15 9
1 0 -1 976.9 87.61 18
1 0 1 1013.17 74.27 2
1 0 1 1009.4 86.31 11
0 -1 1 1011.36 88.57 9
0 1 -1 976.33 86.76 1
-1 0 1 765.96 70.12 11
0 -1 -1 1000.89 75.26 17
0 -1 1 872.17 80.25 11
-1 0 -1 940.69 83.87 4
0 1 1 1030.3 84.96 10
1 0 -1 767.81 79.58 7
0 1 -1 903.39 84.07 4
1 0 -1 880.56 78.83 6
-1 0 2 82670.7 989.35 11
1 0 -2 83419.58 1024.98 6
-1 0 2 88264.1 1080.85 2
0 1 2 81553.67 974.12 16
0 -1 2 85064.61 1010.27 9
0 1 -2 82782.75 1047.65 1
0 1 2 78310.05 1020.9 2
1 0 -2 77574.88 1011.67 7
0 1 -2 74317.08 861.72 7
1 0 2 83687.35 940.11 2
0 1 2 85382.91 1011.57 11
0 -1 2 84469.39 1049.89 11
-1 0 -2 79803.69 994.93 6
1 0 2 81682.18 950.63 9
0 -1 -2 82961.57 973.31 1
0 -1 2 85530.86 992.08 3
0 1 2 80273.83 932.18 14
1 0 -2 77132.87 953.54 1
0 -1 -2 85057.06 916.94 8
0 1 -2 80281.37 1013.43 6
1 0 2 85249.14 1057.41 11
-1 0 2 83808.09 949.45 10
1 0 3 23092.96 617.47 2
1 0 -3 24646.06 583.41 5
0 1 3 23466.6 653.45 11
0 1 -3 23661.65 668.65 6
0 1 3 24595.98 405.55 12
0 -1 3 22820.3 668.03 11
0 -1 3 25698.84 658.61 2
1 0 3 23225.59 561.82 3
0 1 3 24161.75 449.11 9
0 1 3 22724.15 587.13 14
-1 0 -3 26268.67 366.57 8
1 0 3 22881.45 668.05 11
1 0 3 22550.77 583.41 9
0 -1 3 24901.94 625.51 9
0 -1 -3 22761.42 528.6 5
0 -1 3 25535.8 622.68 3
0 1 -3 24270.36 586.78 4
0 -1 -3 24685.85 559.48 8
1 0 -3 23191.52 652.51 7
0 -1 -3 22494.7 631.67 1
-1 0 -3 23404.41 570.07 7
0 1 3 22648.5 661.19 2
0 -1 -3 22565.57 661.67 6
-1 0 -3 22993.72 662.88 1
-1 0 3 23192.66 650.75 11
0 1 -3 23525.37 590.13 7
-1 0 -4 274.6 45.54 8
0 1 -4 178.48 57.35 7
1 0 -4 253.09 76.25 18
0 1 4 210.05 73.08 11
1 0 4 285.43 80.86 2
-1 0 4 208.23 62.05 11
1 0 -4 224.19 72.42 6
0 1 4 233.17 39.44 12
-1 0 -4 179.91 60.5 7
1 0 -4 269.75 81.19 1
-1 0 -4 249.88 39.19 5
1 0 4 192.91 60.47 9
0 1 -4 219.89 72.16 6
1 0 4 170.36 46.43 14
0 1 4 253.91 60.41 10
1 0 4 138.49 60.9 11
1 0 4 224.67 38 10
0 1 4 288.21 88.32 2
-1 0 -4 178.58 62.92 6
1 0 4 179.95 58.43 3
0 1 -4 265.64 66.92 4
0 -1 -4 250.3 76.65 7
0 -1 -4 231.68 46.53 4
0 1 -4 221.62 73.54 1
0 -1 -4 232.02 64 5
0 -1 -4 287.3 43.83 17
-1 0 -4 216.4 56.41 4
0 1 4 139.87 52.95 14
0 -1 -4 205.58 71.12 1
0 -1 -4 151.15 58.66 6
0 1 4 320.16 63.91 9
0 -1 4 283.02 69.22 9
-1 0 4 288.82 81.83 2
-1 0 4 233.25 59.85 10
1 0 -4 208.88 62.27 7
0 -1 4 152.61 58.8 11
0 -1 4 205.49 44.26 10
0 -1 -4 205.55 53.86 8
-1 0 -4 221.49 77.23 1
0 -1 4 270.19 81.12 2
1 0 -4 236.67 62.11 5
0 -1 5 5051.5 348.12 9
0 -1 -5 4884.97 386.61 1
0 -1 -5 5186.94 310.03 8
0 1 -5 4963.15 401.4 1
0 1 5 4887.57 343.44 14
-1 0 -5 5290.25 413.15 1
-1 0 -5 4973.21 315.48 4
1 0 5 5247.29 329.99 3
0 1 5 4881.95 392.37 11
-1 0 -5 4889.15 348.55 7
0 1 5 5385.7 415.84 2
0 -1 -5 4815.2 378.56 7
1 0 -5 4790.76 380.65 7
1 0 5 5002.32 399.74 11
-1 0 -5 4626.14 388.38 6
1 0 5 5179.99 346.02 9
1 0 5 4707.57 286.42 14
0 1 5 5398.82 310.35 10
-1 0 5 4734.46 385.77 11
0 -1 -5 4808.41 399.55 6
-1 0 5 5320.83 411.94 2
1 0 -5 5075.26 395.01 1
1 0 5 5422.24 394.87 2
0 -1 -5 5299.83 311.93 5
1 0 -5 4756.55 396.04 6
-1 0 5 5029.71 317.32 10
1 0 -5 4896.56 342.71 18
0 1 -5 5321.08 415 6
0 1 5 4634.67 276.14 9
0 1 -5 4829.51 355.1 7
0 -1 5 5370.56 395.37 2
0 -1 5 4801.64 398.2 11
0 1 -6 1860.48 240.44 7
0 1 6 2186.4 291.05 11
0 -1 6 1907.27 277.68 11
1 0 6 1993.99 229.73 9
0 -1 6 2196.09 287.43 2
0 1 6 2009.17 239.31 14
0 -1 -6 2124.17 298.22 6
-1 0 6 1816.16 247.22 14
-1 0 -6 2165.25 297.2 1
0 1 -6 2174.42 295.26 1
-1 0 -6 1945.73 282.47 6
-1 0 6 1981.4 267.64 11
1 0 6 2169.92 293.32 11
0 -1 -6 1998.32 267.11 7
0 -1 6 2155.35 242.21 9
1 0 -6 1965.32 239.9 18
0 1 6 2141.35 289.71 2
1 0 -6 2187.79 283.37 7
1 0 -6 1910.63 279.73 6
1 0 -6 1753.56 255.68 1
0 -1 -6 2469.84 310 1
-1 0 6 2197.64 293.24 2
1 0 6 2136.41 271.92 2
-1 0 -6 2080.25 248.33 7
0 1 -6 2034.81 282.32 6
0 1 -7 26.07 35 7
0 -1 -7 30.98 34.84 7
1 0 -7 69.66 69.29 1
0 1 7 -10.97 19.96 2
-1 0 7 67.49 62.77 14
1 0 7 -12.05 23.16 2
-1 0 -7 -36.6 24.03 7
1 0 7 -46.6 78.26 11
0 -1 -7 56.59 67.8 1
0 1 7 78.83 65.66 11
-1 0 7 18.98 25.43 2
-1 0 -7 -23.29 19.5 6
0 -1 -7 102.29 84.1 6
1 0 -7 -40.49 21.63 7
0 -1 7 38.61 34.07 11
-1 0 -7 63.51 66.39 1
0 1 -7 170.32 114.32 1
-1 0 7 -47.96 35.16 11
0 1 -7 51.35 58.36 6
1 0 -7 -35.39 44.02 6
1 0 8 108.05 90.92 2
0 1 -8 -40.45 39.22 1
-1 0 8 -3.23 54.57 2
0 1 8 139.23 119.49 11
1 0 -8 -44.35 72.55 1
0 -1 -8 43.63 37.72 1
0 1 8 -130.48 111.7 2
-1 0 -8 -29.01 75.06 6
-1 0 8 -62.98 100.66 11
1 0 8 21.67 40.34 11
1 0 -8 -45.67 66.52 7
1 0 -8 -42.18 58.62 6
0 -1 8 -13.98 43.83 11
0 -1 -8 1.22 65.23 7
-1 0 -8 125.5 90.98 1
0 1 -8 71.52 69.36 6
0 -1 -8 38.63 25.57 6
1 0 -9 -34.07 24.93 7
-1 1 0 2405.77 128.75 10
-1 1 0 2222.79 121.6 4
-1 1 0 2443.77 113.03 15
1 -1 0 2321.69 118.19 9
-1 1 0 2366.46 135.49 12
-1 -1 -1 3.36 7.4 15
1 -1 -1 0.51 10.58 13
-1 1 -1 1.49 5.51 6
-1 1 1 -1.8 8.65 10
1 -1 -1 12.97 8.48 6
-1 -1 -1 -5.04 12.12 1
-1 1 1 1.13 11.4 4
1 -1 -1 4.42 5.91 1
-1 1 1 5.81 5.62 12
-1 1 1 0.26 2.91 11
-1 1 1 2.45 6.51 14
1 -1 1 -4.21 6.88 17
1 -1 -1 -4.88 10.32 5
-1 1 1 14.78 9.49 16
1 1 1 -5.29 8.86 2
-1 1 1 -1.91 5.05 2
-1 1 -1 -1.57 5.08 10
1 -1 1 -3.95 5.15 11
-1 1 -1 -7.26 10.01 1
1 -1 1 -0.97 7.1 9
-1 1 -1 3.38 5.34 12
1 -1 1 1.65 3.78 8
1 1 1 3.88 7.35 11
-1 1 -1 -5 8.65 4
-1 1 2 11233.99 348.44 11
1 1 2 11019.54 396.67 16
-1 1 2 11639.09 402.62 2
1 1 2 11223.67 341.28 9
1 -1 -2 11207.1 406.23 7
-1 -1 -2 11930.82 327.5 4
1 -1 -2 11859.39 345.25 1
1 -1 -2 12798.2 309.45 13
-1 1 2 11669.71 385.41 10
-1 -1 -2 11571.57 403.72 1
-1 1 2 10016.23 297.97 16
1 1 2 12069.39 420.98 11
-1 1 2 11202 392.34 14
1 1 2 11589.33 398.26 2
1 -1 -2 11266.11 383.02 5
-1 1 2 11614.56 345.09 12
-1 1 3 -10.28 7.77 11
1 1 3 -14.43 20.74 9
1 -1 3 -22.86 24.07 11
1 1 -3 -30.18 39.44 1
1 -1 3 -8.46 16.08 2
1 1 3 -15.32 18.68 11
1 -1 -3 20.99 12.95 13
1 -1 -3 -7.37 14.32 1
-1 -1 -3 -9.04 28 6
-1 1 3 -0.91 19.74 14
-1 -1 -3 1.82 11.19 4
-1 -1 3 -10.11 23.88 11
-1 1 3 -18.97 28.43 2
-1 1 3 23.05 12.58 10
1 -1 3 28.08 29.23 9
-1 1 -3 -1.58 7.69 12
-1 1 3 12.03 4.77 12
1 -1 3 -0.02 18.97 3
1 -1 -3 -22.71 21.09 7
-1 1 -3 -2.15 17.91 7
-1 1 -3 3.53 15.95 4
-1 -1 -3 1.07 15.18 1
-1 1 -3 9.35 15.82 6
1 -1 -3 -17.03 17.36 5
1 1 3 19.04 22.1 16
-1 1 -3 -4.57 18.53 1
1 1 3 -1.28 7.22 12
-1 -1 -3 -20.95 19.59 8
1 1 -3 -37.06 31.41 7
1 1 3 3.89 5.99 2
1 -1 -3 -16.21 25.55 6
-1 1 -4 7607.83 435.98 6
1 1 4 7044.3 315.39 3
1 -1 -4 7701.88 444.74 7
-1 1 4 8009.3 457.08 2
-1 1 4 7757.05 425.38 11
-1 1 4 7326.06 412.48 14
1 -1 -4 7634.99 435.86 6
1 -1 4 8319.41 417.63 2
-1 1 -4 6439.32 336.37 7
1 1 -4 7306.51 418.15 7
1 -1 -4 7910.76 422.22 1
1 -1 -4 7937.65 389.21 5
-1 1 -4 7989.7 402.67 4
-1 -1 -4 7418.83 441.76 6
1 1 4 7517.37 433.54 2
1 1 4 8180.2 461.74 11
-1 -1 -4 7645.69 440.09 1
-1 -1 -4 7518.46 330.12 4
1 1 -4 7994.13 451.44 1
1 -1 4 7963.65 420.19 9
-1 -1 4 7579.08 353.21 10
-1 -1 4 7255.16 434.88 11
1 1 4 7107.39 347.4 9
1 -1 -5 15.17 35.53 6
1 1 -5 83.05 47.92 6
1 -1 -5 -38.9 35.49 5
-1 1 5 -45.73 33.01 11
-1 1 -5 101.11 67.17 6
1 1 5 52.2 53.18 11
-1 1 5 13.03 31.12 2
-1 1 -5 9.57 31.55 4
-1 1 5 55.15 46.57 14
1 -1 -5 -16.89 38.55 7
-1 -1 -5 1.37 25.63 1
1 -1 5 14 34.45 2
1 1 5 94.2 62.56 2
1 -1 -5 1.46 15.27 1
1 1 5 46.06 38.04 9
-1 1 5 24.69 28.65 10
1 -1 5 -27.07 26.32 9
-1 -1 5 -58.28 57.31 11
1 1 -5 -19.16 31.88 1
-1 1 -5 -16.73 19.74 7
1 1 -5 -17.69 10.89 7
-1 -1 -5 -37.95 29.84 6
-1 -1 5 -13.06 19.61 10
1 -1 5 -49.38 48.81 11
-1 1 -5 -78.13 70.97 1
1 -1 5 14.37 46.83 3
-1 -1 -5 -25.22 16.52 7
1 -1 -5 -15.2 30.88 8
-1 -1 -6 586.73 148.71 1
1 -1 6 601.72 139.85 3
1 1 -6 621.93 147.52 7
1 -1 6 587.77 144.55 2
-1 1 6 563.89 137.24 11
1 -1 -6 626.4 157.11 7
1 -1 6 588.73 153.87 11
-1 1 6 673.31 148.57 14
-1 1 -6 705.24 174.78 1
1 1 6 564.89 151.98 2
-1 1 -6 562.04 121.5 7
-1 -1 -6 648.65 162.91 6
1 1 -6 421.64 130.23 6
1 -1 -6 554 154.35 6
1 -1 6 551.36 128.86 9
-1 1 6 697.01 175.06 2
1 1 -6 615.55 161.99 1
1 1 6 547.84 150.65 11
-1 -1 6 550.93 152.05 11
-1 1 -6 431.78 133.12 6
1 -1 -6 645.69 153.58 1
-1 1 -6 588.16 130.3 4
-1 -1 -6 447.39 121.23 7
-1 1 -7 -37.83 19.55 1
-1 1 7 131.3 93.6 2
-1 1 -7 -80.08 95.46 6
-1 -1 -7 131.42 84.82 6
-1 -1 -7 -24.29 27.61 7
1 -1 -7 -35.9 71.68 6
-1 1 7 13.03 53.27 11
1 1 7 -97.41 61.64 11
1 -1 7 39.66 32.66 2
-1 1 7 40.18 61.26 14
1 -1 7 183.8 94.26 11
1 -1 -7 19 26.97 1
-1 -1 -7 -92.55 74.64 1
1 -1 -7 -27.04 68.14 7
1 1 7 -49.02 50.62 2
1 -1 -8 -33.35 55.29 6
1 1 -8 -1.96 37.99 6
-1 -1 -8 90.98 38.21 6
1 -1 8 128.24 58.67 2
-1 1 8 137.28 102.53 2
1 1 -8 -11.96 96.47 1
1 -1 -8 -15.22 74.81 1
-1 1 -8 -12.37 17.72 6
1 -1 -8 -16.4 74.87 7
-1 1 -8 -6.88 57.5 1
-1 1 8 -69.81 83.06 11
-1 -1 -8 289.14 149.55 1
1 1 8 60.5 52.51 11
1 1 8 -34.84 25.1 2
1 -1 8 212.66 127.64 11
-1 -1 8 -34.21 52.03 11
2 0 0 21370.95 469.82 9
-2 0 0 22562.32 490.98 4
-2 0 1 97962.27 1112.94 10
2 0 1 90438.02 967.98 16
2 0 2 8520.11 290.35 13
0 2 2 7962.14 356.47 2
-2 0 -2 7705.58 352.09 1
0 -2 2 7088.64 333.01 11
0 2 2 8936.54 356.86 10
-2 0 -2 7965.57 343.79 4
0 2 2 8613.7 341.19 11
2 0 -2 8168.68 362.11 18
2 0 2 7437.61 340.83 9
0 -2 -2 6566.37 274.69 17
2 0 -2 8182.67 359.16 5
-2 0 -2 7525.26 324.24 6
0 -2 -2 8511.86 351.83 8
2 0 -2 7529.17 354.59 7
0 -2 -2 7942.14 340.59 6
0 2 2 7814.88 303.1 12
2 0 2 7963.54 294.79 2
-2 0 2 7783.83 351.83 10
0 -2 -2 7834.25 312.99 1
0 -2 2 8431.76 366.38 9
2 0 2 8364.66 362.18 11
0 -2 -3 35555.25 859.07 6
0 -2 3 39448.06 890.43 9
0 -2 -3 30621.33 602.84 17
2 0 3 35588.18 828.23 9
0 2 3 30832.39 765.22 16
0 2 3 35278.11 657.9 12
0 -2 -3 38213.26 439.72 4
-2 0 -3 35292.29 791.62 4
-2 0 -3 34772.76 824.27 6
0 -2 -3 38470.74 812.84 8
2 0 -3 36982.35 869.51 18
2 0 -3 34500.19 836.62 6
0 2 -3 35489.4 846.5 6
0 2 3 39765.22 868.71 11
-2 0 3 36664.51 827.3 10
0 2 3 41417.1 833.99 10
2 0 -3 37532.75 840.42 5
0 2 -3 37977.05 900.02 1
0 -2 3 36380.73 869.63 11
2 0 -3 36398.34 889.79 7
0 2 3 36206.03 881.05 2
0 2 -3 36513.82 846.6 4
2 0 3 38030.33 894.88 11
0 -2 4 1283.55 178.31 9
2 0 -4 1277.71 175.18 1
2 0 -4 1278.99 178.82 6
0 2 4 916.09 148.36 16
-2 0 4 1201.71 159.82 10
0 2 4 1275.54 177.66 11
2 0 -4 1225.48 165.5 5
0 2 4 1398.51 164.43 10
0 2 4 1211.55 185 2
0 2 4 1341.67 131.63 12
0 2 4 1221.98 107.23 9
0 2 -4 1032.42 169.84 1
0 -2 -4 1246.71 158.31 8
2 0 -4 1335.07 188.35 7
2 0 -4 1260.58 172.6 18
-2 0 4 1383.7 181.72 11
0 -2 -4 1377.8 125.83 17
0 2 -4 1163.65 176.69 6
2 0 4 1205.94 169.57 9
0 -2 -4 1143.99 172.13 6
0 -2 4 1173.69 176.52 11
-2 0 -4 1259.62 161.41 4
2 0 4 1309.88 187.53 11
0 -2 -4 1309.15 174.28 1
-2 0 -4 1157.25 179.8 1
-2 0 -4 1437.38 188.71 6
-2 0 4 1481.63 204.69 2
2 0 4 1070.69 153.95 2
0 -2 5 3469.64 343.49 11
2 0 -5 3433.9 338.72 7
-2 0 -5 3954.84 360.79 6
0 -2 -5 3516.19 280.92 5
0 -2 -5 3588.96 348.58 6
-2 0 -5 3544.53 296.16 4
0 2 5 3661.95 346.07 11
2 0 5 3727.62 357.62 11
2 0 -5 3664.51 352.12 6
-2 0 5 3513.18 334.95 11
2 0 5 3350.57 297.67 3
0 2 5 3861.71 293.14 10
0 -2 -5 3540.39 340.88 7
0 -2 -5 3709.33 331.78 1
2 0 -5 3638.6 337.03 1
0 -2 5 3976.32 335.83 9
0 2 -5 3321.01 330.5 6
-2 0 5 3759.47 361.34 2
0 2 5 3477.55 347.53 2
2 0 5 3351.26 306.49 2
-2 0 5 3356.38 289.92 10
-2 0 -5 3425.07 278.26 7
0 2 -5 3672.9 350.51 1
0 -2 -5 3446.79 279.97 8
2 0 -5 3325.83 309.75 18
-2 0 -5 3630.69 348.55 1
2 0 5 3633.59 314.07 9
2 0 -6 399.73 136.72 6
-2 0 -6 431.18 129.43 1
-2 0 6 361.44 113.27 11
0 -2 -6 376.27 122.67 7
0 2 6 423.3 130.03 2
-2 0 -6 436.02 135.72 6
0 -2 -6 422.8 119.15 1
0 2 -6 390.5 136.36 1
-2 0 6 341.39 108.55 14
2 0 6 530.56 148.46 11
2 0 -6 386.39 120.53 1
0 2 -6 447.56 133.4 6
0 2 6 384.84 128.12 11
2 0 -6 299.05 101.79 7
0 -2 6 414.18 142.73 11
2 0 -6 347.84 90.1 18
0 -2 -6 458.96 142.88 6
0 2 7 1406.51 268.96 2
0 2 7 1487.62 267.15 11
-2 0 7 1350.91 239.28 14
-2 0 -7 1196.27 229.12 6
-2 0 -7 1207.97 248.53 1
-2 0 7 1130.99 223.94 11
2 0 -7 1417.5 265.35 1
2 0 7 1326.49 260.99 11
0 2 -7 1612.21 288.52 1
0 2 -7 1533.03 278.93 6
2 0 -7 1255.27 237.79 6
0 -2 7 1216.71 234.79 11
0 -2 -7 1348.38 256.17 6
0 -2 -7 1306.38 249.59 7
2 0 -7 1503.91 275.35 7
2 0 7 1332.25 237.64 2
0 -2 -7 1197.32 233.9 1
0 -2 -8 206.5 113.61 7
-2 0 -8 153.31 104.83 1
0 2 8 190.76 92.29 11
0 -2 -8 347 161.1 6
-2 0 8 70.23 69.97 11
2 0 8 60.6 28.64 11
2 0 -8 162.47 109.94 6
2 0 -8 10.44 32.52 1
2 0 -8 288.92 154.73 7
-2 0 -8 14.99 51.57 6
2 0 8 56.18 39.48 2
0 -2 -8 32.22 43.57 1
0 2 -8 190.76 118.6 6
0 -2 8 -37.75 45.3 11
0 2 8 12.99 67.93 2
0 2 -8 11.39 60.73 1
-2 1 0 2.03 6.71 15
1 -2 0 -5.4 4.62 9
-2 1 0 3.73 9.32 14
2 -1 0 -0.42 2.39 7
-2 1 0 5.71 4.91 1
2 -1 0 -9.86 9.63 13
2 -1 0 19.06 15.94 5
-2 1 0 2.49 3.41 4
-2 1 0 -4.99 4.31 12
1 -2 0 7.06 13.83 3
-1 2 0 -7.78 17.76 12
2 -1 0 -4.73 10.48 9
-2 1 0 -3.31 5.14 10
-1 2 0 -2.09 5.67 2
-1 2 0 8.86 17.45 10
1 -2 0 0.85 4.85 8
-1 2 0 43.36 22.04 4
1 -2 0 18.79 21.29 17
2 -1 -1 97670.95 1154.45 5
1 -2 1 90231.08 1121.69 3
-1 2 1 95967.16 1116.09 12
2 -1 1 98603.22 1103.5 13
2 -1 -1 97664.32 1056.86 7
2 -1 1 94250.11 857.16 5
-2 1 -1 92270.32 1122.76 4
2 -1 1 85355.47 1084.84 9
1 -2 -1 95224.69 1127.01 17
1 -2 1 99055.3 1151 9
-2 1 1 93661.76 1149.35 10
-1 2 1 91899.66 992.09 2
-1 2 -1 96104.13 1139.61 4
1 -2 1 99999 960.29 8
1 -2 -1 94588.54 1140.87 8
-2 1 1 99373.37 988.74 2
-1 2 2 15621.17 469.84 12
2 -1 -2 15675.73 289.84 9
2 -1 2 16121.01 476.72 11
-1 2 2 16207.33 420.05 11
-1 2 -2 16193.86 427.99 12
1 2 2 17992.37 548.79 11
1 -2 2 16343.2 529.67 9
-1 -2 -2 15639.01 496.9 1
-2 1 2 16399 499.68 12
1 -2 2 16486.33 428.49 17
1 2 2 13931.37 491.39 2
-1 2 2 15976.63 427.7 16
-2 1 -2 15326.83 433.96 6
2 1 2 17722.27 560.29 11
-2 1 2 15281.76 409.85 11
1 -2 2 15060.66 466.78 11
1 -2 -2 15428.43 469.92 17
2 -1 2 14776.16 505.18 9
-1 2 -2 15453.85 440.18 6
-1 2 -2 16210.1 494.89 1
1 -2 -2 15712.75 387.89 1
2 -1 -2 14421.91 497.01 5
-2 1 2 15747 520.22 10
2 -1 -2 15932.93 451.81 6
-2 1 -2 15121.47 477.43 1
1 -2 -2 15888.32 513.83 8
-2 1 -2 15536.88 519.11 4
-2 1 2 14346.59 503.26 14
1 -2 2 16100 527.2 3
2 -1 2 16574.5 256.03 5
2 -1 -2 15498.51 517.07 7
2 -1 -2 17752.52 475.65 13
-1 2 2 16461.36 523.86 10
2 -1 2 16629.7 452.98 13
1 -2 -2 15575.55 454.62 6
-1 2 2 15226.77 496.85 2
1 -2 -3 603.01 80.98 13
2 -1 -3 603.1 115.25 7
2 1 3 637.35 121.25 11
-1 -2 -3 571.42 110.48 1
-1 2 -3 656.28 113.24 6
-2 1 -3 588.25 72.17 7
1 -2 3 685.93 115.31 3
2 -1 3 628.14 114.68 9
-1 2 3 580.88 113.94 2
2 -1 3 643.62 115.38 11
2 -1 -3 687.68 93.08 13
1 2 3 647.46 117.71 2
-2 1 3 675.94 106.49 12
-2 1 3 700.76 107.94 11
1 2 3 572.89 80.15 12
-1 2 3 593.35 91.52 12
2 1 3 625.03 111.24 2
2 -1 3 666.23 70.58 17
1 2 3 642.13 89.32 9
-2 1 -3 557.93 107.46 1
2 -1 -3 566.03 109.14 5
1 -2 3 595.43 108.12 11
-1 2 -3 588.09 112 4
2 1 3 564.96 99.23 9
1 -2 -3 641.14 95.72 17
1 2 3 781.46 130.77 11
-1 2 3 536.33 107.45 14
-2 1 3 665.12 120.97 2
-1 2 -3 563.73 75.21 12
2 -1 3 693.04 92.06 2
1 -2 3 644.31 118.23 9
-2 1 3 642.98 121.3 14
-1 2 3 609.33 104.79 11
2 -1 -3 661.49 111.29 6
1 -2 -3 650.78 111.17 8
-2 -1 -3 607.81 115.54 6
-2 1 3 687.25 119.3 10
-2 1 -3 652.68 115.06 4
-2 1 -3 606.39 102.84 6
1 -2 -3 528.52 89.98 1
2 1 3 562.43 112.45 16
-1 2 3 664.75 113.83 10
-2 -1 -3 575.64 109.72 1
-1 -2 -3 691.84 87.84 4
-1 2 -3 677.83 117.78 1
1 2 3 663.36 116.83 16
-1 -2 -3 739.91 104.97 8
-2 -1 -3 643.06 101.5 4
2 -1 -3 557.24 92.26 1
-1 -2 -3 588.22 113.07 6
1 -2 -3 568.55 104.05 5
2 -1 3 685.83 90 13
-2 1 -3 620.75 66.61 12
-1 2 3 640.91 101.12 16
1 -2 -3 621.62 108.85 6
1 2 4 72.22 36.05 11
1 -2 -4 104.15 58.32 5
-2 1 -4 60.36 33.51 7
-1 2 -4 92.91 46.18 4
1 2 4 68.05 48.27 16
1 -2 4 68.63 41.52 9
2 -1 -4 76.27 36.93 1
1 2 4 39.67 40.55 2
-1 2 4 52.67 58.83 2
-2 1 4 73.69 29.07 14
2 1 -4 101.58 68.73 6
-2 1 4 47.74 44.37 11
1 -2 -4 78.32 46.34 6
2 1 4 57.58 48.59 2
1 -2 4 52.82 26.28 3
-2 1 -4 81.77 50.65 6
-1 2 -4 89.16 25.49 12
2 -1 -4 124.91 74.78 7
-1 -2 -4 29.08 8.21 6
2 1 4 90.89 31.76 9
2 -1 4 84.52 31.23 13
-2 1 4 130.5 60.7 2
-2 1 4 47.69 7.1 10
2 1 4 -2.09 20.59 11
2 -1 4 55.03 39.61 11
1 -2 -4 73.94 25.25 13
-2 -1 4 57.95 44.52 11
2 -1 -4 53.43 49.44 5
-2 1 -4 -10.83 29.02 4
-1 -2 -4 49.28 35.44 1
-2 -1 -4 93.57 50.51 6
1 2 4 50.43 23.46 12
-1 2 4 75.86 29.29 10
1 -2 -4 125.52 57.83 7
-1 2 4 52.27 33.04 14
-1 2 4 127.79 56.25 12
1 -2 -4 40.47 30.4 8
1 -2 4 11.67 10.17 11
2 -1 4 66.94 42.15 2
-2 -1 -4 52.22 39.58 4
1 2 4 57.82 35.24 9
1 -2 -4 45.02 3.67 17
2 -1 4 123.47 45.33 9
-1 -2 -4 47.93 19.91 4
2 -1 -4 21.81 21.58 6
1 -2 -4 45.38 13.57 1
-1 2 4 73.4 36.13 11
-2 1 -4 34.17 32.92 1
-1 -2 -4 53.34 34.62 8
-2 -1 -4 11.43 12.35 1
2 -1 4 -1.98 28.43 3
-2 -1 -5 364.47 86.57 4
-1 2 -5 265.94 89.34 6
-1 2 5 358.61 91.78 10
2 -1 -5 330.15 98.65 7
-1 2 -5 356.45 114.74 1
-2 1 -5 346.64 101.31 1
2 1 5 417.8 115.6 11
-2 -1 -5 320.82 107.47 1
-1 2 5 278.94 76.65 2
-2 1 5 395.39 104.83 10
-2 1 5 312.54 98.71 14
2 1 5 362.99 85.22 3
1 -2 -5 266.39 84.19 1
2 -1 5 338.51 101.98 2
-2 -1 -5 409.38 112.94 6
-2 1 -5 357.06 103.48 6
-2 1 -5 316.96 95.16 4
1 2 -5 271.58 83.62 6
1 -2 -5 367.05 122.34 7
-2 -1 5 335.79 105.03 11
1 -2 5 307.79 101.86 11
1 -2 5 486.86 130.41 9
1 -2 5 374.63 100.57 3
-1 2 5 321.39 101.03 11
1 2 5 389.02 116.02 11
-1 -2 5 418.29 121.76 11
-1 2 -5 420.78 107.18 4
1 2 -5 392.62 113.84 1
2 1 5 281.92 84.78 9
2 -1 5 384.8 107.84 3
2 -1 5 393.3 112.85 11
2 -1 -5 298.24 84.07 5
-1 -2 -5 399.33 115.74 6
1 2 5 330.86 104.64 2
-1 -2 -5 364.23 78.86 8
-1 -2 -5 408.46 119.17 1
2 -1 5 397.63 114.28 9
-2 1 5 297.53 92.11 2
2 -1 -5 321.6 101.55 6
1 -2 -5 277.15 97.53 6
2 1 5 337.72 99.56 2
-1 2 5 400.63 107.89 14
1 -2 -5 360.36 96.41 8
-2 1 5 208.17 68 11
1 -2 -5 282.41 80.81 5
2 -1 -5 284.13 81.76 1
-2 1 -5 381.81 87.43 7
2 1 -5 341.86 105.98 6
2 1 6 523.28 122.18 2
-2 1 6 549.37 141.93 14
2 -1 6 505.53 143.71 11
2 1 6 599.16 164.97 11
1 -2 6 572.5 150.15 11
2 -1 -6 691.45 161.87 6
-2 -1 6 573.37 147.61 11
-1 2 6 590.7 161.21 2
1 2 6 654.81 164.86 11
-2 1 -6 499.89 139.65 6
1 2 -6 499.21 148.75 6
1 -2 6 555.72 132.05 9
1 -2 -6 474.34 133.86 7
-2 1 6 736.33 182.63 2
-1 -2 -6 506.91 145.95 6
-2 -1 -6 516.92 150.53 6
2 -1 -6 669.91 161.02 1
-1 2 -6 737.04 172.49 6
1 -2 -6 646.57 155.07 1
-1 -2 -6 527.26 135.21 1
2 -1 6 496.69 131.36 3
1 2 -6 531.37 156.14 1
-2 1 6 508.61 125.69 11
-1 2 6 500.74 128.33 14
1 -2 -6 534.98 127.29 8
2 1 -6 473.42 140.58 6
2 -1 -6 579.86 128.15 5
1 -2 -6 431.56 129.82 6
1 2 6 488.8 136.62 2
-2 -1 -6 580.84 138.14 7
-2 1 6 547.91 128.77 10
2 -1 6 577.35 134.87 2
2 -1 6 800.42 159.13 9
2 -1 -6 611.28 139.36 18
-2 1 -6 638.72 166.85 1
-1 -2 6 561.9 149.46 11
-1 -2 -6 623.6 148.64 7
-2 -1 -6 514.41 150.26 1
-2 1 -6 505.78 122.23 4
-1 2 6 611.85 151.27 11
2 -1 -6 711.56 177.72 7
1 2 -7 740.83 203.48 6
1 2 7 793.76 199.59 2
1 -2 -7 858.07 191.7 1
-1 -2 -7 813.08 185.94 7
-2 1 7 517.32 149.19 11
-1 -2 -7 831.42 200.38 6
-2 1 -7 720.4 194.18 6
2 1 7 695.82 193.7 11
1 -2 -7 796.52 190.27 6
-1 2 7 776.8 198 2
2 1 -7 542.56 149.5 6
-2 -1 7 698.65 191.42 11
1 2 7 1093.75 235.81 11
2 -1 7 705.75 178.17 9
2 -1 7 702.32 165.15 2
1 -2 7 791.62 209.99 11
-2 1 7 649.1 176.66 2
-1 2 -7 873.16 211.88 6
2 -1 -7 746.79 176.52 18
-1 2 7 621.71 173.2 11
-2 1 -7 818.61 199.59 1
2 1 7 911.68 197.3 2
-1 2 -7 845.31 214.21 1
2 -1 -7 834.12 187.55 7
-2 -1 -7 717.64 190.87 6
2 -1 -7 896.87 209.24 6
-2 1 7 660.19 168.1 14
1 2 -7 767.72 203.56 1
2 -1 7 741.06 192.58 11
2 -1 -7 784.84 184.86 1
-1 -2 7 688.37 186.15 11
-2 -1 -7 954.03 226.94 1
-1 2 7 719.8 163.57 14
1 -2 -7 964.01 213.29 7
-1 -2 -7 798.93 181.32 1
1 -2 7 876.07 189.81 9
1 -2 8 -18.46 44.58 11
1 2 8 -61.25 45.38 11
2 1 8 64.37 66.59 2
-1 2 -8 36.67 41.58 6
1 2 8 46.67 91.8 2
-2 1 8 -78.72 89.84 2
1 -2 -8 -20.69 59.61 1
2 -1 -8 46.54 93.78 1
2 1 8 -238.36 137.51 11
-1 -2 -8 -75.79 63.32 7
2 -1 8 9.95 69.73 11
-1 2 -8 29.4 91.32 1
-2 1 -8 136 112.08 6
-2 -1 -8 -2.31 44.58 1
-2 -1 8 -3.29 40.23 11
-2 -1 -8 -38.36 58.07 6
2 -1 -8 -3.29 90.77 6
1 -2 -8 16.43 85.82 7
-2 1 8 -78.92 95.15 11
2 1 -8 28.36 55.86 6
2 -1 -8 132.68 87.91 7
1 2 -8 -76.89 110.8 6
-1 2 8 -39.42 84.11 11
1 -2 -8 -136.92 118.86 6
-1 2 8 -83.51 82.81 2
-1 -2 -8 108.51 87.73 1
-2 1 -8 5.48 65.71 1
-1 -2 -8 -9.82 61.2 6
-1 -2 8 -29.06 35.25 11
-2 2 0 80297.61 1053.72 10
-2 2 0 78626.75 1102 12
2 -2 0 76387.88 960.37 9
2 -2 -1 14.94 1.34 13
2 -2 -1 0.05 6.27 7
-2 2 1 -5.1 11.54 2
-2 2 -1 17.39 16.13 6
2 -2 1 19.66 17.88 9
-2 2 -1 10.31 16.74 12
-2 2 1 -2.92 9.62 12
-2 2 1 14.33 34.7 10
2 -2 1 6.19 11.89 8
-2 2 1 15.48 18.84 15
2 -2 -1 7.42 11.38 6
-2 2 1 -4.52 6.48 14
2 -2 1 24.86 14.55 11
-2 2 -1 25.18 22 4
-2 2 -1 2.2 4.97 1
2 -2 -1 1 7.12 9
2 -2 1 -10.64 21.05 17
-2 2 -1 -8.44 7.31 10
2 -2 -1 8.25 10.08 5
-2 2 1 -11.68 10.49 4
2 -2 2 4169.04 291.31 9
2 -2 -2 4609.47 265.27 13
2 -2 2 4245.36 244.58 11
-2 2 2 4248.31 201.32 11
-2 2 2 4166.5 275.36 12
-2 2 2 4380.23 294.59 10
-2 2 -2 4758.54 197.14 10
2 -2 -2 4477.39 128.22 9
-2 2 2 4123.46 262.77 2
2 -2 -2 4027.61 287.35 5
-2 2 -2 4273.67 258.61 1
-2 2 2 4544.39 168.55 4
-2 2 -2 4185 292.03 4
2 -2 2 4890.11 190.73 8
2 -2 -2 4013.45 180.78 1
2 -2 2 4374.7 242.63 17
-2 2 2 4084.52 290.67 14
-2 2 -2 4209.46 236.71 12
-2 2 -2 4123.6 220.97 6
-2 2 2 4655.84 197.61 16
2 -2 -2 4287.76 228.26 6
2 -2 -2 4241.89 286.75 7
2 -2 -3 13.71 22.45 13
-2 2 3 11.09 19.8 16
-2 2 3 14.17 20.63 11
2 -2 -3 -10.62 34.67 7
2 2 3 -8.6 8.82 2
2 2 3 11.96 22.21 11
2 -2 3 12.91 12.12 3
-2 2 -3 -14.83 16.69 6
-2 -2 -3 -3.28 16.27 1
2 -2 3 -13.01 15.57 11
-2 2 -3 17.82 20.22 12
2 -2 3 -6.48 9.16 5
-2 2 3 -23.55 19.64 2
2 -2 3 4.98 10.75 17
-2 2 3 20.88 29.17 12
2 -2 -3 -24.96 32.18 5
-2 2 -3 -8.19 34.71 1
2 2 3 20.51 24.5 9
2 -2 3 20.42 22.07 9
-2 -2 -3 37.07 36.27 4
2 -2 -3 -8.75 26.09 6
2 -2 -3 36.83 32.41 1
-2 2 -3 -12.18 25.28 4
-2 2 3 -2.05 10.53 14
-2 2 3 -17.29 2.17 10
-2 2 4 24932.35 857.75 14
-2 2 4 28512.8 775.44 12
2 2 4 25319.25 873.11 16
2 -2 -4 27004.06 827.59 6
2 -2 4 27110.16 864.01 11
-2 2 4 25578.56 761.62 11
2 2 4 29130.2 941.31 11
-2 -2 -4 26130.1 881.9 1
-2 -2 -4 26842.4 703.55 4
-2 2 -4 24200.62 827.18 1
2 -2 -4 27898.15 764.03 1
2 -2 4 28338.33 905.75 9
2 -2 5 -75.36 64.6 3
2 -2 5 44.26 42.75 11
2 2 5 -22.55 38.42 9
-2 2 -5 -46.59 32.15 1
-2 2 5 26.3 23.55 10
-2 2 -5 -59.58 33.34 4
2 -2 -5 -59.36 52.6 1
-2 -2 -5 9.69 30.01 1
2 -2 -5 -8.03 3.48 7
2 -2 -5 -45.12 34.26 6
-2 2 -5 -2.44 25.52 6
2 -2 5 21.36 14.96 2
2 -2 -5 39.49 41.69 5
-2 2 5 -5.28 35.44 11
-2 -2 -5 -40.33 59.14 6
2 2 5 -14.33 38.06 11
2 2 5 28.48 60.24 2
2 -2 5 -20.41 4.97 9
-2 2 5 -13.03 20.82 2
2 -2 -5 14.19 27.16 8
-2 2 5 35.14 15.66 14
2 -2 -6 812.4 169.85 5
2 -2 -6 788.31 191.06 7
2 2 6 795 200.86 11
-2 2 6 748.54 189.57 2
2 -2 -6 812.41 162.21 8
2 -2 -6 909.36 181.29 6
-2 2 6 760.39 170.32 11
-2 2 6 761.83 163.6 10
-2 2 -6 582.07 145.67 6
2 -2 -6 844.14 173.08 1
-2 2 6 877.3 182.55 14
-2 2 -6 771.27 165.8 4
2 -2 6 694.73 161.24 9
-2 2 -6 813.98 182.74 1
2 -2 6 665.96 169.31 11
2 -2 6 788.64 172.24 3
2 2 7 -34.45 57.9 11
2 -2 -7 -8.07 44.06 1
-2 2 7 -74.81 69.39 11
2 -2 7 27.04 62.04 11
-2 -2 -7 -39.02 18.69 6
-2 2 -7 31.66 57.7 6
2 -2 -7 40.42 39.06 6
2 -2 7 72.31 74.96 3
-2 2 -7 -113.41 78.78 1
2 2 7 -57.1 94.97 2
-2 -2 -7 18.1 23.67 1
2 -2 7 1.13 48.38 9
-2 -2 -7 15.49 47.36 7
-2 2 7 35.39 81.28 2
-2 2 7 -117.59 72.46 14
2 -2 -7 -34.36 10.98 7
2 2 8 92.17 57.47 2
-2 -2 -8 268.17 75.36 6
-2 2 8 284.86 112.87 11
-2 2 -8 311.8 145.91 6
2 -2 -8 212.32 104.73 6
2 -2 8 210.09 113 11
-2 2 8 286.01 139.98 14
2 2 8 191.35 105.1 11
-2 2 -8 226.03 125.29 1
-2 2 8 448.86 180.5 2
-2 -2 -8 248.51 123.66 1
2 -2 -8 222.69 110.47 7
-3 0 0 3.48 14.49 4
3 0 0 27.07 14.15 16
-3 0 -1 8809.47 395.01 4
3 0 1 10360.37 410.48 13
-3 0 -1 8677.85 356.99 1
0 3 1 9151.25 391.77 12
3 0 1 8328.86 385.43 9
0 3 1 9074.95 379.91 2
0 -3 -1 10353.05 430.52 8
3 0 1 6724.95 293.97 16
0 3 2 3780.1 274.12 10
-3 0 2 3518.32 270.18 10
0 -3 -2 2638.96 196.8 1
0 3 2 2958.68 243.88 2
0 3 2 3225.26 233.19 12
3 0 -2 3183.9 258.06 18
0 -3 -2 3702.1 251.69 17
0 -3 -2 3769.99 274.97 8
-3 0 3 22825.08 744.71 10
0 3 3 28000.13 786.02 10
3 0 3 21530.92 723.55 9
0 3 3 23268.81 643.05 12
3 0 -3 23078.1 765.25 7
3 0 3 25933.91 780.94 11
0 3 3 26591.78 743.86 11
0 -3 -3 24864.89 659.5 17
0 -3 -3 23475.98 669.23 1
3 0 -3 23863.8 772.42 18
0 -3 -3 26685.99 770.5 8
3 0 4 -27.9 37.56 9
-3 0 4 -25.38 29.77 10
3 0 -4 -24.24 30.95 7
0 -3 -4 -11.9 42.58 1
0 3 4 -21.16 34.15 11
0 -3 4 -6.87 37.02 11
0 3 4 -76.39 58.39 2
0 3 4 18.03 12.84 12
3 0 -4 104.35 45.64 18
3 0 4 43.48 59.11 11
0 -3 -4 27.75 22.51 8
-3 0 -4 23.88 34.39 1
-3 0 4 -0.62 21.81 11
-3 0 -4 1.31 9.56 6
0 3 4 -28.03 30.3 16
-3 0 -4 -39.91 40.02 4
3 0 4 -8.57 13.06 2
0 -3 -4 -27.59 32 6
3 0 -5 7009.43 490.84 18
0 3 5 7542.68 458.49 10
3 0 5 6139.72 451.46 9
-3 0 -5 6709.49 480.8 6
3 0 5 7445.06 520.98 11
0 -3 5 6331.05 479.63 11
0 3 5 7356.39 497.46 11
-3 0 5 6332.88 449.03 10
-3 0 5 6478.33 459.69 11
-3 0 -5 5795.88 420.17 4
0 3 5 6328.72 488.24 2
-3 0 -5 6326.09 483.99 1
3 0 5 7019.72 441.85 2
3 0 -5 6932.21 504.84 7
0 3 5 6454.37 460.1 16
0 -3 -5 7001.66 451.86 8
0 -3 -5 6580.29 455.2 1
3 0 -5 6750.88 486.47 6
0 -3 -5 6486.7 482.51 6
0 3 -5 6892.19 510.86 1
3 0 -6 207.5 105.43 7
0 3 6 69.17 36.28 2
3 0 6 276.03 100.48 2
-3 0 -6 136.65 87.48 1
3 0 -6 103.78 72.95 6
0 -3 -6 137.49 87.63 6
-3 0 6 95.81 38.56 10
3 0 6 107.21 44.89 11
3 0 6 144.41 62.96 3
0 3 6 141.48 95.45 11
-3 0 6 252.11 109.39 11
0 -3 6 150.43 83.01 11
-3 0 -6 129.87 63.23 6
-3 0 -6 213.82 87.62 4
0 -3 -6 216.26 98.7 1
3 0 6 283.02 104.21 9
0 -3 -6 151.07 93.41 7
0 3 -6 212.89 91.45 1
0 -3 7 95.02 71.49 11
0 -3 -7 -46.51 74.99 6
0 3 -7 141.31 102.44 1
-3 0 -7 102.6 67.95 6
-3 0 -7 70.42 19.38 1
0 3 7 -22.08 12.81 11
3 0 7 11.99 44.97 11
3 0 -7 -15.27 65.46 7
0 3 7 -22.87 56.89 2
0 -3 -7 94.44 42.99 7
0 -3 -7 24.01 33.65 1
0 3 8 -1.84 73.9 11
0 -3 -8 -38.06 52.12 6
0 -3 -8 -119.15 116.26 7
3 0 8 111.49 83.43 11
-3 0 -8 -105.14 113.06 6
0 -3 -8 -55.95 18.14 1
0 -3 8 -45.57 80.37 11
-3 0 8 88.79 52 11
0 3 8 40.61 98.42 2
3 0 -8 68.32 104.41 6
-3 0 -8 -47.81 24.78 1
3 0 -8 -58.89 35.68 7
-3 1 0 17385.78 472.77 14
-1 3 0 17957.68 571.41 12
-3 1 0 19159.5 407.06 1
-1 3 0 20870.15 593.52 10
-1 3 0 18499.18 526.49 4
3 -1 0 19588.68 545.26 5
3 -1 0 17548.78 512.18 9
-3 1 0 17281.99 517.44 10
3 -1 0 18193.29 499.85 18
1 -3 0 20312.36 578.06 8
1 -3 0 19984.96 530.96 3
1 -3 0 19846.59 590.85 17
3 -1 0 20195.63 602.1 13
-3 1 0 19492.82 578.39 12
-3 1 1 5151.82 291.42 14
3 -1 -1 5231.85 284.44 7
1 -3 1 6236.93 325.93 17
3 -1 1 5888.01 322.23 13
-3 1 1 5676.49 330.88 12
-1 3 1 5318.04 314.93 12
-1 3 -1 5802.99 314.69 12
3 -1 -1 6610.11 344.3 13
1 -3 1 5823.82 324.14 3
1 -3 -1 5919.79 249.47 3
3 -1 1 5706.08 266.88 5
-3 1 1 5348.17 316.69 10
3 -1 1 6286.18 261.62 11
-1 3 1 6332.53 343.79 10
1 -3 -1 6036.44 211.32 1
3 -1 -1 5823.46 327.28 5
-3 1 -1 5395.23 261.15 1
-3 1 -1 6034.58 309.25 12
-1 3 1 5360.61 275.74 2
1 -3 -1 6076.43 333.29 17
1 -3 1 5862.72 324.33 9
-3 1 1 5542.86 276.22 4
3 -1 1 5399.94 311.44 9
-3 1 -1 5416.22 320.25 4
3 -1 -1 5119 255.2 9
-1 3 -1 5356.5 316.54 4
1 -3 -1 5445.17 321.84 8
-3 1 -1 5546.5 263.08 10
-3 1 -1 5654.84 323.64 15
3 -1 -2 3784.49 200.08 9
-3 1 -2 4398.87 196.14 10
3 -1 -2 4774.31 301.43 13
-1 3 2 4855.86 321.4 10
1 -3 -2 4422.08 292.4 17
3 -1 2 4593.62 273.15 11
-3 1 -2 4648.62 256.01 12
-1 3 2 4236.93 282.65 12
1 -3 -2 4182.44 251.3 6
1 -3 -2 4434.52 308.89 8
-1 3 2 4543.25 236.67 11
1 -3 2 4560.26 317.29 3
-3 1 2 4123.05 220.26 11
1 -3 2 4100.57 259.95 11
1 -3 2 4562.98 315.1 9
-3 1 -2 4227.67 239.86 6
-3 1 2 4278.06 226.48 4
-3 -1 -2 4300.91 302.4 1
3 -1 -2 4400.1 315.58 5
1 3 2 4155.36 303.7 2
3 -1 2 4269.17 273.89 13
-3 1 -2 3957.04 266.06 1
3 1 2 3940.87 287.85 9
3 -1 2 3898.87 290.63 9
-1 3 2 4235.46 286.7 2
-1 3 -2 4095.31 261.81 12
-3 1 -2 4249.25 304.4 4
-3 1 2 4153.35 290.52 12
-3 -1 -2 4359.81 295.22 4
3 -1 -2 4258.01 293.07 7
-3 1 2 4075.58 297.44 10
-1 3 -2 4571.65 317.31 4
-3 1 2 3678.59 284.95 14
-1 -3 -2 4356.18 194.99 15
3 1 3 2470.55 251.59 16
-1 3 3 2831.75 261.95 10
1 -3 -3 3547.11 263.11 17
3 -1 -3 2733.15 254.86 5
3 1 3 2646.37 236.18 2
-3 1 3 2607.68 212.78 11
1 -3 3 2680.12 247.11 11
-3 1 -3 2761.23 230.55 6
3 -1 -3 2639.17 229.86 6
1 3 3 3189.27 273.47 11
-1 3 3 3032.47 231.83 11
1 -3 3 3048 279.25 3
3 -1 3 3080.59 259.63 11
-3 1 3 2519.14 252.59 10
1 3 3 2722.06 217.12 12
1 -3 -3 2656.89 234.37 6
-1 3 -3 2872.71 256.08 1
-1 -3 -3 2455.48 234.22 1
-3 -1 -3 2736.9 265.01 1
-3 1 -3 2648.43 137.93 7
-1 3 3 2670.84 229.44 12
1 3 3 2587.72 262.9 2
3 1 3 2498.01 244.64 9
1 -3 -3 2679.21 205.69 1
3 -1 3 2612.12 259.05 9
1 -3 3 2889.4 273.64 9
3 -1 3 2671.53 188.04 2
-1 3 3 2441.81 222.37 16
-3 -1 -3 2717.53 246.41 4
-3 1 3 2915.15 264.57 2
3 1 3 3126.82 281.76 11
-3 1 -3 2867.01 261.8 4
-3 1 -3 2706.53 99.52 10
-1 3 -3 2795.6 264.7 4
1 -3 -3 2893.1 268.92 8
-1 3 3 2694.35 253.71 2
-3 1 -3 2657.81 251.42 1
3 -1 3 2844.19 221.49 13
3 -1 -3 2827.13 269.17 7
-3 1 3 2575.49 256.82 14
-1 3 -3 2778.13 214.38 12
3 1 4 111.51 32.31 2
-3 1 4 96.06 49.03 14
3 1 4 122.96 55.76 11
1 -3 4 62.59 39.2 3
-3 1 -4 132.27 66.99 6
-1 3 -4 143.09 59.48 6
-1 -3 -4 128.46 62.93 1
1 -3 -4 105.4 56.23 17
-1 3 -4 100.86 42.86 12
-1 3 -4 174.09 73 4
3 -1 4 98.95 46.11 2
-1 3 4 176.94 59.23 12
-1 -3 -4 109.2 63.02 6
-3 -1 -4 223.73 88.04 6
-1 3 -4 85.21 37.73 1
1 3 4 62.93 53.5 16
-3 1 -4 112.11 65.27 1
-3 -1 -4 234.11 94.98 1
-1 3 4 121.24 40.71 11
3 -1 4 95.08 51.58 11
-3 1 4 51.97 40.3 2
-3 1 4 107.69 53.06 11
1 -3 4 85.27 48.93 11
3 -1 -4 70.7 44.78 6
-1 3 4 89.9 45.79 16
-1 3 4 80.93 44.98 10
-3 1 4 124.98 57.39 10
1 -3 -4 111.52 48.4 1
3 -1 4 179.1 56.16 13
1 3 4 150.31 62.12 11
1 3 4 85.58 33.19 9
-3 1 -4 124.87 54.03 4
3 1 4 79.55 45.68 9
3 -1 -4 63.65 31.66 5
3 -1 4 130.01 68.94 9
1 -3 -4 92.59 41.75 8
-1 -3 -4 124.84 54.59 8
1 -3 -4 144.85 66.73 6
1 -3 4 150.3 66.27 9
1 3 4 49.72 49.71 2
-3 -1 -4 106.34 57.25 4
1 3 4 78.77 31.48 12
3 -1 -4 124.62 67.12 7
-1 3 4 149.12 62.21 2
-1 3 5 483.1 122.04 10
1 -3 -5 613.82 151.2 7
3 -1 5 514.17 127.54 3
3 -1 -5 439.91 123.73 7
3 -1 5 495.26 134.44 11
3 -1 5 473.25 103.64 2
-3 1 5 474.15 126.66 2
-3 1 5 302.07 105.94 14
-3 -1 -5 475.14 130.7 6
-1 3 -5 414.93 119.57 4
-3 -1 -5 480.01 137.58 1
1 -3 -5 466.51 124.49 6
-3 1 -5 390.81 117.04 6
1 3 5 551.65 138.11 11
-1 3 -5 364.41 98.32 6
3 1 5 451.69 124.24 11
-1 3 5 464.7 109.4 11
1 3 5 303.74 97.62 16
1 -3 5 358.1 122.14 11
3 -1 -5 597.16 145.98 6
1 -3 -5 472.4 131.35 5
1 -3 5 502.31 129.52 3
-3 1 5 388.51 118.85 10
-3 -1 -5 397.16 105.83 4
-1 3 5 526.38 139 2
1 3 5 527.19 137.16 2
3 1 5 537.33 132.44 9
3 -1 -5 348.58 102.22 5
-1 -3 -5 454.17 122.83 6
3 -1 -5 582.03 146.23 18
-1 -3 -5 548.68 116.14 8
3 -1 5 421.82 116.22 9
-3 1 -5 453.48 132.45 1
-3 1 -5 300.97 96.26 4
1 -3 5 534.34 136.03 9
1 -3 -5 465.26 122.43 8
1 -3 -5 579 127.5 1
-3 1 5 495.82 121.97 11
3 1 5 392.24 113.27 2
-1 3 -5 548.53 139.44 1
-1 -3 -5 268.62 91.27 1
3 1 6 323.61 110.29 2
-3 1 6 204.97 69.86 14
-1 3 -6 176.19 83.43 6
-3 1 -6 310.36 90.89 4
-1 -3 -6 383.76 148.12 6
-1 3 -6 175.04 72.7 4
1 -3 -6 217.3 82.96 8
-1 -3 -6 226.54 95.54 1
1 -3 6 263.26 123.96 11
3 -1 6 280.85 103.16 3
3 1 6 162.5 84.04 11
-1 3 6 119.09 75.47 11
3 -1 6 251.32 94.2 11
-3 1 6 195.65 73.96 11
3 -1 -6 297.93 108.18 6
-3 1 6 270.83 100.47 2
1 3 6 252.03 91.71 2
-1 3 6 279.54 103.23 10
-1 3 -6 223.32 95.68 1
1 -3 -6 246.65 108.45 7
-1 3 6 221.44 96.46 2
-3 1 6 270.94 111.79 10
1 -3 -6 143.32 82.38 5
1 -3 -6 153.91 82.65 6
-3 -1 -6 168 80.78 1
3 1 6 215.96 92.8 9
3 -1 -6 258.52 93.72 5
3 -1 6 213.01 84.08 9
3 -1 -6 279.69 90.88 18
1 -3 6 233.87 87.28 9
-3 -1 -6 152.64 88.81 6
1 3 6 147.85 90.97 11
1 -3 -6 292.35 100.15 1
-3 1 -6 257.7 107.45 6
-3 1 -6 229.18 117.17 1
1 3 7 85.3 46.17 2
3 1 7 96.31 61.01 11
3 1 7 9.74 45.4 2
1 -3 -7 98.95 90.25 6
3 -1 -7 170.31 76.97 7
-1 3 7 203.59 53 2
1 -3 7 156.94 91.36 9
-1 -3 -7 104.37 64.83 6
-3 -1 -7 398.01 162.43 6
1 -3 -7 165.21 45.35 7
-1 3 7 189.93 66.03 11
-3 1 -7 255.16 110.2 6
3 -1 7 175.9 121.68 11
3 -1 -7 142.39 106.78 6
-3 1 7 279.3 127.4 11
1 -3 7 32.05 51.47 11
-1 3 -7 338.73 134.95 6
1 -3 -7 291.81 114.25 1
3 -1 7 127 83.79 9
-3 -1 -7 249.93 110.14 1
-1 -3 -7 84.86 73.17 1
-1 -3 -7 44.48 52.36 7
1 3 7 146.4 96.19 11
-1 3 -7 257.4 136.82 1
-3 1 -7 142.66 54.8 1
3 -1 -7 182.88 82.98 18
-3 1 7 77.2 64.76 14
-3 -1 -8 160.29 45.7 1
-3 1 8 170.47 109.72 14
1 -3 -8 214.85 115.5 7
-1 -3 -8 155.59 77.66 6
1 -3 8 351.52 166.91 11
1 -3 -8 181.08 92.02 6
3 -1 8 190.73 119.21 11
3 -1 -8 202.64 121.47 6
1 3 8 114.95 93.3 11
3 1 8 187.73 137.97 11
-1 3 8 334.65 130.8 11
-3 1 -8 242.9 134.95 6
-3 -1 -8 243.68 117.81 6
-1 3 -8 217.21 126.05 6
-1 3 -8 68.56 24.13 1
-3 1 8 35.33 32.91 11
3 -1 -8 179.57 96.46 7
-3 1 -8 265.49 136.1 1
-1 3 8 171.09 77.78 2
-1 -3 -8 211.75 109.63 1
-1 -3 -8 254.25 135.9 7
3 1 8 194.19 103.76 2
1 3 8 76.5 80.55 2
2 -3 0 -11.25 18.24 3
-2 3 0 -3.91 14.64 12
2 -3 0 -5.98 4.39 11
-2 3 0 -18.77 16 10
-3 2 0 20.2 20.44 10
-3 2 0 -2.56 13.41 15
3 -2 0 -30.93 28.61 5
2 -3 0 -9.7 18.22 8
3 -2 0 11.99 19.28 9
3 -2 0 -6.57 7.37 7
2 -3 0 -5.79 10.52 9
-2 3 0 2.9 5.95 2
2 -3 0 -9.17 23.83 17
-3 2 0 12.15 15.08 4
-3 2 0 13.18 13.35 12
3 -2 0 1.33 20.88 13
-2 3 0 -2.34 11.59 4
-3 2 0 7.7 5.84 1
-3 2 -1 8619.4 405.04 12
3 -2 1 10097.77 453.97 13
-2 3 -1 9242.86 426.6 12
-2 3 1 8924.69 439.31 12
2 -3 1 9941.66 445.27 17
2 -3 -1 9941.09 359.41 3
-2 3 -1 10425.58 407.6 10
-2 3 1 10313.81 463.83 10
-3 2 -1 9266.93 367.55 10
3 -2 1 10075.73 379.19 5
-3 2 -1 9281.55 219.18 6
3 -2 1 9157.93 427.07 9
-2 3 1 9311.96 351.39 2
2 -3 -1 9117.62 320.59 9
-3 2 -1 9515.7 322.41 1
2 -3 -1 9588.28 453.92 17
-3 2 -1 9227.4 442.7 4
-2 3 1 9462.81 358.85 4
2 -3 -1 9972.64 454.88 8
-2 3 1 10343.1 284.49 15
3 -2 -2 25842.67 734.02 7
2 -3 -2 26006.39 589.08 6
2 -3 2 26107.69 705.36 17
-2 3 2 25489.15 757.44 12
-2 3 -2 25267.35 690.39 12
2 -3 2 24534.7 615.78 11
-3 2 -2 27059.17 548.8 10
-2 3 2 26453.89 799.18 10
-3 2 2 25497.84 785.31 10
3 -2 2 26487.28 540.63 5
-3 2 2 25077.1 768.18 14
2 -3 -2 25657.45 751.76 17
3 -2 2 24537.67 769.47 9
2 -3 2 27138.06 801.96 9
-3 2 -2 25033.88 655.16 1
2 -3 -2 26393.98 429.23 1
-3 2 2 27042.94 706.69 2
-3 2 -2 25331.83 776.63 4
-2 3 -2 25775.21 788.46 4
2 -3 -2 25761.49 790.86 8
3 -2 2 26808.1 522.46 8
3 -2 2 25950.37 737.48 13
-3 2 3 373.37 97.37 14
-2 -3 -3 355.55 99.77 1
-3 2 3 501.09 110.89 12
2 -3 -3 413.53 94.81 17
-3 2 3 449.83 105.71 2
3 -2 -3 419.59 94.18 13
2 -3 -3 439.7 88.06 13
-2 3 3 399.92 101.07 2
3 -2 3 423.68 92.8 13
2 -3 -3 349.74 66.36 1
2 -3 -3 532.32 115.35 7
-3 2 -3 471.26 86.72 12
-2 3 -3 408.02 109.56 4
-2 3 3 536.21 107.66 12
2 -3 -3 505.9 119.02 8
-2 3 -3 380.45 81.68 12
2 -3 -3 452.61 93.66 6
-3 2 -3 414.41 84.32 6
-2 3 3 467.2 85.23 11
3 -2 3 417.59 96.47 11
-3 2 3 496.34 84.5 11
3 -2 -3 432.39 87.55 6
2 -3 3 493.42 115.82 3
2 -3 3 369.11 82.24 11
-2 3 -3 382.83 89.23 6
-2 3 -3 462.28 105.95 1
-2 3 3 482.74 113.23 10
2 3 3 356.01 99.81 2
-3 -2 -3 462 107.91 1
2 -3 -3 474.64 114.11 5
-3 2 -3 379.94 101.54 4
3 -2 -3 492.32 115.27 7
-3 2 3 306.44 83.95 10
3 -2 -3 482.06 115.47 5
3 -2 3 408.46 112.97 9
3 -2 3 441.37 64.62 2
-3 2 3 408.57 57.96 4
3 2 3 376.98 100.25 2
2 -3 3 474.71 118.54 9
-3 2 -3 362.92 91.05 1
3 -2 3 370.86 74.54 17
2 -3 3 476.49 91.51 17
-2 3 3 472.9 87.36 16
-3 2 4 71.25 45.17 14
-3 2 -4 18.22 26.07 4
3 -2 -4 45.51 17.29 13
-3 2 4 118.23 68.74 2
3 -2 4 44.11 29.86 13
-2 3 -4 51.17 27.97 4
-3 2 4 89.08 46.42 12
2 -3 -4 84.22 39.84 13
3 2 4 145.73 67.93 11
-3 -2 -4 39.6 39.05 6
2 -3 4 2.64 37.1 3
2 3 4 76.53 48.3 11
3 -2 4 83.15 53.19 3
-2 3 -4 104.33 54.01 1
-3 2 -4 74.18 53.91 6
-2 3 4 47.56 30.16 11
3 -2 4 185 66.84 11
2 -3 -4 129.3 50.38 1
3 -2 -4 32.34 19.61 6
2 -3 4 51.61 17.78 11
-2 3 -4 -4.19 10.51 6
-3 2 4 67.41 41.76 11
-2 3 4 40.27 36.48 10
-2 3 4 27.14 24.91 2
-3 2 4 100.83 42.85 10
2 -3 -4 59.64 49.68 8
2 -3 -4 57.91 49.43 7
3 -2 -4 54.1 50.2 5
3 -2 4 35.76 56.42 9
3 2 4 106.28 56.6 9
-2 3 4 72.32 52.78 12
2 3 4 47.09 26.08 9
2 -3 4 -5.99 26.07 9
2 -3 -4 91.6 60.64 5
3 2 4 33.57 37.58 2
2 3 4 65.36 40.09 2
-2 -3 -4 29.73 7.54 4
-3 -2 -4 43.54 27.13 4
-3 -2 -4 26.17 33.63 1
3 -2 -4 36.79 10 7
2 -3 -4 69.89 38.52 6
2 -3 -4 76.84 45.43 17
-2 -3 -4 73.58 54.33 6
-2 3 4 168.48 53.61 16
-2 -3 -4 92.16 61.29 1
-3 2 -4 79.12 61.03 1
-2 -3 -5 57.16 33.33 6
-3 2 -5 138.07 57.72 4
3 -2 -5 141.19 87.36 7
-2 3 5 152.75 78.06 14
-3 -2 -5 194.84 90.1 1
-2 3 5 87.35 74.41 2
-3 2 -5 161.44 71.05 1
-3 -2 -5 21.33 30.51 6
2 3 5 120.94 66.1 11
3 2 5 127.4 68.17 11
2 -3 -5 93.31 42.67 6
-3 2 5 185.82 81.94 2
-3 2 -5 133.61 61.34 6
-2 3 5 110.75 61.14 11
3 -2 5 46.4 25.08 11
-3 2 5 63.37 61.44 11
3 -2 -5 107.3 53.24 6
2 -3 5 81.98 36.75 11
2 -3 -5 1.36 54.85 5
-2 3 -5 48.41 47.97 6
-2 3 -5 234.68 102.33 1
2 -3 5 126.19 43.75 3
2 3 5 94.7 55.73 16
-2 3 -5 176.91 85.35 4
2 -3 -5 117.04 67.99 7
-2 3 5 140.97 69.67 10
3 -2 -5 122.92 57.01 1
-3 -2 -5 217.21 83.17 4
-3 2 5 116.43 67.25 10
-2 -3 -5 161.92 85.58 1
3 -2 -5 51.68 34.85 5
3 -2 5 84.73 60 3
3 2 5 143.01 86.62 9
-3 2 5 141.62 100.83 14
2 -3 -5 146.65 52.79 1
3 -2 5 104.01 73.48 9
2 -3 5 24.06 20.3 9
2 3 5 87.55 60.27 2
3 2 5 144.65 73.11 2
2 -3 -5 51.97 42.76 8
3 -2 -6 1540.04 253.18 6
-3 2 -6 1793.91 264.61 6
-2 3 6 1641.6 245.24 11
3 2 6 1687.47 286.87 11
2 -3 -6 1707.53 256.97 5
-2 -3 -6 1582.26 267.55 6
2 -3 -6 1580.98 275.76 7
-3 -2 -6 1272.36 245.79 6
2 -3 6 1452.18 252.82 11
3 -2 6 1689.52 274.12 11
2 -3 6 1716.25 265.04 3
2 3 6 1609.91 269.41 11
-3 -2 -6 1306.43 245.58 1
-2 3 6 1529.02 241.56 10
-3 2 6 1575.24 256.78 10
3 -2 -6 1763.83 259.35 5
-3 2 6 1565.15 270.76 14
-3 2 6 1439.02 231.32 11
2 -3 -6 1576.85 248.77 6
-2 -3 -6 1732.72 274.53 1
3 -2 6 1714.31 278.17 9
2 -3 6 1739.89 278.1 9
2 3 6 1366.74 248.83 2
-2 3 -6 1541.94 250.88 6
-2 3 6 1656.29 281 2
-3 2 6 1530.36 283.08 2
3 2 6 1490 241.33 2
-3 2 -6 1541.83 266.09 1
3 -2 6 1939.03 284.47 3
-3 2 -6 1512.09 242.67 4
3 -2 -6 778.59 249.99 8
-2 3 -6 1593.25 257.18 4
2 -3 -6 932.34 249.06 8
-2 3 -6 1426.82 260.28 1
3 -2 -6 1788.59 294.43 7
2 3 7 280.02 124.24 2
3 2 7 247.25 115.84 2
-3 2 7 101.51 52.03 14
-3 -2 -7 249.88 110.67 1
2 -3 -7 274.35 86.9 7
3 -2 -7 98.61 29.89 7
2 3 7 236.61 103.38 11
-2 3 -7 88.57 64.93 4
3 -2 -7 217.35 91.92 18
-2 3 7 200.4 136.21 2
-3 2 -7 281.94 128.64 4
-2 -3 -7 164.41 89.37 6
-3 -2 -7 114.61 84.95 6
3 2 7 132.41 107.77 11
-2 3 7 239.68 86.16 11
2 -3 -7 269.88 116.69 6
3 -2 7 358.91 140.48 11
-3 2 7 146.29 108.35 11
-3 2 -7 66.73 55.1 6
2 -3 7 266.6 118.1 11
-3 2 7 136.87 127.31 2
3 -2 -7 133.36 84.93 6
-2 3 -7 312.52 125.44 6
3 -2 7 217.03 104.48 3
-2 -3 -7 321.81 134.4 1
-3 2 -7 306.22 122.08 1
-2 3 -7 139.47 74.54 1
3 -2 7 118.73 90.43 9
2 -3 7 110.1 45.25 9
3 -2 -7 82.25 113.17 8
2 3 8 234.06 134.12 2
3 2 8 -33.18 86.93 2
2 3 8 77.71 65.8 11
3 -2 8 12.15 58.09 11
2 -3 8 168.44 118.99 11
2 -3 -8 31.94 71.91 6
-3 2 -8 -53.27 61.12 6
-2 -3 -8 -31.18 48.3 7
3 -2 -8 48.38 39.66 6
-2 3 -8 14.06 22.89 6
-3 2 8 28.67 67.92 14
3 -2 -8 26.16 30.55 18
-2 -3 -8 99 48.38 1
2 -3 8 53.3 92.01 9
3 -3 0 26947.35 760.33 5
-3 3 1 7.88 4.88 15
-3 3 1 42.45 30.63 4
-3 3 -1 5.86 10.05 12
3 -3 -1 -39.56 34.22 7
-3 3 -1 -7.41 6.23 1
3 -3 1 7.32 3.25 7
3 -3 1 26.69 22.22 5
-3 3 1 -14.23 7.28 12
3 -3 -1 13.42 36.85 17
3 -3 1 -3.14 11.43 11
3 -3 -1 -20.76 21.52 13
3 -3 -1 -5.88 4.6 6
-3 3 -1 23.49 22.72 10
-3 3 1 -0.77 23.2 10
3 -3 1 -3.24 12.09 9
3 -3 -1 7.69 13.57 9
3 -3 -1 -27.85 39.34 8
-3 3 1 -1.08 22.72 2
3 -3 1 -30.02 32.68 17
3 -3 1 -26.62 32.25 8
-3 3 -1 -2.06 6.69 4
-3 3 2 2689.27 263.52 12
-3 3 -2 2369.41 161.79 6
3 -3 2 2702.56 199.01 8
3 -3 -2 2564.76 249.04 13
-3 3 -2 2451.5 231.93 12
3 -3 2 2342.25 255.55 3
-3 3 2 2375.68 127.42 11
3 -3 2 2319.36 189.21 11
-3 3 -2 2765.32 204.25 10
-3 3 2 2500.05 259.24 10
3 -3 2 2624.08 199.64 5
3 -3 -2 2577.43 259.56 5
3 -3 -2 2122.59 237.8 17
3 -3 2 2644.34 267.67 9
3 -3 -2 2533.18 156.82 9
3 -3 -2 2713.49 178.01 6
-3 3 2 2462.55 217.96 2
-3 3 -2 2542.03 208.95 1
-3 3 2 2394.41 178.66 4
-3 3 -2 2676.44 271.64 4
3 -3 -2 2354.94 254.22 8
3 -3 -2 2415.35 237.63 7
3 -3 2 2397.13 227.02 17
3 -3 -3 7.09 19.29 7
3 -3 -3 -5.78 40.3 13
-3 3 3 1.47 11.87 2
-3 3 3 -58.04 44.43 12
-3 3 -3 -4.49 34.09 12
3 -3 -3 43.52 32.5 17
3 -3 3 -90.83 61.03 3
3 -3 -3 11.45 30.28 6
3 -3 3 -3.38 18.33 11
-3 3 -3 -17.19 28.1 6
-3 3 -3 14.1 24.91 1
-3 3 3 -7.54 32.65 10
3 -3 -3 -36.36 40.55 5
3 -3 3 8.74 18.95 9
3 -3 -3 -65.25 52.97 8
-3 3 3 11.67 24.32 14
3 -3 3 17.31 30.65 17
-3 3 -3 91.52 51.58 4
-3 3 4 869.24 168.48 14
3 -3 -4 927.92 150.24 13
-3 3 4 605.37 139.57 12
-3 3 4 879.73 170.1 2
3 -3 -4 745.09 139.83 6
3 -3 4 909.47 161.96 11
3 -3 4 880.18 167.84 3
-3 3 -4 834.11 139.46 6
-3 -3 -4 850.75 242.46 1
-3 3 -4 950.05 177.14 4
-3 3 4 1056.59 190.23 10
3 -3 -4 816.81 170.57 5
-3 3 -4 886.18 167.18 1
3 -3 4 858 182.28 9
3 3 4 622.59 151.7 2
3 -3 -4 710.18 145.03 17
3 -3 -4 832.35 166.36 8
3 -3 -4 750.08 172.13 7
3 -3 4 625.43 129.98 13
-3 3 5 -61.79 53.16 14
-3 -3 -5 60.41 52.02 1
-3 3 5 -11.28 18.87 12
3 -3 -5 -45.42 72.83 7
-3 3 5 -33.81 40.71 2
3 3 5 52.94 67.3 11
3 3 5 -29.83 57.67 9
3 -3 -5 -43.8 50.78 6
3 -3 5 -43.07 43.9 11
-3 3 -5 -14.76 40.27 4
-3 3 -5 -52.09 41.74 6
3 -3 5 0.91 21.68 3
-3 3 5 45.02 58.89 10
3 -3 -5 -86.03 65.39 5
-3 -3 -5 -94.15 75.95 6
3 -3 5 -66.18 64.38 9
3 3 5 127.99 80.29 2
-3 3 -5 50.55 58.3 1
3 -3 -5 -23.79 26.02 8
3 -3 -5 20.51 13.82 17
-3 -3 -6 74.15 59.67 6
3 -3 -6 7.12 77.17 8
-3 3 -6 68.7 61.7 6
-3 -3 -6 136.84 75.8 1
3 -3 -6 -107.22 93.17 7
-3 3 6 74.28 36.78 10
-3 3 6 60.86 60.68 2
3 3 6 137.47 47.7 11
3 -3 6 82.64 57.28 11
3 -3 -6 23.58 40.72 6
-3 3 -6 116.24 77.24 1
3 -3 -6 0.98 14.62 5
3 -3 6 17.33 39.74 9
3 -3 6 12.78 37.25 3
-3 3 6 190.16 108.49 14
-3 3 -6 135.57 109.71 4
3 3 6 35.4 57.62 2
-3 3 7 210.84 115.88 14
3 -3 -7 66.9 81.22 7
-3 3 -7 -34.7 11.81 4
-3 -3 -7 94.93 87.46 6
3 -3 -7 -27.76 64.65 5
3 3 7 -17.34 52.24 11
-3 3 7 27.41 37.47 2
-3 3 -7 1.03 14.21 1
3 -3 7 54.46 108.01 11
3 -3 -7 -104.75 29.09 6
-3 -3 -7 33.16 38.26 1
-3 3 -7 6.96 62.51 6
3 -3 7 196.72 122.42 3
3 -3 -7 -3.05 61.79 8
3 3 7 -23.66 68.97 2
3 -3 7 54.88 57.25 9
3 -3 8 323.38 147.18 11
3 -3 -8 228.29 105.68 6
3 3 8 204.32 110.9 2
3 -3 8 342.27 155.67 9
4 0 1 340.47 89.58 9
-4 0 -1 374.71 90.51 4
0 4 2 2335.16 232.76 12
-4 0 -2 2346.75 228.55 1
0 4 2 2297.18 237.7 2
4 0 2 2062.9 233.77 9
-4 0 -2 2127.66 236.11 4
0 -4 -2 2522.69 256.47 8
-4 0 -2 2376.52 251.29 15
-4 0 -3 116.5 52.39 1
-4 0 -3 88.93 48.77 6
0 4 3 97.2 49.63 12
4 0 3 112.96 52.23 11
4 0 3 116.95 60.83 9
0 -4 -3 136.4 52.15 1
4 0 3 63.81 29.8 2
-4 0 -3 105.88 44.87 4
0 -4 -3 98.89 57.36 8
0 -4 -4 3624.51 340.02 6
-4 0 -4 3579.37 321.21 6
4 0 4 4303.7 377.26 11
0 4 4 3580.93 298.7 12
0 -4 -4 3653.53 312.55 1
-4 0 -4 3536.52 349.84 1
0 4 4 4225.88 349.42 11
4 0 4 3452.08 339.71 9
0 4 4 3798.16 358.19 2
4 0 4 3711.54 289.39 2
-4 0 -4 3437.85 331.53 4
0 -4 -4 4375.34 367.82 8
-4 0 -5 -23.8 29.38 6
4 0 5 84.75 66.89 11
0 -4 -5 168.72 83.28 1
-4 0 -5 59.09 59.6 1
-4 0 -5 -12.65 39.98 4
4 0 5 37.21 31.87 9
0 4 5 24.31 21.9 11
0 -4 -5 180.53 80.3 6
0 -4 -5 13.78 21.99 8
0 4 5 4.53 36.62 2
0 4 5 35.77 45.34 16
0 4 6 -3.94 45.26 2
0 -4 -6 -22.42 71.5 6
-4 0 -6 53.22 37.95 6
0 4 6 87.44 69.63 11
4 0 6 136.97 59.4 11
-4 0 -6 52.53 78.96 1
0 -4 -6 39.76 49.9 8
0 -4 -6 32.7 53.26 1
4 0 6 115.84 75.93 9
-4 0 -6 -3.18 31.75 4
0 4 6 38.73 9.45 16
0 -4 -7 11.35 41.08 7
0 4 7 -19.22 40.41 2
0 4 7 -73.28 96.2 11
0 -4 -7 125.35 99.27 6
4 0 7 53.22 42.11 11
4 0 7 109.31 99.51 9
-4 0 -7 -16.48 70.24 1
-4 0 -7 -124.18 101.33 6
0 4 8 904.8 241.58 11
-4 0 -8 438.98 154.28 6
-4 1 0 -1.32 8.71 14
-4 1 0 -12.83 13.32 12
-1 4 0 24.24 29.17 12
1 -4 0 -15.35 25.16 3
-4 1 0 8.58 18.62 10
4 -1 0 -0.94 18.15 9
4 -1 0 -37.15 35.68 5
4 -1 0 -12.42 24.26 13
1 -4 0 -18.45 13.31 17
-4 1 0 -21.06 44.27 4
1 -4 0 4.36 9.62 8
-4 1 1 19.82 26.21 14
-4 1 -1 14.63 16.86 14
4 -1 -1 -30.32 39.54 13
1 -4 1 17.99 16.98 17
-4 1 -1 -15.02 26.78 12
1 -4 -1 0.03 8.74 8
-1 4 -1 35.55 33.06 4
-1 4 1 49.03 2.82 12
-4 1 1 -32.92 44.35 12
-1 4 -1 -3.74 14.28 12
4 -1 1 32.76 30.08 13
-1 4 1 7.19 20.88 10
1 -4 1 46.14 41.67 3
-4 1 -1 16.27 22.65 10
-4 1 1 14.76 24.94 10
4 -1 -1 24.74 25.6 9
4 -1 1 21.22 36.72 9
4 -1 -1 39.03 22.89 5
-1 4 1 43.38 18.44 2
1 -4 -1 -2.83 30.31 17
-4 1 1 38.91 34.16 4
-4 1 -1 5.96 9.81 4
-4 1 -1 33.75 30.63 1
-4 1 -1 34.25 38.84 15
4 -1 -1 57.68 44.79 18
-4 1 2 7547.14 441.62 14
-1 4 2 8380.81 453.05 12
-1 4 -2 8671.67 446.31 12
1 -4 2 9536.37 501.72 3
-1 4 2 10079.8 518.87 10
-4 1 2 8247.5 473.3 10
1 -4 -2 8587.04 340.59 1
4 -1 -2 9195.93 502.87 5
4 -1 2 9246.19 295.42 2
-4 1 -2 8028.43 410.64 1
-1 4 2 8026.58 426.58 2
1 -4 2 9913.88 510.03 9
1 -4 -2 9821.84 494.61 17
4 -1 -2 7745.21 425.9 7
-4 1 2 8919.57 396.74 4
-4 1 -2 8485.97 477.02 4
-1 4 -2 9182.67 498.42 4
4 -1 -2 9027.06 492.78 18
4 -1 -2 9919.66 494.62 13
-4 1 -2 8239.42 475.54 15
-4 1 3 3076.74 305.64 14
4 -1 -3 3521.89 324.72 7
-4 1 3 3259.4 247.1 11
1 -4 3 3821.1 346.93 3
-4 1 3 3215.36 311.34 10
-1 -4 -3 3389.61 292.07 1
4 -1 -3 3861.91 342.61 5
-4 -1 -3 3084.7 302.36 1
4 1 3 3548.57 286.16 2
1 4 3 3309 320.67 2
4 1 3 2748.2 285.02 9
1 -4 3 3903.74 348.31 9
4 -1 -3 3528.77 332.93 18
-4 -1 -3 3106.54 297.46 4
-1 4 -3 3675.05 339.66 4
-1 -4 -4 119.9 65.31 1
-4 1 4 47.37 28.4 14
-4 -1 -4 108.05 34.73 1
4 -1 4 83.69 45.49 13
-1 -4 -4 57.55 47.86 6
-1 4 -4 57.73 36.41 4
-1 4 4 38.71 33.2 12
1 4 4 55.93 45.48 12
-4 -1 -4 73.43 49.42 6
-4 1 -4 122.66 68.34 6
4 1 4 112.53 71.04 11
-1 4 4 91.58 52.46 11
4 -1 4 84.29 30.32 11
1 -4 -4 82.97 47.49 1
-4 1 -4 62.01 60.23 1
-4 1 4 26.53 31.2 11
1 -4 4 83.71 42.22 11
-4 1 -4 54.91 33.46 4
-1 4 4 83.39 45.77 10
-4 1 4 53.74 12.67 10
1 -4 -4 98.15 55.44 6
4 1 4 82.61 63.48 9
4 -1 4 67.81 24.88 9
4 -1 -4 65.5 68.95 5
4 1 4 30.26 28.38 2
1 4 4 11.73 41.38 2
1 -4 4 64.52 50.14 9
-4 -1 -4 -13.41 17.07 4
1 -4 -4 61.19 44.95 17
-1 4 4 145.74 62.61 16
4 -1 -4 73.25 62.51 18
-1 4 4 53.34 28.88 2
1 -4 -4 37.08 28.18 8
4 -1 -4 9.51 25.02 7
-4 1 5 1045.15 209.26 14
-1 4 5 1432.29 213.29 11
-4 1 -5 1350.65 212.73 6
-1 -4 -5 977.15 185.98 1
-1 -4 -5 1336.96 230.56 6
1 -4 -5 1135.15 203.51 6
1 -4 -5 1256.07 209.74 8
-4 -1 -5 964.04 193.56 6
-4 1 5 1256.12 197.85 11
1 -4 5 975.6 193.34 11
-4 1 5 1145.73 211.52 10
-1 4 5 1229.5 204.93 10
4 -1 -5 1349.3 226.98 5
1 -4 -5 1052.22 193.02 5
4 -1 -5 1228.44 222.62 18
4 -1 -5 1194.39 223.41 7
-4 1 -5 1041.42 202.25 1
-4 -1 -5 1192.59 223.93 1
1 4 5 1595.56 249.46 11
4 -1 5 1286.3 227.78 9
4 1 5 1213.44 200.96 2
4 1 5 1062.33 192.91 9
-4 -1 -5 1096.75 192.42 4
4 -1 5 1467.59 230.43 11
1 -4 5 1304.17 233.25 9
1 4 5 1023.01 204.17 2
4 1 5 1337.73 240.78 11
-1 4 5 1041.8 181.68 16
-4 1 -5 1164.75 213.51 4
-1 4 5 1229.39 222.95 2
-4 1 6 394.04 109.71 14
4 -1 6 391.57 113.67 3
1 -4 -6 547.64 175.02 7
-1 4 6 393.67 158.99 2
4 -1 -6 501.16 155.93 7
4 1 6 168.75 183.86 2
1 4 6 638.43 172.95 2
-1 -4 -6 411.41 140.56 6
1 4 6 675.05 178.1 11
-4 1 -6 562.09 149.44 6
-1 4 6 526.27 139.02 11
1 -4 -6 433.48 139.94 6
4 -1 6 646.53 181.02 11
-1 -4 -6 425.4 138.13 1
-4 1 6 433.29 130.25 11
1 -4 6 333.53 131.17 11
-1 4 6 546.88 137.52 10
1 -4 -6 104.38 120.29 8
1 -4 -6 315.88 127.45 5
-4 1 6 537.01 172.5 10
4 -1 -6 487.79 157.09 18
4 -1 6 570.28 168.69 9
-4 1 -6 416.27 141.43 1
-4 1 -6 629.85 162.83 4
1 4 6 354.97 126.83 16
1 4 7 68.76 56.23 2
-4 1 7 138.04 88.96 14
-4 1 -7 -59.49 68.91 1
-1 4 7 -31.45 64.1 2
4 -1 -7 151.53 121.2 7
-1 -4 -7 150.55 107.75 6
-4 -1 -7 6.9 21.93 6
1 -4 -7 222.56 120.46 6
4 1 7 27.68 27.32 11
-4 1 -7 -25.3 36.46 6
4 -1 7 52.3 55.15 11
1 -4 7 -58.26 74.77 11
-4 -1 -7 24.01 58.19 1
-4 1 7 -46.1 57.57 10
-1 -4 -7 -35.25 34.08 1
1 -4 -7 -116.27 131.56 7
4 -1 7 203.17 122.12 9
1 4 7 -32.97 54.49 11
-1 4 7 -73.23 82.09 11
4 -1 -7 -3.56 17.86 18
-4 1 8 75.04 72.79 14
1 4 8 87.07 92.63 11
1 -4 -8 153.03 109.82 6
-4 1 -8 69.97 58.6 6
-1 -4 -8 -36.01 80.13 7
-1 -4 -8 -12.55 37.52 1
-4 2 0 1358.01 157.08 14
4 -2 0 1294.53 181.01 13
-4 2 0 1419.48 187.57 12
-2 4 0 1310.13 179.2 12
2 -4 0 1276.23 177.87 17
2 -4 0 1362.76 167.91 3
-2 4 0 1417.49 183.39 10
-4 2 0 1268.56 162.93 10
4 -2 0 1508.07 182.78 5
-4 2 0 1418.86 110.79 1
-2 4 0 1318.88 126.51 2
4 -2 0 1236.65 160.35 9
2 -4 0 1550.02 174.05 9
-4 2 0 1363.29 173.45 4
-2 4 0 1458.91 176.52 4
2 -4 0 1528.28 189.4 8
-4 2 0 1397.75 176.02 15
4 -2 -1 11669.85 471.55 7
4 -2 -1 12437 563.26 13
4 -2 1 13324.72 579.46 13
-4 2 1 12774.69 582.77 12
-2 4 1 12027.85 561.67 12
2 -4 -1 12668.59 578.48 17
2 -4 1 13021.88 562.66 3
2 -4 -1 13026.27 466.21 3
-4 2 1 11043.6 252.95 11
-2 4 1 12889.66 581.54 10
-4 2 -1 11243.5 463.89 10
-4 2 1 11391.06 535.06 10
2 -4 -1 11828.4 248.17 1
2 -4 1 12777.34 568.27 17
4 -2 -1 12398.03 567.75 5
4 -2 1 11763.23 474.73 5
4 -2 1 12182.58 432.91 18
4 -2 -1 10630.33 436.35 9
4 -2 1 11130.7 522.86 9
2 -4 1 12869.7 553.3 9
-2 4 -1 11452.68 532.9 12
-4 2 1 11426.77 480.28 4
-4 2 -1 11267.67 535.06 4
-2 4 1 11731.49 456.52 4
2 -4 -1 12638.29 569.67 8
-4 2 -1 12306.45 538.46 12
2 -4 1 12951.11 527.26 8
-4 2 1 11101.52 502.63 14
-4 2 -1 11943.79 539.85 15
-4 2 2 1558.94 209.45 14
4 -2 -2 1518.5 192.52 7
4 -2 -2 1804.89 215.86 13
-4 2 2 1676.6 213.35 12
-4 2 -2 1808.66 200.1 12
-2 4 2 1707.97 212.36 12
-2 4 -2 1491.3 189.75 12
2 -4 -2 1668.89 157.58 6
-4 2 -2 1491.17 135.27 6
2 -4 -2 1854.82 221.66 17
4 -2 2 1792.18 173.29 11
2 -4 2 1713.6 221.7 3
2 -4 -2 1855.67 149 3
-4 2 2 1560.82 126.12 11
2 -4 2 1598.5 167.71 11
-2 4 2 1847.62 230.85 10
-4 2 -2 1929.88 169.79 10
-4 2 2 1568.37 214.58 10
4 -2 -2 1661.76 216.42 5
4 -2 2 1710.45 207.48 13
4 -2 2 1791.28 164.48 5
4 -2 -2 1547.44 151.79 9
4 -2 2 1527.41 208.97 9
-4 2 -2 1704.06 180.94 1
-2 4 2 1625.61 190.8 2
2 -4 2 1936.92 225.97 9
-4 2 2 1566.25 161.45 4
-4 2 -2 1522.21 210.24 4
-2 4 -2 1784.48 228.08 4
2 -4 -2 1596.76 211.37 8
2 -4 2 1837.22 211.09 17
-4 2 3 5555.87 404.39 12
-2 4 3 4684.72 365.37 12
-2 4 -3 5170.87 347.78 12
2 -4 -3 5066.27 328.93 6
4 -2 -3 5744.13 391.96 13
-2 4 3 5550.75 304.63 11
2 -4 3 5355.06 419.23 3
2 -4 3 4803.35 338.95 11
-2 4 3 5137.5 406.69 10
-4 2 3 5324.55 415.22 10
4 -2 -3 5274.22 413.75 5
4 -2 -3 5191.35 402.25 7
2 -4 3 5664.21 434.92 9
-2 4 3 4846.39 370.48 2
2 -4 -3 5412.47 397.53 17
-2 4 -3 5049.99 355.6 1
-2 4 -3 5555.89 426.7 4
2 -4 -3 5765.58 429.32 8
-4 2 3 4741.07 392.33 14
-2 -4 -4 868.85 169.13 1
-2 4 4 929.15 178.01 2
-4 2 4 942.91 188.41 14
4 -2 4 988.92 156.47 13
4 -2 -4 912.81 178.57 7
-2 4 -4 1194.26 206.96 4
-4 2 -4 1001.93 160.68 6
2 -4 -4 851.64 146.29 6
4 -2 4 883.35 156.48 11
2 -4 4 803.08 153.18 11
-4 2 4 1073.83 185.56 2
4 -2 -4 843.57 149.12 6
2 -4 -4 1034.13 199.01 5
2 -4 4 892.94 184.86 3
-2 4 4 969 187.26 10
-4 2 4 757.95 163.13 10
4 2 4 776.95 158.26 9
4 -2 -4 1091.31 194.45 5
2 -4 -4 939.96 181.9 8
4 -2 4 871.37 185.89 9
-4 2 -4 1019.59 180.35 1
-2 4 -4 947.32 174.2 1
4 2 4 846.69 165.38 2
2 4 4 1024.5 193.44 2
2 -4 4 1021.91 195 9
-4 -2 -4 970.1 171.1 4
-4 2 4 1098.87 186.35 12
4 -2 -4 1044.76 161.08 13
2 -4 -4 927.67 161.57 17
-2 4 4 971.08 177.02 12
-2 4 4 934.9 153.46 16
-4 -2 -4 882.07 185.74 1
-4 2 -4 987.62 185.36 4
-4 2 5 918.78 194.35 14
-4 2 -5 1104.34 202.8 4
4 -2 5 1193.26 205.48 11
-2 4 5 1208.39 222.57 2
4 -2 -5 1118.48 224.1 7
-4 -2 -5 1186.72 225.68 6
4 -2 -5 1463.22 240.51 5
-4 -2 -5 936.61 195.95 1
2 -4 -5 1218.86 204.89 6
-2 4 -5 1119.87 212.5 4
-4 2 -5 1193.76 195.74 6
4 -2 -5 1263.88 213.32 6
2 -4 -5 1156.82 217.39 7
-2 -4 -5 1038.97 202.67 6
4 2 5 1473.56 256.66 11
4 -2 5 1076.51 208.23 3
2 -4 5 1088.99 203.58 11
-4 2 5 1170.7 216.91 2
2 -4 -5 1215.78 227.64 5
-2 4 5 1262.69 219.26 10
2 -4 5 1235.74 226.77 3
-4 2 5 980.88 194.79 10
4 2 5 1069.63 196.53 9
-2 4 -5 1285.65 225.09 1
4 -2 5 1182.37 226.32 9
2 -4 -5 1060.63 208.61 8
2 -4 5 1190.52 222.23 9
4 2 5 1005.65 197 2
2 4 5 1118.56 223.8 2
-4 -2 -5 938.25 173.68 4
-2 -4 -5 970.21 197.7 1
-4 2 -5 1083.51 201.71 1
-4 2 6 100.38 49.32 14
2 -4 -6 125.23 79.59 7
-4 2 -6 37.75 20.5 4
4 -2 -6 257.65 96.42 7
-4 2 -6 217.11 88.3 1
-2 4 -6 86.19 58.06 4
-2 -4 -6 249.27 102.23 1
-4 -2 -6 145.18 90.22 1
-2 -4 -6 97.48 86.85 6
-4 -2 -6 155.07 111.45 6
2 4 6 188.83 92.89 11
4 2 6 387.08 153.34 11
2 -4 -6 167.35 76.54 6
-2 4 6 87.76 77.93 2
4 -2 6 130.72 75.09 11
-4 2 -6 146.07 80.84 6
4 -2 6 264.69 109.55 3
2 -4 6 192.4 90.31 11
4 -2 -6 124.56 63.36 6
-2 4 6 158.08 82.88 10
2 -4 6 217.19 121.62 3
4 -2 -6 291.53 125.41 18
-4 2 6 197.51 94.23 10
2 4 6 167.47 91.98 2
2 -4 -6 2.53 85.51 5
4 2 6 156.57 81.81 9
4 -2 -6 104.27 96.88 5
4 -2 6 149.69 37.15 9
-2 4 -6 65.28 38.05 1
2 -4 6 278.63 118.68 9
4 2 6 298.84 119.54 2
2 -4 -6 33.59 116.88 8
-4 2 7 369.33 148.52 14
-2 4 -7 607.11 174.75 4
2 4 7 443.77 163.93 2
4 -2 -7 396.22 136.61 7
-2 4 7 397.5 180.5 2
-2 4 -7 515.56 182.71 1
4 2 7 428.15 141.5 2
-2 -4 -7 352 142.04 6
-4 -2 -7 282.49 132.31 6
2 4 7 432.84 149.62 11
4 2 7 583.09 185.49 11
4 -2 7 583.22 174.5 11
2 -4 -7 549.82 167.44 6
-4 2 -7 547.09 179.53 6
2 -4 7 443.08 179.47 11
-4 2 -7 252.54 115.81 1
4 -2 7 301.72 121.26 3
-4 -2 -7 374.45 135.78 1
4 -2 -7 553.79 167.57 6
-2 -4 -7 457.83 155.19 1
2 -4 -7 500.22 165.67 7
-4 2 -7 380.56 122.09 4
-4 2 7 374.81 139.04 10
4 -2 -7 141.15 165.43 5
4 -2 7 472.86 177.78 9
2 -4 7 413.19 151.83 9
4 -2 -7 57.11 123.56 8
4 -2 -7 407.89 139.1 18
2 -4 -8 -158.75 106.29 6
4 -2 -8 -23.79 71.6 6
4 -2 8 51.54 76.89 9
4 -2 -8 -91.14 60.77 18
-2 -4 -8 -120.02 122.23 7
-3 4 0 -8.78 13.37 4
-3 4 0 -25.11 34.17 12
4 -3 0 -98.5 77.4 13
4 -3 0 2.9 7.54 7
3 -4 0 40.44 18.45 8
-4 3 0 -44.79 37.79 12
3 -4 0 43.53 43.07 17
-4 3 0 44.45 35.39 15
3 -4 0 -30.12 43.77 3
-3 4 0 -6.8 28.33 10
-4 3 0 -2.29 27.49 10
4 -3 0 -45.77 42.13 5
4 -3 0 23.96 8.36 9
3 -4 0 -11.93 7.03 9
4 -3 0 -13.33 30.88 8
-4 3 0 27.15 36.66 4
-3 4 0 -9.49 18.79 2
4 -3 -1 1339.45 194.44 13
4 -3 1 1324.3 198.37 13
3 -4 -1 1390.33 200.47 17
-4 3 1 1337.84 196.82 12
-4 3 -1 1179.18 181.65 12
-3 4 1 1260.53 193.96 12
-3 4 -1 1343.96 195.19 12
3 -4 -1 1408.12 164.97 3
3 -4 1 1386.72 199.27 3
-3 4 -1 1512.52 189.15 10
-3 4 1 1436.47 205.05 10
-4 3 -1 1275.54 164.53 10
-4 3 1 1451.09 198.12 10
4 -3 -1 1335.76 192.44 5
4 -3 1 1334.18 171.18 5
4 -3 -1 1284.06 158.95 7
4 -3 -1 1360.58 156.75 9
4 -3 1 1332.55 182.9 9
3 -4 1 1467.85 188.99 9
3 -4 -1 1354.55 152.16 9
-3 4 1 1426.32 148.62 2
-4 3 -1 1324.06 128.37 1
-4 3 1 1390.91 169.84 4
-4 3 -1 1292.28 192.16 4
-3 4 -1 1334.34 191.62 4
-3 4 1 1460.76 170.89 4
4 -3 1 1215.76 162.8 8
3 -4 -1 1386.11 201.48 8
3 -4 1 1257.71 167.26 8
4 -3 1 1340.54 187.31 17
3 -4 1 1164.41 173.65 17
-4 3 1 1490.5 169.03 15
-4 3 -2 132.77 69.04 4
-4 3 2 116.11 67.85 14
3 -4 -2 238.47 86.15 17
3 -4 2 160.36 52.45 8
4 -3 -2 212.16 66.85 7
-4 3 -2 134.52 54.03 1
4 -3 2 177.33 72.73 13
3 -4 -2 169.82 74.82 13
-3 4 2 170.63 51.28 4
3 -4 -2 156.84 66.61 7
-4 3 2 215.5 80.02 12
-4 3 -2 246.42 80.96 12
-4 3 2 263 70.76 4
4 -3 2 208.24 73.12 17
-3 4 2 267.16 80.46 12
-3 4 -2 149.18 59.31 12
3 -4 -2 134.6 39.53 3
4 -3 2 250.95 61.99 11
3 -4 2 131.11 62.79 3
-4 3 2 167.72 50.37 2
3 -4 2 125.21 40.46 11
-3 4 2 151.2 43.91 2
-3 4 -2 233.13 60.3 1
-4 3 -2 179.53 52.42 10
-3 4 2 104.93 45.88 10
3 -4 -2 184.96 72.77 5
-4 3 2 193.03 74.04 10
4 -3 -2 113.65 58.11 5
3 -4 2 200.31 67.22 17
4 -3 2 173.46 55.06 5
4 -3 -2 110.65 52.73 13
4 -3 2 151.49 62.23 9
3 -4 2 260.43 89.23 9
-3 4 -2 173.76 70.57 4
3 -4 -2 193.34 69.46 8
4 -3 2 214.91 58.52 8
3 -4 -3 4860.48 398.54 7
-4 3 3 4419.04 400.46 14
4 -3 -3 5264.18 394.16 13
4 -3 3 4823.82 391.29 13
3 -4 -3 4864.32 366.66 13
-3 4 3 4518.44 381.46 12
-3 4 -3 4603.94 345.83 12
4 -3 3 5064.4 340.5 11
3 -4 3 4551.14 324.89 11
-3 4 3 5176.42 427.3 10
-4 3 3 4567.05 404.16 10
3 -4 -3 4757.62 413.9 5
4 -3 -3 5126.23 423.05 5
3 -4 -3 5098.54 403.75 17
4 -3 3 5058.32 424.72 9
3 -4 3 5076.43 422.94 9
-3 4 3 4692.54 366.44 2
4 -3 3 5082.62 356.19 17
4 -3 -3 4814.54 387.4 7
-4 3 3 5509.22 389.8 2
-4 3 -3 4408.56 335.78 1
-4 3 -3 4562.78 407.06 4
-4 3 -3 4965.43 350.72 12
3 -4 -3 4787.9 415.43 8
-3 4 -3 4373.92 334.04 1
-4 3 3 5026.83 413.32 12
-3 4 -4 -30.48 55.78 4
-4 3 4 90.72 79.79 14
-4 3 -4 -67.84 67.35 4
3 -4 -4 -11.19 45.09 7
4 -3 4 -5 19.48 13
4 -3 -4 27.79 33.25 13
4 -3 -4 -13.1 21.24 7
3 -4 -4 -46.49 41.33 13
-3 4 4 19.79 22.8 2
-4 3 4 -25.35 14.13 12
-3 4 4 22.95 14.33 12
4 -3 4 -41.2 55.7 3
-4 3 -4 26.74 35.23 1
-4 3 4 77.01 63.84 2
4 -3 4 6.44 6.99 11
3 -4 4 15.91 33.52 11
3 -4 4 31.11 34.83 3
-3 4 4 25.14 23.4 10
-4 3 4 16.95 15.11 10
3 -4 -4 82.21 85.57 5
4 -3 -4 10.2 51.63 5
4 -3 4 62.51 60.97 9
3 -4 4 -12.19 38.85 9
-3 4 -4 -5.88 21.12 1
3 -4 -4 -40.99 36.34 8
3 -4 -4 -28.09 20.77 17
4 -3 -5 456.52 295.51 7
-4 3 5 1858.99 294.43 14
-4 3 5 2224.52 289.53 12
4 -3 5 2207.03 310.03 3
4 -3 5 2171.06 280.25 11
3 -4 5 2072.18 308.66 3
3 -4 5 1837.36 267.42 11
-4 3 5 1745.11 270.11 10
4 -3 -5 2117.79 296.31 5
-3 4 5 1675.1 261.23 10
-4 -3 -5 1689.09 280.67 1
3 -4 -5 1447.33 250.3 5
4 -3 5 1863.69 296.15 9
3 -4 5 2131.99 316.19 9
-4 3 5 2030.69 303.65 2
-4 3 -5 2040.28 279.55 1
-4 3 -5 2136.42 305.63 4
-3 4 -5 1940.51 293.8 4
4 -3 -5 1818.39 279.66 8
3 -4 -5 1774.19 274.67 8
-3 4 -5 1851.65 266.1 1
4 -3 -5 2026.14 276.44 17
3 -4 -5 2061.03 263.67 17
-4 3 6 7.48 4.63 14
4 -3 -6 9.55 40.15 7
-3 -4 -6 89.15 79.2 1
-4 -3 -6 102.03 86.49 1
-3 4 -6 101.12 84.68 4
-3 4 6 -14.93 84.75 2
-3 -4 -6 104.14 109.82 6
-4 -3 -6 49.44 95.87 6
4 3 6 32.06 53.18 11
4 -3 6 8.03 27.74 11
-4 3 6 117.49 93.95 2
3 -4 6 136.66 90.08 11
4 -3 6 -39.43 69.73 3
3 -4 6 -141.78 88.25 3
-3 4 6 16.08 47.97 10
-4 3 6 106.04 66.32 10
3 -4 -6 -6.38 29.98 7
3 -4 -6 2.36 63.54 5
4 -3 -6 9.59 35.48 5
-4 3 -6 30.92 42.96 1
4 -3 6 56.48 63.91 9
3 -4 6 -30.29 54.48 9
3 4 6 -26.67 46.74 2
4 3 6 28.45 55.19 2
4 -3 -6 2.82 24.63 8
3 -4 -6 -268.37 112.52 8
-4 3 -6 55.78 27.18 4
-3 4 -6 -9.28 28.12 1
-4 3 7 67.1 68.03 14
4 -3 -7 61.48 108.37 7
-4 3 -7 9.47 28.58 4
-3 4 -7 -100.18 85.67 4
3 -4 -7 27.65 23.2 7
-3 4 -7 -84.32 67.28 1
-3 -4 -7 194.03 136.73 6
-4 -3 -7 37.93 47.5 6
-3 4 7 -16.19 36.87 2
3 4 7 -85.53 64.87 11
4 3 7 -43.41 73.64 11
-4 -3 -7 -11.07 57.16 1
4 -3 7 -39.24 64.03 11
3 -4 7 9.67 63.56 11
-4 3 7 4.58 39.15 2
4 -3 7 12.66 42.82 3
3 4 7 -18.06 21.93 2
-3 4 7 48.96 12.56 10
3 -4 7 135.05 80.08 3
-4 3 7 10.09 14.07 10
3 -4 -7 -4.34 107.23 5
4 -3 -7 6.29 26.68 5
4 -3 7 -134.68 101.16 9
3 -4 7 -73.07 68.7 9
4 -3 -7 -2.62 66.2 8
3 -4 -7 -33.73 97.97 8
-3 -4 -7 -13.86 57.83 1
4 3 7 32.86 56.75 2
-4 3 -7 46.98 67.06 1
-4 4 0 13126.75 622.55 10
4 -4 0 12407.77 606.96 5
4 -4 0 12469.81 666.82 13
4 -4 0 13322.12 582.82 9
4 -4 0 12827.88 612.15 8
4 -4 0 12777.6 647.47 17
-4 4 1 -10.8 9.35 15
-4 4 -1 -72.61 61.17 4
-4 4 1 11.14 16.82 4
4 -4 -1 12.08 23.94 7
4 -4 -1 23.66 38.35 13
4 -4 1 11.55 31.36 13
-4 4 1 41.57 31.74 12
-4 4 -1 -64.58 47.75 12
-4 4 -1 -21.8 44.49 10
-4 4 1 -8.05 42.76 10
4 -4 1 30.43 36.81 5
4 -4 -1 -13.12 23.89 5
4 -4 1 82.21 54.71 8
4 -4 1 44.9 58.83 9
4 -4 -1 -2.55 35.97 9
4 -4 -1 -10.56 24.25 8
4 -4 -1 -11.57 38.04 17
4 -4 1 -2.94 27.41 17
-4 4 -2 510.48 129.37 4
4 -4 -2 504.78 118.76 7
4 -4 -2 467.66 123.97 13
4 -4 2 370.75 116.67 13
4 -4 -2 539.8 140.63 8
-4 4 2 479.46 134.43 12
-4 4 -2 531.88 127.59 12
-4 4 2 565.74 111.16 2
4 -4 2 454.49 133.71 3
-4 4 -2 525.47 103.83 10
-4 4 2 427.97 121.65 10
4 -4 2 558.92 112.38 8
4 -4 2 499.55 108.48 5
4 -4 -2 374.26 121.21 17
4 -4 -2 493.54 135.49 5
4 -4 2 543.19 136.2 9
4 -4 2 436.18 113.28 17
4 -4 -3 -28.91 56.21 7
4 -4 -3 -28.71 26.36 13
4 -4 3 21.15 56.65 13
-4 4 3 -45 49.76 12
-4 4 -3 46.12 45.92 12
4 -4 -3 -0.84 38.42 8
-4 4 3 -18.38 59.74 2
4 -4 3 -8.95 51.71 3
4 -4 3 91.29 70.41 17
-4 4 3 17.1 39.14 10
4 -4 -3 21.41 40.87 5
4 -4 -3 -17.98 23.77 17
4 -4 3 13.44 47.03 9
-4 4 -3 -31.84 16.93 4
4 -4 -4 146.88 191.52 7
-4 4 -4 754.14 179.15 4
4 -4 -4 769.78 157.31 13
4 -4 4 988.6 188.54 13
4 -4 -4 730.56 162.33 17
-4 4 4 914.9 188.56 12
-4 4 4 1010.68 190.59 2
-4 4 -4 856.03 166.95 1
4 -4 4 965.22 202.38 3
-4 4 4 886.26 197.5 10
4 -4 -4 1057.03 212.19 5
4 -4 4 808.92 188 9
4 -4 -4 930.71 197.66 8
-4 4 5 0.98 9.34 12
-4 4 5 -28.01 18.37 2
-4 4 -5 -7.94 64.77 1
4 -4 5 117.85 101.6 3
-4 4 -5 6.62 69.82 4
-4 4 5 34.44 73.96 10
4 -4 -5 -2.7 7.37 7
4 -4 -5 4.08 26.53 8
4 -4 -5 -0.06 47.87 5
4 -4 5 20.27 50.74 9
4 -4 -5 18.56 65.63 17
-4 4 -6 -109.18 111.69 4
4 -4 -6 -4.13 90.01 7
4 -4 -6 -4.44 72.97 8
-4 4 6 125.85 126.89 2
4 -4 6 29.61 71.08 3
-4 4 6 75.3 78.95 10
-4 4 -6 27.96 38.76 1
4 -4 -6 4.96 124.21 5
4 -4 6 -8.11 52.81 9
-4 4 -7 -2.66 17.54 4
-4 4 7 64.07 89.96 2
-4 4 7 154.47 104.24 10
4 -4 -7 21.44 142.69 5
4 -4 -7 14.52 72.76 8
5 0 2 11414.15 605.88 9
-5 0 -2 11963.84 621.22 4
-5 0 -3 861.6 160.65 1
-5 0 -3 883.7 181.01 15
-5 0 -3 784.72 137.91 6
0 5 3 763.9 152.3 12
0 -5 -3 873.89 140.83 1
5 0 3 728.62 159.24 9
0 5 3 962.1 177.25 2
-5 0 -3 929.38 182.8 4
0 -5 -3 938.08 177.17 8
0 -5 -4 -5.19 18 1
-5 0 -4 14.14 30.75 1
-5 0 -4 0.5 21.76 4
-5 0 -4 58.01 46.29 6
0 5 4 88.81 62.02 12
5 0 4 104.9 77.67 11
5 0 4 22.83 19.85 9
0 -5 -4 -24.82 54.25 6
0 5 4 -0.73 26.06 2
0 -5 -4 25.87 36.2 8
-5 0 -5 246.03 97.59 4
0 -5 -5 235.68 110.09 6
-5 0 -5 245.05 91.39 6
-5 0 -5 133.98 55.49 1
5 0 5 356.99 126.04 11
5 0 5 248.67 107.29 9
0 5 5 99.51 53.72 2
0 -5 -5 38.68 95.77 8
0 -5 -6 1152.31 226.51 6
-5 0 -6 1322.83 248.84 6
0 5 6 1502.75 250.25 11
5 0 6 1426.49 266.84 11
-5 0 -6 1310.06 263.2 1
5 0 6 1274.18 247.43 9
-5 0 -6 1594.26 272.06 4
0 -5 -6 1968.51 289.48 8
0 5 6 854.46 214.23 2
0 5 6 1369.25 251.21 16
0 5 7 -17.7 9.12 2
0 -5 -7 43.69 91.23 6
-5 0 -7 -21.48 45.32 6
0 5 7 60.46 45.19 11
5 0 7 84.52 72.83 11
0 -5 -7 26.13 60.62 7
-5 0 -7 54.67 57.23 1
5 0 7 156.9 112.35 9
-5 1 0 1567.84 178.3 14
5 -1 0 2046.74 243.93 13
-1 5 0 1528.85 216.31 12
1 -5 0 1804.83 229.25 17
-5 1 0 1625.16 203.91 10
5 -1 0 1484.68 198.28 9
-5 1 0 1508.16 200.61 4
-5 1 1 954.75 152.34 14
-5 1 -1 952.38 116.87 14
5 -1 -1 1077.75 179.97 13
5 -1 1 1342.09 199.64 13
-1 5 1 897.2 167.24 12
-5 1 -1 886.39 140.43 10
-5 1 1 888.57 161.91 10
-5 1 -1 915.74 129.92 1
5 -1 -1 1021.13 173.2 5
-1 5 1 1018.85 154.04 2
5 -1 -1 1000.33 151.69 9
5 -1 1 812.78 154.02 9
-5 1 1 870.65 147 4
-5 1 -1 995.84 169.24 4
1 -5 -1 1098.12 182.62 8
1 -5 -1 1281.83 194.12 17
-5 1 -2 696.69 155.51 15
-5 1 -2 548.58 117.88 1
-5 1 2 540.95 123.97 14
5 -1 2 713.13 145.81 13
5 -1 -2 613.17 148.5 18
1 -5 -2 588.78 132.88 17
-1 5 2 574.69 131.95 12
-5 1 -2 537.31 101.48 10
-5 1 2 664.82 146.32 10
5 -1 2 516.05 130.01 9
5 -1 -2 678.04 136.87 5
-1 5 2 549.66 125.83 2
-5 1 -2 669.29 148.4 4
1 -5 -2 544.03 137.22 8
-5 1 3 606.62 146.25 14
5 -1 3 789.69 149.51 13
-5 1 -3 802.27 155.06 1
1 -5 -3 737.76 138.17 6
-5 1 -3 707.44 126.29 6
-1 5 3 776.59 156.18 12
5 -1 3 705.27 136.8 11
-1 5 3 902.31 182.27 10
-5 1 3 608.64 146.89 10
5 1 3 703.32 163.95 9
5 -1 3 668.2 151.21 9
5 -1 -3 779.7 165.66 5
-1 5 3 686.87 144.42 2
5 -1 -3 698.67 163.42 18
-5 1 -3 762.73 165.71 4
1 -5 -3 990.8 184.88 8
1 -5 -3 763.37 153.87 17
5 -1 4 3741.54 329.93 13
-5 1 -4 3696.41 331.75 6
-1 5 4 3145.32 327.6 12
-1 -5 -4 2945.03 333.14 6
-5 -1 -4 3601.65 356.49 6
1 -5 -4 3319.4 328.21 6
5 -1 4 4358.28 383.01 11
-1 5 4 4090.51 400.45 10
-5 1 4 3458.07 377.65 10
5 -1 -4 3778.7 390.56 5
-1 -5 -4 3331.23 332.6 1
-5 -1 -4 3358.48 358.89 1
5 1 4 3768.25 333.21 2
5 1 4 3166.52 353.96 9
1 5 4 3374.63 374.93 2
-5 1 -4 3561.88 363.94 1
5 -1 4 3052.46 357.09 9
-1 5 4 3297.29 352.96 2
5 -1 -4 3609.28 389.99 18
-5 -1 -4 3338.43 350.98 4
-5 1 -4 3425.46 366.05 4
1 -5 -4 4101.83 400.31 8
1 -5 -4 3602.36 341.78 17
1 -5 -5 55.12 95.96 8
-1 5 5 9.11 165.08 2
-5 -1 -5 43.37 15.32 1
5 -1 -5 26.4 61.83 7
-1 -5 -5 128.78 67.99 6
-5 -1 -5 126.44 89.24 6
1 -5 -5 259.25 100.64 6
-5 1 -5 110.28 65.1 6
5 1 5 126.43 87.15 11
5 -1 5 63.4 52.6 11
-1 5 5 93.91 52.39 10
-5 1 -5 95.49 76.45 1
-1 -5 -5 176.68 90.8 1
-5 1 -5 144.43 75.88 4
-5 1 5 221.88 87.83 10
5 -1 5 66.19 49.99 9
1 5 5 41.24 17.62 2
-5 -1 -5 144.52 102.57 4
5 -1 -5 125.47 78.61 18
-1 5 5 129.55 75.26 16
-5 1 -6 123.63 44.44 4
-1 5 6 129.56 86.97 2
1 -5 -6 191.82 109.66 7
5 -1 -6 -11.4 95.48 7
-1 -5 -6 130.55 14.98 6
-5 -1 -6 211.93 98.63 6
1 -5 -6 124.96 87.19 6
-1 -5 -6 134.65 74.9 1
-5 -1 -6 135.1 90.74 1
-5 1 -6 162.78 81.8 6
5 1 6 158.43 99.42 11
5 -1 6 212.66 98.98 11
-1 5 6 283.85 134.71 10
1 -5 -6 3.77 54.42 5
-5 1 6 283.93 92.5 10
-5 1 -6 86.89 43.93 1
5 1 6 230.31 111.88 9
5 -1 6 221.46 120.19 9
1 5 6 223.83 118.4 2
-5 -1 -6 108.04 50.91 4
1 -5 -6 98.42 107.7 8
-5 1 -7 122.06 84.95 4
1 -5 -7 78.77 120.17 7
-1 5 7 87.92 95.7 2
-1 -5 -7 64.42 30.03 6
-5 -1 -7 5.35 38.39 6
1 5 7 100.41 75.98 11
1 -5 -7 127.56 92.94 6
5 1 7 159.72 110.16 11
5 -1 7 115.81 20.2 11
-5 -1 -7 32.72 35.82 1
5 1 7 129.43 72.42 9
5 -1 7 72.24 91.76 9
-5 1 -7 118.81 56.69 1
1 5 7 7.36 40.59 2
-5 2 0 -3.63 26.2 14
2 -5 0 -40.41 39.14 8
5 -2 0 -0.92 24.16 13
-5 2 0 -98.34 64.06 12
2 -5 0 4.98 25.79 17
-2 5 0 -21.23 19.51 4
-2 5 0 62.34 55.51 12
2 -5 0 19.16 41.82 3
-5 2 0 -32.29 29.97 4
-5 2 0 27.43 45.21 10
5 -2 0 -51.96 45.14 9
5 -2 0 24.72 33.81 5
-2 5 0 -6.65 6.43 2
5 -2 0 6.54 22.74 18
-5 2 1 10285.6 529.57 14
5 -2 -1 12814.52 640.54 13
5 -2 1 12295.66 627.34 13
-5 2 1 12649.86 640.24 12
-5 2 -1 11844.09 593.02 12
-5 2 -1 11061.89 513.11 10
-5 2 1 10128.52 561.61 10
5 -2 -1 11997.59 612.46 5
5 -2 1 11037.15 513.64 5
5 -2 -1 10045.98 486.89 9
5 -2 1 11082.52 574.46 9
-5 2 1 10492.83 518.81 4
5 -2 -1 10709.98 559.82 18
5 -2 -2 -74.49 51.01 13
5 -2 2 -57.57 33.05 13
5 -2 -2 -69.39 52.21 7
-5 2 2 19.57 2.99 12
-5 2 -2 -20.49 26.55 12
2 -5 2 -38.49 32.3 17
-2 5 -2 -3.04 32.34 4
-5 2 -2 21.3 18.29 1
-2 5 2 -42.84 42.09 12
-2 5 -2 83.69 52.6 12
2 -5 2 40.15 19.66 11
-2 5 2 -16.38 22.2 10
2 -5 2 59.75 55.1 3
-5 2 -2 14.33 30.7 10
-5 2 2 27.38 29.28 10
5 -2 -2 -5.85 24.05 9
5 -2 -2 -27.45 28.98 5
-5 2 2 -39.97 12.33 14
5 -2 2 -40.3 49.08 9
2 -5 2 12.31 25.32 9
-2 5 2 -20.66 13.03 2
-5 2 2 29.33 40.05 4
5 -2 -2 17.58 39.94 18
2 -5 -2 64.12 32.6 17
-5 2 -2 35.47 5.2 4
2 -5 -2 -21.87 40.82 8
5 -2 3 960.09 175.58 13
-5 2 -3 1142.22 172.61 12
2 -5 -3 957.54 182.66 17
-2 5 3 913.67 178.06 12
-2 5 -3 878.68 157.72 12
5 -2 3 1069.67 170.3 11
2 -5 3 1088.44 202.48 3
2 -5 3 849.91 154.52 11
-2 5 -3 948.65 186.7 4
-2 5 3 1023.68 197.78 10
-5 2 -3 961.28 193.86 4
-2 5 3 910.13 173.69 2
-5 2 -3 941.65 163.4 1
5 -2 3 720.77 163.12 9
2 -5 3 878.41 181.86 9
2 -5 -3 982.48 194.42 8
-5 2 4 25.69 28.95 14
5 -2 4 -53.91 27.49 13
5 -2 -4 70.99 67.27 7
-2 5 -4 -55.48 51.34 4
-2 5 4 78.07 63.97 12
5 -2 4 19.55 23.89 11
2 -5 4 8.59 49.66 11
-2 5 4 -42.35 42.54 10
2 -5 4 19.1 23.21 3
-5 2 -4 7.2 43.47 1
-5 2 4 -19.64 27.32 10
5 -2 -4 27.77 46.87 5
5 -2 4 8.33 30.13 9
-5 2 -4 -5.52 64.91 4
2 -5 4 5.11 36.26 9
5 -2 -4 -80.02 42.36 18
2 -5 -4 -0.66 14.1 8
2 -5 -4 -27.86 38.4 17
-2 5 4 -14.53 56.02 2
-5 2 -5 278.22 93.78 4
-5 2 5 526.66 167.26 14
2 -5 -5 92.77 139.92 7
-5 -2 -5 433.13 130.18 1
5 -2 -5 358.48 115.86 18
-5 -2 -5 444.54 137.85 6
-2 5 -5 385.88 137.24 4
5 -2 5 508.12 144.51 11
2 -5 5 349.33 116.56 11
2 -5 5 492.35 148.23 3
-5 2 5 531.91 160.37 10
5 2 5 486.93 146.93 9
5 -2 -5 636.64 171.57 5
5 -2 5 738.36 191.11 9
5 -2 -5 -20.86 113.34 7
-5 2 -5 583.58 160.3 1
2 -5 5 711.36 184.69 9
5 2 5 485.17 135.31 2
-5 -2 -5 360.44 112.01 4
2 -5 -5 120.17 177.81 8
-5 2 6 91.66 90.17 14
-5 2 -6 131.14 97.29 4
2 -5 -6 -14.06 76.42 7
-2 5 6 -10.59 72.49 2
5 -2 -6 0.59 51.45 7
-2 -5 -6 65.49 56.03 1
-5 -2 -6 -66.13 59.25 1
2 -5 -6 9.59 59.45 8
-2 -5 -6 -31.42 42.15 6
-5 -2 -6 4.41 106.4 6
5 2 6 -0.73 187.37 11
5 -2 6 89.19 95.82 11
5 -2 6 28.61 76.26 3
2 -5 6 32.14 28.1 11
-2 5 6 12.27 50.58 10
-5 2 6 211.86 130.42 10
2 -5 -6 33.54 39.71 5
5 2 6 46.82 58.31 9
5 -2 -6 -191.56 97.97 5
5 -2 6 42.96 41.84 9
2 -5 6 -16.03 74.5 9
2 5 6 38.49 19.31 2
-5 2 -6 138.25 100.54 1
5 -2 -6 130.58 88.7 18
-5 2 7 314.63 139.54 14
2 5 7 235.72 96.49 2
2 -5 -7 52.02 115.41 8
-5 2 -7 480.79 164.21 4
5 -2 -7 120.11 176.34 7
-2 5 7 242.71 159.03 2
-2 -5 -7 231.82 101.91 6
-5 -2 -7 446.52 164.62 6
-5 2 -7 263.76 135.05 1
5 2 7 316.41 131.45 11
5 -2 7 351.8 127.41 11
-2 -5 -7 346.09 130.4 1
-5 -2 -7 278.1 140.51 1
5 -2 7 329.91 123.38 3
2 -5 7 336.14 150.66 11
-5 2 7 309.38 122.11 10
5 -2 -7 317.23 162.24 18
5 -2 7 174.23 71.68 9
-5 3 0 58.57 26.33 15
-5 3 0 46.4 33.32 4
5 -3 0 51.82 47.78 13
-3 5 0 7.22 38.98 4
3 -5 0 82.58 58.16 8
-5 3 0 75.3 48.28 12
-3 5 0 63.43 41.25 12
3 -5 0 28.39 13.62 3
-3 5 0 57.72 52.79 10
-5 3 0 54.48 41.67 10
5 -3 0 50.04 21.5 5
5 -3 0 44.33 40.18 9
3 -5 0 8.43 4.81 9
3 -5 0 168.09 83.39 17
-5 3 1 2431.72 268.48 14
5 -3 -1 2529.3 237.73 7
5 -3 -1 2453.36 286.94 13
5 -3 1 2758.35 309.88 13
-5 3 1 2513.2 299.34 12
-5 3 -1 2619.37 296.4 12
-3 5 1 2627.42 305.75 12
-3 5 -1 2248.91 278.23 12
3 -5 1 2255.49 270.37 3
3 -5 -1 2690.64 248.48 3
-3 5 1 3069.68 318.41 10
-5 3 -1 2275.05 246.74 10
-5 3 1 2274.71 273.7 10
5 -3 -1 2673.13 297.5 5
5 -3 1 2432.39 254.61 5
5 -3 -1 2228.64 226.8 9
5 -3 1 2324.98 275.35 9
3 -5 1 2873.35 292.75 9
3 -5 -1 2617.72 238.54 9
-5 3 1 2137.18 247.15 4
-5 3 -1 2316.82 284.07 4
5 -3 1 2303.6 243.46 8
-3 5 1 2399.18 243.37 4
3 -5 -1 2434.86 285.66 8
3 -5 1 2527.72 262.24 8
3 -5 -1 2506.2 297.03 17
3 -5 1 2962.73 327.25 17
-5 3 1 2665.24 260.41 15
-5 3 2 385.61 119.49 14
5 -3 -2 451.12 122.94 13
5 -3 2 547.61 137.9 13
5 -3 -2 411.65 110.34 7
-3 5 -2 488.39 123.52 4
-5 3 2 426.11 126.58 12
-5 3 -2 517.56 122.02 12
-3 5 2 403.57 125.4 12
-3 5 -2 389.63 117.22 12
3 -5 2 470.63 130.19 3
5 -3 2 342.85 94.41 17
-3 5 2 325.44 113.65 10
-5 3 2 366.68 119.87 10
5 -3 -2 410.17 121.28 5
5 -3 2 332.07 102.82 9
3 -5 2 533.18 141.03 9
3 -5 -2 387.9 124.48 8
-5 3 2 323.24 92.02 4
3 -5 -2 486.69 143.23 17
3 -5 2 467.13 114.01 17
-5 3 -2 469.19 126.1 4
-3 5 2 463.33 106.71 2
-5 3 3 1430.75 235.35 14
5 -3 -3 1749.23 252.16 7
5 -3 -3 2137.26 276.83 13
-5 3 3 1722.3 259.6 12
-3 5 3 1697.36 250.47 12
-3 5 -3 1792.05 241.15 12
3 -5 3 1785.86 270 3
-3 5 3 1979.19 285.53 10
-5 3 3 1571.39 249.44 10
3 -5 -3 1867.67 282.25 5
5 -3 -3 1972.29 289.93 5
3 -5 -3 1547.41 229.05 13
3 -5 3 2017.01 286.91 9
-3 5 3 1853.56 241.01 2
-3 5 -3 1732.14 265.33 4
3 -5 -3 1935.18 278.28 8
3 -5 3 1954.7 248.88 17
3 -5 -3 1973.8 273.16 17
-5 3 -4 756.82 184.86 4
-5 3 4 569.44 159.65 14
3 -5 -4 171.18 171.42 7
5 -3 -4 849.86 176.28 13
-3 5 4 526.28 142.45 2
-5 3 -4 562.85 138.6 1
3 -5 -4 530.55 148.44 8
5 -3 4 734.33 151.46 13
5 -3 -4 154.02 165.15 7
-5 3 4 664.9 170.22 12
-3 5 -4 599.78 167.39 4
-3 5 4 702.18 158.03 12
3 -5 4 672.37 171.24 3
-3 5 4 672.99 169.97 10
3 -5 -4 467.02 146.14 5
-5 3 4 583.21 154.42 10
5 -3 -4 769.31 200.69 5
5 -3 4 502.43 139.64 9
3 -5 4 779.89 179.75 9
3 -5 -4 523.8 140.03 17
-5 3 5 309.52 134.01 14
-5 3 -5 245.33 113.06 4
3 -5 -5 26.46 109.11 7
5 -3 -5 34.21 107.48 7
-3 5 5 367.78 143.7 2
-3 5 -5 436.01 133.08 4
-3 5 5 473.34 141.78 12
-5 3 -5 353.72 126.67 1
5 -3 5 270.02 90.92 3
-3 5 5 361.74 138.03 10
3 -5 5 457.97 149.78 3
-3 5 -5 367.67 128.98 1
-5 3 5 375.62 146.81 10
3 -5 -5 26.37 136.89 5
5 -3 -5 46.12 148.94 5
5 -3 5 342.2 139.29 9
3 -5 5 402.79 137.6 9
3 -5 -5 38.29 147.88 8
3 -5 -5 338.28 108.9 17
-5 3 6 -4.79 38.55 14
3 -5 -6 32.11 95.3 7
5 -3 -6 9.28 93.82 7
-3 5 -6 160.21 93.03 1
-3 5 6 9.97 51.8 2
-3 5 -6 30.72 42.87 4
5 -3 6 137.4 95.06 3
-5 3 -6 67.62 35.99 1
-3 5 6 213.66 113.96 10
3 -5 6 103.31 60.33 3
-5 3 6 75.6 47.23 10
3 -5 -6 0.86 34.97 5
5 -3 -6 -0.66 91.99 5
5 -3 6 65.58 67.74 9
3 -5 6 196.43 117.65 9
5 -3 -6 -6.35 75.24 8
5 -3 -6 -46.5 90.39 18
3 -5 -6 11.48 87.48 8
-5 3 -6 122.36 72.87 4
-5 3 -7 176.1 76.3 4
3 -5 -7 11.87 27.04 8
-3 5 -7 86.27 17.45 4
-3 5 -7 202.23 106.66 1
5 -3 7 110.31 79.13 3
-3 5 7 264.47 132.87 10
-5 3 7 -31.61 79.77 10
3 -5 -7 0.16 37.29 5
5 -3 -7 52.44 134.33 5
-5 3 -7 109.18 23.33 1
5 -3 -7 -45.26 51.83 8
-5 4 0 56.41 40.24 4
4 -5 0 -9.17 22.04 8
5 -4 0 43.73 44.5 13
-4 5 0 11.75 37.94 4
-5 4 0 24.59 46.58 12
-4 5 0 -42.81 44.22 12
4 -5 0 14.58 16.01 3
-4 5 0 -53.65 50.58 10
-5 4 0 19.78 34.34 10
4 -5 0 -33.09 35.72 5
5 -4 0 -74.61 58.63 5
5 -4 0 -14.22 41.25 9
4 -5 0 -15.45 52 9
5 -4 0 62.62 68.8 8
4 -5 0 -69.33 58.71 17
5 -4 0 -9.76 31.01 17
-5 4 1 528.8 136.89 4
-5 4 -1 672.05 150.74 4
4 -5 -1 474.39 131.69 17
5 -4 -1 501.15 148.21 17
5 -4 -1 534.54 144.79 13
-4 5 -1 590.99 144.59 4
5 -4 1 405.22 132.55 13
4 -5 -1 544.39 139.72 13
-4 5 1 358.26 114.92 4
-5 4 1 643.92 161.99 12
-5 4 -1 357.92 126.02 12
5 -4 1 579.41 143.77 17
4 -5 1 647.48 162.49 17
-4 5 1 607.37 154.84 12
-4 5 -1 499.63 127.93 12
4 -5 -1 590.42 128.9 3
4 -5 1 484.25 125.97 3
-4 5 -1 461.66 110.47 10
-4 5 1 493.51 132.5 10
-5 4 -1 625.99 132.04 10
4 -5 1 462.56 123.92 5
-5 4 1 528.91 141.35 10
4 -5 -1 498.24 127.31 5
5 -4 -1 665.82 159.48 5
5 -4 1 611.22 136.06 5
5 -4 1 477.79 124.58 9
4 -5 1 560.7 137.87 9
5 -4 -1 472 127.25 8
5 -4 1 485.61 120.67 8
4 -5 -1 536.07 145.8 8
4 -5 1 558.15 129.04 8
4 -5 -2 2976.43 309.01 7
5 -4 -2 3405.93 323.29 7
5 -4 -2 3711.52 386.65 13
5 -4 2 3773.35 389.21 13
4 -5 -2 3505.29 373.64 13
-5 4 2 3424.96 381.53 12
-5 4 -2 3878.01 372.19 12
-4 5 2 3544.98 383.88 12
-4 5 -2 3342 353.09 12
4 -5 2 3628.06 379.3 3
-4 5 2 3549.56 379.84 10
-5 4 2 3781.84 397.17 10
4 -5 -2 3365.82 377.9 5
5 -4 -2 3580.52 380 5
5 -4 2 3168.05 349.17 9
4 -5 2 3395.6 363.84 9
-5 4 -2 3649.28 378.8 4
-4 5 -2 3128.56 355.49 4
5 -4 -2 3683.19 389.82 8
4 -5 -2 3698.35 388.89 8
5 -4 -2 3326.06 373.07 17
5 -4 2 3787.53 367.1 17
4 -5 -2 3464.17 381.26 17
-5 4 -3 193.8 59.79 4
4 -5 -3 279.98 115.61 7
5 -4 -3 167.83 92.85 13
5 -4 -3 96.47 50.51 7
5 -4 3 181.07 69.42 13
4 -5 -3 113.47 61.8 13
-4 5 -3 200.77 98.89 4
-5 4 3 92.64 53.77 12
-5 4 -3 137.13 53.2 12
-4 5 3 180.76 88.4 12
-4 5 -3 179.94 70.55 12
5 -4 3 162.12 85.26 3
4 -5 3 260.78 95.86 3
-4 5 3 116.01 73.03 10
-5 4 3 159.21 83.56 10
4 -5 -3 -36.52 50 5
5 -4 -3 324.29 123.24 5
5 -4 3 176.55 75.67 9
4 -5 3 179.75 84.27 9
5 -4 -3 204.07 99.67 8
4 -5 -3 323.4 119.43 8
5 -4 -3 327.55 118.47 17
4 -5 -3 250.65 103.01 17
5 -4 3 180.34 76.81 17
4 -5 3 176.01 62.83 17
-5 4 -4 -17.85 13.38 4
4 -5 -4 2.62 26.82 7
5 -4 -4 -5.78 22.51 13
5 -4 -4 2.05 44.8 7
5 -4 4 4.06 32.54 13
-4 5 -4 -1.64 58.85 4
-5 4 4 -12.81 24.79 12
-4 5 4 133.94 77.66 12
-4 5 4 -2.41 34.64 2
5 -4 4 -10.43 33.51 3
-5 4 4 8.19 32.09 2
4 -5 4 24.1 58.22 3
-4 5 4 31.34 52.55 10
-5 4 4 -36.76 59.11 10
4 -5 -4 -4.24 50.25 5
5 -4 -4 -29.39 75.21 5
5 -4 4 -9.49 63.5 9
4 -5 4 0.72 62.58 9
5 -4 -4 -41.37 32.11 8
5 -4 -4 14.59 27.46 17
4 -5 -4 21.13 29.61 17
-5 4 -5 140.49 89.78 4
5 -4 -5 13.98 53.08 7
-4 5 -5 52.83 76.94 4
-5 4 5 121.11 92.22 12
-4 5 5 109.58 77.2 12
-4 5 5 10.15 60.81 2
5 -4 5 81.04 20.99 3
-5 4 5 30.94 31.13 2
4 -5 5 181.65 111.29 3
-4 5 5 -32.39 67.41 10
-5 4 5 37.16 34.46 10
4 -5 -5 0.43 83.43 5
5 -4 -5 -8.41 33.19 5
5 -4 5 110.44 75.4 9
4 -5 5 242.6 127 9
5 -4 -5 0.36 64.65 8
4 -5 -5 16.96 75.54 7
4 -5 -5 6.03 31.63 8
5 -4 -5 57.12 48.34 17
4 -5 -5 106.18 83.38 17
4 -5 -6 146.57 192.86 7
-5 4 -6 375.4 134.29 4
5 -4 -6 48.92 158.28 7
-4 5 -6 423.29 171.94 4
-4 5 6 223.86 142.46 2
5 -4 6 704.97 210.6 3
-5 4 6 572.36 200.31 2
4 -5 6 605.16 194.97 3
-4 5 6 475.98 167.64 10
-5 4 6 603.87 192.38 10
4 -5 -6 7.42 131.64 5
5 -4 -6 13.1 185.1 5
4 -5 -6 23.89 135.73 8
5 -4 6 791.99 228.12 9
4 -5 6 429.91 169.77 9
5 -4 -6 6.68 157.55 8
5 -5 0 1667.15 278.06 13
-5 5 0 1834.84 283.45 12
5 -5 0 1872.67 266.2 3
-5 5 0 1811.37 264.11 10
5 -5 0 1518.83 238.03 5
5 -5 0 1973.67 252.02 9
-5 5 0 1308.41 257.08 4
5 -5 0 1867.82 269.26 8
5 -5 0 2088.35 302.65 17
-5 5 -1 -1.66 21.42 4
-5 5 1 -7.23 25.78 4
5 -5 -1 -78.49 29.31 13
5 -5 1 87.08 56.57 13
5 -5 1 22.35 37.17 17
-5 5 1 -46.45 50.42 12
-5 5 -1 -27.62 33.08 12
5 -5 1 -66.41 44.52 3
5 -5 1 71.52 73.64 8
-5 5 -1 -27.2 14.6 10
-5 5 1 14.76 47.35 10
5 -5 1 73.2 65.79 5
5 -5 -1 -27.6 19.51 5
5 -5 1 106.15 73.43 9
5 -5 -1 -37.15 36.79 8
5 -5 -1 149.03 91.47 17
-5 5 -2 91.24 39.58 4
5 -5 -2 145.57 75.84 13
5 -5 2 -0.36 54.06 13
-5 5 2 85.61 84.6 12
-5 5 -2 47.3 24.83 12
5 -5 2 56.68 23.33 3
-5 5 2 173.1 103.24 10
5 -5 -2 127.65 89.82 5
5 -5 2 67.37 78.07 9
5 -5 -2 14.98 41.53 8
5 -5 -2 37.21 42.33 17
5 -5 2 238.05 98.1 17
5 -5 -3 -17.13 26.07 7
-5 5 -3 92.6 90.35 4
5 -5 -3 -73.46 66.4 13
5 -5 -3 33.06 57.95 17
5 -5 3 84.07 13.94 13
-5 5 3 -45.81 53.21 12
-5 5 -3 -13.53 37.51 12
5 -5 3 -127.51 83.67 3
-5 5 3 33.4 24.94 10
5 -5 -3 -0.13 57.84 5
5 -5 3 28.66 91.28 9
5 -5 -3 78.87 83.73 8
5 -5 3 61.86 60.61 17
5 -5 -4 521.77 289.84 7
5 -5 -4 2116.34 298.12 13
5 -5 4 1719.56 278.25 13
-5 5 4 1798.45 288.74 12
5 -5 4 1812.7 326.44 3
5 -5 -4 2188.47 339.31 5
-5 5 4 1809.12 306.31 10
5 -5 4 1987.82 335.24 9
-5 5 -4 1845.57 320.84 4
5 -5 -4 1932.47 317.82 8
5 -5 -4 1899.21 307.17 17
5 -5 -5 -108.03 112.54 7
-5 5 -5 -315.79 182.34 4
-5 5 5 73.89 47.04 12
5 -5 5 289.69 240.64 3
-5 5 5 -24.45 86.77 10
5 -5 -5 4.65 52.75 5
5 -5 5 -120.32 226.17 9
5 -5 -5 28.44 93.47 8
5 -5 -5 110.97 58.29 17
6 0 2 442.81 131.17 9
-6 0 -3 1328.42 219.72 1
6 0 3 1230.78 229.54 9
-6 0 -3 1467.22 245.08 4
-6 0 -4 28.7 26.67 1
0 -6 -4 -13.09 21.19 6
-6 0 -4 12.66 46.34 6
0 6 4 11.22 20.55 12
6 0 4 -18.19 44.15 9
0 6 4 32.16 27.82 2
-6 0 -4 -47.35 45.61 4
-6 0 -5 353.41 123.53 1
0 -6 -5 334.77 125.08 6
-6 0 -5 354.64 127.14 6
6 0 5 489 146.46 11
6 0 5 307.05 134.14 9
0 6 5 234.37 125.39 2
-6 0 -5 337.37 130.66 4
0 -6 -6 80.19 67.55 6
6 0 6 -19.82 20.31 11
-6 0 -6 33.75 81.08 1
6 0 6 -113.11 79.8 9
0 6 6 -42.51 77.8 2
-6 0 -6 87.7 70.93 4
0 -6 -7 300.32 152.02 6
6 0 7 67.8 44.06 11
6 0 7 108 93.71 9
-6 1 0 -22.22 30.54 14
6 -1 0 0.82 35.81 13
6 -1 0 9 34.61 9
-6 1 0 31.8 39.6 4
-6 1 1 1834.58 233.96 14
6 -1 1 2548.46 303.76 13
-6 1 -1 2165.21 246.08 10
-6 1 -1 2029.09 218.92 1
6 -1 1 2032.52 267.84 9
-6 1 -1 2000.93 265.8 4
6 -1 2 240.04 84.29 13
-1 6 2 131.55 60.77 12
6 -1 2 160.07 72.39 9
-1 6 2 173.14 65.23 2
-6 1 -2 157.72 80.75 4
1 -6 -2 139.73 54.69 8
-6 1 -2 147.42 67.77 1
-6 1 -3 -5.21 33.32 1
1 -6 -3 41.62 23.09 6
-1 6 3 -20.99 15.07 12
6 -1 3 -99.28 77.92 9
-1 6 3 -83.18 73.15 2
-6 1 -3 20.91 36.44 4
1 -6 -3 -42.91 63.75 8
1 -6 -4 4.42 22.41 8
1 -6 -4 -64.51 53.01 6
-1 6 4 11.96 46.49 12
-6 1 -4 -50.55 59.82 1
6 -1 4 -56.59 91.43 9
-1 6 4 2.17 37.64 2
-6 1 -4 74.56 66.41 4
-6 -1 -5 10.64 28.38 4
-6 1 -5 51.92 14.85 4
-6 -1 -5 -43.79 27.4 1
1 -6 -5 8.14 82.07 8
-6 -1 -5 11.76 26.37 6
6 -1 5 104.01 82.59 11
-6 1 -5 57.34 44.59 1
6 1 5 78.02 29.89 9
6 -1 5 110.13 65.67 9
-1 6 5 -88.44 63.42 2
-1 6 6 27.26 56.91 2
-1 -6 -6 151.92 99.54 6
-6 -1 -6 81.73 65.34 6
-6 -1 -6 -31.27 6.64 1
6 -1 6 48.5 55.68 11
1 -6 -6 18.22 48.22 5
-6 1 -6 9.82 64.23 1
-6 -1 -6 136.52 112.32 4
6 1 6 37.08 62.46 9
6 -1 6 32.19 38.98 9
1 6 6 36.2 84.7 2
1 -6 -6 28.67 75.64 8
-6 1 -6 70.56 69.54 4
-6 1 -7 72.79 42.43 4
-6 -1 -7 155.54 113.82 6
6 -1 7 37.88 51.62 11
6 1 7 8.65 71.32 9
-6 2 0 1856.27 214.33 14
6 -2 0 1943.74 274.62 13
-2 6 0 1491.12 231.57 12
-6 2 0 1574.95 221.89 10
6 -2 0 1610.72 233.42 5
6 -2 0 1616.64 230.68 9
-6 2 0 1179.09 246.84 4
2 -6 0 2391.27 291.58 8
2 -6 0 1980.66 280.5 17
-6 2 -1 52.54 44.96 15
-6 2 1 93.65 32.08 14
6 -2 -1 162.27 71.79 13
6 -2 1 87.17 33.71 13
-2 6 1 66.92 56.01 12
-2 6 -1 103.87 51.26 12
2 -6 1 47.68 55.4 3
-6 2 -1 102.14 58.68 10
-6 2 1 92.27 66.14 10
6 -2 -1 124.85 70.29 9
6 -2 1 132.07 62.27 9
6 -2 -1 58.46 44.4 5
-2 6 1 83.02 23.08 2
-6 2 1 21.99 49.22 4
-6 2 -1 20.89 39.12 4
6 -2 -1 95.79 52.25 18
2 -6 -1 122.05 67.9 17
2 -6 1 131.05 79.18 17
2 -6 -1 116.61 61.96 8
-6 2 -2 215.42 109.49 15
-6 2 2 368.15 117.86 14
6 -2 -2 325.13 122.65 13
6 -2 2 481.91 141.19 13
-2 6 2 289.37 109.16 12
-2 6 -2 249.24 95.4 12
-2 6 2 264.75 108.7 10
2 -6 2 358.37 119.09 3
-6 2 2 347.94 125.55 10
6 -2 2 377.34 128.66 9
6 -2 -2 377.53 124.55 5
-2 6 2 269.81 89.2 2
-6 2 2 141.98 60.62 4
6 -2 -2 244.35 98.26 18
-6 2 -2 426.77 144.74 4
2 -6 -2 274.19 100.81 8
2 -6 -2 278.56 120.12 17
-6 2 3 129.79 85.62 14
6 -2 3 44.81 34.62 13
6 -2 -3 -43.4 74.76 18
-2 6 3 118.65 67.64 2
-2 6 3 2.55 60.15 12
-6 2 -3 8.87 37.29 1
-2 6 3 77.78 73.48 10
-6 2 3 140.8 81.74 10
6 -2 3 -25.52 32.48 9
6 -2 -3 141.66 66.08 5
-6 2 -3 13.52 11.99 4
2 -6 -3 189.32 105.38 8
2 -6 -3 54.88 50.91 17
-6 2 4 1875.33 294.73 14
6 -2 4 2694.37 318.28 13
-2 6 4 2068.33 296.01 12
-2 6 4 2502.18 356.31 10
-6 2 4 2339.82 345.84 10
6 -2 -4 2325.58 331.16 5
6 -2 4 2047.54 318.36 9
-2 6 4 2368.57 324.31 2
-6 2 -4 2004.04 278.79 1
-6 2 -4 2260.98 331.5 4
2 -6 -4 2825.58 362.34 8
6 -2 -4 2440.14 351.26 18
2 -6 -4 2513.59 322.89 17
-2 6 5 38.32 66.98 2
-6 2 5 -20.69 64.25 14
6 -2 -5 15.06 82.55 7
-2 6 5 43.87 6.44 10
2 -6 -5 20.2 23.47 5
-6 2 5 182.34 121.77 10
-6 2 -5 49.25 52.06 1
6 -2 5 46.73 53.19 9
6 -2 -5 0.28 49.83 5
2 -6 -5 5.34 74.52 8
6 -2 -5 -0.22 84.47 18
-6 2 -5 -3.32 43.88 4
-6 2 -6 40.47 75.77 4
6 -2 6 116.3 68.12 3
-6 2 6 147.3 109.45 10
6 -2 6 61.55 21.88 9
-6 2 -6 43.96 65.68 1
6 -2 -6 123.1 46.08 18
2 -6 -7 13.14 63.63 8
-6 3 0 71.33 69.33 15
6 -3 0 68.62 48.34 13
-6 3 0 21.01 39.13 4
-6 3 0 60.1 49.2 12
-3 6 0 37.9 51.24 4
-3 6 0 -44.54 52.9 12
-3 6 0 -81.71 60.75 10
3 -6 0 73.67 53.37 3
-6 3 0 -3.21 24.68 10
6 -3 0 13.26 32.26 5
6 -3 0 -58.68 46.03 9
6 -3 0 -23.04 30.99 18
3 -6 0 8.82 36.94 17
3 -6 0 8.36 31.25 8
-6 3 -1 182.24 77.84 15
-6 3 1 218.57 85.33 14
6 -3 -1 311.16 129.02 13
6 -3 1 138.38 55.8 13
-6 3 1 281.52 108.84 12
-6 3 -1 154.15 76.06 12
-3 6 -1 22.6 89.71 4
-3 6 1 288.12 107.21 12
-3 6 -1 180.99 82.01 12
3 -6 1 231.38 114.3 3
-3 6 1 179.57 76.47 10
-6 3 -1 224.81 91.41 10
-6 3 1 234.74 95.18 10
6 -3 -1 209.22 79.33 5
6 -3 1 379.47 116.6 5
6 -3 -1 271.61 85.72 9
6 -3 1 222.81 91.12 9
6 -3 -1 325.3 105.99 18
-6 3 1 31.39 55.1 4
-6 3 -1 210.63 97.79 4
3 -6 -1 253.92 99.18 8
3 -6 -1 245.11 107.02 17
3 -6 1 233.89 95.33 17
3 -6 1 219.33 96.05 8
3 -6 -2 1260.75 228.89 17
6 -3 -2 1041.09 187.73 7
-6 3 2 1105.75 208.05 14
6 -3 -2 1277.59 224.08 13
6 -3 2 1173.84 217.54 13
-6 3 -2 1305.49 222.22 12
-6 3 2 1205.19 227.28 12
-3 6 -2 1212.08 224.88 4
-3 6 2 1125.55 225.93 12
-3 6 -2 1021.43 199.44 12
-3 6 2 1417.45 249.99 10
3 -6 2 1323.86 229.68 3
6 -3 -2 1209.87 231.38 5
-6 3 2 990.78 205 10
3 -6 2 1257.16 223 9
6 -3 2 1332.77 231.91 9
6 -3 -2 1403.56 233.6 18
3 -6 -2 1421.73 242.55 8
-6 3 -2 987.77 195.04 4
3 -6 2 1255.13 218.88 17
-6 3 3 175 98.82 14
6 -3 -3 231.5 98.95 13
6 -3 3 163.56 67.84 13
6 -3 3 87.65 35.75 17
6 -3 -3 37.82 111.78 7
-6 3 3 170.4 83.39 12
-3 6 -3 45.99 25.07 4
-3 6 3 67.16 19.24 12
-3 6 -3 64.47 48.17 12
-3 6 3 149.85 82.79 10
3 -6 3 274.28 102.6 3
-6 3 3 129.32 64.76 10
6 -3 -3 21.5 48.31 5
6 -3 3 122.5 69.48 9
3 -6 3 114.34 67.85 9
6 -3 -3 319.14 131.33 18
3 -6 -3 225.74 103.29 17
3 -6 -3 194.51 96.89 8
-6 3 -3 174.75 90.13 4
-6 3 -4 -52.23 31.75 4
-6 3 4 -72.22 76.73 14
3 -6 -4 -19.45 80.76 7
-3 6 4 83.17 86.1 2
6 -3 -4 71.57 72.41 13
6 -3 4 58.8 92.9 13
6 -3 -4 11.92 86.07 7
3 -6 -4 -85.86 79.15 8
-3 6 -4 -58.02 96.26 4
-3 6 4 49.4 68.21 12
-3 6 4 -89.28 81.76 10
3 -6 -4 -0.68 74.87 5
-6 3 4 30.19 75.7 10
6 -3 -4 -1.1 46.28 5
6 -3 4 -12.94 32.6 9
3 -6 4 86.55 79.41 9
6 -3 -4 -53.29 66.62 18
3 -6 -4 20.18 55.26 17
-6 3 -5 74.68 40.37 4
-6 3 5 64.82 89.85 14
3 -6 -5 79.53 95.87 7
-3 6 5 69.7 36.04 2
6 -3 -5 12.01 39.55 7
-3 6 5 123.26 94.93 12
-3 6 -5 131.46 78.8 4
6 -3 5 41.28 64.54 3
-3 6 5 114.93 67.45 10
3 -6 5 47.29 38.9 3
3 -6 -5 5.01 87.31 5
-6 3 5 176.22 105.32 10
6 -3 -5 5.11 90.72 5
6 -3 5 250.49 123.23 9
3 -6 5 7.78 41.24 9
6 -3 -5 104.35 88.21 18
3 -6 -5 8.39 79.33 8
3 -6 -5 109.78 63.45 17
-6 3 -6 203.28 143.69 4
3 -6 -6 6.2 111.67 7
6 -3 -6 -9.45 30.36 7
-3 6 6 152.96 80.22 2
-3 6 -6 109.85 89.59 4
6 -3 6 154.81 97.09 3
-3 6 6 216.76 114.03 10
-6 3 6 73.16 86.9 10
3 -6 -6 0.4 39.56 5
6 -3 -6 2.64 129.54 5
6 -3 6 -68.44 140.01 9
3 -6 -6 4.53 85.68 8
-6 4 0 319.65 97.42 15
6 -4 0 397.49 133.07 13
-6 4 0 407.16 138.94 12
-4 6 0 248.02 102.77 12
6 -4 0 399.15 137.13 17
4 -6 0 359.28 114.86 3
-6 4 0 456.76 125.4 10
6 -4 0 443.63 132.36 5
6 -4 0 305.95 96.12 9
4 -6 0 430.81 123.47 9
6 -4 0 410.53 124.56 8
4 -6 0 525.16 295.29 17
4 -6 0 360.83 120.67 8
-6 4 0 86.19 112.33 4
-6 4 -1 185.4 170.81 4
6 -4 -1 657.07 172.09 13
6 -4 1 692.35 172.4 13
-4 6 -1 699.36 166.36 4
-6 4 1 906.73 201.37 12
-6 4 -1 645.98 156.01 12
-4 6 1 794.59 178.24 12
-4 6 -1 624.07 163.35 12
4 -6 1 884.58 194.33 3
-4 6 -1 688.1 157 10
-4 6 1 694.41 170.06 10
4 -6 -1 771.57 179.16 5
-6 4 -1 756.44 159.17 10
-6 4 1 569.12 152.38 10
6 -4 -1 539.93 150.55 5
6 -4 1 770.89 168.88 5
6 -4 1 481.14 138.03 9
4 -6 1 655.41 157.21 9
6 -4 -1 661.35 169.24 8
6 -4 1 678.46 151.43 8
6 -4 -1 547.78 161.79 17
6 -4 1 571.72 159 17
4 -6 -1 699.32 167.03 8
4 -6 -1 688.49 180.91 17
4 -6 1 762.29 178.24 17
4 -6 1 744.46 162.33 8
-6 4 1 711.52 154.03 4
-6 4 -2 218.07 112.69 4
6 -4 -2 152.56 56.97 13
6 -4 2 147.17 67.35 17
6 -4 2 107.15 88.56 13
4 -6 -2 188.51 95.76 13
-4 6 -2 6.33 62.08 4
-6 4 2 113.93 74.32 12
-6 4 -2 271.13 115.6 12
-4 6 2 213.05 104.67 12
-4 6 -2 97.57 43.26 12
4 -6 2 137.04 73.66 3
-4 6 2 252.1 108.74 10
4 -6 -2 166.16 99.34 5
-6 4 2 207.05 91.75 10
6 -4 -2 133.77 78.73 5
6 -4 2 204.74 107.78 9
4 -6 2 249.42 103.14 9
6 -4 -2 62.87 37.41 8
6 -4 -2 26.36 46.67 17
4 -6 -2 122.96 87.51 8
4 -6 -2 119.13 54.09 17
4 -6 2 183.04 103.54 17
-6 4 -3 499.75 169.68 4
4 -6 -3 98.04 147.09 7
6 -4 -3 476.61 141.05 13
6 -4 3 514.69 152.61 13
4 -6 -3 428.49 143.43 13
6 -4 -3 112.04 128.29 7
-4 6 -3 383.78 133.03 4
-6 4 3 535.78 155.05 12
-4 6 3 333.67 119.39 12
-4 6 -3 331.49 114.4 12
4 -6 3 449.22 144.62 3
-4 6 3 571.92 163.89 10
4 -6 -3 13.06 160.15 5
6 -4 3 393.06 139.45 9
4 -6 3 462.16 138.92 9
4 -6 -3 181.17 85.64 8
4 -6 -3 406.44 122.19 17
4 -6 3 405.66 113.53 17
-6 4 -4 157.45 82.59 4
4 -6 -4 -0.26 72.13 7
6 -4 -4 67.81 64.48 13
6 -4 4 -30.57 52.02 13
6 -4 -4 -11.17 10.98 7
-6 4 4 -5.54 39.75 12
-4 6 -4 2.57 11.75 4
-4 6 4 69.83 33.66 12
6 -4 4 -58.46 40.26 3
4 -6 4 87.44 76.81 3
-4 6 4 163.66 118.72 10
-6 4 4 -57.09 60.55 10
4 -6 -4 -15.49 45.25 5
6 -4 -4 -3.02 58.33 5
6 -4 4 -16.87 59.64 9
4 -6 4 86.69 71.39 9
6 -4 -4 -83.93 73.22 8
6 -4 -4 82.14 42.83 17
4 -6 -4 176.08 122.47 8
4 -6 -4 -77.78 95.28 17
-6 4 5 300.15 178.93 14
-6 4 -5 344.01 147.68 4
4 -6 -5 32.41 127.15 7
-4 6 -5 107.52 106.17 4
-4 6 5 329.47 140.29 12
4 -6 -5 -1.6 39.65 8
6 -4 5 148.05 105.52 3
-4 6 5 310.02 146.47 10
4 -6 5 77.57 38.49 3
-6 4 5 320.14 165.02 10
4 -6 -5 2.47 77.65 5
6 -4 5 27.38 54.59 9
4 -6 5 276.34 145.51 9
6 -4 -5 236.39 265.68 8
-6 5 0 99.43 77.19 4
6 -5 0 -123.1 85.97 13
5 -6 0 -148.49 84.93 13
-5 6 0 2.91 65.66 4
-6 5 0 -4.1 62.59 12
-5 6 0 -92.92 74.84 12
5 -6 0 -50.09 57.1 3
-5 6 0 52.31 51.67 10
-6 5 0 -52.4 49.98 10
5 -6 0 -41.71 52.15 5
6 -5 0 -100.48 63.72 5
6 -5 0 57.39 34.41 8
6 -5 0 11.96 58.94 17
5 -6 0 -47.06 58.74 8
5 -6 0 -33.5 50.04 17
-6 5 -1 541.15 230.16 4
6 -5 -1 1089.31 237.78 13
6 -5 1 962.96 219.52 13
5 -6 -1 1007.92 228.06 13
5 -6 1 1267.37 256.9 13
-5 6 -1 968.7 205.63 4
-6 5 1 1171.71 233.52 12
-6 5 -1 902.96 217.4 12
-5 6 -1 1043.34 230.17 12
5 -6 1 1215.69 230.59 3
-5 6 -1 1243.9 223.52 10
-6 5 1 1040.77 222.93 10
5 -6 1 989.98 187.86 5
5 -6 -1 1247.57 241.23 5
6 -5 -1 1190.47 228.09 5
6 -5 1 1054.31 219.82 9
5 -6 1 1056.14 214.56 9
6 -5 -1 938.43 209.48 8
5 -6 -1 1109.32 219.8 8
6 -5 -1 1225.34 245.33 17
6 -5 1 1080.94 227.91 17
5 -6 -1 1109.31 232.68 17
5 -6 1 1176.62 238.89 17
-6 5 -2 -0.67 52.87 4
6 -5 -2 16.69 33.87 13
6 -5 2 -15.97 70.13 13
5 -6 -2 -19.12 11.5 13
5 -6 2 -18.3 82.39 13
-5 6 -2 -16.84 58.16 4
-6 5 2 68.96 38.77 12
-6 5 -2 41.81 58.48 12
-5 6 2 -293.29 122 12
-5 6 -2 113.07 75.49 12
6 -5 2 49.75 23.61 3
-5 6 2 -59.22 77.07 10
-6 5 2 162.47 91.04 10
5 -6 -2 -47.28 84 5
6 -5 -2 82.16 58.31 5
6 -5 2 88.07 44.42 9
5 -6 2 -1 60.47 9
6 -5 -2 111.51 65.29 8
5 -6 -2 85.87 28.82 8
6 -5 -2 4.95 62.71 17
6 -5 2 75.29 53.16 17
5 -6 -2 65.25 75.2 17
5 -6 2 -109.12 96.61 17
6 -5 -3 -39.4 10.52 13
6 -5 3 32.31 39.48 13
5 -6 -3 91.65 52.67 13
5 -6 3 135.03 92.88 13
-5 6 -3 -1.53 93.25 4
-6 5 3 113.2 86.73 12
-5 6 3 -9.81 75.9 12
-5 6 -3 22.52 64.61 12
6 -5 3 -8.13 16.42 3
5 -6 3 24.86 60.59 3
-5 6 3 81.83 74.46 10
-6 5 3 23.37 8.9 10
5 -6 -3 0.59 32.73 5
6 -5 -3 2.14 48.83 5
6 -5 3 181.85 120.39 9
5 -6 3 -48.12 70.59 9
6 -5 -3 -30.26 52.75 8
5 -6 -3 134.28 71.55 8
6 -5 -3 -0.65 6.78 17
5 -6 -3 230.89 99.2 17
5 -6 3 30.2 19.53 17
6 -5 -4 24.61 75.95 13
5 -6 -4 8.14 78.83 7
-6 5 -4 -99.85 60.02 4
6 -5 4 -67.76 23.03 13
6 -5 -4 -351.38 131.23 7
5 -6 4 70.12 42.47 13
-5 6 -4 243.78 154.07 4
-6 5 4 201.39 118.11 12
-5 6 4 51.71 71.72 12
6 -5 4 -64.8 88.57 3
5 -6 4 119.03 84.57 3
-5 6 4 -28.72 26.97 10
-6 5 4 196.58 120.54 10
5 -6 -4 -37.74 45.48 5
6 -5 -4 1.28 45.03 5
6 -5 4 -110.88 101.87 9
5 -6 4 112.17 118.29 9
6 -5 -4 -84.2 76.02 8
5 -6 -4 -33.99 72.52 8
6 -5 -4 114.9 101.4 17
5 -6 -4 -8.98 43.52 17
5 -6 -5 22.16 91.77 7
6 -5 -5 23.99 74.51 7
-6 5 5 -55.19 35.92 12
-5 6 5 -14.48 30.39 12
6 -5 -5 -86.25 108.55 17
5 -6 -5 -1.17 36.47 17
6 -6 0 152.46 98.84 13
-6 6 0 46.72 41.22 12
6 -6 0 72.96 60.65 3
-6 6 0 189.33 100.56 10
6 -6 0 290.71 123.23 5
6 -6 0 84.18 58.13 8
6 -6 0 215.28 78.6 17
-6 6 -1 30.01 59.86 4
6 -6 -1 -32.74 68.72 13
6 -6 1 -20.26 82.02 13
-6 6 1 -52.23 28.74 12
-6 6 -1 -154.54 120.69 12
6 -6 1 -7.85 25.57 3
-6 6 1 -4.1 48.27 10
6 -6 -1 -15.28 25.51 5
6 -6 -1 48.84 89.37 8
6 -6 -1 -92.94 90.44 17
6 -6 1 179.3 107.2 17
6 -6 -2 81.35 84.02 13
-6 6 -2 3.66 44.28 4
6 -6 2 -58.67 91.49 13
-6 6 2 45.56 36.3 12
-6 6 -2 101.33 84.1 12
6 -6 2 30.42 73.35 3
-6 6 2 -60.62 89.39 10
6 -6 -2 210.14 125.01 5
6 -6 2 47.84 78.59 9
6 -6 -2 147.62 85.17 8
6 -6 -2 -29.65 41.02 17
6 -6 2 22.78 50.3 17
6 -6 -3 53.58 84.14 13
6 -6 3 9.03 47.35 13
-6 6 -3 3.76 42.58 4
-6 6 3 25.94 43.35 12
6 -6 3 31.36 125.63 3
-6 6 3 -80.85 96.89 10
6 -6 -3 -0.49 71.23 5
6 -6 3 40.3 77.24 9
6 -6 -3 8.78 52.95 8
6 -6 -3 -97.24 105.02 17
6 -6 4 339.1 168.46 13
-6 6 4 451.91 183.6 12
6 -6 -4 457.68 168.07 17
-7 0 -4 75.57 98.43 1
7 0 4 49.12 35.55 9
-7 0 -4 96.95 78.61 4
-7 0 -5 1016.4 223.67 1
7 0 5 1076.18 258.79 9
-7 0 -5 1017.2 223.79 4
-7 0 -6 15.09 34.8 1
-7 0 -6 -0.24 28.86 4
7 -1 1 783.89 184.61 9
-7 1 -1 709.06 169 4
7 -1 2 261.35 100.17 9
-7 1 -2 161.13 44.66 4
-7 1 -3 700.57 158.93 1
7 -1 3 534.77 160.58 9
-7 1 -3 574.8 169.13 4
-7 1 -4 62.64 25.33 1
-1 7 4 28.8 43.4 12
7 -1 4 182.03 82.47 9
-1 7 4 167.15 106.4 2
-7 1 -4 142.2 64.55 4
1 -7 -4 10.23 132.32 8
-7 1 -5 49.81 45.22 1
7 -1 5 231.33 122.22 9
-1 7 5 169.85 124.24 2
-7 1 -5 77.76 79.12 4
1 -7 -5 -18.22 45.46 8
-7 1 -6 66.74 57.57 1
-7 1 -6 1.59 30.12 4
1 -7 -6 -4.25 107.62 8
7 -2 0 -26.71 77.36 13
-7 2 0 69.39 54.93 10
7 -2 0 -37.35 62 9
-7 2 0 14.86 42.22 4
-7 2 1 84.88 63.94 14
7 -2 -1 -2.63 61.86 13
7 -2 1 16.08 41.59 13
-2 7 1 21.17 44.25 12
-7 2 -1 66.45 63.65 10
-7 2 1 82.53 66.55 10
7 -2 -1 -48.03 53.53 9
7 -2 1 -11.86 46.02 9
-7 2 1 0.97 12.01 4
-7 2 -1 37.07 65.08 4
2 -7 -1 28.67 33.41 17
-7 2 2 2542.83 323.53 14
7 -2 2 3241.8 391.13 13
-2 7 2 2807.9 364.96 12
-7 2 2 2668.35 357.64 10
7 -2 2 2848.15 359.08 9
-7 2 -2 2551.22 342.15 4
2 -7 -2 3699.77 426.36 8
2 -7 -2 3432.21 400.38 17
7 -2 3 347.01 131.4 13
-2 7 3 278.71 112.74 12
-7 2 3 329.48 137.71 10
7 -2 3 150.16 87.14 9
-2 7 3 75.41 33.84 2
-7 2 -3 222.67 92.7 4
2 -7 -3 395.38 134.64 17
2 -7 -3 130.83 68.05 8
7 -2 4 16.84 21.61 13
-2 7 4 -7.51 45.64 12
7 -2 4 120.63 53.86 9
-2 7 4 -81.42 61.38 2
-7 2 -4 -19.49 66.74 4
2 -7 -4 19.78 84.31 8
2 -7 -4 115.67 80.3 17
7 -2 5 226.77 135.74 9
2 -7 -5 10.24 97.92 8
-7 2 -5 -34.47 48.19 4
-2 7 5 135.06 100.77 2
7 -3 0 3598.9 412.05 13
-7 3 0 3326.17 389.37 12
-3 7 0 2929.35 375.18 12
-7 3 0 2912.68 353.5 10
7 -3 0 3410.35 371 5
7 -3 0 2738.09 333.92 9
-7 3 0 2555.96 342.64 4
3 -7 0 4090.81 424.24 8
3 -7 0 3599.75 419.03 17
-7 3 -1 96.8 67.93 15
-7 3 1 104.48 75.34 14
7 -3 -1 241.74 117.12 13
7 -3 1 213.82 104.5 13
-7 3 1 258.33 123.21 12
-7 3 -1 186.26 98.64 12
-3 7 1 233.63 128.34 12
-3 7 -1 219.75 124.94 12
3 -7 1 171.03 95.98 3
-7 3 1 280.39 112.18 10
7 -3 1 0.58 36.2 9
7 -3 -1 81.67 25.28 5
7 -3 -1 52.63 49.37 18
-7 3 1 32.92 92.01 4
-7 3 -1 49.26 78.48 4
3 -7 -1 110.38 100.37 17
3 -7 1 159.11 69.85 17
3 -7 -1 162.78 76.5 8
-7 3 2 27.17 30.41 14
7 -3 -2 174.41 100.71 13
7 -3 2 253.77 110.7 13
-3 7 2 107.95 23.57 12
-3 7 -2 53.92 50.95 12
-3 7 2 284.3 135.83 10
3 -7 2 142.31 103.05 3
-7 3 2 229.96 105.07 10
7 -3 -2 294.44 128.21 5
7 -3 2 166.26 116.7 9
7 -3 -2 106.33 88.63 18
-7 3 -2 22.52 27.69 4
3 -7 -2 158.99 94.67 8
3 -7 -2 29.59 44.38 17
-7 3 3 -42.94 78.45 14
7 -3 -3 92.03 11.61 13
7 -3 3 87.99 83.78 13
-3 7 3 86.84 34.08 12
-3 7 -3 187.18 115.91 12
-3 7 3 141.95 98.29 10
3 -7 3 175.11 136.17 3
-7 3 3 173.12 108.63 10
7 -3 -3 16.27 176.07 5
7 -3 3 162.09 104.72 9
7 -3 -3 144.06 85.79 18
3 -7 -3 60.38 10.98 8
-7 3 -3 94.69 98.59 4
3 -7 -3 -17.41 68.17 17
-7 3 4 398.58 159.41 14
-3 7 4 184.67 81.53 12
-3 7 4 385.85 144.73 10
3 -7 -4 2.09 109.18 5
-7 3 4 533.39 188.69 10
7 -3 -4 -0.31 103.63 5
7 -3 -4 545.41 196.15 18
3 -7 -4 104.39 170.37 8
3 -7 -4 231.86 106.54 17
-7 3 -4 86.27 36.93 4
-7 3 -5 48.17 57.53 4
-7 3 5 115.99 73.6 14
3 -7 -5 8.72 118.02 7
-3 7 5 43.07 32.57 12
-3 7 5 -46.58 87.38 10
3 -7 -5 58.26 125.89 5
-7 3 5 80.79 93.06 10
3 -7 -5 -14.52 57.39 8
-7 4 0 -30.63 71.25 15
7 -4 0 -50.94 56.41 13
-7 4 0 48.68 85.11 12
-4 7 0 -6.87 76.02 4
-4 7 0 85.39 82.95 12
-7 4 0 -42.53 50.88 10
7 -4 0 -81.93 64.97 5
7 -4 0 -8.85 32.81 8
7 -4 0 134.78 73.04 17
4 -7 0 141.48 106.02 17
4 -7 0 -2.94 43.52 8
7 -4 -1 453.91 144.01 13
7 -4 1 526.84 169.57 13
-7 4 1 499.32 160.7 12
-7 4 -1 476.41 154.7 12
-4 7 -1 32.25 83.38 4
-4 7 1 353.05 116.88 12
-4 7 -1 392.34 126.87 12
-4 7 1 439.3 151.52 10
4 -7 1 387.44 136.39 3
-7 4 1 401.96 135.6 10
7 -4 -1 258.94 92.36 5
7 -4 1 235.25 97.46 9
4 -7 1 454.45 134.92 9
7 -4 -1 350.25 134.74 8
7 -4 -1 452.59 134.5 18
7 -4 1 460.73 154.15 17
4 -7 -1 516.91 160.66 8
4 -7 -1 339.95 112.51 17
4 -7 1 409.09 128.99 17
-7 4 -1 231.68 147.39 4
4 -7 1 449.84 146.14 8
-7 4 -2 29.98 128.14 4
7 -4 -2 -7.92 60.53 13
7 -4 2 137.36 90.86 13
-7 4 2 -68.45 101.8 12
-7 4 -2 -56.57 78.03 12
-4 7 -2 41.38 98.16 4
-4 7 -2 109.32 71.46 12
-4 7 2 24.88 81.02 10
4 -7 2 213.12 107.53 3
4 -7 -2 68.43 32.23 5
-7 4 2 191.32 114.34 10
7 -4 -2 136.87 75.33 5
7 -4 2 52.04 50.71 9
4 -7 2 198.01 120.29 9
7 -4 -2 -69.66 82.74 8
7 -4 -2 139.89 88.23 18
7 -4 2 93.59 51.76 17
4 -7 2 132.07 84.5 17
-7 4 -3 396.2 226.98 4
7 -4 -3 1037.98 239.67 13
7 -4 3 873.79 207.82 13
4 -7 -3 671.68 179.06 13
-7 4 3 855.86 204.87 12
-4 7 -3 301.19 212.22 4
-4 7 3 919.91 226.21 12
-4 7 -3 841.79 194.38 12
-4 7 3 972.44 225.82 10
4 -7 3 751.43 206.51 3
4 -7 -3 39.61 216.12 5
-7 4 3 931.16 217.63 10
7 -4 -3 48.59 253.18 5
7 -4 3 692.17 205.58 9
4 -7 3 741.88 185.32 9
7 -4 -3 656.84 185.94 8
7 -4 -3 626.64 164.42 18
4 -7 -3 847.04 228.27 8
4 -7 -3 669.13 215.8 17
-7 4 -4 -152.9 135.76 4
4 -7 -4 29.5 109.81 7
7 -4 -4 53.45 54.48 13
7 -4 4 -84.73 100.37 13
-4 7 4 104.64 93.8 12
-4 7 -4 -42.82 58.65 4
-4 7 4 39.75 89.88 10
4 -7 4 141.85 79.49 3
-7 4 4 80.47 60.88 10
4 -7 -4 -15.66 121.76 5
7 -4 -4 -5.8 79.72 5
7 -4 4 10.23 58.58 9
4 -7 4 -75.89 83.25 9
7 -4 -4 -10.81 37.37 8
7 -4 -4 -66.4 71.46 18
7 -4 -4 -14.98 37.49 17
4 -7 -4 -40.99 145.36 8
4 -7 -4 -44.36 63.17 17
4 -7 -5 113.9 179.02 7
7 -4 -5 72.41 170.96 7
-4 7 5 466.31 149.26 12
7 -4 -5 461.07 180.8 17
4 -7 -5 381.87 146.87 17
-7 5 0 14.35 102.39 4
7 -5 0 74.75 86.46 13
5 -7 0 95.47 90.14 13
-7 5 0 279.63 134.5 12
-5 7 0 312.76 126 10
-7 5 0 366.68 137.99 10
5 -7 0 259.6 112.2 5
7 -5 0 195.53 57.14 5
7 -5 0 220.63 117.6 8
7 -5 0 222.51 119.81 17
5 -7 0 270.35 129.52 17
5 -7 0 237.51 97.7 8
-7 5 -1 261.8 159.82 4
7 -5 -1 805.65 210.98 13
7 -5 1 651.55 205.7 13
5 -7 -1 498.7 170.92 13
5 -7 1 562.32 176.91 13
-7 5 1 587.66 167.57 12
-7 5 -1 502.31 166.45 12
-5 7 -1 201.51 157.99 4
-5 7 1 504.43 176.85 12
-5 7 -1 407.02 137.98 12
5 -7 1 433.98 141 3
-5 7 1 568.77 193.74 10
-7 5 1 284.3 119.44 10
5 -7 -1 450.87 129.43 5
7 -5 -1 700.61 189.46 5
7 -5 1 513.04 148.73 9
7 -5 -1 501.64 157.03 8
7 -5 -1 408.41 153.68 17
7 -5 1 597.4 187.87 17
5 -7 -1 575.27 174.28 8
5 -7 -1 611.57 185.22 17
5 -7 1 577.05 171.27 17
-7 5 -2 7.97 20.8 4
7 -5 -2 38.55 95.84 13
7 -5 2 -94.33 40.49 13
5 -7 2 -32.77 74.22 13
-7 5 2 19.74 50.63 12
-7 5 -2 -6.56 47.26 12
-5 7 -2 4.66 66.75 4
-5 7 2 -3.4 48.3 12
-5 7 -2 -6.2 8.93 12
5 -7 2 -39.28 56.07 3
-5 7 2 314.15 157.76 10
-7 5 2 125.2 79.11 10
5 -7 -2 152.53 165.02 5
7 -5 -2 21.7 47.61 5
7 -5 2 -138.76 113.82 9
5 -7 2 -65.45 75.26 9
7 -5 -2 55.29 83.45 8
7 -5 -2 93.23 74.58 17
7 -5 2 216.63 107.45 17
5 -7 -2 61.67 57.67 8
5 -7 -2 192.64 112.01 17
5 -7 2 137.62 85.66 17
-7 5 -3 73.5 142.67 4
7 -5 -3 558.07 169.07 13
7 -5 3 251 89.66 13
5 -7 -3 387.84 154.37 13
5 -7 3 332.79 139.76 13
-7 5 3 641.33 202.33 12
-5 7 -3 222.1 175.37 4
-5 7 3 390.91 127.9 12
-5 7 -3 297.46 108.24 12
7 -5 3 429.68 162.36 3
5 -7 3 647.26 201.67 3
-5 7 3 288.21 138.19 10
-7 5 3 417.5 154.04 10
5 -7 -3 26.05 135.8 5
7 -5 -3 13.82 128.11 5
7 -5 3 278.13 117.05 9
5 -7 3 465.63 171.04 9
7 -5 -3 251.05 141.23 8
7 -5 -3 240.19 120.78 17
5 -7 -3 535.68 188.63 8
5 -7 -3 679.65 200.71 17
5 -7 3 359.48 135.81 17
7 -5 -4 -20.82 87.3 13
7 -5 4 -63.65 94.14 13
5 -7 4 -61.32 94.46 13
-5 7 4 -14.07 90.29 12
7 -6 0 53.74 75.3 13
6 -7 0 -76.53 43.85 13
-7 6 0 -143.85 133.22 12
-6 7 0 -135.24 126.57 12
-6 7 0 31.56 49.68 10
-7 6 0 59.06 74.7 10
6 -7 0 6.3 40.29 5
7 -6 0 -2.86 34.99 17
6 -7 0 -19.5 43.38 17
6 -7 0 34.81 71.32 8
-7 6 -1 6.65 34.76 4
7 -6 -1 -51.94 94.17 13
7 -6 1 46.74 53.72 13
6 -7 -1 -53.86 51.91 13
6 -7 1 104.83 128.51 13
-6 7 -1 1.33 120.09 4
-7 6 1 147.27 98.63 12
-7 6 -1 11.88 61.52 12
-6 7 1 -56.8 34.24 12
-6 7 -1 -7.66 49.81 12
7 -6 1 11.66 44.2 3
6 -7 1 -28.79 54.97 3
-6 7 1 166.94 138.13 10
-7 6 1 -81.7 77.74 10
6 -7 -1 86.65 42.64 5
7 -6 -1 -114.61 93.63 5
7 -6 -1 23.82 76.56 8
7 -6 -1 150.3 114.37 17
6 -7 -1 -35.62 56.07 8
7 -6 1 30.42 64.26 17
6 -7 -1 12.32 49.93 17
6 -7 1 195.07 135.03 17
-7 6 -2 151.06 144.93 4
7 -6 -2 194.65 123.18 13
7 -6 2 512.52 211.9 13
6 -7 -2 358.42 134.19 13
-6 7 -2 52 286.99 4
-7 6 -2 449.29 167.7 12
-6 7 -2 420.49 169.47 12
7 -6 2 481.91 186.43 3
6 -7 2 461.5 164.02 3
-6 7 2 468.59 125.31 10
-7 6 2 354.98 154.56 10
6 -7 -2 32.61 197.45 5
7 -6 -2 243.92 144.46 5
7 -6 2 348 141.49 9
6 -7 2 217.3 87.54 9
7 -6 -2 349.92 147.13 8
6 -7 -2 605.92 207.59 8
7 -6 2 494.55 156.92 17
6 -7 2 632.73 207.34 17
7 -6 -3 224.4 128.9 13
6 -7 -3 172.35 96.21 13
8 -1 3 81.82 119.6 9
-8 1 -3 -31.2 90.28 4
8 -1 4 -28.86 55.05 9
-8 1 -4 -55.05 40.49 4
-8 2 0 92.04 74.38 10
8 -2 0 106.55 69.29 9
-8 2 0 -16.45 46.23 4
8 -2 1 55.35 27.37 9
-8 2 -1 13.45 82.71 4
8 -2 2 132.02 98.09 9
-8 2 -2 -31.9 97.22 4
-2 8 3 47.87 38.29 12
8 -2 3 278.94 143.99 9
-8 2 -3 171.84 100.61 4
-2 8 4 36.59 66.97 12
8 -2 4 116.51 119.64 9
-8 2 -4 287.42 134.3 4
2 -8 -4 16.73 78.34 8
8 -3 0 -126.29 110.01 13
-3 8 0 54.36 82.7 12
-8 3 0 -48.36 50.36 10
8 -3 0 20.78 55.82 9
-8 3 0 8.08 24.52 4
3 -8 0 -68.4 44.41 17
8 -3 -1 -101.76 83.22 13
8 -3 1 3.9 14.87 13
-3 8 1 -25.26 60.63 12
-8 3 1 83.91 97.86 10
8 -3 1 -34.08 70.15 9
-8 3 -1 9.94 67.54 4
3 -8 -1 -177.72 112.82 17
-8 3 2 14.48 35.11 14
8 -3 -2 -119.35 99.58 13
8 -3 2 158.85 128.93 13
-3 8 2 4533.14 636.47 12
-8 3 2 34.35 30.85 10
8 -3 2 51.76 90.35 9
8 -3 -2 15.22 22.81 5
3 -8 -2 6110.43 664.72 17
-8 3 -2 77.74 105.46 4
8 -3 3 38.13 55.73 13
-3 8 3 165.7 94.59 12
-8 3 3 168.17 47.38 10
8 -3 3 230.24 121.62 9
8 -3 -3 3.26 145.26 5
-8 3 -3 76.2 93.79 4
3 -8 -3 129.53 63.4 17
3 -8 -3 147.15 72.51 8
-3 8 4 -63.55 71.48 12
3 -8 -4 -55.62 73.75 17
8 -4 0 512.16 174.86 13
-8 4 0 366.33 150.25 12
-4 8 0 428.81 162.8 12
-8 4 0 385.56 147.59 10
8 -4 0 374.31 141.9 17
-8 4 0 143.03 106.66 4
4 -8 0 294.62 96.29 17
4 -8 0 320.34 85.43 8
8 -4 -1 104.92 73.58 13
8 -4 1 43.69 67.6 13
-8 4 -1 -43.81 65.74 12
-8 4 1 11.2 42.84 12
-4 8 1 -4.62 59.43 12
-4 8 -1 -13.1 31.84 12
-8 4 1 99.99 79.12 10
4 -8 1 11.67 49.36 3
8 -4 -1 15.35 5.22 5
8 -4 1 -43.22 46.23 9
8 -4 -1 81.5 73.55 8
8 -4 1 14.05 18.37 17
4 -8 -1 175.03 127.33 17
4 -8 1 -10.57 78.43 17
-8 4 -1 62.79 106.11 4
4 -8 -1 75.52 56.93 8
8 -4 -2 -14.93 39.69 13
8 -4 2 46.17 18.69 13
-4 8 2 20.99 10.51 12
-4 8 -2 -95.09 80.43 12
4 -8 2 185.67 125.84 3
-8 4 2 6.68 33.06 10
8 -4 -2 103.49 106.4 5
8 -4 2 12.36 49.21 9
8 -4 -2 5.42 8.15 18
8 -4 2 98.58 78.18 17
4 -8 -2 1.16 62.8 17
4 -8 -2 -136.2 113.13 8
-8 4 -2 21.13 41.68 4
8 -4 -3 79.36 145.35 13
8 -4 3 -7.85 57.78 13
4 -8 -3 -21.92 59.6 13
-4 8 3 -7.92 83.84 12
-4 8 -3 23.45 64.77 12
4 -8 3 65.62 54.53 3
8 -4 3 -62.18 62.62 9
8 -4 -3 30.44 7.93 18
-8 5 0 -52.79 57.15 12
-5 8 0 16.53 38.43 12
5 -8 0 78.82 105.1 5
8 -5 0 15.04 56.45 17
5 -8 0 24.26 49.81 8
-8 5 -1 1.81 120.54 4
-8 5 -1 120.5 77.02 12
-5 8 -1 87.7 31.08 12
-5 8 -1 -5.97 56.45 4
-5 8 1 133.88 72.71 10
-8 5 1 134.35 52.71 10
5 -8 -1 167.01 72.11 5
8 -5 -1 60.04 30.01 5
8 -5 -1 202.33 135.7 8
8 -5 1 115.8 103.8 17
5 -8 -1 251.03 110.27 8
5 -8 1 91.19 22.81 17
-8 5 -2 209.12 128.85 12
-5 8 -2 134.9 99.34 12
-5 8 -2 29.6 66.12 4
5 -8 2 108.56 67.66 3
8 -5 2 163.39 101.08 9
8 -5 2 70.04 76.82 17
5 -8 2 109.25 59.3 17
-9 3 0 5.4 144.99 4
9 -3 1 88.09 63.05 9
-9 3 -1 29.97 81.21 4
9 -4 -1 46.06 61.43 8
loop_
_geom_angle_atom_site_label_1
_geom_angle_atom_site_label_2
_geom_angle_atom_site_label_3
_geom_angle
_geom_angle_site_symmetry_1
_geom_angle_site_symmetry_3
_geom_angle_publ_flag
D1A O1 D1A 98(3) 13_575 . ?
D1B O1 D1A 116.0(17) . . ?
D1B O1 D1A 116.0(17) . 13_575 ?
D1C O1 D1A 105(2) . . ?
D1C O1 D1A 105(2) . 13_575 ?
D1C O1 D1B 114(3) . . ?
D2 O2 D2 115(3) . 7_454 ?
D2 O2 D2 115(3) 8_664 6_565 ?
D2 O2 D2 115(3) 8_664 . ?
D2 O2 D2 99(6) 6_565 . ?
D2 O2 D2 99(6) 8_664 7_454 ?
D2 O2 D2 115(3) 6_565 7_454 ?
D1A D1A O1 166.5(11) 8_665 . ?
D1B D1B O1 179.3(18) 6_665 . ?
D1C D2 O2 171(7) 6_565 7_454 ?
D2 D1C O1 164(6) 6_565 . ?
loop_
_geom_bond_atom_site_label_1
_geom_bond_atom_site_label_2
_geom_bond_distance
_geom_bond_site_symmetry_2
_geom_bond_publ_flag
O1 D1A 1.00(3) . ?
O1 D1A 1.00(3) 13_575 ?
O1 D1B 0.97(4) . ?
O1 D1C 0.89(5) . ?
O2 D2 0.93(5) 6_565 ?
O2 D2 0.93(5) 8_664 ?
O2 D2 0.93(5) 7_454 ?
O2 D2 0.93(5) . ?
D1A D1A 0.86(6) 8_665 ?
D1B D1B 0.78(9) 6_665 ?
D2 D1C 0.99(8) 6_565 ?
loop_
_geom_torsion_atom_site_label_1
_geom_torsion_atom_site_label_2
_geom_torsion_atom_site_label_3
_geom_torsion_atom_site_label_4
_geom_torsion
_geom_torsion_site_symmetry_1
_geom_torsion_site_symmetry_2
_geom_torsion_site_symmetry_3
_geom_torsion_site_symmetry_4
_geom_torsion_publ_flag
O1 D1A D1A O1 -20(30) . . 8_665 8_665 ?
O1 D1A D1A O1 -20(30) 10_566 8_665 . . ?
