#------------------------------------------------------------------------------
#$Date: 2022-08-06 14:38:14 +0300 (Sat, 06 Aug 2022) $
#$Revision: 277092 $
#$URL: file:///home/coder/svn-repositories/cod/cif/1/56/71/1567169.cif $
#------------------------------------------------------------------------------
#
# This file is available in the Crystallography Open Database (COD),
# http://www.crystallography.net/
#
# All data on this site have been placed in the public domain by the
# contributors.
#
data_1567169
loop_
_publ_author_name
'Zhang, Chang-Sheng'
'Shao, Ya-Ping'
'Zhang, Fu-Min'
'Han, Xue'
'Zhang, Xiao-Ming'
'Zhang, Kun'
'Tu, Yong-Qiang'
_publ_section_title
;
 Cu(ii)/SPDO complex catalyzed asymmetric Baeyer-Villiger oxidation of
 2-arylcyclobutanones and its application for the total synthesis of
 eupomatilones 5 and 6.
;
_journal_issue                   28
_journal_name_full               'Chemical science'
_journal_page_first              8429
_journal_page_last               8435
_journal_paper_doi               10.1039/d2sc02079c
_journal_volume                  13
_journal_year                    2022
_chemical_formula_moiety         'C14 H17 Br O5'
_chemical_formula_sum            'C14 H17 Br O5'
_chemical_formula_weight         345.18
_space_group_crystal_system      triclinic
_space_group_IT_number           2
_space_group_name_Hall           '-P 1'
_space_group_name_H-M_alt        'P -1'
_atom_sites_solution_hydrogens   geom
_atom_sites_solution_primary     dual
_audit_creation_date             2021-09-27
_audit_creation_method
;
Olex2 1.3
(compiled 2020.11.12 svn.r5f609507 for OlexSys, GUI svn.r6272)
;
_audit_update_record
;
2022-04-04 deposited with the CCDC.	2022-06-22 downloaded from the CCDC.
;
_cell_angle_alpha                94.2410(10)
_cell_angle_beta                 94.434(2)
_cell_angle_gamma                111.794(2)
_cell_formula_units_Z            2
_cell_length_a                   7.8803(2)
_cell_length_b                   9.7157(2)
_cell_length_c                   10.6212(2)
_cell_measurement_reflns_used    6963
_cell_measurement_temperature    303.15(10)
_cell_measurement_theta_max      76.2170
_cell_measurement_theta_min      4.1930
_cell_volume                     748.16(3)
_computing_cell_refinement       'CrysAlisPro 1.171.41.105a (Rigaku OD, 2021)'
_computing_data_collection       'CrysAlisPro 1.171.41.105a (Rigaku OD, 2021)'
_computing_data_reduction        'CrysAlisPro 1.171.41.105a (Rigaku OD, 2021)'
_computing_molecular_graphics    'Olex2 1.3 (Dolomanov et al., 2009)'
_computing_publication_material  'Olex2 1.3 (Dolomanov et al., 2009)'
_computing_structure_refinement  'SHELXL 2018/1 (Sheldrick, 2015)'
_computing_structure_solution    'SHELXT 2014/5 (Sheldrick, 2014)'
_diffrn_ambient_environment      air
_diffrn_ambient_temperature      303.15(10)
_diffrn_detector                 'Hybrid Pixel Array Detector'
_diffrn_detector_area_resol_mean 10.0000
_diffrn_detector_type            HyPix
_diffrn_measured_fraction_theta_full 0.994
_diffrn_measured_fraction_theta_max 0.955
_diffrn_measurement_details
;
List of Runs (angles in degrees, time in seconds):

  # Type    Start    End  Width  t~exp~   \w     \q     \k     \f   Frames
#--------------------------------------------------------------------------
  1  \w     42.00 119.00   0.50    0.05    --   46.32  54.00 135.00  154
  2  \w     91.00 170.00   0.50    0.05    --  104.25  54.00 135.00  158
  3  \w    142.00 173.00   0.50    0.05    --  104.25  45.00  60.00   62
  4  \w    102.00 134.00   0.50    0.05    --  104.25  45.00  60.00   64
  5  \w    132.00 173.00   0.50    0.05    --  104.25  15.00-120.00   82
  6  \w     94.00 120.00   0.50    0.05    --  104.25  15.00-120.00   52
  7  \w     95.00 121.00   0.50    0.05    --  104.25  30.00-180.00   52
  8  \w    126.00 178.00   0.50    0.05    --  104.25  30.00-180.00  104
  9  \w     92.00 176.00   0.50    0.05    --  104.25  61.00-150.00  168
 10  \w    -14.00  28.00   0.50    0.05    --   46.32 -19.00-150.00   84
 11  \w    -27.00  29.00   0.50    0.05    --   46.32 -19.00   0.00  112
 12  \w    -25.00   5.00   0.50    0.05    --   46.32 -54.00  -8.00   60
 13  \w     -7.00  44.00   0.50    0.05    --   46.32 -37.00 -90.00  102
 14  \w     34.00  64.00   0.50    0.05    --  104.25 -54.00  -8.00   60
 15  \w     51.00  88.00   0.50    0.05    --  104.25 -77.00-120.00   74
 16  \w     34.00  72.00   0.50    0.05    --  104.25 -61.00 -30.00   76
 17  \w     43.00  73.00   0.50    0.05    --  104.25 -61.00 150.00   60
 18  \w     61.00  95.00   0.50    0.05    --  104.25 -94.00 150.00   68
 19  \w     74.00 112.00   0.50    0.05    --  104.25-125.00  90.00   76
 20  \w     41.00 112.00   0.50    0.05    --  104.25-125.00  60.00  142
 21  \w     36.00 104.00   0.50    0.05    --  104.25 -94.00  90.00  136
 22  \w     32.00  93.00   0.50    0.05    --  104.25-125.00   0.00  122
 23  \w     62.00  87.00   0.50    0.05    --  104.25-125.00 -60.00   50
 24  \w     82.00 112.00   0.50    0.05    --  104.25-125.00 -90.00   60
 25  \w     37.00  92.00   0.50    0.05    --  104.25 -94.00 -60.00  110
 26  \w     41.00  99.00   0.50    0.05    --  104.25 -94.00-180.00  116
 27  \w    -69.00 -33.00   0.50    0.05    -- -102.00  61.00 -60.00   72
 28  \w    -67.00 -31.00   0.50    0.05    -- -102.00  61.00 -90.00   72
 29  \w    -67.00 -35.00   0.50    0.05    -- -102.00  61.00  90.00   64
 30  \w    -59.00 -29.00   0.50    0.05    -- -102.00  54.00 135.00   60
 31  \w    -56.00  -1.00   0.50    0.05    --  -46.32  54.00 135.00  110
 32  \w   -120.00 -94.00   0.50    0.05    -- -102.00 136.00  78.38   52
 33  \w    -68.00 -36.00   0.50    0.05    --  -46.32 -54.00  -8.00   64
 34  \w   -114.00 -89.00   0.50    0.05    --  -46.32 -54.00  -8.00   50
 35  \w   -167.00-141.00   0.50    0.05    -- -102.00 -54.00  -8.00   52
 36  \w   -140.00-106.00   0.50    0.05    -- -102.00 -54.00  -8.00   68
 37  \w   -116.00 -81.00   0.50    0.05    --  -46.32-125.00 -60.00   70
 38  \w   -159.00 -75.00   0.50    0.05    -- -102.00-125.00   0.00  168
;
_diffrn_measurement_device       'four-circle diffractometer'
_diffrn_measurement_device_type  'XtaLAB Synergy R, DW system, HyPix'
_diffrn_measurement_method       '\w scans'
_diffrn_orient_matrix_type
'CrysAlisPro convention (1999,Acta A55,543-557)'
_diffrn_orient_matrix_UB_11      0.1447049000
_diffrn_orient_matrix_UB_12      0.1402530000
_diffrn_orient_matrix_UB_13      -0.0421787000
_diffrn_orient_matrix_UB_21      -0.1519327000
_diffrn_orient_matrix_UB_22      0.0238946000
_diffrn_orient_matrix_UB_23      -0.0850385000
_diffrn_orient_matrix_UB_31      -0.0296753000
_diffrn_orient_matrix_UB_32      0.0963515000
_diffrn_orient_matrix_UB_33      0.1114347000
_diffrn_radiation_monochromator  mirror
_diffrn_radiation_probe          x-ray
_diffrn_radiation_type           'Cu K\a'
_diffrn_radiation_wavelength     1.54184
_diffrn_reflns_av_R_equivalents  0.0248
_diffrn_reflns_av_unetI/netI     0.0229
_diffrn_reflns_Laue_measured_fraction_full 0.994
_diffrn_reflns_Laue_measured_fraction_max 0.955
_diffrn_reflns_limit_h_max       9
_diffrn_reflns_limit_h_min       -9
_diffrn_reflns_limit_k_max       12
_diffrn_reflns_limit_k_min       -12
_diffrn_reflns_limit_l_max       13
_diffrn_reflns_limit_l_min       -12
_diffrn_reflns_number            8578
_diffrn_reflns_point_group_measured_fraction_full 0.994
_diffrn_reflns_point_group_measured_fraction_max 0.955
_diffrn_reflns_theta_full        67.684
_diffrn_reflns_theta_max         76.451
_diffrn_reflns_theta_min         4.201
_diffrn_source                   'Rotating-anode X-ray tube'
_diffrn_source_type              'Rigaku (Cu) X-ray Source'
_exptl_absorpt_coefficient_mu    3.900
_exptl_absorpt_correction_T_max  1.00000
_exptl_absorpt_correction_T_min  0.69485
_exptl_absorpt_correction_type   multi-scan
_exptl_absorpt_process_details
;
CrysAlisPro 1.171.41.105a (Rigaku Oxford Diffraction, 2021)
Empirical absorption correction using spherical harmonics,
implemented in SCALE3 ABSPACK scaling algorithm.
;
_exptl_crystal_colour            'clear light colourless'
_exptl_crystal_colour_lustre     clear
_exptl_crystal_colour_modifier   light
_exptl_crystal_colour_primary    colourless
_exptl_crystal_density_diffrn    1.532
_exptl_crystal_description       block
_exptl_crystal_F_000             352
_exptl_crystal_size_max          0.13
_exptl_crystal_size_mid          0.11
_exptl_crystal_size_min          0.09
_refine_diff_density_max         0.461
_refine_diff_density_min         -0.495
_refine_diff_density_rms         0.050
_refine_ls_extinction_method     none
_refine_ls_goodness_of_fit_ref   1.068
_refine_ls_hydrogen_treatment    constr
_refine_ls_matrix_type           full
_refine_ls_number_parameters     185
_refine_ls_number_reflns         2995
_refine_ls_number_restraints     0
_refine_ls_restrained_S_all      1.068
_refine_ls_R_factor_all          0.0327
_refine_ls_R_factor_gt           0.0306
_refine_ls_shift/su_max          0.000
_refine_ls_shift/su_mean         0.000
_refine_ls_structure_factor_coef Fsqd
_refine_ls_weighting_details
'w=1/[\s^2^(Fo^2^)+(0.0440P)^2^+0.1921P] where P=(Fo^2^+2Fc^2^)/3'
_refine_ls_weighting_scheme      calc
_refine_ls_wR_factor_gt          0.0819
_refine_ls_wR_factor_ref         0.0832
_reflns_Friedel_coverage         0.000
_reflns_number_gt                2761
_reflns_number_total             2995
_reflns_threshold_expression     'I > 2\s(I)'
_cod_data_source_file            d2sc02079c2.cif
_cod_data_source_block           zhangchangsheng_0918-1_auto
_cod_depositor_comments
'Adding full bibliography for 1567165--1567169.cif.'
_cod_database_code               1567169
_shelx_shelxl_version_number     2018/1
_shelx_space_group_comment
;
The symmetry employed for this shelxl refinement is uniquely defined
by the following loop, which should always be used as a source of
symmetry information in preference to the above space-group names.
They are only intended as comments.
;
_reflns_odcompleteness_completeness 99.48
_reflns_odcompleteness_iscentric 1
_reflns_odcompleteness_theta     66.97
_olex2_refinement_description
;
1.a Ternary CH refined with riding coordinates:
 C10(H10), C11(H11)
1.b Secondary CH2 refined with riding coordinates:
 C12(H12A,H12B)
1.c Aromatic/amide H refined with riding coordinates:
 C3(H3)
1.d Idealised Me refined as rotating group:
 C7(H7A,H7B,H7C), C8(H8A,H8B,H8C), C9(H9A,H9B,H9C), C14(H14A,H14B,H14C)
;
_shelx_res_file
;
TITL zhangchangsheng_0918-1_auto_a.res in P-1
    zhangchangsheng_0918-1_auto.res
    created by SHELXL-2018/1 at 11:24:29 on 18-Sep-2021
REM Old TITL zhangchangsheng_0918-1_auto in P-1
REM SHELXT solution in P-1
REM R1 0.151, Rweak 0.017, Alpha 0.041, Orientation as input
REM Formula found by SHELXT: C14 O5 Br
CELL 1.54184 7.8803 9.7157 10.6212 94.241 94.434 111.794
ZERR 2 0.0002 0.0002 0.0002 0.001 0.002 0.002
LATT 1
SFAC C H Br O
UNIT 28 34 2 10

L.S. 20
PLAN  2
TEMP 30
CONF
BOND $H
list 4
MORE -1
fmap 2 53
acta
REM <olex2.extras>
REM <HklSrc "%.\\zhangchangsheng_0918-1_auto.hkl">
REM </olex2.extras>

WGHT    0.044000    0.192100
FVAR       1.18310
BR1   3    0.220184    0.791211    0.346916    11.00000    0.06321    0.06254 =
         0.07243    0.00259    0.02396    0.03119
O1    4    0.172055    0.471720    0.368897    11.00000    0.04523    0.05933 =
         0.05154    0.01031    0.01247    0.00819
O2    4    0.389638    0.322256    0.291431    11.00000    0.07625    0.03690 =
         0.05804    0.01315    0.00988    0.01533
O3    4    0.662992    0.449626    0.150965    11.00000    0.06527    0.04364 =
         0.07467    0.01859    0.02844    0.02890
O4    4    0.653764    0.952277    0.078419    11.00000    0.06056    0.03794 =
         0.04421    0.00782    0.00694    0.01642
O5    4    0.857940    1.150474    0.008972    11.00000    0.07631    0.06419 =
         0.07498    0.02732    0.01508    0.01135
C1    1    0.422954    0.463768    0.259412    11.00000    0.05247    0.03532 =
         0.04138    0.00664    0.00572    0.01223
C2    1    0.568039    0.533810    0.188963    11.00000    0.05004    0.03755 =
         0.04394    0.00524    0.00945    0.01931
C3    1    0.606302    0.679704    0.163978    11.00000    0.04909    0.03784 =
         0.04289    0.00717    0.01082    0.01609
AFIX  43
H3    2    0.701913    0.725356    0.116302    11.00000   -1.20000
AFIX   0
C4    1    0.504469    0.758842    0.208846    11.00000    0.04476    0.03648 =
         0.04001    0.00159    0.00403    0.01505
C5    1    0.360943    0.687792    0.279102    11.00000    0.04511    0.04316 =
         0.04142    0.00027    0.00578    0.01739
C6    1    0.318979    0.540432    0.304003    11.00000    0.04242    0.04475 =
         0.03739    0.00379    0.00617    0.01029
C7    1    0.221357    0.460994    0.499141    11.00000    0.06893    0.09821 =
         0.05240    0.02255    0.02100    0.02247
AFIX 137
H7A   2    0.286999    0.395408    0.503866    11.00000   -1.50000
H7B   2    0.112044    0.422254    0.540739    11.00000   -1.50000
H7C   2    0.298135    0.558116    0.540280    11.00000   -1.50000
AFIX   0
C8    1    0.286563    0.205802    0.194373    11.00000    0.06927    0.04081 =
         0.09029   -0.00135    0.00481    0.01452
AFIX 137
H8A   2    0.358421    0.208652    0.124918    11.00000   -1.50000
H8B   2    0.175676    0.218702    0.164992    11.00000   -1.50000
H8C   2    0.255938    0.111359    0.227624    11.00000   -1.50000
AFIX   0
C9    1    0.813776    0.514188    0.079735    11.00000    0.06029    0.05328 =
         0.07517    0.01440    0.02729    0.02848
AFIX 137
H9A   2    0.770873    0.542913    0.002764    11.00000   -1.50000
H9B   2    0.867589    0.442615    0.059247    11.00000   -1.50000
H9C   2    0.904375    0.600501    0.129241    11.00000   -1.50000
AFIX   0
C10   1    0.553158    0.920012    0.188753    11.00000    0.04804    0.03794 =
         0.04489    0.00363    0.00487    0.01826
AFIX  13
H10   2    0.439527    0.938330    0.173281    11.00000   -1.20000
AFIX   0
C11   1    0.680644    1.035676    0.297046    11.00000    0.05823    0.04185 =
         0.04748   -0.00372    0.00073    0.02125
AFIX  13
H11   2    0.607482    1.060157    0.359075    11.00000   -1.20000
AFIX   0
C12   1    0.767374    1.167422    0.222718    11.00000    0.06011    0.03629 =
         0.07292    0.00093   -0.00076    0.01660
AFIX  23
H12A  2    0.693713    1.228119    0.218374    11.00000   -1.20000
H12B  2    0.890529    1.229211    0.261495    11.00000   -1.20000
AFIX   0
C13   1    0.772009    1.097287    0.093359    11.00000    0.05460    0.04207 =
         0.06332    0.01495    0.00055    0.01697
C14   1    0.823347    0.987495    0.363107    11.00000    0.07404    0.05961 =
         0.06242   -0.00170   -0.01757    0.02598
AFIX 137
H14A  2    0.763978    0.907539    0.412170    11.00000   -1.50000
H14B  2    0.910855    1.070254    0.418284    11.00000   -1.50000
H14C  2    0.885668    0.954148    0.300743    11.00000   -1.50000
AFIX   0
HKLF 4




REM  zhangchangsheng_0918-1_auto_a.res in P-1
REM R1 =  0.0306 for    2761 Fo > 4sig(Fo)  and  0.0327 for all    2995 data
REM    185 parameters refined using      0 restraints

END

WGHT      0.0440      0.1921

REM Highest difference peak  0.461,  deepest hole -0.495,  1-sigma level  0.050
Q1    1   0.2202  0.7240  0.3917  11.00000  0.05    0.46
Q2    1   0.3443  0.6164  0.3003  11.00000  0.05    0.25
;
_shelx_res_checksum              28056
_shelx_hkl_file
;
   0   0  -1    4.78    0.26
   0   0  -3 2637.00   48.61
   0   0   4 1001.87   20.92
   0   0  -4  959.79   18.84
   0   0   5  108.24    4.70
   0   0   6 1763.99   36.97
   0   0   7  923.10   22.29
   0   0   7  921.25   24.93
   0   0   7  905.76   26.59
   0   0   7  943.26   23.26
   0   0   8    4.16    1.81
   0   0   8    0.86    0.63
   0   0   9    0.40    1.19
   0   0   9    1.15    1.41
   0   0   9    2.62    1.54
   0   0  10    1.92    1.70
   0   0  10    1.47    1.28
   0   0  10    3.46    1.57
   0   0  11  156.58    9.53
   0   0  11  157.60    8.15
   0   0  11  145.56   13.75
   0   0  12    7.02    2.70
   0   0  12    4.39    2.70
   0   0  12    4.83    1.46
   0   0  13    4.65    1.83
   0   0  13    5.22    1.56
   0  -1  13    0.39    1.44
   0  -1  13    0.48    1.03
   0  -1  12   18.36    4.52
   0  -1  12   21.38    2.67
   0  -1  11  136.86    8.46
   0  -1  10    5.83    2.18
   0  -1  10    2.49    1.69
   0  -1   9   35.96    4.45
   0  -1   9   36.88    4.79
   0  -1   8  221.11    9.19
   0  -1   8  251.50   11.44
   0  -1   8  240.50   10.93
   0  -1   8  211.63   11.35
   0  -1   7  845.79   23.30
   0  -1   7  854.55   24.85
   0  -1   7  870.02   23.60
   0  -1   7  904.18   24.18
   0  -1   7  895.67   22.18
   0   1  -6  591.86   13.27
   0   1  -5 3359.44   63.13
   0   1  -4 1123.25   22.35
   0  -1   3  236.41    5.02
   0   1  -3  226.52    5.66
   0  -1   2 3897.79   71.63
   0   1  -2 3938.60   71.59
   0   1  -1  880.85   16.79
   0   1   0  103.56    2.67
   0   1   0  109.28    3.81
   0   1   0  107.57    2.92
   0   1   1 4040.30   75.27
   0   1   1 4105.49   74.56
   0   1   2 1932.14   36.99
   0   1   2 1995.40   37.54
   0  -1  -2 1949.81   36.21
   0   1   2 1957.09   36.19
   0   1   3 2626.15   49.81
   0   1   4   91.89    3.73
   0   1   5 1316.93   28.09
   0   1   5 1304.47   27.63
   0   1   6  218.83    7.53
   0   1   6  212.83    7.55
   0   1   6  206.22    8.86
   0   1   7    0.25    1.11
   0   1   7    2.78    1.29
   0   1   7    0.83    0.81
   0   1   7    2.23    1.47
   0   1   7    4.59    1.68
   0   1   7    0.29    0.50
   0   1   8  643.88   19.21
   0   1   8  671.30   23.99
   0   1   8  635.32   20.41
   0   1   8  617.30   22.21
   0   1   8  611.81   18.67
   0   1   9  395.57   14.07
   0   1   9  397.48   18.09
   0   1   9  367.68   13.95
   0   1   9  369.76   16.94
   0   1   9  381.30   15.49
   0   1  10    0.31    1.25
   0   1  10    2.40    1.90
   0   1  10    0.98    1.05
   0   1  10    0.82    1.42
   0   1  11   24.29    5.21
   0   1  11   32.28    3.39
   0   1  11   30.67    3.85
   0   1  12   30.20    6.00
   0   1  12   37.27    5.05
   0  -2  13   24.17    3.24
   0  -2  12    7.91    3.16
   0  -2  12    5.56    1.53
   0  -2  11   37.65    4.11
   0  -2  10  143.15    8.82
   0  -2  10  152.70    8.58
   0   2 -10  125.97    6.35
   0  -2  10  149.56    9.13
   0  -2   9  597.43   19.27
   0  -2   9  612.59   20.24
   0  -2   9  562.25   19.95
   0  -2   9  553.83   17.60
   0  -2   8   61.20    5.02
   0  -2   8   65.27    5.61
   0   2  -8   70.06    4.49
   0  -2   8   74.11    5.24
   0  -2   8   65.65    5.51
   0  -2   8   61.36    5.67
   0   2  -7   17.67    2.17
   0  -2   7   21.84    2.85
   0  -2   7   26.21    3.24
   0  -2   7   16.74    2.63
   0   2  -6  980.35   21.51
   0  -2   6 1005.71   24.90
   0   2  -5   76.19    3.46
   0   2  -4  218.95    6.42
   0  -2   4  230.38    5.75
   0   2  -3 2392.14   45.25
   0  -2   3 2416.69   45.38
   0   2  -2 5745.17  106.76
   0  -2   2 5881.67  106.84
   0   2  -1   28.50    1.51
   0   2   0   89.70    4.58
   0   2   0   85.93    2.91
   0   2   1 1489.49   28.68
   0   2   1 1537.04   29.54
   0  -2  -1 1446.13   28.62
   0  -2  -2    6.76    0.77
   0   2   2    4.61    0.63
   0   2   2    7.70    1.03
   0  -2  -3  350.79    8.18
   0   2   3  372.24    9.74
   0   2   4  502.00   12.91
   0   2   5 1519.52   32.23
   0   2   6  215.03   10.67
   0   2   6  207.30    9.16
   0   2   6  204.25    9.25
   0   2   6  210.53    7.72
   0   2   7  166.65    7.98
   0   2   7  172.41   10.26
   0   2   7  166.63    8.63
   0   2   7  170.37   11.16
   0   2   7  163.95    8.63
   0   2   7  148.92    8.02
   0   2   7  167.44    8.99
   0   2   7  164.98    8.55
   0   2   8  139.28    8.41
   0   2   8  144.54   10.80
   0   2   8  151.17   10.20
   0   2   8  141.15    8.25
   0   2   8  134.86    7.29
   0   2   8  153.76    7.80
   0   2   9   62.75    6.78
   0   2   9   78.34    9.72
   0   2   9   78.86    7.95
   0   2   9   72.12   10.62
   0   2   9   66.07    5.16
   0   2   9   77.22    6.26
   0   2   9   77.73    6.01
   0   2  10   61.47    9.65
   0   2  10   59.29    4.62
   0   2  10   62.63    8.42
   0   2  10   68.83    7.21
   0   2  10   58.17    5.35
   0   2  10   61.11    6.50
   0   2  11   16.19    2.57
   0   2  11   18.12    4.23
   0   2  11   16.27    4.72
   0   2  11   15.50    5.41
   0   2  12    2.75    2.11
   0   2  12    3.57    1.65
   0   2  12    4.96    2.60
   0  -3  13    2.98    1.25
   0  -3  12    0.17    0.82
   0   3 -11   37.59    3.16
   0  -3  11   35.71    3.87
   0  -3  10   82.08    6.15
   0   3 -10   80.96    5.22
   0  -3   9    7.83    2.28
   0  -3   9    6.68    2.05
   0   3  -9    7.33    1.79
   0  -3   9    5.12    1.61
   0  -3   8  489.43   16.89
   0   3  -8  454.10   14.39
   0  -3   8  457.30   15.76
   0  -3   8  446.18   16.21
   0  -3   7  607.28   17.80
   0  -3   7  580.51   18.08
   0   3  -7  583.16   15.55
   0  -3   6  384.99   12.39
   0  -3   6  409.98   13.37
   0   3  -6  397.69   11.29
   0   3  -5 2695.89   53.14
   0   3  -4 1044.18   22.80
   0  -3   4 1069.92   22.17
   0   3  -3   51.05    2.61
   0  -3   3   55.76    2.73
   0   3  -2 1963.22   38.05
   0  -3   2 1924.44   38.06
   0   3  -1 1823.83   41.08
   0   3  -1 1868.83   36.47
   0   3   0 5108.65   98.68
   0  -3   0 4988.90   93.57
   0  -3  -1 1109.90   23.35
   0   3   1 1183.41   24.57
   0   3   1 1138.27   23.45
   0   3   2 1860.52   37.43
   0   3   2 1805.03   35.98
   0  -3  -2 1827.49   35.98
   0   3   3  586.52   14.64
   0  -3  -3  558.87   13.05
   0  -3  -4   35.39    2.13
   0   3   4   34.32    2.77
   0   3   5   40.56    3.15
   0   3   6  726.45   18.72
   0   3   6  716.32   30.67
   0   3   6  724.60   21.45
   0   3   6  753.77   20.51
   0   3   6  743.65   29.05
   0   3   6  748.42   25.91
   0   3   6  727.70   20.41
   0   3   6  732.31   21.56
   0   3   7  605.35   18.37
   0   3   7  620.84   19.91
   0   3   7  554.01   28.54
   0   3   7  563.53   26.30
   0   3   7  559.62   18.22
   0   3   7  588.89   19.40
   0   3   7  643.82   24.54
   0   3   7  554.20   16.33
   0   3   7  602.03   18.04
   0   3   8    8.89    2.42
   0   3   8    4.67    1.79
   0   3   8   10.29    3.29
   0   3   8    7.32    1.83
   0   3   8   13.55    3.34
   0   3   8    5.95    1.54
   0   3   8   11.22    4.05
   0   3   8    2.58    3.18
   0   3   9  706.02   26.50
   0   3   9  627.94   31.80
   0   3   9  636.15   20.52
   0   3   9  671.54   21.45
   0   3   9  657.46   29.50
   0   3   9  624.37   35.60
   0   3   9  701.16   25.08
   0   3  10   10.53    2.25
   0   3  10   14.24    3.44
   0   3  10    4.62    3.55
   0   3  10    9.70    2.09
   0   3  10    4.65    3.97
   0   3  10   10.09    3.65
   0   3  11   12.03    3.97
   0   3  11    9.49    3.05
   0   3  11    9.89    3.58
   0   3  12   21.61    2.99
   0   4 -12    2.12    0.72
   0   4 -11    7.66    1.61
   0  -4  11    6.38    1.74
   0   4 -10    4.86    1.48
   0  -4  10    5.63    1.88
   0   4 -10    6.55    1.78
   0  -4   9    4.94    1.83
   0  -4   9    6.88    1.93
   0   4  -9    4.40    1.58
   0  -4   9    4.37    1.70
   0   4  -8  248.88   10.43
   0  -4   8  263.70   11.66
   0  -4   8  284.37   11.44
   0  -4   7  125.33    7.17
   0   4  -7  119.76    6.04
   0   4  -7  113.62    5.73
   0  -4   7  120.91    6.74
   0   4  -6   55.83    3.84
   0  -4   6   51.22    3.95
   0   4  -6   62.93    3.93
   0  -4   6   51.22    4.15
   0   4  -5  754.36   18.94
   0  -4   5  789.51   18.11
   0  -4   4  264.08    8.17
   0   4  -4  252.00    8.40
   0   4  -3  390.87   10.62
   0  -4   3  377.68   10.53
   0   4  -2 8251.15  154.63
   0  -4   2 7836.30  147.27
   0   4  -2 7873.08  147.24
   0   4  -1  410.36   14.94
   0   4  -1  410.22   10.98
   0  -4   0 3444.42   66.42
   0   4   1  973.52   21.27
   0  -4  -1  934.66   21.15
   0  -4  -2 1172.20   25.56
   0   4   2 1174.52   25.63
   0   4   2 1234.80   27.26
   0  -4  -3  285.50    8.69
   0   4   3  288.10    6.93
   0   4   3  300.60   10.07
   0   4   4 3022.94   62.22
   0   4   4 3145.92   64.46
   0  -4  -4 3068.27   59.87
   0   4   5  292.89   18.33
   0   4   5  293.05   16.98
   0   4   5  338.74   13.05
   0   4   5  309.52   21.91
   0   4   5  330.72   13.00
   0   4   5  325.51   11.16
   0   4   5  325.53   12.01
   0   4   5  318.86   15.83
   0   4   5  319.65   11.65
   0   4   5  326.14   14.08
   0   4   6  128.98    7.26
   0   4   6   99.66   11.26
   0   4   6  135.39    9.26
   0   4   6  136.17    7.27
   0   4   6  114.56   14.25
   0   4   6  106.76    6.41
   0   4   6  106.71    5.91
   0   4   6  133.59   11.74
   0   4   7  697.89   20.42
   0   4   7  699.19   27.53
   0   4   7  711.64   22.73
   0   4   7  674.00   36.42
   0   4   7  725.98   30.65
   0   4   7  653.42   20.14
   0   4   7  719.54   20.75
   0   4   7  744.60   25.36
   0   4   7  613.46   31.22
   0   4   8  192.88   13.31
   0   4   8  184.82   10.30
   0   4   8  147.10   16.56
   0   4   8  177.61    8.93
   0   4   8  184.32   14.63
   0   4   8  187.57    8.85
   0   4   9    1.20    1.39
   0   4   9   -0.80    2.80
   0   4   9    1.26    1.90
   0   4   9    1.01    1.75
   0   4   9    0.97    3.16
   0   4  10   80.01    5.66
   0   4  10   70.15    9.52
   0   4  10   64.64    7.49
   0   4  10   82.46    7.44
   0   4  10   69.90    8.98
   0   4  11    4.65    2.19
   0   4  11    4.90    1.97
   0   5 -12   -0.16    0.54
   0   5 -11   34.54    3.06
   0  -5  10  176.85    8.23
   0   5 -10  171.49    8.01
   0   5 -10  184.40    8.40
   0  -5   9  653.41   19.23
   0   5  -9  635.86   19.31
   0   5  -9  666.24   19.48
   0  -5   8  268.92   11.55
   0  -5   8  278.21   11.07
   0   5  -8  287.39   11.58
   0   5  -8  264.42   10.33
   0   5  -8  286.91   10.34
   0   5  -7  784.50   20.73
   0  -5   7  777.92   21.90
   0   5  -7  773.18   21.06
   0  -5   7  806.16   21.27
   0   5  -6   78.77    5.10
   0   5  -6   79.94    4.93
   0   5  -5    6.98    1.55
   0   5  -5    5.34    1.32
   0  -5   5    8.74    1.50
   0   5  -4 1030.24   24.44
   0  -5   4 1050.98   24.13
   0   5  -4 1015.60   23.94
   0   5  -3  823.47   20.20
   0   5  -3  816.49   26.79
   0  -5   3  834.07   20.30
   0  -5   2   43.91    3.28
   0   5  -2   47.44    3.41
   0   5  -2   40.89    4.83
   0   5  -1 1747.58   37.22
   0  -5   0  158.08    6.51
   0  -5  -1   88.62    4.72
   0   5   1   88.30    5.42
   0   5   1   90.58    4.80
   0  -5  -2   39.60    3.07
   0   5   2   40.78    2.45
   0   5   3  794.67   26.74
   0   5   3  830.26   22.09
   0  -5  -3  823.53   20.00
   0   5   3  786.05   22.19
   0   5   3  786.48   34.70
   0   5   4  141.40    7.61
   0   5   4  142.62    8.11
   0   5   4  136.97   10.30
   0   5   4  117.88   13.50
   0   5   5   55.34    5.26
   0   5   5   69.42    7.68
   0   5   5   56.28    4.65
   0   5   5   62.95    5.13
   0   5   5   54.89    8.40
   0   5   5   58.07   10.04
   0   5   6  774.86   24.50
   0   5   6  773.52   21.76
   0   5   6  761.42   20.16
   0   5   6  845.02   39.81
   0   5   6  799.11   22.83
   0   5   6  808.49   30.17
   0   5   6  781.21   32.00
   0   5   7  142.73   15.98
   0   5   7  138.10   14.01
   0   5   7  163.05   13.68
   0   5   7  142.88    7.58
   0   5   7  149.45    8.10
   0   5   8   39.62    8.18
   0   5   8   34.00    6.35
   0   5   8   43.21    4.91
   0   5   9   28.33    5.19
   0   5   9   24.25    4.55
   0   5   9   13.76    4.81
   0   5   9   22.40    3.29
   0   5  10   36.35    3.52
   0   5  10   38.59    5.04
   0   5  10   37.85    4.61
   0   6 -11   96.41    4.83
   0   6 -10    1.12    1.13
   0   6 -10   -0.19    0.85
   0   6  -9  290.17   10.08
   0   6  -9  307.99   11.87
   0   6  -9  296.24   11.53
   0   6  -8  333.06   11.80
   0   6  -8  338.91   13.05
   0   6  -7   78.90    5.63
   0   6  -7   75.07    5.23
   0   6  -7   79.18    5.85
   0   6  -7   71.83    5.33
   0   6  -6   73.05    5.33
   0   6  -6   74.46    5.33
   0   6  -6   75.83    5.18
   0   6  -5  352.32   11.42
   0   6  -5  348.94   12.23
   0   6  -5  361.36   12.76
   0   6  -4  172.63    7.60
   0   6  -4  176.85    8.06
   0   6  -4  166.75    7.58
   0  -6   4  178.82    8.00
   0   6  -4  170.72    7.45
   0   6  -3   19.36    2.28
   0   6  -3   22.11    2.56
   0   6  -3   20.10    2.66
   0  -6   3   18.16    2.44
   0   6  -3   18.28    2.34
   0   6  -3   19.19    2.38
   0   6  -2  315.62   11.74
   0   6  -2  319.19   10.81
   0   6  -2  310.11   10.77
   0  -6   2  333.26   11.43
   0   6  -2  306.26   10.38
   0  -6   1  884.61   22.71
   0   6  -1  888.44   23.85
   0   6  -1  913.47   21.90
   0   6  -1  866.38   21.30
   0   6  -1  912.20   22.47
   0  -6   0  197.32    8.21
   0   6   0  177.50    8.79
   0   6   0  186.75    7.26
   0   6   1  485.40   19.26
   0  -6  -1  472.95   14.39
   0   6   1  463.54   14.00
   0   6   1  450.74   15.78
   0   6   1  462.16   12.77
   0   6   2  759.35   18.02
   0   6   2  809.52   27.54
   0   6   2  773.72   22.21
   0  -6  -2  816.12   20.77
   0   6   2  771.76   20.10
   0   6   2  766.97   21.88
   0   6   3  877.25   25.10
   0   6   3  898.01   25.54
   0   6   3  937.97   31.41
   0   6   3  911.11   22.57
   0  -6  -3  938.90   23.25
   0   6   4  457.56   21.66
   0   6   4  479.73   17.44
   0   6   4  460.66   16.55
   0   6   4  483.33   15.74
   0   6   4  495.38   14.04
   0   6   5  385.56   15.74
   0   6   5  374.36   13.29
   0   6   5  398.82   13.74
   0   6   5  378.36   19.80
   0   6   5  379.76   14.59
   0   6   6  153.79   12.50
   0   6   6  160.81    7.68
   0   6   6  166.49    8.85
   0   6   6  148.05   16.00
   0   6   6  168.10   13.68
   0   6   6  168.23    8.08
   0   6   6  160.88    9.84
   0   6   7    3.81    2.92
   0   6   7    5.06    1.63
   0   6   7    6.10    3.13
   0   6   7    3.95    1.94
   0   6   8   88.21    8.60
   0   6   8   94.19    9.23
   0   6   9   56.08    4.59
   0   6  10    4.51    1.55
   0   7 -11    0.75    0.63
   0   7 -10   35.69    3.13
   0   7 -10   39.04    3.21
   0   7  -9    0.29    0.77
   0   7  -9   -0.21    1.02
   0   7  -8  129.34    7.42
   0   7  -8  120.50    6.96
   0   7  -8  120.93    6.49
   0   7  -7  277.10   11.25
   0   7  -7  265.28   10.76
   0   7  -6   39.17    4.14
   0   7  -6   49.30    4.54
   0   7  -6   48.21    4.32
   0   7  -6   44.44    4.20
   0   7  -5   39.87    4.10
   0   7  -5   47.48    4.21
   0   7  -5   45.84    4.18
   0   7  -5   44.27    3.83
   0   7  -4  103.90    5.97
   0   7  -4  105.75    6.16
   0   7  -3  664.00   19.99
   0   7  -3  656.52   19.06
   0   7  -3  662.13   19.19
   0   7  -3  665.04   17.99
   0  -7   3  684.15   20.06
   0   7  -3  691.92   19.71
   0   7  -3  681.45   19.05
   0   7  -2   42.09    3.91
   0   7  -2   32.50    3.57
   0   7  -2   39.88    3.54
   0  -7   2   35.92    3.81
   0   7  -2   40.13    4.20
   0   7  -2   42.40    3.83
   0   7  -1  182.15    9.50
   0   7  -1  192.36    8.24
   0   7  -1  183.52    8.89
   0   7  -1  187.58    8.62
   0   7  -1  172.51    7.61
   0  -7   1  179.76    8.79
   0  -7   0  676.41   19.63
   0   7   0  631.23   17.05
   0   7   0  640.63   17.57
   0   7   1   36.57    3.63
   0   7   1   40.47    3.26
   0   7   1   31.23    5.08
   0  -7  -1   42.03    4.07
   0   7   2  136.02    8.29
   0   7   2  150.70    7.43
   0   7   2  133.54    7.82
   0  -7  -2  141.65    7.55
   0   7   2  125.74   10.51
   0   7   3    1.74    1.06
   0   7   3    2.32    1.38
   0   7   3    2.03    1.19
   0   7   3    0.87    0.94
   0   7   3    0.54    1.64
   0   7   4  482.40   17.03
   0   7   4  466.55   16.05
   0   7   4  482.02   15.45
   0   7   4  431.62   21.46
   0   7   4  455.64   17.31
   0   7   5   17.20    2.63
   0   7   5   15.43    4.56
   0   7   5   15.78    2.81
   0   7   5   17.16    3.17
   0   7   6   67.31    6.04
   0   7   6   63.30    7.74
   0   7   6   70.28    5.33
   0   7   7  228.18   10.83
   0   7   7  242.16   14.06
   0   7   8    1.85    1.87
   0   7   8    1.33    1.09
   0   7   9   23.12    3.16
   0   8 -10   30.68    2.28
   0   8  -9    7.75    1.32
   0   8  -9    6.07    1.39
   0   8  -9    9.52    1.78
   0   8  -8    2.86    1.26
   0   8  -8    4.66    1.37
   0   8  -7   88.54    5.96
   0   8  -7   82.43    5.45
   0   8  -7   88.80    5.53
   0   8  -6    0.72    1.06
   0   8  -6    0.62    1.16
   0   8  -6    0.67    1.14
   0   8  -5   27.04    3.03
   0   8  -5   20.53    2.89
   0   8  -4   49.44    4.60
   0   8  -4   53.86    4.50
   0   8  -4   49.92    3.97
   0   8  -4   47.44    4.33
   0   8  -4   51.78    4.39
   0   8  -3   43.77    4.27
   0   8  -3   43.66    4.19
   0   8  -3   38.53    3.90
   0   8  -3   44.36    4.09
   0   8  -2    4.30    1.50
   0   8  -2    2.53    1.13
   0   8  -2    0.62    0.85
   0   8  -2    1.96    1.08
   0   8  -2    0.26    0.89
   0   8  -1  178.60    8.82
   0   8  -1  176.98    8.30
   0   8  -1  174.23    7.92
   0   8  -1  189.05    9.54
   0   8   0  435.65   13.95
   0   8   0  438.83   15.23
   0   8   0  461.47   16.33
   0   8   0  471.75   13.72
   0   8   1   87.73    5.95
   0   8   1   89.21    6.51
   0   8   2  453.71   21.12
   0   8   2  487.47   17.68
   0   8   3    0.81    1.10
   0   8   3    0.27    1.14
   0   8   3    1.06    1.72
   0   8   3    1.45    1.13
   0   8   4    0.49    1.19
   0   8   4    0.54    1.14
   0   8   4    0.28    0.97
   0   8   4   -0.52    1.92
   0   8   5  185.94    8.29
   0   8   5  167.30    8.40
   0   8   5  173.41    9.16
   0   8   6   80.18    5.75
   0   8   6   97.35    8.29
   0   8   7   84.92    6.85
   0   8   7   84.68    5.30
   0   9  -8    5.20    1.15
   0   9  -8    4.86    1.26
   0   9  -7    4.41    1.40
   0   9  -7    2.85    1.12
   0   9  -6  109.81    6.12
   0   9  -6  115.88    6.24
   0   9  -5  119.24    6.37
   0   9  -5  111.68    5.95
   0   9  -4   17.52    2.43
   0   9  -4   14.76    2.44
   0   9  -3   16.75    2.47
   0   9  -3   17.14    2.66
   0   9  -2  465.54   14.46
   0   9  -2  459.42   15.77
   0   9  -1    0.51    0.83
   0   9  -1    2.89    1.45
   0   9   0  212.02   10.26
   0   9   1  203.39    9.99
   0   9   2    2.67    1.39
   0   9   3   28.81    3.33
   0   9   3   27.11    3.35
   0   9   4   98.48    5.73
   0   9   4   89.89    5.34
   0   9   4   95.13    5.74
   0   9   5   21.89    2.49
   0  10  -7    1.84    0.72
   0  10  -6    3.25    0.96
   0  10  -5    0.81    0.55
   0  10  -5    1.68    0.91
   0  10  -4   55.90    4.42
   0  10  -4   60.91    4.03
   0  10  -4   64.42    4.05
   0  10  -3   16.66    2.23
   0  10  -3   19.03    2.21
   0  10  -3   14.95    2.45
   0  10  -3   18.86    2.24
   0  10  -2    8.77    2.01
   0  10  -2   10.28    1.92
   0  10  -1   79.87    5.28
   0  10  -1   70.39    5.33
   0  10   0    6.47    1.69
   0  10   0    7.13    1.61
   0  10   1    3.03    1.16
   0  10   1    3.21    1.29
   0  10   2   25.19    2.85
   0  10   3   51.05    3.63
   0  10   3   51.77    3.70
   0  10   4   22.84    2.05
   0  11  -4   18.83    1.77
   0  11  -3   36.54    2.47
   0  11  -3   32.71    2.60
   0  11  -2   25.50    2.16
   0  11  -2   22.20    2.27
   0  11  -1    8.74    1.33
   0  11  -1   11.79    1.68
   0  11   0    3.01    0.89
   0  11   0    2.02    0.73
   0  11   1    7.42    1.22
   0  11   1    6.48    1.15
  -1  11   3   34.14    2.41
  -1  11   1   20.33    2.37
  -1  11   1   24.88    2.21
  -1  11   1   25.54    2.56
  -1  11   0    5.88    1.28
  -1  11   0    4.81    1.31
  -1  11   0    6.12    1.38
  -1  11  -1   18.20    2.33
  -1  11  -1   19.20    2.18
  -1  11  -1   15.30    2.08
  -1  11  -2    0.16    0.75
  -1  11  -2    1.12    0.86
  -1  11  -3   37.48    2.87
  -1  11  -3   33.25    2.90
  -1  11  -4    5.40    1.11
  -1  11  -4    6.63    1.17
  -1  11  -5    0.52    0.56
  -1  10   5   39.58    2.82
  -1  10   4   18.94    2.35
  -1  10   4   21.10    2.29
  -1  10   3   23.48    2.95
  -1  10   3   29.03    3.07
  -1  10   2   78.84    4.72
  -1  10   1  298.52   10.80
  -1  10   1  287.25   11.80
  -1  10   1  302.23   11.80
  -1  10   0    2.86    1.40
  -1  10   0    1.42    1.09
  -1  10   0    0.51    1.09
  -1  10  -1   84.71    5.85
  -1  10  -1   91.85    6.34
  -1  10  -1   85.69    5.61
  -1  10  -2   27.64    3.14
  -1  10  -2   22.14    3.18
  -1  10  -2   26.02    3.13
  -1  10  -3   27.26    3.33
  -1  10  -3   25.69    2.94
  -1  10  -3   26.26    2.96
  -1  10  -3   29.34    2.98
  -1  10  -4    4.12    1.35
  -1  10  -4    3.65    1.25
  -1  10  -4    3.54    1.31
  -1  10  -5   51.10    3.96
  -1  10  -5   58.09    3.73
  -1  10  -5   64.52    4.28
  -1  10  -6   37.60    2.83
  -1  10  -7   46.63    3.09
  -1   9   6   -0.16    0.71
  -1   9   5    6.67    1.65
  -1   9   4    5.39    1.54
  -1   9   4    6.43    1.71
  -1   9   4    4.24    1.54
  -1   9   3   96.80    6.19
  -1   9   3  102.47    5.69
  -1   9   3   91.83    6.31
  -1   9   2   12.32    2.21
  -1   9   1   18.74    3.05
  -1   9   1   15.27    2.96
  -1   9   0   47.35    4.70
  -1   9   0   47.02    4.84
  -1   9  -1  435.44   15.58
  -1   9  -1  410.03   13.14
  -1   9  -1  396.72   15.49
  -1   9  -2  159.35    7.68
  -1   9  -2  158.06    8.56
  -1   9  -3  212.08    9.31
  -1   9  -3  222.57    9.92
  -1   9  -4  511.85   16.08
  -1   9  -4  514.84   15.51
  -1   9  -4  486.42   15.64
  -1   9  -4  481.30   15.21
  -1   9  -5   24.34    2.80
  -1   9  -5   24.97    3.07
  -1   9  -5   25.20    2.83
  -1   9  -6    3.79    1.43
  -1   9  -6    4.72    1.56
  -1   9  -6    3.74    1.30
  -1   9  -7  284.30   10.22
  -1   9  -7  291.19   10.61
  -1   9  -7  263.25    9.68
  -1   9  -8   29.18    2.66
  -1   9  -8   27.88    2.57
  -1   9  -9    7.01    1.19
  -1   8   7    0.41    1.66
  -1   8   7    1.40    0.91
  -1   8   7    3.04    1.44
  -1   8   6   54.94    4.63
  -1   8   6   52.36    6.62
  -1   8   6   59.40    5.28
  -1   8   5   53.38    5.20
  -1   8   5   48.03    4.72
  -1   8   5   47.37    4.18
  -1   8   5   50.67    6.97
  -1   8   5   54.93    4.59
  -1   8   4  986.99   26.51
  -1   8   4  970.06   27.82
  -1   8   4 1034.67   24.36
  -1   8   4  975.12   26.68
  -1   8   4  965.12   34.52
  -1   8   4  961.17   27.79
   1  -8  -3  170.63    8.38
  -1   8   3  163.68    7.81
  -1   8   3  171.60    9.08
  -1   8   3  174.26    9.30
  -1   8   3  176.25   13.06
   1  -8  -2  175.31    8.79
  -1   8   2  164.99   12.54
  -1   8   1  148.01    8.78
  -1   8   1  130.93    8.03
   1  -8  -1  162.42    8.46
  -1   8   0  368.46   11.99
  -1   8   0  403.86   15.98
  -1   8   0  403.69   14.68
  -1   8   0  375.58   12.32
   1  -8   0  389.87   14.37
  -1   8  -1   32.52    3.22
  -1   8  -1   33.25    4.25
  -1   8  -1   33.89    3.38
  -1   8  -1   33.18    3.65
   1  -8   1   33.33    3.86
  -1   8  -1   32.40    3.82
  -1   8  -2  458.95   13.81
  -1   8  -2  450.93   14.82
   1  -8   2  455.41   15.97
  -1   8  -2  460.08   15.79
  -1   8  -2  443.54   16.63
  -1   8  -2  429.34   14.25
  -1   8  -3  159.85    7.75
  -1   8  -3  177.01    8.63
  -1   8  -3  172.09    8.56
  -1   8  -3  166.57    9.13
  -1   8  -3  166.31    8.15
   1  -8   3  186.27    9.33
  -1   8  -3  164.38    7.63
  -1   8  -4    0.74    0.80
  -1   8  -4    0.63    0.90
  -1   8  -4    0.67    0.98
  -1   8  -4    1.02    1.04
  -1   8  -4    2.26    1.33
  -1   8  -4   -0.26    0.83
  -1   8  -5  155.51    8.16
  -1   8  -5  154.24    7.46
  -1   8  -5  171.06    8.41
  -1   8  -5  150.25    7.76
  -1   8  -5  160.35    8.48
  -1   8  -6    8.04    2.06
  -1   8  -6    8.31    1.98
  -1   8  -6    7.65    1.86
  -1   8  -7   20.32    2.81
  -1   8  -7   17.08    2.51
  -1   8  -7   18.70    2.87
  -1   8  -8   32.00    3.36
  -1   8  -8   33.18    3.13
  -1   8  -9   19.79    2.07
  -1   8 -10   14.58    1.76
  -1   7   9   93.36    6.91
  -1   7   8   38.72    4.21
  -1   7   7  161.35    9.34
  -1   7   7  136.87    7.71
  -1   7   7  153.04   11.60
  -1   7   6  284.55   13.25
  -1   7   6  305.25   17.44
  -1   7   6  275.75   12.18
  -1   7   6  288.37   11.78
  -1   7   5  804.36   23.55
  -1   7   5  811.45   22.31
  -1   7   5  814.79   25.19
  -1   7   5  825.22   31.43
  -1   7   5  791.56   24.14
  -1   7   4   10.99    2.58
  -1   7   4   13.02    2.73
  -1   7   4   11.69    2.26
  -1   7   4    9.13    1.78
  -1   7   4   18.87    4.45
  -1   7   3  425.37   14.76
  -1   7   3  422.88   20.63
  -1   7   3  410.80   15.44
   1  -7  -3  429.28   14.05
  -1   7   2  951.78   25.45
  -1   7   2  978.11   24.26
  -1   7   2  964.63   32.67
  -1   7   2  929.35   25.17
   1  -7  -2  977.05   24.76
  -1   7   1   56.50    3.65
   1  -7  -1   49.62    4.28
  -1   7   1   63.14    4.92
  -1   7   1   48.94    4.03
  -1   7   1   51.35    4.97
  -1   7   1   62.79    7.04
   1  -7   0    8.66    1.95
  -1   7   0    8.05    1.53
  -1   7   0   13.42    2.32
  -1   7   0   12.06    2.57
  -1   7   0    9.29    1.63
  -1   7  -1  905.00   25.26
  -1   7  -1  889.46   23.10
  -1   7  -1  863.69   21.98
  -1   7  -1  903.09   22.44
  -1   7  -1  924.82   23.95
  -1   7  -2  110.11    6.11
  -1   7  -2   99.23    5.34
  -1   7  -2   99.35    6.64
  -1   7  -2   98.95    6.09
  -1   7  -2  109.84    5.62
   1  -7   2  111.70    6.50
  -1   7  -2  103.66    5.70
  -1   7  -2  110.15    6.05
  -1   7  -3    0.53    0.73
  -1   7  -3    3.64    1.25
  -1   7  -3    0.20    0.80
  -1   7  -3    0.19    0.79
  -1   7  -3    0.25    0.80
  -1   7  -3   -0.61    1.29
  -1   7  -3    0.76    0.91
  -1   7  -3    2.64    1.09
   1  -7   3    0.22    0.77
  -1   7  -4   42.28    6.89
  -1   7  -4   48.99    4.15
  -1   7  -4   51.19    4.20
  -1   7  -4   40.50    4.03
   1  -7   4   50.45    4.32
   1  -7   5  459.07   14.75
  -1   7  -5  436.56   15.09
  -1   7  -5  437.61   15.05
  -1   7  -5  458.89   14.95
  -1   7  -5  463.99   14.99
  -1   7  -6   36.08    3.99
  -1   7  -6   38.37    3.79
  -1   7  -6   37.98    3.90
  -1   7  -6   32.92    3.75
  -1   7  -7    4.77    1.66
  -1   7  -7    6.62    1.76
  -1   7  -7    7.41    2.00
   1  -7   8   57.83    4.93
  -1   7  -8   59.22    4.38
  -1   7  -8   60.39    5.05
  -1   7  -9   20.50    2.30
  -1   7  -9   17.97    2.67
  -1   7  -9   18.59    2.62
  -1   7 -10   37.68    3.17
  -1   7 -11    1.65    0.71
  -1   7 -11    0.51    0.47
  -1   6  10   45.18    4.49
  -1   6   9   10.85    3.05
  -1   6   9   14.68    5.12
  -1   6   9   13.79    2.62
  -1   6   8   20.51    2.94
  -1   6   8   12.31    2.24
  -1   6   8   18.15    6.33
  -1   6   8   16.14    4.17
  -1   6   8   20.49    4.63
  -1   6   7  128.40   15.67
  -1   6   7  129.81   11.58
  -1   6   7  121.14    7.40
  -1   6   7  130.91    7.95
  -1   6   7  125.11    8.47
  -1   6   6  315.63   18.99
  -1   6   6  297.51   24.58
  -1   6   6  322.35   11.35
  -1   6   6  321.35   14.40
  -1   6   6  336.07   13.39
  -1   6   6  340.48   13.73
  -1   6   5    1.42    1.00
  -1   6   5    0.54    1.64
  -1   6   5    2.30    4.00
  -1   6   5    1.23    1.70
  -1   6   5    2.54    1.51
  -1   6   5    3.10    1.66
  -1   6   5    4.64    1.68
  -1   6   5    3.23    1.69
  -1   6   4  403.22   19.37
  -1   6   4  394.62   20.16
  -1   6   4  395.63   13.34
  -1   6   4  392.92   14.95
  -1   6   4  400.04   15.30
  -1   6   4  397.27   14.73
   1  -6  -4  390.10   12.28
  -1   6   4  414.56   27.59
  -1   6   3 1146.96   29.96
  -1   6   3 1133.64   28.18
   1  -6  -3 1160.08   27.34
  -1   6   3 1137.34   47.13
  -1   6   3 1197.84   36.21
  -1   6   3 1183.07   30.44
  -1   6   3 1183.56   29.82
  -1   6   2   18.19    2.24
  -1   6   2   23.12    2.93
  -1   6   2   17.70    2.85
  -1   6   2   21.39    4.08
  -1   6   2   20.30    2.55
  -1   6   2   15.72    2.50
  -1   6   2   17.95    1.70
   1  -6  -2   18.58    2.35
   1  -6  -1 2288.93   47.44
  -1   6   1 2255.38   49.51
  -1   6   1 2216.78   45.06
  -1   6   1 2223.25   46.71
  -1   6   1 2304.71   55.11
  -1   6   0  465.47   15.18
  -1   6   0  459.22   12.70
  -1   6   0  469.92   14.14
   1  -6   0  482.94   14.19
  -1   6  -1  903.74   31.71
  -1   6  -1  981.20   22.69
  -1   6  -1  976.02   24.98
  -1   6  -1  966.24   23.13
   1  -6   2 1108.19   25.39
  -1   6  -2 1055.28   24.57
  -1   6  -2 1042.63   24.66
  -1   6  -2 1043.57   26.29
  -1   6  -2 1025.94   24.19
  -1   6  -3 1055.07   36.75
  -1   6  -3 1146.10   26.60
   1  -6   3 1192.15   27.57
  -1   6  -3 1183.41   26.78
  -1   6  -3 1105.43   27.86
  -1   6  -4   55.28    4.16
  -1   6  -4   50.91    3.88
  -1   6  -4   51.31    3.69
   1  -6   4   50.66    3.92
  -1   6  -4   49.81    3.87
   1  -6   5  496.00   14.40
  -1   6  -5  469.01   14.73
  -1   6  -5  469.03   14.93
  -1   6  -5  497.01   15.32
  -1   6  -5  467.76   14.49
  -1   6  -6  113.69   12.14
  -1   6  -6  143.62    7.40
  -1   6  -6  124.55    6.67
  -1   6  -7   17.26    5.16
  -1   6  -7   14.36    2.34
  -1   6  -7   21.50    2.88
  -1   6  -7   20.74    2.93
  -1   6  -7   17.39    2.81
  -1   6  -8   25.28    3.34
  -1   6  -8   27.60    2.99
  -1   6  -8   27.85    3.51
  -1   6  -8   24.95    3.08
   1  -6   8   29.37    3.66
  -1   6  -9    7.30    1.55
  -1   6  -9    8.62    2.07
  -1   6  -9    6.49    1.92
   1  -6   9    5.67    1.51
  -1   6 -10  108.98    5.99
   1  -6  10  108.93    5.52
  -1   6 -11   14.39    1.83
  -1   6 -11   14.48    1.76
  -1   5  10    5.19    3.53
  -1   5  10    4.45    1.98
  -1   5  10    4.01    2.15
  -1   5   9   67.85    7.28
  -1   5   9   64.02    7.69
  -1   5   9   74.43   11.74
  -1   5   9   80.39    6.35
  -1   5   8   83.15    6.13
  -1   5   8   87.93    9.58
  -1   5   8  103.66    9.50
  -1   5   8   82.69   13.06
  -1   5   8   69.49    5.67
  -1   5   8   88.84    7.10
  -1   5   7    1.75    2.64
  -1   5   7    1.20    4.68
  -1   5   7    0.42    1.63
  -1   5   7    1.38    1.69
  -1   5   7   -1.08    1.88
  -1   5   7    1.29    2.25
  -1   5   7   -0.84    1.08
  -1   5   7    0.84    1.24
  -1   5   6   11.50    4.63
  -1   5   6    8.97    2.27
  -1   5   6   10.31    2.34
  -1   5   6    6.70    2.23
  -1   5   6   13.80    6.63
  -1   5   6   11.70    2.66
  -1   5   6    9.25    3.23
  -1   5   6   11.53    2.88
  -1   5   6    5.54    2.94
  -1   5   5  437.45   21.08
  -1   5   5  413.95   23.34
  -1   5   5  417.48   13.04
  -1   5   5  453.79   15.54
  -1   5   5  450.95   28.43
  -1   5   5  438.55   15.38
  -1   5   5  430.49   15.84
  -1   5   5  452.23   17.30
  -1   5   5  429.93   15.98
   1  -5  -4  586.04   15.16
  -1   5   4  593.61   18.01
  -1   5   4  607.99   24.08
  -1   5   4  570.68   16.10
  -1   5   4  581.14   18.14
  -1   5   4  596.09   18.59
  -1   5   4  617.56   22.79
  -1   5   4  589.86   31.49
  -1   5   3  280.87   10.88
   1  -5  -3  277.44    9.06
  -1   5   3  272.42   10.65
  -1   5   2  160.84    5.15
   1  -5  -2  166.08    6.52
  -1   5   1  802.70   17.79
  -1   5   0  745.97   17.10
  -1   5  -1   62.21    6.52
  -1   5  -1   55.86    3.23
  -1   5  -2  166.88   11.24
  -1   5  -2  169.43    6.36
   1  -5   3  625.37   15.94
  -1   5  -3  612.93   15.81
  -1   5  -3  592.30   23.93
  -1   5  -4    7.80    1.50
   1  -5   4    6.46    1.29
  -1   5  -5 1387.67   31.46
   1  -5   5 1444.20   30.97
  -1   5  -5 1430.17   31.98
  -1   5  -6   81.29    5.29
  -1   5  -6   87.40    5.19
  -1   5  -6   84.30    4.93
   1  -5   6   76.80    4.93
  -1   5  -6   72.95    4.93
  -1   5  -7  224.95    9.79
  -1   5  -7  226.92    9.24
  -1   5  -7  207.66    8.51
  -1   5  -7  222.90    9.56
   1  -5   7  209.59    9.26
  -1   5  -8  236.20    9.04
  -1   5  -8  243.30   10.48
  -1   5  -8  233.61    9.53
   1  -5   8  238.48   10.74
  -1   5  -8  233.45   10.11
   1  -5   8  249.32   10.60
  -1   5  -9  206.37    9.56
  -1   5  -9  214.68    9.51
   1  -5   9  224.55   10.05
   1  -5  10    0.44    1.14
  -1   5 -10    2.69    1.27
  -1   5 -11  258.05    8.62
  -1   5 -11  275.44    9.21
  -1   4  11   16.19    3.17
  -1   4  11   12.28    4.14
  -1   4  10   63.27    6.42
  -1   4  10   56.26    9.80
  -1   4  10   58.63    8.71
  -1   4  10   58.22    7.04
  -1   4   9  146.87    8.84
  -1   4   9  139.48   10.59
  -1   4   9  131.17   13.93
  -1   4   9  137.98   16.51
  -1   4   9  117.04   11.47
  -1   4   9  144.32   10.18
  -1   4   9  143.09    7.84
  -1   4   8   40.61    6.04
  -1   4   8   39.85    3.96
  -1   4   8   42.39    4.49
  -1   4   8   45.32    5.08
  -1   4   8   41.18    4.87
  -1   4   8   43.33    4.61
  -1   4   8   51.60    6.15
  -1   4   8   43.36    8.53
  -1   4   8   50.30   10.48
  -1   4   8   42.19    7.06
  -1   4   7  137.98    8.25
  -1   4   7  135.90    8.62
  -1   4   7  148.02   10.11
  -1   4   7  131.98   16.58
  -1   4   7  138.79    8.41
  -1   4   7  151.76   11.22
  -1   4   7  131.33    7.09
  -1   4   7  133.21   13.65
  -1   4   7  136.69    8.50
  -1   4   7  143.16    8.23
  -1   4   7  131.12   11.86
  -1   4   7  129.65    6.46
  -1   4   6 1199.92   43.23
  -1   4   6 1234.88   30.71
  -1   4   6 1150.44   27.45
  -1   4   6 1230.59   34.02
  -1   4   6 1185.27   30.68
  -1   4   6 1226.64   30.69
  -1   4   6 1219.38   36.18
  -1   4   6 1108.04   48.74
  -1   4   6 1195.85   39.42
  -1   4   5  291.89   11.64
  -1   4   5  294.73   17.99
  -1   4   5  321.87   14.98
  -1   4   5  292.09   15.96
  -1   4   5  265.84   20.59
  -1   4   5  299.69   11.46
  -1   4   5  281.15   11.69
  -1   4   5  289.07   11.45
  -1   4   5  314.32   13.27
   1  -4  -4  856.27   19.15
  -1   4   4  859.90   22.80
   1  -4  -3 1427.70   29.64
  -1   4   2 2960.00   55.55
  -1   4   1  160.31    4.88
  -1   4   0 1881.54   45.43
  -1   4   0 1861.06   36.59
  -1   4  -1  847.42   18.37
  -1   4  -1  830.63   25.80
  -1   4  -2 1035.81   30.31
  -1   4  -3 2392.78   47.48
  -1   4  -4 3128.44   61.09
   1  -4   4 3107.01   60.33
  -1   4  -5   26.93    2.49
   1  -4   5   28.63    2.16
  -1   4  -6  244.35    9.33
  -1   4  -6  245.89    8.59
  -1   4  -6  257.49    9.05
   1  -4   6  262.66   10.14
  -1   4  -7  266.30    9.63
   1  -4   7  262.47   10.91
   1  -4   7  277.06   11.38
  -1   4  -7  267.76    9.20
  -1   4  -7  262.99   10.33
   1  -4   7  267.87   11.06
   1  -4   8   26.50    3.40
   1  -4   8   29.04    3.74
  -1   4  -8   25.64    3.02
  -1   4  -8   30.13    3.35
   1  -4   8   25.13    3.51
   1  -4   8   26.34    3.46
   1  -4   9   22.56    3.30
  -1   4  -9   18.86    2.73
   1  -4   9   17.54    2.70
  -1   4  -9   16.59    2.57
   1  -4   9   16.36    2.84
   1  -4  10  380.97   14.04
  -1   4 -10  347.46   12.00
  -1   4 -11   13.18    1.84
   1  -4  11   17.14    2.56
   1  -4  12    2.87    1.10
  -1   3  12    2.42    2.06
  -1   3  11   71.14   10.23
  -1   3  11   82.59    7.79
  -1   3  11   73.93    9.08
  -1   3  10   37.41    5.06
  -1   3  10   24.19    6.45
  -1   3  10   21.01    7.22
  -1   3  10   25.67    5.25
  -1   3  10   31.49    3.62
  -1   3  10   35.35    5.17
  -1   3   9    1.32    1.87
  -1   3   9    2.65    2.70
  -1   3   9   -0.46    1.59
  -1   3   9    2.56    1.26
  -1   3   9    9.35    1.87
  -1   3   9    1.55    1.23
  -1   3   9    4.38    3.74
  -1   3   9    1.50    1.27
  -1   3   8  650.94   31.97
  -1   3   8  639.45   21.35
  -1   3   8  674.46   24.87
  -1   3   8  636.69   20.79
  -1   3   8  672.38   21.54
  -1   3   8  668.57   20.43
  -1   3   8  637.88   19.63
  -1   3   8  632.57   18.06
  -1   3   8  602.69   20.37
  -1   3   8  580.17   27.38
  -1   3   7 1745.14   38.99
  -1   3   7 1836.02   42.77
  -1   3   7 1884.52   47.89
  -1   3   7 1864.50   43.32
  -1   3   7 1779.35   42.45
  -1   3   7 1824.17   57.10
  -1   3   7 1703.25   51.81
  -1   3   7 1720.11   39.49
  -1   3   7 1883.23   42.28
  -1   3   7 1736.07   40.65
  -1   3   7 1840.64   43.02
  -1   3   6  178.03    9.98
  -1   3   6  179.67    8.94
  -1   3   6  179.15    8.50
  -1   3   6  196.85   11.17
  -1   3   6  189.28   14.40
  -1   3   6  166.71    7.64
  -1   3   6  174.12    8.61
  -1   3   6  168.92    8.49
  -1   3   6  169.19    6.94
  -1   3   6  171.16    8.56
  -1   3   6  162.44   12.04
  -1   3   5 3007.33   57.73
  -1   3   4 1998.70   38.84
   1  -3  -4 1938.31   38.15
  -1   3   3  225.29    6.58
  -1   3   2 2858.93   52.93
  -1   3   1 7108.52  131.01
  -1   3   1 7094.96  129.90
  -1   3   0   37.01    2.12
  -1   3   0   39.33    4.05
  -1   3   0   37.40    1.87
  -1   3  -1   44.63    4.24
  -1   3  -1    7.03    0.97
  -1   3  -2 4489.78   84.25
  -1   3  -2 4514.91   84.16
  -1   3  -3 1781.76   35.42
  -1   3  -4  142.28    5.22
  -1   3  -5 1288.56   27.52
   1  -3   5 1288.76   25.70
  -1   3  -6  955.71   22.04
   1  -3   6  966.66   24.64
   1  -3   7  297.24   11.78
   1  -3   7  320.52   12.40
  -1   3  -7  303.80    9.72
  -1   3  -7  294.15   10.51
   1  -3   7  296.01   11.72
   1  -3   7  286.57   11.32
   1  -3   8  207.62   10.36
   1  -3   8  188.50    9.08
  -1   3  -8  185.50    8.01
   1  -3   8  203.13    9.69
  -1   3  -8  173.45    8.11
   1  -3   9   79.12    6.51
   1  -3   9   66.25    5.50
   1  -3   9   81.02    6.20
  -1   3  -9   85.08    5.24
   1  -3  10  199.59   10.51
  -1   3 -10  175.06    7.63
   1  -3  10  191.10    9.74
   1  -3  11   23.57    3.16
   1  -3  12   41.43    3.51
  -1   2  12  118.05    9.93
  -1   2  12   99.23   10.70
  -1   2  11    4.56    2.50
  -1   2  11    8.10    2.53
  -1   2  10   90.94    8.11
  -1   2  10   98.49    6.12
  -1   2  10   84.51    9.99
  -1   2  10   86.63    6.44
  -1   2   9   93.67    6.77
  -1   2   9   90.88    6.78
  -1   2   9   87.57    5.96
  -1   2   9   90.76    8.00
  -1   2   9  106.69    8.84
  -1   2   9   87.83    6.46
  -1   2   8  160.27    7.92
  -1   2   8  159.19    8.68
  -1   2   8  154.48    8.76
  -1   2   8  156.72    8.64
  -1   2   8  167.26   10.78
  -1   2   8  170.25    8.87
  -1   2   8  167.86   10.75
  -1   2   7    4.94    1.67
  -1   2   7    3.87    1.73
  -1   2   7    4.90    1.38
  -1   2   7    3.21    1.25
  -1   2   7    7.20    1.77
  -1   2   7    4.84    1.77
  -1   2   7    3.56    1.34
  -1   2   7    4.85    1.61
  -1   2   7    0.72    1.08
  -1   2   6  821.64   21.85
  -1   2   6  779.09   20.69
  -1   2   5  595.10   12.98
  -1   2   4  853.43   17.43
  -1   2   3 4046.50   74.40
  -1   2   3 3988.98   74.40
  -1   2   2  154.49    4.34
  -1   2   1 5994.18  109.30
  -1   2   0 4693.21   92.11
  -1   2   0 4720.16   86.55
  -1   2  -2   56.68    2.17
  -1   2  -2    7.64    0.83
  -1   2  -3   68.47    2.53
  -1   2  -3   66.48    2.83
  -1   2  -4 1525.94   30.65
  -1   2  -5  245.05    7.34
   1  -2   6  291.96   10.33
   1  -2   6  262.75   10.43
  -1   2  -6  262.68    8.12
   1  -2   7  395.65   13.82
  -1   2  -7  433.52   12.85
   1  -2   7  448.79   15.46
   1  -2   7  425.35   14.69
   1  -2   7  446.42   14.33
   1  -2   8  376.19   13.62
   1  -2   8  394.65   13.92
  -1   2  -8  385.61   12.04
   1  -2   9   86.22    6.91
   1  -2   9   67.70    5.32
  -1   2  -9   79.79    4.75
   1  -2  10    1.95    1.70
   1  -2  10    0.56    1.25
   1  -2  11   76.88    6.11
   1  -2  11   77.54    5.73
   1  -2  12    0.52    1.81
   1  -2  12    0.71    1.03
   1  -2  13    0.76    1.04
  -1   1  13   10.27    2.82
  -1   1  12    3.38    1.96
  -1   1  12    1.03    2.01
  -1   1  11  134.43    7.12
  -1   1  11  122.77   12.30
  -1   1  11  145.82    9.49
  -1   1  11  113.31   10.34
  -1   1  10  227.51   10.32
  -1   1  10  226.08   13.02
  -1   1  10  234.42   18.07
  -1   1  10  242.29   11.57
  -1   1   9   43.72    4.33
  -1   1   9   34.20    4.66
  -1   1   9   38.37    4.50
  -1   1   9   35.33    4.49
  -1   1   9   42.97    5.65
  -1   1   9   47.75    4.57
  -1   1   8   97.31    7.63
  -1   1   8   83.71    6.23
  -1   1   8   92.83    6.52
  -1   1   8   88.90    5.87
  -1   1   8   93.63    6.10
  -1   1   8   98.51    6.48
  -1   1   8   98.34    7.03
  -1   1   8   94.44    7.84
  -1   1   7 1685.03   38.89
  -1   1   7 1657.20   42.16
  -1   1   7 1661.67   39.63
  -1   1   7 1708.58   38.92
  -1   1   7 1638.91   37.39
  -1   1   7 1693.32   37.93
  -1   1   7 1707.40   38.66
  -1   1   7 1695.46   38.97
  -1   1   6  587.68   13.89
  -1   1   5  434.51   10.53
  -1   1   5  437.15    9.57
  -1   1   4  900.02   16.83
  -1   1   4  869.99   17.52
  -1   1   3 3491.21   63.99
  -1   1   3 3441.60   63.78
  -1   1   3 3480.50   63.49
  -1   1   2   44.54    1.80
  -1   1   2   66.77    1.55
  -1   1   1  198.89    4.76
   1  -1   0 2274.88   42.52
  -1   1   0 2337.40   42.89
  -1   1  -1 4511.35   82.83
  -1   1  -2  116.65    3.51
  -1   1  -2  116.94    3.19
  -1   1  -3 5345.50   96.95
  -1   1  -3 5234.23   97.94
   1  -1   4 1979.54   38.04
  -1   1  -4 1944.39   36.01
  -1   1  -5  729.32   16.36
   1  -1   5  799.86   18.79
   1  -1   6   86.35    4.94
   1  -1   7  493.78   14.92
   1  -1   7  469.71   16.50
   1  -1   7  480.38   16.51
   1  -1   8    1.51    1.49
   1  -1   8    1.56    1.27
   1  -1   8    1.52    0.92
   1  -1   8    2.13    1.27
   1  -1   9  542.98   19.86
   1  -1   9  543.89   17.20
   1  -1  10    2.02    1.57
   1  -1  10    5.28    1.93
   1  -1  10    2.65    1.82
   1  -1  11   29.00    3.49
   1  -1  11   30.21    3.99
   1  -1  12    2.90    1.20
   1  -1  13   -0.27    1.05
  -1   0  13    2.24    1.91
  -1   0  12   73.40    8.13
  -1   0  12   76.70    7.41
  -1   0  12   78.74    4.89
  -1   0  11   40.16    4.04
  -1   0  11   43.99    5.22
  -1   0  10   11.85    2.91
  -1   0  10   19.48    3.78
  -1   0  10   19.87    3.13
  -1   0   9  673.10   24.39
  -1   0   9  720.54   21.37
  -1   0   9  693.56   22.37
  -1   0   9  726.32   22.78
  -1   0   9  704.83   22.89
  -1   0   8    1.58    1.15
  -1   0   8    3.19    1.60
  -1   0   8    2.95    1.55
  -1   0   8    1.84    1.81
  -1   0   7    0.63    1.28
  -1   0   7    2.22    1.25
  -1   0   7    0.99    0.88
  -1   0   7    1.04    0.62
  -1   0   7    1.66    1.16
  -1   0   7    0.22    0.89
  -1   0   7    1.29    0.91
  -1   0   7    1.89    1.04
  -1   0   6  276.02    8.61
   1   0  -5 1599.65   30.44
  -1   0   4  407.71    8.00
   1   0  -4  400.66    7.91
   1   0  -3  312.20    6.60
  -1   0   2 2852.96   52.70
   1   0  -2 2833.22   52.41
   1   0  -1  110.44    2.65
   1   0  -1   97.55    2.77
  -1   0   0 3018.87   55.91
  -1   0  -1 3265.14   62.05
   1   0   1 3500.46   62.69
   1   0   3 4875.65   93.50
   1   0   3 5023.14   91.03
  -1   0  -4 1865.28   34.78
   1   0   4 2558.74   39.99
   1   0   5 1930.00   40.05
   1   0   6   33.60    2.97
   1   0   7  358.27   11.91
   1   0   7  338.56   12.58
   1   0   7  319.49   13.74
   1   0   8  606.98   17.94
   1   0   8  614.15   21.34
   1   0   8  617.08   18.68
   1   0   9   14.50    3.18
   1   0  10   87.68    8.07
   1   0  10   65.42    5.46
   1   0  11    1.32    1.33
   1   0  11   -0.72    2.67
   1   0  12   14.72    3.96
   1   0  12   10.03    3.23
   1   0  12   17.08    2.12
  -1  -1  12   13.29    2.30
  -1  -1  11   -1.31    2.54
  -1  -1  11    0.65    1.19
  -1  -1  10  120.71    8.84
  -1  -1  10  115.12    8.11
  -1  -1   9  329.67   13.84
  -1  -1   9  297.14   14.61
  -1  -1   9  302.52   13.30
  -1  -1   9  296.22   13.41
  -1  -1   8  107.00    5.82
  -1  -1   8  116.82    7.39
  -1  -1   8  105.93    6.62
  -1  -1   8  107.65    7.12
  -1  -1   8  105.63    7.07
  -1  -1   8  116.12    8.40
  -1  -1   7   41.59    4.02
  -1  -1   7   38.06    4.49
  -1  -1   7   36.81    3.56
  -1  -1   7   37.56    3.78
  -1  -1   6 1952.88   41.55
  -1  -1   6 2033.84   42.78
   1   1  -6 1925.58   38.16
   1   1  -5  108.67    3.88
  -1  -1   4 3724.78   69.19
   1   1  -3 5818.84  106.71
   1   1  -2  499.91   10.68
   1   1  -1 2517.98   47.31
   1   1  -1 2537.63   47.66
   1   1   1   74.78    3.28
   1   1   1   66.53    2.41
   1   1   3 4456.90   81.08
   1   1   3 4460.28   83.43
  -1  -1  -3 4301.45   81.48
   1   1   4 1050.42   23.15
   1   1   4 1022.13   19.91
   1   1   5   45.17    3.26
   1   1   6  281.55   12.20
   1   1   6  278.51   10.51
   1   1   6  299.07   10.14
   1   1   7  236.77   11.97
   1   1   7  241.73   10.42
   1   1   7  244.91   10.00
   1   1   7  251.30   10.62
   1   1   8   91.73    7.01
   1   1   8   92.03    6.40
   1   1   8   93.10    6.26
   1   1   8   90.53    7.63
   1   1   9  127.12    7.48
   1   1   9  124.50   10.34
   1   1   9  121.21    8.34
   1   1  10  182.55   11.96
   1   1  10  174.29    8.76
   1   1  10  166.08    9.67
   1   1  10  171.78   14.25
   1   1  11   32.11    5.53
   1   1  11   27.60    3.00
   1   1  11   24.93    5.74
   1   1  11   30.24    6.15
   1   1  11   26.12    3.43
   1   1  12    0.89    1.98
  -1  -2  12   44.06    3.73
  -1  -2  11  106.44    6.69
  -1  -2  11   92.47    9.59
  -1  -2  11   93.19    6.67
   1   2 -11  101.62    5.31
  -1  -2  10    8.02    2.47
  -1  -2  10    2.72    1.62
  -1  -2  10    6.36    2.09
  -1  -2   9    5.94    2.11
  -1  -2   9    6.47    2.30
  -1  -2   9    5.54    1.87
   1   2  -8  877.03   22.57
  -1  -2   8  966.00   25.65
  -1  -2   8  960.59   25.08
  -1  -2   8  889.73   27.35
  -1  -2   8  905.95   25.81
  -1  -2   7  680.90   20.36
  -1  -2   7  715.52   20.23
  -1  -2   7  699.94   22.34
  -1  -2   7  733.42   20.09
  -1  -2   6   18.01    2.54
  -1  -2   6   16.99    2.27
   1   2  -6   17.28    1.73
  -1  -2   5 1856.96   36.48
   1   2  -5 1878.76   36.05
   1   2  -4 1477.50   29.35
   1   2  -3   59.28    2.65
  -1  -2   2 1610.08   31.73
   1   2  -2 1597.92   31.54
   1   2  -1 7201.49  131.39
   1   2  -1 7020.29  131.94
   1   2   0 1995.34   39.61
  -1  -2   0 1981.12   38.56
  -1  -2  -1 1538.02   30.59
   1   2   1 1551.87   30.48
   1   2   2 1078.65   23.58
   1   2   2 1011.29   21.12
   1   2   3 2415.63   46.14
   1   2   3 2385.94   49.20
   1   2   4  650.62   14.10
   1   2   4  655.35   17.56
  -1  -2  -4  649.86   14.52
   1   2   5 1059.74   26.12
   1   2   6  291.06   13.22
   1   2   6  279.77   11.42
   1   2   6  310.25   12.11
   1   2   6  303.54   11.26
   1   2   7    2.93    1.86
   1   2   7    0.82    1.17
   1   2   7    0.64    0.75
   1   2   7    2.47    1.25
   1   2   8   31.95    4.02
   1   2   8   36.96    4.53
   1   2   8   37.42    5.94
   1   2   8   45.16    7.69
   1   2   9   67.27    6.07
   1   2   9   71.19    5.28
   1   2   9   70.06   10.33
   1   2   9   71.72    7.99
   1   2   9   69.86    9.24
   1   2   9   85.62    6.35
   1   2  10   24.54    4.56
   1   2  10   21.09    5.08
   1   2  10   24.21    6.22
   1   2  10   26.75    6.18
   1   2  10   32.21    3.95
   1   2  11   23.57    4.42
   1   2  11   22.71    5.08
   1   2  11   24.70    3.86
   1   2  11   21.68    2.90
   1   2  12    8.51    2.45
   1   3 -12   21.41    1.99
   1   3 -11    0.50    0.88
  -1  -3  11    0.88    1.15
   1   3 -10   46.72    3.77
  -1  -3  10   50.42    5.20
  -1  -3  10   60.56    5.09
   1   3  -9  198.21    8.86
  -1  -3   9  225.36   10.16
  -1  -3   9  205.39   10.82
  -1  -3   9  229.23   10.37
  -1  -3   8   25.72    3.29
  -1  -3   8   24.13    3.51
  -1  -3   7  595.75   18.63
   1   3  -7  607.73   16.12
  -1  -3   7  636.04   18.20
   1   3  -6  576.35   15.26
  -1  -3   6  589.75   16.48
   1   3  -5 1511.72   30.84
   1   3  -4    9.75    1.29
   1   3  -3 3658.42   70.04
   1   3  -2 1881.92   37.31
   1   3  -2 1806.01   39.09
  -1  -3   2 1843.52   37.18
   1   3  -1    0.71    0.54
   1   3   0 3545.43   68.16
  -1  -3   0 3433.23   66.52
  -1  -3  -1 3293.03   63.62
   1   3   1 3330.57   63.71
   1   3   2 1919.33   39.02
   1   3   2 1998.11   41.44
   1   3   3 1745.67   38.61
   1   3   3 1773.50   35.75
   1   3   4  900.57   19.87
   1   3   4  921.61   23.13
   1   3   5  306.87   18.09
   1   3   5  337.79   18.05
   1   3   5  347.60   12.32
   1   3   6   21.57    4.99
   1   3   6   22.07    3.32
   1   3   6   18.75    5.07
   1   3   6   22.02    2.95
   1   3   6   22.06    4.47
   1   3   6   23.77    6.28
   1   3   7  378.24   23.21
   1   3   7  439.33   16.42
   1   3   7  433.94   23.02
   1   3   7  389.24   13.78
   1   3   7  417.36   25.83
   1   3   8  163.53   15.23
   1   3   8  168.10    9.63
   1   3   8  179.79   14.68
   1   3   8  148.79    7.28
   1   3   8  152.06   12.21
   1   3   8  147.50   15.59
   1   3   8  151.81    8.97
   1   3   9   42.65    4.55
   1   3   9   39.55    8.06
   1   3   9   46.61    8.28
   1   3   9   53.09    6.85
   1   3   9   49.35    7.46
   1   3   9   45.99    4.75
   1   3  10   49.15    4.32
   1   3  10   49.42    6.73
   1   3  10   49.74    5.98
   1   3  10   44.53    7.30
   1   3  11   59.20    5.38
   1   4 -12    1.89    0.80
   1   4 -11   66.89    4.38
  -1  -4  10   29.17    3.80
   1   4 -10   31.36    3.23
  -1  -4  10   29.32    3.45
  -1  -4   9    1.69    1.23
   1   4  -9    3.99    1.47
  -1  -4   9    2.06    1.45
   1   4  -8   24.57    2.68
  -1  -4   8   19.55    3.06
  -1  -4   8   25.55    3.25
  -1  -4   7   46.47    4.40
   1   4  -7   51.62    4.00
  -1  -4   7   60.61    4.61
   1   4  -7   48.14    3.78
   1   4  -6   77.46    4.89
  -1  -4   6   79.44    5.38
  -1  -4   5  586.09   15.60
   1   4  -5  589.21   15.14
   1   4  -5  579.87   15.87
   1   4  -4  139.77    5.91
   1   4  -4  123.09    7.87
  -1  -4   3  157.22    6.34
   1   4  -3  159.73    6.39
   1   4  -3  142.90    7.69
   1   4  -2  122.90    6.31
   1   4  -2  129.98    5.65
  -1  -4   2  134.14    5.70
   1   4  -1  429.23   12.06
   1   4   0 2683.12   55.33
  -1  -4   0 2666.46   53.34
  -1  -4  -1 1334.52   29.12
   1   4   1 1344.88   29.27
   1   4   2  478.86   14.80
   1   4   2  466.46   12.95
   1   4   3  705.48   17.48
   1   4   3  712.32   20.00
   1   4   4   73.91    5.36
   1   4   4   71.47    5.55
   1   4   4   68.53    6.98
   1   4   4   78.73    8.35
   1   4   5  147.16    7.96
   1   4   5  144.95   13.97
   1   4   5  136.60   12.28
   1   4   5  159.62   11.42
   1   4   5  154.95    8.89
   1   4   5  151.07   12.38
   1   4   5  139.56    7.31
   1   4   6  425.44   14.97
   1   4   6  401.17   20.05
   1   4   6  394.46   24.52
   1   4   6  456.12   14.55
   1   4   6  389.72   22.76
   1   4   7   26.54    6.32
   1   4   7   29.51    5.65
   1   4   7   36.00    6.56
   1   4   7   31.71    4.41
   1   4   7   34.92    7.49
   1   4   7   29.86    3.84
   1   4   8   80.75    5.99
   1   4   8   76.56   10.25
   1   4   8   89.06    7.02
   1   4   8   85.81   11.08
   1   4   8   92.17   10.24
   1   4   9  200.75   14.10
   1   4   9  193.26    9.88
   1   4   9  184.04   14.55
   1   4  10   21.89    4.17
   1   4  10   18.97    2.60
   1   4  10   20.01    3.71
   1   4  11   31.34    3.35
   1   5 -12    5.36    0.95
   1   5 -11   13.65    1.93
   1   5 -10   15.69    2.34
   1   5 -10   17.65    2.57
  -1  -5   9   66.93    5.36
   1   5  -9   60.44    4.92
   1   5  -9   58.65    4.02
  -1  -5   8  969.64   24.31
   1   5  -8  929.90   23.51
  -1  -5   7  550.34   17.88
   1   5  -7  566.96   17.36
  -1  -5   7  611.15   17.19
   1   5  -7  591.16   17.15
   1   5  -6 1152.66   27.96
   1   5  -6 1144.60   28.46
   1   5  -5 1010.37   25.40
   1   5  -4   20.57    2.42
   1   5  -4   18.23    2.33
   1   5  -4   18.78    2.35
   1   5  -3  661.97   17.50
   1   5  -3  650.35   17.82
   1   5  -2 1304.64   30.13
  -1  -5   2 1303.29   29.91
   1   5  -1  102.26    5.63
  -1  -5   1  107.64    5.62
  -1  -5   0  241.35    9.03
  -1  -5  -1 1370.45   30.11
   1   5   1 1283.97   29.83
   1   5   1 1306.14   30.30
   1   5   2  550.75   15.42
   1   5   2  519.34   16.71
   1   5   2  520.22   20.07
   1   5   2  530.10   17.20
   1   5   2  508.78   14.72
   1   5   3   23.41    2.58
   1   5   3   29.61    4.66
   1   5   3   24.38    2.56
   1   5   3   28.90    3.64
   1   5   3   22.13    4.59
   1   5   3   25.06    3.26
   1   5   3   23.58    3.01
   1   5   4  131.90   11.52
   1   5   4  122.99    7.60
   1   5   4  104.66    9.54
   1   5   4  138.73    8.44
   1   5   4  131.74    7.35
   1   5   5   89.58    7.08
   1   5   5  100.59    6.81
   1   5   5   87.70    9.08
   1   5   5   95.78   10.29
   1   5   5  103.63    6.51
   1   5   6    1.72    1.99
   1   5   6    4.09    2.65
   1   5   6    1.72    1.27
   1   5   6    3.55    1.36
   1   5   7    2.83    2.20
   1   5   7    0.66    2.30
   1   5   8   95.71    7.12
   1   5   8   97.96    9.78
   1   5   8   97.40    9.25
   1   5   9    1.67    1.25
   1   5   9    3.22    2.19
   1   5  10    1.80    0.89
   1   6 -11    1.08    0.78
   1   6 -10   61.01    4.32
   1   6 -10   61.14    4.28
   1   6  -9   42.32    4.02
   1   6  -9   35.73    3.14
   1   6  -8   74.20    5.69
   1   6  -8   70.48    4.92
   1   6  -8   76.07    5.61
   1   6  -7  892.93   23.70
   1   6  -7  873.23   24.04
   1   6  -6   38.95    3.85
   1   6  -6   37.43    3.97
   1   6  -5  299.16   10.77
   1   6  -5  310.43   12.01
   1   6  -5  299.63   11.44
   1   6  -4  114.03    6.65
   1   6  -4  105.76    6.04
   1   6  -3  494.56   15.31
   1   6  -3  511.13   15.90
   1   6  -3  465.81   13.77
   1   6  -2   11.11    2.04
   1   6  -2    9.87    1.99
   1   6  -1  569.46   17.06
   1   6  -1  607.15   17.94
   1   6   0  451.06   14.41
   1   6   0  444.51   14.79
   1   6   1  291.66   10.96
   1   6   1  310.05   11.59
   1   6   1  290.83   11.61
   1   6   2  168.94    7.81
   1   6   2  178.38    9.22
   1   6   2  158.26   11.05
   1   6   3  311.40   11.03
   1   6   3  312.90   13.42
   1   6   3  336.15   13.02
   1   6   4  204.22   13.80
   1   6   4  208.71    8.30
   1   6   4  215.84   10.17
   1   6   4  210.04   11.03
   1   6   5    3.38    2.30
   1   6   5    3.90    1.47
   1   6   5    2.03    1.61
   1   6   6  334.92   14.54
   1   6   6  322.00   17.93
   1   6   6  313.99   11.43
   1   6   7   78.03    6.50
   1   6   7   91.89    8.82
   1   6   8    4.23    1.71
   1   6   8    2.05    1.75
   1   6   9   36.38    4.30
   1   6   9   40.71    3.48
   1   7 -10   10.13    1.60
   1   7 -10   10.68    1.62
   1   7  -9   18.51    2.16
   1   7  -9   24.13    2.78
   1   7  -9   25.92    2.91
   1   7  -8   17.61    2.57
   1   7  -8   18.26    2.71
   1   7  -8   17.78    2.47
   1   7  -7    1.08    1.00
   1   7  -7    0.65    1.00
   1   7  -6    2.58    1.35
   1   7  -6    1.78    1.21
   1   7  -6    1.16    1.03
   1   7  -5  519.14   16.16
   1   7  -5  543.78   17.73
   1   7  -5  542.99   16.37
   1   7  -5  552.57   17.25
   1   7  -4    3.76    1.39
   1   7  -4    1.97    0.99
   1   7  -3   29.53    3.29
   1   7  -3   27.29    3.27
   1   7  -3   28.91    3.43
   1   7  -3   27.37    3.33
   1   7  -2  214.58    9.65
   1   7  -2  226.47   10.02
   1   7  -2  217.99    9.27
   1   7  -1  387.95   12.93
   1   7  -1  396.49   13.61
   1   7   0    0.17    0.61
   1   7   0    0.19    0.68
   1   7   1  412.47   14.25
   1   7   1  415.83   12.92
   1   7   2  595.52   19.45
   1   7   2  616.10   17.95
   1   7   2  577.01   18.98
   1   7   3    6.09    2.65
   1   7   3    7.47    1.75
   1   7   3    4.49    1.77
   1   7   3    3.57    1.59
   1   7   4  101.11    7.38
   1   7   4  105.74    6.77
   1   7   4   92.74    9.02
   1   7   5   72.75    5.22
   1   7   5   61.73    7.26
   1   7   5   68.56    5.99
   1   7   5   76.44    5.34
   1   7   6   98.42    6.85
   1   7   6   89.00    8.27
   1   7   7   24.70    4.14
   1   7   7   24.01    3.14
   1   7   8   72.99    4.63
   1   7   8   68.96    5.65
   1   8  -9   30.40    2.41
   1   8  -9   33.34    2.31
   1   8  -9   35.79    2.88
   1   8  -8   10.06    1.69
   1   8  -8    9.42    1.66
   1   8  -7   39.64    3.58
   1   8  -7   39.92    3.78
   1   8  -6   33.41    3.48
   1   8  -6   35.72    3.74
   1   8  -5   80.39    5.21
   1   8  -4  124.88    7.08
   1   8  -4  128.60    7.09
   1   8  -3   63.42    4.86
   1   8  -3   64.59    5.02
   1   8  -3   67.86    5.25
   1   8  -2   51.78    4.64
   1   8  -2   53.48    4.62
   1   8  -2   50.01    4.18
   1   8  -2   44.55    4.41
   1   8  -1    1.09    1.34
   1   8  -1    3.52    1.21
   1   8  -1    2.21    1.25
   1   8  -1    1.52    0.93
   1   8   0    7.56    2.01
   1   8   0   13.93    2.46
   1   8   1  200.67    9.26
   1   8   1  216.60   10.65
   1   8   1  190.78    9.97
   1   8   2  148.62    8.44
   1   8   2  141.09    7.28
   1   8   3  142.06    7.91
   1   8   3  124.57    9.43
   1   8   3  117.24    7.15
   1   8   3  152.76    8.08
   1   8   4  124.36    9.24
   1   8   4  129.38    7.45
   1   8   4  146.56    7.35
   1   8   4  151.16    7.67
   1   8   5    5.93    1.78
   1   8   5    5.37    2.20
   1   8   5    6.85    1.55
   1   8   6    0.29    1.06
   1   8   6    1.81    1.02
   1   8   7   86.16    4.42
   1   9  -8   85.64    3.81
   1   9  -8   93.03    4.18
   1   9  -7   72.07    4.08
   1   9  -7   76.55    4.28
   1   9  -6   26.14    2.66
   1   9  -5    0.18    0.84
   1   9  -4  156.42    7.34
   1   9  -3   28.66    3.21
   1   9  -3   26.77    2.85
   1   9  -3   23.41    2.72
   1   9  -2   38.48    3.33
   1   9  -2   33.93    3.61
   1   9  -2   39.45    3.78
   1   9  -1  168.81    8.50
   1   9  -1  158.24    7.91
   1   9   0  107.44    6.75
   1   9   0  111.00    6.35
   1   9   0  108.99    6.98
   1   9   1   59.94    4.87
   1   9   1   53.12    4.65
   1   9   2  113.58    6.45
   1   9   3    7.96    1.81
   1   9   3    9.08    1.78
   1   9   4    8.10    1.54
   1  10  -6    3.66    0.79
   1  10  -6    3.20    0.83
   1  10  -5   12.46    1.51
   1  10  -5   11.44    1.69
   1  10  -5   10.95    1.21
   1  10  -4    9.82    1.47
   1  10  -4   10.79    1.87
   1  10  -3   11.33    1.69
   1  10  -3   11.32    1.96
   1  10  -2    8.27    1.45
   1  10  -1    5.36    1.56
   1  10  -1    7.68    1.52
   1  10   0   47.32    3.34
   1  10   0   42.51    3.44
   1  10   0   51.89    3.82
   1  10   1   32.55    2.57
   1  10   1   42.88    3.28
   1  10   1   40.11    3.15
   1  10   2   -0.13    0.66
   1  10   3   11.14    1.41
  -2  12  -1    2.10    0.64
  -2  12  -2   36.61    2.19
  -2  11   3    0.95    0.73
  -2  11   2   47.09    3.61
  -2  11   1   59.26    3.79
  -2  11   1   57.59    4.16
  -2  11   1   67.09    4.53
  -2  11   0    1.87    0.98
  -2  11   0    0.36    0.81
  -2  11  -1   81.84    4.81
  -2  11  -1   70.97    4.69
  -2  11  -2   33.24    2.99
  -2  11  -2   25.55    2.70
  -2  11  -3   25.56    2.55
  -2  11  -3   36.22    3.00
  -2  11  -4   43.12    3.00
  -2  11  -4   46.90    3.07
   2 -11   6    9.43    1.38
  -2  10   6   64.17    3.48
  -2  10   5    6.16    1.44
  -2  10   4   94.59    5.29
  -2  10   3  161.17    7.74
  -2  10   3  150.68    7.56
  -2  10   3  151.75    7.93
  -2  10   2    0.90    0.94
  -2  10   2    1.98    1.40
  -2  10   1    4.44    1.69
  -2  10   1    5.64    1.76
  -2  10   1    6.27    1.67
  -2  10   0  206.34    9.80
  -2  10   0  183.58    9.32
  -2  10  -1  165.32    8.68
  -2  10  -1  165.90    8.62
  -2  10  -1  167.96    8.24
  -2  10  -2   33.89    3.52
  -2  10  -2   33.70    3.19
  -2  10  -2   31.80    3.61
  -2  10  -2   32.97    3.66
  -2  10  -3   33.96    3.41
  -2  10  -3   29.43    3.33
  -2  10  -3   33.37    3.26
  -2  10  -4   92.92    5.46
  -2  10  -4   92.13    5.45
  -2  10  -4   84.96    5.29
  -2  10  -5    2.90    0.99
  -2  10  -5    2.61    1.13
  -2  10  -6    0.46    0.83
  -2  10  -7   44.72    3.12
   2 -10   7   45.69    3.54
  -2  10  -8    3.36    0.80
  -2   9   7   39.45    3.06
  -2   9   6   20.73    2.67
  -2   9   5  182.83    8.56
  -2   9   4    8.51    1.93
  -2   9   4    7.94    2.02
  -2   9   3    6.31    1.99
  -2   9   3    6.15    1.54
  -2   9   2  180.26    8.44
  -2   9   2  176.27    9.59
  -2   9   2  169.04    9.07
  -2   9   1  121.62    8.52
  -2   9   1  129.92    7.89
  -2   9   1  119.57    6.98
  -2   9   1  107.78    7.39
   2  -9   0    1.10    1.02
  -2   9   0    1.73    1.60
  -2   9   0    0.55    1.13
  -2   9   0    3.17    1.58
  -2   9   0    1.46    0.85
  -2   9  -1   27.38    3.00
  -2   9  -1   33.57    3.96
  -2   9  -1   34.51    4.48
  -2   9  -1   30.65    3.50
  -2   9  -1   35.74    4.04
  -2   9  -1   28.99    3.19
  -2   9  -2   62.58    5.32
  -2   9  -2   62.96    5.84
  -2   9  -2   69.14    5.28
  -2   9  -2   63.07    4.91
  -2   9  -2   60.28    5.21
   2  -9   2   68.46    5.68
  -2   9  -2   62.19    4.69
  -2   9  -3   61.49    4.73
  -2   9  -3   59.70    4.79
  -2   9  -3   60.03    5.55
  -2   9  -3   56.18    4.18
  -2   9  -3   58.70    4.92
  -2   9  -3   49.50    4.51
  -2   9  -3   54.68    4.19
  -2   9  -4   18.08    2.96
  -2   9  -4   22.10    2.91
  -2   9  -4   22.59    2.89
  -2   9  -4   21.47    2.78
  -2   9  -4   24.65    2.94
  -2   9  -5  224.14    9.10
  -2   9  -5  230.24    9.60
  -2   9  -5  255.13   10.21
  -2   9  -6   73.90    5.12
  -2   9  -6   89.96    5.73
  -2   9  -6   92.27    5.74
  -2   9  -7   33.97    3.22
   2  -9   7   33.29    3.70
  -2   9  -7   35.91    3.41
  -2   9  -8    0.94    0.74
  -2   9  -8    0.15    0.74
  -2   8   8    7.64    1.54
  -2   8   7   40.06    3.82
  -2   8   6   23.93    3.34
  -2   8   6   31.74    5.49
  -2   8   6   21.98    3.10
  -2   8   6   29.03    3.83
  -2   8   5    2.60    1.30
  -2   8   5    0.57    1.98
  -2   8   5    1.23    1.25
  -2   8   5    0.57    1.05
  -2   8   4  177.62    7.76
  -2   8   4  175.41   13.32
  -2   8   4  169.88    9.55
  -2   8   4  183.19    8.98
   2  -8  -3    5.26    1.59
  -2   8   3    7.48    1.78
  -2   8   3    4.87    1.76
  -2   8   3    8.44    2.13
  -2   8   3   10.60    3.76
  -2   8   3    5.42    2.06
   2  -8  -2 2283.21   50.09
  -2   8   2 2256.65   50.75
  -2   8   2 2206.42   53.04
  -2   8   2 2220.58   48.84
  -2   8   2 2254.00   51.67
   2  -8  -1   23.82    3.20
  -2   8   1   24.64    3.77
  -2   8   1   25.39    3.35
  -2   8   1   22.55    2.89
  -2   8   1   21.12    3.29
  -2   8   1   22.06    2.79
   2  -8   0  399.75   14.60
  -2   8   0  389.86   12.37
  -2   8   0  384.75   14.62
  -2   8   0  393.64   12.57
  -2   8   0  399.84   16.00
  -2   8   0  410.63   14.72
  -2   8  -1  373.39   15.18
  -2   8  -1  367.01   12.30
  -2   8  -1  384.53   12.76
  -2   8  -1  392.71   14.14
  -2   8  -1  346.79   11.48
   2  -8   2   95.72    6.57
  -2   8  -2  100.03    7.27
  -2   8  -2   99.01    6.51
  -2   8  -2   98.65    5.84
  -2   8  -2   91.90    5.33
  -2   8  -2  103.94    6.15
  -2   8  -2   88.94    5.42
  -2   8  -3  417.82   14.40
  -2   8  -3  399.69   13.65
  -2   8  -3  408.94   15.63
  -2   8  -3  399.84   13.70
  -2   8  -3  360.28   22.18
  -2   8  -3  404.42   13.43
  -2   8  -3  410.91   14.14
  -2   8  -3  390.51   13.24
   2  -8   3  425.59   15.05
  -2   8  -4  391.18   14.92
  -2   8  -4  404.60   13.55
  -2   8  -4  414.06   13.92
  -2   8  -4  411.60   14.42
  -2   8  -4  389.72   13.63
   2  -8   4  410.65   14.57
  -2   8  -5    3.54    1.59
  -2   8  -5    4.72    1.65
   2  -8   5    3.63    1.40
  -2   8  -5    6.07    1.53
  -2   8  -5    6.40    1.80
  -2   8  -5    5.15    1.68
  -2   8  -6  180.65    8.62
  -2   8  -6  193.91    9.29
  -2   8  -6  181.76    8.85
  -2   8  -7   35.54    3.73
  -2   8  -7   31.35    3.64
  -2   8  -7   42.98    3.82
   2  -8   8   11.82    2.30
  -2   8  -8   10.10    1.83
  -2   8  -9    1.29    1.01
  -2   8 -10   34.99    2.61
  -2   8 -10   36.95    2.70
  -2   7   9    7.48    2.21
  -2   7   8  133.23    7.16
  -2   7   8  150.03   10.47
  -2   7   8  143.19    7.57
  -2   7   7  121.08    7.50
  -2   7   7  118.34   10.16
  -2   7   7  124.55    8.33
  -2   7   7  114.87    7.38
  -2   7   6   28.18    3.75
  -2   7   6   26.14    3.97
  -2   7   6   29.53    8.57
  -2   7   6   19.61    3.28
  -2   7   5    6.49    1.67
  -2   7   5    8.04    3.24
  -2   7   5   11.76    2.61
  -2   7   5    4.51    1.99
  -2   7   5    5.04    2.07
  -2   7   4 1441.74   36.70
  -2   7   4 1402.48   33.86
  -2   7   4 1413.10   32.03
  -2   7   4 1429.35   43.49
  -2   7   4 1443.12   36.45
  -2   7   4 1357.08   35.56
   2  -7  -4 1387.79   32.57
   2  -7  -3  465.40   14.93
  -2   7   3  458.53   15.46
  -2   7   3  502.32   17.59
  -2   7   3  472.21   14.48
  -2   7   3  478.72   21.85
  -2   7   3  486.31   16.70
  -2   7   3  475.39   16.73
  -2   7   3  472.33   16.76
  -2   7   2  179.98    8.99
  -2   7   2  184.68    8.91
   2  -7  -2  212.88    9.07
  -2   7   2  188.27   12.68
  -2   7   2  193.76    8.31
  -2   7   2  189.40    9.10
  -2   7   2  199.94   10.15
  -2   7   2  193.11    9.52
  -2   7   1 1261.89   28.07
  -2   7   1 1251.11   31.56
   2  -7  -1 1296.63   30.86
  -2   7   0  391.71   11.79
  -2   7   0  382.48   14.58
  -2   7   0  391.86   13.41
   2  -7   0  392.49   13.41
  -2   7   0  373.22   11.67
  -2   7  -1    3.99    1.61
  -2   7  -1    3.78    1.37
  -2   7  -1    7.79    1.62
  -2   7  -1    5.12    1.37
  -2   7  -1    4.45    1.21
  -2   7  -2  344.27   11.49
  -2   7  -2  349.76   11.58
  -2   7  -2  349.13   11.30
  -2   7  -2  330.67   20.07
  -2   7  -2  352.95   11.84
  -2   7  -2  335.84   13.47
   2  -7   2  361.91   12.75
  -2   7  -2  342.04   12.29
  -2   7  -3  843.57   21.89
  -2   7  -3  849.74   21.90
  -2   7  -3  850.61   22.55
   2  -7   3  896.61   23.19
  -2   7  -3  849.86   22.30
  -2   7  -3  834.60   21.91
  -2   7  -3  835.05   24.14
  -2   7  -4    7.76    1.80
  -2   7  -4    8.34    1.70
  -2   7  -4    6.86    1.66
  -2   7  -4    7.43    1.84
  -2   7  -4    6.94    1.71
  -2   7  -4    8.56    2.01
  -2   7  -4   14.32    4.59
   2  -7   4    8.18    1.86
   2  -7   5  138.71    7.11
  -2   7  -5  142.44    7.24
  -2   7  -5  124.80    7.09
  -2   7  -5  135.97    6.62
  -2   7  -5  125.77    7.18
  -2   7  -5  130.72    7.29
  -2   7  -5  108.55   12.53
  -2   7  -6  209.08    9.75
  -2   7  -6  225.30   10.12
  -2   7  -6  212.76    9.31
  -2   7  -7   81.80    5.43
  -2   7  -7   90.40    6.11
  -2   7  -7   73.71    5.74
  -2   7  -7   86.40    5.93
  -2   7  -8   36.76    3.95
   2  -7   8   32.83    3.91
  -2   7  -8   34.76    3.69
  -2   7  -8   31.38    3.16
  -2   7  -9   21.57    2.72
  -2   7 -10   23.96    2.51
  -2   7 -11    1.16    0.57
  -2   7 -11    0.79    0.48
  -2   6   9  124.11    6.89
  -2   6   9  105.93   13.08
  -2   6   8  200.74   10.05
  -2   6   8  188.21   19.19
  -2   6   8  226.39   13.74
  -2   6   8  205.01   10.06
  -2   6   8  221.94   13.74
  -2   6   7  111.09   15.22
  -2   6   7  102.97    7.96
  -2   6   7   97.38    9.48
  -2   6   7   98.61    8.16
  -2   6   7  103.37    7.35
  -2   6   7   96.42    9.35
  -2   6   7   96.01    7.50
  -2   6   7   92.57    6.90
  -2   6   6  295.09   13.60
  -2   6   6  280.77   12.62
  -2   6   6  260.50   15.77
  -2   6   6  273.80   24.06
  -2   6   6  287.99   13.15
  -2   6   6  303.60   17.14
  -2   6   6  318.85   14.67
  -2   6   6  270.86   10.17
  -2   6   6  256.50   12.26
  -2   6   5  432.49   16.39
  -2   6   5  458.27   21.21
  -2   6   5  436.46   16.88
  -2   6   5  418.26   13.57
  -2   6   5  472.50   17.66
  -2   6   5  445.62   14.05
  -2   6   5  448.51   30.22
  -2   6   5  441.30   16.51
   2  -6  -4   94.37    5.22
  -2   6   4  100.72    5.20
  -2   6   4   97.68    6.73
  -2   6   4   92.18    5.58
  -2   6   4   89.48    6.63
  -2   6   4   96.30    6.51
  -2   6   4  109.42   14.16
  -2   6   4   99.13    6.60
  -2   6   4   84.27    5.24
  -2   6   4  108.83    9.46
  -2   6   3  442.26   15.22
  -2   6   3  454.46   15.51
  -2   6   3  436.49   27.74
   2  -6  -3  436.90   13.29
  -2   6   3  432.98   14.96
  -2   6   3  445.89   15.08
  -2   6   3  477.66   19.85
  -2   6   3  433.08   12.90
  -2   6   3  427.75   13.75
  -2   6   3  421.47   13.37
  -2   6   2 1167.80   34.77
  -2   6   2 1129.80   27.78
  -2   6   2 1196.72   24.88
  -2   6   2 1139.55   28.67
  -2   6   2 1206.59   29.13
  -2   6   2 1173.42   29.60
  -2   6   1  855.68   19.64
  -2   6   1  871.60   27.85
  -2   6   1  851.62   22.30
  -2   6   0  852.22   20.02
  -2   6   0  861.73   23.11
  -2   6  -1 1593.54   33.62
  -2   6  -1 1452.15   46.04
  -2   6  -2  376.60   11.42
  -2   6  -2  380.16   11.57
  -2   6  -2  364.86   20.01
  -2   6  -3   96.90    5.30
  -2   6  -3  107.43    5.57
   2  -6   4 1239.95   28.14
  -2   6  -4 1186.80   28.08
  -2   6  -4 1207.60   28.09
  -2   6  -4 1180.65   28.01
  -2   6  -4 1159.25   27.57
  -2   6  -4 1144.67   26.83
  -2   6  -5  530.24   16.40
   2  -6   5  579.56   15.76
  -2   6  -5  526.68   16.12
  -2   6  -5  543.91   15.79
  -2   6  -6   25.03    2.89
  -2   6  -6   24.09    3.12
  -2   6  -6   23.76    3.03
  -2   6  -6   27.46    3.21
  -2   6  -7  442.55   14.01
  -2   6  -7  421.87   15.06
  -2   6  -7  428.10   14.58
   2  -6   7  434.94   16.21
  -2   6  -7  438.97   14.80
   2  -6   8   83.75    5.59
  -2   6  -8   86.56    5.20
  -2   6  -8   99.79    6.51
  -2   6  -8   77.32    5.37
  -2   6  -8   88.12    5.90
   2  -6   8   84.10    6.43
  -2   6  -9   15.34    2.48
   2  -6   9   16.05    2.70
   2  -6   9   10.46    2.05
   2  -6  10    0.16    0.77
  -2   6 -10    0.17    0.79
  -2   6 -11    7.15    1.21
  -2   6 -11    6.33    1.15
  -2   5  11    5.56    2.90
  -2   5  10   78.64   10.89
  -2   5   9  158.99   17.67
  -2   5   9  148.18   11.07
  -2   5   9  168.40    8.84
  -2   5   9  184.54   11.11
  -2   5   9  157.10   10.75
  -2   5   8    6.26    5.55
  -2   5   8   13.13    2.77
  -2   5   8   12.65    3.28
  -2   5   8   13.24    3.57
  -2   5   8   12.25    2.88
  -2   5   8   12.22    3.74
  -2   5   8    9.16    1.80
  -2   5   8    6.43    2.07
  -2   5   7  837.31   26.18
  -2   5   7  861.85   30.13
  -2   5   7  848.69   24.87
  -2   5   7  783.64   42.60
  -2   5   7  826.68   22.22
  -2   5   7  847.01   25.04
  -2   5   7  885.58   28.39
  -2   5   7  872.02   31.83
  -2   5   7  805.00   25.14
  -2   5   6  490.66   18.17
  -2   5   6  519.50   21.78
  -2   5   6  503.47   17.94
  -2   5   6  529.74   19.85
  -2   5   6  498.15   32.19
  -2   5   6  491.16   15.35
  -2   5   6  490.72   17.71
  -2   5   6  492.15   17.34
  -2   5   6  532.11   23.00
  -2   5   6  516.67   17.19
  -2   5   5   22.69    3.35
  -2   5   5   21.19    2.42
  -2   5   5   23.98    3.41
  -2   5   5   24.31    4.52
  -2   5   5   19.99    3.41
  -2   5   5   19.97    3.94
  -2   5   5   17.16    6.06
  -2   5   5   19.88    3.15
  -2   5   5   21.72    2.66
  -2   5   5   21.63    2.89
  -2   5   4  678.13   20.73
  -2   5   4  715.58   19.75
  -2   5   4  756.65   25.07
  -2   5   4  701.18   20.38
  -2   5   4  705.24   34.93
  -2   5   4  692.48   20.12
  -2   5   3  996.29   24.91
  -2   5   2  486.70   11.59
  -2   5   1 1252.81   26.11
  -2   5   0  669.46   25.24
  -2   5   0  653.91   16.90
  -2   5   0  686.39   15.82
  -2   5  -1   71.18    7.65
  -2   5  -1   75.89    3.82
  -2   5  -1   80.81    4.43
  -2   5  -2  846.04   30.44
  -2   5  -2  872.69   20.17
  -2   5  -3   37.18    2.87
  -2   5  -3   23.85    5.09
  -2   5  -4   28.49    2.69
  -2   5  -5  120.36    6.06
  -2   5  -5  122.89    5.85
  -2   5  -5  107.04    5.96
   2  -5   5  126.48    5.56
  -2   5  -5  119.40    6.10
  -2   5  -6    3.44    1.11
  -2   5  -6    7.04    1.57
  -2   5  -6    5.10    1.43
  -2   5  -6    7.13    1.76
  -2   5  -7  498.90   15.43
  -2   5  -7  493.02   14.61
   2  -5   7  525.54   17.70
  -2   5  -7  505.88   15.66
  -2   5  -7  487.45   16.11
  -2   5  -8    5.56    1.69
   2  -5   8    5.78    1.88
  -2   5  -8    4.52    1.76
  -2   5  -8    5.34    1.35
   2  -5   8    4.74    1.75
   2  -5   8    6.50    1.90
   2  -5   9    2.78    1.55
   2  -5   9    0.53    0.93
  -2   5  -9    3.05    1.37
   2  -5  10   94.04    6.07
  -2   5 -10   91.10    5.20
   2  -5  11   58.15    4.11
  -2   5 -11   55.78    3.30
  -2   5 -11   58.24    3.36
  -2   4  12   10.08    2.94
  -2   4  11   28.76    6.40
  -2   4  10   12.13    3.27
  -2   4  10   12.59    5.77
  -2   4   9  201.02   10.74
  -2   4   9  185.67   11.82
  -2   4   9  183.59   19.70
  -2   4   9  192.67   11.88
  -2   4   9  181.89   13.01
  -2   4   9  179.64    9.62
  -2   4   8  145.40    8.78
  -2   4   8  142.19   10.47
  -2   4   8  141.94    9.23
  -2   4   8  129.05   16.91
  -2   4   8  138.73   11.61
  -2   4   8  146.15    9.04
  -2   4   8  146.34    7.64
  -2   4   8  155.68    9.30
  -2   4   8  151.14    9.25
  -2   4   8  149.75   10.51
  -2   4   7  257.29   12.39
  -2   4   7  285.16   16.63
  -2   4   7  306.96   15.49
  -2   4   7  260.30   23.60
  -2   4   7  293.77   12.97
  -2   4   7  288.40   11.27
  -2   4   7  304.76   12.83
  -2   4   7  300.82   13.39
  -2   4   7  301.07   14.81
  -2   4   7  280.99   12.67
  -2   4   6   31.32    3.84
  -2   4   6   32.76    4.85
  -2   4   6   29.04    4.24
  -2   4   6   36.14    6.74
  -2   4   6   30.95    3.82
  -2   4   6   33.38    5.40
  -2   4   6   30.22    3.26
  -2   4   6   31.49    3.70
  -2   4   6   32.39    3.78
  -2   4   5  354.29   14.44
  -2   4   5  377.99   15.88
  -2   4   5  346.04   23.87
  -2   4   5  396.62   20.83
  -2   4   5  337.07   13.04
  -2   4   4 5038.46  100.51
  -2   4   3  106.51    4.63
  -2   4   2 2994.60   60.06
  -2   4   2 3151.13   58.27
  -2   4   1 1844.70   36.30
  -2   4   1 1866.64   37.71
  -2   4   0 1439.33   39.96
  -2   4   0 1531.29   30.52
  -2   4   0 1518.05   31.56
  -2   4  -1  749.83   25.64
  -2   4  -1  796.28   17.64
  -2   4  -1  801.12   18.33
  -2   4  -2 1328.93   28.30
  -2   4  -3  287.35    8.66
  -2   4  -3  278.68    8.59
  -2   4  -4    6.55    1.26
  -2   4  -5 2186.64   45.23
  -2   4  -6  260.70    9.83
  -2   4  -6  245.35    9.24
   2  -4   6  257.68   10.89
   2  -4   6  267.31   10.49
  -2   4  -6  264.33    9.42
  -2   4  -6  252.66    8.75
   2  -4   7   27.43    3.49
  -2   4  -7   29.85    3.30
  -2   4  -7   29.35    2.96
   2  -4   7   26.63    3.48
   2  -4   7   30.57    3.75
  -2   4  -7   26.10    2.91
   2  -4   8  254.85   11.57
  -2   4  -8  243.26    9.66
   2  -4   8  246.75   11.36
   2  -4   8  232.83   11.15
   2  -4   9   13.11    2.76
   2  -4   9    8.27    2.18
   2  -4   9   14.32    2.65
  -2   4  -9   11.28    2.03
   2  -4   9   11.88    2.47
   2  -4  10    1.29    1.27
  -2   4 -10    0.17    0.80
  -2   4 -10    0.32    0.80
   2  -4  11   13.97    2.38
   2  -4  12   25.02    2.40
  -2   3  12    2.87    2.54
  -2   3  11   83.77    6.81
  -2   3  11   53.68    9.52
  -2   3  10  116.79   10.05
  -2   3  10  121.96    7.78
  -2   3  10  111.70   15.37
  -2   3  10  131.60    9.72
  -2   3  10  139.96   13.61
  -2   3   9  174.60    9.88
  -2   3   9  145.08   12.10
  -2   3   9  154.04   10.14
  -2   3   9  157.49   15.00
  -2   3   9  162.72    7.75
  -2   3   8    4.63    2.85
  -2   3   8    3.92    1.49
  -2   3   8    4.38    2.02
  -2   3   8    2.44    3.17
  -2   3   8    4.13    1.83
  -2   3   8    2.36    1.45
  -2   3   8    3.81    1.61
  -2   3   8    3.09    1.43
  -2   3   8    4.22    1.53
  -2   3   8    3.22    1.53
  -2   3   8    3.55    1.69
  -2   3   7  151.12    8.79
  -2   3   7  158.66    8.02
  -2   3   7  157.51    9.04
  -2   3   7  156.35    9.04
  -2   3   7  164.96    7.90
  -2   3   7  164.17   10.32
  -2   3   7  154.68    7.17
  -2   3   7  174.87   14.67
  -2   3   7  153.37    8.55
  -2   3   7  151.46    7.88
  -2   3   7  173.88   10.68
  -2   3   7  163.42    8.89
  -2   3   7  149.10   11.70
  -2   3   6 2009.60   41.89
  -2   3   6 2069.45   48.47
  -2   3   6 2095.73   58.03
  -2   3   6 2007.34   44.97
  -2   3   6 1943.95   42.56
  -2   3   6 1961.17   43.55
  -2   3   6 1980.57   45.07
  -2   3   6 1961.44   45.23
  -2   3   6 2049.46   48.62
  -2   3   5  343.76   12.88
  -2   3   4  693.66   15.55
  -2   3   3 3793.18   71.82
  -2   3   2  171.01    5.61
  -2   3   1  813.85   17.82
  -2   3   1  808.89   16.92
  -2   3   0 7168.06  145.86
  -2   3   0 7483.77  136.72
  -2   3  -1 3139.42   60.17
  -2   3  -2 1426.22   29.25
  -2   3  -2 1437.20   29.12
  -2   3  -3  129.39    4.94
  -2   3  -3  129.55    4.76
  -2   3  -4 2507.60   48.79
  -2   3  -4 2528.55   49.90
  -2   3  -5   14.18    1.75
   2  -3   6 1060.35   27.53
  -2   3  -6 1117.16   25.95
  -2   3  -6 1090.57   24.91
  -2   3  -6 1065.82   24.86
   2  -3   6 1079.70   27.57
   2  -3   6 1092.28   27.29
   2  -3   7  390.36   14.53
   2  -3   7  424.87   15.29
   2  -3   7  417.80   14.59
  -2   3  -7  396.79   12.39
  -2   3  -8  158.83    7.07
   2  -3   8  163.75    9.41
   2  -3   8  137.16    8.30
   2  -3   8  162.15    8.70
  -2   3  -9   47.96    3.71
   2  -3   9   59.87    5.71
   2  -3   9   53.08    4.93
   2  -3  10   63.77    5.72
   2  -3  10   62.50    5.39
   2  -3  11    2.03    1.42
   2  -3  11    3.41    1.53
   2  -3  12    0.15    0.81
  -2   2  12    0.25    1.19
  -2   2  12    0.69    2.70
  -2   2  11  247.36   12.72
  -2   2  11  247.19   16.55
  -2   2  10  340.23   13.44
  -2   2  10  336.92   21.24
  -2   2  10  337.69   16.36
  -2   2  10  305.99   17.47
  -2   2  10  329.48   14.53
  -2   2  10  331.01   12.22
  -2   2   9  110.15    9.13
  -2   2   9  120.09    7.79
  -2   2   9  122.57   12.92
  -2   2   9  104.63    6.48
  -2   2   9  102.60    7.85
  -2   2   9  110.10    7.39
  -2   2   8  289.06   13.22
  -2   2   8  299.21   12.86
  -2   2   8  304.16   12.92
  -2   2   8  278.01   11.77
  -2   2   8  266.75   13.07
  -2   2   8  298.81   15.16
  -2   2   8  319.38   20.18
  -2   2   8  289.45   11.90
  -2   2   8  295.11   11.23
  -2   2   8  295.98   12.32
  -2   2   7  236.71    9.37
  -2   2   7  231.05   10.12
  -2   2   7  254.20   10.22
  -2   2   7  232.22   11.45
  -2   2   7  274.13   17.50
  -2   2   7  236.87   10.35
  -2   2   7  241.65   11.25
  -2   2   7  249.51   10.37
  -2   2   7  243.36   10.94
  -2   2   6   18.95    2.43
  -2   2   6   17.61    2.21
  -2   2   6   19.83    2.85
  -2   2   6   21.53    3.03
  -2   2   5 2084.78   39.64
  -2   2   4 1293.92   25.91
  -2   2   3  105.69    3.83
  -2   2   2   89.15    3.44
   2  -2  -1  620.33   12.26
  -2   2   1  618.80   18.53
  -2   2   0  418.12   14.09
   2  -2   0  405.02    9.28
  -2   2   0  426.72   10.12
  -2   2   0  421.26    9.69
  -2   2  -1 2173.59   42.13
  -2   2  -1 2156.26   41.88
   2  -2   1 2198.56   42.13
  -2   2  -2 9999.00  179.04
   2  -2   2 9452.61  179.71
   2  -2   3 1705.59   35.14
  -2   2  -3 1681.00   33.92
  -2   2  -3 1700.43   33.57
  -2   2  -4   36.61    2.45
  -2   2  -4   34.01    2.00
  -2   2  -5  607.58   14.97
   2  -2   6  482.88   15.06
   2  -2   7    1.66    1.32
   2  -2   7    2.03    1.17
   2  -2   7    2.66    1.22
   2  -2   8  201.61   10.72
   2  -2   8  201.43    9.63
  -2   2  -8  182.76    7.85
   2  -2   9  352.24   14.00
   2  -2   9  377.83   15.54
   2  -2   9  335.97   13.39
   2  -2  10   37.28    4.26
   2  -2  10   28.93    4.11
   2  -2  11   63.32    5.39
   2  -2  12   10.82    2.85
  -2   1  13    2.80    2.03
  -2   1  12  101.25    6.80
  -2   1  11    8.51    2.70
  -2   1  11   12.22    2.23
  -2   1  11    9.51    3.90
  -2   1  10   17.77    3.35
  -2   1  10   22.20    5.84
  -2   1  10   16.10    3.65
  -2   1  10   24.78    3.26
  -2   1  10   19.32    3.51
  -2   1   9 1393.20   47.28
  -2   1   9 1365.11   36.30
  -2   1   9 1388.49   34.29
  -2   1   9 1351.51   33.44
  -2   1   9 1287.49   38.74
  -2   1   9 1344.57   35.26
  -2   1   8  217.16   10.59
  -2   1   8  244.85   10.87
  -2   1   8  247.94   10.99
  -2   1   8  237.39   16.76
  -2   1   8  231.38   13.11
  -2   1   8  225.47   10.63
  -2   1   8  258.21   10.48
  -2   1   8  230.33   11.46
  -2   1   7   13.02    2.32
  -2   1   7   12.95    3.01
  -2   1   7    9.67    2.07
  -2   1   7   10.02    2.07
  -2   1   7    8.16    2.03
  -2   1   7   10.61    2.03
  -2   1   6  870.35   21.38
  -2   1   6  858.21   21.96
  -2   1   5 3191.60   59.00
  -2   1   5 3148.70   59.47
   2  -1  -4    1.95    0.47
  -2   1   4    5.88    0.76
   2  -1  -3 5114.71   94.52
  -2   1   1  405.12   12.40
  -2   1   0 4707.83   90.11
   2  -1   0 4619.50   86.12
   2  -1   1  255.59    6.99
   2  -1   2 1927.41   36.60
   2  -1   2 1880.11   37.89
   2  -1   3    2.20    0.49
   2  -1   3    2.12    0.80
  -2   1  -4  351.74    8.60
   2  -1   4  368.86    8.24
   2  -1   5 3407.31   68.03
   2  -1   6   61.81    4.45
   2  -1   7  236.87   10.01
   2  -1   8   37.75    4.67
   2  -1   8   32.65    4.04
   2  -1   8   40.53    4.11
   2  -1   9  126.47    7.77
   2  -1   9  132.67    8.84
   2  -1   9  116.00    7.21
   2  -1  10   31.75    4.37
   2  -1  11  159.47    8.60
   2  -1  11  138.60    7.46
   2  -1  12    1.03    1.57
   2  -1  12    1.12    0.81
   2  -1  12    0.45    1.65
  -2   0  13    3.08    2.16
  -2   0  12   10.54    2.25
  -2   0  11   99.65    7.80
  -2   0  11   99.14   10.03
  -2   0  11  115.97    6.75
  -2   0  10   80.51    6.64
  -2   0  10   76.60    5.84
  -2   0  10   64.67    6.95
  -2   0  10   78.02    9.50
  -2   0  10   66.21    6.16
  -2   0   9   33.94    4.22
  -2   0   9   44.05    7.41
  -2   0   9   39.38    4.72
  -2   0   9   42.58    5.70
  -2   0   9   41.65    4.25
  -2   0   8  500.56   17.42
  -2   0   8  492.04   20.17
  -2   0   8  543.65   16.85
  -2   0   8  505.09   18.05
  -2   0   7 1688.88   39.87
  -2   0   7 1651.98   37.60
  -2   0   7 1719.10   39.15
  -2   0   7 1593.49   38.49
  -2   0   7 1707.49   38.85
  -2   0   7 1676.05   42.98
  -2   0   6   45.49    3.80
   2   0  -5  376.36    8.55
   2   0  -4  638.42   13.73
   2   0  -3  954.16   19.54
   2   0  -2  102.48    3.08
   2   0  -2  102.40    3.58
   2   0  -1 2358.06   43.99
   2   0  -1 2237.58   43.71
  -2   0  -1  431.23   10.20
   2   0   1  401.52    9.54
  -2   0  -2  140.80    5.12
   2   0   2  145.32    5.75
   2   0   3 6265.75  115.37
   2   0   4 2762.34   52.15
   2   0   4 2797.36   55.89
   2   0   5 2815.36   57.73
   2   0   6 1403.05   32.04
   2   0   6 1308.27   33.65
   2   0   7  183.62    8.76
   2   0   7  189.76    9.76
   2   0   7  175.45    8.63
   2   0   8    6.97    1.96
   2   0   8    5.17    1.57
   2   0   8    5.27    1.67
   2   0   8    6.02    2.18
   2   0   9   59.49    5.27
   2   0   9   57.71    5.93
   2   0  10   55.62    4.89
   2   0  10   65.98    5.95
   2   0  10   52.89    6.46
   2   0  11    5.85    2.82
   2   0  11    6.67    1.70
   2   0  11    7.46    2.36
   2   0  11    8.08    3.51
   2   0  12    4.79    1.98
   2   0  12    5.05    2.34
  -2  -1  12   33.88    3.57
  -2  -1  11  119.71    8.28
  -2  -1  10    1.21    1.29
  -2  -1  10    0.97    1.43
  -2  -1  10   -0.61    2.11
  -2  -1  10    3.22    2.10
  -2  -1  10    1.29    1.35
  -2  -1   9    3.79    1.91
  -2  -1   9    6.43    2.05
  -2  -1   9    3.67    1.64
  -2  -1   9    4.18    2.18
  -2  -1   8  295.56   12.67
  -2  -1   8  276.23   14.27
  -2  -1   8  294.25   12.68
  -2  -1   8  308.14   12.06
  -2  -1   7    5.82    1.58
  -2  -1   7    8.74    2.47
  -2  -1   7    7.05    1.87
  -2  -1   6   89.36    5.14
   2   1  -5   24.74    1.66
   2   1  -4 7114.65  128.83
  -2  -1   4 6793.39  129.22
  -2  -1   3   78.15    3.59
   2   1  -3   84.15    3.46
   2   1  -2 3269.73   61.84
   2   1  -2 3249.91   61.75
  -2  -1   2 3255.82   62.29
   2   1  -1  813.74   17.64
   2   1  -1  837.80   18.24
  -2  -1   0 1110.88   23.32
   2   1   0 1105.50   24.13
  -2  -1  -1  352.70    9.24
   2   1   1  334.69   10.21
   2   1   1  338.18    8.70
   2   1   2 5070.77   99.68
   2   1   2 5169.90   96.62
  -2  -1  -2 5276.94   97.36
  -2  -1  -3   83.49    3.73
   2   1   3   80.53    3.34
   2   1   4 4208.27   78.77
   2   1   5  142.72    7.67
   2   1   6  730.77   22.02
   2   1   6  737.82   21.45
   2   1   6  730.03   21.63
   2   1   7   26.08    3.56
   2   1   7   21.68    3.23
   2   1   7   25.86    3.67
   2   1   8   38.18    4.41
   2   1   8   40.70    4.30
   2   1   8   43.47    4.58
   2   1   9    9.32    2.19
   2   1   9   10.80    4.23
   2   1   9    4.39    2.12
   2   1   9    9.47    2.21
   2   1  10    2.12    1.22
   2   1  10    3.66    2.32
   2   1  10    4.33    2.94
   2   1  10    3.81    1.88
   2   1  10    5.86    3.14
   2   1  11   30.83    3.38
   2   1  11   24.53    3.82
   2   1  11   26.59    5.17
   2   1  11   24.74    4.45
   2   1  12   -0.24    0.92
   2   1  12    0.29    1.00
   2   2 -12   27.36    2.21
  -2  -2  11   39.69    4.34
  -2  -2  11   33.14    4.10
  -2  -2  10  287.75   13.25
  -2  -2  10  308.02   12.29
  -2  -2  10  279.76   13.67
  -2  -2   9  407.53   16.05
  -2  -2   9  371.68   16.95
  -2  -2   9  427.05   15.00
  -2  -2   9  401.29   15.02
  -2  -2   8   44.39    4.50
  -2  -2   8   56.56    4.80
  -2  -2   8   51.26    5.00
  -2  -2   8   42.36    5.35
  -2  -2   7  203.46   11.54
  -2  -2   7  228.23    9.55
  -2  -2   6  880.92   22.27
  -2  -2   5    0.74    0.54
   2   2  -5    0.10    0.48
   2   2  -4  352.59    9.72
  -2  -2   4  365.74   10.18
   2   2  -3 2676.45   52.33
   2   2  -2  452.45   12.10
   2   2  -2  473.59   11.83
   2   2  -1   24.18    2.20
   2   2  -1   25.22    2.00
   2   2   0 2109.80   43.59
   2   2   1  100.19    5.25
   2   2   1   97.93    4.19
   2   2   2    3.26    0.78
  -2  -2  -3  230.53    7.60
   2   2   3  237.13    9.71
   2   2   3  230.37    7.18
  -2  -2  -4  390.04   10.87
   2   2   4  390.77   10.35
   2   2   4  409.20   14.07
   2   2   5  434.29   15.90
   2   2   5  468.28   16.02
   2   2   5  469.27   21.23
   2   2   5  482.01   16.19
   2   2   6  214.34   10.68
   2   2   6  214.84   14.91
   2   2   6  221.27   10.50
   2   2   6  212.62   10.57
   2   2   7  289.62   18.08
   2   2   7  268.88   12.46
   2   2   7  271.83   12.00
   2   2   7  270.24   12.40
   2   2   8    0.68    1.87
   2   2   8    2.17    1.42
   2   2   9   63.36    8.36
   2   2   9   56.93    5.53
   2   2   9   65.76    9.57
   2   2   9   65.87    5.53
   2   2   9   71.42    8.04
   2   2  10   12.74    2.56
   2   2  10   11.08    3.15
   2   2  10    8.51    3.59
   2   2  10   17.93    4.32
   2   2  11   15.88    3.22
   2   2  11   15.79    2.19
   2   2  11   15.80    2.96
   2   2  11   19.91    3.87
   2   3 -12   14.33    1.65
  -2  -3  10    1.20    1.43
   2   3 -10    2.01    0.97
  -2  -3   9   51.50    5.68
  -2  -3   9   63.68    5.17
  -2  -3   9   72.09    6.13
  -2  -3   8  166.77    8.49
  -2  -3   8  162.32    9.27
  -2  -3   8  158.02   10.11
  -2  -3   7  591.39   17.50
   2   3  -7  555.06   15.76
  -2  -3   6   15.76    1.89
  -2  -3   6   14.26    2.23
   2   3  -6   15.37    2.11
  -2  -3   5 2469.38   50.90
   2   3  -5 2495.88   51.29
  -2  -3   5 2524.22   51.60
   2   3  -5 2542.82   50.41
   2   3  -4  318.42   10.01
   2   3  -3    4.51    1.04
   2   3  -2 3088.99   60.82
   2   3  -1 1044.35   24.87
   2   3  -1 1042.96   23.51
   2   3   0  911.67   22.88
   2   3   1 1728.64   38.89
   2   3   1 1750.25   36.33
   2   3   2 1731.40   36.13
   2   3   3  180.62    8.81
   2   3   3  192.59    7.14
  -2  -3  -3  192.56    7.32
  -2  -3  -4  193.49    7.19
   2   3   4  176.94    6.67
   2   3   4  167.65    8.84
   2   3   4  183.74    9.34
   2   3   4  187.52   12.55
   2   3   5  836.61   24.43
   2   3   5  856.06   31.78
   2   3   6   53.08    7.72
   2   3   6   51.23    6.93
   2   3   6   63.67    8.78
   2   3   6   60.44    5.80
   2   3   6   58.14    5.29
   2   3   7   38.70    6.69
   2   3   7   30.36    3.84
   2   3   7   31.76    5.65
   2   3   7   28.96    6.13
   2   3   7   36.20    4.66
   2   3   8   54.37    7.64
   2   3   8   41.73    6.55
   2   3   8   44.88    7.48
   2   3   8   52.65    5.32
   2   3   8   43.11    4.74
   2   3   9  112.26    7.23
   2   3   9  115.28   11.02
   2   3   9  130.59    7.74
   2   3   9  124.06   10.80
   2   3  10   10.29    2.83
   2   3  10    5.72    2.48
   2   3  10   14.61    3.41
   2   3  11   -0.74    0.85
   2   3  11    0.43    0.83
   2   4 -12   12.66    1.47
   2   4 -11    8.54    1.71
   2   4 -10   40.33    3.51
  -2  -4  10   40.44    4.25
  -2  -4   9   82.02    6.34
  -2  -4   8    2.30    1.28
   2   4  -8    1.27    0.92
  -2  -4   7   59.12    5.14
   2   4  -7   56.78    4.40
   2   4  -6  210.54    8.89
  -2  -4   6  211.58    8.28
  -2  -4   5  110.29    5.82
   2   4  -5  108.75    5.97
   2   4  -5  111.75    5.72
   2   4  -4  118.14    6.03
   2   4  -4  112.26    5.88
   2   4  -4  117.46    5.85
   2   4  -3 1377.39   31.45
   2   4  -2  795.36   20.47
   2   4  -1  332.27   11.12
   2   4   0  226.01    9.80
   2   4   1  937.40   25.29
   2   4   1  950.87   23.23
   2   4   2  174.04    7.43
   2   4   2  168.62    7.18
   2   4   3  984.44   32.60
   2   4   3  890.04   25.74
   2   4   3  845.77   28.77
   2   4   3  917.92   22.60
   2   4   3  928.56   26.01
   2   4   3  917.00   22.23
   2   4   3  960.43   23.59
   2   4   4  470.94   22.14
   2   4   4  470.68   16.91
   2   4   4  472.67   13.53
   2   4   4  436.64   20.00
   2   4   4  442.98   16.93
  -2  -4  -4  462.88   13.69
   2   4   5   79.18    6.34
   2   4   5   69.80    7.98
   2   4   5   82.61    6.82
   2   4   5   86.14    9.47
   2   4   6  185.57   14.41
   2   4   6  171.74   13.09
   2   4   6  184.92    9.87
   2   4   7   82.99    8.89
   2   4   7   73.06    6.52
   2   4   7   80.85    9.31
   2   4   8   53.45    7.37
   2   4   8   46.71    4.45
   2   4   8   66.38    7.62
   2   4   8   55.43    5.33
   2   4   9    0.41    1.61
   2   4   9    0.45    1.58
   2   4   9   -0.71    1.04
   2   4  10   15.67    3.00
   2   5 -11   22.73    2.27
   2   5 -11   15.50    1.61
   2   5 -10   52.33    4.12
   2   5 -10   46.73    3.66
  -2  -5   9    6.48    1.82
   2   5  -9    5.46    1.33
   2   5  -9    6.51    1.77
  -2  -5   8   58.26    5.08
   2   5  -8   71.17    4.87
   2   5  -7   12.14    2.20
   2   5  -7   13.80    2.39
  -2  -5   7   11.29    2.34
   2   5  -6 1542.40   36.60
   2   5  -5    6.61    1.84
   2   5  -5    6.57    1.56
   2   5  -5    7.54    1.81
  -2  -5   5    8.21    1.88
   2   5  -4 1794.45   40.82
   2   5  -4 1857.77   41.27
   2   5  -4 1827.97   40.46
   2   5  -3  555.10   16.74
   2   5  -3  532.58   15.90
   2   5  -3  521.46   16.04
   2   5  -2    8.74    1.84
   2   5  -2    4.68    1.44
   2   5  -2    5.83    1.48
   2   5  -1  664.59   19.08
   2   5  -1  666.76   17.70
   2   5  -1  645.43   18.47
   2   5   0 1231.91   28.14
   2   5   0 1207.78   30.04
   2   5   0 1281.97   29.84
   2   5   1   31.07    2.69
   2   5   1   31.03    3.85
   2   5   1   34.38    3.47
   2   5   1   27.37    3.46
   2   5   1   36.30    3.43
   2   5   2 1075.65   26.44
   2   5   2 1024.16   28.39
   2   5   2 1065.49   25.92
   2   5   2  974.67   31.20
  -2  -5  -3  327.12   11.71
   2   5   3  313.18   13.81
   2   5   3  289.92   15.81
   2   5   3  326.12   11.65
   2   5   3  319.29   11.25
   2   5   3  343.69   14.24
   2   5   3  344.82   12.46
   2   5   4  173.21    9.91
   2   5   4  180.15    7.52
   2   5   4  178.15   10.30
   2   5   4  222.97   15.14
   2   5   4  148.24   11.53
   2   5   4  201.03    8.89
   2   5   5   78.45    9.15
   2   5   5   61.27    5.71
   2   5   5   56.92    7.27
   2   5   5   59.32    5.88
   2   5   6  158.41   12.12
   2   5   6  150.49    9.56
   2   5   6  168.57   13.27
   2   5   7   30.24    5.35
   2   5   7   25.10    3.67
   2   5   7   26.72    5.21
   2   5   8    1.26    1.55
   2   5   9   14.23    2.93
   2   5   9   20.07    2.52
   2   5  10    1.57    0.82
   2   6 -10   13.23    1.86
   2   6  -9   59.85    4.50
   2   6  -9   52.91    3.64
   2   6  -9   56.96    4.29
   2   6  -8  135.26    6.86
   2   6  -7    0.22    1.08
   2   6  -6  162.93    8.25
   2   6  -6  156.08    8.46
  -2  -6   5 1276.31   31.30
   2   6  -5 1244.38   30.27
   2   6  -5 1255.07   31.95
   2   6  -4  190.21    8.90
   2   6  -4  201.38    9.57
   2   6  -3  489.25   15.85
   2   6  -3  501.75   16.75
   2   6  -3  503.07   16.21
   2   6  -2   81.62    5.40
   2   6  -2   74.21    5.45
   2   6  -2   80.42    5.94
   2   6  -1    5.56    1.64
   2   6  -1    5.12    1.44
   2   6  -1    4.09    1.44
   2   6   0   18.65    2.37
   2   6   0   18.57    2.68
   2   6   0   16.68    2.75
   2   6   1   55.07    4.81
   2   6   1   56.65    4.60
   2   6   1   48.97    4.74
   2   6   2  317.31   12.21
   2   6   2  297.64   11.45
   2   6   2  286.74   12.88
   2   6   2  318.23   12.64
   2   6   3   53.43    4.19
   2   6   3   51.74    6.49
   2   6   3   50.04    5.30
   2   6   3   63.47    5.11
  -2  -6  -3   54.39    4.55
   2   6   4  164.85   11.81
   2   6   4  169.98    7.33
   2   6   4  172.00   10.05
   2   6   4  189.98    8.62
   2   6   5   55.17    6.98
   2   6   5   49.34    5.23
   2   6   6   40.93    5.81
   2   6   6   40.50    4.55
   2   6   7    6.58    2.43
   2   6   7    8.28    2.07
   2   6   8   37.25    4.29
   2   6   8   42.23    3.62
   2   6   9   19.67    2.29
   2   6   9   22.02    1.94
   2   7 -10   19.23    1.76
   2   7 -10   20.96    1.77
   2   7  -9    0.77    0.77
   2   7  -9    0.43    0.56
   2   7  -9    0.60    0.85
   2   7  -8    6.98    1.56
   2   7  -8    4.47    1.50
   2   7  -8    5.56    1.47
   2   7  -7  146.73    6.93
   2   7  -7  156.12    7.59
   2   7  -6    3.99    1.52
   2   7  -6    3.79    1.20
   2   7  -6    3.75    1.28
   2   7  -5    7.18    1.80
   2   7  -5    4.91    1.51
   2   7  -4   37.76    3.78
   2   7  -4   29.41    3.45
   2   7  -3  138.26    7.75
   2   7  -3  150.01    8.22
   2   7  -3  149.42    7.85
   2   7  -3  142.13    7.55
   2   7  -2    6.32    1.62
   2   7  -2   11.22    2.30
   2   7  -2    7.07    1.97
   2   7  -2    9.80    2.05
   2   7  -1   18.06    2.48
   2   7  -1   20.94    2.99
   2   7   0  172.53    8.75
   2   7   0  165.32    7.99
   2   7   0  180.49    7.56
   2   7   1    1.16    1.14
   2   7   2   50.61    4.27
   2   7   2   50.01    4.59
   2   7   3   47.66    3.82
   2   7   3   37.62    4.27
   2   7   3   41.81    3.97
   2   7   4   57.77    6.22
   2   7   4   46.83    4.78
   2   7   5    9.87    2.71
   2   7   5   13.02    2.13
   2   7   5   13.30    2.58
   2   7   6   26.15    3.79
   2   7   6   24.70    3.05
   2   7   7   13.70    2.28
   2   7   7   14.14    2.04
   2   8  -9    2.22    0.70
   2   8  -8   45.84    3.01
   2   8  -7   41.48    3.28
   2   8  -7   40.15    3.40
   2   8  -6    0.72    0.89
   2   8  -6    1.31    0.97
   2   8  -5   87.78    5.14
   2   8  -4   69.61    4.95
   2   8  -4   70.33    4.98
   2   8  -3    8.47    1.94
   2   8  -3    8.16    1.79
   2   8  -3    7.46    1.74
   2   8  -2  134.46    7.53
   2   8  -2  134.55    6.77
   2   8  -2  140.51    7.61
   2   8  -1   28.65    3.55
   2   8  -1   32.41    3.56
   2   8   0    9.12    1.94
   2   8   0    8.25    2.11
   2   8   0    8.73    2.17
   2   8   1   56.62    4.94
   2   8   1   56.73    4.45
   2   8   1   48.42    4.44
   2   8   2   12.71    2.04
   2   8   2   14.75    2.35
   2   8   2   14.82    2.57
   2   8   3   33.28    3.53
   2   8   3   26.37    2.93
   2   8   4   28.73    2.94
   2   8   4   24.16    2.71
   2   8   5   25.02    2.46
   2   9  -7    7.51    1.07
   2   9  -5   10.28    1.60
   2   9  -4   31.24    2.75
   2   9  -3   14.39    2.07
   2   9  -2  111.36    5.75
   2   9  -2  111.79    5.91
   2   9  -1    7.51    1.68
   2   9  -1    7.37    1.79
   2   9   0   63.87    4.61
   2   9   0   69.42    4.42
   2   9   0   76.54    4.89
   2   9   1   87.83    5.33
   2   9   2   18.83    2.28
  -2  -9  -2   20.42    1.95
   2   9   3   42.47    3.08
   2   9   4  129.73    4.68
   2  10  -3    1.97    0.64
   2  10  -3    1.23    0.67
   2  10  -2    5.90    1.04
   2  10  -2    5.88    1.15
   2  10  -1    2.96    0.78
  -2 -10   1    4.29    0.91
   2  10   0   11.37    1.30
   2  10   0   11.07    1.24
  -3  12   0   21.80    1.93
   3 -12   3   20.07    1.90
  -3  11   4   87.23    4.31
  -3  11   3   48.66    3.47
  -3  11   3   51.40    3.60
  -3  11   2   15.13    1.86
  -3  11   2   14.61    2.18
  -3  11   2   13.57    2.02
  -3  11   1   36.81    3.10
  -3  11   1   39.49    3.39
  -3  11   0   14.77    2.13
  -3  11  -1    7.82    1.65
  -3  11  -1    6.60    1.50
  -3  11  -2   20.28    2.43
  -3  11  -2   17.25    2.10
  -3  11  -3   42.54    3.31
   3 -11   6   38.02    2.89
  -3  10   5  131.70    6.28
  -3  10   5  128.68    6.38
  -3  10   4   11.68    2.17
  -3  10   4    8.65    1.85
  -3  10   3    8.34    1.61
  -3  10   3   10.81    2.25
  -3  10   3    8.45    1.99
  -3  10   2  354.31   13.24
  -3  10   2  353.07   12.06
  -3  10   2  354.71   13.25
  -3  10   1  296.85   12.19
  -3  10   1  293.25   13.16
  -3  10   1  292.54   11.10
  -3  10   1  277.16   11.55
  -3  10   0   43.07    4.34
  -3  10   0   46.57    5.06
  -3  10   0   41.19    4.07
  -3  10  -1  109.19    7.75
  -3  10  -1  115.98    6.68
  -3  10  -1  104.42    6.39
  -3  10  -2  233.74   11.37
  -3  10  -2  235.62    9.89
  -3  10  -2  222.76    8.92
  -3  10  -2  208.36    9.12
  -3  10  -3    1.30    1.02
  -3  10  -3    1.68    1.34
  -3  10  -3    0.61    0.86
  -3  10  -3    1.58    0.96
  -3  10  -4   91.52    5.52
  -3  10  -4   81.43    5.80
  -3  10  -4   96.74    5.51
  -3  10  -5   43.66    3.29
  -3  10  -5   46.69    3.56
  -3  10  -6   40.34    3.16
   3 -10   6   41.97    3.95
   3 -10   7   36.32    3.29
  -3  10  -7   34.39    2.64
  -3  10  -7   32.36    2.62
  -3  10  -8    1.44    0.58
  -3  10  -8    1.81    0.63
  -3   9   8    0.10    0.44
  -3   9   7  102.97    5.46
  -3   9   7  101.21    5.20
  -3   9   6  108.95    6.30
  -3   9   5   36.27    3.89
  -3   9   5   25.87    3.46
  -3   9   4  307.94   11.78
  -3   9   4  298.38   12.49
  -3   9   4  290.93   12.77
  -3   9   3  199.55    9.66
  -3   9   3  208.33    8.89
  -3   9   3  199.47   10.08
  -3   9   2    6.39    2.07
  -3   9   2    9.24    2.49
  -3   9   2    8.71    1.99
  -3   9   2    7.84    2.04
  -3   9   1    5.71    1.76
  -3   9   1    8.18    2.07
  -3   9   1    6.00    1.96
  -3   9   0  195.36    8.04
   3  -9   0  198.23   10.02
  -3   9   0  195.57   10.02
  -3   9   0  187.63   10.92
  -3   9   0  194.48    9.61
  -3   9  -1  270.57   11.82
  -3   9  -1  262.15   12.96
  -3   9  -1  249.08    9.81
  -3   9  -1  254.38   10.80
  -3   9  -1  270.89   10.33
  -3   9  -1  233.39    9.15
  -3   9  -1  253.48   10.91
  -3   9  -2    2.45    1.21
  -3   9  -2    0.46    0.90
   3  -9   2    0.28    1.10
  -3   9  -2   -0.22    0.77
  -3   9  -2    0.67    1.24
  -3   9  -2    2.27    1.18
  -3   9  -2    0.23    0.89
  -3   9  -3  299.69   11.36
  -3   9  -3  288.85   11.37
  -3   9  -3  297.78   11.74
  -3   9  -3  289.99   10.97
  -3   9  -3  289.34   10.97
  -3   9  -3  303.57   13.51
  -3   9  -4   65.02    4.81
  -3   9  -4   69.77    5.08
  -3   9  -4   63.51    5.60
  -3   9  -4   62.27    4.78
  -3   9  -5    0.21    1.15
  -3   9  -5    1.42    0.97
  -3   9  -5    0.42    1.00
  -3   9  -6    7.04    1.77
  -3   9  -6    6.41    1.68
  -3   9  -7  221.48    8.95
   3  -9   7  230.51   10.25
   3  -9   8    4.87    1.40
  -3   9  -8    5.14    1.32
  -3   9  -9   13.39    1.63
  -3   8   8   78.31    4.85
  -3   8   8   81.39    5.04
  -3   8   7  116.05    6.88
  -3   8   6   37.02    4.28
  -3   8   5  172.06    8.17
  -3   8   5  161.41    9.45
  -3   8   5  168.04    9.30
  -3   8   5  166.53    9.59
  -3   8   4  106.72    6.71
  -3   8   4  125.92    8.04
  -3   8   4  116.37    6.20
  -3   8   4  110.49    6.22
  -3   8   4  110.22    7.48
  -3   8   3    3.93    1.54
  -3   8   3    2.28    1.39
  -3   8   3    0.62    0.87
  -3   8   3    0.50    0.98
   3  -8  -3    0.71    0.87
  -3   8   3    1.08    0.92
  -3   8   3    3.75    1.77
  -3   8   2  185.32    9.31
  -3   8   2  188.64   10.50
  -3   8   2  175.16    8.32
  -3   8   2  169.34    8.53
  -3   8   2  184.91    9.52
   3  -8  -2  178.14    8.95
  -3   8   1  257.15   10.62
   3  -8  -1  283.72   11.76
  -3   8   1  279.08   11.74
   3  -8   0 1364.41   33.23
  -3   8   0 1307.65   33.04
  -3   8   0 1295.98   30.02
  -3   8   0 1197.99   29.34
  -3   8   0 1309.20   32.24
  -3   8   0 1327.13   30.10
  -3   8   0 1296.98   34.85
  -3   8  -1  386.30   12.69
  -3   8  -1  393.82   14.21
  -3   8  -1  387.31   15.87
  -3   8  -1  367.05   13.17
  -3   8  -1  373.82   12.79
  -3   8  -1  368.20   12.45
  -3   8  -1  373.18   13.46
   3  -8   2   92.97    6.44
  -3   8  -2   92.07    5.61
  -3   8  -2   74.26   10.48
  -3   8  -2   81.99    6.74
  -3   8  -2   79.67    5.47
  -3   8  -2   81.87    5.53
  -3   8  -2   92.94    5.81
  -3   8  -2   89.42    5.53
  -3   8  -2   77.81    5.89
   3  -8   3  446.23   15.43
  -3   8  -3  416.37   13.94
  -3   8  -3  393.17   16.03
  -3   8  -3  458.59   14.50
  -3   8  -3  397.09   14.13
  -3   8  -3  416.28   14.06
  -3   8  -3  355.16   23.57
   3  -8   4   87.95    6.09
  -3   8  -4   79.90    6.37
  -3   8  -4   82.09    5.37
  -3   8  -4   73.60    5.56
  -3   8  -4   73.12   10.84
  -3   8  -4   81.99    5.72
  -3   8  -5  283.53   11.15
  -3   8  -5  264.73   11.90
  -3   8  -5  268.07   10.11
  -3   8  -5  285.97   11.34
  -3   8  -5  268.97   11.42
   3  -8   5  273.39   12.00
  -3   8  -6  248.18   10.17
  -3   8  -7   54.66    4.24
  -3   8  -7   48.44    4.31
   3  -8   7   56.39    5.24
   3  -8   8  113.23    6.93
  -3   8  -8  111.16    6.12
  -3   8  -9    1.17    0.90
  -3   8  -9    0.61    0.91
  -3   8 -10   -0.10    0.48
  -3   8 -10    0.18    0.52
  -3   7   9   36.65    3.33
  -3   7   8  161.37    8.46
  -3   7   8  160.52    8.36
  -3   7   7    1.16    3.78
  -3   7   7    1.32    1.47
  -3   7   7    0.29    1.20
  -3   7   7    1.47    1.91
  -3   7   6  739.60   23.48
  -3   7   6  617.22   37.13
  -3   7   6  692.93   19.17
  -3   7   6  703.38   27.31
  -3   7   6  661.91   21.62
  -3   7   6  638.15   21.88
  -3   7   5  205.43    9.07
  -3   7   5  201.28   11.03
  -3   7   5  199.26   20.55
  -3   7   5  201.58   10.87
  -3   7   5  195.13    8.93
  -3   7   5  190.79   13.45
  -3   7   5  205.28   10.51
   3  -7  -4   23.23    2.84
  -3   7   4   23.09    3.05
  -3   7   4   20.98    3.53
  -3   7   4   24.59    3.55
  -3   7   4   24.48    2.79
  -3   7   4   24.88    3.15
  -3   7   4   25.64    3.49
  -3   7   3  122.96    7.11
  -3   7   3  135.20    8.17
  -3   7   3  135.79    8.31
  -3   7   3  137.70    6.84
  -3   7   3  133.03    7.31
  -3   7   3  134.78    7.87
  -3   7   2 1934.32   43.72
  -3   7   2 1990.13   46.15
  -3   7   2 1962.73   42.48
  -3   7   2 1864.99   43.42
  -3   7   2 1963.17   44.41
  -3   7   1  188.79    9.85
  -3   7   1  190.92    8.25
  -3   7   1  195.42    7.45
  -3   7   1  185.00    7.19
  -3   7   1  176.35    7.30
  -3   7   1  172.44    8.47
  -3   7   0  995.72   23.90
  -3   7   0  996.59   25.92
  -3   7   0 1012.48   24.00
  -3   7   0  985.78   23.97
  -3   7   0 1014.81   25.61
  -3   7  -1 1246.10   28.71
  -3   7  -1 1240.10   30.42
  -3   7  -1 1230.56   29.33
  -3   7  -1 1291.78   29.12
  -3   7  -1 1188.70   29.22
  -3   7  -1 1253.94   28.94
  -3   7  -2   67.99    9.42
  -3   7  -2   59.53    4.80
  -3   7  -2   72.66    4.71
  -3   7  -2   70.88    4.77
  -3   7  -2   67.21    4.50
  -3   7  -2   71.05    4.79
  -3   7  -2   74.25    4.84
  -3   7  -3  114.15    6.16
  -3   7  -3  117.49    6.52
  -3   7  -3  118.08    6.44
  -3   7  -3  122.77    6.46
  -3   7  -4  190.89    8.07
  -3   7  -4  184.93    8.36
   3  -7   4  179.79    8.57
  -3   7  -4  165.73    8.10
  -3   7  -4  176.93    8.47
  -3   7  -4  160.72   15.56
   3  -7   5   30.61    3.34
  -3   7  -5   33.52    3.45
  -3   7  -5   30.70    3.08
  -3   7  -5   29.51    3.49
  -3   7  -5   27.09    3.33
  -3   7  -5   20.87    5.86
  -3   7  -6   22.66    2.88
  -3   7  -6   33.35    7.45
  -3   7  -6   24.62    3.23
  -3   7  -6   24.96    3.21
   3  -7   6   21.12    3.25
  -3   7  -7   42.21    4.06
  -3   7  -7   39.15    3.65
   3  -7   7   41.36    4.68
  -3   7  -8   24.70    3.04
   3  -7   8   21.12    3.36
  -3   7  -9    0.86    0.85
   3  -7   9    2.98    1.38
  -3   7  -9    0.36    0.95
  -3   7 -10    9.27    1.57
  -3   7 -10   12.52    1.68
  -3   6  10   24.75    5.69
  -3   6   9    1.92    3.13
  -3   6   9    1.85    1.21
  -3   6   8   32.85    4.39
  -3   6   8   40.54    5.04
  -3   6   8   30.91    4.81
  -3   6   8   35.95    9.04
  -3   6   8   34.04    4.15
  -3   6   8   36.62    4.20
  -3   6   7  387.21   14.39
  -3   6   7  351.01   15.55
  -3   6   7  387.84   16.54
  -3   6   7  346.92   17.61
  -3   6   7  302.84   25.55
  -3   6   7  338.96   12.61
  -3   6   7  351.10   14.89
  -3   6   6  110.68    8.26
  -3   6   6  111.29    9.77
  -3   6   6  132.50    9.03
  -3   6   6  119.17    8.17
  -3   6   6  110.40    6.71
  -3   6   6  126.25    8.13
  -3   6   6  121.69    7.45
  -3   6   5  145.59   11.02
  -3   6   5  137.42    6.94
  -3   6   5  133.03    8.75
  -3   6   5  144.00    7.91
  -3   6   5  141.99    8.72
  -3   6   5  157.61    9.32
  -3   6   5  137.86    7.57
  -3   6   5  142.64    8.42
  -3   6   5  146.29    7.87
  -3   6   4  580.11   16.93
  -3   6   4  616.84   18.64
  -3   6   4  558.50   19.21
  -3   6   4  585.26   16.09
  -3   6   4  584.33   23.33
  -3   6   4  552.63   18.92
  -3   6   4  577.07   33.44
  -3   6   4  581.53   17.67
  -3   6   4  579.16   18.46
  -3   6   3  517.95   15.73
  -3   6   3  532.09   14.99
  -3   6   3  508.91   21.07
  -3   6   3  568.65   31.65
  -3   6   3  518.55   17.21
  -3   6   3  540.14   17.19
  -3   6   3  504.87   16.14
  -3   6   3  547.92   16.96
  -3   6   2  345.23   11.92
  -3   6   2  349.04   11.74
  -3   6   2  341.43   11.19
  -3   6   2  371.25   13.30
  -3   6   2  355.29   12.38
  -3   6   2  346.07   13.46
  -3   6   1 1261.60   29.09
  -3   6   1 1215.36   28.56
  -3   6   1 1181.93   27.62
  -3   6   1 1204.09   26.48
  -3   6   1 1174.20   29.81
  -3   6   0  436.80   13.52
  -3   6   0  419.71   13.59
  -3   6   0  423.74   12.14
  -3   6   0  395.98   21.50
  -3   6  -1   60.74    3.88
  -3   6  -1   66.78    4.56
  -3   6  -1   56.63    8.05
  -3   6  -1   60.54    4.49
  -3   6  -1   58.47    3.97
  -3   6  -1   65.11    4.04
  -3   6  -1   56.97    4.22
  -3   6  -2 1386.56   32.03
  -3   6  -2 1359.27   30.90
  -3   6  -2 1350.53   30.90
  -3   6  -2 1414.37   31.33
  -3   6  -2 1412.70   31.31
  -3   6  -2 1438.81   32.57
  -3   6  -2 1407.10   32.11
  -3   6  -3  574.64   15.86
  -3   6  -3  566.25   16.16
  -3   6  -3  579.97   15.74
  -3   6  -3  573.03   16.14
  -3   6  -4   -0.81    2.22
  -3   6  -4    3.90    1.14
  -3   6  -4    0.19    0.71
  -3   6  -4    0.57    0.85
  -3   6  -4    0.69    0.85
  -3   6  -5  596.81   17.01
  -3   6  -5  577.25   17.62
  -3   6  -5  577.97   17.40
   3  -6   5  605.31   18.77
  -3   6  -5  606.66   17.51
  -3   6  -6  280.72   10.50
   3  -6   6  296.99   12.91
  -3   6  -6  273.88   11.03
   3  -6   6  271.96   12.04
  -3   6  -6  273.29   10.91
  -3   6  -7   12.61    2.13
  -3   6  -7   12.03    2.22
   3  -6   7    9.99    2.35
  -3   6  -7    7.50    1.87
   3  -6   7    9.64    2.43
   3  -6   8   26.17    3.25
   3  -6   8   30.84    4.06
  -3   6  -8   30.87    3.35
   3  -6   9   69.74    4.96
  -3   6  -9   72.26    4.95
   3  -6   9   70.25    5.60
  -3   6  -9   68.35    4.68
   3  -6  10    1.24    0.91
  -3   6 -10   -0.40    0.69
  -3   6 -10    0.60    0.76
  -3   6 -11    0.85    0.50
  -3   5  11   47.56    7.11
  -3   5  10    4.94    2.08
  -3   5  10    7.95    4.48
  -3   5   9  155.45    9.21
  -3   5   9  159.73   10.21
  -3   5   9  156.57   17.50
  -3   5   9  143.72    7.23
  -3   5   9  154.93    8.86
  -3   5   9  154.19    8.68
  -3   5   9  139.76    8.65
  -3   5   8   81.01    7.54
  -3   5   8   83.47    7.76
  -3   5   8   89.06    6.83
  -3   5   8   85.25    5.89
  -3   5   8   76.18    6.36
  -3   5   7   53.82    5.82
  -3   5   7   62.26    6.89
  -3   5   7   63.25    6.69
  -3   5   7   53.19    6.48
  -3   5   7   59.68    5.00
  -3   5   7   56.27    5.47
  -3   5   6  269.00   13.04
  -3   5   6  298.22   14.97
  -3   5   6  300.49   14.33
  -3   5   6  276.08   14.81
  -3   5   6  266.73   12.52
  -3   5   6  289.57   11.68
  -3   5   6  297.00   12.59
  -3   5   6  287.24   12.60
  -3   5   5 1004.48   28.23
  -3   5   5 1094.10   30.22
  -3   5   5 1049.37   32.09
  -3   5   5 1056.23   28.45
  -3   5   5 1003.67   26.47
  -3   5   5 1079.03   46.87
  -3   5   5 1024.28   27.65
  -3   5   5 1020.83   27.24
  -3   5   4  165.33    6.81
  -3   5   4  160.44    7.72
  -3   5   4  177.51   10.81
  -3   5   4  181.71   16.99
  -3   5   4  176.85    8.79
  -3   5   4  170.03    8.07
  -3   5   4  172.45    9.51
  -3   5   4  181.99    8.62
  -3   5   3  184.78    7.38
  -3   5   3  162.24    6.86
  -3   5   3  179.09    9.04
  -3   5   3  176.70    7.96
  -3   5   2 1168.05   26.99
  -3   5   1  932.69   22.62
  -3   5   1  941.28   20.97
  -3   5   0   36.27    5.73
  -3   5   0   39.99    3.29
  -3   5   0   40.18    2.78
  -3   5  -1 4068.85   79.12
  -3   5  -1 4228.85   80.53
  -3   5  -2  162.36   12.79
  -3   5  -2  173.26    7.27
  -3   5  -3  115.94    5.74
  -3   5  -3  128.37    6.10
  -3   5  -3  130.30    5.95
  -3   5  -4  353.59   11.24
  -3   5  -4  364.32   11.37
  -3   5  -4  361.71   11.50
  -3   5  -4  358.24   11.87
  -3   5  -4  364.94   11.67
  -3   5  -4  370.90   11.88
  -3   5  -5  173.34    7.39
  -3   5  -5  163.66    7.50
  -3   5  -5  186.49    8.27
  -3   5  -5  175.29    7.85
   3  -5   5  188.19    8.87
   3  -5   6   25.01    3.49
  -3   5  -6   29.23    2.92
  -3   5  -6   20.16    2.66
   3  -5   6   24.38    3.25
  -3   5  -6   28.26    3.02
   3  -5   7   32.87    4.00
   3  -5   7   31.20    4.06
  -3   5  -7   23.68    2.92
  -3   5  -8  137.63    7.07
   3  -5   8  138.76    8.64
  -3   5  -9   28.48    2.98
   3  -5   9   31.28    3.75
  -3   5  -9   31.15    3.23
   3  -5   9   22.13    3.36
   3  -5  10   44.49    4.08
  -3   5 -10   46.44    3.56
  -3   5 -10   42.73    3.11
   3  -5  11    1.61    0.90
  -3   4  12    0.41    1.23
  -3   4  11  102.20    6.96
  -3   4  11  104.15   11.68
  -3   4  10  176.80    9.36
  -3   4  10  182.07   10.79
  -3   4   9  134.48    8.70
  -3   4   9  125.14    7.32
  -3   4   9  115.92    9.20
  -3   4   9  123.64    8.38
  -3   4   8   88.77    7.28
  -3   4   8   85.20    8.10
  -3   4   8   82.35    7.85
  -3   4   8   65.15    6.63
  -3   4   8   77.47    6.66
  -3   4   8   82.56    6.07
  -3   4   8   79.93    6.53
  -3   4   7  949.58   27.95
  -3   4   7  930.58   30.52
  -3   4   7  954.95   27.82
  -3   4   7  944.21   29.59
  -3   4   7  993.02   47.33
  -3   4   7  977.11   38.81
  -3   4   7  959.07   26.19
  -3   4   7 1017.12   31.09
  -3   4   6  374.08   14.64
  -3   4   6  403.35   16.85
  -3   4   6  372.87   16.25
  -3   4   6  371.86   26.59
  -3   4   6  401.51   22.35
  -3   4   6  403.71   15.11
  -3   4   6  393.14   13.88
  -3   4   6  385.02   14.44
  -3   4   6  363.15   14.61
  -3   4   5   36.61    4.59
  -3   4   5   38.25    4.61
  -3   4   5   41.32    8.35
  -3   4   5   33.68    3.48
  -3   4   5   31.02    3.53
  -3   4   5   39.04    4.08
  -3   4   4  793.34   18.58
  -3   4   4  726.33   22.10
  -3   4   3 1144.29   25.57
  -3   4   2 3273.91   64.39
  -3   4   1 2228.30   44.63
   3  -4  -1 2159.06   41.01
  -3   4   0 1342.02   29.59
  -3   4   0 1360.76   28.39
   3  -4   0 1357.87   27.46
  -3   4  -1 2573.25   51.64
  -3   4  -1 2587.39   50.63
   3  -4   1 2518.97   50.25
  -3   4  -2   12.27    1.73
   3  -4   2   70.34    3.76
  -3   4  -3 2268.47   46.45
  -3   4  -3 2252.85   46.31
   3  -4   3 2307.99   47.26
  -3   4  -4 1037.36   23.77
  -3   4  -4 1028.27   24.34
   3  -4   4 1070.33   25.56
  -3   4  -5  114.57    5.50
  -3   4  -5  112.58    5.64
  -3   4  -5  118.14    5.90
   3  -4   5  120.14    6.66
  -3   4  -6   52.19    3.91
   3  -4   6   54.90    4.99
  -3   4  -6   55.14    3.81
   3  -4   6   52.48    4.64
   3  -4   6   63.12    5.02
   3  -4   7  766.80   22.53
  -3   4  -7  743.44   19.89
   3  -4   7  745.48   23.19
   3  -4   8   92.54    6.70
  -3   4  -8   81.68    5.10
   3  -4   8   80.36    6.25
   3  -4   8   80.77    6.55
   3  -4   9  127.13    7.84
  -3   4  -9  114.67    6.33
  -3   4  -9  121.80    5.95
   3  -4  10  215.92    9.68
   3  -4  10  192.66    9.33
  -3   4 -10  191.78    7.56
   3  -4  11   13.44    2.18
   3  -4  12    0.60    0.78
   3  -4  12    0.20    0.51
  -3   3  12   40.33    3.82
  -3   3  11   22.66    3.71
  -3   3  10  108.04    7.23
  -3   3   9    2.28    1.55
  -3   3   9    4.69    1.57
  -3   3   9    0.77    2.50
  -3   3   9    2.91    1.52
  -3   3   8  978.22   26.46
  -3   3   8  993.77   28.84
  -3   3   8  970.07   31.61
  -3   3   8  987.09   28.80
  -3   3   8 1028.62   39.25
  -3   3   8  945.63   26.86
  -3   3   8  976.29   28.15
  -3   3   8  946.73   31.40
  -3   3   7  256.55   12.19
  -3   3   7  258.02   13.86
  -3   3   7  248.40   17.26
  -3   3   7  243.68   10.40
  -3   3   7  262.49   11.29
  -3   3   7  265.05   12.33
  -3   3   6   14.89    2.85
  -3   3   6   15.25    2.27
  -3   3   6   17.10    4.52
  -3   3   6   17.10    2.82
  -3   3   6   25.87    4.08
  -3   3   6   14.89    2.45
  -3   3   6   13.79    2.51
  -3   3   5 1342.39   27.61
  -3   3   5 1332.76   33.24
  -3   3   5 1302.81   31.06
  -3   3   5 1309.54   32.14
  -3   3   5 1382.87   31.91
   3  -3  -5 1263.96   27.07
  -3   3   4 3582.44   69.07
  -3   3   3   53.54    3.24
  -3   3   2 4913.78   93.37
  -3   3   1 5904.17  119.19
   3  -3  -1 5779.40  106.46
  -3   3   0 1800.94   43.97
  -3   3   0 1746.92   35.35
  -3   3  -1  245.26    7.89
   3  -3   1  233.56    7.26
  -3   3  -1  254.43   12.92
  -3   3  -2 2358.75   46.92
  -3   3  -2 2327.18   46.53
   3  -3   2 2318.04   46.79
  -3   3  -3  110.03    4.88
  -3   3  -3  101.60    4.74
   3  -3   3  100.94    5.05
   3  -3   4  362.36   11.91
  -3   3  -4  396.26   10.78
   3  -3   5  265.53    7.39
   3  -3   5  265.06   10.17
   3  -3   5  249.27   10.55
  -3   3  -6  767.72   19.27
   3  -3   6  788.95   23.03
  -3   3  -7   61.71    4.11
   3  -3   7   66.29    5.82
   3  -3   7   62.46    5.20
  -3   3  -7   63.08    4.62
   3  -3   7   66.73    5.79
   3  -3   8  131.97    8.54
   3  -3   8  115.45    7.47
  -3   3  -8  126.31    6.74
   3  -3   8  135.96    8.51
   3  -3   9   22.04    3.73
  -3   3  -9   21.02    2.60
   3  -3  10   31.34    3.91
   3  -3  11   26.27    3.08
   3  -3  11   24.84    3.02
   3  -3  12    6.80    1.31
   3  -3  12    9.55    2.10
  -3   2  12   19.12    2.85
  -3   2  11  127.15    8.80
  -3   2  10   40.05    5.44
  -3   2  10   31.34    6.22
  -3   2  10   31.70    3.90
  -3   2  10   29.08    3.67
  -3   2  10   29.74    4.22
  -3   2   9  852.05   25.07
  -3   2   9  881.19   25.75
  -3   2   9  793.67   28.50
  -3   2   9  852.92   26.71
  -3   2   9  832.49   29.24
  -3   2   9  831.72   34.36
  -3   2   9  885.13   25.23
  -3   2   8  209.11   11.28
  -3   2   8  221.07   10.60
  -3   2   8  221.52    9.70
  -3   2   8  231.38   16.40
  -3   2   8  245.60   11.10
  -3   2   7  585.17   17.00
  -3   2   7  617.34   26.50
  -3   2   7  551.47   19.24
  -3   2   7  611.78   19.86
  -3   2   7  531.91   17.49
  -3   2   7  580.64   19.30
  -3   2   6  740.51   22.05
  -3   2   6  785.95   20.00
  -3   2   6  751.99   24.72
  -3   2   6  775.09   28.84
  -3   2   6  755.09   21.92
  -3   2   6  794.89   22.85
   3  -2  -5  662.77   15.54
  -3   2   5  698.02   20.26
  -3   2   4   49.80    2.88
   3  -2  -4   48.52    2.71
  -3   2   3 3052.58   57.75
   3  -2  -3 2889.39   56.88
  -3   2   2  299.40    8.79
  -3   2   1    1.89    1.37
  -3   2   0 1469.59   35.58
   3  -2   0 1355.58   28.07
   3  -2   1  190.02    6.28
  -3   2  -2  131.88    5.24
   3  -2   2  122.30    5.24
   3  -2   3    2.06    0.60
   3  -2   3    1.34    0.76
  -3   2  -4  880.58   19.96
   3  -2   4  903.34   19.21
   3  -2   4  878.76   22.07
   3  -2   5   63.46    2.72
   3  -2   5   24.88    3.25
   3  -2   6   34.58    3.63
  -3   2  -6   41.53    3.44
   3  -2   6   36.27    4.13
   3  -2   7  188.17    9.36
  -3   2  -7  184.13    7.95
   3  -2   8    7.09    2.32
   3  -2   8   10.32    2.31
  -3   2  -8   10.42    1.84
   3  -2   9   23.91    3.89
   3  -2   9   24.38    3.60
   3  -2  10    6.16    2.14
   3  -2  11   11.78    3.09
   3  -2  11   12.59    2.29
   3  -2  12   -0.22    0.93
   3  -2  12    2.31    1.68
  -3   1  12    4.40    1.68
  -3   1  12    3.32    2.83
  -3   1  11  145.52    9.46
  -3   1  10  118.41    7.82
  -3   1  10  109.69   10.79
  -3   1  10  118.84    9.45
  -3   1  10  124.38    8.36
  -3   1   9    6.11    2.03
  -3   1   9    7.24    2.03
  -3   1   9    6.09    1.99
  -3   1   9    3.89    2.87
  -3   1   9    4.84    2.00
  -3   1   9    5.14    2.63
  -3   1   8  260.21   12.54
  -3   1   8  274.02   11.08
  -3   1   8  273.09   16.91
  -3   1   8  270.53   11.87
  -3   1   8  236.02   11.34
  -3   1   8  244.42   14.16
  -3   1   7 1933.48   44.65
  -3   1   7 1898.07   42.55
  -3   1   7 1845.23   48.90
  -3   1   7 2032.29   53.71
  -3   1   7 1897.26   44.11
  -3   1   7 1911.56   45.49
  -3   1   6   78.85    4.91
  -3   1   6   77.27    5.67
  -3   1   6   83.80    5.53
  -3   1   6   84.76    5.87
  -3   1   5   95.67    4.02
  -3   1   5   87.18    4.80
   3  -1  -5   81.94    3.57
   3  -1  -4 2236.80   43.88
   3  -1  -3 1733.38   34.81
   3  -1  -2  592.88   12.98
   3  -1  -2  640.31   14.29
   3  -1  -1 3529.98   67.18
  -3   1   0 2886.81   60.24
   3  -1   1  344.25    9.12
   3  -1   1  353.37    9.95
   3  -1   2 2130.71   42.22
   3  -1   2 2191.67   44.04
   3  -1   3  294.45    9.74
   3  -1   3  290.81    8.04
  -3   1  -4  178.20    6.12
   3  -1   4  165.32    5.43
   3  -1   5  648.13   19.56
   3  -1   6  102.98    6.43
  -3   1  -6  100.04    5.29
   3  -1   7  231.78   11.69
   3  -1   7  230.89   10.61
   3  -1   8  144.59    9.03
   3  -1   9   37.72    4.37
   3  -1   9   33.47    4.50
   3  -1  10    4.74    2.09
   3  -1  10    4.24    2.69
   3  -1  11   -0.38    1.40
   3  -1  11    0.18    0.87
   3  -1  11    0.30    1.18
   3  -1  11    0.21    1.09
   3  -1  12   19.18    2.55
   3  -1  12   20.93    1.83
   3  -1  12   16.80    2.93
  -3   0  12   54.22    4.65
  -3   0  11   11.54    2.89
  -3   0  11   14.05    2.66
  -3   0  10   32.43    4.99
  -3   0  10   30.11    4.07
  -3   0  10   24.21    3.64
  -3   0   9  473.26   17.84
  -3   0   9  449.49   17.19
  -3   0   9  463.67   20.39
  -3   0   9  465.16   21.95
  -3   0   8   34.45    4.30
  -3   0   8   23.29    4.61
  -3   0   8   38.72    5.94
  -3   0   8   37.02    4.26
  -3   0   8   32.48    4.00
  -3   0   7   87.46    7.76
  -3   0   7  101.45    6.58
  -3   0   6 1980.75   45.05
  -3   0   6 2109.30   45.35
   3   0  -5  423.64   10.93
   3   0  -4  317.13    8.94
   3   0  -3 2413.73   47.44
   3   0  -2  174.52    5.16
   3   0  -2  112.04    4.75
   3   0  -1  177.11    6.26
   3   0  -1  174.11    5.88
  -3   0   0  933.40   20.90
  -3   0   0  907.57   21.16
   3   0   1 2354.88   46.19
   3   0   2 1116.83   23.72
   3   0   3   73.49    3.49
   3   0   4  144.54    5.20
   3   0   5 3533.24   74.70
   3   0   6   31.84    4.09
   3   0   7 1726.78   42.14
   3   0   7 1664.84   40.57
   3   0   7 1714.21   42.77
   3   0   8  373.57   15.46
   3   0   8  391.84   15.51
   3   0   8  373.76   14.20
   3   0   9   37.96    4.35
   3   0   9   32.81    5.95
   3   0   9   38.59    4.87
   3   0  10   16.69    3.97
   3   0  10   17.63    3.08
   3   0  10   24.65    4.33
   3   0  11   30.95    4.26
   3   0  11   34.77    3.42
   3   0  11   33.33    4.16
   3   0  11   35.80    5.18
   3   1 -12    3.72    0.83
  -3  -1  12    4.95    1.46
  -3  -1  11    4.46    1.80
  -3  -1  10  279.56   12.73
  -3  -1  10  252.21   13.68
  -3  -1  10  262.56   11.81
  -3  -1   9  153.75    9.44
  -3  -1   9  165.11   11.25
  -3  -1   9  151.03    9.03
  -3  -1   8   93.88    7.01
  -3  -1   8  111.78    6.85
  -3  -1   8   92.03    8.47
  -3  -1   7  192.35    8.87
  -3  -1   7  189.27    9.69
  -3  -1   6  847.64   21.50
  -3  -1   6  757.26   21.55
   3   1  -5  591.19   14.72
  -3  -1   4  237.50    8.02
   3   1  -4  216.42    7.46
  -3  -1   3  705.56   16.92
   3   1  -3  631.70   16.04
   3   1  -2 1582.70   32.71
  -3  -1   2 1653.11   33.52
   3   1  -1 1143.89   24.78
   3   1  -1 1130.16   25.49
  -3  -1   0 3286.74   63.66
   3   1   0 3175.37   64.68
  -3  -1  -1    5.15    1.18
   3   1   1    6.67    1.56
   3   1   1    6.82    1.14
   3   1   2 1542.56   32.46
   3   1   2 1478.02   35.55
   3   1   3  578.69   17.79
   3   1   3  562.01   14.19
   3   1   4  738.83   17.31
   3   1   5  253.48   11.77
   3   1   5  241.48   14.47
   3   1   5  250.37   11.79
   3   1   6  921.76   33.67
   3   1   6  955.53   27.91
   3   1   6  960.24   27.84
   3   1   6  950.72   27.15
   3   1   7    4.87    2.81
   3   1   7   11.77    2.78
   3   1   7    7.20    2.14
   3   1   7    7.36    2.27
   3   1   8   47.68    5.14
   3   1   8   65.87    8.35
   3   1   8   49.50    5.10
   3   1   8   55.32    5.21
   3   1   9   19.95    4.73
   3   1   9   17.42    4.89
   3   1  10    6.43    2.53
   3   1  10   10.79    2.91
   3   1  10    4.11    2.76
   3   1  11    8.69    2.20
   3   1  11    9.12    1.71
   3   1  11    8.29    2.12
   3   1  11    3.52    1.74
   3   2 -12   27.96    2.16
  -3  -2  11  155.61    8.57
  -3  -2  11  177.78    8.91
  -3  -2  10    0.60    1.43
  -3  -2  10    0.72    1.60
  -3  -2   9  267.73   12.57
  -3  -2   9  257.70   13.93
  -3  -2   8  531.62   21.47
   3   2  -7  500.67   14.57
   3   2  -6  430.88   13.15
  -3  -2   5 1122.80   25.67
   3   2  -5 1093.72   25.48
   3   2  -4  763.44   19.11
  -3  -2   4  794.20   19.67
  -3  -2   3   23.60    2.44
   3   2  -3   19.87    2.15
   3   2  -2 3000.93   60.15
   3   2  -2 2977.47   60.03
  -3  -2   2 3075.34   60.52
   3   2  -1 1940.05   41.16
  -3  -2   1 1950.74   40.63
   3   2  -1 1873.38   39.97
  -3  -2   0    4.63    1.28
   3   2   0   23.88    2.71
   3   2   1  424.66   14.08
   3   2   1  406.97   11.95
  -3  -2  -1  433.72   12.59
   3   2   2 1135.00   28.76
  -3  -2  -2 1155.45   26.02
   3   2   2 1067.68   25.10
   3   2   3    1.05    1.25
   3   2   3    1.98    0.83
  -3  -2  -3    1.06    0.75
   3   2   4   33.41    5.20
   3   2   4   38.40    4.37
   3   2   5  400.25   16.30
   3   2   5  433.99   20.64
   3   2   5  439.35   16.66
   3   2   6   21.57    4.76
   3   2   6   13.23    2.96
   3   2   6   12.49    2.78
   3   2   6   17.06    3.21
   3   2   7   23.64    5.07
   3   2   7   27.25    3.99
   3   2   7   21.97    3.48
   3   2   7   16.54    4.62
   3   2   7   24.44    3.74
   3   2   8    0.58    1.88
   3   2   8    2.17    2.11
   3   2   8    3.79    2.58
   3   2   8    1.81    1.53
   3   2   9   34.41    5.49
   3   2   9   26.92    3.66
   3   2   9   24.59    4.84
   3   2   9   25.58    3.32
   3   2   9   31.15    5.14
   3   2  10    1.03    1.20
   3   2  10    1.95    1.13
   3   2  10    2.36    1.66
   3   2  11   -0.17    0.77
   3   2  11    0.38    0.73
   3   3 -12   34.09    2.29
  -3  -3  11   26.47    3.14
  -3  -3  10   51.99    4.92
  -3  -3  10   52.44    5.13
   3   3 -10   46.54    3.48
  -3  -3   9   54.01    5.27
  -3  -3   9   49.61    5.63
  -3  -3   8  201.65   10.57
  -3  -3   8  200.33   11.96
   3   3  -7   85.06    5.35
   3   3  -6  176.61    8.00
  -3  -3   5  369.00   12.12
   3   3  -5  354.12   12.26
   3   3  -5  357.79   11.89
   3   3  -5  365.43   11.66
   3   3  -4  185.83    8.09
   3   3  -4  196.93    8.04
  -3  -3   4  196.27    8.24
   3   3  -4  194.81    8.03
   3   3  -3 1536.94   34.26
  -3  -3   3 1538.73   34.50
   3   3  -3 1507.20   34.03
  -3  -3   2   81.57    4.97
   3   3  -2   75.58    4.70
  -3  -3   1  175.09    7.66
   3   3  -1  178.79    8.36
   3   3  -1  188.07    7.72
  -3  -3   0 1796.85   39.55
   3   3   0 1852.29   41.38
   3   3   1  496.65   16.42
   3   3   1  480.03   14.22
  -3  -3  -1  486.12   14.56
   3   3   1  491.11   14.32
  -3  -3  -2  184.32    7.82
   3   3   2  169.76   10.90
   3   3   2  170.10    9.11
   3   3   2  160.65    7.20
   3   3   2  178.77    7.50
   3   3   3 1498.63   41.99
   3   3   3 1384.49   32.60
   3   3   3 1417.93   32.36
   3   3   4  146.23   11.41
   3   3   4  147.46    6.59
   3   3   4  148.82    9.07
   3   3   5   20.85    4.62
   3   3   5   26.57    3.85
   3   3   5   22.25    4.61
   3   3   6  231.57   15.29
   3   3   6  224.61   11.51
   3   3   6  215.63   14.45
   3   3   6  202.11   11.30
   3   3   7  164.66   12.72
   3   3   7  185.95   13.30
   3   3   7  193.28   10.64
   3   3   8    0.55    1.22
   3   3   8   -0.49    1.81
   3   3   8    0.58    1.23
   3   3   8   -0.51    1.87
   3   3   9    2.35    1.67
   3   3   9    3.15    1.41
   3   3   9    2.73    1.79
   3   3   9    3.60    1.33
   3   3  10    6.72    1.94
   3   4 -11   71.53    4.07
  -3  -4  10   16.61    2.64
   3   4 -10   19.16    2.25
   3   4  -9   17.28    2.09
  -3  -4   9   21.75    3.25
  -3  -4   8  215.53   10.65
   3   4  -8  224.11    9.04
   3   4  -7    8.92    1.96
   3   4  -7    9.68    2.02
   3   4  -6   15.06    2.46
  -3  -4   6   16.00    2.22
   3   4  -5  351.35   12.58
   3   4  -5  329.42   12.14
   3   4  -5  337.25   11.83
  -3  -4   4   57.47    4.54
   3   4  -4   60.43    4.62
   3   4  -4   55.83    4.50
   3   4  -4   54.76    4.34
  -3  -4   3    0.42    0.86
   3   4  -3    1.61    1.08
   3   4  -3    1.10    0.86
  -3  -4   2   25.18    2.99
   3   4  -2   23.38    2.71
   3   4  -2   23.80    3.03
   3   4  -2   25.04    2.95
  -3  -4   1  664.02   18.35
   3   4  -1  631.03   17.25
   3   4  -1  596.47   18.17
   3   4  -1  566.05   17.55
  -3  -4   0    5.79    1.63
   3   4   0    5.39    1.50
   3   4   0    6.51    1.50
   3   4   0    6.37    1.81
   3   4   0    3.91    1.39
   3   4   1  307.79   13.11
   3   4   1  286.67    9.80
   3   4   1  284.66   11.16
  -3  -4  -1  307.99   11.39
   3   4   1  306.52   11.20
  -3  -4  -2   27.67    3.18
   3   4   2   29.22    3.90
   3   4   2   32.57    3.37
   3   4   2   30.83    3.21
  -3  -4  -3  425.09   13.92
   3   4   3  400.59   18.28
   3   4   3  424.76   13.77
   3   4   3  424.46   13.51
   3   4   4   40.81    6.31
   3   4   4   42.12    4.91
   3   4   4   36.95    5.62
   3   4   4   40.88    4.93
   3   4   4   40.62    3.41
   3   4   5  150.36   12.23
   3   4   5  152.87   11.71
   3   4   5  164.08    9.80
   3   4   5  155.39    9.85
   3   4   6   42.37    6.40
   3   4   6   28.69    5.21
   3   4   6   36.68    4.74
   3   4   7   20.33    4.43
   3   4   7   16.37    3.90
   3   4   8   61.94    6.49
   3   4   8   55.48    4.82
   3   4   9   16.84    3.01
   3   4   9   13.58    2.05
   3   5 -10   45.60    3.23
  -3  -5  10   45.33    3.35
   3   5  -9   45.05    3.28
  -3  -5   9   46.57    4.04
   3   5  -8   89.36    5.37
  -3  -5   8   88.49    5.98
  -3  -5   7   36.78    3.97
  -3  -5   6   67.15    4.58
   3   5  -6   58.03    4.84
  -3  -5   5   15.50    2.68
   3   5  -5   17.50    2.72
   3   5  -5   13.41    2.32
   3   5  -5   11.71    2.21
  -3  -5   4  496.78   16.26
   3   5  -4  483.90   15.91
   3   5  -4  472.76   16.17
   3   5  -4  466.54   15.65
   3   5  -3  837.97   22.70
   3   5  -3  814.80   23.36
  -3  -5   3  803.97   23.00
   3   5  -3  811.04   22.67
   3   5  -2 1028.00   25.93
   3   5  -2  963.37   26.92
   3   5  -2 1033.68   26.69
  -3  -5   1    1.21    1.08
   3   5  -1    1.17    1.11
   3   5  -1    0.78    0.87
   3   5  -1    1.54    1.14
   3   5   0  208.89    8.58
   3   5   0  206.29    9.87
  -3  -5   0  216.17    9.87
   3   5   0  215.47    9.69
  -3  -5  -1  216.38    9.83
   3   5   1  205.76    8.14
   3   5   1  214.43    9.93
   3   5   1  196.97   10.36
   3   5   1  200.42   11.03
   3   5   1  215.72    9.55
   3   5   2   60.60    5.95
  -3  -5  -2   55.82    4.74
   3   5   2   47.90    4.39
   3   5   2   50.58    5.31
   3   5   2   61.79    4.76
   3   5   2   64.58    4.85
  -3  -5  -3   50.13    4.37
   3   5   3   49.62    5.37
   3   5   3   41.86    3.95
   3   5   3   43.97    3.87
   3   5   3   44.71    5.03
   3   5   4  447.87   17.47
   3   5   4  423.65   19.40
   3   5   4  453.90   13.41
   3   5   4  422.03   17.26
   3   5   5   -0.47    1.73
   3   5   5    1.34    1.37
   3   5   6   47.63    5.97
   3   5   6   47.91    4.98
   3   5   7    3.69    1.87
   3   5   7    3.78    1.55
   3   5   8   18.05    2.94
   3   5   9    0.09    0.44
   3   6 -10   33.40    2.30
   3   6 -10   37.86    2.47
   3   6  -9   17.34    2.19
   3   6  -9   18.41    1.88
   3   6  -9   23.39    2.39
   3   6  -8   95.33    5.33
   3   6  -8  118.83    5.90
   3   6  -7  185.51    8.36
   3   6  -6   38.09    3.34
   3   6  -5   11.53    2.14
  -3  -6   4  404.30   14.62
   3   6  -4  395.25   14.71
   3   6  -4  390.59   13.97
  -3  -6   3  781.89   22.71
   3   6  -3  769.36   21.83
   3   6  -3  741.25   22.71
   3   6  -3  761.28   22.09
   3   6  -2  905.19   23.92
   3   6  -2  864.31   25.36
   3   6  -2  903.21   24.99
  -3  -6   1  603.57   19.19
   3   6  -1  595.05   17.49
   3   6  -1  586.30   18.73
  -3  -6   0   59.79    5.15
   3   6   0   47.79    3.83
   3   6   0   48.42    4.75
   3   6   0   50.69    4.57
  -3  -6  -1   86.70    6.18
   3   6   1   80.68    6.04
   3   6   1   91.37    6.09
   3   6   1   82.40    6.33
   3   6   2   58.19    4.96
   3   6   2   59.18    4.63
   3   6   2   54.56    5.29
   3   6   2   57.92    4.61
   3   6   3   43.37    3.68
   3   6   3   42.49    4.75
   3   6   4   11.67    2.61
   3   6   5   21.75    3.71
   3   6   5   23.75    3.45
   3   6   6   32.04    4.01
   3   6   6   32.38    3.59
   3   6   7    8.84    1.87
   3   6   7   11.15    1.95
   3   6   8    6.12    1.05
   3   7  -9   15.78    1.65
   3   7  -8    7.63    1.35
   3   7  -8   12.29    1.82
   3   7  -7    0.16    0.79
   3   7  -6   10.42    1.62
   3   7  -6    8.85    1.92
  -3  -7   5  205.58    8.34
   3   7  -5  179.98    7.95
   3   7  -4   23.61    2.92
   3   7  -4   16.54    2.51
   3   7  -3    0.41    0.91
   3   7  -3    0.23    0.85
   3   7  -3    0.83    1.11
   3   7  -2   20.53    2.96
   3   7  -1   33.72    3.20
   3   7   0    1.15    0.89
   3   7   1  109.56    6.34
   3   7   1  104.51    6.20
   3   7   2   86.08    5.21
   3   7   2   78.52    5.49
  -3  -7  -3    0.42    0.78
   3   7   3    0.22    0.90
   3   7   4   30.67    3.31
   3   7   5   22.66    2.62
   3   7   6    0.49    0.58
   3   8  -7    8.19    1.29
   3   8  -7    6.56    1.20
   3   8  -6   29.13    2.59
   3   8  -5    5.33    1.33
   3   8  -5    7.68    1.37
   3   8  -4   19.61    2.31
   3   8  -4   22.51    2.48
  -3  -8   4   18.74    2.35
   3   8  -3   91.12    4.97
   3   8  -3   88.16    5.24
   3   8  -2   15.51    2.20
   3   8  -2   20.67    2.66
   3   8  -1   27.26    3.04
   3   8  -1   32.85    3.30
   3   8   0    7.85    1.78
   3   8   0    9.94    1.80
  -3  -8  -1   15.04    2.05
   3   8   1   14.77    2.30
   3   8   1   18.44    2.22
   3   8   2    2.46    1.22
  -3  -8  -2    0.69    0.73
   3   8   3    5.49    1.26
   3   8   4   15.78    1.71
   3   9  -5   37.60    2.47
   3   9  -4    5.46    1.09
  -3  -9   3    2.85    0.92
   3   9  -3    2.42    0.82
   3   9  -1    9.42    1.31
  -3  -9   1    9.76    1.44
   3   9   0    4.42    1.01
  -3  -9   0    6.30    1.09
   3   9   1   18.08    1.78
   3   9   2    9.96    1.19
  -4  12   1  120.85    4.88
  -4  11   4   15.71    1.74
  -4  11   4   12.92    1.70
  -4  11   3   12.79    1.72
  -4  11   3   13.33    1.98
  -4  11   2  135.35    6.04
  -4  11   1   47.31    3.41
  -4  11   0   32.41    2.75
  -4  11  -1   35.27    3.84
  -4  11  -1   41.95    3.52
  -4  11  -2   67.68    5.14
  -4  11  -3    0.20    0.82
   4 -11   4   72.12    4.69
   4 -11   5    1.72    0.94
  -4  10   6   41.07    3.00
  -4  10   6   37.92    2.92
  -4  10   5   14.57    2.23
  -4  10   5   12.78    1.99
  -4  10   4  126.35    6.62
  -4  10   3   89.77    5.68
  -4  10   2   14.95    2.89
  -4  10   2   12.92    2.10
  -4  10   2   14.69    2.43
  -4  10   1    4.50    1.55
  -4  10   1    5.03    1.48
  -4  10   0  335.22   14.36
  -4  10   0  305.77   11.70
  -4  10   0  342.18   11.81
  -4  10  -1   24.64    3.84
  -4  10  -1   26.58    3.24
  -4  10  -1   21.53    2.61
  -4  10  -2   40.79    4.66
  -4  10  -2   44.70    3.99
  -4  10  -3   49.05    4.89
  -4  10  -3   54.65    4.25
  -4  10  -3   54.15    3.93
  -4  10  -4  103.95    6.63
  -4  10  -4  103.04    5.58
   4 -10   5   12.33    2.42
  -4  10  -5   13.01    2.16
  -4  10  -5   17.39    2.26
  -4  10  -6   39.38    3.12
  -4  10  -7   16.22    1.82
   4 -10   7   16.06    2.15
   4 -10   8    0.19    0.43
  -4   9   7   36.73    3.22
  -4   9   7   40.57    3.36
  -4   9   6   41.93    3.79
  -4   9   6   37.90    3.78
  -4   9   5  222.55    9.92
  -4   9   4  121.98    7.31
  -4   9   3   31.35    4.08
  -4   9   3   31.89    3.30
  -4   9   3   19.26    2.74
  -4   9   3   24.17    3.30
  -4   9   2  683.07   22.24
  -4   9   2  654.39   19.13
  -4   9   2  644.06   19.47
  -4   9   2  647.77   19.84
  -4   9   1   27.68    4.18
  -4   9   1   32.47    3.57
  -4   9   1   27.49    3.48
  -4   9   1   33.02    3.66
  -4   9   0  104.13    5.60
  -4   9   0  103.13    6.31
  -4   9   0  113.80    8.24
  -4   9  -1  111.02    8.22
  -4   9  -1  112.04    6.80
  -4   9  -1  121.87    6.39
  -4   9  -1  110.01    6.25
  -4   9  -2   16.62    2.66
  -4   9  -2   18.70    3.53
  -4   9  -2   19.28    2.78
  -4   9  -2   19.58    2.69
  -4   9  -3   10.60    2.58
  -4   9  -3   12.79    2.33
  -4   9  -3   11.24    1.92
  -4   9  -3   12.26    2.23
  -4   9  -4   54.39    5.31
  -4   9  -4   62.18    4.62
  -4   9  -4   62.45    4.44
  -4   9  -4   64.29    4.82
  -4   9  -5   50.34    4.73
  -4   9  -5   58.14    4.31
  -4   9  -5   59.11    4.58
  -4   9  -6   -0.18    0.94
   4  -9   7    0.69    1.13
  -4   9  -7    0.48    0.81
  -4   9  -8   21.16    2.19
  -4   9  -8   24.02    2.33
   4  -9   8   21.95    2.66
  -4   9  -9   38.82    2.35
  -4   8   8    0.90    0.99
  -4   8   7   91.79    5.96
  -4   8   6  272.18   12.30
  -4   8   6  292.85   12.08
  -4   8   5   29.44    3.98
  -4   8   5   30.24    3.40
  -4   8   5   25.80    3.56
  -4   8   5   28.17    3.94
  -4   8   4  203.74   10.55
  -4   8   4  220.44   10.79
  -4   8   4  202.49    9.52
  -4   8   4  208.19   10.23
   4  -8  -3  326.53   12.62
  -4   8   3  318.46   13.22
  -4   8   3  363.75   14.78
  -4   8   3  347.83   12.32
  -4   8   3  316.37   12.80
  -4   8   3  334.37   13.26
  -4   8   2   49.59    5.24
  -4   8   2   52.66    4.40
  -4   8   2   43.43    4.50
  -4   8   2   45.25    3.47
  -4   8   2   52.60    4.71
  -4   8   1   92.43    7.38
  -4   8   1   90.09    5.92
  -4   8   1   89.21    5.30
  -4   8   1   97.52    6.25
  -4   8   0   18.74    2.51
  -4   8   0   20.65    2.77
  -4   8  -1  711.47   20.13
  -4   8  -1  668.73   19.39
  -4   8  -1  706.21   19.58
  -4   8  -2  127.16    6.83
  -4   8  -2  129.92    7.11
  -4   8  -2  125.82    6.98
  -4   8  -2  128.15    6.31
  -4   8  -2  117.77   13.66
  -4   8  -2  123.94    6.94
  -4   8  -3  735.96   20.69
  -4   8  -3  726.98   20.49
  -4   8  -3  729.34   21.01
  -4   8  -3  756.68   20.89
  -4   8  -4   69.71    5.17
   4  -8   4   76.65    5.71
  -4   8  -4   79.14    5.28
  -4   8  -4   79.80    5.73
  -4   8  -4   77.63    5.50
  -4   8  -5    8.35    2.01
  -4   8  -5    8.48    2.03
  -4   8  -6   11.40    2.26
  -4   8  -6   14.37    2.52
   4  -8   7  121.73    7.65
  -4   8  -7  113.67    6.37
  -4   8  -8   27.35    2.88
  -4   8  -8   26.77    2.74
   4  -8   8   27.07    3.35
  -4   8  -9   53.93    3.49
   4  -8   9   58.32    4.10
  -4   8  -9   60.86    3.50
  -4   8 -10   18.09    1.51
  -4   7   8  106.54    7.12
  -4   7   8   98.77    6.35
  -4   7   7   23.45    3.69
  -4   7   7   27.26    7.71
  -4   7   7   21.71    2.86
  -4   7   7   19.77    3.15
  -4   7   6  135.52    9.00
  -4   7   6  131.99    8.55
  -4   7   6  154.05   17.54
  -4   7   6  135.50    7.56
  -4   7   6  139.70    8.39
  -4   7   5  243.37   12.12
  -4   7   5  244.61   12.41
  -4   7   5  255.98   10.97
  -4   7   5  242.90   10.84
  -4   7   5  236.51   11.34
  -4   7   4 1101.23   31.47
  -4   7   4 1142.22   30.16
  -4   7   4 1108.84   29.49
  -4   7   4 1148.58   30.01
  -4   7   3   30.11    3.99
  -4   7   3   32.64    4.10
  -4   7   3   35.87    3.55
  -4   7   3   33.52    3.87
  -4   7   3   38.41    4.03
  -4   7   2  355.87   13.80
  -4   7   2  386.63   15.01
  -4   7   2  362.23   12.57
  -4   7   2  349.79   13.68
  -4   7   2  356.73   11.71
  -4   7   2  377.15   13.36
  -4   7   2  341.00   14.62
  -4   7   1  415.26   14.24
  -4   7   1  404.97   13.36
  -4   7   1  370.56   12.41
  -4   7   1  387.63   13.24
  -4   7   1  375.12   14.68
  -4   7   0 1705.79   39.47
  -4   7   0 1612.54   37.45
  -4   7   0 1665.25   37.11
  -4   7   0 1642.84   38.83
  -4   7  -1    8.47    4.04
  -4   7  -1   12.89    2.43
  -4   7  -1   10.44    1.93
  -4   7  -1   11.13    2.11
  -4   7  -1    9.54    1.82
  -4   7  -1    9.61    1.70
  -4   7  -1   14.71    2.60
  -4   7  -2 2197.80   46.83
  -4   7  -2 2159.33   48.36
  -4   7  -2 2105.30   46.82
  -4   7  -2 2225.12   46.93
  -4   7  -2 2193.38   47.14
  -4   7  -3  393.54   24.92
  -4   7  -3  428.46   13.82
  -4   7  -3  422.37   14.27
   4  -7   3  408.20   13.70
  -4   7  -3  429.71   14.21
  -4   7  -4  159.16   16.00
  -4   7  -4  180.27    8.27
  -4   7  -4  174.20    7.84
   4  -7   4  165.98    8.43
  -4   7  -5  237.60   20.19
  -4   7  -5  287.16   10.95
   4  -7   5  293.10   12.89
  -4   7  -5  279.58   11.52
   4  -7   5  251.92   11.21
  -4   7  -5  280.43   11.19
  -4   7  -6  125.38   14.64
   4  -7   6  126.44    7.74
  -4   7  -6  137.12    7.38
   4  -7   7    0.92    1.25
  -4   7  -7    1.47    1.21
  -4   7  -7    0.44    1.05
   4  -7   8    7.46    2.04
  -4   7  -8    4.72    1.55
  -4   7  -8    6.30    1.66
  -4   7  -9   29.58    2.86
   4  -7   9   31.30    3.42
  -4   7  -9   29.66    2.67
  -4   7 -10    2.92    0.88
  -4   7 -10    2.46    0.66
  -4   6  10   49.16    7.30
  -4   6   9  132.13   13.98
  -4   6   8   76.98    6.57
  -4   6   8   72.21    6.14
  -4   6   8   83.06    6.08
  -4   6   8   73.65    6.45
  -4   6   8   65.24   11.25
  -4   6   8   80.07    5.47
  -4   6   8   82.98    6.27
  -4   6   7  110.20    7.37
  -4   6   7  112.19    8.29
  -4   6   7  128.03   15.88
  -4   6   7  104.68    6.79
  -4   6   7  113.03    7.87
  -4   6   7  103.50    7.30
  -4   6   7  114.29    8.35
  -4   6   6  373.91   15.57
  -4   6   6  379.07   16.27
  -4   6   6  418.53   16.68
  -4   6   6  428.61   29.30
  -4   6   6  363.55   14.19
  -4   6   6  380.23   14.82
  -4   6   6  394.71   15.33
  -4   6   5  407.09   15.02
  -4   6   5  375.67   14.36
  -4   6   5  399.88   15.03
  -4   6   5  381.27   15.50
  -4   6   4   39.93    3.55
  -4   6   4   37.74    3.94
  -4   6   4   35.03    8.38
  -4   6   4   32.07    3.70
  -4   6   4   34.48    3.90
  -4   6   4   37.39    3.99
  -4   6   4   33.62    4.62
  -4   6   3  243.69    9.89
  -4   6   3  258.27    9.93
  -4   6   3  239.14   10.67
  -4   6   3  234.09    9.25
  -4   6   3  245.40   12.07
  -4   6   3  227.53   10.33
  -4   6   3  230.80    8.80
  -4   6   3  233.53   10.09
  -4   6   2  972.92   24.72
  -4   6   2  976.41   24.59
  -4   6   2  961.06   23.69
  -4   6   2  917.32   26.63
  -4   6   2  911.14   22.88
  -4   6   2  924.14   24.00
  -4   6   1   64.24    4.84
  -4   6   1   63.30    4.72
  -4   6   1   68.45    4.54
  -4   6   1   61.41    4.24
  -4   6   1   58.34    4.21
  -4   6   1   55.46    5.06
  -4   6   0  807.98   22.11
  -4   6   0  796.81   21.69
  -4   6   0  806.80   20.78
  -4   6   0  805.22   20.64
  -4   6  -1  717.87   20.62
  -4   6  -1  733.87   20.48
  -4   6  -1  739.70   19.52
  -4   6  -1  790.25   19.44
  -4   6  -1  717.64   18.45
  -4   6  -1  743.88   19.57
  -4   6  -2  109.48    6.42
  -4   6  -2   98.16    6.03
  -4   6  -2  102.16    5.66
  -4   6  -2   84.19   10.48
  -4   6  -2  103.69    5.78
   4  -6   2  102.16    5.41
  -4   6  -3    4.91    1.47
  -4   6  -3    5.50    1.56
  -4   6  -3    3.12    1.20
  -4   6  -3    3.56    1.26
  -4   6  -3    3.13    1.17
   4  -6   3    4.03    1.23
  -4   6  -4  477.09   14.61
  -4   6  -4  476.65   14.85
  -4   6  -4  449.76   14.87
   4  -6   4  445.00   15.01
  -4   6  -4  465.78   14.69
  -4   6  -4  491.06   27.37
   4  -6   5  147.73    8.61
   4  -6   5  122.83    7.36
  -4   6  -5  133.72    7.11
  -4   6  -5  138.89   14.80
   4  -6   6    5.08    1.71
  -4   6  -6    5.54    1.68
  -4   6  -6    3.98    3.24
   4  -6   7  250.46   12.13
   4  -6   7  224.13   10.76
  -4   6  -7  229.21   10.03
  -4   6  -7  239.33    9.77
  -4   6  -8   41.15    3.82
   4  -6   8   34.07    4.24
  -4   6  -8   33.68    3.27
  -4   6  -9    7.90    1.52
   4  -6   9    7.63    1.69
  -4   6  -9   10.38    1.87
   4  -6  10   38.63    2.98
  -4   6 -10   40.10    2.87
  -4   6 -10   36.30    2.32
  -4   5  11   38.86    5.92
  -4   5  10  115.51    6.87
  -4   5  10  117.74    7.54
  -4   5  10  103.86   11.86
  -4   5   9  129.67    8.37
  -4   5   9  131.67    8.96
  -4   5   9  131.68   14.97
  -4   5   9  128.52    7.09
  -4   5   9  136.15    8.09
  -4   5   8   97.45    7.29
  -4   5   8  102.34    8.30
  -4   5   8  107.40   14.63
  -4   5   8   88.28    6.27
  -4   5   8   89.01    6.84
  -4   5   8   86.32    6.90
  -4   5   7  575.85   20.00
  -4   5   7  603.81   22.27
  -4   5   7  602.92   34.90
  -4   5   7  553.16   18.59
  -4   5   7  561.44   19.64
  -4   5   7  573.53   20.17
  -4   5   6  226.23   11.43
  -4   5   6  245.92   13.05
  -4   5   6  262.26   22.41
  -4   5   6  245.86   11.16
  -4   5   6  241.58   11.44
  -4   5   6  258.25   12.21
  -4   5   5    9.12    1.63
  -4   5   5   10.62    2.74
  -4   5   5   10.83    2.42
  -4   5   5   11.52    2.32
  -4   5   5   10.29    2.31
  -4   5   5    9.78    2.72
  -4   5   4 1795.43   39.21
  -4   5   4 1784.71   38.94
  -4   5   4 1785.33   40.06
  -4   5   4 1894.99   43.54
  -4   5   4 1896.19   61.60
  -4   5   4 1728.68   41.13
  -4   5   4 1738.80   42.06
  -4   5   4 1762.51   40.91
  -4   5   4 1815.32   44.43
  -4   5   3  429.83   13.40
  -4   5   3  446.33   25.10
  -4   5   3  421.24   12.77
  -4   5   3  416.08   13.69
  -4   5   3  450.32   13.70
  -4   5   3  413.14   15.89
  -4   5   2   32.78    3.24
  -4   5   2   35.38    3.30
  -4   5   2   37.41    3.18
  -4   5   2   35.48    4.03
  -4   5   1  634.53   19.32
  -4   5   1  651.25   17.95
  -4   5   0  243.12   15.96
  -4   5   0  248.27    9.75
  -4   5   0  244.76    9.53
  -4   5  -1  153.84   12.78
  -4   5  -1  159.69    7.39
   4  -5   1  150.64    6.02
  -4   5  -1  156.23    7.40
  -4   5  -2  236.57    9.39
  -4   5  -2  235.78    9.31
  -4   5  -2  218.25    8.40
   4  -5   2  219.98    8.28
  -4   5  -2  219.24    8.29
  -4   5  -2  235.58    8.71
  -4   5  -3 1295.55   30.68
  -4   5  -3 1289.57   30.42
   4  -5   3 1293.47   30.24
  -4   5  -3 1309.10   29.94
   4  -5   4   54.37    4.79
  -4   5  -4   58.31    4.27
  -4   5  -4   61.33    4.33
   4  -5   4   60.64    4.60
  -4   5  -4   58.09    4.24
   4  -5   5   36.30    2.83
   4  -5   5   33.55    4.08
   4  -5   5   40.34    3.93
  -4   5  -5   37.56    3.49
   4  -5   6   17.61    2.82
  -4   5  -6   11.49    2.21
  -4   5  -6   16.50    2.41
  -4   5  -7    0.38    0.82
   4  -5   7   -0.33    1.13
   4  -5   7    1.12    1.14
  -4   5  -7    0.22    0.95
  -4   5  -8   17.49    2.59
   4  -5   8   21.39    3.48
  -4   5  -8   19.32    2.45
  -4   5  -9    4.73    1.22
  -4   5  -9    4.97    1.42
   4  -5  10   55.99    4.21
  -4   5 -10   50.65    3.32
   4  -5  11    0.43    0.53
  -4   4  11   86.01    5.99
  -4   4  11   90.27    9.80
  -4   4  10   23.66    3.29
  -4   4  10   25.53    4.01
  -4   4  10   34.49    7.63
  -4   4  10   24.34    3.45
  -4   4   9  349.60   14.84
  -4   4   9  386.25   15.52
  -4   4   9  361.48   16.70
  -4   4   9  347.09   25.44
  -4   4   9  360.49   13.73
  -4   4   8  269.24   14.53
  -4   4   8  272.18   12.89
  -4   4   8  256.67   12.90
  -4   4   8  303.28   24.38
  -4   4   8  263.78   11.81
  -4   4   8  261.20   12.36
  -4   4   7   17.44    3.20
  -4   4   7   16.46    3.70
  -4   4   7   12.39    5.55
  -4   4   7   10.91    2.60
  -4   4   7   12.06    2.55
  -4   4   7   17.17    3.11
  -4   4   6  196.57   11.68
  -4   4   6  185.94   10.03
  -4   4   6  225.16   19.77
  -4   4   6  181.50   10.83
  -4   4   6  190.23    9.73
  -4   4   5 1163.32   26.51
  -4   4   5 1235.61   33.51
  -4   4   5 1279.10   48.11
  -4   4   5 1179.01   29.86
   4  -4  -5 1090.80   25.54
  -4   4   5 1209.39   30.69
  -4   4   4  444.56   13.08
  -4   4   4  422.04   12.80
  -4   4   4  419.21   14.62
  -4   4   4  442.51   16.36
  -4   4   4  458.30   25.15
  -4   4   4  428.30   14.49
  -4   4   4  430.09   14.19
  -4   4   3  983.78   23.45
  -4   4   3  936.92   24.30
  -4   4   3  931.72   26.31
  -4   4   2 1389.83   34.60
  -4   4   2 1465.78   32.53
  -4   4   1 1206.30   37.85
   4  -4   0    8.38    1.17
  -4   4   0    5.02    2.90
  -4   4  -1 2679.40   65.33
  -4   4  -1 2564.11   52.36
  -4   4  -2   91.41    5.25
   4  -4   2   80.91    4.52
  -4   4  -2   92.95    9.46
  -4   4  -3   79.09    4.82
   4  -4   3   81.10    4.81
  -4   4  -3   61.54    4.12
  -4   4  -3   67.34    4.16
   4  -4   3   70.35    4.99
  -4   4  -4  623.43   17.27
   4  -4   4  673.47   16.30
   4  -4   4  683.80   19.77
   4  -4   4  638.95   18.24
  -4   4  -4  625.43   17.58
  -4   4  -4  646.53   17.23
   4  -4   5  451.85   11.83
   4  -4   5  410.11   14.44
  -4   4  -5  422.18   13.78
  -4   4  -5  418.59   12.98
   4  -4   5  423.87   15.67
   4  -4   6   18.37    2.97
   4  -4   6   23.96    3.21
  -4   4  -6   21.48    2.83
  -4   4  -6   21.83    2.60
   4  -4   7    3.60    1.75
   4  -4   7    4.45    1.71
  -4   4  -7    3.24    1.22
   4  -4   7    5.55    1.81
  -4   4  -7    3.86    1.47
  -4   4  -8   23.84    2.94
  -4   4  -8   22.62    2.49
   4  -4   9   41.76    4.20
  -4   4  -9   39.17    3.43
   4  -4  10   -0.21    0.95
   4  -4  10   -0.18    0.77
  -4   4 -10    1.45    0.72
   4  -4  11   37.07    3.62
   4  -4  11   55.77    3.64
  -4   3  12   -0.38    1.63
  -4   3  11   83.55   10.17
  -4   3  10   49.94    4.70
  -4   3  10   42.50    8.58
  -4   3  10   43.40    4.72
  -4   3   9  132.89    8.50
  -4   3   9  109.87    9.16
  -4   3   9  108.34   14.40
  -4   3   9  111.95    7.31
  -4   3   9  124.88    7.35
  -4   3   9  103.82    7.88
  -4   3   8  177.71   11.92
  -4   3   8  156.36    8.51
  -4   3   7  324.11   12.67
  -4   3   7  351.09   17.09
  -4   3   7  353.30   14.53
  -4   3   7  354.17   14.48
  -4   3   7  373.38   15.86
  -4   3   6 1000.59   31.37
  -4   3   6 1010.39   27.14
  -4   3   6  995.22   27.42
  -4   3   6 1009.55   27.81
  -4   3   6 1047.74   29.75
   4  -3  -5   41.62    2.91
  -4   3   5   41.49    3.14
  -4   3   5   45.71    5.28
  -4   3   5   43.51    4.24
  -4   3   5   40.23    3.97
  -4   3   5   43.78    4.14
  -4   3   5   43.41    4.72
  -4   3   4  105.37    5.33
  -4   3   4   99.24    5.91
   4  -3  -4   96.92    4.68
  -4   3   3  955.22   23.01
   4  -3  -3  978.88   22.11
  -4   3   3  968.44   26.08
  -4   3   2 1047.92   24.69
  -4   3   1  755.28   26.24
  -4   3   0 6753.36  131.31
   4  -3   0 6909.53  129.21
  -4   3  -1 1584.23   35.08
  -4   3  -1 1692.67   44.72
   4  -3   1 1597.75   33.94
  -4   3  -2 3322.31   67.63
   4  -3   2 3444.94   66.15
   4  -3   2 3397.40   67.23
  -4   3  -3  385.36   12.00
   4  -3   3  371.73   12.24
   4  -3   3  411.55   11.24
  -4   3  -4  773.22   19.81
   4  -3   4  816.25   18.70
   4  -3   4  785.46   21.13
  -4   3  -4  786.92   20.29
   4  -3   4  794.87   22.46
   4  -3   5  346.56    9.62
   4  -3   5  322.00   12.26
  -4   3  -5  334.00   11.51
  -4   3  -5  315.25   10.38
   4  -3   5  335.38   13.58
   4  -3   6  413.88   14.96
  -4   3  -6  410.41   13.59
  -4   3  -7  244.18    9.95
   4  -3   8   15.20    3.08
  -4   3  -8   16.91    2.44
   4  -3   8   18.19    3.05
   4  -3   9  142.09    8.47
  -4   3  -9  142.52    6.47
   4  -3  10   21.03    2.89
   4  -3  10   21.62    2.97
   4  -3  11    0.85    0.91
   4  -3  11    0.89    0.86
   4  -3  11    1.20    0.84
  -4   2  12   75.81    5.07
  -4   2  12   69.91    7.32
  -4   2  11   41.65    4.80
  -4   2  11   44.00    7.64
  -4   2  11   51.20    4.57
  -4   2  10   66.87    5.97
  -4   2  10   65.99    5.32
  -4   2  10   62.58    6.71
  -4   2   9    9.29    2.30
  -4   2   9    8.25    2.35
  -4   2   9    7.72    2.59
  -4   2   8  287.99   13.76
  -4   2   8  287.96   12.44
  -4   2   8  307.83   13.09
  -4   2   7 1308.41   33.70
  -4   2   7 1301.84   34.16
  -4   2   7 1385.65   35.56
  -4   2   6  198.28    9.44
  -4   2   6  170.08    9.05
  -4   2   6  186.63   10.09
  -4   2   5 2122.20   48.24
  -4   2   5 2092.72   42.84
  -4   2   5 2060.53   45.79
  -4   2   5 2128.37   46.00
   4  -2  -5 2009.84   41.92
  -4   2   5 2041.78   45.90
   4  -2  -4 1544.62   31.93
  -4   2   4 1483.75   32.77
  -4   2   4 1471.83   36.41
  -4   2   3    1.59    0.92
   4  -2  -3    1.53    0.68
   4  -2  -2 1185.62   25.95
   4  -2  -1  904.05   20.69
  -4   2   0    8.71    2.35
   4  -2   1   41.46    2.84
  -4   2  -1   44.64    5.15
   4  -2   2 1978.39   40.09
   4  -2   2 1951.53   41.65
  -4   2  -3  144.98    6.50
   4  -2   3  158.71    6.03
   4  -2   3  160.42    7.30
   4  -2   4    5.61    1.70
   4  -2   4    3.62    0.92
  -4   2  -4    0.87    0.74
   4  -2   4    6.00    1.63
  -4   2  -4    1.46    0.92
   4  -2   5  233.40   10.22
  -4   2  -5  211.16    8.66
   4  -2   5  219.20   10.67
  -4   2  -6  136.27    6.87
   4  -2   7    3.73    1.54
  -4   2  -7    3.57    1.33
   4  -2   8   90.97    7.25
  -4   2  -8   94.45    5.38
   4  -2   9   76.36    6.17
   4  -2   9   62.87    5.76
   4  -2  10    0.37    1.35
   4  -2  10    0.71    1.09
   4  -2  11    1.80    1.02
   4  -2  11    4.30    1.18
   4  -2  11    4.65    1.57
  -4   1  12   51.04    4.24
  -4   1  11    1.63    1.65
  -4   1  11    1.43    1.17
  -4   1  11    1.95    1.16
  -4   1  10   77.91    7.54
  -4   1  10   81.70    6.23
  -4   1  10   81.61    6.52
  -4   1   9  898.38   26.58
  -4   1   9  937.10   31.27
  -4   1   9  949.00   28.26
  -4   1   8   57.52    5.87
  -4   1   8   57.53    5.33
  -4   1   8   62.40    7.26
  -4   1   8   55.33    5.18
  -4   1   7  287.63   12.62
  -4   1   7  254.00   14.44
  -4   1   7  272.91   11.86
  -4   1   6 1226.43   31.44
  -4   1   6 1314.37   33.29
  -4   1   5  799.76   23.08
  -4   1   5  812.84   19.51
   4  -1  -5  756.64   18.70
  -4   1   5  812.47   21.66
   4  -1  -4  872.58   20.58
  -4   1   4  893.42   24.31
   4  -1  -3 1141.84   25.47
   4  -1  -2 3277.99   65.09
   4  -1  -2 3638.40   67.04
   4  -1  -1   86.63    4.36
   4  -1  -1   94.58    4.66
  -4   1   0 1515.99   36.15
   4  -1   1 1150.67   25.31
  -4   1  -1 1133.98   30.46
   4  -1   2  164.27    6.29
   4  -1   3  235.54    7.90
  -4   1  -4  377.73   11.71
   4  -1   4  398.77   11.05
  -4   1  -4  382.60   12.09
  -4   1  -5  380.73   12.31
  -4   1  -6   25.73    2.85
   4  -1   7   85.62    7.05
   4  -1   7   80.90    6.91
  -4   1  -7   76.49    4.80
   4  -1   7   76.34    5.91
   4  -1   8   71.39    6.32
   4  -1   8   59.82    7.36
   4  -1   9   16.43    3.86
   4  -1   9   18.41    3.05
   4  -1   9   16.02    3.16
   4  -1  10   29.74    4.19
   4  -1  10   32.50    3.73
   4  -1  11    2.59    1.02
   4  -1  11    5.66    1.17
   4  -1  11    3.87    1.16
   4  -1  11    6.45    1.75
   4  -1  11    2.43    1.33
  -4   0  12   -0.18    0.77
  -4   0  11   39.43    4.66
  -4   0  11   48.39    4.34
  -4   0  11   49.71    4.24
  -4   0  10   54.26    5.07
  -4   0  10   44.37    5.67
  -4   0  10   41.38    4.59
  -4   0   9    3.71    1.74
  -4   0   9    0.47    1.64
  -4   0   9    0.32    1.13
  -4   0   8  125.92   10.34
  -4   0   8  132.09    8.68
  -4   0   7  904.71   25.37
  -4   0   6  167.59    8.45
  -4   0   6  187.22    9.41
  -4   0   5  814.73   21.83
  -4   0   5  791.39   20.03
  -4   0   5  865.17   23.61
   4   0  -5  824.52   19.97
   4   0  -4 1681.19   34.54
  -4   0   4 1628.88   37.89
   4   0  -3   16.10    1.96
   4   0  -2  738.87   18.23
   4   0  -2  850.22   19.52
   4   0  -1 1887.15   39.99
   4   0  -1 1892.42   39.48
   4   0   0   50.13    3.89
  -4   0  -1   21.86    2.60
   4   0   1   22.14    2.76
   4   0   1   17.83    1.99
   4   0   2 1349.33   29.44
   4   0   2 1331.95   33.03
  -4   0  -3  134.35    6.22
   4   0   3  128.76    5.74
   4   0   3  144.77    8.15
   4   0   4   57.90    3.63
   4   0   4   65.17    5.69
   4   0   4   50.34    5.09
  -4   0  -4   66.36    4.29
   4   0   5   23.58    3.62
  -4   0  -5   22.66    2.59
   4   0   6   36.77    5.60
   4   0   6   35.67    4.66
   4   0   7  477.08   18.28
   4   0   7  414.14   20.17
   4   0   7  453.25   17.88
   4   0   7  466.20   16.82
   4   0   8    7.44    2.86
   4   0   8    7.79    2.30
   4   0   8    4.85    1.66
   4   0   9  266.97   11.36
   4   0   9  235.08   13.22
   4   0   9  236.47   11.42
   4   0  10   -0.28    1.04
   4   0  10    0.64    1.05
   4   0  10    1.46    1.48
   4   0  11   24.66    2.25
   4   0  11   22.33    2.80
   4   1 -12   28.70    1.88
  -4  -1  12   29.96    2.63
  -4  -1  11   10.06    2.42
  -4  -1  10    3.09    1.59
  -4  -1  10    0.76    1.47
  -4  -1  10    4.00    1.48
  -4  -1   9   60.35    5.45
  -4  -1   9   65.07    5.88
  -4  -1   9   73.60    7.46
  -4  -1   8  141.07   10.80
  -4  -1   8  135.33    8.49
   4   1  -7    3.79    1.18
  -4  -1   6  192.00    8.95
  -4  -1   5  285.04   11.42
  -4  -1   5  275.42    9.68
  -4  -1   5  256.20   10.05
   4   1  -5  260.24    9.38
   4   1  -4  795.46   20.02
   4   1  -4  763.15   19.98
  -4  -1   4  773.64   21.83
  -4  -1   4  778.64   19.86
   4   1  -3  711.95   18.66
  -4  -1   3  710.77   18.59
  -4  -1   3  711.60   20.32
  -4  -1   2   63.70    4.32
   4   1  -2   60.25    4.02
  -4  -1   2   57.13    4.60
  -4  -1   2   59.02    4.01
   4   1  -2   50.59    3.60
  -4  -1   1  218.38    9.46
  -4  -1   1  216.33    8.56
   4   1  -1  214.96    8.18
   4   1  -1  198.23    8.36
  -4  -1   0    1.54    0.99
   4   1   0    1.04    0.85
  -4  -1   0    1.10    0.89
  -4  -1  -1  426.02   12.82
   4   1   1  394.76   12.36
   4   1   1  406.48   14.44
   4   1   2 1674.84   40.34
  -4  -1  -2 1688.66   37.25
   4   1   2 1733.14   41.12
   4   1   2 1747.03   37.19
   4   1   3  185.71    7.57
   4   1   3  178.43    9.68
  -4  -1  -3  188.88    7.74
   4   1   3  186.56    9.96
   4   1   3  177.08    7.34
   4   1   4  664.78   21.74
   4   1   4  672.24   21.94
   4   1   4  635.36   16.86
   4   1   5   77.39    6.75
   4   1   5   78.12    7.73
   4   1   5   82.87    6.95
   4   1   6   12.47    3.43
   4   1   6   12.95    2.84
   4   1   6   19.53    3.39
   4   1   7  382.76   15.87
   4   1   7  352.55   17.95
   4   1   7  343.14   15.17
   4   1   7  366.89   14.98
   4   1   8   55.09    5.25
   4   1   8   53.52    6.40
   4   1   8   48.41    4.73
   4   1   9   65.41    6.34
   4   1   9   90.24    7.93
   4   1  10   14.00    2.32
   4   1  10   25.59    3.60
   4   2 -12    3.93    0.71
  -4  -2  11   16.26    2.40
  -4  -2  11   12.84    2.27
  -4  -2  10  162.20    8.71
  -4  -2  10  136.71    8.86
  -4  -2   9  242.30   11.69
  -4  -2   9  249.19   13.49
   4   2  -8  131.39    6.31
  -4  -2   8  137.20   10.42
   4   2  -7  574.24   16.69
   4   2  -6  198.16    8.73
   4   2  -5   16.42    2.25
   4   2  -5   18.45    2.37
  -4  -2   5   18.34    2.43
   4   2  -4 1357.54   32.03
  -4  -2   4 1376.15   31.69
  -4  -2   4 1399.63   32.43
   4   2  -4 1358.53   31.90
   4   2  -3  454.88   14.50
  -4  -2   3  469.91   14.35
  -4  -2   3  492.37   15.01
   4   2  -3  473.05   14.66
  -4  -2   3  480.14   15.72
  -4  -2   2  262.07    9.53
   4   2  -2  227.38    9.24
  -4  -2   2  270.40    9.99
   4   2  -2  196.27    8.68
   4   2  -2  219.85    9.09
  -4  -2   2  209.74    9.74
  -4  -2   1  192.07    8.38
   4   2  -1  188.41    8.26
   4   2  -1  173.63    8.34
   4   2  -1  185.37    8.10
   4   2   0 2712.66   57.09
  -4  -2   0 2799.58   57.60
   4   2   0 2715.21   59.03
  -4  -2  -1    2.14    1.20
  -4  -2  -1    2.15    1.08
   4   2   1    4.81    1.74
   4   2   1    2.37    1.12
   4   2   1    2.55    1.10
  -4  -2  -2  266.70    9.93
   4   2   2  252.21    9.73
   4   2   2  247.58   11.67
  -4  -2  -2  276.46   10.40
   4   2   2  249.78   11.74
   4   2   2  262.60    9.93
  -4  -2  -3  459.02   13.94
   4   2   3  442.29   16.97
   4   2   3  450.47   13.77
   4   2   3  461.13   17.37
   4   2   3  431.42   13.59
   4   2   4   90.92    7.23
   4   2   4   89.79    8.12
   4   2   4   83.98    4.92
   4   2   5    3.21    1.76
   4   2   5    1.07    1.08
   4   2   6   84.36    8.30
   4   2   6   76.30    6.74
   4   2   6   97.26    7.52
   4   2   7  147.40   10.88
   4   2   7  155.24    9.29
   4   2   8   28.22    4.44
   4   2   8   32.80    5.25
   4   2   8   27.43    3.53
   4   2   9    7.25    2.04
   4   2   9    4.69    1.51
   4   2   9   10.45    2.72
   4   2  10    4.68    1.10
   4   2  10    4.10    1.43
  -4  -3  11   46.38    3.51
  -4  -3  10    0.90    0.92
  -4  -3  10   -0.47    1.04
  -4  -3   9  166.83    8.94
  -4  -3   9  147.18    9.41
  -4  -3   8  152.55   10.42
   4   3  -7   13.62    2.31
  -4  -3   6  466.82   14.10
   4   3  -6  463.04   15.24
   4   3  -5  170.21    8.36
   4   3  -5  156.43    8.04
   4   3  -5  161.87    7.83
  -4  -3   5  182.27    8.07
  -4  -3   4  116.03    6.69
   4   3  -4  104.16    6.26
  -4  -3   4  103.27    6.09
   4   3  -4  106.51    6.31
  -4  -3   3  150.48    7.79
   4   3  -3  148.87    7.64
   4   3  -3  139.11    7.44
  -4  -3   2  703.84   20.23
   4   3  -2  685.35   19.92
   4   3  -2  670.68   19.78
  -4  -3   1  301.00   11.53
   4   3  -1  284.57   11.94
   4   3  -1  277.53   11.03
   4   3  -1  292.04   11.25
  -4  -3   0    7.16    1.81
   4   3   0    5.62    1.76
   4   3   0    5.52    1.57
   4   3   0    5.78    1.54
  -4  -3  -1  368.90   13.29
   4   3   1  356.50   14.71
   4   3   1  378.93   13.19
   4   3   1  393.60   13.28
  -4  -3  -2  458.35   14.51
  -4  -3  -2  459.39   15.08
   4   3   2  457.60   17.40
   4   3   2  441.74   14.50
   4   3   2  460.06   14.72
   4   3   3   53.39    5.62
   4   3   3   58.32    4.54
  -4  -3  -3   55.67    4.33
   4   3   3   60.78    4.47
   4   3   4   95.52    8.70
   4   3   4   95.04    5.33
   4   3   5  378.58   18.22
   4   3   5  375.07   15.92
   4   3   5  398.89   18.99
   4   3   6    5.01    2.38
   4   3   6    5.81    2.60
   4   3   7   10.45    3.08
   4   3   7   10.66    2.49
   4   3   8   77.52    6.76
   4   3   8   80.20    5.47
   4   3   9   35.41    3.82
   4   4 -10   19.48    1.86
  -4  -4  10   25.68    2.73
  -4  -4   9   84.76    5.65
   4   4  -9   70.19    3.88
  -4  -4   8    8.60    2.21
   4   4  -8    8.39    1.70
  -4  -4   8    9.42    2.47
   4   4  -7   16.01    2.46
   4   4  -6  442.19   15.08
   4   4  -6  426.01   13.65
  -4  -4   6  476.87   14.15
  -4  -4   5    3.71    1.41
  -4  -4   5    2.54    1.21
   4   4  -5    4.07    1.51
   4   4  -5    2.85    1.37
   4   4  -5    4.80    1.53
  -4  -4   4    6.50    1.79
  -4  -4   4    8.08    1.98
   4   4  -4    6.73    1.83
   4   4  -4    7.80    1.98
   4   4  -4    4.11    1.55
  -4  -4   3  675.41   20.01
   4   4  -3  624.45   19.92
   4   4  -3  642.73   19.53
  -4  -4   2   41.82    4.30
   4   4  -2   41.55    4.00
   4   4  -2   42.33    4.37
   4   4  -2   42.10    4.23
  -4  -4   1   30.13    3.67
   4   4  -1   29.23    3.24
   4   4  -1   25.86    3.47
   4   4  -1   29.79    3.45
  -4  -4   0  156.06    8.37
   4   4   0  151.06    9.17
   4   4   0  163.62    7.63
   4   4   0  153.84    8.48
   4   4   0  158.58    8.29
   4   4   1  184.83   10.46
  -4  -4  -1  191.54    9.24
   4   4   1  176.78    7.67
   4   4   1  176.29    9.00
   4   4   1  177.80    8.73
  -4  -4  -2   64.33    4.86
  -4  -4  -2   68.17    5.26
   4   4   2   71.80    6.47
   4   4   2   64.31    5.14
   4   4   2   66.72    5.00
  -4  -4  -3   20.09    2.67
   4   4   3   20.75    3.59
   4   4   3   15.91    2.53
   4   4   3   23.57    3.81
   4   4   3   23.64    2.84
   4   4   4   28.29    4.52
   4   4   4   32.30    4.44
   4   4   5   75.52    7.41
   4   4   5   85.52    6.93
   4   4   6   81.23    7.35
   4   4   6   92.14    6.93
   4   4   7   14.03    2.97
   4   4   8   -0.22    0.72
   4   4   8   -0.16    0.68
   4   5 -10    3.87    0.88
  -4  -5   9   12.77    1.76
   4   5  -9   10.02    1.33
   4   5  -8   61.68    4.02
  -4  -5   8   53.02    4.12
  -4  -5   7   37.64    3.72
   4   5  -6   52.75    4.49
   4   5  -6   43.51    3.59
  -4  -5   5  252.72   10.03
   4   5  -5  253.34   10.72
   4   5  -5  233.05    9.87
  -4  -5   4    5.97    1.89
   4   5  -4   13.24    2.40
   4   5  -4   10.94    2.28
  -4  -5   3   60.69    5.28
   4   5  -3   64.04    5.11
   4   5  -3   56.73    5.21
   4   5  -3   67.16    5.33
   4   5  -2  123.74    7.06
   4   5  -2  115.23    7.55
   4   5  -2  141.23    7.90
  -4  -5   1  570.48   18.53
   4   5  -1  551.10   16.93
  -4  -5   1  601.37   18.52
   4   5  -1  531.99   17.83
  -4  -5   0  617.22   19.34
   4   5   0  625.76   17.53
   4   5   0  607.33   19.68
   4   5   0  638.74   19.31
  -4  -5  -1   62.45    4.90
  -4  -5  -1   60.91    5.18
   4   5   1   64.42    4.23
   4   5   1   58.86    5.19
   4   5   1   55.10    5.42
   4   5   1   68.29    5.22
  -4  -5  -2  316.50   11.64
   4   5   2  309.67   13.78
   4   5   2  317.07   11.79
   4   5   3   22.31    2.68
   4   5   3   20.47    3.36
  -4  -5  -3   20.89    2.63
   4   5   4    1.83    1.40
   4   5   5   20.32    3.23
   4   5   6   41.07    4.13
   4   5   6   58.73    4.72
   4   5   7    7.04    1.42
   4   5   7    8.99    1.65
   4   6  -9    0.89    0.53
   4   6  -8   26.50    2.30
   4   6  -7    0.62    0.71
   4   6  -6  103.61    5.78
   4   6  -6   85.95    4.56
   4   6  -5   77.08    4.92
  -4  -6   5   83.36    5.09
  -4  -6   4    3.43    1.38
   4   6  -4    4.26    1.44
   4   6  -4    4.52    1.54
   4   6  -3   27.94    3.27
   4   6  -3   36.80    3.75
  -4  -6   3   26.24    3.24
   4   6  -2  362.23   12.42
   4   6  -2  318.27   12.61
   4   6  -1    8.29    1.80
  -4  -6   0  584.29   17.40
   4   6   0  568.39   17.68
  -4  -6  -1   36.20    3.55
   4   6   1   39.75    3.75
   4   6   1   34.14    3.82
  -4  -6  -2   -0.17    1.00
   4   6   2    0.72    0.88
   4   6   2    0.25    0.96
   4   6   3   26.37    3.37
  -4  -6  -3   25.87    2.51
   4   6   4   24.18    3.07
   4   6   5   12.38    2.02
   4   6   6    8.95    1.43
   4   7  -8   13.27    1.30
   4   7  -7   39.13    2.64
   4   7  -6    0.92    0.74
   4   7  -5   41.48    3.01
   4   7  -4   22.99    2.52
   4   7  -4   20.23    2.39
  -4  -7   4   21.78    2.48
  -4  -7   3   30.61    3.04
   4   7  -3   28.76    2.80
   4   7  -3   30.52    3.06
   4   7  -2   40.86    3.20
   4   7  -2   39.04    3.53
  -4  -7   1   20.37    2.58
  -4  -7   0    0.17    0.89
   4   7   0    1.05    0.96
  -4  -7  -1   13.81    1.99
   4   7   1   15.54    2.07
  -4  -7  -2    3.24    0.99
   4   7   4    0.50    0.51
   4   8  -5   39.26    2.33
   4   8  -4   12.46    1.42
  -4  -8   3    9.76    1.44
   4   8  -3   12.21    1.54
   4   8  -2   43.32    2.97
   4   8  -1   24.49    2.16
  -4  -8   1   31.74    2.50
   4   8   0   -0.23    0.50
   4   8   0   -0.10    0.51
  -4  -8   0    0.69    0.65
   4   8   1   28.26    2.27
   4   8   2   14.28    1.48
  -5  12   1    1.91    0.63
  -5  12   0    5.74    1.05
  -5  12  -1   83.43    3.93
  -5  11   4  125.96    5.28
  -5  11   3   64.77    3.22
  -5  11   3   69.67    4.24
  -5  11   2   42.05    3.53
  -5  11   1   90.48    5.78
  -5  11   0   38.56    3.88
   5 -11   1   14.48    1.84
  -5  11  -1   12.20    2.37
  -5  11  -2   27.28    3.18
  -5  11  -2   32.60    2.90
   5 -11   2   32.62    2.89
  -5  11  -3    9.65    1.85
  -5  11  -3   10.32    1.68
   5 -11   3   13.43    1.90
  -5  11  -4   27.48    2.62
   5 -11   4   39.15    3.12
   5 -11   5   21.16    2.16
  -5  10   6   48.42    3.17
  -5  10   6   44.72    2.80
  -5  10   5  261.17    8.79
  -5  10   5  258.69    9.48
  -5  10   4    0.15    0.66
  -5  10   4   -0.20    0.93
  -5  10   3   71.25    4.53
  -5  10   3   71.28    5.27
  -5  10   2  308.76   12.70
  -5  10   2  300.08   10.92
  -5  10   2  315.16   10.56
  -5  10   1   47.79    4.86
  -5  10   1   52.93    4.34
  -5  10   1   46.34    3.51
  -5  10   0   77.58    5.45
  -5  10  -1   93.11    6.96
  -5  10  -1   91.99    6.06
  -5  10  -2  150.54    8.95
  -5  10  -2  167.17    7.10
   5 -10   3   64.78    4.93
  -5  10  -3   62.63    5.44
  -5  10  -3   59.21    4.10
  -5  10  -4   28.59    3.49
  -5  10  -4   35.86    3.10
   5 -10   4   37.57    3.73
   5 -10   5   21.88    2.78
  -5  10  -5   14.58    2.21
  -5  10  -5   20.87    2.29
   5 -10   6   21.10    2.54
  -5  10  -6   21.22    2.13
   5 -10   7   11.13    1.60
  -5   9   7   31.82    2.88
  -5   9   7   38.26    2.97
  -5   9   6  119.84    6.52
  -5   9   6  121.89    6.22
  -5   9   5   24.72    2.92
  -5   9   5   26.03    3.32
  -5   9   4  160.28    7.85
  -5   9   4  175.87    8.24
  -5   9   4  175.25    9.13
  -5   9   3  308.85   12.83
  -5   9   3  286.92   11.55
  -5   9   3  279.25   11.01
  -5   9   2   15.36    3.05
  -5   9   2   13.12    2.48
  -5   9   2   13.79    2.32
  -5   9   1  146.63    9.37
  -5   9   1  162.08    8.72
  -5   9   1  152.50    6.92
  -5   9   1  161.33    7.45
  -5   9   0  302.56   10.87
  -5   9  -1   34.06    4.66
  -5   9  -1   42.42    3.76
  -5   9  -2   45.18    5.24
  -5   9  -2   48.45    4.09
  -5   9  -3  159.49    9.71
  -5   9  -3  173.25    8.15
   5  -9   3  179.73    9.21
  -5   9  -4    3.83    1.47
   5  -9   4    5.56    1.93
  -5   9  -4    3.58    1.76
  -5   9  -4    6.07    1.47
   5  -9   5    9.47    2.21
  -5   9  -5    9.05    2.15
  -5   9  -5    9.18    1.76
   5  -9   6   70.15    5.28
  -5   9  -6   74.01    4.44
  -5   9  -6   68.86    4.45
  -5   9  -7    0.40    0.74
   5  -9   7    0.20    0.77
  -5   9  -7    0.13    0.68
  -5   9  -8    0.46    0.52
   5  -9   8   -0.14    0.55
  -5   9  -8   -0.10    0.58
  -5   8   8  202.45    8.08
  -5   8   7   52.61    4.63
  -5   8   7   62.50    4.64
  -5   8   7   55.57    4.54
  -5   8   6  100.49    6.84
  -5   8   6  105.04    6.83
  -5   8   6   93.04    5.78
  -5   8   6  104.17    6.47
  -5   8   5  216.46   10.85
  -5   8   5  240.80   11.20
  -5   8   5  232.72   10.18
  -5   8   5  233.70   10.35
  -5   8   4  142.54    8.60
  -5   8   4  151.26    8.40
  -5   8   4  153.28    8.40
  -5   8   4  156.12    8.26
  -5   8   4  165.84    9.32
  -5   8   3    0.28    0.90
  -5   8   3   -0.30    0.83
  -5   8   3    2.73    1.57
  -5   8   3    0.70    1.00
  -5   8   2  276.80   12.98
  -5   8   2  276.90   12.07
  -5   8   2  273.66   10.13
  -5   8   2  269.63   10.77
  -5   8   1  250.49   12.55
  -5   8   1  241.69   11.32
  -5   8   1  242.75    9.72
  -5   8   0   32.95    3.40
  -5   8  -1   75.96    5.33
  -5   8  -2   51.27    3.89
  -5   8  -2   51.49    4.41
  -5   8  -3  433.56   27.19
   5  -8   3  476.53   16.67
  -5   8  -3  445.97   14.26
  -5   8  -3  468.25   15.36
   5  -8   4   33.47    4.04
  -5   8  -4   29.82    3.20
  -5   8  -5  287.84   10.93
  -5   8  -5  284.21   11.07
   5  -8   5  302.71   13.01
  -5   8  -6   27.93    3.06
  -5   8  -6   25.69    2.97
   5  -8   6   30.09    3.88
  -5   8  -7   21.00    2.51
   5  -8   7   28.35    3.49
  -5   8  -8    8.91    1.48
  -5   8  -8    7.91    1.53
  -5   8  -9   20.78    1.83
  -5   8  -9   17.99    1.51
  -5   7   9  159.83    7.40
  -5   7   8   13.15    2.46
  -5   7   8   16.93    2.26
  -5   7   8   16.31    2.55
  -5   7   7  406.35   15.78
  -5   7   7  428.17   15.29
  -5   7   7  396.62   13.80
  -5   7   7  406.99   14.54
  -5   7   6  134.66    8.83
  -5   7   6  137.73    7.81
  -5   7   6  137.62    8.03
  -5   7   6  131.11    8.20
  -5   7   5    8.51    2.52
  -5   7   5    6.25    1.90
  -5   7   5   12.32    2.46
  -5   7   5    8.94    2.37
  -5   7   4   43.79    4.81
  -5   7   4   46.23    4.58
  -5   7   4   49.90    4.85
  -5   7   4   48.04    4.58
  -5   7   3  550.01   17.63
  -5   7   3  557.10   17.30
  -5   7   3  534.36   18.40
  -5   7   3  521.00   17.96
  -5   7   3  514.57   16.78
  -5   7   3  518.65   19.92
  -5   7   2  417.08   14.95
  -5   7   2  383.98   14.25
  -5   7   2  388.49   13.05
  -5   7   2  390.15   13.27
  -5   7   2  390.90   16.20
  -5   7   1   87.75    6.35
  -5   7   1   82.44    6.02
  -5   7   1   77.60    5.21
  -5   7   1   71.71    6.27
  -5   7   0  307.31   12.94
  -5   7   0  320.64   12.96
  -5   7   0  322.37   11.73
  -5   7  -1  130.72   13.93
  -5   7  -1  121.38    7.64
  -5   7  -1  119.45    7.49
  -5   7  -1  118.46    5.97
  -5   7  -1  123.79    6.85
  -5   7  -2  360.37   14.04
  -5   7  -2  346.18   13.57
  -5   7  -2  359.12   12.04
   5  -7   3  479.00   16.68
  -5   7  -3  450.43   16.11
  -5   7  -3  463.25   16.00
  -5   7  -3  445.02   14.55
  -5   7  -3  491.36   15.49
  -5   7  -4  811.23   21.89
  -5   7  -4  828.37   22.33
   5  -7   4  833.82   24.41
   5  -7   5   19.26    3.24
   5  -7   5   12.63    2.30
  -5   7  -5   16.16    2.62
  -5   7  -5   13.44    2.34
  -5   7  -6   69.46    4.96
   5  -7   6   61.42    5.65
  -5   7  -7   66.55    4.77
  -5   7  -7   65.42    4.50
   5  -7   7   70.95    5.83
  -5   7  -8    2.09    1.00
  -5   7  -8    2.45    1.12
  -5   7  -9    5.04    0.98
  -5   7  -9    5.30    1.19
  -5   6   9   -1.35    2.87
  -5   6   9    1.47    0.85
  -5   6   8  226.11   10.24
  -5   6   8  222.16   11.14
  -5   6   8  216.94   17.84
  -5   6   8  222.10    9.73
  -5   6   8  236.72   10.68
  -5   6   7  203.12   10.21
  -5   6   7  193.43   10.81
  -5   6   7  190.68   10.02
  -5   6   7  199.87   18.14
  -5   6   7  195.35    9.66
  -5   6   7  179.61    9.54
  -5   6   6   12.52    2.71
  -5   6   6   19.73    3.32
  -5   6   6   15.06    3.08
  -5   6   6   11.38    4.93
  -5   6   6   15.89    2.88
  -5   6   6   14.14    2.68
  -5   6   5  203.76    8.46
  -5   6   5  203.33   18.56
  -5   6   5  200.77   10.16
  -5   6   5  196.21    9.75
  -5   6   5  199.53   10.40
  -5   6   5  193.63   11.74
  -5   6   4  808.12   22.43
  -5   6   4  857.23   22.35
  -5   6   4  831.77   23.14
   5  -6  -4  816.80   21.00
  -5   6   4  834.55   24.38
  -5   6   4  791.85   22.92
  -5   6   4  791.44   26.53
  -5   6   3   87.24    5.98
  -5   6   3  104.17    6.36
  -5   6   3   92.59    5.63
  -5   6   3   92.06    5.90
  -5   6   3   99.76    7.81
  -5   6   2  781.66   22.22
  -5   6   2  781.06   22.03
  -5   6   2  786.09   22.72
  -5   6   2  800.76   20.91
  -5   6   2  747.97   20.40
  -5   6   2  720.12   24.13
  -5   6   1  595.79   19.00
  -5   6   1  645.99   19.34
  -5   6   1  651.79   18.05
  -5   6   1  590.12   20.37
  -5   6   0  220.86   17.02
  -5   6   0  202.51    9.72
  -5   6   0  195.79    9.49
  -5   6   0  192.45    7.62
  -5   6   0  204.97    8.73
  -5   6   0  219.54   10.62
  -5   6  -1  321.52   21.20
  -5   6  -1  302.82   12.42
  -5   6  -1  311.33   12.43
  -5   6  -1  337.51   11.05
  -5   6  -2  419.33   24.79
  -5   6  -2  405.77   14.87
  -5   6  -2  438.58   15.16
   5  -6   2  440.61   14.97
  -5   6  -2  424.66   13.49
  -5   6  -2  431.36   13.98
   5  -6   3  242.47   10.80
  -5   6  -3  232.79   18.57
  -5   6  -3  231.66   10.32
  -5   6  -3  223.91   10.03
   5  -6   3  200.12    8.86
  -5   6  -3  216.08    9.15
  -5   6  -3  213.93    9.27
  -5   6  -4   65.88    5.17
  -5   6  -4   68.65    5.07
   5  -6   4   74.69    4.64
   5  -6   4   80.65    6.20
   5  -6   4   72.63    5.29
  -5   6  -4   75.21    5.26
  -5   6  -4   71.08    5.06
  -5   6  -5  225.41   18.98
   5  -6   5  222.52   10.28
  -5   6  -5  247.98    9.95
   5  -6   5  248.47   11.91
   5  -6   6   74.19    5.80
  -5   6  -6   82.08    5.60
  -5   6  -6   87.67    5.50
   5  -6   6   88.30    6.94
  -5   6  -7    1.25    0.90
  -5   6  -7    1.46    1.15
  -5   6  -8   26.81    2.92
  -5   6  -8   26.02    2.56
   5  -6   9    8.95    1.62
  -5   6  -9   12.39    1.77
  -5   6 -10    2.57    0.65
  -5   5  10   88.83    5.51
  -5   5  10   77.60    5.10
  -5   5   9  139.31    8.29
  -5   5   9  142.36    8.73
  -5   5   9  125.89   12.98
  -5   5   9  154.41    7.65
  -5   5   9  146.83    8.17
  -5   5   8   82.40    6.61
  -5   5   8   95.70    6.82
  -5   5   8   83.13    7.22
  -5   5   8   69.83   10.85
  -5   5   8   84.20    6.13
  -5   5   7    4.28    1.94
  -5   5   7    1.97    1.74
  -5   5   7    7.99    4.60
  -5   5   7   12.01    2.56
  -5   5   7    3.34    1.63
  -5   5   6  718.47   24.64
  -5   5   6  723.12   36.12
  -5   5   6  699.65   21.86
  -5   5   6  726.56   22.55
  -5   5   5  440.01   14.19
  -5   5   5  471.08   14.26
  -5   5   5  468.61   18.25
  -5   5   5  481.55   27.96
  -5   5   5  458.73   16.49
  -5   5   5  444.58   15.86
  -5   5   5  472.53   16.74
  -5   5   5  465.18   18.84
  -5   5   4   41.47    3.86
  -5   5   4   40.67    3.76
  -5   5   4   37.58    4.93
  -5   5   4   48.58    8.40
  -5   5   4   46.29    4.58
  -5   5   4   39.54    3.94
   5  -5  -4   41.60    3.42
  -5   5   4   36.42    4.01
  -5   5   3  241.45   10.10
  -5   5   3  237.86    9.96
  -5   5   3  244.96   10.70
  -5   5   3  230.06    9.52
  -5   5   3  207.43   11.52
  -5   5   3  249.21   10.61
  -5   5   2 1566.22   36.74
  -5   5   2 1584.08   36.90
  -5   5   2 1574.37   37.25
  -5   5   2 1568.77   35.52
  -5   5   2 1537.43   39.65
  -5   5   1  168.37    7.61
  -5   5   1  170.61    9.47
  -5   5   0   59.04    8.28
  -5   5   0   63.20    4.96
  -5   5   0   61.89    4.01
  -5   5   0   59.12    4.31
  -5   5   0   57.14    5.28
  -5   5  -1 2159.64   60.23
  -5   5  -1 1983.86   44.56
  -5   5  -1 1967.54   44.50
   5  -5   1 1922.97   41.18
  -5   5  -1 1994.39   42.13
  -5   5  -1 2021.00   42.84
  -5   5  -1 1826.17   45.03
   5  -5   1 2002.69   43.24
  -5   5  -2   23.51    5.65
  -5   5  -2   18.39    2.80
  -5   5  -2   20.53    2.84
   5  -5   2   21.03    2.86
   5  -5   2   17.82    2.29
  -5   5  -2   20.06    2.53
  -5   5  -2   22.33    2.66
  -5   5  -3    2.32    2.33
  -5   5  -3    5.04    1.43
   5  -5   3    1.01    1.28
  -5   5  -3    0.23    0.80
  -5   5  -3    0.88    1.05
   5  -5   3    0.20    0.74
  -5   5  -3    0.39    0.92
   5  -5   3    0.64    0.74
   5  -5   4  310.07   12.90
  -5   5  -4  291.88   11.28
  -5   5  -4  275.76   10.90
   5  -5   4  288.36   11.50
  -5   5  -4  292.53   10.75
   5  -5   4  303.64   10.15
  -5   5  -4  293.78   20.54
   5  -5   5  260.49   11.37
  -5   5  -5  282.00   11.13
  -5   5  -5  283.11   10.54
   5  -5   5  287.61   12.94
  -5   5  -5  314.38   21.66
   5  -5   6   64.11    5.40
  -5   5  -6   61.97    4.84
  -5   5  -6   64.57    4.53
   5  -5   6   58.74    5.80
  -5   5  -6   53.41    9.20
  -5   5  -7   62.62    4.82
  -5   5  -7   65.26    4.34
  -5   5  -8   24.40    2.84
  -5   5  -8   20.62    2.20
   5  -5   9   16.05    2.64
  -5   5  -9   16.91    2.06
   5  -5  10    0.13    0.65
   5  -5  10    0.30    0.64
  -5   5 -10    0.07    0.41
  -5   4  11   51.47    4.04
  -5   4  10  231.97    9.88
  -5   4  10  229.96   11.02
  -5   4   9   27.88    3.88
  -5   4   9   25.08    3.66
  -5   4   9   24.33    4.14
  -5   4   9   27.29    6.53
  -5   4   8  262.91   12.79
  -5   4   8  251.33   13.87
  -5   4   8  284.06   21.19
  -5   4   7  838.63   28.23
  -5   4   7  832.29   38.60
  -5   4   7  825.92   24.49
  -5   4   7  789.29   25.70
  -5   4   7  818.31   24.69
  -5   4   7  858.68   27.42
  -5   4   6  107.02    7.15
  -5   4   6   91.42    8.04
  -5   4   6   92.98   12.14
  -5   4   6  100.72    6.96
  -5   4   6   87.51    6.44
  -5   4   6   80.54    7.28
  -5   4   5  207.31    8.58
   5  -4  -5  195.52    7.81
  -5   4   5  210.01    8.50
  -5   4   5  196.03   11.73
  -5   4   5  218.50   17.49
  -5   4   5  208.80   10.15
  -5   4   5  185.26    9.37
  -5   4   5  208.23    9.96
  -5   4   4  843.22   22.05
  -5   4   4  829.83   22.91
  -5   4   4  830.04   25.92
  -5   4   4  832.46   34.08
   5  -4  -4  806.26   20.54
  -5   4   4  838.66   23.34
  -5   4   4  787.43   22.27
  -5   4   4  803.07   25.65
  -5   4   3 1134.40   28.10
  -5   4   3 1143.39   28.70
  -5   4   3 1090.32   26.89
  -5   4   3 1110.99   31.26
  -5   4   3 1152.50   27.80
   5  -4  -3 1100.38   26.20
  -5   4   2   13.80    2.35
   5  -4  -2   12.99    1.85
  -5   4   2   11.99    2.18
  -5   4   2   13.82    2.32
  -5   4   2   12.61    2.80
   5  -4  -1 1105.57   25.50
  -5   4   1 1096.43   25.93
  -5   4   0  297.37   17.16
  -5   4   0  281.46   11.09
  -5   4   0  283.11   11.04
  -5   4   0  263.88   11.78
  -5   4   0  289.49    9.75
  -5   4   0  295.70   10.25
  -5   4  -1  974.02   34.49
  -5   4  -1  890.71   24.09
  -5   4  -1  914.82   24.18
   5  -4   1  931.85   22.52
  -5   4  -1  936.67   22.64
  -5   4  -1  936.45   22.76
  -5   4  -2  225.78    9.82
   5  -4   2  231.61    8.63
  -5   4  -2  241.86   10.09
   5  -4   2  243.63    9.31
  -5   4  -2  233.82    9.11
  -5   4  -2  245.45    9.11
   5  -4   2  239.17   10.02
  -5   4  -2  213.17   10.14
  -5   4  -3 1059.72   27.04
   5  -4   3 1022.24   26.52
   5  -4   3 1108.14   25.29
  -5   4  -3 1058.24   25.57
   5  -4   3 1083.59   28.23
  -5   4  -3 1078.63   39.34
  -5   4  -4  114.78    6.51
  -5   4  -4  120.70    6.60
   5  -4   4  136.96    6.09
   5  -4   4  124.84    7.18
  -5   4  -4  128.92    6.85
  -5   4  -4  136.50    6.50
   5  -4   4  121.21    7.68
  -5   4  -4  123.58   12.46
  -5   4  -5   12.70    2.05
  -5   4  -5   17.19    2.60
   5  -4   5   21.01    3.41
   5  -4   6  172.66    9.30
  -5   4  -6  172.70    8.31
  -5   4  -6  175.45    7.47
   5  -4   6  193.63   10.53
   5  -4   7   29.60    3.72
   5  -4   7   28.00    3.67
  -5   4  -7   31.43    3.33
   5  -4   8    5.90    1.79
  -5   4  -8    6.06    1.54
   5  -4   9    6.24    1.82
   5  -4   9    6.36    1.57
  -5   4  -9    4.68    1.18
   5  -4  10   16.60    2.25
  -5   3  11   63.32    5.01
  -5   3  11   66.46    4.55
  -5   3  10    0.78    1.06
  -5   3  10    0.33    1.36
  -5   3   9  360.69   15.16
  -5   3   9  384.71   23.45
  -5   3   9  395.61   14.29
  -5   3   8   70.16    6.49
  -5   3   8   70.06    5.41
  -5   3   8   62.07    7.05
  -5   3   8   90.16   11.92
  -5   3   8   81.03    6.28
  -5   3   7   66.54    5.39
  -5   3   7   70.64    7.54
  -5   3   7   77.33   11.20
  -5   3   7   92.61    6.68
  -5   3   7   91.17    7.50
  -5   3   6   83.83    7.96
  -5   3   6   80.64   10.82
  -5   3   6   91.59    6.56
  -5   3   6   83.94    6.22
  -5   3   6   83.76    7.21
  -5   3   5 1078.02   26.30
  -5   3   5 1120.25   28.68
   5  -3  -5 1055.12   25.09
  -5   3   5 1066.46   31.06
  -5   3   5 1070.45   27.90
  -5   3   4  365.54   12.64
   5  -3  -4  378.59   11.82
  -5   3   4  365.65   12.46
  -5   3   4  384.60   13.65
  -5   3   3  333.53   11.93
  -5   3   3  314.81   11.57
   5  -3  -3  338.42   10.94
  -5   3   3  339.59   12.19
  -5   3   3  335.60   14.13
  -5   3   2  408.28   13.69
  -5   3   2  410.29   15.58
  -5   3   2  406.13   13.59
   5  -3  -2  413.32   12.51
  -5   3   2  425.03   13.55
  -5   3   2  421.15   13.01
  -5   3   1  441.11   16.05
   5  -3  -1  473.58   13.56
  -5   3   1  473.42   13.79
  -5   3   0    7.45    1.67
  -5   3   0    7.80    2.59
  -5   3   0    6.21    1.66
  -5   3   0   13.55    1.93
  -5   3   0    8.91    2.17
  -5   3  -1  512.90   16.26
  -5   3  -1  534.71   22.59
   5  -3   1  555.06   14.98
  -5   3  -1  552.50   15.34
  -5   3  -1  528.89   16.42
  -5   3  -1  553.00   15.10
  -5   3  -1  512.95   17.42
  -5   3  -2 1461.64   43.51
  -5   3  -2 1363.32   33.24
  -5   3  -2 1465.49   33.24
  -5   3  -2 1429.20   34.94
   5  -3   2 1427.98   31.58
  -5   3  -2 1411.83   31.43
   5  -3   2 1372.46   33.68
  -5   3  -3   20.70    4.91
  -5   3  -3   26.56    3.11
   5  -3   3   31.89    2.86
   5  -3   3   29.35    3.29
  -5   3  -3   23.55    2.80
  -5   3  -3   25.16    2.62
   5  -3   3   25.04    3.35
  -5   3  -3   27.44    3.50
  -5   3  -4  546.28   16.69
  -5   3  -4  575.24   18.37
   5  -3   4  556.82   17.88
  -5   3  -4  558.59   16.75
   5  -3   4  616.96   15.65
  -5   3  -4  551.83   15.42
   5  -3   4  565.27   18.97
   5  -3   5   42.07    4.35
  -5   3  -5   35.20    3.59
   5  -3   5   34.65    4.29
   5  -3   6   82.98    6.30
  -5   3  -6   76.35    5.25
  -5   3  -7  152.71    7.50
   5  -3   8   25.41    3.75
   5  -3   8   25.54    3.58
  -5   3  -8   26.50    2.82
   5  -3   9   13.80    2.57
   5  -3   9   11.82    2.28
  -5   3  -9    9.42    1.42
   5  -3  10    1.30    0.87
   5  -3  10    2.61    0.98
  -5   2  12   28.94    2.50
  -5   2  11    0.94    0.90
  -5   2  11    0.25    1.12
  -5   2  10  162.81    8.87
  -5   2  10  171.13    8.09
  -5   2   9   66.41    6.15
  -5   2   9   70.46    5.57
  -5   2   9   82.80    6.07
  -5   2   8   34.81    4.03
  -5   2   8   39.10    4.36
  -5   2   8   35.59    4.68
  -5   2   8   39.26    4.73
  -5   2   7    7.22    2.91
  -5   2   7   12.44    2.59
  -5   2   7   15.77    3.29
  -5   2   6 1038.08   28.02
  -5   2   6 1039.05   30.34
  -5   2   5 1066.13   26.48
  -5   2   5 1096.79   26.82
   5  -2  -5 1107.37   25.89
  -5   2   5 1145.30   28.81
  -5   2   5 1139.21   31.64
  -5   2   4 1401.21   32.86
  -5   2   4 1419.26   36.79
  -5   2   4 1403.39   32.66
  -5   2   4 1395.90   33.43
   5  -2  -4 1421.69   31.65
  -5   2   3 1405.11   33.17
  -5   2   3 1361.31   32.84
  -5   2   3 1382.55   32.64
  -5   2   3 1356.85   35.95
  -5   2   2  419.49   13.90
   5  -2  -2  428.79   12.92
   5  -2  -1  553.14   15.03
   5  -2  -1  517.32   14.65
  -5   2   1  496.35   17.16
  -5   2   0  978.95   29.45
  -5   2   0 1006.04   25.48
  -5   2   0  997.63   23.82
  -5   2   0  970.81   26.81
  -5   2  -1  125.34    9.25
   5  -2   1  137.08    6.25
  -5   2  -1  144.82    7.35
  -5   2  -1  121.21    7.45
  -5   2  -2  386.82   13.09
  -5   2  -2  374.40   12.29
   5  -2   2  381.33   11.87
  -5   2  -2  372.64   14.22
  -5   2  -2  394.73   13.30
  -5   2  -2  360.64   17.27
  -5   2  -3  302.57   11.38
  -5   2  -3  306.77   11.36
  -5   2  -3  320.21   12.98
  -5   2  -3  300.68   10.95
   5  -2   3  323.62   10.38
  -5   2  -4   20.13    2.60
   5  -2   4   25.52    2.52
  -5   2  -4   24.20    2.87
  -5   2  -4   22.96    3.40
  -5   2  -5   93.25    5.75
  -5   2  -5   99.66    6.91
   5  -2   6    0.35    1.22
  -5   2  -6   -0.20    0.88
  -5   2  -6    0.27    1.03
   5  -2   7   13.61    3.00
  -5   2  -7   13.48    2.15
   5  -2   8    0.62    1.14
   5  -2   8    0.30    1.21
  -5   2  -8    0.14    0.74
   5  -2   9    8.48    2.05
   5  -2   9    4.95    1.64
   5  -2  10   17.90    2.24
   5  -2  10   17.82    2.24
  -5   1  12   10.33    1.53
  -5   1  11  106.16    5.74
  -5   1  11  103.86    6.79
  -5   1  11  103.34    5.51
  -5   1  10    6.50    1.92
  -5   1  10    6.20    2.50
  -5   1  10    9.46    2.25
  -5   1   9   49.89    5.14
  -5   1   9   47.82    4.73
  -5   1   9   56.60    6.59
  -5   1   8  234.50   14.40
  -5   1   8  228.12   12.16
  -5   1   8  269.32   11.66
  -5   1   7  826.09   23.78
  -5   1   7  796.96   24.79
  -5   1   6  177.00    9.03
  -5   1   6  183.63   10.27
  -5   1   5  646.93   18.17
  -5   1   5  636.76   17.92
   5  -1  -5  618.41   17.24
  -5   1   5  640.69   18.97
  -5   1   5  659.21   21.57
   5  -1  -4 1219.93   28.19
  -5   1   4 1188.92   28.81
  -5   1   4 1146.36   31.86
  -5   1   3    3.00    1.22
   5  -1  -3    1.83    0.94
  -5   1   3    0.28    1.26
  -5   1   2 1136.94   28.08
   5  -1  -2 1216.04   27.68
  -5   1   2 1163.22   30.96
   5  -1  -1 1255.56   29.80
   5  -1  -1 1350.87   30.06
  -5   1   0  301.85   11.08
   5  -1   0  320.76   11.65
  -5   1   0  321.96   12.86
  -5   1  -1  212.85    9.01
   5  -1   1  235.43   10.31
   5  -1   1  226.00    8.65
  -5   1  -1  223.96   10.54
  -5   1  -2 1121.14   27.78
   5  -1   2 1168.60   30.05
   5  -1   2 1158.46   27.00
  -5   1  -2 1160.47   27.57
  -5   1  -3  321.73   11.80
   5  -1   3  321.36   13.36
   5  -1   3  315.57   10.58
  -5   1  -3  292.81   10.91
   5  -1   4  108.61    5.47
  -5   1  -4   95.40    5.72
   5  -1   4  108.84    7.68
  -5   1  -4   95.24    5.79
   5  -1   5  503.69   18.68
   5  -1   5  473.52   18.55
  -5   1  -5  472.22   14.86
   5  -1   6   51.92    5.56
  -5   1  -6   45.84    3.83
   5  -1   7   -0.26    0.96
  -5   1  -7   12.69    2.51
   5  -1   8    6.80    2.06
   5  -1   9    8.88    1.92
   5  -1   9    9.53    2.16
   5  -1  10   15.63    1.84
   5  -1  10   17.92    2.15
  -5   0  11    8.77    1.73
  -5   0  11    9.18    2.09
  -5   0  10   68.55    5.13
  -5   0  10   71.30    5.34
  -5   0  10   61.86    6.17
  -5   0   9  128.29    7.97
  -5   0   9  123.22    7.75
  -5   0   9  106.56    8.99
  -5   0   8    1.29    1.48
  -5   0   8    0.49    1.69
  -5   0   7  206.01   10.20
  -5   0   7  196.15    9.56
  -5   0   6  307.15   12.13
  -5   0   6  335.72   13.91
  -5   0   5  360.81   12.25
   5   0  -5  361.68   12.21
  -5   0   5  380.08   12.88
  -5   0   5  368.04   14.89
   5   0  -5  348.45   12.01
   5   0  -4   32.08    3.23
  -5   0   4   32.70    3.35
  -5   0   4   34.65    4.21
   5   0  -3 1512.88   34.62
  -5   0   3 1500.25   34.79
  -5   0   3 1523.87   38.04
  -5   0   2  236.45    9.62
   5   0  -2  241.84    9.56
  -5   0   2  249.68   11.40
   5   0  -1   73.52    4.80
  -5   0   1   71.75    4.93
   5   0  -1   66.42    4.69
  -5   0   1   70.64    5.77
  -5   0   0 1180.48   28.58
   5   0   0 1172.04   29.59
  -5   0  -1  483.79   15.09
   5   0   1  459.20   15.86
   5   0   1  495.28   14.71
   5   0   1  467.09   16.38
   5   0   2    3.31    1.48
   5   0   2    1.46    1.08
   5   0   2    3.59    1.31
  -5   0  -3   37.22    3.60
   5   0   3   41.08    3.58
   5   0   3   29.45    4.02
   5   0   3   39.71    4.70
   5   0   3   43.86    3.63
   5   0   4  646.93   17.25
   5   0   4  650.35   21.75
   5   0   4  645.17   22.03
   5   0   4  603.78   16.93
   5   0   5   17.25    3.29
   5   0   5   20.48    3.64
   5   0   6   22.54    3.82
   5   0   6   22.24    3.75
   5   0   7   87.49    6.39
   5   0   8   65.73    5.41
  -5   0  -8   59.54    4.64
   5   0   9   21.66    2.90
   5   0   9   25.39    3.92
   5   0  10   25.72    2.33
   5   0  10   28.60    3.09
  -5  -1  11   65.45    4.63
  -5  -1  10  109.65    7.68
  -5  -1   9    7.32    2.06
  -5  -1   9    4.45    2.23
  -5  -1   9    7.61    1.84
  -5  -1   8   25.35    3.52
  -5  -1   8   26.06    4.81
   5   1  -7  394.08   12.78
  -5  -1   6   30.87    3.15
   5   1  -5  212.41    8.94
  -5  -1   5  200.48    8.73
   5   1  -5  193.78    8.69
  -5  -1   5  205.06   10.42
  -5  -1   4  487.20   15.35
   5   1  -4  490.16   15.57
   5   1  -4  479.75   15.33
  -5  -1   4  492.96   17.43
  -5  -1   3  197.73    8.85
   5   1  -3  186.55    8.69
   5   1  -3  198.30    9.00
  -5  -1   3  184.89    9.85
  -5  -1   2    6.40    1.71
   5   1  -2    8.67    1.84
   5   1  -2    6.85    1.77
  -5  -1   2    6.46    2.13
   5   1  -1  406.94   13.68
  -5  -1   1  401.19   13.49
   5   1  -1  414.03   13.90
   5   1  -1  364.29   13.30
  -5  -1   1  410.23   15.54
   5   1   0   27.36    3.17
   5   1   0   30.48    3.56
  -5  -1   0   21.40    2.81
  -5  -1   0   23.08    3.51
  -5  -1  -1   22.30    2.90
   5   1   1   25.25    2.99
   5   1   1   20.17    3.22
   5   1   1   24.46    2.95
   5   1   2    9.41    1.90
  -5  -1  -2    9.90    2.04
   5   1   2    8.07    2.21
   5   1   2    8.94    2.30
   5   1   2    9.45    1.92
   5   1   3  215.91    8.98
   5   1   3  204.86   11.04
   5   1   3  206.74   11.34
   5   1   3  218.45    9.06
  -5  -1  -3  224.46    9.30
   5   1   4  412.66   16.72
   5   1   4  408.58   16.88
   5   1   4  387.92   12.42
   5   1   5  121.73    8.55
   5   1   5  116.78    8.54
   5   1   6   30.38    4.26
   5   1   6   23.21    3.64
   5   1   7   35.56    4.14
   5   1   8    0.36    1.34
  -5  -1  -8   -0.39    1.01
   5   1   9   74.33    5.70
  -5  -2  11    1.51    0.76
  -5  -2  10    0.40    1.00
  -5  -2  10    0.73    1.11
  -5  -2   9   87.69    6.18
  -5  -2   9   93.90    7.51
   5   2  -8  184.71    7.47
  -5  -2   8  186.00   11.82
   5   2  -7  237.16    9.55
  -5  -2   6  655.40   17.85
   5   2  -6  610.03   18.54
  -5  -2   5  463.09   14.64
   5   2  -5  418.79   14.37
   5   2  -5  441.29   14.47
  -5  -2   4   48.96    4.30
   5   2  -4   53.77    4.59
   5   2  -4   54.81    4.62
  -5  -2   4   48.79    4.79
   5   2  -3  328.14   12.68
  -5  -2   3  356.06   12.79
   5   2  -3  348.23   13.01
  -5  -2   3  344.01   14.02
   5   2  -2 1176.72   30.33
   5   2  -2 1211.33   30.07
  -5  -2   2 1221.66   32.39
  -5  -2   1   61.24    4.83
   5   2  -1   64.77    5.13
   5   2  -1   62.45    5.15
   5   2  -1   71.31    5.28
  -5  -2   1   74.26    6.16
  -5  -2   0    4.19    1.56
   5   2   0    1.70    1.16
   5   2   0    0.69    0.98
   5   2   0    2.09    1.11
   5   2   1  372.62   13.14
  -5  -2  -1  345.97   12.62
   5   2   1  365.76   13.18
  -5  -2  -2  466.17   15.04
   5   2   2  435.32   17.36
   5   2   2  452.18   15.06
   5   2   2  481.11   15.22
   5   2   3  104.33    7.91
   5   2   3  102.15    6.10
  -5  -2  -3  116.48    6.45
   5   2   3  112.80    6.29
   5   2   4   55.04    5.71
   5   2   4   61.72    4.26
   5   2   5  111.91    9.16
   5   2   6    6.26    2.57
   5   2   6    4.88    1.95
   5   2   7    0.36    1.32
   5   2   7    1.47    1.34
   5   2   8   -0.19    0.85
   5   2   8   -0.80    1.19
  -5  -2  -8    1.30    0.96
   5   2   9    0.75    0.67
  -5  -3  10   18.42    2.23
  -5  -3   9   27.45    3.18
  -5  -3   9   23.54    3.32
  -5  -3   8   88.19    7.29
   5   3  -7  166.98    7.76
   5   3  -6  112.49    6.55
   5   3  -6   97.90    5.62
  -5  -3   5   39.02    3.79
   5   3  -5   41.89    4.20
   5   3  -5   39.70    4.11
   5   3  -5   40.56    3.84
  -5  -3   4  203.54    9.17
   5   3  -4  199.63    9.51
   5   3  -4  193.40    9.25
  -5  -3   3   51.44    4.53
   5   3  -3   55.93    4.90
  -5  -3   3   53.58    5.08
   5   3  -3   53.82    4.77
   5   3  -2    1.00    1.07
   5   3  -2    0.26    0.94
  -5  -3   2   -0.29    1.05
  -5  -3   1  299.04   11.87
   5   3  -1  279.53   12.35
   5   3  -1  280.56   11.85
   5   3  -1  301.17   12.23
  -5  -3   0  294.23   11.79
   5   3   0  281.06   12.90
   5   3   0  301.12   12.20
   5   3   0  305.76   12.21
  -5  -3   0  336.19   14.05
  -5  -3  -1   15.10    2.58
   5   3   1   22.77    3.58
   5   3   1   20.20    2.92
   5   3   1   25.88    3.24
  -5  -3  -2  100.55    6.17
   5   3   2   95.79    7.50
   5   3   2  103.17    6.59
   5   3   2  100.33    6.26
  -5  -3  -3  159.33    7.47
   5   3   3  148.57    9.46
   5   3   3  161.61    7.53
   5   3   4    0.68    1.62
   5   3   5    8.63    2.48
   5   3   5    4.66    1.95
   5   3   6   80.29    6.50
   5   3   7   13.02    2.40
   5   3   7   16.56    2.47
  -5  -3  -8    3.03    0.91
   5   3   8    3.01    0.93
   5   4 -10    0.06    0.34
  -5  -4   9    0.84    0.67
  -5  -4   8   58.91    4.38
   5   4  -8   60.82    3.68
  -5  -4   8   52.09    4.66
   5   4  -7   10.35    1.87
   5   4  -6   13.42    2.24
   5   4  -6   14.38    2.06
  -5  -4   5  141.86    7.11
   5   4  -5  145.16    7.67
   5   4  -5  135.17    7.07
  -5  -4   4   82.11    5.60
   5   4  -4   82.52    5.84
   5   4  -4   90.34    6.00
  -5  -4   3   30.12    3.50
   5   4  -3   28.31    3.38
   5   4  -3   20.75    3.21
   5   4  -3   28.18    3.49
   5   4  -2    3.81    1.53
   5   4  -2    1.98    1.21
  -5  -4   1  218.22    9.88
   5   4  -1  223.47    9.63
   5   4  -1  218.96   10.29
  -5  -4   1  249.03   11.35
  -5  -4   0    4.33    1.64
  -5  -4   0    3.54    1.81
   5   4   0    6.62    2.00
   5   4   0    3.11    1.27
   5   4   0    5.18    1.74
  -5  -4  -1   31.12    3.45
   5   4   1   29.26    2.91
   5   4   1   30.13    3.50
  -5  -4  -1   32.65    4.16
  -5  -4  -2  137.65    7.08
   5   4   2  139.26    7.21
  -5  -4  -3   16.57    2.29
   5   4   3   20.69    3.44
   5   4   3   19.13    2.38
   5   4   4   52.93    5.23
   5   4   5   10.16    2.25
   5   4   6    6.39    1.65
  -5  -4  -7    2.75    0.97
   5   5  -8    3.06    0.81
  -5  -5   7   37.16    2.96
   5   5  -7   46.01    3.31
   5   5  -6   47.38    3.15
  -5  -5   5   17.18    2.32
   5   5  -5   16.30    2.41
   5   5  -5   16.41    2.22
  -5  -5   4   35.02    3.44
   5   5  -4   32.31    3.34
  -5  -5   3  354.02   12.41
   5   5  -3  338.91   12.33
   5   5  -3  334.45   12.47
   5   5  -2    4.14    1.58
   5   5  -2    2.77    1.24
  -5  -5   1    6.98    1.86
   5   5  -1    8.53    1.79
  -5  -5   0    0.61    1.15
   5   5   0    1.53    1.14
   5   5   0    1.91    1.21
  -5  -5  -1  198.98    8.46
   5   5   1  186.57    9.36
   5   5   1  194.59    8.58
  -5  -5  -2   88.09    5.08
   5   5   2   86.27    5.05
   5   5   2   85.93    6.15
  -5  -5  -3  132.14    5.59
   5   5   3  128.26    7.42
  -5  -5  -3  140.99    7.54
   5   5   4   59.76    4.64
  -5  -5  -4   70.35    4.93
   5   5   5    3.38    1.10
  -5  -5  -5    4.44    1.32
   5   5   6    0.31    0.53
   5   6  -7    3.06    0.78
   5   6  -6   16.06    1.85
   5   6  -5   14.72    1.78
  -5  -6   4   68.84    4.23
   5   6  -4   63.44    4.05
  -5  -6   3   16.89    2.28
   5   6  -3   15.18    2.15
   5   6  -2   36.25    3.36
  -5  -6   1   75.56    4.73
  -5  -6   0  170.69    7.20
   5   6   0  174.30    7.41
  -5  -6  -1   59.49    3.79
   5   6   1   52.35    3.60
  -5  -6  -2  186.07    6.26
   5   6   2  146.37    6.33
   5   6   3    0.12    0.48
   5   6   4   20.11    1.74
   5   7  -5   37.73    2.19
   5   7  -4    0.32    0.38
   5   7  -4    0.08    0.41
   5   7  -3   36.77    2.55
  -5  -7   3   35.82    2.55
   5   7  -2    1.98    0.77
  -5  -7   1    3.24    0.94
   5   7  -1    3.20    0.81
  -5  -7   0   16.31    1.64
   5   7   0   16.13    1.70
   5   7   0   13.44    1.49
   5   7   1   11.43    1.41
   5   7   2    1.34    0.51
  -6  11   3   14.66    1.65
  -6  11   2  153.62    6.10
  -6  11   1   21.28    2.55
  -6  11   1   25.26    2.40
  -6  11   0   80.80    4.29
  -6  11   0   74.94    4.27
  -6  11  -1   53.02    4.11
  -6  11  -1   52.60    3.50
  -6  11  -2   23.94    2.75
  -6  11  -2   26.48    2.46
  -6  11  -3   49.19    3.55
  -6  11  -3   53.39    3.35
   6 -11   3   43.93    2.65
  -6  11  -4   11.89    1.50
  -6  10   5    5.49    1.20
  -6  10   4  135.47    6.23
  -6  10   3   88.25    4.96
  -6  10   3   91.27    5.33
  -6  10   2   60.68    4.77
  -6  10   2   58.52    4.24
  -6  10   2   59.55    4.42
  -6  10   1   73.42    5.61
  -6  10   1   80.98    5.22
  -6  10   0   86.00    6.37
  -6  10   0  114.81    6.41
  -6  10  -1    7.05    1.42
  -6  10  -1    6.15    1.92
  -6  10  -1    8.71    2.00
  -6  10  -2   39.82    4.25
  -6  10  -2   48.98    3.49
   6 -10   2   45.31    3.51
  -6  10  -3   40.81    4.10
  -6  10  -3   47.56    3.42
   6 -10   3   51.10    3.83
  -6  10  -4   17.10    2.00
   6 -10   4   19.62    2.39
  -6  10  -5   43.00    3.24
   6 -10   5   56.01    3.77
  -6  10  -6   27.27    2.00
   6 -10   6   27.44    2.38
  -6   9   6  127.41    5.95
  -6   9   5   40.48    3.37
  -6   9   5   51.91    3.83
  -6   9   5   50.90    3.54
  -6   9   5   51.74    4.09
  -6   9   4   50.22    4.11
  -6   9   4   43.95    3.44
  -6   9   4   49.00    4.20
  -6   9   3   39.47    3.87
  -6   9   3   42.01    4.05
  -6   9   2  261.27   11.78
  -6   9   2  276.36   11.40
  -6   9   2  275.25   11.29
  -6   9   1   60.32    5.84
  -6   9   1   65.19    5.33
  -6   9   1   72.83    4.59
  -6   9   0   87.98    6.93
  -6   9   0   81.57    5.12
  -6   9  -1  192.25    8.28
   6  -9   1  169.61    7.78
  -6   9  -2   24.83    2.88
   6  -9   2   23.87    2.93
  -6   9  -3    2.22    1.20
   6  -9   3    2.20    1.18
   6  -9   4   64.88    4.93
  -6   9  -5   18.46    2.69
  -6   9  -5   18.74    2.13
  -6   9  -5   20.82    2.38
   6  -9   5   20.21    2.72
  -6   9  -6    0.25    0.62
   6  -9   6    0.36    0.89
  -6   9  -6   -0.29    0.59
  -6   9  -6    0.35    0.64
  -6   9  -7   10.69    1.33
  -6   9  -7   10.43    1.31
  -6   8   7  169.40    7.81
  -6   8   7  186.73    7.24
  -6   8   7  184.15    7.64
  -6   8   6  323.70   12.45
  -6   8   6  345.87   11.83
  -6   8   6  329.23   11.37
  -6   8   5    1.29    1.19
  -6   8   5    0.89    1.10
  -6   8   5    0.76    0.93
  -6   8   5    0.23    0.95
  -6   8   4  442.44   15.13
  -6   8   4  403.94   13.37
  -6   8   4  454.85   15.25
  -6   8   3  351.77   13.56
  -6   8   3  355.22   13.37
  -6   8   3  347.03   11.56
  -6   8   2   20.08    3.03
  -6   8   2   13.52    2.88
  -6   8   1   76.74    5.91
  -6   8   1   90.13    6.50
  -6   8   1   80.05    5.36
  -6   8   1   73.90    6.16
  -6   8   0  458.44   16.57
  -6   8   0  494.21   15.47
  -6   8  -1   26.25    3.56
  -6   8  -1   33.72    3.51
   6  -8   1   26.87    3.17
  -6   8  -2  173.81    9.08
  -6   8  -2  179.67    7.52
   6  -8   2  181.44    8.83
  -6   8  -3   29.06    2.98
  -6   8  -3   31.53    3.38
   6  -8   3   34.22    3.86
  -6   8  -4    3.96    1.40
   6  -8   4    1.55    1.23
  -6   8  -4    4.31    1.31
  -6   8  -5  109.16    5.80
  -6   8  -5  109.52    5.99
   6  -8   5  102.72    6.71
  -6   8  -6    0.91    0.86
   6  -8   6    1.14    1.01
  -6   8  -6    0.93    0.88
  -6   8  -7   82.74    4.18
   6  -8   7   87.54    5.39
  -6   8  -8    0.73    0.45
  -6   8  -8    0.55    0.57
  -6   7   9   55.52    3.59
  -6   7   8   95.57    5.90
  -6   7   8  113.92    5.54
  -6   7   7  111.95    7.14
  -6   7   7  109.19    6.19
  -6   7   7  110.98    6.35
  -6   7   6    7.51    2.25
  -6   7   6   12.77    2.40
  -6   7   6    8.86    1.92
  -6   7   6   15.75    2.66
  -6   7   5  537.79   16.95
  -6   7   5  574.48   18.21
  -6   7   4   89.80    6.34
  -6   7   4   92.50    5.87
  -6   7   4   89.21    5.74
  -6   7   4   82.37    7.36
  -6   7   3    2.59    1.39
  -6   7   3    1.59    1.03
  -6   7   3    0.98    0.95
  -6   7   3    0.81    0.88
   6  -7  -3    0.59    0.63
  -6   7   3   -0.28    1.15
  -6   7   3    0.38    1.05
  -6   7   2  301.45   12.78
  -6   7   2  307.93   12.55
   6  -7  -2  302.45   11.19
  -6   7   2  310.87   12.98
  -6   7   2  304.95   11.45
  -6   7   2  260.01   13.39
  -6   7   1  375.56   14.99
  -6   7   1  435.94   15.57
  -6   7   1  412.28   13.81
  -6   7   1  342.66   15.21
  -6   7   0  138.22    8.50
  -6   7   0  147.26    8.55
  -6   7   0  165.24    8.06
  -6   7   0  138.33    8.70
  -6   7  -1  234.68   11.32
  -6   7  -1  239.20   11.17
  -6   7  -1  237.54    9.05
   6  -7   1  242.54   10.12
  -6   7  -2  155.96   15.36
  -6   7  -2  151.60    8.75
  -6   7  -2  149.86    8.50
   6  -7   2  147.07    8.08
   6  -7   2  160.52    7.59
  -6   7  -2  143.41    7.09
  -6   7  -2  150.13    7.75
   6  -7   3   43.12    3.75
  -6   7  -3   48.08    4.52
  -6   7  -3   47.62    4.05
  -6   7  -3   41.77    3.95
   6  -7   3   46.66    4.57
  -6   7  -4   36.06    3.74
   6  -7   4   50.68    4.87
  -6   7  -4   49.47    4.17
  -6   7  -4   50.04    4.27
  -6   7  -5  405.07   13.56
  -6   7  -5  433.80   13.64
   6  -7   5  404.58   15.42
  -6   7  -6  145.53    6.71
   6  -7   6  149.50    8.40
  -6   7  -7   54.70    3.82
  -6   7  -7   53.20    3.46
  -6   7  -8   21.11    2.09
  -6   7  -8   17.29    1.56
   6  -7   9    1.02    0.66
  -6   7  -9    1.01    0.48
  -6   6   9  109.19    5.26
  -6   6   8   29.90    3.33
  -6   6   8   31.07    3.75
  -6   6   7  114.67    7.23
  -6   6   7  117.06    6.88
  -6   6   6  441.09   16.50
  -6   6   6  465.52   16.17
  -6   6   6  447.40   15.64
  -6   6   6  449.93   18.47
  -6   6   5    8.52    1.74
  -6   6   5   15.70    2.87
  -6   6   5   11.58    2.25
  -6   6   5   12.77    2.51
  -6   6   5    8.95    2.75
  -6   6   4    9.14    2.12
   6  -6  -4    9.26    1.73
  -6   6   4    9.73    2.10
  -6   6   4    9.48    1.99
  -6   6   4    7.09    2.01
  -6   6   4    7.98    1.83
  -6   6   4    8.12    2.60
  -6   6   3   99.47    6.71
  -6   6   3  103.93    6.67
  -6   6   3  106.31    7.11
   6  -6  -3   97.26    5.79
  -6   6   3  106.05    6.64
  -6   6   3  100.00    8.19
   6  -6  -2  553.55   16.35
  -6   6   2  500.82   17.61
  -6   6   2  527.29   17.80
  -6   6   2  542.13   16.83
  -6   6   2  585.86   18.66
  -6   6   2  539.77   16.76
  -6   6   2  495.44   19.60
  -6   6   1   14.64    2.67
   6  -6  -1   11.22    2.00
  -6   6   1   10.96    2.79
  -6   6   0  388.24   15.17
  -6   6   0  378.82   14.89
   6  -6   0  406.49   13.49
  -6   6   0  436.86   12.86
  -6   6   0  421.61   14.03
  -6   6   0  372.84   15.74
  -6   6  -1  311.85   20.87
   6  -6   1  338.57   11.77
  -6   6  -1  311.05   13.15
  -6   6  -1  320.13   13.16
  -6   6  -1  336.03   11.43
  -6   6  -1  326.78   11.96
  -6   6  -1  275.45   12.92
  -6   6  -2   -0.21    0.87
  -6   6  -2    0.84    2.06
   6  -6   2    0.50    0.81
  -6   6  -2    0.84    1.04
  -6   6  -2   -0.80    1.13
  -6   6  -2   -0.20    1.06
   6  -6   2    0.19    0.63
  -6   6  -3  156.49   15.03
  -6   6  -3  129.80    7.88
  -6   6  -3  139.46    7.96
  -6   6  -3  149.74    7.56
   6  -6   3  144.76    7.04
  -6   6  -3  159.31    7.74
   6  -6   3  141.99    8.28
  -6   6  -4   59.66    9.43
  -6   6  -4   64.69    5.01
   6  -6   4   74.92    4.73
  -6   6  -4   67.49    5.02
  -6   6  -4   68.08    4.87
   6  -6   4   77.16    6.16
   6  -6   5   18.95    3.23
  -6   6  -5   11.69    2.09
  -6   6  -6  133.72    6.87
  -6   6  -6  113.61    5.88
   6  -6   6  135.06    8.14
  -6   6  -7   38.34    3.42
  -6   6  -7   39.00    2.95
   6  -6   8   -0.22    0.85
  -6   6  -8    0.53    0.78
   6  -6   9    8.59    1.57
  -6   6  -9    8.06    1.13
  -6   5  10  105.98    5.19
  -6   5  10  101.84    5.08
  -6   5   9    1.27    1.01
  -6   5   9    1.13    1.08
  -6   5   8  277.55   12.23
  -6   5   8  329.40   12.11
  -6   5   7  150.23    9.11
  -6   5   7  137.23    9.05
  -6   5   7  145.13    8.24
  -6   5   7  154.96    8.14
  -6   5   7  147.57    9.72
  -6   5   6   42.10    5.15
  -6   5   6   43.76    4.61
  -6   5   6   49.56    4.64
  -6   5   5  198.93    8.71
  -6   5   5  197.57   11.22
  -6   5   5  205.46   10.22
  -6   5   5  204.22    9.63
  -6   5   5  218.31   12.48
  -6   5   4 1100.71   28.79
  -6   5   4 1155.49   28.81
   6  -5  -4 1117.88   27.30
  -6   5   4 1170.70   30.43
  -6   5   4 1108.21   28.54
  -6   5   4 1128.95   33.52
  -6   5   3   19.28    2.95
  -6   5   3   17.51    2.80
   6  -5  -3   16.80    2.37
  -6   5   3   17.04    2.89
  -6   5   3   12.80    3.14
  -6   5   2   64.33    5.42
  -6   5   2   67.64    6.57
  -6   5   2   73.03    5.61
  -6   5   1  265.56   11.11
  -6   5   1  247.48   10.20
   6  -5  -1  258.61   10.05
  -6   5   1  231.99   12.30
  -6   5   0  126.41    8.63
  -6   5   0  123.39    7.72
  -6   5   0  132.99    6.53
  -6   5   0  139.41    7.24
  -6   5  -1    5.03    1.51
  -6   5  -1    3.57    2.64
  -6   5  -1   -0.28    1.02
   6  -5   1    1.15    0.91
  -6   5  -1    0.75    0.87
  -6   5  -1    0.32    1.11
  -6   5  -2  188.18   15.34
  -6   5  -2  159.83    9.33
  -6   5  -2  177.34    9.24
  -6   5  -2  183.12    9.32
  -6   5  -2  180.32    8.21
   6  -5   2  182.07    8.02
  -6   5  -2  174.37    8.09
   6  -5   2  175.41    8.91
  -6   5  -3  484.36   25.97
  -6   5  -3  456.44   16.10
  -6   5  -3  472.92   16.13
   6  -5   3  497.75   14.70
  -6   5  -3  461.77   15.10
  -6   5  -3  479.57   14.89
   6  -5   3  469.24   16.66
  -6   5  -4   57.06    8.91
   6  -5   4   57.55    4.14
  -6   5  -4   55.65    4.58
  -6   5  -4   51.66    4.10
   6  -5   4   59.77    5.44
  -6   5  -5    0.53    0.84
   6  -5   5   -0.30    1.40
  -6   5  -5   -0.22    1.09
  -6   5  -6   76.89    5.21
  -6   5  -6   70.35    4.32
  -6   5  -7    3.70    1.30
   6  -5   8   42.26    4.12
  -6   5  -8   39.94    3.11
   6  -5   9   18.59    2.35
  -6   4  10   37.94    3.65
  -6   4   9  226.88   10.32
  -6   4   9  224.28   11.06
  -6   4   9  249.18    9.78
  -6   4   8  222.47   12.17
  -6   4   8  266.96   11.04
  -6   4   7   51.46    5.99
  -6   4   7   64.14    5.42
  -6   4   7   61.66    6.21
  -6   4   6  325.84   16.04
  -6   4   6  358.64   13.27
  -6   4   6  336.56   15.95
  -6   4   5  632.49   18.67
  -6   4   5  653.76   18.55
  -6   4   5  603.95   22.84
  -6   4   5  686.55   20.68
  -6   4   5  633.63   18.93
   6  -4  -4   41.39    3.62
  -6   4   4   34.87    3.79
  -6   4   4   36.14    4.05
  -6   4   4   39.64    5.22
  -6   4   3  660.22   20.14
  -6   4   3  637.00   19.96
   6  -4  -3  685.58   18.83
  -6   4   3  707.07   20.52
  -6   4   3  644.94   23.04
  -6   4   2 1058.14   28.36
  -6   4   2 1058.32   28.35
   6  -4  -2 1092.05   26.61
  -6   4   2 1107.77   27.90
  -6   4   2 1032.57   31.24
   6  -4  -1  186.41    8.16
  -6   4   1  177.49    8.49
  -6   4   1  177.07    8.20
  -6   4   1  177.13   10.43
  -6   4   0  787.81   24.80
  -6   4   0  753.08   22.62
  -6   4   0  733.22   22.41
  -6   4   0  814.66   20.75
  -6   4   0  808.24   21.48
  -6   4   0  783.08   20.94
  -6   4  -1  481.38   23.12
  -6   4  -1  452.15   16.18
  -6   4  -1  483.05   16.58
   6  -4   1  477.91   14.73
  -6   4  -1  482.51   14.83
  -6   4  -1  481.02   14.74
  -6   4  -1  467.59   17.58
  -6   4  -2    4.98    1.44
  -6   4  -2    5.79    2.85
   6  -4   2    1.97    1.17
  -6   4  -2    2.32    1.49
  -6   4  -2    2.38    1.38
   6  -4   2    1.85    0.97
  -6   4  -2    3.22    1.29
  -6   4  -2    4.03    1.75
  -6   4  -3   13.13    4.26
   6  -4   3   13.97    2.66
  -6   4  -3   12.25    2.44
   6  -4   3   11.69    1.95
  -6   4  -3   14.38    2.19
  -6   4  -3   11.55    2.64
  -6   4  -4  430.89   23.71
  -6   4  -4  446.65   14.94
  -6   4  -4  466.49   15.12
   6  -4   4  489.13   14.07
  -6   4  -4  447.98   13.78
  -6   4  -5  161.96   14.30
  -6   4  -5  157.80    7.85
  -6   4  -5  150.92    6.66
  -6   4  -6    0.20    0.92
   6  -4   7   71.44    5.96
  -6   4  -7   58.45    4.22
   6  -4   8   14.31    2.60
  -6   4  -8   16.08    1.98
   6  -4   9   -0.17    0.85
  -6   3  11   21.59    2.27
  -6   3  10   95.31    5.70
  -6   3  10   96.65    6.38
  -6   3   9    4.42    1.92
  -6   3   9   10.64    2.06
  -6   3   9    7.52    2.19
  -6   3   8   52.87    5.47
  -6   3   8   61.03    6.56
  -6   3   8   62.53    5.13
  -6   3   8   65.06    5.91
  -6   3   7  699.07   26.03
  -6   3   7  717.22   24.35
  -6   3   6    4.07    2.36
  -6   3   6    0.54    1.10
  -6   3   6    2.31    1.71
  -6   3   5  125.88    9.21
  -6   3   5  119.29    6.92
   6  -3  -5  130.18    6.50
  -6   3   5  117.84    7.33
  -6   3   4    2.61    1.62
  -6   3   4    0.70    1.19
   6  -3  -4    1.32    0.93
  -6   3   4    1.90    1.87
  -6   3   3  576.64   18.29
  -6   3   3  564.77   18.10
  -6   3   3  564.12   17.59
   6  -3  -3  606.71   17.17
   6  -3  -2   27.35    2.99
  -6   3   2   20.98    3.20
  -6   3   2   24.88    3.30
  -6   3   2   26.97    3.13
  -6   3   2   24.62    3.99
   6  -3  -1  606.42   17.51
  -6   3   1  599.47   17.29
  -6   3   1  630.45   21.45
  -6   3   0  670.19   20.10
  -6   3   0  614.07   19.51
  -6   3   0  618.29   17.62
  -6   3   0  639.61   21.60
  -6   3  -1  132.37    7.76
  -6   3  -1  140.08    7.86
  -6   3  -1  130.84    6.80
  -6   3  -1  118.32    6.23
  -6   3  -1  122.77    8.33
   6  -3   1  138.63    6.86
  -6   3  -2  141.80    7.99
  -6   3  -2  137.46    7.81
  -6   3  -2  141.05    6.65
   6  -3   2  135.82    6.83
  -6   3  -2  133.50    8.62
  -6   3  -3  489.37   16.15
  -6   3  -3  473.15   15.94
  -6   3  -3  475.76   15.25
   6  -3   3  480.00   14.50
  -6   3  -3  465.13   13.83
  -6   3  -3  496.32   17.84
   6  -3   4  173.53    7.48
  -6   3  -4  175.79    8.33
  -6   3  -4  172.50    9.53
   6  -3   5  262.38   12.70
  -6   3  -5  269.73   10.61
  -6   3  -5  262.89   11.69
   6  -3   6  161.57    9.62
  -6   3  -6  153.07    7.40
   6  -3   7   11.77    2.60
  -6   3  -7   13.11    2.01
   6  -3   8    1.16    0.98
   6  -3   9   23.63    2.65
   6  -3   9   13.99    1.72
  -6   2  10   17.07    2.46
  -6   2   9  105.69    6.98
  -6   2   9  101.56    5.99
  -6   2   8  212.94   11.13
  -6   2   8  188.92    9.39
  -6   2   8  197.70   12.23
  -6   2   8  221.44    9.80
  -6   2   7    0.47    1.91
  -6   2   7    0.34    1.19
  -6   2   6   20.02    3.01
  -6   2   6   17.23    3.42
  -6   2   5  100.01    6.22
  -6   2   5   86.09    5.76
   6  -2  -5   99.18    5.78
  -6   2   5  103.99    6.54
  -6   2   5  104.76    8.12
  -6   2   4 1707.67   39.64
  -6   2   4 1622.11   39.07
   6  -2  -4 1775.27   38.20
  -6   2   4 1649.67   38.68
  -6   2   4 1678.16   43.55
  -6   2   3   98.73    6.47
  -6   2   3   80.14    5.80
   6  -2  -3   80.73    5.33
  -6   2   3   86.90    5.48
  -6   2   3   81.62    7.07
  -6   2   2 1705.99   40.45
  -6   2   2 1704.94   39.82
   6  -2  -2 1704.12   38.48
  -6   2   1  369.45   14.03
  -6   2   1  348.47   15.28
  -6   2   0    6.40    2.04
   6  -2   0    3.81    1.29
  -6   2   0    6.47    2.29
  -6   2  -1  331.92   13.07
  -6   2  -1  332.55   12.97
  -6   2  -1  312.52   14.09
   6  -2   1  339.91   13.25
   6  -2   1  330.14   11.69
  -6   2  -2  437.16   15.47
  -6   2  -2  443.59   15.52
   6  -2   2  478.16   16.47
   6  -2   2  453.12   16.70
   6  -2   2  453.29   14.29
  -6   2  -2  448.76   17.23
  -6   2  -3  149.88    7.96
  -6   2  -3  149.86    7.98
   6  -2   3  145.67    8.74
   6  -2   3  144.08    7.00
  -6   2  -3  154.22    9.25
   6  -2   3  124.81    8.48
  -6   2  -3  143.86    7.45
  -6   2  -4  199.81    9.02
   6  -2   4  210.66    8.48
   6  -2   4  218.06   11.25
   6  -2   4  202.93   11.22
  -6   2  -4  203.64    9.01
  -6   2  -4  218.03   11.06
   6  -2   5   98.12    7.50
   6  -2   5  103.07    7.88
  -6   2  -5  108.66    6.19
  -6   2  -5  103.68    7.28
   6  -2   6   10.29    2.60
  -6   2  -6   11.94    2.39
   6  -2   7   14.36    2.77
   6  -2   8    1.04    1.06
   6  -2   9    1.38    0.89
   6  -2   9    1.31    0.79
  -6   1  11   -0.15    0.62
  -6   1  10  116.65    6.09
  -6   1  10  129.12    6.19
  -6   1  10  112.25    7.24
  -6   1   9  218.22   10.13
  -6   1   9  221.91    9.68
  -6   1   9  222.71   12.08
  -6   1   8    0.30    1.06
  -6   1   7  302.65   11.76
  -6   1   7  302.54   13.21
  -6   1   6  353.05   12.14
  -6   1   6  351.82   12.85
  -6   1   6  347.44   15.05
   6  -1  -5   84.70    5.53
  -6   1   5   89.71    5.92
  -6   1   5   80.17    5.58
   6  -1  -5  101.48    5.94
  -6   1   5   88.10    5.68
  -6   1   5   76.96    6.90
  -6   1   4  759.97   21.66
   6  -1  -4  730.61   20.57
  -6   1   4  736.93   24.54
   6  -1  -3  763.67   21.23
  -6   1   3  762.33   24.73
  -6   1   2  363.50   13.35
   6  -1  -2  372.91   13.03
  -6   1   2  370.10   15.77
  -6   1   1  228.09   10.16
   6  -1  -1  245.67   10.04
  -6   1   0  620.62   18.70
   6  -1   0  587.69   18.50
  -6   1   0  624.65   21.24
   6  -1   1  113.86    7.09
   6  -1   1  123.92    6.78
   6  -1   1  109.12    7.31
  -6   1  -1  131.75    8.57
  -6   1  -2   71.09    5.53
   6  -1   2   60.28    5.34
   6  -1   2   54.13    4.35
   6  -1   2   56.97    5.45
  -6   1  -2   60.47    5.91
  -6   1  -3   19.57    2.90
   6  -1   3   15.98    2.40
  -6   1  -3   16.93    2.68
   6  -1   3   13.32    2.81
   6  -1   3   14.40    2.90
  -6   1  -3   17.78    3.30
  -6   1  -4  197.74    8.77
   6  -1   4  202.17    8.26
   6  -1   4  209.99   11.05
   6  -1   4  177.21   10.63
  -6   1  -4  202.53   10.82
   6  -1   5   48.41    5.20
  -6   1  -5   39.82    4.66
  -6   1  -6   14.83    2.74
   6  -1   6   14.94    3.03
   6  -1   7   46.22    4.67
  -6   1  -7   48.51    4.16
   6  -1   8    0.60    1.02
   6  -1   9    1.48    0.77
   6  -1   9    1.23    1.04
  -6   0  10   32.23    3.00
  -6   0  10   32.09    3.75
  -6   0  10   26.38    2.37
  -6   0   9   14.95    2.46
  -6   0   9   17.21    3.31
  -6   0   9   11.92    2.14
  -6   0   8  101.29    6.83
  -6   0   8  100.12    8.68
   6   0  -7  172.22    7.28
  -6   0   6    0.30    1.35
   6   0  -5  366.93   12.76
   6   0  -5  335.43   12.46
  -6   0   5  347.53   15.00
  -6   0   4  151.38    7.91
   6   0  -4  164.46    8.21
  -6   0   4  170.97   10.06
   6   0  -4  147.29    7.84
  -6   0   3    0.23    1.00
   6   0  -3    2.33    1.21
   6   0  -3   -0.24    0.87
  -6   0   3   -0.34    1.46
  -6   0   2  359.01   13.55
   6   0  -2  388.64   13.85
  -6   0   2  409.10   16.36
  -6   0   1  512.28   17.02
   6   0  -1  555.72   17.28
  -6   0   1  539.47   19.62
   6   0   0    5.27    1.60
   6   0   0    8.96    2.02
   6   0   1   95.23    6.12
  -6   0  -1   98.07    6.37
   6   0   1   90.56    6.43
   6   0   1  109.88    6.54
   6   0   1   91.21    6.79
  -6   0  -1  105.58    7.89
  -6   0  -2  547.81   17.30
   6   0   2  543.02   18.78
   6   0   2  578.81   17.38
   6   0   2  546.95   19.56
  -6   0  -2  574.13   20.34
   6   0   2  571.50   17.30
  -6   0  -3   26.76    3.37
   6   0   3   29.08    3.13
   6   0   3   25.84    3.81
   6   0   3   29.07    4.18
   6   0   3   29.39    3.24
  -6   0  -3   33.74    4.56
   6   0   4   56.82    5.57
   6   0   4   54.10    5.68
  -6   0  -4   53.14    5.50
   6   0   4   50.69    3.86
   6   0   5   50.68    5.20
  -6   0  -5   41.63    4.77
   6   0   6   17.26    3.03
   6   0   6   14.77    2.77
  -6   0  -6   11.99    2.58
  -6   0  -7    6.09    1.64
   6   0   8    0.18    0.81
   6   0   8    0.25    1.06
  -6  -1  10   10.50    2.00
  -6  -1   9  127.61    6.91
  -6  -1   9  135.35    8.42
  -6  -1   8    8.81    1.88
  -6  -1   8   10.79    2.96
   6   1  -7   13.84    2.07
   6   1  -6  118.46    6.56
   6   1  -6  115.50    6.00
  -6  -1   5  312.45   11.49
   6   1  -5  279.57   11.31
  -6  -1   5  304.64   13.19
   6   1  -5  317.04   11.61
  -6  -1   4    7.75    2.02
   6   1  -4    4.41    1.49
   6   1  -4    4.51    1.55
  -6  -1   4    3.22    1.90
  -6  -1   3  246.37   10.63
   6   1  -3  257.10   11.04
   6   1  -3  245.10   10.86
  -6  -1   3  253.57   12.34
   6   1  -2  395.84   14.46
   6   1  -2  389.57   14.29
  -6  -1   2  390.46   16.04
   6   1  -1    7.43    1.93
   6   1  -1    6.16    1.95
  -6  -1   1    6.69    2.40
  -6  -1   0  183.14    9.03
   6   1   0  191.95    9.26
   6   1   0  158.11    8.91
   6   1   0  193.31    9.27
  -6  -1   0  183.58   10.48
  -6  -1  -1   94.26    6.17
   6   1   1  106.69    6.52
   6   1   1   81.49    6.49
   6   1   1   87.82    6.02
  -6  -1  -2    0.67    1.23
   6   1   2    1.62    1.19
   6   1   2    0.87    1.10
   6   1   2    0.45    0.87
   6   1   3    7.68    2.18
   6   1   3   13.30    2.14
   6   1   3   11.80    2.05
  -6  -1  -3    5.02    2.11
  -6  -1  -4    6.69    2.32
   6   1   5   83.58    7.15
  -6  -1  -5   90.24    6.70
   6   1   6    2.83    1.55
   6   1   6    2.22    1.29
  -6  -1  -6    3.34    1.61
   6   1   7   82.62    5.95
   6   1   7   87.92    5.25
  -6  -1  -7   93.68    5.35
   6   1   8    1.19    0.83
   6   1   8    1.33    0.81
  -6  -2  10   30.68    2.39
  -6  -2   9    1.36    0.91
  -6  -2   9    1.37    1.23
  -6  -2   8   28.38    4.13
   6   2  -7  109.51    5.67
   6   2  -6   69.28    4.82
   6   2  -6   60.72    4.15
  -6  -2   5    6.02    1.66
   6   2  -5    4.09    1.38
   6   2  -5    6.42    1.93
  -6  -2   4  869.08   23.75
   6   2  -4  924.09   24.13
  -6  -2   3   25.07    3.29
  -6  -2   3   28.61    3.93
   6   2  -3   23.18    3.19
   6   2  -3   26.66    3.33
   6   2  -2    4.00    1.54
   6   2  -2    4.38    1.55
  -6  -2   2    5.72    2.11
  -6  -2   1  323.42   12.57
  -6  -2   1  330.18   14.31
   6   2  -1  321.27   12.87
  -6  -2   0  434.91   15.08
   6   2   0  422.07   15.21
  -6  -2   0  449.32   17.30
   6   2   0  459.44   15.55
  -6  -2  -1    1.14    1.16
   6   2   1   -0.30    0.83
   6   2   1    0.46    0.94
   6   2   1    0.71    0.88
  -6  -2  -1    1.98    1.52
  -6  -2  -2   76.51    5.30
   6   2   2   77.19    5.29
  -6  -2  -2   71.74    6.40
  -6  -2  -3  252.41    9.61
   6   2   3  255.16    9.63
  -6  -2  -4   29.27    3.99
  -6  -2  -5   34.66    4.03
   6   2   6   44.19    3.96
  -6  -2  -6   48.19    4.06
   6   2   7   28.96    2.59
  -6  -2  -7   30.24    2.67
  -6  -3   9   43.99    2.97
  -6  -3   8   48.49    3.71
   6   3  -8   40.62    2.56
  -6  -3   8   39.73    3.96
   6   3  -7    1.71    0.99
   6   3  -6  148.37    6.96
   6   3  -6  138.97    6.03
  -6  -3   5  130.92    6.54
   6   3  -5  139.10    7.09
   6   3  -5  114.56    6.24
  -6  -3   4   15.60    2.50
   6   3  -4   16.71    2.66
   6   3  -4   15.45    2.45
  -6  -3   3  326.66   12.27
   6   3  -3  347.24   12.85
   6   3  -2   64.05    4.91
   6   3  -2   74.04    5.51
  -6  -3   2   64.08    5.51
  -6  -3   1    0.90    1.18
  -6  -3   1    2.33    1.60
  -6  -3   0   30.48    3.48
   6   3   0   29.24    3.39
  -6  -3   0   24.66    3.65
  -6  -3  -1   21.11    2.87
   6   3   1   22.03    2.50
   6   3   1   25.52    3.08
  -6  -3  -1   21.94    3.46
  -6  -3  -2   68.92    4.71
   6   3   2   66.66    4.61
  -6  -3  -2   71.42    6.00
  -6  -3  -3    2.03    1.02
   6   3   3    2.55    1.52
  -6  -3  -3    2.42    1.62
   6   3   4   74.24    5.66
   6   3   5   19.46    2.71
  -6  -3  -5   18.64    2.61
  -6  -3  -6    0.71    0.78
  -6  -4   7   12.53    1.73
  -6  -4   7   13.85    2.19
   6   4  -6   67.17    4.11
   6   4  -5    1.75    0.88
   6   4  -5    2.19    1.03
  -6  -4   4    7.97    1.73
   6   4  -4   10.04    1.85
  -6  -4   3  132.13    6.72
   6   4  -3  124.87    6.53
   6   4  -3  123.25    6.67
   6   4  -2    5.19    1.70
   6   4  -2    5.07    1.48
  -6  -4   1   24.49    2.98
   6   4  -1   21.05    2.52
  -6  -4   0   11.55    2.08
   6   4   0   11.09    2.03
  -6  -4  -1    5.54    1.48
   6   4   1    5.37    1.40
   6   4   1    5.70    1.83
  -6  -4  -1    7.19    1.89
  -6  -4  -2   11.57    1.78
   6   4   2   12.37    1.79
   6   4   2    7.75    1.99
  -6  -4  -2   11.50    2.25
   6   4   3    0.82    0.95
  -6  -4  -3    0.40    1.09
   6   4   4   10.20    1.81
  -6  -4  -4    7.81    1.67
   6   4   5    2.08    0.80
   6   5  -6   21.07    1.87
   6   5  -5   35.80    2.40
  -6  -5   4   19.79    2.14
   6   5  -4   24.24    2.33
   6   5  -4   20.41    2.15
  -6  -5   3    0.14    0.72
   6   5  -3    0.74    0.83
   6   5  -3    1.47    0.84
   6   5  -2   61.23    3.69
   6   5  -2   65.39    4.21
  -6  -5   1   45.60    3.45
  -6  -5   0    1.63    0.87
   6   5   0    0.42    0.73
  -6  -5  -1    0.46    0.68
   6   5   1    0.46    0.59
   6   5   1   -0.13    0.49
   6   5   2   12.62    1.67
   6   5   3   33.32    2.41
   6   6  -4    6.91    0.89
  -6  -6   3   17.56    1.62
   6   6  -3   17.41    1.57
   6   6  -2   15.66    1.57
  -6  -6   1    5.96    1.03
   6   6   0   14.49    1.34
  -7  11   1   52.55    2.80
  -7  11   0   49.31    3.21
  -7  11   0   49.54    2.86
  -7  11  -1   16.51    1.66
  -7  10   4    1.33    0.62
  -7  10   3   54.11    3.38
  -7  10   3   46.55    2.78
  -7  10   2  147.25    6.29
  -7  10   2  135.91    5.30
  -7  10   1   23.49    2.73
  -7  10   1   21.91    2.00
  -7  10   0  109.68    6.21
  -7  10  -1  113.56    5.79
  -7  10  -2    2.69    0.87
  -7  10  -2    2.95    1.26
  -7  10  -2    2.71    1.14
  -7  10  -3   46.31    3.79
  -7  10  -3   52.97    3.53
  -7  10  -3   55.78    3.18
  -7  10  -4    8.66    1.48
  -7  10  -4    9.77    1.43
  -7  10  -5    1.17    0.50
  -7  10  -5    1.95    0.60
  -7   9   6   91.01    3.94
  -7   9   5   14.17    1.83
  -7   9   5   10.99    1.45
  -7   9   4  129.44    5.61
  -7   9   3   64.17    4.00
  -7   9   2    0.40    0.89
  -7   9   2    0.15    0.65
  -7   9   1  101.50    6.56
  -7   9   1  112.61    6.40
  -7   9   0   89.95    6.46
  -7   9   0  106.96    6.24
  -7   9   0  102.36    5.40
  -7   9  -1    5.59    1.46
  -7   9  -1    5.15    1.63
  -7   9  -2   73.12    4.99
  -7   9  -3   55.92    4.16
  -7   9  -3   56.59    3.79
   7  -9   3   51.67    3.60
  -7   9  -4    0.25    0.68
   7  -9   4    0.86    0.75
  -7   9  -5   26.49    2.71
  -7   9  -5   32.23    2.40
  -7   9  -6   11.77    1.24
  -7   9  -6   14.91    1.36
  -7   8   7   16.47    1.88
  -7   8   7   18.77    1.84
  -7   8   6   50.27    3.80
  -7   8   6   52.93    3.31
  -7   8   5  203.04    8.83
  -7   8   5  235.14    8.30
  -7   8   4   50.46    4.29
  -7   8   4   63.51    4.75
  -7   8   4   54.38    3.91
  -7   8   3   17.24    2.68
  -7   8   3   15.33    2.14
  -7   8   2  317.55   12.01
  -7   8   2  323.35   12.53
  -7   8   2  328.13   12.37
  -7   8   1   91.15    6.14
  -7   8   1   74.42    5.86
  -7   8   0   16.86    2.78
  -7   8   0   17.24    2.73
  -7   8   0   13.72    2.28
  -7   8  -1  144.48    8.02
  -7   8  -1  165.54    8.27
  -7   8  -2  132.63    7.38
  -7   8  -2  151.68    7.11
  -7   8  -3   35.32    2.96
  -7   8  -3   37.87    3.34
   7  -8   3   31.92    3.26
  -7   8  -4   44.15    3.26
  -7   8  -4   41.30    3.32
   7  -8   4   40.22    3.62
  -7   8  -5    1.40    0.81
  -7   8  -5    0.63    0.66
  -7   8  -6    0.47    0.58
  -7   8  -6    0.42    0.55
   7  -8   7    2.26    0.78
  -7   7   8    2.57    0.90
  -7   7   7  186.54    8.30
  -7   7   7  193.38    7.64
  -7   7   6   90.67    6.13
  -7   7   6  106.99    5.99
  -7   7   6   95.78    5.05
  -7   7   5    3.08    1.38
  -7   7   5    3.97    1.19
  -7   7   4  361.12   12.15
  -7   7   4  365.80   13.30
  -7   7   4  338.16   11.44
  -7   7   3  335.45   12.57
  -7   7   3  312.88   14.51
  -7   7   2   29.38    3.55
  -7   7   2   37.16    4.05
  -7   7   2   24.76    4.01
  -7   7   1   76.69    5.68
  -7   7   1   59.10    5.82
  -7   7   0   97.79    6.72
  -7   7   0  114.26    6.98
  -7   7   0  101.98    6.16
  -7   7   0   88.43    6.78
  -7   7  -1   55.41    5.04
  -7   7  -1   63.28    4.14
  -7   7  -1   64.72    5.12
  -7   7  -1   60.33    4.63
   7  -7   2    0.81    0.82
  -7   7  -2    0.25    1.01
  -7   7  -2    1.01    0.81
  -7   7  -3  326.94   12.11
  -7   7  -3  324.15   11.09
  -7   7  -3  321.87   11.30
   7  -7   3  311.29   11.90
  -7   7  -4    6.46    1.58
  -7   7  -4    6.77    1.54
  -7   7  -4    3.70    1.26
  -7   7  -5    3.20    1.11
  -7   7  -5    3.55    1.16
  -7   7  -6    2.48    0.83
   7  -7   7  159.53    6.79
  -7   7  -7  149.56    5.64
   7  -7   8   14.31    1.55
  -7   6   8  189.03    8.28
  -7   6   8  204.69    7.62
  -7   6   7   89.68    5.74
  -7   6   7   97.23    5.62
  -7   6   6    0.75    1.02
  -7   6   6    0.66    1.14
  -7   6   6   -0.33    1.47
  -7   6   5  325.42   12.50
  -7   6   5  300.52   14.38
  -7   6   4  405.64   13.84
  -7   6   4  439.63   15.22
  -7   6   4  394.96   17.13
  -7   6   3   46.95    4.42
  -7   6   3   45.29    4.44
  -7   6   3   35.88    4.95
  -7   6   2  146.66    8.28
   7  -6  -2  159.20    7.75
  -7   6   2  155.45    8.36
  -7   6   2  144.26    9.70
   7  -6  -1  240.68    9.95
  -7   6   1  253.38   10.91
  -7   6   1  252.42   10.33
  -7   6   1  238.48   12.49
  -7   6   0   66.87    5.68
  -7   6   0   66.10    5.23
  -7   6   0   72.24    5.17
  -7   6   0   71.03    6.49
  -7   6  -1  211.55   10.34
   7  -6   1  215.65    9.14
  -7   6  -1  224.60    8.86
  -7   6  -1  202.10    9.38
  -7   6  -1  221.92    9.43
  -7   6  -1  199.13   10.72
  -7   6  -2  106.60    6.93
  -7   6  -2  107.21    6.02
  -7   6  -2  104.98    6.08
  -7   6  -3   57.32    4.82
  -7   6  -3   67.91    4.75
  -7   6  -3   64.61    4.56
  -7   6  -4   38.52    3.59
  -7   6  -4   43.60    3.76
  -7   6  -4   43.71    3.54
  -7   6  -5   50.67    3.50
   7  -6   6   29.96    3.35
  -7   6  -6   26.60    2.63
  -7   6  -6   23.92    2.07
   7  -6   7    0.72    0.88
  -7   6  -7    0.91    0.73
   7  -6   8   29.75    2.54
  -7   5   9  190.97    7.48
  -7   5   9  174.48    6.98
  -7   5   8   56.12    4.47
  -7   5   8   59.99    4.09
  -7   5   7   71.88    5.70
  -7   5   7   76.86    5.15
  -7   5   7   70.56    6.07
  -7   5   6  524.45   16.75
  -7   5   5   86.88    6.07
  -7   5   5   84.57    7.47
  -7   5   4    0.69    0.93
  -7   5   4    1.25    1.27
  -7   5   4    1.19    1.38
  -7   5   3  390.51   14.37
  -7   5   3  406.58   14.43
  -7   5   3  380.64   16.99
   7  -5  -3  379.31   13.13
   7  -5  -2  567.08   17.17
  -7   5   2  532.28   18.53
  -7   5   2  589.41   18.12
  -7   5   2  584.74   21.62
   7  -5  -1    0.85    0.94
  -7   5   1    0.23    1.02
  -7   5   1    1.15    1.70
  -7   5   0  183.29    9.92
  -7   5   0  192.86    8.85
  -7   5   0  203.93    8.98
  -7   5   0  196.55   11.23
   7  -5   1  359.09   12.43
  -7   5  -1  323.71   13.57
  -7   5  -1  332.94   11.99
  -7   5  -1  322.33   11.86
  -7   5  -1  349.95   15.04
  -7   5  -2    5.57    1.49
   7  -5   2    1.18    0.84
  -7   5  -2    2.37    1.29
  -7   5  -2    1.81    1.19
  -7   5  -2    1.90    1.04
  -7   5  -2    1.27    1.41
  -7   5  -3   25.19    3.27
  -7   5  -3   24.46    2.96
  -7   5  -3   27.32    2.92
  -7   5  -4   77.15    5.13
  -7   5  -4   77.33    4.61
   7  -5   5   15.48    2.71
  -7   5  -5   13.00    2.18
  -7   5  -5   14.31    1.81
   7  -5   6   13.95    2.53
  -7   5  -6   12.88    2.02
   7  -5   7   -0.19    0.86
   7  -5   8   13.23    1.85
  -7   4  10   66.70    3.36
  -7   4   9    1.16    0.81
  -7   4   8  143.51    6.76
  -7   4   7  263.38   12.44
  -7   4   7  287.62   10.94
  -7   4   7  291.26   12.97
  -7   4   6   12.02    2.96
  -7   4   6   12.44    2.36
  -7   4   6   12.24    2.98
  -7   4   5  217.48    9.23
  -7   4   5  217.79   12.05
  -7   4   5  247.25   10.48
   7  -4  -4  263.83   10.29
  -7   4   4  267.07   11.07
  -7   4   3  234.75   11.04
  -7   4   3  230.00    9.97
   7  -4  -3  217.83    9.49
  -7   4   3  238.50   13.08
  -7   4   2  232.25   10.99
  -7   4   2  222.86   10.92
  -7   4   2  226.87    9.70
   7  -4  -2  230.62    9.76
  -7   4   2  231.30   12.75
  -7   4   1  264.74   10.39
   7  -4  -1  277.83   10.91
  -7   4   1  291.67   14.28
  -7   4   0  237.71   11.23
  -7   4   0  217.17   10.83
  -7   4   0  229.75   12.36
  -7   4  -1    1.34    1.05
  -7   4  -1    2.52    1.72
  -7   4  -1   -0.29    1.07
   7  -4   1    0.83    1.02
  -7   4  -1    1.07    1.52
  -7   4  -2  301.30   12.78
   7  -4   2  286.48   11.77
   7  -4   2  297.87   11.03
  -7   4  -2  276.61   10.29
  -7   4  -2  319.74   14.07
   7  -4   3   93.96    6.54
  -7   4  -3   85.17    4.95
  -7   4  -3   92.60    6.99
  -7   4  -4    0.78    0.83
   7  -4   4    1.65    1.27
  -7   4  -4    1.19    1.09
  -7   4  -4    0.53    1.18
   7  -4   5   28.39    3.69
  -7   4  -5   36.84    3.42
   7  -4   6   84.19    5.94
   7  -4   7   -0.20    0.89
   7  -4   8    2.42    0.99
  -7   3  10    9.35    1.45
  -7   3  10   12.08    1.51
  -7   3   9  113.38    6.13
  -7   3   9  110.06    6.51
  -7   3   8   84.28    6.00
  -7   3   8   77.18    6.37
  -7   3   8   90.67    5.17
  -7   3   7    7.22    2.36
  -7   3   7   13.39    2.24
  -7   3   7   10.26    2.55
  -7   3   6  234.24   13.02
  -7   3   6  256.48   10.36
  -7   3   6  250.86   12.64
  -7   3   5  407.82   13.96
  -7   3   5  417.63   17.49
  -7   3   4  174.18    8.81
   7  -3  -4  165.51    8.00
  -7   3   4  172.71    8.22
  -7   3   4  172.13   10.94
  -7   3   3  101.22    6.86
  -7   3   3   99.49    6.81
   7  -3  -3   99.81    6.18
  -7   3   3  108.16    6.15
  -7   3   2    3.07    1.78
  -7   3   2    1.66    1.32
   7  -3  -2    2.18    1.20
  -7   3   2    3.92    2.26
  -7   3   1   88.67    6.62
   7  -3  -1   92.80    5.94
  -7   3   1   94.07    7.86
  -7   3   0   25.74    3.67
  -7   3   0   20.08    3.27
  -7   3   0   25.64    4.19
  -7   3  -1  312.03   12.98
  -7   3  -1  302.27   12.80
   7  -3   1  318.02   11.78
  -7   3  -1  314.14   14.48
  -7   3  -2    4.21    1.80
  -7   3  -2    5.06    1.67
   7  -3   2    4.96    1.73
   7  -3   2    5.27    1.48
  -7   3  -2    6.17    2.35
  -7   3  -3    0.24    1.16
   7  -3   3    0.81    1.05
  -7   3  -3    0.32    1.19
   7  -3   4   25.52    3.63
  -7   3  -4   28.26    3.83
   7  -3   5   93.34    6.57
  -7   3  -5   89.48    6.12
   7  -3   6    2.40    1.32
   7  -3   7  130.41    6.67
   7  -3   7   95.73    5.01
   7  -3   8   13.76    1.85
  -7   2  10   40.58    3.11
  -7   2   9   29.65    3.05
  -7   2   9   31.47    3.67
  -7   2   8    2.41    1.29
  -7   2   8    1.28    1.42
  -7   2   7  226.78   12.49
  -7   2   7  246.11    9.20
  -7   2   6  152.70    7.24
  -7   2   6  161.95    9.66
  -7   2   5   64.67    4.96
   7  -2  -5   68.67    4.77
  -7   2   5   59.94    6.16
  -7   2   4  114.30    7.09
   7  -2  -4  118.82    6.77
  -7   2   4  126.39    9.17
  -7   2   3  128.48    7.71
  -7   2   3  112.85    7.26
   7  -2  -3  108.38    6.65
  -7   2   3  126.47    9.07
  -7   2   2  578.96   19.11
  -7   2   2  566.66   18.92
   7  -2  -2  596.52   18.06
  -7   2   1  207.50   10.33
  -7   2   1  179.86    9.65
   7  -2  -1  196.86    9.17
  -7   2   1  207.34   11.77
  -7   2   0  754.67   22.54
  -7   2   0  711.60   22.05
   7  -2   0  713.36   20.70
  -7   2   0  762.32   24.86
  -7   2  -1   22.52    3.38
  -7   2  -1   20.41    3.13
   7  -2   1   25.77    3.17
  -7   2  -1   19.38    3.77
  -7   2  -2  168.35    8.79
   7  -2   2  153.96    8.33
  -7   2  -2  154.20    8.51
   7  -2   2  153.28    7.69
   7  -2   2  149.84    8.77
  -7   2  -2  162.79    9.92
  -7   2  -3  145.35    7.73
   7  -2   3  133.88    8.05
   7  -2   3  151.43    7.28
  -7   2  -3  156.55    9.37
   7  -2   4   18.58    3.03
  -7   2  -4   23.00    3.48
   7  -2   5    0.26    1.01
  -7   2  -5    1.99    1.30
   7  -2   6   66.64    5.04
  -7   2  -6   59.88    4.41
   7  -2   7    0.36    0.91
   7  -2   7    0.46    0.78
   7  -2   8    3.39    1.05
  -7   1  10    1.05    0.66
  -7   1   9   19.09    2.19
  -7   1   9   22.53    2.30
  -7   1   8  159.80    7.84
  -7   1   8  147.73    7.23
  -7   1   7   82.24    7.35
  -7   1   6   63.53    5.67
  -7   1   5  396.36   13.65
   7  -1  -5  406.80   13.23
  -7   1   5  399.42   16.25
  -7   1   4  136.53    7.74
   7  -1  -4  159.34    7.95
  -7   1   4  144.00    9.50
  -7   1   3    7.91    2.18
   7  -1  -3    7.80    1.93
   7  -1  -3    7.54    1.88
  -7   1   3    9.30    2.75
   7  -1  -2  833.91   23.35
  -7   1   2  825.60   26.75
  -7   1   1  483.41   16.93
   7  -1  -1  470.92   15.93
  -7   1   0    5.48    2.00
   7  -1   0    6.62    1.86
  -7   1   0    9.42    2.85
   7  -1   1  320.71   12.32
  -7   1  -1  327.19   13.14
   7  -1   1  338.88   12.60
  -7   1  -1  324.55   14.80
  -7   1  -2  239.01   10.49
   7  -1   2  221.70   10.17
   7  -1   2  229.55    9.66
  -7   1  -2  237.97   12.09
  -7   1  -3    1.07    1.15
   7  -1   3    4.17    1.60
   7  -1   3    4.90    1.46
  -7   1  -3    1.60    1.67
   7  -1   4   78.21    5.87
  -7   1  -4   74.71    6.14
   7  -1   5   29.70    3.53
  -7   1  -5   33.63    3.89
  -7   1  -6   29.92    3.14
   7  -1   7    4.52    1.24
   7  -1   7    5.10    1.47
  -7   0   9   22.61    2.28
  -7   0   9   23.45    2.96
  -7   0   8    0.16    0.70
  -7   0   8   -0.29    1.25
   7   0  -7  106.16    4.86
   7   0  -6   59.10    4.10
  -7   0   5   96.31    5.92
  -7   0   5   89.99    6.79
   7   0  -5  102.09    5.76
   7   0  -4   67.22    4.98
  -7   0   4   63.38    5.06
  -7   0   4   67.16    6.17
  -7   0   3  172.45    9.00
   7   0  -3  195.82    9.09
  -7   0   3  166.36   10.19
   7   0  -2   14.66    2.58
   7   0  -2   14.16    2.48
  -7   0   2   13.38    3.19
   7   0  -1   11.98    2.32
   7   0  -1   15.58    2.58
  -7   0   1   13.71    3.22
   7   0   0  271.74   11.22
   7   0   1  103.23    6.31
  -7   0  -1   96.60    6.49
  -7   0  -1   90.52    7.33
  -7   0  -2    3.89    1.62
   7   0   2    1.00    0.98
  -7   0  -2    2.28    1.83
  -7   0  -3   59.68    4.49
  -7   0  -3   62.84    5.68
   7   0   3   69.02    4.48
  -7   0  -4   68.25    5.61
   7   0   5   24.11    3.15
  -7   0  -5   24.51    3.15
  -7   0  -6    0.65    0.98
   7   0   7   18.77    2.00
  -7  -1   9   -0.30    0.67
  -7  -1   8   51.06    3.75
  -7  -1   8   52.24    4.72
   7   1  -7  141.40    5.62
   7   1  -6   33.98    3.01
  -7  -1   5   49.37    4.05
   7   1  -5   46.68    3.84
   7   1  -5   49.05    3.78
  -7  -1   4  175.40    8.49
   7   1  -4  164.21    7.88
  -7  -1   3   35.21    4.38
   7   1  -3   45.51    4.14
   7   1  -2    9.41    2.08
  -7  -1   2    5.73    2.08
  -7  -1   1   88.36    6.01
  -7  -1   1  108.17    7.76
   7   1  -1  107.12    6.53
  -7  -1   0   41.97    4.05
  -7  -1   0   48.45    5.20
   7   1   0   41.76    4.01
  -7  -1  -1   28.39    4.15
   7   1   1   30.56    3.32
  -7  -1  -2   28.86    3.25
   7   1   2   30.99    3.11
  -7  -1  -3   10.50    1.83
  -7  -1  -3   10.25    2.45
  -7  -1  -4    0.23    1.11
   7   1   5    0.19    0.93
  -7  -1  -5    0.75    1.08
   7   1   6    2.21    0.89
  -7  -1  -6    0.75    0.72
  -7  -2   8   11.27    1.60
  -7  -2   8   13.04    1.99
   7   2  -7    6.21    1.09
  -7  -2   7    7.57    2.02
   7   2  -6   67.04    3.96
   7   2  -5   33.56    3.09
   7   2  -5   31.02    2.79
   7   2  -4    4.64    1.28
   7   2  -4    4.54    1.42
  -7  -2   3  159.88    7.66
   7   2  -3  191.81    8.42
   7   2  -2  349.15   12.48
  -7  -2   2  352.91   13.61
  -7  -2   1   21.94    2.90
  -7  -2   1   25.75    3.64
  -7  -2   0   17.73    2.59
   7   2   0   22.75    2.78
  -7  -2   0   23.74    3.46
   7   2   1   84.30    5.16
  -7  -2  -1   77.42    6.03
  -7  -2  -2    4.06    1.31
   7   2   2    4.98    1.29
  -7  -2  -2    3.73    1.70
  -7  -2  -3   16.00    1.81
   7   2   3   20.07    2.89
   7   2   4   15.27    2.34
  -7  -2  -4   16.48    2.42
  -7  -2  -5   24.96    2.49
  -7  -3   7   39.74    2.59
   7   3  -7   39.97    2.12
  -7  -3   7   38.08    3.08
   7   3  -6   15.00    1.67
   7   3  -5    3.68    0.93
   7   3  -5    3.98    1.14
  -7  -3   4   62.41    4.12
   7   3  -4   61.23    3.91
   7   3  -4   59.90    3.82
  -7  -3   3   42.70    3.39
   7   3  -3   42.84    3.36
   7   3  -3   42.94    3.43
   7   3  -2   22.97    2.47
   7   3  -2   19.95    2.47
  -7  -3   1  234.77    8.84
   7   3  -1  231.51    8.27
  -7  -3   0    2.43    1.14
   7   3   0    5.29    1.34
  -7  -3  -1   15.67    2.09
   7   3   1   15.60    2.45
   7   3   1   14.94    1.92
  -7  -3  -1   11.06    2.12
  -7  -3  -2   37.52    2.68
   7   3   2   31.99    3.22
  -7  -3  -2   40.52    3.58
   7   3   3    0.91    0.86
  -7  -3  -3    2.45    1.10
   7   3   4   -0.11    0.48
   7   4  -4    9.25    1.22
  -7  -4   3    8.88    1.47
   7   4  -3    7.76    1.27
   7   4  -3    6.03    1.12
   7   4  -2    2.59    0.91
   7   4  -2    2.75    0.77
  -7  -4   0    0.67    0.73
   7   4   0    0.41    0.58
  -7  -4  -1    8.83    1.19
  -8  10   2   21.36    1.77
  -8  10   1   44.63    2.73
  -8  10   0   35.92    2.42
  -8  10  -1    0.12    0.48
  -8  10  -1   -0.18    0.46
  -8  10  -2   91.20    3.65
  -8   9   4    7.99    1.26
  -8   9   3   88.07    4.41
  -8   9   2   92.09    4.71
  -8   9   1    5.69    1.28
  -8   9   0   35.56    3.26
  -8   9   0   37.12    2.95
  -8   9  -1   50.78    3.96
  -8   9  -1   46.68    3.27
  -8   9  -2   16.92    1.85
  -8   9  -3    1.83    0.95
  -8   9  -3    1.61    0.60
  -8   9  -4   24.02    2.23
  -8   8   6   39.18    2.38
  -8   8   5    0.58    0.61
  -8   8   4  260.21    8.91
  -8   8   3  147.84    6.62
  -8   8   2    3.58    1.24
  -8   8   2    2.83    1.14
  -8   8   1   62.21    4.27
  -8   8   0  194.03    8.34
  -8   8   0  186.98    7.76
  -8   8  -1    0.36    0.80
  -8   8  -1    0.15    0.78
  -8   8  -2   22.25    2.30
  -8   8  -3   60.73    3.41
  -8   8  -3   61.08    3.52
  -8   7   7   12.83    1.34
  -8   7   6   26.38    2.62
  -8   7   6   28.88    2.43
  -8   7   5  153.86    6.57
  -8   7   4   66.38    4.38
  -8   7   4   62.50    5.28
  -8   7   3   13.12    2.09
  -8   7   3   14.31    2.18
  -8   7   3   11.04    2.53
  -8   7   2  384.52   13.19
  -8   7   2  407.96   12.98
  -8   7   2  403.28   15.04
  -8   7   1   78.71    4.96
  -8   7   1   72.65    5.74
  -8   7   0   88.76    5.72
  -8   7   0   76.48    4.83
  -8   7   0   72.85    5.51
  -8   7  -1   58.54    4.60
  -8   7  -1   55.33    3.90
  -8   7  -2    3.75    1.28
  -8   7  -2    3.33    1.05
  -8   7  -3    3.55    1.01
  -8   7  -3    2.13    0.99
   8  -7   4   12.97    1.71
   8  -7   5   46.40    2.94
  -8   6   7   37.56    3.12
  -8   6   7   32.07    2.43
  -8   6   6  207.53    8.55
  -8   6   6  244.75    8.32
  -8   6   5   -0.32    0.66
  -8   6   5   -0.55    1.35
  -8   6   4    9.68    1.75
  -8   6   4   11.56    2.01
  -8   6   4    7.31    2.28
  -8   6   3  147.57    7.36
  -8   6   3  143.54    7.00
  -8   6   3  152.13    9.15
  -8   6   2   65.90    5.09
  -8   6   2   66.44    4.62
  -8   6   2   65.04    5.99
  -8   6   1   89.48    5.30
  -8   6   1   92.62    7.03
  -8   6   0   60.55    4.95
  -8   6   0   50.30    3.83
  -8   6   0   63.32    5.66
  -8   6  -1   82.89    5.71
  -8   6  -1   81.48    4.62
  -8   6  -1   82.01    6.13
  -8   6  -2    2.66    1.21
  -8   6  -3   84.21    5.03
   8  -6   4   10.03    1.63
   8  -6   5    0.13    0.57
   8  -6   6   40.28    2.69
  -8   5   8  117.94    5.01
  -8   5   7  103.59    5.60
  -8   5   7  103.89    4.66
  -8   5   6    1.28    0.82
  -8   5   5  324.53   10.81
  -8   5   5  316.90   13.48
  -8   5   4  283.23   10.51
  -8   5   4  295.24   10.43
  -8   5   4  315.27   13.78
  -8   5   3    6.96    1.80
  -8   5   3    7.03    1.58
  -8   5   3    3.10    1.99
  -8   5   2  120.62    7.06
  -8   5   2  105.72    5.72
  -8   5   2  122.29    8.47
  -8   5   1  112.93    8.17
  -8   5   0   31.56    3.73
  -8   5   0   30.75    4.22
  -8   5  -1   33.00    3.72
  -8   5  -1   30.10    4.03
  -8   5  -2  118.89    6.74
  -8   5  -2  129.99    7.78
  -8   5  -3   61.17    4.34
   8  -5   4    7.98    1.62
   8  -5   5   17.14    2.15
   8  -5   6   14.11    1.74
  -8   4   8   53.19    3.59
  -8   4   7   73.50    3.77
  -8   4   7   86.36    5.47
  -8   4   6  185.06    7.07
  -8   4   6  208.21    9.90
   8  -4  -5  114.79    5.40
  -8   4   5  105.72    5.35
  -8   4   5  105.11    7.53
  -8   4   4   96.73    5.76
  -8   4   4   89.57    4.95
  -8   4   3  302.64   14.10
  -8   4   2  209.86   11.63
  -8   4   1    0.35    1.69
  -8   4   0  369.75   15.66
  -8   4  -1   64.92    5.98
  -8   4  -2    0.29    1.12
  -8   4  -3   26.65    2.86
  -8   4  -3   32.71    3.74
   8  -4   4   55.49    4.03
   8  -4   5   13.29    1.94
   8  -4   6    0.36    0.62
  -8   3   8   62.01    3.91
  -8   3   7  125.52    6.74
  -8   3   6   59.35    5.12
   8  -3  -5   62.46    3.97
  -8   3   5   57.11    5.44
   8  -3  -4  311.57   10.95
  -8   3   4  306.23   13.82
  -8   3   3   33.21    3.68
  -8   3   2  197.00   11.18
  -8   3   1   45.95    4.52
  -8   3   1   44.61    5.32
  -8   3   0   15.51    2.72
  -8   3   0   19.49    3.51
  -8   3  -1   38.06    4.00
  -8   3  -1   35.83    4.54
  -8   3  -2   60.26    5.52
  -8   3  -3   81.98    6.03
   8  -3   4   24.49    2.65
  -8   3  -4   25.57    3.05
   8  -3   5    0.14    0.64
  -8   2   8   14.14    1.77
  -8   2   8   12.96    1.98
  -8   2   7    6.18    1.53
  -8   2   7    4.39    1.68
   8  -2  -6   25.62    2.09
  -8   2   6   27.28    3.79
   8  -2  -5  205.21    7.72
  -8   2   5  208.18   10.17
  -8   2   4   44.98    4.04
   8  -2  -4   60.36    4.26
  -8   2   4   56.04    5.54
  -8   2   3   92.65    6.11
   8  -2  -3  105.64    6.03
  -8   2   3   85.87    7.04
   8  -2  -2   38.18    3.68
  -8   2   1   28.62    3.57
   8  -2  -1   28.68    3.24
  -8   2   1   29.22    4.31
  -8   2   0  103.81    6.61
   8  -2   0  105.33    6.20
  -8   2   0  104.90    7.68
  -8   2  -1  150.85    7.80
   8  -2   1  140.32    7.07
  -8   2  -1  145.64    8.93
  -8   2  -2  178.09    8.22
   8  -2   2  197.73    8.01
  -8   2  -2  201.60   10.16
  -8   2  -3    4.26    1.69
  -8   2  -4   81.42    5.38
  -8   2  -5    6.17    1.33
  -8   1   8    2.59    1.08
  -8   1   7   64.18    4.04
  -8   1   7   64.25    5.03
   8  -1  -6   45.55    2.85
  -8   1   6   44.72    4.63
   8  -1  -5    3.45    1.02
   8  -1  -4  161.00    7.14
  -8   1   4  160.99    7.50
  -8   1   4  163.42    8.89
   8  -1  -3  107.05    5.95
  -8   1   3   97.59    6.06
  -8   1   3  100.27    7.26
   8  -1  -2   10.31    2.00
  -8   1   2    5.94    2.21
  -8   1   1   15.48    2.63
   8  -1  -1   20.96    2.72
  -8   1   0  340.16   12.49
   8  -1   0  345.10   12.05
  -8   1   0  325.20   14.01
   8  -1   1   22.94    2.63
  -8   1  -1   16.06    2.51
  -8   1  -1   17.74    3.24
   8  -1   2  118.46    5.72
  -8   1  -2  120.67    6.16
  -8   1  -2  117.25    7.40
  -8   1  -3   49.47    4.56
  -8   1  -4   11.25    2.03
  -8   1  -5   12.49    1.73
   8   0  -6    9.52    1.31
   8   0  -5  113.64    5.21
   8   0  -5  104.85    4.80
  -8   0   4   18.50    2.39
   8   0  -4   18.52    2.19
  -8   0   3    3.59    1.45
   8   0  -3    5.27    1.45
  -8   0   3    5.05    1.89
  -8   0   2  181.23    9.45
   8   0  -2  186.07    8.04
  -8   0   1    7.47    1.88
   8   0  -1    8.13    1.80
  -8   0   1    7.97    2.37
  -8   0   0    8.13    1.88
   8   0   0    9.29    1.78
  -8   0   0    6.73    2.05
  -8   0  -1   11.66    2.02
   8   0   1   16.76    2.11
  -8   0  -2   40.71    3.22
  -8   0  -2   49.19    4.49
  -8   0  -3    0.79    1.06
   8   0   4   13.50    1.91
  -8   0  -4   16.62    2.19
  -8  -1   7    9.29    1.56
   8   1  -6   70.96    3.18
  -8  -1   6   76.26    5.11
   8   1  -5   32.04    2.43
   8   1  -5   24.74    1.98
  -8  -1   4   31.47    2.78
   8   1  -4   41.09    3.00
   8   1  -4   39.05    2.88
  -8  -1   3   34.09    3.06
   8   1  -3   34.75    2.89
   8   1  -3   32.82    2.85
   8   1  -2  119.60    5.86
  -8  -1   1    6.89    1.67
  -8  -1   1    4.57    1.49
  -8  -1   0   51.11    3.75
   8   1   0   48.44    3.47
  -8  -1   0   51.19    4.41
  -8  -1  -1   38.88    3.05
   8   1   1   37.46    2.82
  -8  -1  -1   34.36    3.55
  -8  -1  -2    0.20    0.52
   8   1   3   13.75    1.92
  -8  -1  -3   14.38    2.02
   8   1   4    2.45    0.76
   8   2  -5   29.40    1.97
   8   2  -4   27.59    2.13
   8   2  -4   26.18    2.01
  -8  -2   3    0.12    0.64
   8   2  -3    0.11    0.49
   8   2  -2    1.27    0.67
   8   2  -2    1.22    0.64
  -8  -2   1   89.61    4.51
   8   2  -1   81.83    3.79
  -8  -2   0   66.48    3.69
   8   2   0   66.43    3.48
  -8  -2  -1   12.54    1.46
   8   2   1   14.17    1.82
  -8  -2  -1   15.45    2.00
   8   2   2   30.83    2.43
  -8  -2  -2   33.08    2.60
   8   3  -2   13.62    1.26
  -9   7   3   45.33    2.42
  -9   7   3   52.61    3.74
  -9   7   2    0.12    0.69
  -9   7   2    0.31    0.75
  -9   7   1   56.43    3.79
  -9   7   0  104.22    5.06
  -9   7  -1    0.36    0.61
  -9   7  -2   37.18    2.51
   9  -6  -4   97.48    3.89
  -9   6   4  103.71    5.76
  -9   6   3   34.81    2.75
  -9   6   3   37.25    3.63
  -9   6   2   38.24    3.09
  -9   6   2   42.29    3.88
  -9   6   1   75.57    5.12
  -9   6   0    2.73    1.06
  -9   6   0    3.18    1.19
  -9   6  -1   58.10    3.75
  -9   6  -2    0.34    0.57
  -9   5   6  103.28    4.48
   9  -5  -4   45.99    2.77
  -9   5   4   42.10    3.90
  -9   5   3  232.18    8.28
  -9   5   3  248.05   10.30
  -9   5   2   53.23    3.79
  -9   5   2   51.24    4.56
  -9   5   1   26.81    2.79
  -9   5   1   27.74    3.34
  -9   5   0   80.50    4.83
  -9   5   0   88.65    5.77
  -9   5  -1   22.72    2.45
  -9   5  -1   23.28    2.81
  -9   5  -2    0.60    0.65
  -9   5  -2    0.13    0.66
  -9   4   5   97.61    5.49
   9  -4  -4   75.37    3.75
  -9   4   3    2.14    0.99
   9  -4  -3    2.53    0.91
  -9   4   3    1.62    1.34
   9  -4  -2  137.04    5.98
  -9   4   2  117.49    5.95
  -9   4   2  127.66    7.39
  -9   4   1   64.75    4.38
   9  -4  -1   78.30    4.45
  -9   4   1   75.22    5.61
  -9   4   0   11.03    1.89
  -9   4   0   12.10    2.34
   9  -4   1   25.09    2.39
  -9   4  -1   27.76    2.66
  -9   4  -1   22.55    2.90
  -9   4  -2   59.76    3.53
  -9   4  -2   56.34    4.05
  -9   3   6   79.86    4.07
   9  -3  -5   20.54    1.44
  -9   3   5   37.06    3.19
   9  -3  -4   -0.10    0.51
  -9   3   4    0.40    0.94
   9  -3  -3   93.73    4.63
  -9   3   3   84.32    4.63
   9  -3  -2   63.02    3.92
  -9   3   2   58.37    4.92
   9  -3  -1   16.18    2.02
  -9   3   1    8.26    2.04
   9  -3   0   76.40    4.26
  -9   3   0   77.68    5.51
  -9   3  -1    2.19    0.98
   9  -3   1    3.57    0.97
  -9   3  -1    3.26    1.44
  -9   3  -2    1.91    0.73
  -9   3  -2    1.19    0.93
  -9   3  -3    5.02    1.14
   9  -2  -5   40.60    2.11
   9  -2  -4   49.91    2.89
  -9   2   4   49.10    3.84
  -9   2   3   80.48    5.28
   9  -2  -3   77.10    4.05
   9  -2  -2   10.50    1.57
   9  -2  -1   78.90    4.28
  -9   2   1   74.15    5.30
   9  -2   0   -0.12    0.64
  -9   2   0    1.03    1.08
   9  -2   1    3.05    0.88
  -9   2  -1    5.65    1.65
  -9   2  -2    1.89    0.66
  -9   2  -2    3.91    1.23
   9  -1  -4    2.35    0.63
   9  -1  -4    2.03    0.68
   9  -1  -3   19.75    1.84
  -9   1   3   15.02    2.10
   9  -1  -2  131.71    5.34
  -9   1   2  125.34    6.36
  -9   1   1   14.24    1.84
  -9   1   1   13.66    2.21
   9  -1   0    2.14    0.79
   9  -1   1   17.01    1.60
  -9   1  -1   22.45    2.51
  -9   1  -2   64.72    3.86
   9   0  -4   12.01    1.12
   9   0  -3   18.70    1.55
   9   0  -3   17.18    1.48
   9   0  -2    1.26    0.54
  -9   0   1   10.26    1.36
   9   0  -1   11.15    1.21
  -9   0   1    9.42    1.53
   9   0   0   34.23    2.12
  -9   0   0   36.45    2.82
   0   0   0    0.00    0.00


TITL zhangchangsheng_0918-1_auto in P-1
REM P-1 (#2 in standard setting)
CELL 1.54184   7.880292   9.715693  10.621217  94.2409  94.4344 111.7939
ZERR    3.00   0.000150   0.000167   0.000183   0.0014   0.0015   0.0017
LATT  1
SFAC C H N O
UNIT 33.00 30.00 3.00 3.00
REM  CrysAlisPro recorded range (K): Min=303.1; max=303.2; aver:303.1
TEMP 30
TREF
HKLF 4
END
_computing_structure_solution     'SHELXT 2014/5 (Sheldrick, 2014)'
;
_shelx_hkl_checksum              30610
_olex2_submission_special_instructions 'No special instructions were received'
_oxdiff_exptl_absorpt_empirical_details
;
Empirical correction (ABSPACK) includes:
- Absorption correction using spherical harmonics
- Frame scaling
;
_oxdiff_exptl_absorpt_empirical_full_max 3.745
_oxdiff_exptl_absorpt_empirical_full_min 0.575
loop_
_space_group_symop_operation_xyz
'x, y, z'
'-x, -y, -z'
loop_
_atom_site_label
_atom_site_type_symbol
_atom_site_fract_x
_atom_site_fract_y
_atom_site_fract_z
_atom_site_U_iso_or_equiv
_atom_site_adp_type
_atom_site_occupancy
_atom_site_site_symmetry_order
_atom_site_calc_flag
_atom_site_refinement_flags_posn
_atom_site_refinement_flags_adp
_atom_site_refinement_flags_occupancy
_atom_site_disorder_assembly
_atom_site_disorder_group
Br1 Br 0.22018(3) 0.79121(3) 0.34692(2) 0.06327(11) Uani 1 1 d . . . . .
O1 O 0.17205(19) 0.47172(17) 0.36890(14) 0.0548(3) Uani 1 1 d . . . . .
O2 O 0.3896(2) 0.32226(15) 0.29143(15) 0.0583(4) Uani 1 1 d . . . . .
O3 O 0.6630(2) 0.44963(15) 0.15096(16) 0.0570(4) Uani 1 1 d . . . . .
O4 O 0.6538(2) 0.95228(14) 0.07842(12) 0.0480(3) Uani 1 1 d . . . . .
O5 O 0.8579(3) 1.1505(2) 0.00897(18) 0.0748(5) Uani 1 1 d . . . . .
C1 C 0.4230(3) 0.46377(19) 0.25941(18) 0.0442(4) Uani 1 1 d . . . . .
C2 C 0.5680(3) 0.5338(2) 0.18896(18) 0.0428(4) Uani 1 1 d . . . . .
C3 C 0.6063(3) 0.67970(19) 0.16398(17) 0.0429(4) Uani 1 1 d . . . . .
H3 H 0.701913 0.725356 0.116302 0.052 Uiso 1 1 calc R U . . .
C4 C 0.5045(2) 0.75884(19) 0.20885(17) 0.0407(4) Uani 1 1 d . . . . .
C5 C 0.3609(3) 0.6878(2) 0.27910(18) 0.0432(4) Uani 1 1 d . . . . .
C6 C 0.3190(3) 0.5404(2) 0.30400(17) 0.0433(4) Uani 1 1 d . . . . .
C7 C 0.2214(4) 0.4610(4) 0.4991(2) 0.0743(7) Uani 1 1 d . . . . .
H7A H 0.286999 0.395408 0.503866 0.111 Uiso 1 1 calc R U . . .
H7B H 0.112044 0.422254 0.540739 0.111 Uiso 1 1 calc R U . . .
H7C H 0.298135 0.558116 0.540280 0.111 Uiso 1 1 calc R U . . .
C8 C 0.2866(4) 0.2058(2) 0.1944(3) 0.0693(6) Uani 1 1 d . . . . .
H8A H 0.358421 0.208652 0.124918 0.104 Uiso 1 1 calc R U . . .
H8B H 0.175676 0.218702 0.164992 0.104 Uiso 1 1 calc R U . . .
H8C H 0.255938 0.111359 0.227624 0.104 Uiso 1 1 calc R U . . .
C9 C 0.8138(3) 0.5142(2) 0.0797(2) 0.0594(5) Uani 1 1 d . . . . .
H9A H 0.770873 0.542913 0.002764 0.089 Uiso 1 1 calc R U . . .
H9B H 0.867589 0.442615 0.059247 0.089 Uiso 1 1 calc R U . . .
H9C H 0.904375 0.600501 0.129241 0.089 Uiso 1 1 calc R U . . .
C10 C 0.5532(3) 0.92001(19) 0.18875(18) 0.0431(4) Uani 1 1 d . . . . .
H10 H 0.439527 0.938330 0.173281 0.052 Uiso 1 1 calc R U . . .
C11 C 0.6806(3) 1.0357(2) 0.29705(19) 0.0493(4) Uani 1 1 d . . . . .
H11 H 0.607482 1.060157 0.359075 0.059 Uiso 1 1 calc R U . . .
C12 C 0.7674(3) 1.1674(2) 0.2227(2) 0.0577(5) Uani 1 1 d . . . . .
H12A H 0.693713 1.228119 0.218374 0.069 Uiso 1 1 calc R U . . .
H12B H 0.890529 1.229211 0.261495 0.069 Uiso 1 1 calc R U . . .
C13 C 0.7720(3) 1.0973(2) 0.0934(2) 0.0536(5) Uani 1 1 d . . . . .
C14 C 0.8233(4) 0.9875(3) 0.3631(2) 0.0671(6) Uani 1 1 d . . . . .
H14A H 0.763978 0.907539 0.412170 0.101 Uiso 1 1 calc R U . . .
H14B H 0.910855 1.070254 0.418284 0.101 Uiso 1 1 calc R U . . .
H14C H 0.885668 0.954148 0.300743 0.101 Uiso 1 1 calc R U . . .
loop_
_atom_site_aniso_label
_atom_site_aniso_U_11
_atom_site_aniso_U_22
_atom_site_aniso_U_33
_atom_site_aniso_U_23
_atom_site_aniso_U_13
_atom_site_aniso_U_12
Br1 0.06321(17) 0.06254(17) 0.07243(19) 0.00259(12) 0.02396(12) 0.03119(12)
O1 0.0452(7) 0.0593(8) 0.0515(8) 0.0103(6) 0.0125(6) 0.0082(6)
O2 0.0763(10) 0.0369(7) 0.0580(9) 0.0132(6) 0.0099(7) 0.0153(6)
O3 0.0653(9) 0.0436(7) 0.0747(10) 0.0186(7) 0.0284(8) 0.0289(6)
O4 0.0606(8) 0.0379(6) 0.0442(7) 0.0078(5) 0.0069(6) 0.0164(6)
O5 0.0763(11) 0.0642(10) 0.0750(11) 0.0273(9) 0.0151(9) 0.0113(8)
C1 0.0525(10) 0.0353(8) 0.0414(9) 0.0066(7) 0.0057(8) 0.0122(7)
C2 0.0500(10) 0.0376(8) 0.0439(9) 0.0052(7) 0.0095(8) 0.0193(7)
C3 0.0491(10) 0.0378(8) 0.0429(9) 0.0072(7) 0.0108(8) 0.0161(7)
C4 0.0448(9) 0.0365(8) 0.0400(9) 0.0016(7) 0.0040(7) 0.0151(7)
C5 0.0451(9) 0.0432(9) 0.0414(9) 0.0003(7) 0.0058(7) 0.0174(7)
C6 0.0424(9) 0.0448(9) 0.0374(9) 0.0038(7) 0.0062(7) 0.0103(7)
C7 0.0689(15) 0.098(2) 0.0524(13) 0.0226(12) 0.0210(11) 0.0225(14)
C8 0.0693(15) 0.0408(11) 0.0903(17) -0.0013(10) 0.0048(13) 0.0145(10)
C9 0.0603(12) 0.0533(11) 0.0752(15) 0.0144(10) 0.0273(11) 0.0285(10)
C10 0.0480(10) 0.0379(9) 0.0449(10) 0.0036(7) 0.0049(8) 0.0183(7)
C11 0.0582(11) 0.0418(9) 0.0475(10) -0.0037(8) 0.0007(9) 0.0213(8)
C12 0.0601(12) 0.0363(9) 0.0729(14) 0.0009(9) -0.0008(10) 0.0166(8)
C13 0.0546(11) 0.0421(9) 0.0633(13) 0.0149(9) 0.0006(10) 0.0170(8)
C14 0.0740(15) 0.0596(13) 0.0624(14) -0.0017(10) -0.0176(12) 0.0260(11)
loop_
_atom_type_symbol
_atom_type_description
_atom_type_scat_dispersion_real
_atom_type_scat_dispersion_imag
_atom_type_scat_source
C C 0.0181 0.0091 'International Tables Vol C Tables 4.2.6.8 and 6.1.1.4'
H H 0.0000 0.0000 'International Tables Vol C Tables 4.2.6.8 and 6.1.1.4'
Br Br -0.6763 1.2805 'International Tables Vol C Tables 4.2.6.8 and 6.1.1.4'
O O 0.0492 0.0322 'International Tables Vol C Tables 4.2.6.8 and 6.1.1.4'
loop_
_geom_angle_atom_site_label_1
_geom_angle_atom_site_label_2
_geom_angle_atom_site_label_3
_geom_angle
_geom_angle_site_symmetry_1
_geom_angle_site_symmetry_3
_geom_angle_publ_flag
C6 O1 C7 114.14(16) . . ?
C1 O2 C8 114.74(17) . . ?
C2 O3 C9 118.42(15) . . ?
C13 O4 C10 109.65(15) . . ?
O2 C1 C2 120.57(18) . . ?
O2 C1 C6 119.40(17) . . ?
C6 C1 C2 119.92(16) . . ?
O3 C2 C1 115.32(16) . . ?
O3 C2 C3 124.93(17) . . ?
C3 C2 C1 119.74(17) . . ?
C2 C3 H3 119.4 . . ?
C2 C3 C4 121.16(17) . . ?
C4 C3 H3 119.4 . . ?
C3 C4 C5 118.41(16) . . ?
C3 C4 C10 121.21(16) . . ?
C5 C4 C10 120.30(16) . . ?
C4 C5 Br1 120.57(14) . . ?
C4 C5 C6 121.26(17) . . ?
C6 C5 Br1 118.16(14) . . ?
O1 C6 C1 120.66(17) . . ?
O1 C6 C5 119.81(18) . . ?
C1 C6 C5 119.50(17) . . ?
O1 C7 H7A 109.5 . . ?
O1 C7 H7B 109.5 . . ?
O1 C7 H7C 109.5 . . ?
H7A C7 H7B 109.5 . . ?
H7A C7 H7C 109.5 . . ?
H7B C7 H7C 109.5 . . ?
O2 C8 H8A 109.5 . . ?
O2 C8 H8B 109.5 . . ?
O2 C8 H8C 109.5 . . ?
H8A C8 H8B 109.5 . . ?
H8A C8 H8C 109.5 . . ?
H8B C8 H8C 109.5 . . ?
O3 C9 H9A 109.5 . . ?
O3 C9 H9B 109.5 . . ?
O3 C9 H9C 109.5 . . ?
H9A C9 H9B 109.5 . . ?
H9A C9 H9C 109.5 . . ?
H9B C9 H9C 109.5 . . ?
O4 C10 C4 109.46(14) . . ?
O4 C10 H10 108.9 . . ?
O4 C10 C11 104.32(15) . . ?
C4 C10 H10 108.9 . . ?
C4 C10 C11 116.12(15) . . ?
C11 C10 H10 108.9 . . ?
C10 C11 H11 110.2 . . ?
C12 C11 C10 100.09(16) . . ?
C12 C11 H11 110.2 . . ?
C14 C11 C10 113.77(17) . . ?
C14 C11 H11 110.2 . . ?
C14 C11 C12 111.99(19) . . ?
C11 C12 H12A 110.9 . . ?
C11 C12 H12B 110.9 . . ?
H12A C12 H12B 108.9 . . ?
C13 C12 C11 104.19(16) . . ?
C13 C12 H12A 110.9 . . ?
C13 C12 H12B 110.9 . . ?
O4 C13 C12 109.45(18) . . ?
O5 C13 O4 120.6(2) . . ?
O5 C13 C12 130.0(2) . . ?
C11 C14 H14A 109.5 . . ?
C11 C14 H14B 109.5 . . ?
C11 C14 H14C 109.5 . . ?
H14A C14 H14B 109.5 . . ?
H14A C14 H14C 109.5 . . ?
H14B C14 H14C 109.5 . . ?
loop_
_geom_bond_atom_site_label_1
_geom_bond_atom_site_label_2
_geom_bond_distance
_geom_bond_site_symmetry_2
_geom_bond_publ_flag
Br1 C5 1.8981(19) . ?
O1 C6 1.371(2) . ?
O1 C7 1.430(3) . ?
O2 C1 1.375(2) . ?
O2 C8 1.421(3) . ?
O3 C2 1.358(2) . ?
O3 C9 1.426(3) . ?
O4 C10 1.454(2) . ?
O4 C13 1.359(2) . ?
O5 C13 1.196(3) . ?
C1 C2 1.400(3) . ?
C1 C6 1.383(3) . ?
C2 C3 1.386(2) . ?
C3 H3 0.9300 . ?
C3 C4 1.388(3) . ?
C4 C5 1.393(3) . ?
C4 C10 1.504(2) . ?
C5 C6 1.395(3) . ?
C7 H7A 0.9600 . ?
C7 H7B 0.9600 . ?
C7 H7C 0.9600 . ?
C8 H8A 0.9600 . ?
C8 H8B 0.9600 . ?
C8 H8C 0.9600 . ?
C9 H9A 0.9600 . ?
C9 H9B 0.9600 . ?
C9 H9C 0.9600 . ?
C10 H10 0.9800 . ?
C10 C11 1.545(3) . ?
C11 H11 0.9800 . ?
C11 C12 1.521(3) . ?
C11 C14 1.514(3) . ?
C12 H12A 0.9700 . ?
C12 H12B 0.9700 . ?
C12 C13 1.497(3) . ?
C14 H14A 0.9600 . ?
C14 H14B 0.9600 . ?
C14 H14C 0.9600 . ?
loop_
_geom_torsion_atom_site_label_1
_geom_torsion_atom_site_label_2
_geom_torsion_atom_site_label_3
_geom_torsion_atom_site_label_4
_geom_torsion
_geom_torsion_site_symmetry_1
_geom_torsion_site_symmetry_2
_geom_torsion_site_symmetry_3
_geom_torsion_site_symmetry_4
_geom_torsion_publ_flag
Br1 C5 C6 O1 4.1(2) . . . . ?
Br1 C5 C6 C1 -177.90(14) . . . . ?
O2 C1 C2 O3 3.2(3) . . . . ?
O2 C1 C2 C3 -176.21(17) . . . . ?
O2 C1 C6 O1 -6.5(3) . . . . ?
O2 C1 C6 C5 175.53(17) . . . . ?
O3 C2 C3 C4 -178.60(18) . . . . ?
O4 C10 C11 C12 34.04(19) . . . . ?
O4 C10 C11 C14 -85.6(2) . . . . ?
C1 C2 C3 C4 0.7(3) . . . . ?
C2 C1 C6 O1 177.47(17) . . . . ?
C2 C1 C6 C5 -0.5(3) . . . . ?
C2 C3 C4 C5 -0.5(3) . . . . ?
C2 C3 C4 C10 176.17(17) . . . . ?
C3 C4 C5 Br1 178.40(14) . . . . ?
C3 C4 C5 C6 -0.2(3) . . . . ?
C3 C4 C10 O4 24.4(2) . . . . ?
C3 C4 C10 C11 -93.3(2) . . . . ?
C4 C5 C6 O1 -177.28(16) . . . . ?
C4 C5 C6 C1 0.7(3) . . . . ?
C4 C10 C11 C12 154.58(17) . . . . ?
C4 C10 C11 C14 35.0(3) . . . . ?
C5 C4 C10 O4 -158.90(16) . . . . ?
C5 C4 C10 C11 83.4(2) . . . . ?
C6 C1 C2 O3 179.21(17) . . . . ?
C6 C1 C2 C3 -0.2(3) . . . . ?
C7 O1 C6 C1 79.2(3) . . . . ?
C7 O1 C6 C5 -102.8(2) . . . . ?
C8 O2 C1 C2 -82.1(2) . . . . ?
C8 O2 C1 C6 101.9(2) . . . . ?
C9 O3 C2 C1 -179.45(19) . . . . ?
C9 O3 C2 C3 -0.1(3) . . . . ?
C10 O4 C13 O5 -174.0(2) . . . . ?
C10 O4 C13 C12 4.8(2) . . . . ?
C10 C4 C5 Br1 1.7(2) . . . . ?
C10 C4 C5 C6 -176.94(17) . . . . ?
C10 C11 C12 C13 -30.9(2) . . . . ?
C11 C12 C13 O4 17.8(2) . . . . ?
C11 C12 C13 O5 -163.5(2) . . . . ?
C13 O4 C10 C4 -150.08(16) . . . . ?
C13 O4 C10 C11 -25.19(19) . . . . ?
C14 C11 C12 C13 90.0(2) . . . . ?
