#------------------------------------------------------------------------------
#$Date: 2022-07-07 02:15:16 +0300 (Thu, 07 Jul 2022) $
#$Revision: 276715 $
#$URL: file:///home/coder/svn-repositories/cod/cif/1/56/72/1567248.cif $
#------------------------------------------------------------------------------
#
# This file is available in the Crystallography Open Database (COD),
# http://www.crystallography.net/. The original data for this entry
# were provided by IUCr Journals, http://journals.iucr.org/.
#
# The file may be used within the scientific community so long as
# proper attribution is given to the journal article from which the
# data were obtained.
#
data_1567248
loop_
_publ_author_name
'Morales-Collazo, Oscar'
'Lynch, Vincent M.'
'Brennecke, Joan F.'
_publ_section_title
;
 6,7-Dihydro-5H-pyrrolo[1,2-a]imidazole
;
_journal_coden_ASTM              IUCRBK
_journal_coeditor_code           WM4129
_journal_issue                   5
_journal_name_full               IUCrData
_journal_page_first              x200681
_journal_paper_doi               10.1107/s2414314620006811
_journal_volume                  5
_journal_year                    2020
_chemical_formula_iupac          'C6 H8 N2'
_chemical_formula_moiety         'C6 H8 N2'
_chemical_formula_sum            'C6 H8 N2'
_chemical_formula_weight         108.14
_chemical_name_systematic
;
6,7-Dihydro-5<i>H</i>-pyrrolo[1,2-<i>a</i>]imidazole
;
_space_group_crystal_system      monoclinic
_space_group_IT_number           14
_space_group_name_Hall           '-P 2yn'
_space_group_name_H-M_alt        'P 1 21/n 1'
_atom_sites_solution_hydrogens   difmap
_audit_creation_method           SHELXL-2016/6
_audit_update_record
;
2020-05-04 # Formatted by publCIF

2020-05-20 # Formatted by IUCr publCIF
;
_cell_angle_alpha                90
_cell_angle_beta                 104.91(3)
_cell_angle_gamma                90
_cell_formula_units_Z            4
_cell_length_a                   7.908(7)
_cell_length_b                   7.441(8)
_cell_length_c                   9.880(9)
_cell_measurement_reflns_used    1451
_cell_measurement_temperature    100(2)
_cell_measurement_theta_max      27.5
_cell_measurement_theta_min      2.66
_cell_volume                     561.8(9)
_computing_cell_refinement
;
CrystalClear (Rigaku, 2008)
;
_computing_data_collection
;
CrystalClear (Rigaku, 2008)
;
_computing_data_reduction
;
CrystalClear (Rigaku, 2008)
;
_computing_molecular_graphics
;
XP in SHELXTL/PC (Sheldrick, 2008) and MERCURY Macrae <i>et al.</i>, 
2020)
;
_computing_publication_material
;
publCIF (Westrip, 2010)
;
_computing_structure_refinement
;
SHELXL (Sheldrick, 2015b)
;
_computing_structure_solution
;
SHELXT (Sheldrick, 2015a)
;
_diffrn_ambient_temperature      100(2)
_diffrn_measured_fraction_theta_full 1.000
_diffrn_measured_fraction_theta_max 0.996
_diffrn_measurement_device_type  'Rigaku AFC-12 with Saturn 724+ CCD'
_diffrn_measurement_method       \w-scans
_diffrn_radiation_probe          x-ray
_diffrn_radiation_type           MoK\a
_diffrn_radiation_wavelength     0.71073
_diffrn_reflns_av_R_equivalents  0.0362
_diffrn_reflns_av_unetI/netI     0.0441
_diffrn_reflns_Laue_measured_fraction_full 1.000
_diffrn_reflns_Laue_measured_fraction_max 0.996
_diffrn_reflns_limit_h_max       10
_diffrn_reflns_limit_h_min       -6
_diffrn_reflns_limit_k_max       9
_diffrn_reflns_limit_k_min       -6
_diffrn_reflns_limit_l_max       12
_diffrn_reflns_limit_l_min       -12
_diffrn_reflns_number            2575
_diffrn_reflns_point_group_measured_fraction_full 1.000
_diffrn_reflns_point_group_measured_fraction_max 0.996
_diffrn_reflns_theta_full        25.242
_diffrn_reflns_theta_max         27.468
_diffrn_reflns_theta_min         2.955
_diffrn_source                   'sealed fine focus tube'
_exptl_absorpt_coefficient_mu    0.081
_exptl_absorpt_correction_T_max  1.00
_exptl_absorpt_correction_T_min  0.730
_exptl_absorpt_correction_type   multi-scan
_exptl_absorpt_process_details
;
(<i>ABSCOR</i>; Higashi, 2001)
;
_exptl_crystal_colour            colorless
_exptl_crystal_density_diffrn    1.279
_exptl_crystal_description       prism
_exptl_crystal_F_000             232
_exptl_crystal_size_max          0.310
_exptl_crystal_size_mid          0.190
_exptl_crystal_size_min          0.160
_refine_diff_density_max         0.284
_refine_diff_density_min         -0.224
_refine_diff_density_rms         0.048
_refine_ls_extinction_coef       .
_refine_ls_extinction_method     none
_refine_ls_goodness_of_fit_ref   1.050
_refine_ls_hydrogen_treatment    refall
_refine_ls_matrix_type           full
_refine_ls_number_parameters     105
_refine_ls_number_reflns         1279
_refine_ls_number_restraints     0
_refine_ls_restrained_S_all      1.050
_refine_ls_R_factor_all          0.0519
_refine_ls_R_factor_gt           0.0418
_refine_ls_shift/su_max          0.000
_refine_ls_shift/su_mean         0.000
_refine_ls_structure_factor_coef Fsqd
_refine_ls_weighting_details
'w=1/[\s^2^(Fo^2^)+(0.0797P)^2^] where P=(Fo^2^+2Fc^2^)/3'
_refine_ls_weighting_scheme      calc
_refine_ls_wR_factor_gt          0.1167
_refine_ls_wR_factor_ref         0.1231
_reflns_Friedel_coverage         0.000
_reflns_Friedel_fraction_full    .
_reflns_Friedel_fraction_max     .
_reflns_number_gt                1028
_reflns_number_total             1279
_reflns_threshold_expression     'I > 2\s(I)'
_cod_data_source_file            wm4129sup1.cif
_cod_data_source_block           I
_cod_original_sg_symbol_H-M      'P 21/n'
_cod_database_code               1567248
_publcif_datablock.id            {69de4aae-3b86-446c-ab32-2f5b6d445da7}
_shelx_shelxl_version_number     2016/6
_shelx_space_group_comment
;
The symmetry employed for this shelxl refinement is uniquely defined
by the following loop, which should always be used as a source of
symmetry information in preference to the above space-group names.
They are only intended as comments.
;
_shelx_estimated_absorpt_t_min   0.975
_shelx_estimated_absorpt_t_max   0.987
_shelx_res_file
;

TITL User-defined    saturn, 1/2 deg 13 secs, 422 frames
    shelx.res
    created by SHELXL-2016/6 at 13:48:22 on 19-Apr-2018
CELL  0.71073   7.9083   7.4412   9.8796   90.000  104.907   90.000
ZERR     4.00   0.0068   0.0079   0.0094    0.000    0.033    0.000
LATT   1
SYMM  1/2 - X, 1/2 + Y, 1/2 - Z
SFAC  C    H    N
UNIT  24 32 8
MERG   2
FMAP   2
PLAN   20
ACTA
size .31 .19 .16
BOND   $H
CONF
L.S.  10
TEMP  -173.00
WGHT    0.079700
FVAR       0.30975
C1    1    0.353682    0.733578    0.048684    11.00000    0.02096    0.01357 =
         0.01663    0.00223    0.00287   -0.00056
C2    1    0.253171    0.688546   -0.081714    11.00000    0.02462    0.01592 =
         0.01770   -0.00145    0.00368   -0.00336
C3    1    0.207695    0.968439   -0.057825    11.00000    0.01492    0.01927 =
         0.01228    0.00232    0.00287    0.00026
C4    1    0.174434    1.165522   -0.054573    11.00000    0.02324    0.02013 =
         0.01994    0.00359    0.00672    0.00254
C5    1    0.260128    1.213180    0.101504    11.00000    0.02548    0.01921 =
         0.02243   -0.00325    0.00867    0.00038
C6    1    0.386323    1.057920    0.162008    11.00000    0.02383    0.01776 =
         0.01279   -0.00375    0.00381   -0.00536
N1    3    0.321257    0.913229    0.062091    11.00000    0.01737    0.01576 =
         0.01108   -0.00011    0.00208   -0.00139
N2    3    0.161794    0.836575   -0.149335    11.00000    0.02065    0.02098 =
         0.01548   -0.00043    0.00253   -0.00165
H1    2    0.434107    0.669456    0.119992    11.00000    0.02357
H2    2    0.243290    0.569989   -0.127576    11.00000    0.02314
H4A   2    0.230974    1.230998   -0.118769    11.00000    0.02281
H4B   2    0.049555    1.195169   -0.082791    11.00000    0.02927
H5A   2    0.329591    1.333000    0.115992    11.00000    0.03209
H5B   2    0.167253    1.219369    0.152717    11.00000    0.03452
H6A   2    0.511822    1.087258    0.164775    11.00000    0.02233
H6B   2    0.380524    1.017848    0.258534    11.00000    0.03599
HKLF 4




REM  User-defined    saturn, 1/2 deg 13 secs, 422 frames
REM R1 =  0.0418 for    1028 Fo > 4sig(Fo)  and  0.0519 for all    1279 data
REM    105 parameters refined using      0 restraints

END

WGHT      0.0725      0.0085

REM Highest difference peak  0.284,  deepest hole -0.224,  1-sigma level  0.048
Q1    1   0.2231  1.1931  0.0203  11.00000  0.05    0.28
Q2    1   0.2684  0.9441 -0.0042  11.00000  0.05    0.28
Q3    1   0.3629  0.9766  0.1147  11.00000  0.05    0.24
Q4    1   0.2967  0.6939 -0.0149  11.00000  0.05    0.20
Q5    1   0.3182  1.1391  0.1386  11.00000  0.05    0.18
Q6    1   0.1926  1.0583 -0.0762  11.00000  0.05    0.17
Q7    1   0.1954  0.7565 -0.1199  11.00000  0.05    0.16
Q8    1   0.3478  0.8249  0.0642  11.00000  0.05    0.16
Q9    1   0.0965  0.8326 -0.2268  11.00000  0.05    0.14
Q10   1   0.2709  0.8076  0.1383  11.00000  0.05    0.14
Q11   1   0.1554  0.9133 -0.1114  11.00000  0.05    0.13
Q12   1   0.0259  0.8140 -0.1989  11.00000  0.05    0.13
Q13   1   0.3427  1.1894 -0.2259  11.00000  0.05    0.12
Q14   1   0.3873  1.1241 -0.1412  11.00000  0.05    0.12
Q15   1   0.1490  0.7273 -0.0952  11.00000  0.05    0.12
Q16   1   0.4397  1.0354  0.2347  11.00000  0.05    0.12
Q17   1   0.5379  0.9159  0.0342  11.00000  0.05    0.12
Q18   1   0.2245  0.5995 -0.1006  11.00000  0.05    0.12
Q19   1   0.0907  0.9136 -0.2352  11.00000  0.05    0.12
Q20   1  -0.1072  1.2887 -0.1308  11.00000  0.05    0.11
;
_shelx_res_checksum              96195
_shelx_hkl_file
;
   0   0   1 0.24000 0.03000   1
   0   0  -1 0.29000 0.03000   1
  -1   0   0 0.48000 0.05000   1
   1   0   0 0.56000 0.04000   1
   1   0   0 0.57000 0.03000   1
   0  -1   0 0.05000 0.03000   1
   0   1   0 0.09000 0.04000   1
   1   0  -1 14.9900 0.46000   1
  -1   0   1 15.1900 0.48000   1
   0  -1  -1 311.480 13.0500   1
   0   1   1 339.880 14.2300   1
   0   1   1 335.630 14.1000   1
   0  -1   1 291.950 12.2100   1
   0   1  -1 344.600 14.3500   1
   0   1  -1 323.630 13.5800   1
   1   0   1 6.52000 0.24000   1
  -1   0  -1 7.39000 0.25000   1
  -1   0  -1 6.65000 0.23000   1
   1   0   1 6.78000 0.24000   1
   1   1   0 4.76000 0.21000   1
  -1  -1   0 4.38000 0.18000   1
   1   1  -1 59.9000 2.13000   1
  -1   1   1 52.1400 1.80000   1
  -1  -1   1 56.3300 1.99000   1
   0   0   2 341.080 14.4300   1
   0   0  -2 325.720 13.8000   1
   1   0  -2 0.00000 0.04000   1
  -1   0   2 0.02000 0.05000   1
  -1  -1  -1 14.3300 0.51000   1
   1   1   1 13.1900 0.49000   1
   1  -1   1 14.7600 0.51000   1
   1   1   1 13.6600 0.49000   1
  -1   1  -1 12.5300 0.43000   1
   0   1   2 80.6100 2.96000   1
   0  -1  -2 86.0700 3.13000   1
   0  -1  -2 80.1000 2.97000   1
   0   1  -2 85.1200 3.09000   1
   0  -1   2 71.1100 2.64000   1
   1  -1  -2 16.7500 0.57000   1
   1   1  -2 17.9900 0.65000   1
  -1   1   2 19.6900 0.67000   1
   1   1  -2 19.7000 0.67000   1
   2   0  -1 0.22000 0.08000   1
   2   0   0 698.050 32.4200   1
   2   0   0 736.450 34.4500   1
  -2   0   0 714.710 33.4900   1
   0   2   0 86.8000 3.18000   1
   0  -2   0 89.1500 3.25000   1
  -1   0  -2 0.02000 0.05000   1
  -1   0  -2 0.04000 0.04000   1
   1   0   2 0.01000 0.06000   1
   1   0   2 0.14000 0.06000   1
   0  -2   1 23.1500 0.79000   1
   0  -2  -1 24.1000 0.83000   1
   0   2  -1 24.9000 0.84000   1
   0   2   1 24.2400 0.86000   1
  -2   1   1 313.350 12.8600   1
   2   1  -1 294.190 12.4200   1
  -2  -1   1 299.540 12.6600   1
   2   0  -2 1229.31 61.8700   1
  -2   0   2 1226.56 61.7300   1
   2  -1   0 21.3600 0.72000   1
  -2  -1   0 21.2800 0.74000   1
  -2   1   0 20.5000 0.66000   1
   2   1   0 22.5200 0.79000   1
  -1   2   0 3.91000 0.17000   1
  -1  -2   0 4.20000 0.19000   1
   1  -2   0 3.83000 0.15000   1
   1   2   0 3.95000 0.20000   1
   1   1   2 1.07000 0.10000   1
   1  -1   2 1.42000 0.10000   1
   1   1   2 1.19000 0.11000   1
  -1  -1  -2 1.16000 0.09000   1
  -1  -1  -2 1.27000 0.08000   1
  -1   1  -2 1.39000 0.08000   1
  -1   1  -2 1.31000 0.08000   1
  -1  -2   1 1.39000 0.10000   1
   1   2  -1 1.56000 0.11000   1
   1  -2  -1 1.60000 0.09000   1
   2   0   1 -0.00000 0.0400   1
  -2   0  -1 0.04000 0.03000   1
  -2   0  -1 0.01000 0.04000   1
   2   0   1 0.01000 0.05000   1
  -1   0   3 3.58000 0.16000   1
   1   0  -3 3.36000 0.15000   1
   0   0   3 0.02000 0.06000   1
   0   0  -3 0.01000 0.04000   1
   2   1  -2 332.260 14.0000   1
  -2  -1   2 298.530 12.7600   1
  -2   1   2 324.200 13.5400   1
   2  -1  -2 329.140 13.7800   1
   2   1  -2 317.490 13.5400   1
   1   2   1 7.66000 0.31000   1
   1  -2   1 8.27000 0.26000   1
  -1  -2  -1 6.67000 0.27000   1
  -1   2  -1 7.64000 0.25000   1
  -2   1  -1 5.94000 0.20000   1
  -2   1  -1 5.24000 0.19000   1
  -2  -1  -1 6.14000 0.24000   1
   2  -1   1 6.25000 0.23000   1
   2  -1   1 5.90000 0.20000   1
   2   1   1 5.70000 0.22000   1
   2   1   1 6.20000 0.26000   1
  -1  -1   3 13.2300 0.48000   1
  -1   1   3 12.0800 0.43000   1
   1   1  -3 13.6800 0.48000   1
   1  -1  -3 12.7400 0.44000   1
   0   2   2 26.5000 0.94000   1
   0  -2  -2 28.9100 1.01000   1
   0   2   2 27.6200 0.98000   1
   0   2  -2 26.5700 0.92000   1
   0   2  -2 27.0500 0.93000   1
   0  -2   2 28.1900 0.95000   1
   0   1   3 4.91000 0.21000   1
   0  -1   3 5.16000 0.23000   1
   0  -1  -3 5.94000 0.24000   1
   0   1  -3 6.48000 0.24000   1
   0  -1  -3 4.70000 0.19000   1
  -1   2   2 2.66000 0.13000   1
   1  -2  -2 2.77000 0.13000   1
  -1  -2   2 2.50000 0.13000   1
   1   2  -2 2.45000 0.14000   1
  -2   0   3 0.04000 0.03000   1
   2   0  -3 -0.0500 0.03000   1
   1   0   3 4.82000 0.21000   1
  -1   0  -3 5.05000 0.20000   1
  -1   0  -3 5.70000 0.21000   1
  -2  -2   1 0.24000 0.06000   1
   2   2  -1 0.25000 0.08000   1
  -2   0  -2 58.4800 2.08000   1
  -2   0  -2 58.8100 2.09000   1
   2   0   2 65.4800 2.33000   1
   2   0   2 55.5100 1.99000   1
   2   2   0 38.3500 1.39000   1
  -2  -2   0 38.2700 1.37000   1
   2  -1  -3 104.160 3.86000   1
   2   1  -3 91.4200 3.51000   1
   2   1  -3 101.400 3.82000   1
  -2   1   3 108.220 4.00000   1
   3   0  -1 26.4500 0.93000   1
  -3   0   1 27.3300 0.96000   1
   1   2   2 0.90000 0.11000   1
  -1   2  -2 1.19000 0.08000   1
  -1   2  -2 1.21000 0.06000   1
   1   2   2 1.46000 0.11000   1
  -1  -2  -2 1.14000 0.09000   1
   3   0   0 -0.0100 0.04000   1
   3   0   0 -0.0100 0.03000   1
  -3   0   0 -0.0100 0.03000   1
  -1  -1  -3 0.46000 0.06000   1
  -1  -1  -3 0.62000 0.07000   1
  -1   1  -3 0.24000 0.05000   1
  -1   1  -3 0.44000 0.06000   1
   1   1   3 0.45000 0.08000   1
   1   1   3 0.63000 0.09000   1
   1  -1   3 0.46000 0.08000   1
   3   0  -2 0.08000 0.06000   1
   3   0  -2 -0.0100 0.03000   1
   2   2  -2 0.57000 0.09000   1
  -2  -2   2 0.51000 0.07000   1
  -2   2   2 0.58000 0.07000   1
  -2  -1  -2 3.39000 0.15000   1
  -2  -1  -2 3.21000 0.14000   1
   2   1   2 3.65000 0.16000   1
  -2   1  -2 3.17000 0.13000   1
   2   1   2 3.68000 0.17000   1
  -2   1  -2 3.44000 0.14000   1
   2  -1   2 3.43000 0.15000   1
   2  -1   2 3.39000 0.14000   1
  -3  -1   1 9.55000 0.36000   1
   3  -1  -1 10.1000 0.37000   1
   3   1  -1 9.83000 0.39000   1
   0  -3   0 -0.0100 0.04000   1
   0   3   0 -0.00000 0.0400   1
  -1   0   4 -0.0300 0.05000   1
   1   0  -4 0.05000 0.04000   1
   2   2   1 5.10000 0.24000   1
  -2  -2  -1 5.04000 0.22000   1
  -2   2  -1 5.05000 0.19000   1
   1  -2  -3 5.01000 0.21000   1
   1   2  -3 5.00000 0.20000   1
  -1   2   3 4.19000 0.19000   1
   1   2  -3 5.21000 0.22000   1
   0   2   3 36.3900 1.33000   1
   0   2   3 36.5700 1.30000   1
   0   2  -3 37.4100 1.30000   1
   0   2  -3 32.6700 1.18000   1
   0  -2  -3 39.7200 1.40000   1
   0  -2  -3 34.5200 1.26000   1
   3   1   0 3.23000 0.17000   1
  -3  -1   0 3.17000 0.15000   1
  -3   1   0 3.21000 0.12000   1
   3  -1   0 2.94000 0.13000   1
   0   3  -1 0.53000 0.08000   1
   0  -3  -1 0.52000 0.07000   1
   0  -3   1 0.39000 0.07000   1
   0   3   1 0.49000 0.09000   1
  -3  -1   2 0.15000 0.06000   1
   3   1  -2 0.25000 0.09000   1
  -3   1   2 0.26000 0.03000   1
   0   0  -4 139.600 5.50000   1
   0   0   4 143.160 5.60000   1
   1  -3   0 60.3000 2.14000   1
  -1  -3   0 58.9500 2.17000   1
  -1   3   0 56.9700 2.04000   1
   1   3   0 55.3800 2.03000   1
  -1  -1   4 0.20000 0.08000   1
  -1   1   4 0.30000 0.07000   1
   1  -1  -4 0.41000 0.06000   1
   1   1  -4 0.43000 0.06000   1
   1   3  -1 4.57000 0.21000   1
   1  -3  -1 4.91000 0.19000   1
  -1   3   1 5.08000 0.22000   1
  -1  -3   1 3.91000 0.18000   1
   3   0   1 14.9300 0.50000   1
  -3   0  -1 14.6300 0.52000   1
   3   0   1 15.1500 0.53000   1
  -3   0  -1 14.6900 0.50000   1
   2   0  -4 4.12000 0.18000   1
  -2   0   4 4.46000 0.19000   1
   3   0  -3 63.0400 2.24000   1
  -3   0   3 59.4800 2.11000   1
   0  -1   4 53.7400 2.00000   1
   0   1  -4 64.0600 2.34000   1
   0  -1  -4 59.3100 2.20000   1
   0  -1  -4 60.1900 2.21000   1
   0   1   4 63.3600 2.31000   1
   2   2  -3 15.6300 0.59000   1
  -2   2   3 16.0900 0.56000   1
   2   2  -3 16.4200 0.58000   1
   1   3   1 38.4500 1.42000   1
   1  -3   1 42.8000 1.47000   1
  -1  -3  -1 40.7700 1.48000   1
  -1   3  -1 42.1000 1.44000   1
   3  -1   1 18.0900 0.61000   1
   3   1   1 16.3600 0.58000   1
  -3   1  -1 17.5500 0.59000   1
  -3   1  -1 16.3000 0.54000   1
  -3  -1  -1 17.2900 0.62000   1
   3   1   1 17.4700 0.64000   1
   3  -1   1 16.1800 0.55000   1
  -2   1   4 38.9700 1.36000   1
  -2  -1   4 37.2600 1.32000   1
   2   1  -4 35.7600 1.28000   1
   2  -1  -4 36.6700 1.29000   1
   0  -3   2 0.50000 0.07000   1
   0  -3  -2 0.38000 0.07000   1
   0   3   2 0.33000 0.09000   1
   0   3  -2 0.40000 0.07000   1
   3   1  -3 11.7400 0.41000   1
   3   1  -3 11.6100 0.46000   1
   3  -1  -3 11.6100 0.39000   1
  -3   1   3 11.1900 0.38000   1
   1   2   3 42.8500 1.56000   1
  -1   2  -3 41.6900 1.44000   1
  -1   2  -3 38.9300 1.41000   1
  -1  -2  -3 43.0600 1.56000   1
   1  -2   3 43.6900 1.56000   1
   1   2   3 37.6900 1.38000   1
  -1  -3   2 1.77000 0.10000   1
   1   3  -2 1.75000 0.13000   1
   1  -3  -2 1.56000 0.11000   1
   2   0   3 -0.0500 0.04000   1
   2   0   3 -0.0200 0.05000   1
  -2   0  -3 0.04000 0.04000   1
  -2   0  -3 -0.00000 0.0300   1
   2   2   2 0.91000 0.11000   1
  -2  -2  -2 0.75000 0.08000   1
   2  -2   2 0.89000 0.10000   1
   2   2   2 0.88000 0.10000   1
  -2   2  -2 0.75000 0.07000   1
   3   2  -1 7.11000 0.31000   1
  -1   0  -4 0.04000 0.06000   1
   1   0   4 0.07000 0.07000   1
   3   2   0 0.34000 0.10000   1
   3  -2   0 0.29000 0.06000   1
  -3   2   0 0.43000 0.05000   1
  -2  -1  -3 9.16000 0.34000   1
  -2  -1  -3 9.35000 0.35000   1
   2  -1   3 9.74000 0.36000   1
   2   1   3 9.09000 0.35000   1
   2   1   3 10.4700 0.40000   1
  -2   1  -3 9.24000 0.33000   1
  -2   1  -3 9.10000 0.31000   1
   2   3  -1 1.13000 0.12000   1
   2  -3  -1 1.06000 0.08000   1
  -3   2   2 13.9000 0.46000   1
   3   2  -2 12.3300 0.50000   1
   2   3   0 18.8200 0.71000   1
   2  -3   0 18.4900 0.62000   1
   1  -2  -4 0.95000 0.08000   1
  -1   2   4 0.81000 0.10000   1
   1   2  -4 1.14000 0.10000   1
  -1  -2   4 1.10000 0.11000   1
   1  -3   2 0.31000 0.05000   1
  -1   3  -2 0.34000 0.05000   1
  -1   3  -2 0.24000 0.05000   1
   1   3   2 0.32000 0.10000   1
  -1   1  -4 0.79000 0.07000   1
  -1  -1  -4 0.99000 0.09000   1
   1   1   4 0.89000 0.10000   1
   1  -1   4 0.92000 0.10000   1
  -3   0  -2 0.01000 0.04000   1
   3   0   2 0.04000 0.04000   1
  -3   0  -2 -0.0200 0.04000   1
   3   0   2 -0.0100 0.05000   1
  -3   0   4 -0.00000 0.0500   1
   3   0  -4 0.03000 0.04000   1
   2  -3  -2 10.2800 0.39000   1
   2   3  -2 10.9200 0.43000   1
   0   2   4 18.3100 0.67000   1
   0  -2   4 16.1200 0.61000   1
   2   3   1 2.67000 0.17000   1
   2  -3   1 2.69000 0.11000   1
  -2   3  -1 2.70000 0.13000   1
  -1   0   5 0.19000 0.07000   1
  -4   0   1 0.04000 0.04000   1
   4   0  -1 -0.0200 0.05000   1
   4   0  -1 0.00000 0.02000   1
  -1  -3   3 2.70000 0.14000   1
  -1   3   3 2.96000 0.16000   1
   1   3  -3 2.96000 0.17000   1
   3   1   2 2.18000 0.14000   1
   3   1   2 2.23000 0.14000   1
   3  -1   2 2.11000 0.10000   1
   3  -1   2 2.33000 0.13000   1
  -3  -1  -2 1.99000 0.12000   1
  -3   1  -2 1.96000 0.10000   1
  -3   1  -2 2.10000 0.10000   1
   3   2   1 12.0100 0.47000   1
   3   2   1 10.9000 0.40000   1
   3  -2   1 11.4600 0.37000   1
  -3   2  -1 10.8600 0.37000   1
  -2   2   4 4.15000 0.20000   1
   2  -2  -4 4.20000 0.17000   1
   2   2  -4 4.36000 0.23000   1
   0   3   3 13.5800 0.53000   1
   0   3  -3 13.1600 0.48000   1
   0   3   3 14.8500 0.56000   1
   4   0  -2 169.300 6.53000   1
   4   0  -2 171.420 6.90000   1
  -3   2   3 14.1300 0.48000   1
   3   2  -3 14.1900 0.50000   1
   3   2  -3 14.1500 0.56000   1
   3   1  -4 1.85000 0.15000   1
   3   1  -4 1.55000 0.10000   1
   3  -1  -4 1.43000 0.08000   1
  -3   1   4 1.64000 0.10000   1
  -2   0   5 0.03000 0.06000   1
   4   0   0 2.98000 0.16000   1
   4   0   0 2.91000 0.12000   1
  -4   0   0 2.90000 0.15000   1
  -1   1   5 0.36000 0.09000   1
  -1  -1   5 0.47000 0.09000   1
   0   0   5 0.02000 0.06000   1
   4   1  -1 2.11000 0.14000   1
   4  -1  -1 1.99000 0.12000   1
   4   1  -2 85.8300 3.28000   1
   4  -1  -2 85.6700 3.23000   1
  -2   2  -3 98.1600 3.80000   1
   2   2   3 118.260 4.49000   1
   2   2   3 102.700 3.98000   1
  -2   2  -3 97.3900 3.54000   1
  -2   3   3 2.16000 0.14000   1
   2   3  -3 1.79000 0.14000   1
   4   0  -3 0.03000 0.08000   1
   4   0  -3 0.11000 0.04000   1
   0  -4   0 2.31000 0.13000   1
   0   4   0 2.42000 0.14000   1
  -2  -1   5 0.01000 0.06000   1
  -2   1   5 -0.0500 0.05000   1
   4   1   0 3.86000 0.20000   1
   4  -1   0 3.80000 0.13000   1
   4  -1   0 4.10000 0.18000   1
   4   1   0 4.14000 0.17000   1
   0   1   5 0.20000 0.08000   1
   0  -1   5 0.36000 0.09000   1
   1   2   4 0.12000 0.07000   1
   1  -2   4 0.18000 0.08000   1
   1   2   4 0.12000 0.09000   1
   1   3   3 0.05000 0.07000   1
   1   3   3 -0.0200 0.07000   1
  -1   3  -3 0.01000 0.04000   1
   0   4   1 0.16000 0.08000   1
   0   4  -1 0.13000 0.07000   1
   0  -4   1 0.43000 0.07000   1
  -2   0  -4 118.430 4.58000   1
   2   0   4 113.380 4.39000   1
   2   3   2 19.2300 0.74000   1
  -2   3  -2 19.2500 0.69000   1
   2   3   2 19.9200 0.73000   1
   1  -4   0 78.1000 2.94000   1
  -1   4   0 80.9500 3.01000   1
   1   4   0 88.7900 3.35000   1
   4   1  -3 118.610 4.64000   1
   4  -1  -3 113.820 4.23000   1
  -4   1   3 110.780 4.10000   1
   4   1  -3 112.150 4.30000   1
   3   3  -1 30.9500 1.15000   1
   3  -3  -1 30.7100 1.06000   1
   1   4  -1 0.99000 0.11000   1
  -1   4   1 1.06000 0.09000   1
   1  -4  -1 1.01000 0.08000   1
   3   2   2 26.9200 0.98000   1
   3  -2   2 23.9200 0.84000   1
   3   2   2 22.0500 0.81000   1
  -3   2  -2 25.0200 0.87000   1
   4   0   1 -0.0200 0.04000   1
   4   0   1 -0.0200 0.05000   1
  -4   0  -1 0.02000 0.04000   1
   3   0   3 0.26000 0.07000   1
  -3   0  -3 0.12000 0.06000   1
  -3   0  -3 0.15000 0.06000   1
   3   0   3 0.22000 0.07000   1
   3   3   0 43.1100 1.60000   1
   3  -3   0 39.0000 1.33000   1
   3  -2  -4 1.76000 0.10000   1
  -3   2   4 1.71000 0.11000   1
   3   2  -4 1.96000 0.16000   1
   3   3  -2 46.9500 1.76000   1
   2  -1   4 14.1000 0.52000   1
  -2   1  -4 13.6100 0.48000   1
   2   1   4 13.7000 0.51000   1
   2   1   4 11.6000 0.47000   1
   3   0  -5 0.87000 0.08000   1
  -3   0   5 0.95000 0.09000   1
   1  -4   1 11.5700 0.42000   1
  -1   4  -1 12.1200 0.43000   1
   1   4   1 13.3100 0.52000   1
  -1   0  -5 0.35000 0.07000   1
   1   0   5 0.31000 0.09000   1
   1   3  -4 8.21000 0.34000   1
  -1   3   4 8.28000 0.33000   1
  -1  -2   5 12.1600 0.48000   1
  -1   2   5 12.2200 0.47000   1
  -4   2   1 0.00000 0.01000   1
   4   2  -1 0.05000 0.07000   1
   4  -2  -1 0.08000 0.05000   1
  -4   2   1 0.06000 0.01000   1
  -4   1  -1 26.2100 0.92000   1
  -4   1  -1 24.3700 0.83000   1
   4  -1   1 26.6100 0.90000   1
   4   1   1 25.8200 0.90000   1
   4   1   1 24.0000 0.89000   1
   4  -1   1 26.3500 0.91000   1
   0   4  -2 3.49000 0.17000   1
   0  -4   2 3.25000 0.16000   1
   0   4   2 3.58000 0.20000   1
  -4   2   2 1.48000 0.05000   1
   4   2  -2 1.63000 0.15000   1
   3  -1   3 5.22000 0.20000   1
   3   1   3 4.62000 0.21000   1
   3   1   3 4.63000 0.24000   1
  -3   1  -3 5.06000 0.19000   1
  -3   1  -3 5.00000 0.21000   1
   3  -1   3 4.81000 0.22000   1
   1   4  -2 73.6800 2.79000   1
  -1  -4   2 75.7300 2.92000   1
  -1   4   2 88.0900 3.30000   1
   4   0  -4 53.0800 1.91000   1
   4   0  -4 54.0300 2.05000   1
   0   3   4 17.4200 0.66000   1
   0   3  -4 17.9500 0.64000   1
  -3  -1   5 0.08000 0.06000   1
   3  -1  -5 0.12000 0.05000   1
  -3   1   5 0.10000 0.06000   1
   2   2  -5 25.8500 0.99000   1
  -2   2   5 32.7100 1.16000   1
   1   1   5 0.04000 0.07000   1
   1  -1   5 0.09000 0.07000   1
  -1   1  -5 0.06000 0.05000   1
  -4   2   0 2.71000 0.10000   1
   4  -2   0 2.83000 0.14000   1
   4   2   0 2.84000 0.17000   1
   0  -2   5 97.7000 3.81000   1
   0   2   5 109.350 4.20000   1
   3   3   1 22.1400 0.83000   1
  -3   3  -1 19.1700 0.68000   1
   2   3  -4 2.07000 0.15000   1
  -2   3   4 1.92000 0.13000   1
   3   3  -3 1.37000 0.14000   1
  -3   3   3 1.15000 0.09000   1
   2  -4  -1 0.48000 0.07000   1
   2   4  -1 0.90000 0.11000   1
  -4   1   4 156.700 6.08000   1
   4  -1  -4 142.980 5.61000   1
   4   1  -4 148.340 6.01000   1
   4   1  -4 147.150 5.89000   1
   2   4   0 2.18000 0.16000   1
   2  -4   0 2.28000 0.12000   1
   4   2  -3 10.6600 0.44000   1
  -4   2   3 9.25000 0.31000   1
  -1   4  -2 107.310 4.02000   1
   1   4   2 105.320 4.12000   1
   1  -4   2 101.140 3.84000   1
  -1   0   6 0.03000 0.07000   1
   2   3   3 20.1100 0.76000   1
   2   3   3 22.2700 0.85000   1
   2  -2   4 33.5400 1.21000   1
   2   2   4 31.7900 1.18000   1
   2   2   4 35.2700 1.30000   1
  -2   2  -4 28.6200 0.98000   1
   2   4  -2 0.03000 0.07000   1
  -4   0  -2 39.2600 1.45000   1
   4   0   2 38.5300 1.41000   1
   4   0   2 43.9000 1.55000   1
  -4   0  -2 40.2500 1.46000   1
  -2   0   6 9.05000 0.37000   1
   2   4   1 4.16000 0.23000   1
   2  -4   1 4.04000 0.16000   1
  -1   3  -4 43.7500 1.54000   1
   1   3   4 47.2800 1.76000   1
   1   3   4 41.7300 1.57000   1
   1   4  -3 0.65000 0.11000   1
  -1   4   3 0.88000 0.11000   1
  -4   2  -1 25.4700 0.87000   1
   4  -2   1 26.4700 0.89000   1
   4   2   1 26.6000 0.99000   1
   4   2   1 23.1500 0.84000   1
   0   4   3 -0.0100 0.06000   1
   0   4  -3 -0.00000 0.0400   1
   0  -4   3 0.02000 0.04000   1
   0   4   3 -0.0300 0.06000   1
  -1   1   6 5.95000 0.27000   1
  -1  -1   6 5.50000 0.27000   1
   3   2   3 14.6700 0.55000   1
  -3   2  -3 15.6800 0.49000   1
   3  -2   3 15.0400 0.55000   1
   3   2   3 14.8800 0.58000   1
   4  -1   2 0.07000 0.05000   1
   4   1   2 0.04000 0.06000   1
   4   1   2 0.06000 0.06000   1
   4  -1   2 0.06000 0.04000   1
  -4   1  -2 0.05000 0.04000   1
  -4   1  -2 0.00000 0.04000   1
  -3   2   5 2.23000 0.14000   1
   3   2  -5 2.33000 0.18000   1
   3  -2  -5 1.89000 0.12000   1
   0   0   6 26.7700 1.00000   1
  -2  -1   6 89.7800 3.45000   1
  -2   1   6 87.8900 3.36000   1
   1  -2   5 5.72000 0.26000   1
   1   2   5 5.10000 0.25000   1
   5   0  -2 -0.00000 0.0200   1
   5   0  -2 0.01000 0.02000   1
   5   0  -2 -0.0300 0.05000   1
   3   3   2 39.5900 1.45000   1
   3   3   2 36.2600 1.37000   1
  -3   3  -2 36.0700 1.33000   1
   5   0  -1 6.92000 0.30000   1
   5   0  -1 6.70000 0.22000   1
   4   0  -5 0.03000 0.05000   1
  -4   0   5 0.01000 0.05000   1
  -3   3   4 1.78000 0.12000   1
   3   3  -4 2.22000 0.17000   1
  -4   2   4 31.3800 1.08000   1
   4   2  -4 28.1500 1.09000   1
   0  -1   6 73.3700 2.78000   1
   0   1   6 66.4700 2.54000   1
   2   0   5 0.02000 0.06000   1
   2   4  -3 1.80000 0.14000   1
  -2   4   3 1.69000 0.14000   1
   3   0   4 0.05000 0.06000   1
  -3   0  -4 -0.0200 0.05000   1
   3   0   4 0.06000 0.06000   1
  -1   3   5 2.16000 0.14000   1
   1   3  -5 1.62000 0.14000   1
   4   3  -1 0.25000 0.10000   1
  -4   3   1 0.27000 0.04000   1
   5  -1  -2 0.68000 0.08000   1
   5   1  -2 0.69000 0.11000   1
   5   0  -3 19.3500 0.74000   1
   5   0  -3 19.1500 0.64000   1
   5   1  -1 4.20000 0.21000   1
   5  -1  -1 4.24000 0.20000   1
  -3   0   6 0.04000 0.06000   1
   4   3  -2 10.7000 0.47000   1
  -4   3   2 11.3600 0.39000   1
  -4   1   5 20.5500 0.73000   1
   4  -1  -5 19.1200 0.69000   1
   4   1  -5 22.3200 0.86000   1
   1   4   3 0.20000 0.10000   1
   1   4   3 0.67000 0.11000   1
  -1   4  -3 0.23000 0.06000   1
   5   0   0 -0.00000 0.0300   1
   5   0   0 -0.0300 0.05000   1
   2   4   2 4.44000 0.25000   1
   2   1   5 4.40000 0.22000   1
  -2   1  -5 4.20000 0.19000   1
   2  -1   5 4.62000 0.22000   1
   3  -1   4 3.05000 0.16000   1
  -3   1  -4 2.75000 0.13000   1
   3   1   4 3.19000 0.17000   1
   3   1   4 3.68000 0.18000   1
   3   4  -1 4.39000 0.24000   1
   3  -4  -1 4.11000 0.19000   1
  -2   3   5 0.58000 0.09000   1
   2   3  -5 0.46000 0.10000   1
   4   3   0 1.51000 0.15000   1
  -4   3   0 1.59000 0.09000   1
   4  -3   0 1.63000 0.09000   1
   0   3   5 0.08000 0.08000   1
   0   3  -5 0.06000 0.06000   1
   5  -1  -3 0.39000 0.09000   1
   5   1  -3 0.37000 0.06000   1
   5   1  -3 0.38000 0.10000   1
  -3  -1   6 0.67000 0.09000   1
  -3   1   6 0.39000 0.08000   1
  -1  -2   6 1.95000 0.15000   1
  -1   2   6 1.66000 0.14000   1
   3   4   0 52.8000 2.03000   1
   3  -4   0 55.4100 1.98000   1
   3   4  -2 6.86000 0.32000   1
   3  -4  -2 6.08000 0.26000   1
   5   1   0 11.6600 0.47000   1
   5   1   0 12.4600 0.45000   1
   5  -1   0 12.2600 0.46000   1
   4  -2   2 5.11000 0.18000   1
   4  -2   2 5.58000 0.22000   1
   4   2   2 6.04000 0.25000   1
  -4   2  -2 4.66000 0.19000   1
   4   2   2 5.78000 0.27000   1
   4   3  -3 0.83000 0.13000   1
  -4   3   3 0.74000 0.07000   1
   2   2  -6 0.36000 0.10000   1
  -2   2   6 0.23000 0.08000   1
  -2  -2   6 0.24000 0.09000   1
   0   5   0 -0.0500 0.08000   1
  -1   4   4 46.6800 1.75000   1
   1   4  -4 45.0000 1.69000   1
   1   0   6 0.00000 0.06000   1
   4   0   3 -0.00000 0.0600   1
   4   0   3 -0.0200 0.05000   1
  -4   0  -3 -0.00000 0.0500   1
   0   5  -1 1.69000 0.13000   1
   0   5   1 1.53000 0.13000   1
   5   0  -4 -0.0100 0.03000   1
   5   0  -4 -0.0500 0.08000   1
   2   3   4 4.87000 0.26000   1
   2   3   4 5.29000 0.25000   1
   0   4   4 1.54000 0.15000   1
   0   4   4 1.31000 0.14000   1
   0   4  -4 1.32000 0.11000   1
   0   2   6 7.67000 0.34000   1
   0  -2   6 8.35000 0.36000   1
   1   5   0 18.1000 0.69000   1
  -1   5   0 18.3900 0.68000   1
   1  -5   0 18.5700 0.70000   1
   1  -1   6 0.01000 0.06000   1
   1   1   6 -0.0100 0.06000   1
  -1   5   1 0.73000 0.11000   1
   1   5  -1 0.89000 0.12000   1
   5   2  -2 6.08000 0.30000   1
   5  -2  -2 6.63000 0.29000   1
   5   0   1 9.53000 0.38000   1
   5   0   1 10.1200 0.36000   1
   3   4   1 0.72000 0.12000   1
   3  -4   1 0.43000 0.04000   1
  -4   1  -3 7.18000 0.28000   1
   4  -1   3 7.53000 0.30000   1
   4  -1   3 6.90000 0.27000   1
   4   1   3 7.23000 0.32000   1
   4   1   3 7.38000 0.30000   1
   4   3   1 19.6100 0.77000   1
   4   3   1 19.1900 0.71000   1
  -4   3  -1 20.6500 0.72000   1
   5   2  -1 1.03000 0.12000   1
   5  -2  -1 0.83000 0.10000   1
  -2   4   4 0.73000 0.10000   1
   2   4  -4 0.51000 0.11000   1
   3   4  -3 0.09000 0.10000   1
  -3   4   3 0.09000 0.07000   1
   3   3   3 9.96000 0.41000   1
   3   3   3 10.2000 0.44000   1
   4   2  -5 6.84000 0.33000   1
  -4   2   5 6.06000 0.25000   1
   4  -2  -5 5.94000 0.25000   1
   5   1  -4 1.17000 0.13000   1
   5   1  -4 0.88000 0.08000   1
   5  -1  -4 0.77000 0.06000   1
   5  -1  -4 0.95000 0.12000   1
  -3   3   5 1.18000 0.11000   1
   3   3  -5 1.35000 0.14000   1
   2   2   5 3.70000 0.22000   1
  -2   2  -5 3.94000 0.18000   1
   2   2   5 4.72000 0.23000   1
   2  -2   5 3.92000 0.21000   1
   3   2   4 0.78000 0.12000   1
   3  -2   4 0.83000 0.11000   1
   3   2   4 0.74000 0.11000   1
  -3   2  -4 0.61000 0.05000   1
  -1   5  -1 19.0700 0.70000   1
   1   5   1 17.8400 0.71000   1
   1  -5   1 18.0600 0.69000   1
  -1   3  -5 25.4200 0.90000   1
   1   3   5 25.8800 1.01000   1
   1   3   5 25.4500 0.97000   1
   1  -3   5 28.4700 1.06000   1
   5   1   1 10.5200 0.40000   1
  -5   1  -1 10.1600 0.40000   1
   5  -1   1 10.6600 0.38000   1
  -5   1  -1 9.78000 0.34000   1
   5   1   1 10.8100 0.43000   1
   5  -1   1 10.4400 0.40000   1
   5   2  -3 2.07000 0.18000   1
  -3   2   6 1.78000 0.14000   1
   3   2  -6 1.48000 0.15000   1
   0   5  -2 0.19000 0.08000   1
   0  -5   2 0.15000 0.07000   1
   0   5   2 0.23000 0.10000   1
   1   5  -2 0.16000 0.08000   1
  -1   5   2 0.24000 0.08000   1
   2   4   3 0.15000 0.11000   1
   2   4   3 0.18000 0.09000   1
  -4   3   4 2.28000 0.13000   1
   4   3  -4 2.94000 0.21000   1
  -4   0   6 1.63000 0.13000   1
   5   2   0 15.4100 0.57000   1
  -5   2   0 15.6300 0.49000   1
   5  -2   0 16.7500 0.60000   1
   5   2   0 15.3400 0.61000   1
  -1   0   7 -0.0200 0.07000   1
  -2   0   7 0.01000 0.07000   1
  -1   4  -4 18.4000 0.65000   1
   1   4   4 17.1300 0.70000   1
   1   4   4 22.7600 0.87000   1
   2   5  -1 0.09000 0.09000   1
   4   1  -6 0.49000 0.12000   1
  -4   1   6 0.18000 0.08000   1
   2  -5   0 0.14000 0.05000   1
   2   5   0 0.01000 0.09000   1
  -1  -1   7 0.21000 0.10000   1
  -1   1   7 0.31000 0.10000   1
  -2  -1   7 1.12000 0.13000   1
  -2   1   7 0.93000 0.12000   1
   5   0  -5 13.6900 0.51000   1
   5   0  -5 16.7500 0.68000   1
   1  -5   2 8.77000 0.35000   1
  -1   5  -2 10.2100 0.38000   1
   1   5   2 10.0900 0.44000   1
   1  -2   6 3.79000 0.21000   1
   1   2   6 2.84000 0.19000   1
   3   4   2 1.65000 0.14000   1
   3   4   2 1.47000 0.16000   1
  -4   2  -3 8.64000 0.29000   1
   4   2   3 8.65000 0.35000   1
   4   2   3 8.80000 0.39000   1
   4  -2   3 8.35000 0.34000   1
  -1   3   6 4.17000 0.22000   1
   1   3  -6 4.51000 0.25000   1
   3   4  -4 25.9900 1.01000   1
  -3   4   4 22.1200 0.83000   1
   3   0   5 3.96000 0.21000   1
   5   2  -4 15.7900 0.65000   1
  -5   2   4 14.9300 0.50000   1
   2   5  -2 0.11000 0.09000   1
   4   3   2 14.1200 0.57000   1
   4   3   2 12.4200 0.49000   1
  -4   3  -2 12.6400 0.49000   1
   0   0   7 0.01000 0.07000   1
  -2   3   6 4.42000 0.22000   1
   2   3  -6 4.73000 0.25000   1
   5   0   2 0.07000 0.06000   1
   5   0   2 -0.0200 0.06000   1
  -3   0   7 0.13000 0.08000   1
   5  -1  -5 0.63000 0.07000   1
   5   1  -5 0.95000 0.13000   1
  -5   1   5 0.64000 0.08000   1
   2  -5   1 0.02000 0.04000   1
   2   5   1 0.01000 0.08000   1
  -1   4   5 4.29000 0.22000   1
   1   4  -5 3.84000 0.22000   1
   4  -4  -1 1.11000 0.09000   1
   4   4  -1 1.53000 0.16000   1
   1   5  -3 68.1300 2.61000   1
  -5   2  -1 5.98000 0.23000   1
   5  -2   1 6.46000 0.25000   1
   5   2   1 6.46000 0.27000   1
   5   2   1 6.58000 0.31000   1
   2   0   6 88.5300 3.45000   1
   0   5   3 3.56000 0.22000   1
   0  -5   3 2.66000 0.15000   1
   0   5  -3 2.84000 0.17000   1
   4   4  -2 1.00000 0.15000   1
  -3   1  -5 0.10000 0.06000   1
   3   1   5 0.29000 0.09000   1
   3  -1   5 0.25000 0.08000   1
   3   1   5 0.22000 0.09000   1
   0  -1   7 2.11000 0.17000   1
   0   1   7 2.21000 0.17000   1
   0   3  -6 1.09000 0.11000   1
   0   3   6 0.72000 0.13000   1
   0  -3   6 1.14000 0.14000   1
   5  -1   2 0.91000 0.09000   1
  -5   1  -2 0.71000 0.08000   1
   5  -1   2 0.82000 0.09000   1
   5   1   2 0.93000 0.13000   1
   5   1   2 0.97000 0.09000   1
  -5   1  -2 0.60000 0.08000   1
   2   4  -5 4.72000 0.25000   1
  -2   4   5 4.92000 0.24000   1
  -3   1   7 1.30000 0.14000   1
  -3  -1   7 1.24000 0.13000   1
   4   0   4 52.6900 2.00000   1
   4   0   4 66.2000 2.44000   1
   4  -4   0 2.13000 0.10000   1
   4   4   0 2.44000 0.20000   1
  -4   4   0 1.78000 0.11000   1
   0   4   5 4.92000 0.26000   1
   0   4  -5 4.33000 0.22000   1
   5   3  -2 37.9100 1.47000   1
  -5   3   2 37.2700 1.22000   1
  -5   3   2 33.3100 1.10000   1
   2   1   6 0.15000 0.09000   1
   2  -1   6 0.16000 0.09000   1
   5  -3  -1 20.9300 0.77000   1
  -5   3   1 19.3000 0.63000   1
   5   3  -1 19.7800 0.79000   1
  -4   3   5 1.72000 0.12000   1
   4   3  -5 2.04000 0.18000   1
  -4   2   6 8.13000 0.33000   1
   4   2  -6 7.74000 0.37000   1
   6   0  -2 2.36000 0.16000   1
  -2   3  -5 2.16000 0.10000   1
   2   3   5 2.58000 0.18000   1
   2   3   5 2.33000 0.19000   1
   2  -3   5 2.78000 0.18000   1
  -2   3  -5 2.06000 0.10000   1
   2   5  -3 7.36000 0.34000   1
   3   3   4 19.0000 0.77000   1
   3   3   4 19.8900 0.77000   1
  -4   4   3 0.05000 0.06000   1
   4   4  -3 0.01000 0.10000   1
  -1   2   7 1.78000 0.16000   1
  -1  -2   7 1.63000 0.16000   1
  -2   2   7 31.9800 1.22000   1
  -2  -2   7 33.8200 1.29000   1
   4   1   4 14.0900 0.57000   1
   4  -1   4 15.9600 0.61000   1
   4  -1   4 15.2800 0.55000   1
   4   1   4 13.1600 0.52000   1
  -4   1  -4 13.2600 0.49000   1
  -5   3   3 9.67000 0.32000   1
   5   3  -3 10.2700 0.47000   1
  -3   3   6 5.74000 0.28000   1
   3   3  -6 5.83000 0.31000   1
   6   0  -1 0.05000 0.06000   1
   6   0  -1 0.01000 0.02000   1
   6   0  -3 -0.0100 0.07000   1
   6   0  -3 0.01000 0.02000   1
  -1   5  -3 17.4300 0.63000   1
   1   5   3 17.5100 0.71000   1
   1   5   3 16.9600 0.69000   1
   1  -5   3 14.0900 0.53000   1
   2   4   4 2.21000 0.18000   1
   2   4   4 2.63000 0.20000   1
  -5   3   0 0.45000 0.05000   1
   5  -3   0 0.56000 0.07000   1
   5   3   0 0.71000 0.12000   1
   2   5   2 1.16000 0.16000   1
   2  -5   2 0.99000 0.07000   1
   6   1  -2 5.58000 0.29000   1
   6  -1  -2 5.18000 0.24000   1
   3   5  -1 0.21000 0.11000   1
   3  -5  -1 0.13000 0.07000   1
   5   2  -5 5.13000 0.29000   1
  -5   2   5 4.77000 0.20000   1
   4   4   1 1.72000 0.17000   1
   6  -1  -1 14.3000 0.56000   1
   6   1  -1 13.9600 0.57000   1
   6   1  -1 14.3900 0.50000   1
   1   0   7 0.93000 0.13000   1
   3   4   3 2.00000 0.19000   1
   3   4   3 2.11000 0.17000   1
   3  -5   0 29.6900 1.08000   1
   3   5   0 34.7900 1.34000   1
   6   1  -3 6.17000 0.24000   1
   6   1  -3 7.31000 0.35000   1
   6  -1  -3 6.84000 0.31000   1
  -3   2  -5 3.49000 0.15000   1
   3  -2   5 3.83000 0.22000   1
   3   2   5 4.59000 0.23000   1
   3   2   5 4.29000 0.24000   1
   3   5  -2 34.9500 1.36000   1
   0   2   7 0.05000 0.09000   1
   0  -2   7 0.20000 0.10000   1
   5   0  -6 0.07000 0.11000   1
  -3   4   5 5.17000 0.25000   1
   3   4  -5 5.32000 0.30000   1
  -4   0   7 -0.00000 0.0600   1
  -5   2  -2 8.76000 0.35000   1
   5  -2   2 8.62000 0.31000   1
   5  -2   2 9.51000 0.37000   1
   5   2   2 8.62000 0.39000   1
   5   2   2 9.48000 0.39000   1
   1   4   5 1.33000 0.15000   1
   1   4   5 1.12000 0.16000   1
  -1   4  -5 0.95000 0.09000   1
  -3  -2   7 4.53000 0.23000   1
  -3   2   7 6.00000 0.28000   1
   3   2  -7 5.97000 0.32000   1
  -1   5   4 4.14000 0.24000   1
   1   5  -4 3.62000 0.22000   1
   6   0   0 12.1200 0.48000   1
   6   0   0 12.2100 0.42000   1
   1  -3   6 0.89000 0.12000   1
   1   3   6 0.51000 0.13000   1
  -1   3  -6 0.64000 0.09000   1
   4   3   3 2.40000 0.19000   1
   4   3   3 1.96000 0.16000   1
   2   2   6 1.60000 0.15000   1
   2  -2   6 1.11000 0.14000   1
  -2   2  -6 1.32000 0.11000   1
   1   1   7 4.04000 0.24000   1
   1  -1   7 3.55000 0.22000   1
   6   0  -4 6.75000 0.24000   1
   6   0  -4 8.39000 0.38000   1
   5   3  -4 7.71000 0.39000   1
  -5   3   4 7.12000 0.26000   1
  -4   4   4 1.38000 0.11000   1
   4   4  -4 1.36000 0.17000   1
   0   5   4 -0.0200 0.07000   1
   0   5  -4 0.04000 0.05000   1
   0   5   4 -0.0600 0.06000   1
   5   1  -6 -0.0200 0.08000   1
   5  -1  -6 -0.00000 0.0400   1
  -5   1   6 0.01000 0.05000   1
   4   1  -7 0.22000 0.13000   1
  -4  -1   7 0.26000 0.11000   1
  -4   1   7 0.35000 0.10000   1
   5   0   3 0.72000 0.10000   1
   5   0   3 0.89000 0.10000   1
   6  -1   0 -0.0300 0.06000   1
   6   1   0 0.07000 0.07000   1
   6   1   0 0.01000 0.05000   1
   4   2   4 1.21000 0.14000   1
  -4   2  -4 0.78000 0.06000   1
   4   2   4 1.15000 0.12000   1
   4  -2   4 0.77000 0.11000   1
   5   3   1 0.92000 0.14000   1
  -5   3  -1 0.65000 0.06000   1
   5  -3   1 0.75000 0.05000   1
   5   3   1 1.08000 0.12000   1
   3  -5   1 1.65000 0.09000   1
   3   5   1 2.34000 0.19000   1
  -2   5   4 2.45000 0.18000   1
   2   5  -4 2.25000 0.17000   1
   6   1  -4 38.2100 1.44000   1
   6  -1  -4 43.5000 1.69000   1
   6   1  -4 41.8100 1.64000   1
  -3   5   3 7.17000 0.31000   1
   3   5  -3 6.09000 0.32000   1
   6   2  -2 0.09000 0.10000   1
   6  -2  -2 0.14000 0.07000   1
   0   6   0 0.29000 0.10000   1
   5   1   3 2.04000 0.15000   1
   5   1   3 1.73000 0.14000   1
  -5   1  -3 1.40000 0.12000   1
   5  -1   3 1.74000 0.13000   1
   5  -1   3 1.89000 0.13000   1
   6  -2  -1 1.17000 0.11000   1
   6   2  -1 0.77000 0.09000   1
   6   2  -1 1.22000 0.14000   1
  -2   0   8 1.98000 0.17000   1
   1   4  -6 30.0700 1.15000   1
  -1   4   6 29.9500 1.16000   1
   6   2  -3 0.55000 0.14000   1
   6  -2  -3 0.63000 0.10000   1
   2   5   3 0.15000 0.12000   1
   2   5   3 0.09000 0.10000   1
   0   6  -1 6.62000 0.32000   1
   0   6   1 6.51000 0.33000   1
   4   3  -6 0.59000 0.15000   1
  -4   3   6 0.65000 0.10000   1
  -1   0   8 -0.0100 0.09000   1
   4   4   2 1.64000 0.17000   1
   4   4   2 1.85000 0.16000   1
   1   6   0 16.9200 0.69000   1
  -1   6   0 18.1600 0.71000   1
   2   4  -6 0.04000 0.08000   1
  -2   4   6 -0.0100 0.08000   1
  -1   3   7 13.5600 0.57000   1
   1   3  -7 15.2100 0.62000   1
   6   0   1 -0.0100 0.04000   1
   6   0   1 0.01000 0.06000   1
   2   3  -7 9.92000 0.45000   1
  -2   3   7 9.52000 0.42000   1
   1   6  -1 0.41000 0.13000   1
  -1   6   1 0.43000 0.11000   1
  -1   5  -4 0.57000 0.08000   1
   1   5   4 0.69000 0.15000   1
   1   5   4 0.86000 0.14000   1
  -2   1   8 42.2300 1.64000   1
  -2  -1   8 47.2600 1.83000   1
   3   0   6 0.01000 0.07000   1
   1  -2   7 4.19000 0.25000   1
   1   2   7 4.00000 0.24000   1
   6   0  -5 0.04000 0.09000   1
   6   0  -5 0.00000 0.04000   1
  -1  -1   8 0.85000 0.15000   1
  -1   1   8 0.97000 0.14000   1
   5   2  -6 2.52000 0.22000   1
   5  -2  -6 2.04000 0.14000   1
  -5   2   6 2.47000 0.15000   1
   0   4   6 2.95000 0.21000   1
   0   4  -6 2.39000 0.16000   1
   1   6   1 64.5800 2.54000   1
  -1   6  -1 68.1000 2.58000   1
  -4   2   7 16.2100 0.64000   1
   4   2  -7 16.6700 0.72000   1
  -3   0   8 -0.0500 0.08000   1
   6  -1   1 7.78000 0.33000   1
   6  -1   1 7.36000 0.27000   1
   6   1   1 7.38000 0.33000   1
   6   1   1 7.03000 0.28000   1
  -5   3   5 2.47000 0.14000   1
   5   3  -5 2.28000 0.21000   1
   6  -2   0 0.01000 0.06000   1
   6   2   0 -0.00000 0.0500   1
   6   2   0 0.01000 0.08000   1
   4   0   5 0.04000 0.07000   1
   4   0   5 -0.0100 0.07000   1
   5   4  -2 4.12000 0.26000   1
  -5   4   2 3.22000 0.15000   1
   3   5   2 0.14000 0.12000   1
   5   4  -1 0.30000 0.12000   1
   5  -4  -1 0.20000 0.07000   1
   5  -4  -1 0.09000 0.05000   1
  -5   4   1 0.18000 0.05000   1
   0   6  -2 0.40000 0.11000   1
   0   6   2 0.57000 0.13000   1
   3   1   6 2.03000 0.17000   1
   3  -1   6 1.99000 0.16000   1
   6   2  -4 23.9300 0.99000   1
   6  -2  -4 24.8200 0.97000   1
   4   4  -5 5.18000 0.31000   1
  -4   4   5 5.39000 0.25000   1
   3   5  -4 1.63000 0.17000   1
  -3   5   4 1.57000 0.15000   1
   3   3   5 6.58000 0.33000   1
   3   3   5 6.19000 0.33000   1
   3  -3   5 5.67000 0.28000   1
   1   6  -2 3.33000 0.20000   1
  -1   6   2 3.43000 0.24000   1
   6  -1  -5 34.6800 1.36000   1
   6  -1  -5 28.6500 1.03000   1
   6   1  -5 29.9900 1.16000   1
   6   1  -5 34.2000 1.35000   1
   0   3  -7 9.73000 0.41000   1
   0   3   7 6.80000 0.35000   1
   0  -3   7 8.57000 0.41000   1
   0   0   8 38.0900 1.49000   1
   2   4   5 13.9400 0.61000   1
   2   4   5 14.9000 0.61000   1
   3   4   4 64.3200 2.55000   1
   3   4   4 71.8900 2.84000   1
   2   0   7 -0.0700 0.09000   1
   5   2   3 0.30000 0.11000   1
   5  -2   3 0.21000 0.05000   1
   5  -2   3 0.30000 0.08000   1
   5   2   3 0.18000 0.10000   1
   5   3   2 29.7400 1.18000   1
   5   3   2 31.0100 1.17000   1
  -3  -1   8 5.46000 0.29000   1
  -3   1   8 6.25000 0.30000   1
   3   3  -7 0.85000 0.15000   1
  -3   3   7 0.85000 0.12000   1
   4   1   5 15.2900 0.61000   1
   4  -1   5 16.0500 0.62000   1
   4   1   5 14.3900 0.60000   1
  -1   5   5 21.3700 0.87000   1
   1   5  -5 23.9200 0.93000   1
   4   5  -1 2.38000 0.21000   1
   4  -5  -1 2.03000 0.13000   1
   5   4  -3 0.09000 0.11000   1
  -5   4   3 0.04000 0.05000   1
  -2   3  -6 8.80000 0.34000   1
   2   3   6 9.04000 0.44000   1
   2   3   6 9.51000 0.43000   1
  -2   3  -6 8.49000 0.35000   1
   2  -3   6 9.43000 0.42000   1
  -3   4   6 9.72000 0.43000   1
   3   4  -6 9.59000 0.45000   1
   4   5  -2 0.46000 0.15000   1
   2   6  -1 3.75000 0.24000   1
   5   4   0 8.65000 0.42000   1
  -5   4   0 8.11000 0.32000   1
   5  -4   0 7.88000 0.29000   1
   5  -4   0 8.82000 0.32000   1
   2   6   0 1.98000 0.18000   1
  -5   0   7 0.59000 0.11000   1
   0  -1   8 2.62000 0.21000   1
   0   1   8 3.02000 0.22000   1
   2   1   7 23.7900 0.95000   1
   2  -1   7 26.4500 1.03000   1
  -2   5   5 1.81000 0.17000   1
   2   5  -5 1.56000 0.16000   1
   4   3   4 0.03000 0.08000   1
   4   3   4 0.06000 0.10000   1
  -1   6  -2 1.17000 0.13000   1
   1   6   2 1.05000 0.16000   1
   4   5   0 1.09000 0.16000   1
   4  -5   0 0.89000 0.07000   1
   0   5   5 0.05000 0.10000   1
   0   5  -5 -0.0600 0.08000   1
  -2  -2   8 3.03000 0.21000   1
  -2   2   8 2.90000 0.21000   1
   2   6  -2 0.00000 0.07000   1
  -1   2   8 0.23000 0.11000   1
  -1  -2   8 0.19000 0.12000   1
   5   1  -7 0.34000 0.14000   1
  -5   1   7 0.28000 0.09000   1
   6   3  -2 -0.1100 0.08000   1
   6  -3  -2 0.06000 0.06000   1
   4   5  -3 0.07000 0.11000   1
  -4   5   3 0.07000 0.07000   1
   6   2   1 3.31000 0.22000   1
   6  -2   1 2.64000 0.15000   1
   6   2   1 2.86000 0.16000   1
   1   4   6 104.040 4.18000   1
  -1   4  -6 101.040 3.92000   1
   2  -6   1 8.51000 0.37000   1
   2   6   1 9.26000 0.44000   1
   5   0   4 0.04000 0.08000   1
   5   0   4 0.10000 0.08000   1
   1   6  -3 45.2000 1.76000   1
   6   0   2 6.28000 0.27000   1
   6   0   2 6.05000 0.29000   1
   4   4   3 13.8900 0.62000   1
   4   4   3 14.9300 0.61000   1
   6  -3  -1 6.96000 0.30000   1
   6   3  -1 6.86000 0.35000   1
   3   2   6 6.50000 0.33000   1
   3  -2   6 7.11000 0.34000   1
   3   2   6 7.16000 0.35000   1
   0   6   3 5.96000 0.34000   1
   0   6  -3 5.95000 0.29000   1
  -4   0   8 11.0800 0.47000   1
   6  -3  -3 1.25000 0.14000   1
   6   3  -3 1.43000 0.18000   1
   6   2  -5 17.1500 0.74000   1
   5   4  -4 1.82000 0.20000   1
  -5   4   4 1.53000 0.11000   1
   2   5   4 4.13000 0.24000   1
   2   5   4 3.21000 0.26000   1
   6   0  -6 0.07000 0.12000   1
   3   2  -8 0.08000 0.11000   1
  -3   2   8 0.18000 0.09000   1
  -3  -2   8 0.04000 0.11000   1
   4   2   5 7.14000 0.34000   1
   4  -2   5 8.87000 0.39000   1
   4   2   5 6.51000 0.34000   1
   5  -1   4 0.23000 0.09000   1
   5   1   4 0.28000 0.10000   1
   5   1   4 0.26000 0.10000   1
   5  -1   4 0.27000 0.08000   1
   6   1   2 15.6900 0.59000   1
   6   1   2 15.3500 0.62000   1
   6  -1   2 14.3800 0.56000   1
   6  -1   2 16.0000 0.59000   1
   5   4   1 6.55000 0.35000   1
   5   4   1 6.45000 0.31000   1
   4   5   1 0.71000 0.15000   1
  -1   3  -7 0.37000 0.10000   1
   1   3   7 0.39000 0.12000   1
   1  -3   7 0.39000 0.12000   1
   3   5   3 23.4200 0.99000   1
   3   5   3 27.8700 1.08000   1
  -4  -1   8 40.2200 1.54000   1
  -4   1   8 39.8700 1.52000   1
  -5   3   6 0.53000 0.09000   1
   5   3  -6 0.61000 0.16000   1
  -3   5   5 72.4400 2.81000   1
   3   5  -5 67.9300 2.73000   1
   0  -2   8 2.17000 0.19000   1
   0   2   8 1.92000 0.19000   1
   2   6  -3 3.40000 0.25000   1
   6  -1  -6 21.1400 0.89000   1
   6   1  -6 20.1500 0.86000   1
   1   0   8 -0.0200 0.09000   1
  -4   3   7 3.39000 0.21000   1
   4   3  -7 3.20000 0.24000   1
   2  -2   7 12.9700 0.56000   1
   2   2   7 13.4900 0.57000   1
   1   5   5 21.6600 0.92000   1
   1   5   5 27.0100 1.07000   1
  -1   5  -5 20.7900 0.78000   1
   6  -3   0 6.76000 0.27000   1
   6   3   0 6.96000 0.31000   1
   6   3   0 6.66000 0.35000   1
   7   0  -2 -0.0100 0.07000   1
   6   3  -4 2.45000 0.22000   1
   1   6   3 33.5200 1.36000   1
  -1   6  -3 34.4700 1.28000   1
   4   5  -4 0.30000 0.13000   1
  -4   5   4 0.17000 0.09000   1
  -4   4   6 0.13000 0.09000   1
   4   4  -6 0.15000 0.13000   1
   7   0  -3 5.47000 0.29000   1
   2   6   2 0.04000 0.11000   1
  -5   2   7 0.68000 0.11000   1
   5   2  -7 0.77000 0.16000   1
   1   1   8 3.21000 0.22000   1
   1  -1   8 3.33000 0.23000   1
   3   6  -1 32.2800 1.30000   1
  -1   4   7 0.22000 0.11000   1
   1   4  -7 0.22000 0.11000   1
   5   3   3 9.26000 0.41000   1
   5   3   3 11.5700 0.51000   1
  -2   4   7 0.20000 0.11000   1
   2   4  -7 0.31000 0.13000   1
   7   0  -1 15.2400 0.64000   1
   7   1  -2 11.4800 0.51000   1
   7  -1  -2 11.4100 0.49000   1
   7   1  -2 10.6700 0.38000   1
   3   6   0 0.17000 0.13000   1
   3   6  -2 1.84000 0.20000   1
   7   1  -3 0.09000 0.09000   1
   7  -1  -3 -0.0500 0.06000   1
  -1   6   4 7.43000 0.39000   1
   1   6  -4 9.71000 0.44000   1
   5   4  -5 0.59000 0.17000   1
  -5   4   5 0.92000 0.10000   1
   5   2   4 6.12000 0.32000   1
   5   2   4 6.08000 0.29000   1
   5  -2   4 5.98000 0.29000   1
   7   0  -4 0.04000 0.09000   1
   6  -2   2 1.33000 0.09000   1
   6   2   2 1.16000 0.13000   1
   6   2   2 1.27000 0.16000   1
   7   1  -1 4.40000 0.19000   1
   7   1  -1 4.77000 0.27000   1
   7  -1  -1 4.51000 0.25000   1
  -2   3   8 4.44000 0.26000   1
   2   3  -8 4.64000 0.28000   1
  -1   5   6 12.9000 0.56000   1
   1   5  -6 12.5800 0.54000   1
   4   2  -8 6.23000 0.35000   1
  -4   2   8 6.30000 0.32000   1
   3   4   5 0.98000 0.15000   1
   3   4   5 0.89000 0.17000   1
  -1   3   8 21.4400 0.86000   1
   1   3  -8 19.5700 0.82000   1
  -1  -3   8 19.6700 0.83000   1
   0   6   4 1.67000 0.18000   1
   0   6   4 1.78000 0.19000   1
   0   6  -4 1.21000 0.14000   1
   4   5   2 4.31000 0.29000   1
   4   5   2 5.17000 0.28000   1
   0   4   7 2.54000 0.21000   1
   0   4  -7 2.49000 0.19000   1
  -6   2   6 39.7200 1.43000   1
   6   2  -6 35.5000 1.45000   1
  -2   0   9 -0.0900 0.11000   1
  -2   5   6 1.26000 0.15000   1
   2   5  -6 1.45000 0.18000   1
   5   4   2 16.3800 0.71000   1
   5   4   2 16.1300 0.65000   1
   6   3   1 12.2700 0.50000   1
   6   3   1 9.71000 0.46000   1
   6  -3   1 10.6600 0.39000   1
  -3   4   7 9.44000 0.42000   1
   3   4  -7 10.7100 0.50000   1
   7   1  -4 0.58000 0.16000   1
   7  -1  -4 0.74000 0.13000   1
   3   6   1 33.5400 1.35000   1
   2   4   6 6.65000 0.38000   1
   2   4   6 5.86000 0.33000   1
   2   6  -4 4.88000 0.28000   1
  -2   6   4 5.14000 0.29000   1
   4   0   6 62.5400 2.44000   1
   3  -3   6 3.42000 0.21000   1
   3   3   6 3.64000 0.23000   1
   3   3   6 3.32000 0.25000   1
   7   0   0 0.01000 0.03000   1
   7   0   0 -0.0500 0.07000   1
   3   6  -3 1.47000 0.17000   1
   3   0   7 17.5400 0.71000   1
   6   3  -5 0.11000 0.13000   1
  -6   3   5 0.10000 0.04000   1
   6   0   3 0.05000 0.08000   1
   6   0   3 0.02000 0.07000   1
  -1   0   9 1.33000 0.18000   1
   0   5   6 0.45000 0.14000   1
   0   5  -6 0.51000 0.11000   1
   1   2   8 -0.1800 0.10000   1
   1  -2   8 0.07000 0.11000   1
  -5   0   8 -0.0100 0.07000   1
  -2   1   9 3.82000 0.25000   1
  -2  -1   9 4.24000 0.28000   1
  -3   3   8 1.28000 0.15000   1
   3   3  -8 1.02000 0.16000   1
   4   4   4 6.15000 0.32000   1
   4   4   4 5.48000 0.33000   1
   4   3   5 6.00000 0.32000   1
   4  -3   5 6.67000 0.31000   1
   4   3   5 6.46000 0.35000   1
  -3   0   9 0.00000 0.08000   1
   5   5  -2 44.4200 1.78000   1
  -5   5   2 37.9100 1.40000   1
   5   5  -1 0.24000 0.13000   1
   4   1   6 14.8600 0.62000   1
   4  -1   6 15.3600 0.63000   1
   4   1   6 16.9900 0.68000   1
   7  -2  -2 0.17000 0.09000   1
   7   2  -2 0.37000 0.13000   1
   7   1   0 1.36000 0.15000   1
   7  -1   0 1.57000 0.14000   1
   7   1   0 1.45000 0.10000   1
   6   0  -7 0.05000 0.12000   1
   3  -1   7 6.30000 0.32000   1
   3   1   7 6.59000 0.34000   1
  -4   5   5 2.46000 0.18000   1
   4   5  -5 2.40000 0.23000   1
   2   6   3 2.65000 0.21000   1
   2   6   3 2.98000 0.25000   1
   6  -1   3 9.80000 0.39000   1
   6  -1   3 9.29000 0.38000   1
   6   1   3 8.41000 0.39000   1
   6   1   3 9.41000 0.39000   1
  -1   1   9 3.52000 0.25000   1
  -1  -1   9 4.50000 0.28000   1
   7   2  -3 5.45000 0.32000   1
   7  -2  -3 5.69000 0.27000   1
   6   4  -2 0.34000 0.13000   1
   6  -4  -2 0.24000 0.08000   1
   0   3   8 17.8800 0.75000   1
   0   3  -8 17.6200 0.71000   1
   0  -3   8 16.0900 0.70000   1
   2   5   5 1.65000 0.20000   1
   2   5   5 2.16000 0.19000   1
   3   5   4 1.06000 0.16000   1
   3   5   4 1.59000 0.19000   1
   5   1  -8 2.32000 0.23000   1
  -5   1   8 1.87000 0.17000   1
   7   0  -5 6.79000 0.37000   1
   2  -3   7 6.13000 0.32000   1
  -2   3  -7 5.81000 0.25000   1
   2   3   7 5.83000 0.31000   1
  -3  -1   9 0.06000 0.10000   1
  -3   1   9 -0.0100 0.09000   1
   1   6   4 2.95000 0.25000   1
  -1   6  -4 3.11000 0.18000   1
   1   6   4 3.02000 0.24000   1
   5   5  -3 0.62000 0.17000   1
  -5   5   3 0.76000 0.10000   1
   7  -2  -1 1.03000 0.11000   1
   7   2  -1 1.09000 0.16000   1
   7   2  -1 0.92000 0.09000   1
  -3   5   6 5.57000 0.28000   1
   3   5  -6 5.81000 0.36000   1
   6   4  -1 2.80000 0.22000   1
   6  -4  -1 2.54000 0.15000   1
   6   1  -7 4.36000 0.30000   1
  -6   1   7 4.16000 0.21000   1
   6   4  -3 0.53000 0.15000   1
   5   0   5 24.2800 0.94000   1
   5   0   5 25.2700 0.99000   1
   5   5   0 7.99000 0.41000   1
  -5   3   7 5.25000 0.26000   1
   5   3  -7 4.37000 0.30000   1
   2   0   8 59.3200 2.35000   1
   7  -1  -5 -0.0700 0.10000   1
   7   1  -5 -0.0500 0.11000   1
   0   7   0 0.03000 0.09000   1
   0   0   9 -0.0600 0.12000   1
   7  -2  -4 16.4700 0.68000   1
   7   2  -4 17.5800 0.76000   1
   3   6   2 0.16000 0.13000   1
   1   4   7 0.12000 0.11000   1
  -1   4  -7 0.11000 0.07000   1
  -3   6   4 4.08000 0.26000   1
   3   6  -4 3.87000 0.26000   1
   0   7  -1 0.18000 0.12000   1
   0   7   1 0.07000 0.11000   1
   5   1   5 1.65000 0.15000   1
   5   1   5 1.49000 0.18000   1
   5  -1   5 1.61000 0.14000   1
   7   0   1 0.12000 0.06000   1
   7   0   1 0.12000 0.10000   1
   5   4  -6 6.95000 0.41000   1
  -5   4   6 6.98000 0.32000   1
   2  -1   8 0.95000 0.14000   1
   2   1   8 0.92000 0.15000   1
  -1   7   0 4.06000 0.25000   1
   1   7   0 3.82000 0.25000   1
  -2   2   9 2.24000 0.20000   1
  -2  -2   9 2.04000 0.20000   1
  -4   4   7 2.87000 0.20000   1
   4   4  -7 2.42000 0.23000   1
   6   4   0 7.43000 0.39000   1
   1   5   6 10.0100 0.49000   1
  -1   5  -6 9.86000 0.40000   1
  -1   7   1 0.33000 0.13000   1
   1   7  -1 0.20000 0.14000   1
  -1   6   5 9.48000 0.47000   1
   1   6  -5 11.6500 0.51000   1
   0   1   9 32.0200 1.29000   1
   0  -1   9 35.7500 1.42000   1
   4   6  -1 5.59000 0.34000   1
   5   3   4 4.74000 0.29000   1
   5   3   4 5.36000 0.28000   1
   6   3   2 0.20000 0.11000   1
   6   3   2 0.29000 0.13000   1
  -4   0   9 0.02000 0.09000   1
   4   5   3 0.00000 0.10000   1
   4   5   3 0.16000 0.13000   1
   4   2   6 0.20000 0.11000   1
   4  -2   6 0.18000 0.10000   1
   4   2   6 0.16000 0.11000   1
   7  -2   0 16.0200 0.63000   1
   7   2   0 16.5700 0.70000   1
   7   2   0 16.8400 0.62000   1
   4   6  -2 4.73000 0.31000   1
   6   4  -4 3.20000 0.26000   1
   3   2   7 3.67000 0.24000   1
   3  -2   7 3.69000 0.24000   1
   4   3  -8 1.33000 0.19000   1
  -4   3   8 1.49000 0.17000   1
   5   5  -4 11.2000 0.56000   1
  -5   5   4 13.6500 0.52000   1
   6  -2   3 4.75000 0.23000   1
   6  -2   3 3.87000 0.18000   1
   6   2   3 3.94000 0.25000   1
   6   2   3 4.92000 0.25000   1
  -1  -2   9 0.30000 0.13000   1
  -1   2   9 0.23000 0.13000   1
   7  -1   1 0.55000 0.10000   1
   7   1   1 0.43000 0.14000   1
   7   1   1 0.58000 0.08000   1
  -6   3   6 1.59000 0.12000   1
   6   3  -6 1.77000 0.22000   1
   1   7   1 0.36000 0.13000   1
  -1   7  -1 0.30000 0.11000   1
  -5   2   8 0.41000 0.11000   1
   5   2  -8 0.35000 0.16000   1
   5   4   3 2.55000 0.20000   1
   5   4   3 2.75000 0.22000   1
  -2   6   5 1.33000 0.16000   1
   2   6  -5 1.26000 0.19000   1
   4   6   0 1.83000 0.21000   1
   0   6   5 0.88000 0.17000   1
   0   6  -5 1.08000 0.14000   1
  -3   2   9 0.11000 0.10000   1
  -3  -2   9 0.03000 0.10000   1
   3   2  -9 -0.0600 0.11000   1
   5   5   1 15.1700 0.66000   1
  -4   1   9 1.61000 0.16000   1
  -4  -1   9 1.41000 0.16000   1
   0   7   2 23.3600 0.97000   1
   0   7  -2 24.8200 1.00000   1
  -6   2   7 2.33000 0.15000   1
   6   2  -7 2.17000 0.23000   1
  -1   7   2 26.6200 1.09000   1
   1   7  -2 24.8400 0.99000   1
   7   0  -6 0.11000 0.12000   1
   4   6  -3 2.06000 0.21000   1
  -4   6   3 1.93000 0.17000   1
   1  -3   8 14.7200 0.65000   1
   1   3   8 18.1700 0.76000   1
  -1   3  -8 15.8900 0.65000   1
   7   2  -5 2.68000 0.25000   1
   7  -2  -5 3.02000 0.22000   1
   7   3  -2 4.35000 0.29000   1
   7  -3  -2 4.09000 0.22000   1
  -2   4   8 0.04000 0.09000   1
   2   4  -8 -0.0100 0.09000   1
   2   7  -1 0.31000 0.13000   1
   2   6   4 0.61000 0.15000   1
   2   6   4 0.61000 0.17000   1
   5  -2   5 4.44000 0.26000   1
   5   2   5 4.19000 0.24000   1
   5   2   5 4.09000 0.26000   1
  -4   5   6 7.50000 0.37000   1
   4   5  -6 7.72000 0.42000   1
  -1   4   8 36.5800 1.47000   1
   1   4  -8 34.7900 1.38000   1
   7  -3  -3 7.17000 0.35000   1
   7   3  -3 7.44000 0.40000   1
   2   7   0 12.1200 0.56000   1
   2  -2   8 0.82000 0.16000   1
   2   2   8 0.83000 0.15000   1
   7   1  -6 3.63000 0.27000   1
   7  -1  -6 3.12000 0.26000   1
  -1   5   7 17.4400 0.76000   1
   1   5  -7 17.7200 0.73000   1
   6   4   1 4.56000 0.30000   1
   6   4   1 4.44000 0.24000   1
  -2   5   7 1.10000 0.16000   1
   2   5  -7 0.96000 0.15000   1
  -1   7  -2 18.0900 0.73000   1
   1   7   2 16.7200 0.73000   1
   0  -2   9 9.66000 0.48000   1
   0   2   9 10.6000 0.50000   1
   6   0   4 21.1000 0.82000   1
   6   0   4 20.1900 0.81000   1
   7  -3  -1 0.23000 0.08000   1
   7   3  -1 0.33000 0.13000   1
   7   3  -1 0.15000 0.09000   1
   4   6   1 0.92000 0.18000   1
   3   4   6 31.1300 1.28000   1
   3   4   6 37.1100 1.50000   1
   3   6   3 4.06000 0.27000   1
   3   6   3 4.02000 0.30000   1
   6   4  -5 0.40000 0.17000   1
   2   7  -2 4.90000 0.30000   1
   1   0   9 1.74000 0.19000   1
   7   2   1 1.13000 0.11000   1
   7   2   1 0.95000 0.15000   1
   7  -2   1 0.65000 0.10000   1
  -3   6   5 7.66000 0.39000   1
   3   6  -5 6.28000 0.39000   1
  -3   4   8 8.76000 0.44000   1
   3   4  -8 8.51000 0.43000   1
   1   6   5 13.8300 0.62000   1
   1   6   5 9.72000 0.51000   1
  -5   5   5 10.6200 0.44000   1
   5   5  -5 9.97000 0.52000   1
   4   4   5 6.49000 0.34000   1
   4   4   5 5.94000 0.36000   1
   2   7   1 0.08000 0.12000   1
   6   1   4 35.4700 1.39000   1
   6  -1   4 34.9600 1.32000   1
   6  -1   4 36.1400 1.39000   1
   6   1   4 39.1000 1.54000   1
   7   3  -4 10.7300 0.53000   1
   7  -3  -4 9.98000 0.48000   1
   1   7  -3 5.19000 0.31000   1
   6   0  -8 0.51000 0.16000   1
  -4   2   9 5.46000 0.29000   1
   4   2  -9 5.24000 0.34000   1
   7   0   2 0.04000 0.08000   1
   7   0   2 0.02000 0.06000   1
   0   7  -3 2.56000 0.20000   1
   0   7   3 2.64000 0.24000   1
   3   5   5 25.3800 1.04000   1
   3   5   5 26.7200 1.13000   1
   4   6  -4 1.75000 0.20000   1
  -4   6   4 1.33000 0.15000   1
   1   1   9 14.3500 0.63000   1
   1  -1   9 12.0500 0.56000   1
   0   5   7 4.76000 0.32000   1
   0   5  -7 4.75000 0.27000   1
   0   4   8 0.23000 0.13000   1
   0   4  -8 0.21000 0.10000   1
  -2   3   9 2.82000 0.23000   1
   2   3  -9 2.24000 0.23000   1
   2   4   7 0.41000 0.13000   1
   5   5   2 5.86000 0.35000   1
   5   5   2 5.50000 0.30000   1
  -3   5   7 6.89000 0.34000   1
   3   5  -7 6.43000 0.40000   1
  -6   1   8 4.06000 0.23000   1
   6   1  -8 3.90000 0.31000   1
  -5   0   9 2.51000 0.20000   1
   2   5   6 1.09000 0.19000   1
   2   5   6 0.94000 0.16000   1
   7  -1   2 1.71000 0.14000   1
   7   1   2 1.72000 0.14000   1
   7   1   2 1.62000 0.17000   1
   4   3   6 0.82000 0.16000   1
   4  -3   6 0.81000 0.13000   1
   4   3   6 0.86000 0.15000   1
   7   3   0 9.39000 0.46000   1
   7   3   0 8.82000 0.38000   1
   7  -3   0 8.40000 0.35000   1
   3  -3   7 0.36000 0.11000   1
   3   3   7 0.29000 0.14000   1
   6   3   3 1.90000 0.17000   1
   6   3   3 1.95000 0.20000   1
  -1   3   9 0.19000 0.14000   1
   1   3  -9 0.19000 0.14000   1
  -1  -3   9 0.20000 0.14000   1
  -5   4   7 12.5900 0.53000   1
   5   4  -7 13.9200 0.67000   1
   4   0   7 0.02000 0.08000   1
   2   7  -3 0.07000 0.11000   1
   7  -2  -6 3.79000 0.28000   1
   7   2  -6 4.37000 0.30000   1
  -5   3   8 1.63000 0.17000   1
   5   3  -8 1.77000 0.23000   1
   4   5   4 10.5900 0.50000   1
   4   5   4 9.17000 0.48000   1
   3   3  -9 8.27000 0.44000   1
  -3   3   9 8.56000 0.42000   1
  -5   1   9 0.69000 0.12000   1
   5   1  -9 0.67000 0.19000   1
   1   6  -6 0.40000 0.13000   1
  -1   6   6 0.50000 0.15000   1
   6   3  -7 -0.0200 0.11000   1
  -6   3   7 0.01000 0.06000   1
   1   7   3 0.15000 0.14000   1
   4   6   2 0.45000 0.18000   1
   4   6   2 0.89000 0.15000   1
  -2   0  10 19.0700 0.82000   1
   8   0  -3 -0.1000 0.10000   1
   3   0   8 0.14000 0.11000   1
   2   7   2 8.72000 0.46000   1
   8   0  -2 6.29000 0.32000   1
   4  -1   7 6.70000 0.34000   1
   4   1   7 6.11000 0.33000   1
   6   5  -2 0.12000 0.14000   1
   6  -5  -2 0.08000 0.08000   1
   3   7  -1 3.92000 0.29000   1
  -2   6   6 1.78000 0.19000   1
   2   6  -6 1.96000 0.21000   1
   7  -3  -5 2.50000 0.20000   1
   7   3  -5 2.48000 0.25000   1
   7   0  -7 1.35000 0.21000   1
   6  -2   4 4.28000 0.24000   1
   6   2   4 4.66000 0.28000   1
   6   2   4 4.83000 0.26000   1
   5   4   4 26.5100 1.08000   1
   5   4   4 29.5200 1.23000   1
   6   4   2 0.10000 0.12000   1
   6   4   2 0.09000 0.13000   1
   5   0   6 0.04000 0.08000   1
   6   5  -1 2.08000 0.22000   1
   3   7   0 7.70000 0.42000   1
   4   4  -8 0.16000 0.13000   1
  -4   4   8 0.00000 0.09000   1
  -3   0  10 -0.00000 0.1000   1
   6   5  -3 3.55000 0.29000   1
   3   7  -2 1.38000 0.19000   1
   5   3   5 1.49000 0.16000   1
   5   3   5 1.89000 0.20000   1
   5  -3   5 1.81000 0.16000   1
   1   2   9 0.51000 0.16000   1
   1  -2   9 0.92000 0.16000   1
  -2   1  10 2.77000 0.24000   1
  -2  -1  10 3.14000 0.27000   1
   8   1  -3 3.33000 0.25000   1
   8  -1  -3 3.47000 0.23000   1
   3   1   8 4.83000 0.29000   1
   3  -1   8 4.85000 0.29000   1
  -1   0  10 -0.0200 0.11000   1
   8   1  -2 0.02000 0.11000   1
   8  -1  -2 0.23000 0.11000   1
   0   6  -6 -0.0500 0.08000   1
   0   6   6 -0.1600 0.12000   1
   8   0  -4 7.65000 0.41000   1
   2  -3   8 1.28000 0.17000   1
   2   3   8 1.45000 0.18000   1
   6   4  -6 1.69000 0.23000   1
   7  -1  -7 4.87000 0.34000   1
   7   1  -7 4.49000 0.33000   1
   1   7  -4 7.58000 0.40000   1
  -1   7   4 8.78000 0.44000   1
   8   0  -1 0.05000 0.08000   1
   0   3  -9 0.34000 0.13000   1
   0   3   9 0.50000 0.15000   1
   0  -3   9 0.49000 0.15000   1
   5   6  -2 2.20000 0.24000   1
  -6   2   8 0.05000 0.08000   1
   6   2  -8 0.02000 0.13000   1
   5  -1   6 4.54000 0.25000   1
   5   1   6 4.32000 0.28000   1
   5   1   6 4.50000 0.29000   1
   7   2   2 0.02000 0.07000   1
   7   2   2 0.08000 0.10000   1
   5   6  -1 19.2900 0.86000   1
   1   5   7 20.8000 0.91000   1
   4   6  -5 0.73000 0.19000   1
  -4   6   5 1.05000 0.14000   1
  -3   1  10 0.13000 0.13000   1
  -3  -1  10 0.27000 0.13000   1
   0   7  -4 4.57000 0.27000   1
   0   7   4 5.01000 0.32000   1
   0   7   4 4.79000 0.32000   1
  -1   1  10 1.18000 0.18000   1
  -1  -1  10 1.00000 0.18000   1
   7   3   1 9.65000 0.42000   1
   7   3   1 9.42000 0.47000   1
   5   5  -6 0.48000 0.18000   1
  -5   5   6 0.40000 0.10000   1
   2   6   5 1.29000 0.22000   1
   2   6   5 1.72000 0.20000   1
   8  -1  -4 2.10000 0.19000   1
   8   1  -4 2.47000 0.22000   1
   3   6   4 0.60000 0.14000   1
   3   6   4 0.25000 0.17000   1
   1   4   8 7.85000 0.42000   1
  -4   5   7 0.18000 0.11000   1
   4   5  -7 0.08000 0.14000   1
   6   5   0 2.17000 0.22000   1
   8  -1  -1 3.78000 0.24000   1
   8   1  -1 4.27000 0.26000   1
   3   7   1 6.59000 0.39000   1
  -5   6   3 10.2800 0.43000   1
   5   6  -3 10.0200 0.53000   1
  -4   3   9 6.76000 0.35000   1
   4   3  -9 6.61000 0.39000   1
   5   2  -9 1.65000 0.23000   1
  -5   2   9 1.19000 0.17000   1
  -3   6   6 7.73000 0.38000   1
   3   6  -6 7.03000 0.40000   1
   2   7  -4 11.8700 0.58000   1
  -2   7   4 9.67000 0.48000   1
   7   4  -2 1.49000 0.19000   1
   7  -4  -2 0.92000 0.13000   1
   6   5  -4 3.26000 0.29000   1
   3   7  -3 2.33000 0.23000   1
   5   6   0 0.25000 0.15000   1
   7  -4  -3 2.55000 0.20000   1
   7   4  -3 2.59000 0.25000   1
   4   2   7 4.77000 0.28000   1
   4  -2   7 4.16000 0.26000   1
   5   5   3 21.2000 0.89000   1
   5   5   3 20.9400 0.93000   1
   2   0   9 0.02000 0.10000   1
   7   0   3 5.26000 0.25000   1
   7   0   3 5.11000 0.29000   1
   8   0  -5 0.04000 0.12000   1
  -4   0  10 13.0600 0.60000   1
   7   4  -1 7.07000 0.39000   1
   2   7   3 0.18000 0.13000   1
   2   7   3 0.14000 0.15000   1
   8   0   0 0.09000 0.10000   1
  -2  -2  10 11.0800 0.53000   1
  -2   2  10 10.9300 0.52000   1
   0   0  10 37.7900 1.56000   1
   8  -2  -3 0.02000 0.09000   1
   8   2  -3 0.03000 0.11000   1
   3   2   8 1.28000 0.18000   1
   3  -2   8 1.37000 0.18000   1
   8  -2  -2 0.01000 0.09000   1
   8   2  -2 0.16000 0.12000   1
   7   3  -6 0.04000 0.13000   1
   2  -1   9 6.62000 0.37000   1
   2   1   9 7.66000 0.40000   1
   6   0   5 0.10000 0.10000   1
   6   0   5 0.06000 0.09000   1
   7  -2  -7 0.64000 0.18000   1
   7   2  -7 0.72000 0.18000   1
   7   1   3 12.7700 0.57000   1
   7  -1   3 11.0800 0.47000   1
   7   1   3 11.4500 0.48000   1
   1   6   6 0.58000 0.17000   1
   1   7   4 0.11000 0.14000   1
   1   7   4 0.10000 0.13000   1
   7   4  -4 4.07000 0.30000   1
   7  -4  -4 3.96000 0.26000   1
   8   1  -5 3.04000 0.27000   1
   8  -1  -5 3.06000 0.24000   1
   5  -2   6 0.25000 0.11000   1
   5   2   6 0.85000 0.14000   1
   5   2   6 0.39000 0.12000   1
  -4   1  10 6.05000 0.34000   1
  -4  -1  10 6.14000 0.34000   1
   4   6   3 1.99000 0.20000   1
   4   6   3 1.86000 0.22000   1
   2   5  -8 0.04000 0.10000   1
  -2   5   8 0.00000 0.10000   1
   3   2 -10 7.87000 0.42000   1
  -3  -2  10 5.41000 0.35000   1
  -3   2  10 6.64000 0.37000   1
  -5   6   4 2.97000 0.19000   1
   5   6  -4 3.71000 0.29000   1
   8  -1   0 2.64000 0.19000   1
   8   1   0 2.77000 0.21000   1
  -1   5   8 25.0500 1.06000   1
   1   5  -8 24.9100 1.05000   1
   0  -1  10 0.27000 0.16000   1
   0   1  10 0.16000 0.13000   1
  -1   2  10 3.26000 0.26000   1
  -1  -2  10 2.77000 0.25000   1
   8  -2  -4 2.13000 0.21000   1
   8   2  -4 2.30000 0.24000   1
   2   4  -9 0.26000 0.14000   1
  -2   4   9 0.11000 0.13000   1
   6  -1   5 6.29000 0.33000   1
   6   1   5 6.84000 0.33000   1
   6   1   5 6.26000 0.35000   1
   6   5   1 0.13000 0.13000   1
   6   5   1 0.18000 0.14000   1
   8   2  -1 0.14000 0.12000   1
   8  -2  -1 0.07000 0.08000   1
   6   3   4 0.19000 0.12000   1
   6   3   4 -0.0200 0.09000   1
   6   0  -9 -0.0300 0.13000   1
   5   6   1 -0.0300 0.12000   1
   3   7   2 3.52000 0.29000   1
   4   4   6 1.30000 0.19000   1
   4   4   6 1.03000 0.20000   1
   3   5   6 0.39000 0.13000   1
   3   5   6 0.29000 0.17000   1
   7   4   0 0.93000 0.14000   1
   7   4   0 1.05000 0.18000   1
   3   4   7 0.22000 0.12000   1
  -3   7   4 18.1500 0.80000   1
   3   7  -4 18.8500 0.83000   1
   6   5  -5 0.07000 0.14000   1
   6   4   3 9.27000 0.48000   1
   6   4   3 9.28000 0.43000   1
   1   4  -9 2.52000 0.22000   1
  -1   4   9 2.56000 0.24000   1
   1  -3   9 2.13000 0.20000   1
   1   3   9 1.67000 0.21000   1
  -1   3  -9 2.25000 0.18000   1
   5   4  -8 6.76000 0.41000   1
  -5   4   8 7.20000 0.36000   1
   3   5  -8 21.2500 0.92000   1
  -3   5   8 20.9500 0.88000   1
   4   5   5 0.83000 0.19000   1
   4   5   5 0.90000 0.16000   1
   1   7  -5 6.78000 0.38000   1
  -1   7   5 6.95000 0.39000   1
  -3   4   9 0.07000 0.11000   1
   3   4  -9 0.01000 0.12000   1
   4   7  -1 0.36000 0.17000   1
   6   1  -9 1.30000 0.22000   1
  -6   1   9 0.88000 0.14000   1
   6   3  -8 0.27000 0.17000   1
   7   3   2 11.4500 0.55000   1
   7   3   2 11.4200 0.49000   1
   7   0  -8 -0.1300 0.14000   1
   4   7  -2 1.40000 0.21000   1
   6   4  -7 5.66000 0.38000   1
   4   6  -6 3.10000 0.28000   1
  -4   6   6 3.65000 0.24000   1
   8   0  -6 0.09000 0.14000   1
   0   5   8 -0.0600 0.12000   1
   7   4  -5 0.48000 0.18000   1
  -1   6   7 10.0100 0.51000   1
   1   6  -7 11.4700 0.54000   1
   0   8   0 18.5500 0.80000   1
   2   5   7 4.97000 0.32000   1
   2  -2   9 2.36000 0.22000   1
   2   2   9 2.13000 0.22000   1
   2   7  -5 3.88000 0.30000   1
  -2   7   5 4.57000 0.30000   1
   2   6  -7 0.44000 0.16000   1
  -2   6   7 0.36000 0.14000   1
   7   2   3 0.15000 0.10000   1
   7   2   3 0.12000 0.14000   1
   4   7   0 4.16000 0.31000   1
   0   7   5 0.51000 0.17000   1
   8   2  -5 3.62000 0.29000   1
   8  -2  -5 3.26000 0.25000   1
  -4   2  10 15.6900 0.68000   1
   4   2 -10 15.6100 0.74000   1
   5   3  -9 0.08000 0.15000   1
  -5   3   9 0.20000 0.12000   1
   8   0   1 -0.0700 0.10000   1
   7  -1  -8 -0.0400 0.11000   1
   7   1  -8 0.04000 0.11000   1
   0   8  -1 1.50000 0.21000   1
   0   8   1 1.18000 0.19000   1
   5   4   5 0.42000 0.15000   1
   5   4   5 0.06000 0.13000   1
   8   2   0 4.13000 0.29000   1
   0   2  10 2.08000 0.23000   1
   0  -2  10 2.22000 0.23000   1
   5   5  -7 33.4200 1.42000   1
  -5   5   7 29.7800 1.20000   1
   8  -1  -6 4.59000 0.33000   1
   8   1  -6 4.50000 0.33000   1
   4  -3   7 0.41000 0.13000   1
   4   3   7 0.68000 0.18000   1
   4   3   7 0.93000 0.15000   1
   2   4   8 -0.0300 0.11000   1
  -5   0  10 -0.00000 0.0800   1
  -1   8   0 4.74000 0.31000   1
   1   8   0 5.12000 0.36000   1
  -4   7   3 0.55000 0.14000   1
   4   7  -3 0.67000 0.19000   1
   6   2   5 3.94000 0.27000   1
   6  -2   5 4.57000 0.26000   1
   6   2   5 4.92000 0.29000   1
  -5   6   5 0.13000 0.09000   1
   5   6  -5 0.03000 0.15000   1
   1   8  -1 0.08000 0.12000   1
  -1   8   1 0.07000 0.13000   1
   0   4  -9 1.79000 0.18000   1
   0   4   9 1.96000 0.21000   1
   8  -1   1 4.52000 0.25000   1
   8   1   1 5.76000 0.34000   1
   3   6   5 1.46000 0.24000   1
   3   6   5 2.27000 0.22000   1
   1   0  10 0.18000 0.13000   1
   2   7   4 2.32000 0.27000   1
   2   7   4 4.04000 0.30000   1
   2   3 -10 8.61000 0.48000   1
  -2   3  10 8.79000 0.46000   1
   0   6   7 3.43000 0.28000   1
   8  -3  -3 1.26000 0.15000   1
   8   3  -3 1.29000 0.20000   1
   3  -3   8 0.86000 0.15000   1
   3   3   8 0.86000 0.16000   1
   7   4   1 3.26000 0.27000   1
   7   4   1 4.68000 0.28000   1
   8  -3  -2 0.99000 0.13000   1
   8   3  -2 0.95000 0.19000   1
   8   3  -2 1.01000 0.12000   1
  -5  -1  10 1.67000 0.20000   1
   5   1 -10 1.75000 0.25000   1
  -5   1  10 2.02000 0.20000   1
  -1   8  -1 0.23000 0.14000   1
   1   8   1 0.32000 0.16000   1
   5   6   2 2.38000 0.25000   1
   5   6   2 2.79000 0.22000   1
   7   3  -7 4.21000 0.33000   1
   3   6  -7 0.41000 0.15000   1
  -3   6   7 0.46000 0.17000   1
   5   5   4 5.88000 0.34000   1
   5   5   4 5.65000 0.37000   1
   6   5   2 13.5700 0.65000   1
   6   5   2 15.2100 0.68000   1
   6   2  -9 5.91000 0.39000   1
  -6   2   9 5.84000 0.32000   1
   5  -3   6 0.24000 0.12000   1
   5   3   6 -0.1200 0.11000   1
   5   3   6 0.15000 0.13000   1
   4   4  -9 1.15000 0.20000   1
  -4   4   9 0.94000 0.18000   1
   4   7   1 2.75000 0.27000   1
   2   6   6 2.66000 0.27000   1
   2   6   6 3.18000 0.27000   1
   0   8   2 -0.00000 0.1200   1
   0   8  -2 0.10000 0.13000   1
   3   7   3 2.46000 0.26000   1
   3   7   3 2.28000 0.23000   1
   4   0   8 1.06000 0.16000   1
  -4   5   8 1.61000 0.20000   1
   4   5  -8 1.56000 0.22000   1
  -3   3  10 16.6000 0.74000   1
   3   3 -10 15.6100 0.74000   1
   1   8  -2 0.28000 0.17000   1
   1   1  10 1.36000 0.20000   1
   1  -1  10 2.09000 0.22000   1
   1   3 -10 7.25000 0.42000   1
  -1  -3  10 8.34000 0.45000   1
  -1   3  10 7.38000 0.42000   1
   3   7  -5 11.2700 0.59000   1
  -3   7   5 11.5000 0.54000   1
   8  -3  -4 0.01000 0.09000   1
   8   3  -4 -0.0500 0.11000   1
   6   5  -6 0.83000 0.22000   1
   1   7   5 0.12000 0.13000   1
   1   7   5 -0.0900 0.12000   1
   7   0   4 -0.00000 0.0900   1
   7   0   4 -0.0500 0.08000   1
   5   0   7 5.52000 0.31000   1
   4   6   4 3.70000 0.30000   1
   4   6   4 3.99000 0.28000   1
   8   3  -1 7.95000 0.35000   1
   8   3  -1 8.17000 0.44000   1
   7   2  -8 0.23000 0.17000   1
   4  -1   8 0.32000 0.13000   1
   4   1   8 -0.0200 0.13000   1
   2   8  -1 0.22000 0.15000   1
   4   7  -4 6.16000 0.38000   1
  -4   7   4 6.07000 0.31000   1
   2   8   0 5.12000 0.35000   1
   8   2  -6 27.3300 1.19000   1
   8  -2  -6 25.2400 1.10000   1
   6   6  -2 4.58000 0.35000   1
   7   4  -6 2.27000 0.27000   1
   1   5   8 5.31000 0.34000   1
   7   1   4 1.68000 0.20000   1
   7   1   4 2.48000 0.19000   1
   5   1   7 2.89000 0.23000   1
   5  -1   7 3.06000 0.23000   1
   1   8   2 0.02000 0.13000   1
   3   0   9 0.01000 0.10000   1
   6   6  -1 -0.0600 0.14000   1
   8   2   1 3.96000 0.31000   1
   7   5  -2 12.3100 0.60000   1
   6   6  -3 1.82000 0.24000   1
   8   0  -7 -0.0200 0.13000   1
   2   8  -2 7.99000 0.46000   1
  -2   0  11 -0.0300 0.13000   1
   7   5  -3 0.42000 0.17000   1
   5   2 -10 3.64000 0.33000   1
  -5   2  10 4.01000 0.29000   1
   2   3   9 0.11000 0.13000   1
   2  -3   9 0.08000 0.12000   1
   7   3   3 3.14000 0.26000   1
   7   3   3 3.09000 0.20000   1
  -3   0  11 3.73000 0.29000   1
   2   8   1 0.45000 0.17000   1
   6   4   4 1.98000 0.23000   1
   6   4   4 2.16000 0.20000   1
   1   8  -3 0.11000 0.14000   1
   8   3  -5 0.04000 0.13000   1
   8  -3  -5 0.04000 0.12000   1
   3  -1   9 5.52000 0.33000   1
   3   1   9 5.03000 0.32000   1
   4   3 -10 0.84000 0.19000   1
  -4   3  10 0.84000 0.16000   1
   7   5  -1 3.08000 0.27000   1
   8   0   2 0.04000 0.10000   1
   1   6   7 5.06000 0.35000   1
   0   8   3 0.03000 0.13000   1
  -1   7   6 2.29000 0.23000   1
   8   1  -7 10.5200 0.56000   1
   8  -1  -7 10.0200 0.54000   1
   1   2  10 3.28000 0.27000   1
   1  -2  10 3.99000 0.29000   1
   1   4   9 -0.0100 0.11000   1
   8   3   0 0.09000 0.08000   1
   8   3   0 0.12000 0.13000   1
  -2   1  11 28.8000 1.24000   1
  -2  -1  11 29.9200 1.27000   1
   4   7   2 0.81000 0.15000   1
   4   7   2 0.43000 0.19000   1
   0   3 -10 0.24000 0.13000   1
   0  -3  10 0.04000 0.13000   1
   0   3  10 0.14000 0.14000   1
  -5   6   6 8.59000 0.43000   1
   5   6  -6 9.77000 0.53000   1
   2   7  -6 0.03000 0.14000   1
  -2   7   6 0.09000 0.12000   1
  -4   6   7 -0.0100 0.10000   1
   4   6  -7 0.02000 0.11000   1
   6   3   5 1.02000 0.15000   1
   6   3   5 1.05000 0.18000   1
   6   0   6 3.06000 0.21000   1
   6   6   0 0.20000 0.15000   1
  -3  -1  11 0.69000 0.18000   1
  -3   1  11 0.98000 0.18000   1
  -1   0  11 1.74000 0.22000   1
   7   5  -4 15.0500 0.75000   1
   6   4  -8 0.88000 0.22000   1
   7   4   2 5.17000 0.33000   1
   7   4   2 5.02000 0.30000   1
   8   1   2 18.4900 0.79000   1
   6   6  -4 1.26000 0.22000   1
   4   2   8 -0.1700 0.12000   1
   4  -2   8 0.06000 0.11000   1
   0   7   6 1.47000 0.21000   1
   2   8  -3 3.31000 0.27000   1
  -2   5   9 1.65000 0.21000   1
   2   5  -9 1.38000 0.22000   1
   5   6   3 0.09000 0.15000   1
   5   6   3 0.14000 0.13000   1
   6   1   6 2.70000 0.22000   1
   6  -1   6 3.22000 0.24000   1
   6   1   6 2.64000 0.23000   1
   7   0  -9 0.35000 0.18000   1
   7   2   4 1.35000 0.21000   1
   7   2   4 1.19000 0.16000   1
   5  -2   7 0.17000 0.15000   1
   5   2   7 0.22000 0.13000   1
  -1  -1  11 2.97000 0.28000   1
  -1   1  11 2.71000 0.26000   1
   5   7  -2 2.61000 0.27000   1
   6   3  -9 7.35000 0.46000   1
  -5   4   9 8.75000 0.45000   1
   5   4  -9 9.43000 0.52000   1
   5   7  -1 13.0900 0.66000   1
   4   5   6 2.10000 0.21000   1
   4   5   6 1.90000 0.24000   1
  -6   0  10 25.8400 1.11000   1
   6   0 -10 28.0500 1.26000   1
   7   5   0 0.51000 0.13000   1
   7   5   0 0.34000 0.17000   1
  -4   0  11 -0.1000 0.13000   1
   3   5   7 0.04000 0.15000   1
   3   5   7 0.37000 0.17000   1
  -4   7   5 0.06000 0.13000   1
   4   7  -5 0.08000 0.14000   1
   1   8   3 7.21000 0.43000   1
   1   8   3 6.90000 0.40000   1
   6   5   3 0.24000 0.17000   1
   6   5   3 0.35000 0.13000   1
  -1   5   9 7.23000 0.43000   1
   9   0  -3 15.3300 0.72000   1
   2   8   2 0.10000 0.15000   1
   4   4   7 1.29000 0.22000   1
   4   4   7 1.12000 0.18000   1
   2   7   5 -0.0200 0.13000   1
   2   7   5 0.03000 0.11000   1
   3   7   4 2.04000 0.22000   1
   3   7   4 1.99000 0.26000   1
  -5   5   8 7.09000 0.37000   1
   5   5  -8 5.79000 0.42000   1
   3   8  -1 0.12000 0.14000   1
   7  -1  -9 0.43000 0.19000   1
   7   1  -9 0.34000 0.19000   1
  -3   5   9 9.38000 0.48000   1
   3   5  -9 9.54000 0.55000   1
   9   0  -2 0.03000 0.12000   1
   3  -2   9 0.17000 0.15000   1
   3   2   9 0.41000 0.15000   1
   5   7  -3 3.30000 0.31000   1
   2   0  10 0.16000 0.14000   1
  -3   7   6 0.19000 0.15000   1
   3   7  -6 0.08000 0.17000   1
   2   6  -8 0.18000 0.14000   1
  -2   6   8 0.00000 0.13000   1
  -6   1  10 4.38000 0.29000   1
   6   1 -10 4.25000 0.35000   1
   9   0  -4 0.22000 0.15000   1
   7   3  -8 0.14000 0.17000   1
  -4   1  11 7.50000 0.43000   1
  -4  -1  11 8.08000 0.44000   1
   6   5  -7 -0.0400 0.16000   1
   3   8   0 2.14000 0.25000   1
   8   2  -7 11.9300 0.62000   1
   8  -2  -7 11.9700 0.62000   1
   3   8  -2 1.13000 0.19000   1
   5   7   0 1.69000 0.23000   1
  -1   6   8 2.17000 0.25000   1
  -2  -2  11 1.34000 0.20000   1
  -2   2  11 1.31000 0.20000   1
   9  -1  -3 0.16000 0.11000   1
   9   1  -3 0.00000 0.13000   1
   2   4 -10 1.14000 0.19000   1
  -2   4  10 1.53000 0.21000   1
   8   4  -3 1.11000 0.20000   1
   3   4   8 0.21000 0.14000   1
   8   3  -6 1.42000 0.23000   1
   8  -3  -6 1.16000 0.23000   1
   8   4  -2 7.37000 0.43000   1
   7   5  -5 0.24000 0.18000   1
   6   6   1 0.83000 0.16000   1
   6   6   1 1.34000 0.20000   1
   7   4  -7 2.08000 0.28000   1
   1   8  -4 3.69000 0.31000   1
  -1   8   4 4.43000 0.31000   1
  -3   2  11 0.15000 0.13000   1
  -3  -2  11 0.08000 0.14000   1
   3   2 -11 -0.0100 0.14000   1
   9  -1  -2 4.91000 0.31000   1
   9   1  -2 5.07000 0.32000   1
   5   4   6 2.68000 0.23000   1
   5   4   6 2.45000 0.27000   1
   2  -1  10 0.37000 0.16000   1
   2   1  10 0.35000 0.15000   1
   8   2   2 14.2700 0.66000   1
   8   3   1 0.02000 0.07000   1
   8   3   1 -0.0200 0.11000   1
   3   6   6 4.29000 0.30000   1
   3   6   6 4.20000 0.33000   1
   9  -1  -4 3.85000 0.27000   1
   9   1  -4 3.61000 0.29000   1
   0   0  11 0.06000 0.14000   1
  -3   4  10 1.35000 0.20000   1
   3   4 -10 1.15000 0.25000   1
   6   6  -5 0.31000 0.19000   1
   5   5   5 0.09000 0.14000   1
   5   5   5 0.02000 0.12000   1
   0   8   4 4.79000 0.34000   1
  -1   4  10 0.05000 0.13000   1
   1   4 -10 0.11000 0.13000   1
   9   0  -1 0.16000 0.13000   1
   8   4  -4 0.19000 0.14000   1
   8  -4  -4 -0.00000 0.1100   1
   2   5   8 2.03000 0.22000   1
  -5   3  10 1.14000 0.19000   1
   5   3 -10 1.27000 0.22000   1
  -3   6   8 3.74000 0.31000   1
   3   6  -8 4.37000 0.35000   1
   6  -2   6 0.04000 0.12000   1
   6   2   6 0.14000 0.11000   1
   6   2   6 0.06000 0.15000   1
  -1   2  11 5.65000 0.36000   1
  -1  -2  11 6.15000 0.38000   1
   1   7   6 0.10000 0.15000   1
   8   4  -1 0.07000 0.14000   1
   8   4  -1 0.14000 0.09000   1
   4   6   5 0.67000 0.20000   1
   4   6   5 0.80000 0.18000   1
   0   5   9 2.83000 0.27000   1
   3   8   1 3.33000 0.30000   1
   4   7   3 0.26000 0.14000   1
   4   7   3 0.18000 0.17000   1
  -2   8   4 3.41000 0.27000   1
   2   8  -4 3.64000 0.32000   1
   9   0  -5 1.48000 0.22000   1
   3   8  -3 0.09000 0.14000   1
  -3   8   3 0.02000 0.13000   1
   0   1  11 4.37000 0.32000   1
   0  -1  11 5.44000 0.37000   1
   8   0  -8 0.12000 0.16000   1
   1   3  10 0.08000 0.14000   1
   1  -3  10 0.22000 0.14000   1
   5   7  -4 1.76000 0.24000   1
   7   5   1 11.2300 0.58000   1
   7   5   1 11.2800 0.55000   1
   0   6   8 0.55000 0.20000   1
   9  -1  -1 0.32000 0.12000   1
   9   1  -1 0.29000 0.14000   1
   2   6   7 0.55000 0.17000   1
   7   2  -9 0.28000 0.19000   1
   5   7   1 4.25000 0.32000   1
   7   0   5 10.3200 0.48000   1
  -4   5   9 0.32000 0.14000   1
   4   5  -9 0.34000 0.18000   1
   9  -1  -5 2.75000 0.25000   1
   9   1  -5 3.45000 0.29000   1
  -6   2  10 10.3900 0.53000   1
   6   2 -10 9.92000 0.56000   1
   4   2 -11 1.42000 0.23000   1
  -4   2  11 1.10000 0.20000   1
   4   3   8 0.19000 0.13000   1
   4  -3   8 0.13000 0.13000   1
   8  -1  -8 0.15000 0.18000   1
   8   1  -8 0.29000 0.17000   1
   2   8   3 2.40000 0.26000   1
   2   8   3 1.97000 0.26000   1
   9  -2  -3 0.11000 0.12000   1
   9   2  -3 0.12000 0.14000   1
  -5   0  11 0.02000 0.11000   1
   5   6  -7 0.75000 0.22000   1
   2   4   9 3.54000 0.28000   1
   7   3   4 1.19000 0.18000   1
   7   3   4 1.23000 0.20000   1
   7   4   3 0.01000 0.11000   1
   7   4   3 -0.0900 0.13000   1
   5  -3   7 1.37000 0.17000   1
   5   3   7 1.31000 0.18000   1
   5   3   7 1.20000 0.20000   1
   9   2  -2 6.75000 0.40000   1
   9  -2  -2 6.03000 0.34000   1
   1   8   4 1.87000 0.24000   1
   1   8   4 1.30000 0.24000   1
   8  -4  -5 2.43000 0.25000   1
   8   4  -5 2.25000 0.27000   1
  -4   4  10 1.47000 0.19000   1
   4   4 -10 1.31000 0.23000   1
   7   1   5 0.00000 0.13000   1
   7   1   5 0.12000 0.11000   1
   2   2  10 0.03000 0.11000   1
   2  -2  10 -0.0500 0.11000   1
   9   2  -4 3.20000 0.29000   1
   9  -2  -4 3.65000 0.29000   1
   8   1   3 3.95000 0.29000   1
   4   7  -6 0.47000 0.22000   1
  -4   7   6 0.50000 0.16000   1
   8   4   0 3.21000 0.23000   1
   8   4   0 3.60000 0.29000   1
  -5   1  11 0.03000 0.13000   1
  -5  -1  11 -0.0400 0.15000   1
   5   1 -11 0.12000 0.15000   1
   0   4  10 0.41000 0.17000   1
   9   0   0 0.09000 0.12000   1
   7   5  -6 0.25000 0.20000   1
  -1   7   7 0.60000 0.19000   1
   6   4   5 0.25000 0.16000   1
   6   4   5 0.18000 0.13000   1
   2   7  -7 0.53000 0.19000   1
  -2   7   7 0.51000 0.17000   1
   5   6   4 1.17000 0.21000   1
   5   6   4 1.34000 0.20000   1
   6   6   2 0.93000 0.17000   1
   6   6   2 0.82000 0.19000   1
   3  -3   9 0.00000 0.12000   1
   3   3   9 0.17000 0.14000   1
   3   8   2 0.24000 0.17000   1
   0   2  11 0.09000 0.15000   1
   0  -2  11 0.19000 0.15000   1
  -4   6   8 0.14000 0.12000   1
   4   6  -8 -0.0300 0.15000   1
  -3   8   4 3.53000 0.28000   1
   3   8  -4 3.64000 0.31000   1
   8   3  -7 1.66000 0.25000   1
   8  -3  -7 2.20000 0.25000   1
   9   0  -6 -0.0200 0.13000   1
   2   3 -11 1.31000 0.24000   1
  -2   3  11 1.37000 0.21000   1
   9   1   0 0.23000 0.13000   1
   9   2  -1 1.63000 0.21000   1
   6   6  -6 1.81000 0.26000   1
   5   7  -5 4.01000 0.35000   1
  -3   3  11 1.34000 0.21000   1
   3   3 -11 1.26000 0.22000   1
  -1   8   5 4.73000 0.34000   1
   5   0   8 -0.1100 0.12000   1
   4   8  -1 3.73000 0.32000   1
   6   5   4 0.11000 0.17000   1
   6   5   4 0.28000 0.13000   1
   6   4  -9 0.09000 0.16000   1
   8   3   2 0.22000 0.15000   1
   9  -2  -5 3.57000 0.27000   1
   9   2  -5 3.40000 0.31000   1
   4   0   9 0.25000 0.15000   1
   4   8  -2 4.51000 0.36000   1
   8  -2  -8 11.6600 0.62000   1
   8   2  -8 10.4300 0.57000   1
   3   7   5 3.64000 0.32000   1
   3   7   5 3.36000 0.29000   1
   9   1  -6 4.21000 0.35000   1
   9  -1  -6 4.71000 0.34000   1
   1   5   9 1.57000 0.23000   1
   1   0  11 3.19000 0.28000   1
   0   7   7 0.12000 0.15000   1
   1   6   8 0.62000 0.21000   1
   5   7   2 2.28000 0.28000   1
   5   7   2 2.39000 0.24000   1
   6   3   6 0.06000 0.13000   1
   6   3   6 0.01000 0.10000   1
  -2   8   5 0.35000 0.17000   1
   2   8  -5 0.40000 0.19000   1
   3   7  -7 6.46000 0.44000   1
  -3   7   7 5.87000 0.36000   1
  -1   3  11 0.20000 0.15000   1
   1   3 -11 0.17000 0.17000   1
  -1  -3  11 0.11000 0.16000   1
   4   8   0 0.57000 0.19000   1
   0   8   5 0.69000 0.19000   1
   5  -1   8 0.22000 0.15000   1
   5   1   8 0.91000 0.16000   1
   6   5  -8 5.86000 0.44000   1
   7   2   5 0.19000 0.16000   1
   7   2   5 0.12000 0.13000   1
   2   7   6 2.00000 0.26000   1
   2   7   6 1.53000 0.24000   1
   7   5   2 7.81000 0.42000   1
   7   5   2 9.20000 0.50000   1
   7   6  -2 0.54000 0.20000   1
   4  -1   9 2.22000 0.23000   1
   4   1   9 2.60000 0.24000   1
   7   4  -8 9.02000 0.56000   1
   8   2   3 5.22000 0.36000   1
   7   6  -3 4.87000 0.38000   1
  -5   2  11 0.45000 0.17000   1
   5   2 -11 0.60000 0.21000   1
   1  -1  11 0.36000 0.18000   1
   1   1  11 0.44000 0.17000   1
   8  -4  -6 1.12000 0.20000   1
   8   4  -6 1.26000 0.23000   1
   7   0 -10 -0.0100 0.14000   1
   4   8  -3 0.29000 0.18000   1
  -4   8   3 0.15000 0.12000   1
   7   3  -9 8.43000 0.53000   1
   4   7   4 1.34000 0.26000   1
   4   7   4 2.24000 0.24000   1
   6   0   7 0.12000 0.14000   1
   7   6  -1 0.39000 0.17000   1
  -5   5   9 0.03000 0.11000   1
   5   5  -9 -0.0100 0.15000   1
   8   4   1 5.04000 0.29000   1
   8   4   1 4.96000 0.35000   1
   6   3 -10 3.09000 0.31000   1
   4   3 -11 0.04000 0.16000   1
  -4   3  11 0.12000 0.13000   1
   2   8   4 0.02000 0.14000   1
   2   8   4 0.08000 0.15000   1
   9   3  -3 1.19000 0.22000   1
   9   2   0 3.22000 0.28000   1
   4   5   7 0.17000 0.17000   1
   4   5   7 0.10000 0.14000   1
   7   1 -10 1.70000 0.28000   1
   7  -1 -10 1.56000 0.26000   1
   6   7  -2 0.14000 0.17000   1
   9   0   1 0.44000 0.15000   1
  -5   4  10 0.23000 0.15000   1
   5   4 -10 0.12000 0.17000   1
   3   0  10 0.08000 0.14000   1
   0   9   0 0.22000 0.20000   1
   9   3  -2 0.27000 0.17000   1
   7   6  -4 7.91000 0.51000   1
   6   1   7 1.37000 0.21000   1
   6  -1   7 1.29000 0.22000   1
   4   8   1 -0.00000 0.1300   1
   2  -3  10 0.42000 0.17000   1
   2   3  10 0.58000 0.17000   1
   6   7  -1 1.19000 0.24000   1
   9   3  -4 1.47000 0.23000   1
   9  -3  -4 1.28000 0.19000   1
   3   8   3 2.60000 0.29000   1
   3   8   3 2.61000 0.26000   1
   6   7  -3 -0.0300 0.16000   1
   9  -2  -6 8.02000 0.47000   1
   9   2  -6 7.73000 0.50000   1
   1   4  10 0.19000 0.16000   1
   0   9   1 4.62000 0.35000   1
  -2   5  10 0.05000 0.13000   1
   2   5 -10 0.02000 0.13000   1
   8   0  -9 0.04000 0.15000   1
   8   5  -3 2.22000 0.27000   1
   3   5   8 1.18000 0.20000   1
   8   5  -2 -0.0200 0.13000   1
  -3   8   5 0.12000 0.17000   1
   3   8  -5 0.13000 0.19000   1
   6   0 -11 -0.0800 0.14000   1
  -6   0  11 0.06000 0.12000   1
  -2   0  12 17.2500 0.83000   1
   9   1   1 5.83000 0.35000   1
   1   9   0 0.08000 0.15000   1
  -3   0  12 0.14000 0.17000   1
   9   0  -7 2.93000 0.30000   1
  -2   6   9 4.55000 0.34000   1
   3  -1  10 2.25000 0.25000   1
   3   1  10 2.23000 0.25000   1
   1   8   5 2.93000 0.29000   1
   1   8   5 2.54000 0.29000   1
   7   5  -7 4.89000 0.40000   1
   1   9  -1 0.10000 0.16000   1
   5   2   8 1.50000 0.20000   1
   5  -2   8 1.52000 0.20000   1
   5   5   6 2.75000 0.29000   1
   5   5   6 2.62000 0.27000   1
   4   6   6 0.09000 0.17000   1
   4   6   6 0.20000 0.15000   1
   4   2   9 0.46000 0.17000   1
   4  -2   9 0.43000 0.16000   1
   1   7   7 2.11000 0.27000   1
   7   6   0 5.83000 0.40000   1
   7   6   0 6.54000 0.37000   1
   3   6   7 4.61000 0.34000   1
   3   6   7 4.25000 0.37000   1
   0  -3  11 1.90000 0.23000   1
   0   3  11 2.10000 0.26000   1
   4   4   8 0.67000 0.17000   1
  -3   5  10 14.9200 0.71000   1
   3   5 -10 12.9600 0.69000   1
   6   6   3 -0.0100 0.12000   1
   6   6   3 -0.0500 0.14000   1
  -1   6   9 6.54000 0.42000   1
  -4   8   4 0.65000 0.18000   1
   4   8  -4 0.55000 0.20000   1
   1   2  11 1.49000 0.21000   1
   1  -2  11 1.43000 0.22000   1
   8   1  -9 1.17000 0.23000   1
   8  -1  -9 1.44000 0.26000   1
  -1   5  10 1.93000 0.25000   1
   5   7  -6 2.40000 0.29000   1
   6   1 -11 0.50000 0.23000   1
  -6   1  11 0.46000 0.18000   1
   9   3  -1 5.80000 0.39000   1
  -2  -1  12 0.28000 0.18000   1
  -2   1  12 0.21000 0.18000   1
   8   5  -4 0.65000 0.20000   1
   1   9   1 0.09000 0.16000   1
  -3   1  12 -0.0500 0.16000   1
  -3  -1  12 -0.1000 0.15000   1
   5   6  -8 0.08000 0.17000   1
   9   1  -7 0.17000 0.18000   1
   9  -1  -7 0.02000 0.16000   1
  -4   7   7 1.80000 0.24000   1
   4   7  -7 1.40000 0.25000   1
   7   4   4 0.66000 0.21000   1
   7   4   4 0.81000 0.18000   1
   6   7   0 0.03000 0.14000   1
   5   4   7 0.34000 0.15000   1
   5   4   7 0.06000 0.18000   1
   8   5  -1 -0.0400 0.11000   1
   8   5  -1 0.03000 0.13000   1
  -3   6   9 9.09000 0.50000   1
   3   6  -9 8.70000 0.50000   1
   9   3  -5 0.60000 0.20000   1
   9  -3  -5 0.71000 0.19000   1
   0   9   2 0.17000 0.20000   1
   6   7  -4 -0.0300 0.15000   1
   6   6  -7 0.22000 0.20000   1
   8  -3  -8 9.02000 0.54000   1
   8   3  -8 7.48000 0.51000   1
   1   9  -2 0.97000 0.26000   1
  -1   0  12 0.03000 0.14000   1
   7   2 -10 0.21000 0.20000   1
   8   1   4 6.98000 0.43000   1
  -4   0  12 9.88000 0.54000   1
   7   6  -5 2.32000 0.31000   1
   5   7   3 4.73000 0.36000   1
   5   7   3 4.03000 0.31000   1
   3   4   9 1.07000 0.20000   1
   6  -2   7 -0.0500 0.13000   1
   6   2   7 0.05000 0.11000   1
   6   2   7 0.08000 0.13000   1
   7   3   5 2.43000 0.26000   1
   7   3   5 2.38000 0.24000   1
  -1   8   6 0.09000 0.16000   1
   8   3   3 1.66000 0.22000   1
   8  -4  -7 0.03000 0.13000   1
   8   4  -7 0.00000 0.15000   1
   2   9  -1 5.12000 0.43000   1
   5   6   5 0.74000 0.22000   1
   5   6   5 0.96000 0.20000   1
  -2   4  11 2.45000 0.27000   1
   2   4 -11 2.01000 0.27000   1
   4   8   2 1.90000 0.26000   1
   4   8   2 1.54000 0.21000   1
   7   0   6 0.06000 0.12000   1
  -5   3  11 6.40000 0.43000   1
   5   3 -11 5.85000 0.42000   1
  -1   1  12 0.13000 0.17000   1
  -1  -1  12 0.11000 0.17000   1
   2   9   0 0.50000 0.20000   1
  -4   1  12 0.09000 0.16000   1
  -4  -1  12 0.15000 0.16000   1
   9   2   1 2.00000 0.24000   1
   2   6   8 0.56000 0.20000   1
  -2   8   6 4.86000 0.35000   1
   3   2  10 1.23000 0.22000   1
   3  -2  10 1.21000 0.20000   1
   2   5   9 0.08000 0.15000   1
   7   5   3 0.50000 0.15000   1
   7   5   3 0.25000 0.19000   1
   3   4 -11 3.87000 0.33000   1
  -3   4  11 4.11000 0.33000   1
   1   9   2 2.56000 0.29000   1
   0   6   9 0.27000 0.17000   1
   8   5  -5 1.35000 0.26000   1
  -4   5  10 0.19000 0.15000   1
   4   5 -10 0.03000 0.17000   1
   8   4   2 0.58000 0.14000   1
   8   4   2 0.19000 0.18000   1
  -2   7   8 0.64000 0.20000   1
   2   9  -2 0.64000 0.21000   1
   8   5   0 8.90000 0.47000   1
   8   5   0 9.97000 0.55000   1
  -1   7   8 0.15000 0.18000   1
   7   1   6 0.04000 0.10000   1
   0   5  10 0.79000 0.21000   1
   8   2  -9 0.90000 0.24000   1
   8  -2  -9 1.52000 0.25000   1
   9   3   0 4.73000 0.35000   1
   7   6   1 3.62000 0.27000   1
   7   6   1 3.61000 0.31000   1
   6   2 -11 0.37000 0.22000   1
   0   8   6 0.13000 0.17000   1
   2   0  11 0.03000 0.13000   1
  -2  -2  12 1.03000 0.22000   1
  -2   2  12 1.37000 0.23000   1
   3   2 -12 3.74000 0.33000   1
  -3   2  12 3.67000 0.32000   1
  -3  -2  12 3.48000 0.32000   1
   9   2  -7 1.81000 0.28000   1
   9  -2  -7 2.70000 0.28000   1
   6   5   5 0.55000 0.22000   1
   6   5   5 1.09000 0.19000   1
   6   4   6 0.08000 0.16000   1
   6   4   6 0.08000 0.13000   1
   6   7   1 1.04000 0.23000   1
   6   7   1 1.53000 0.21000   1
  -1   4  11 1.64000 0.24000   1
   2   9   1 4.88000 0.38000   1
   5   8  -2 2.71000 0.32000   1
  -1   9   3 0.03000 0.13000   1
  -4   6   9 0.33000 0.15000   1
   4   6  -9 0.33000 0.22000   1
   5   8  -1 0.16000 0.17000   1
   3   7   6 0.05000 0.19000   1
   3   7   6 0.31000 0.16000   1
   0   9   3 0.45000 0.20000   1
   0   9   3 0.32000 0.18000   1
   4   8  -5 5.92000 0.42000   1
  -4   8   5 6.56000 0.43000   1
   9   3  -6 0.04000 0.13000   1
   9  -3  -6 -0.0200 0.11000   1
   6   7  -5 0.67000 0.24000   1
   2   8   5 0.22000 0.18000   1
   2   8   5 0.12000 0.18000   1
   2  -1  11 2.29000 0.27000   1
   2   1  11 2.36000 0.25000   1
   8   2   4 0.65000 0.17000   1
   3   8   4 0.10000 0.18000   1
   3   8   4 0.10000 0.14000   1
   3   7  -8 0.44000 0.22000   1
  -3   7   8 0.70000 0.20000   1
   7   4  -9 7.34000 0.51000   1
   4   7   5 1.88000 0.27000   1
   4   7   5 1.83000 0.23000   1
   5   3   8 0.04000 0.13000   1
   5  -3   8 0.07000 0.12000   1
   6   5  -9 0.29000 0.22000   1
   9   1   2 0.48000 0.17000   1
   5   8  -3 1.29000 0.25000   1
   3   8  -6 3.07000 0.33000   1
  -3   8   6 2.98000 0.28000   1
   4   3   9 0.15000 0.15000   1
   4  -3   9 0.05000 0.13000   1
   6   4 -10 0.17000 0.19000   1
   0   0  12 0.54000 0.20000   1
   4   4 -11 0.35000 0.19000   1
  -4   4  11 0.31000 0.21000   1
   9   0  -8 0.17000 0.19000   1
   5   8   0 0.33000 0.20000   1
   9   4  -3 3.97000 0.35000   1
  -1   2  12 1.77000 0.25000   1
  -1  -2  12 1.25000 0.23000   1
   1  -3  11 0.13000 0.15000   1
   1   3  11 0.14000 0.16000   1
  -5   0  12 0.02000 0.15000   1
   0   7   8 0.93000 0.24000   1
  -4   2  12 9.76000 0.55000   1
   4   2 -12 10.6300 0.62000   1
  -2   9   3 4.73000 0.34000   1
   2   9  -3 4.68000 0.40000   1
   7   6  -6 4.79000 0.41000   1
   2   7   7 -0.0500 0.15000   1
   9   4  -2 0.26000 0.18000   1
   2   4  10 0.11000 0.15000   1
   9   4  -4 2.04000 0.28000   1
   7   5  -8 1.83000 0.30000   1
   0   1  12 1.74000 0.26000   1
   0  -1  12 2.10000 0.27000   1
   9  -1  -8 2.31000 0.29000   1
   9   1  -8 2.19000 0.29000   1
  10   0  -3 -0.0400 0.15000   1
   1   9   3 0.01000 0.14000   1
   1   9   3 0.11000 0.17000   1
   7   2   6 0.77000 0.22000   1
   7   2   6 1.02000 0.19000   1
   5   1 -12 0.48000 0.23000   1
  -5  -1  12 0.62000 0.20000   1
  -5   1  12 0.63000 0.23000   1
   2   9   2 0.21000 0.19000   1
   5   7  -7 5.29000 0.43000   1
   8   5  -6 3.62000 0.36000   1
   8  -5  -6 3.82000 0.35000   1
   7   3 -10 1.95000 0.30000   1
  10   0  -4 5.83000 0.39000   1
   3   9  -1 0.04000 0.16000   1
   1   8   6 0.29000 0.18000   1
   6   6   4 0.31000 0.16000   1
   6   6   4 0.38000 0.19000   1
   6  -3   7 0.02000 0.12000   1
   6   3   7 0.20000 0.15000   1
   6   3   7 0.08000 0.13000   1
   4   8   3 0.00000 0.11000   1
   4   8   3 -0.0100 0.13000   1
   8   5   1 0.31000 0.18000   1
   8   5   1 0.41000 0.16000   1
  10   0  -2 0.03000 0.11000   1
   0   4  11 3.05000 0.31000   1
   3   9   0 1.71000 0.27000   1
  10  -1  -3 1.33000 0.22000   1
  10   1  -3 1.22000 0.22000   1
   5   8  -4 0.77000 0.25000   1
   3   9  -2 1.55000 0.26000   1
   1   6   9 7.89000 0.49000   1
   9   4  -1 3.15000 0.31000   1
   2   2  11 1.67000 0.23000   1
   2  -2  11 1.70000 0.25000   1
   7   0 -11 2.05000 0.31000   1
  10   1  -4 0.04000 0.16000   1
  10  -1  -4 0.14000 0.14000   1
   9   3   1 1.44000 0.23000   1
   5   5 -10 8.05000 0.54000   1
   3  -3  10 0.29000 0.16000   1
   3   3  10 0.35000 0.17000   1
  -1   9   4 1.38000 0.24000   1
   8   0 -10 4.79000 0.40000   1
   5   7   4 2.36000 0.27000   1
   5   7   4 2.51000 0.29000   1
   6   7   2 0.20000 0.16000   1
   6   7   2 0.36000 0.18000   1
   9   2   2 0.07000 0.15000   1
   5   8   1 0.29000 0.20000   1
   6   6  -8 0.14000 0.20000   1
   7   6   2 1.29000 0.20000   1
   7   6   2 1.88000 0.24000   1
   9   4  -5 2.71000 0.29000   1
  10   1  -2 -0.0200 0.12000   1
  10   0  -5 0.02000 0.14000   1
   5   0   9 16.2300 0.78000   1
  -4   7   8 1.33000 0.19000   1
   4   7  -8 1.16000 0.23000   1
   8   4  -8 0.29000 0.22000   1
   1   5  10 3.60000 0.33000   1
   0   9   4 0.35000 0.19000   1
   8   3  -9 0.55000 0.24000   1
   8  -3  -9 0.38000 0.23000   1
   6   3 -11 1.35000 0.27000   1
   7   1 -11 -0.0100 0.20000   1
   7  -1 -11 0.23000 0.19000   1
   2   3 -12 0.44000 0.23000   1
  -2   3  12 0.53000 0.21000   1
   6   7  -6 1.11000 0.25000   1
  -3   3  12 0.20000 0.18000   1
   3   3 -12 0.30000 0.19000   1
   9   3  -7 0.37000 0.21000   1
   9  -3  -7 0.38000 0.19000   1
   8   1 -10 0.49000 0.21000   1
   8  -1 -10 0.67000 0.24000   1
   7   4   5 0.49000 0.18000   1
   7   4   5 0.38000 0.20000   1
   3   9   1 0.22000 0.20000   1
   5   6  -9 0.06000 0.17000   1
  -2   9   4 0.11000 0.16000   1
  10   1  -5 0.88000 0.22000   1
  10  -1  -5 0.79000 0.21000   1
   0  -2  12 0.27000 0.17000   1
   0   2  12 0.29000 0.19000   1
   5  -1   9 0.00000 0.14000   1
   5   1   9 0.12000 0.14000   1
   3   9  -3 0.16000 0.22000   1
  -3   9   3 0.22000 0.15000   1
  10   0  -1 0.00000 0.11000   1
   8   4   3 0.22000 0.15000   1
   8   4   3 0.19000 0.18000   1
   4   0  10 28.0500 1.24000   1
   4   5   8 0.47000 0.18000   1
   9   2  -8 0.05000 0.18000   1
   9  -2  -8 0.11000 0.18000   1
  -4   8   6 4.78000 0.37000   1
   4   8  -6 3.66000 0.35000   1
  -5   4  11 0.32000 0.20000   1
   5   4 -11 0.38000 0.21000   1
  -5   2  12 6.62000 0.44000   1
   5   2 -12 6.89000 0.50000   1
   6   0   8 11.7900 0.63000   1
   4   6   7 7.11000 0.50000   1
   4   6   7 8.82000 0.51000   1
   8   3   4 0.19000 0.16000   1
   1   7   8 0.38000 0.21000   1
  -1   8   7 0.36000 0.20000   1
  -2   8   7 0.37000 0.20000   1
   7   5   4 6.29000 0.43000   1
   7   5   4 5.69000 0.37000   1
   5   5   7 1.50000 0.26000   1
   5   5   7 1.34000 0.22000   1
   7   7  -2 0.48000 0.22000   1
  10   1  -1 1.60000 0.25000   1
   4  -1  10 0.09000 0.15000   1
   4   1  10 0.03000 0.14000   1
  10   2  -3 1.30000 0.23000   1
   2   9   3 1.41000 0.25000   1
   2   9   3 1.21000 0.26000   1
   7   7  -3 9.58000 0.60000   1
  -2   6  10 0.06000 0.16000   1
  -1  -3  12 2.58000 0.30000   1
  -1   3  12 2.49000 0.31000   1
   6   1   8 2.53000 0.25000   1
   6  -1   8 3.61000 0.28000   1
   8   6  -3 0.48000 0.20000   1
   3   6   8 0.22000 0.16000   1
   9   4   0 0.09000 0.16000   1
   8   6  -2 0.25000 0.19000   1
  -4   3  12 0.32000 0.18000   1
   4   3 -12 0.12000 0.20000   1
  10   2  -4 0.08000 0.16000   1
   7   6  -7 1.01000 0.28000   1
   1   0  12 0.09000 0.16000   1
   5   8  -5 0.53000 0.24000   1
   1   9   4 0.26000 0.20000   1
   5   6   6 0.36000 0.20000   1
;
_shelx_hkl_checksum              9765
_publcif_info_exptl_table_max_cols 4
_publcif_info_exptl_table_use_headnotes n
_publcif_funding_html
;
<span class="funder">
<span class="fundref-name" data-id="100000001">National Science
 Foundation</span>
<span class="fundref-subname" data-id=""></span> 
(<span class="fundref-grant-group"><span 
class="fundref-grant-type">grant</span> No. 
<span class="fundref-grant-id">0741973</span></span>).
</span>
;
loop_
_space_group_symop_operation_xyz
'x, y, z'
'-x+1/2, y+1/2, -z+1/2'
'-x, -y, -z'
'x-1/2, -y-1/2, z-1/2'
loop_
_atom_site_label
_atom_site_type_symbol
_atom_site_fract_x
_atom_site_fract_y
_atom_site_fract_z
_atom_site_U_iso_or_equiv
_atom_site_adp_type
_atom_site_occupancy
_atom_site_site_symmetry_order
_atom_site_calc_flag
_atom_site_refinement_flags_posn
_atom_site_refinement_flags_adp
_atom_site_refinement_flags_occupancy
_atom_site_disorder_assembly
_atom_site_disorder_group
C1 C 0.35368(15) 0.73358(16) 0.04868(12) 0.0174(3) Uani 1 1 d . . . . .
C2 C 0.25317(16) 0.68855(17) -0.08171(12) 0.0197(3) Uani 1 1 d . . . . .
C3 C 0.20769(14) 0.96844(16) -0.05783(11) 0.0156(3) Uani 1 1 d . . . . .
C4 C 0.17443(17) 1.16552(17) -0.05457(13) 0.0209(3) Uani 1 1 d . . . . .
C5 C 0.26013(17) 1.21318(18) 0.10150(13) 0.0219(3) Uani 1 1 d . . . . .
C6 C 0.38632(16) 1.05792(16) 0.16201(12) 0.0183(3) Uani 1 1 d . . . . .
N1 N 0.32126(12) 0.91323(13) 0.06209(9) 0.0150(3) Uani 1 1 d . . . . .
N2 N 0.16179(13) 0.83657(14) -0.14934(10) 0.0194(3) Uani 1 1 d . . . . .
H1 H 0.4341(18) 0.6695(18) 0.1200(15) 0.024(4) Uiso 1 1 d . . . . .
H2 H 0.2433(17) 0.5700(17) -0.1276(14) 0.023(4) Uiso 1 1 d . . . . .
H4A H 0.2310(17) 1.2310(17) -0.1188(14) 0.023(4) Uiso 1 1 d . . . . .
H4B H 0.0496(19) 1.1952(19) -0.0828(15) 0.029(4) Uiso 1 1 d . . . . .
H5A H 0.3296(19) 1.333(2) 0.1160(16) 0.032(4) Uiso 1 1 d . . . . .
H5B H 0.167(2) 1.2194(19) 0.1527(15) 0.035(4) Uiso 1 1 d . . . . .
H6A H 0.5118(17) 1.0873(18) 0.1648(13) 0.022(3) Uiso 1 1 d . . . . .
H6B H 0.3805(18) 1.018(2) 0.2585(15) 0.036(4) Uiso 1 1 d . . . . .
loop_
_atom_site_aniso_label
_atom_site_aniso_U_11
_atom_site_aniso_U_22
_atom_site_aniso_U_33
_atom_site_aniso_U_23
_atom_site_aniso_U_13
_atom_site_aniso_U_12
C1 0.0210(6) 0.0136(6) 0.0166(6) 0.0022(5) 0.0029(5) -0.0006(5)
C2 0.0246(6) 0.0159(7) 0.0177(6) -0.0014(5) 0.0037(5) -0.0034(5)
C3 0.0149(5) 0.0193(6) 0.0123(6) 0.0023(4) 0.0029(4) 0.0003(4)
C4 0.0232(7) 0.0201(7) 0.0199(6) 0.0036(5) 0.0067(5) 0.0025(5)
C5 0.0255(7) 0.0192(7) 0.0224(6) -0.0032(5) 0.0087(5) 0.0004(5)
C6 0.0238(6) 0.0178(6) 0.0128(6) -0.0037(4) 0.0038(4) -0.0054(5)
N1 0.0174(5) 0.0158(6) 0.0111(5) -0.0001(4) 0.0021(4) -0.0014(4)
N2 0.0207(5) 0.0210(6) 0.0155(5) -0.0004(4) 0.0025(4) -0.0017(4)
loop_
_atom_type_symbol
_atom_type_description
_atom_type_scat_dispersion_real
_atom_type_scat_dispersion_imag
_atom_type_scat_source
C C 0.0033 0.0016 'International Tables Vol C Tables 4.2.6.8 and 6.1.1.4'
H H 0.0000 0.0000 'International Tables Vol C Tables 4.2.6.8 and 6.1.1.4'
N N 0.0061 0.0033 'International Tables Vol C Tables 4.2.6.8 and 6.1.1.4'
loop_
_geom_angle_atom_site_label_1
_geom_angle_atom_site_label_2
_geom_angle_atom_site_label_3
_geom_angle
_geom_angle_site_symmetry_1
_geom_angle_site_symmetry_3
C2 C1 N1 104.54(10) . .
C2 C1 H1 133.8(8) . .
N1 C1 H1 121.6(8) . .
C1 C2 N2 111.23(12) . .
C1 C2 H2 127.5(8) . .
N2 C2 H2 121.2(8) . .
N2 C3 N1 112.18(12) . .
N2 C3 C4 136.59(11) . .
N1 C3 C4 111.13(10) . .
C3 C4 C5 102.18(10) . .
C3 C4 H4A 111.0(8) . .
C5 C4 H4A 111.6(8) . .
C3 C4 H4B 112.7(8) . .
C5 C4 H4B 112.4(8) . .
H4A C4 H4B 107.1(11) . .
C6 C5 C4 106.64(11) . .
C6 C5 H5A 108.9(8) . .
C4 C5 H5A 114.4(8) . .
C6 C5 H5B 109.0(8) . .
C4 C5 H5B 108.9(8) . .
H5A C5 H5B 108.9(12) . .
N1 C6 C5 102.10(11) . .
N1 C6 H6A 110.5(7) . .
C5 C6 H6A 112.4(8) . .
N1 C6 H6B 109.0(9) . .
C5 C6 H6B 113.8(9) . .
H6A C6 H6B 108.7(10) . .
C3 N1 C1 108.01(10) . .
C3 N1 C6 113.99(11) . .
C1 N1 C6 137.70(10) . .
C3 N2 C2 104.03(12) . .
loop_
_geom_bond_atom_site_label_1
_geom_bond_atom_site_label_2
_geom_bond_distance
_geom_bond_site_symmetry_2
C1 C2 1.3700(19) .
C1 N1 1.374(2) .
C1 H1 0.948(14) .
C2 N2 1.3905(18) .
C2 H2 0.986(13) .
C3 N2 1.3203(18) .
C3 N1 1.3533(17) .
C3 C4 1.492(2) .
C4 C5 1.557(2) .
C4 H4A 0.993(14) .
C4 H4B 0.980(15) .
C5 C6 1.543(2) .
C5 H5A 1.038(15) .
C5 H5B 0.994(15) .
C6 N1 1.4619(17) .
C6 H6A 1.010(13) .
C6 H6B 1.011(14) .
loop_
_geom_hbond_atom_site_label_D
_geom_hbond_atom_site_label_H
_geom_hbond_atom_site_label_A
_geom_hbond_distance_DH
_geom_hbond_distance_HA
_geom_hbond_distance_DA
_geom_hbond_angle_DHA
C1 H1 N2 0.95(1) 2.52(1) 3.73(3) 150(1)
loop_
_geom_torsion_atom_site_label_1
_geom_torsion_atom_site_label_2
_geom_torsion_atom_site_label_3
_geom_torsion_atom_site_label_4
_geom_torsion
_geom_torsion_site_symmetry_1
_geom_torsion_site_symmetry_2
_geom_torsion_site_symmetry_3
_geom_torsion_site_symmetry_4
N1 C3 C4 C5 -10.83(13) . . . .
C3 C4 C5 C6 18.49(13) . . . .
C4 C5 C6 N1 -19.28(13) . . . .
C4 C3 N1 C6 -1.63(13) . . . .
C5 C6 N1 C3 13.39(12) . . . .
loop_
_publcif_info_tables.block_id
_publcif_info_tables.reference_item
{69de4aae-3b86-446c-ab32-2f5b6d445da7} '_geom_hbond_atom_site_label_D'
{69de4aae-3b86-446c-ab32-2f5b6d445da7} '_publcif_info_datablock.publ_exptl'
loop_
_publcif_info_cif.paper_type
EX
loop_
_publcif_info_datablock.id
_publcif_info_datablock.publ_exptl
_publcif_info_datablock.publ_geom
_publcif_info_datablock.structure
{69de4aae-3b86-446c-ab32-2f5b6d445da7} y y y
loop_
_publcif_info_exptl_table_extra_item
sin_theta_over_lambda_max

_cod_database_fobs_code 1567248
