#------------------------------------------------------------------------------
#$Date: 2022-07-23 07:17:47 +0300 (Sat, 23 Jul 2022) $
#$Revision: 276901 $
#$URL: file:///home/coder/svn-repositories/cod/cif/1/56/73/1567356.cif $
#------------------------------------------------------------------------------
#
# This file is available in the Crystallography Open Database (COD),
# http://www.crystallography.net/. The original data for this entry
# were provided by IUCr Journals, http://journals.iucr.org/.
#
# The file may be used within the scientific community so long as
# proper attribution is given to the journal article from which the
# data were obtained.
#
data_1567356
loop_
_publ_author_name
'Chodkiewicz, Michal L.'
'Gajda, Roman'
'Lavina, Barbara'
'Tkachev, Sergey'
'Prakapenka, Vitali B.'
'Dera, Przemyslaw'
'Wozniak, Krzysztof'
_publ_section_title
;
 Accurate crystal structure of ice VI from X-ray diffraction with
 Hirshfeld atom refinement
;
_journal_issue                   5
_journal_name_full               IUCrJ
_journal_page_first
;
;
_journal_paper_doi               10.1107/S2052252522006662
_journal_volume                  9
_journal_year                    2022
_chemical_formula_moiety         'H2 O'
_chemical_formula_sum            'H2 O'
_chemical_formula_weight         18.015
_space_group_crystal_system      tetragonal
_space_group_IT_number           137
_space_group_name_Hall           '-P 4ac 2a'
_space_group_name_H-M_alt        'P 42/n m c :2'
_symmetry_Int_Tables_number      137
_cell_angle_alpha                90
_cell_angle_beta                 90
_cell_angle_gamma                90
_cell_formula_units_Z            10
_cell_length_a                   6.1665(3)
_cell_length_b                   6.1665(3)
_cell_length_c                   5.6756(4)
_cell_measurement_reflns_used    1521
_cell_measurement_temperature    293(2)
_cell_measurement_theta_max      22.9150
_cell_measurement_theta_min      3.6650
_cell_volume                     215.82(2)
_diffrn_ambient_temperature      293(2)
_diffrn_detector                 'CCD plate'
_diffrn_detector_area_resol_mean 16.0128
_diffrn_detector_type            Eos
_diffrn_measured_fraction_theta_full 0.9917
_diffrn_measured_fraction_theta_max 0.9522
_diffrn_measurement_device       'four-circle diffractometer'
_diffrn_measurement_device_type  'SuperNova, Single source at offset/far, Eos'
_diffrn_radiation_monochromator  mirror
_diffrn_radiation_probe          x-ray
_diffrn_radiation_type           'Ag K\a'
_diffrn_radiation_wavelength     0.56087
_diffrn_reflns_av_R_equivalents  0.0346
_diffrn_reflns_av_unetI/netI     0.0130
_diffrn_reflns_Laue_measured_fraction_full 0.9917
_diffrn_reflns_Laue_measured_fraction_max 0.9522
_diffrn_reflns_limit_h_max       9
_diffrn_reflns_limit_h_min       -9
_diffrn_reflns_limit_k_max       8
_diffrn_reflns_limit_k_min       -8
_diffrn_reflns_limit_l_max       8
_diffrn_reflns_limit_l_min       -8
_diffrn_reflns_number            4280
_diffrn_reflns_point_group_measured_fraction_full 0.9917
_diffrn_reflns_point_group_measured_fraction_max 0.9522
_diffrn_reflns_theta_full        19.6651
_diffrn_reflns_theta_max         26.88
_diffrn_reflns_theta_min         3.69
_diffrn_source                   'micro-focus sealed X-ray tube'
_diffrn_source_type              'SuperNova (Ag) X-ray Source'
_exptl_absorpt_coefficient_mu    0.091
_exptl_absorpt_correction_T_max  1.00000
_exptl_absorpt_correction_T_min  0.68491
_exptl_absorpt_correction_type   multi-scan
_exptl_absorpt_process_details
;
CrysAlisPro 1.171.40.67a (Rigaku Oxford Diffraction, 2019)
Empirical absorption correction using spherical harmonics,
 implemented in SCALE3 ABSPACK scaling algorithm.
;
_exptl_crystal_colour            colourless
_exptl_crystal_density_diffrn    1.386
_exptl_crystal_description       disc
_exptl_crystal_F_000             100.051
_exptl_crystal_size_max          0.3
_exptl_crystal_size_mid          0.2
_exptl_crystal_size_min          0.2
_refine_diff_density_max         0.1777
_refine_diff_density_min         -0.1583
_refine_diff_density_rms         0.0458
_refine_ls_d_res_high            0.6203
_refine_ls_d_res_low             4.3603
_refine_ls_goodness_of_fit_ref   1.0414
_refine_ls_hydrogen_treatment    refall
_refine_ls_matrix_type           full
_refine_ls_number_constraints    0
_refine_ls_number_parameters     22
_refine_ls_number_reflns         259
_refine_ls_number_restraints     0
_refine_ls_restrained_S_all      1.0414
_refine_ls_R_factor_all          0.0347
_refine_ls_R_factor_gt           0.0171
_refine_ls_shift/su_max          0.0003
_refine_ls_shift/su_mean         0.0000
_refine_ls_structure_factor_coef Fsqd
_refine_ls_weighting_details
'w=1/[\s^2^(Fo^2^)+(0.0100P)^2^+0.0017P] where P=(Fo^2^+2Fc^2^)/3'
_refine_ls_weighting_scheme      calc
_refine_ls_wR_factor_gt          0.0261
_refine_ls_wR_factor_ref         0.0294
_reflns_Friedel_coverage         0.0
_reflns_limit_h_max              9
_reflns_limit_h_min              0
_reflns_limit_k_max              6
_reflns_limit_k_min              0
_reflns_limit_l_max              8
_reflns_limit_l_min              0
_reflns_number_gt                198
_reflns_number_total             259
_reflns_threshold_expression     I>=2u(I)
_iucr_refine_instructions_details
;
TITL woda_IIIb in P42/nmc #137
REM reset to P42/nmc #137
CELL 0.56087 6.166463 6.166463 5.675647 90 90 90
ZERR 10 0.000248 0.000248 0.000379 0 0 0
LATT 1
SYMM 0.5-Y,+X,0.5+Z
SYMM 0.5-X,0.5-Y,+Z
SYMM +Y,0.5-X,0.5+Z
SYMM 0.5+X,-Y,-Z
SYMM -X,0.5+Y,-Z
SYMM 0.5+Y,0.5+X,0.5-Z
SYMM -Y,-X,0.5-Z
SFAC H O
DISP H 0 0 0.7
DISP O 0.0058 0.0036 18.2
UNIT 20 10

L.S. 12 0 0
PLAN  2
CONF
MORE -1
BOND $H
fmap 2 53
acta 
WGHT 0.0091 0
FVAR 23.841562
REM <olex2.extras>
REM <HklSrc "%.\\woda_IIIb.hkl">
REM </olex2.extras>

O1    2     0.52976  0.75000  0.12893  10.50000  0.02897  0.04067  0.03961 =
 0.00000  0.00106  0.00000 
O2    2     0.25000  0.75000 -0.25000  10.12500  0.04166  0.04166  0.03159 =
 0.00000 -0.00000  0.00000 
H1a   1     0.47957  0.65427  0.19268  10.50000  0.03897 
H1b   1     0.64941  0.75000  0.12327  10.25000  0.04373 
H2    1     0.15527  0.75000 -0.17068  10.25000  0.04309 
H1c   1     0.47961  0.75000  0.00922  10.25000  0.03689 
HKLF 4

END
Q1 1 0.38 0.62 0.25 11 0.05 0.18
Q2 1 0.46 0.75 -0.083333 11 0.05 0.13

  REM The information below was added by Olex2.
  REM
  REM R1 = 0.0171 for 198 Fo > 4sig(Fo) and 0.0348 for all 259 data
  REM 22 parameters refined using 0 restraints
  REM Highest difference peak 0.1776, deepest hole -0.1599
  REM Mean Shift 0.0000, Max Shift 0.0001.

  REM +++ Tabular Listing of Refinement Information +++
  REM R1_all = 0.0348
  REM R1_gt = 0.0171
  REM wR_ref = 0.0274
  REM GOOF = 1.1031
  REM Shift_max = 0.0001
  REM Shift_mean = 0.0000
  REM Reflections_all = 259
  REM Reflections_gt = 198
  REM Parameters = 22
  REM Hole = -0.1599
  REM Peak = 0.1776
  REM Flack = n/a

  
;
_cod_data_source_file            lt5051.cif
_cod_data_source_block           H2O_home_IAM
_cod_original_cell_volume        215.818(19)
_cod_original_sg_symbol_H-M      'P 42/n m c'
_cod_database_code               1567356
_olex2_refinement_description
;
1. Others
 Fixed Sof: H1a(0.5) H1b(0.25) H2(0.25) H1c(0.25)
;
_iucr_refine_fcf_details
;
data_woda_IIIb
_computing_structure_refinement   'SHELXL 2018/3 (Sheldrick, 2015)'
_shelx_refln_list_code            4
loop_
  _space_group_symop_id
  _space_group_symop_operation_xyz
   1  x,y,z
   2  -y+1/2,x,z+1/2
   3  y,-x+1/2,z+1/2
   4  x+1/2,-y,-z
   5  -x,y+1/2,-z
   6  -x+1/2,-y+1/2,z
   7  y+1/2,x+1/2,-z+1/2
   8  -y,-x,-z+1/2
   9  -x,-y,-z
  10  y-1/2,-x,-z-1/2
  11  -y,x-1/2,-z-1/2
  12  -x-1/2,y,z
  13  x,-y-1/2,z
  14  x-1/2,y-1/2,-z
  15  -y-1/2,-x-1/2,z-1/2
  16  y,x,z-1/2

_space_group_crystal_system       tetragonal
_space_group_IT_number            137
_space_group_name_H-M_alt         'P 42/n m c :2'
_space_group_name_Hall            '-P 4ac 2a'
_symmetry_space_group_name_H-M    'P 42/n m c :2'
_symmetry_space_group_name_Hall   '-P 4ac 2a'
_symmetry_Int_Tables_number       137
_cell_length_a                    6.1665(3)
_cell_length_b                    6.1665(3)
_cell_length_c                    5.6756(4)
_cell_angle_alpha                 90
_cell_angle_beta                  90
_cell_angle_gamma                 90
_cell_volume                      215.818(19)
loop_
  _refln_index_h
  _refln_index_k
  _refln_index_l
  _refln_F_squared_calc
  _refln_F_squared_meas
  _refln_F_squared_sigma
  _refln_F_squared_weight
  _refln_observed_status
0 0 2 246.338 244.787 2.519 0.243 o
0 0 4 187.719 183.254 3.069 0.235 o
1 0 1 8.248 8.314 0.091 107.108 o
1 0 2 724.634 731.873 2.604 0.051 o
1 0 3 208.291 206.336 1.096 0.530 o
1 0 4 1.912 1.920 0.100 227.286 o
1 0 5 43.856 42.912 0.646 4.563 o
1 0 6 17.596 17.913 0.604 7.295 o
1 0 7 0.141 -0.097 0.558 9.966 o
1 1 0 20.390 20.359 0.295 19.107 o
1 1 2 103.179 103.951 0.537 2.028 o
1 1 4 65.990 67.337 0.547 3.646 o
1 1 6 4.649 4.906 0.287 33.525 o
2 0 0 207.662 211.868 1.305 0.483 o
2 0 1 1060.090 1049.100 5.404 0.022 o
2 0 2 69.351 70.475 0.363 4.225 o
2 0 3 323.396 321.173 1.995 0.208 o
2 0 4 11.337 11.008 0.376 17.945 o
2 0 5 30.363 31.224 0.541 7.083 o
2 0 6 3.446 3.321 0.224 54.253 o
2 0 8 0.938 0.676 0.377 21.575 o
2 1 1 838.627 833.297 2.485 0.040 o
2 1 2 138.759 139.248 0.437 1.319 o
2 1 3 5.504 5.509 0.078 168.931 o
2 1 4 0.559 0.543 0.045 1037.450 o
2 1 5 3.186 3.138 0.121 148.056 o
2 1 6 4.968 4.985 0.179 72.712 o
2 1 7 6.421 6.014 0.347 23.012 o
2 1 8 0.029 0.316 0.293 36.168 o
2 2 0 683.978 676.561 2.915 0.055 o
2 2 2 37.491 37.420 0.283 10.970 o
2 2 4 234.907 236.793 1.452 0.386 o
2 2 6 6.613 6.497 0.260 37.354 o
2 2 8 1.994 1.222 0.345 25.360 o
3 0 1 80.523 81.311 0.520 2.933 o
3 0 2 29.059 28.525 0.248 16.056 o
3 0 3 206.437 208.055 1.188 0.514 o
3 0 4 0.000 0.068 0.080 485.959 o
3 0 5 56.948 57.575 0.637 3.747 o
3 0 6 1.465 1.310 0.149 125.405 o
3 0 7 0.246 -0.002 0.322 29.830 o
3 0 8 0.005 0.036 0.392 20.171 o
3 1 0 163.024 164.448 1.310 0.666 o
3 1 1 49.538 49.606 0.301 7.408 o
3 1 2 38.316 38.286 0.249 11.388 o
3 1 3 23.847 23.901 0.221 21.277 o
3 1 4 0.950 0.888 0.055 660.525 o
3 1 5 4.020 3.793 0.123 132.834 o
3 1 6 2.007 1.834 0.117 178.025 o
3 1 7 1.233 1.230 0.144 135.749 o
3 1 8 1.369 1.489 0.210 66.543 o
3 2 1 83.550 82.912 0.485 2.903 o
3 2 2 225.669 228.545 1.125 0.458 o
3 2 3 3.711 3.867 0.099 177.268 o
3 2 4 0.633 0.608 0.054 766.073 o
3 2 5 1.041 1.033 0.073 435.362 o
3 2 6 13.664 13.762 0.283 25.530 o
3 2 7 1.986 1.549 0.156 111.569 o
3 2 8 0.113 0.184 0.200 77.158 o
3 3 0 246.281 246.227 4.936 0.101 o
3 3 2 21.707 21.585 0.279 19.288 o
3 3 4 7.179 6.936 0.186 60.114 o
3 3 6 0.731 0.526 0.126 181.163 o
3 3 8 2.651 3.533 1.018 2.982 o
4 0 0 675.450 663.814 6.488 0.035 o
4 0 1 2.946 2.786 0.083 245.684 o
4 0 2 20.840 20.309 0.232 23.678 o
4 0 3 0.932 0.900 0.075 430.054 o
4 0 4 33.878 33.388 0.426 8.825 o
4 0 5 0.305 0.575 0.158 120.755 o
4 0 6 0.499 0.247 0.247 50.442 o
4 0 7 0.099 0.132 0.198 78.874 o
4 1 1 0.232 0.209 0.029 2527.240 o
4 1 2 76.438 78.164 0.413 3.479 o
4 1 3 31.402 31.269 0.245 14.723 o
4 1 4 0.495 0.512 0.062 651.991 o
4 1 5 10.645 10.666 0.212 41.852 o
4 1 6 4.434 4.488 0.174 78.507 o
4 1 7 0.157 0.289 0.138 160.845 o
4 1 8 0.030 0.385 0.272 41.956 o
4 2 0 11.729 11.800 0.223 37.391 o
4 2 1 104.981 104.201 0.624 1.869 o
4 2 2 14.607 14.448 0.179 40.003 o
4 2 3 45.447 46.282 0.310 8.138 o
4 2 4 8.222 8.402 0.153 70.263 o
4 2 5 9.966 9.983 0.191 49.326 o
4 2 6 1.549 1.352 0.124 171.054 o
4 2 7 3.779 3.766 0.194 68.370 o
4 2 8 0.209 -0.058 0.283 38.556 o
4 3 1 11.721 11.667 0.182 46.781 o
4 3 2 1.535 1.445 0.072 389.804 o
4 3 3 41.681 42.268 0.334 8.689 o
4 3 4 0.004 -0.004 0.061 833.508 o
4 3 5 17.052 17.136 0.254 25.399 o
4 3 6 0.179 0.493 0.100 295.915 o
4 3 7 0.032 -0.072 0.124 202.325 o
4 4 0 111.529 112.645 1.411 0.905 o
4 4 2 4.182 4.085 0.180 75.832 o
4 4 4 8.099 8.121 0.248 37.964 o
4 4 6 0.340 0.530 0.155 126.107 o
5 0 1 8.289 8.173 0.227 42.958 o
5 0 2 111.532 109.641 1.072 1.210 o
5 0 3 8.021 8.331 0.287 30.272 o
5 0 4 0.147 0.035 0.110 250.888 o
5 0 5 2.304 2.367 0.204 67.232 o
5 0 6 11.719 11.582 0.423 14.612 o
5 0 7 0.438 0.058 0.194 80.986 o
5 1 0 15.346 14.662 0.276 24.927 o
5 1 1 9.220 9.087 0.171 58.710 o
5 1 2 5.643 5.468 0.140 96.919 o
5 1 3 6.453 6.342 0.147 85.161 o
5 1 4 31.338 31.883 0.406 9.794 o
5 1 5 1.164 1.030 0.100 257.609 o
5 1 6 1.755 1.696 0.138 139.483 o
5 1 7 0.524 0.601 0.160 116.259 o
5 2 1 99.749 99.423 1.000 1.437 o
5 2 2 0.041 0.055 0.062 782.746 o
5 2 3 8.268 8.158 0.167 64.265 o
5 2 4 0.010 0.040 0.078 511.033 o
5 2 5 4.228 3.992 0.165 86.299 o
5 2 6 0.003 0.027 0.114 237.984 o
5 2 7 3.381 3.231 0.205 63.867 o
5 3 0 0.442 0.413 0.149 135.358 o
5 3 1 22.097 21.638 0.479 9.879 o
5 3 2 3.719 3.571 0.123 137.137 o
5 3 3 16.233 16.127 0.262 25.478 o
5 3 4 5.538 5.897 0.163 78.862 o
5 3 5 2.945 3.151 0.140 121.102 o
5 3 6 0.822 0.793 0.117 204.946 o
5 3 7 1.396 1.010 0.214 64.660 o
5 4 1 4.909 4.974 0.217 53.747 o
5 4 2 30.453 30.915 0.389 10.489 o
5 4 3 1.632 1.548 0.113 198.721 o
5 4 4 0.116 0.187 0.093 349.829 o
5 4 5 0.483 0.235 0.109 246.744 o
5 4 6 3.979 4.038 0.198 65.603 o
5 4 7 0.273 -0.248 0.623 8.003 o
5 5 0 15.880 15.845 0.978 3.081 o
5 5 2 0.637 0.738 0.187 85.648 o
5 5 4 15.964 17.466 0.472 11.209 o
5 5 6 0.732 1.127 0.378 21.470 o
6 0 0 16.110 16.184 0.505 10.076 o
6 0 1 24.939 25.138 0.457 9.920 o
6 0 2 3.416 3.955 0.440 15.445 o
6 0 3 13.643 13.655 0.350 18.922 o
6 0 4 0.030 0.142 0.129 185.018 o
6 0 5 3.142 3.247 0.248 45.759 o
6 0 6 0.409 0.351 0.200 76.341 o
6 0 7 1.294 1.815 0.670 6.883 o
6 1 1 19.901 19.288 0.331 17.107 o
6 1 2 1.591 1.567 0.124 169.012 o
6 1 3 0.002 0.106 0.088 400.560 o
6 1 4 0.001 0.041 0.104 288.793 o
6 1 5 0.000 -0.078 0.129 187.046 o
6 1 6 0.200 0.340 0.127 187.067 o
6 2 0 16.527 16.475 0.395 14.705 o
6 2 1 0.836 0.899 0.139 148.327 o
6 2 2 2.710 2.429 0.151 111.785 o
6 2 3 0.520 0.443 0.097 303.435 o
6 2 4 19.550 20.336 0.378 14.441 o
6 2 5 0.171 0.356 0.160 119.638 o
6 2 6 0.833 1.067 0.151 127.328 o
6 2 7 0.094 -0.216 0.909 3.758 o
6 3 1 1.972 1.898 0.164 101.607 o
6 3 2 10.198 10.229 0.276 30.025 o
6 3 3 1.357 1.154 0.120 186.191 o
6 3 4 0.026 -0.054 0.110 255.156 o
6 3 5 0.798 0.756 0.142 144.668 o
6 3 6 1.336 1.296 0.165 105.042 o
6 4 0 3.499 4.898 1.050 2.797 o
6 4 1 6.011 5.989 0.315 27.577 o
6 4 2 1.347 1.503 0.157 113.983 o
6 4 3 3.497 3.569 0.183 76.122 o
6 4 4 0.205 0.272 0.152 131.807 o
6 4 5 1.144 1.119 0.155 119.158 o
6 4 6 0.216 0.041 0.324 29.422 o
6 5 1 9.236 10.116 0.537 9.922 o
6 5 2 0.507 0.229 0.165 111.019 o
6 5 3 0.528 0.629 0.146 138.557 o
6 5 4 0.021 0.060 0.151 136.173 o
6 5 5 0.330 0.405 0.178 95.865 o
6 6 2 0.454 0.700 0.445 15.580 o
6 6 4 2.356 2.009 0.336 26.538 o
7 0 1 10.440 10.079 0.365 19.284 o
7 0 2 0.568 0.403 0.163 113.243 o
7 0 3 19.120 18.742 0.568 7.954 o
7 0 4 0.009 -0.141 0.160 121.522 o
7 0 5 9.643 10.777 0.541 9.706 o
7 0 6 0.080 0.270 0.765 5.303 o
7 1 0 19.559 19.632 0.496 9.801 o
7 1 1 7.499 7.380 0.232 43.211 o
7 1 2 1.855 2.108 0.164 101.640 o
7 1 3 5.531 5.473 0.236 45.593 o
7 1 4 0.963 0.615 0.145 137.392 o
7 1 5 1.418 1.351 0.159 111.724 o
7 1 6 0.149 -0.424 0.428 16.947 o
7 2 1 0.316 0.139 0.129 181.075 o
7 2 2 25.823 25.972 0.510 8.373 o
7 2 3 1.933 2.275 0.184 82.115 o
7 2 4 0.117 0.188 0.140 156.312 o
7 2 5 0.997 0.691 0.139 149.408 o
7 2 6 3.730 1.270 0.835 4.417 o
7 3 0 27.365 27.963 0.775 4.294 o
7 3 1 1.173 1.102 0.196 76.512 o
7 3 2 1.475 1.204 0.214 64.137 o
7 3 3 0.883 0.795 0.152 126.040 o
7 3 4 3.311 3.714 0.254 43.597 o
7 3 5 0.230 -0.007 0.157 123.989 o
7 4 1 3.527 3.981 0.348 24.147 o
7 4 2 0.695 0.492 0.196 78.294 o
7 4 3 6.866 6.909 0.318 26.446 o
7 4 4 0.012 -0.094 0.177 99.271 o
7 4 5 3.777 4.501 0.644 7.338 o
7 5 0 1.516 1.243 0.498 12.383 o
7 5 1 4.597 4.509 0.559 9.644 o
7 5 2 0.427 0.307 0.239 53.926 o
7 5 3 3.730 4.572 0.342 24.757 o
7 5 4 0.019 -0.182 0.287 37.789 o
7 6 1 0.012 -0.447 0.602 8.579 o
7 6 2 3.245 3.012 0.427 16.453 o
7 6 3 0.658 0.020 0.479 13.491 o
8 0 0 9.872 9.872 0.643 7.061 o
8 0 1 1.282 1.702 0.311 31.291 o
8 0 2 0.747 0.955 0.240 52.630 o
8 0 3 1.010 0.656 0.272 41.203 o
8 0 4 0.465 -0.131 0.241 53.017 o
8 0 5 0.198 0.868 0.807 4.765 o
8 1 1 0.973 0.627 0.149 131.476 o
8 1 2 0.277 0.223 0.159 121.079 o
8 1 3 0.455 0.343 0.160 118.521 o
8 1 4 0.000 -0.044 0.172 105.340 o
8 1 5 0.144 -0.226 0.591 8.877 o
8 2 0 0.362 0.104 0.226 60.191 o
8 2 1 1.585 1.716 0.227 56.880 o
8 2 2 0.424 0.375 0.162 115.780 o
8 2 3 0.974 1.026 0.208 68.727 o
8 2 4 2.015 1.307 0.402 18.838 o
8 2 5 0.325 -0.519 0.582 9.152 o
8 3 1 0.000 0.281 0.214 67.819 o
8 3 2 0.354 0.255 0.216 65.671 o
8 3 3 1.224 0.681 0.229 57.027 o
8 3 4 0.012 0.152 0.456 14.953 o
8 4 0 3.006 2.483 0.649 7.285 o
8 4 1 0.322 0.278 0.238 54.229 o
8 4 2 0.279 0.058 0.249 49.674 o
8 4 3 0.269 0.381 0.544 10.491 o
8 5 1 1.090 0.711 0.629 7.825 o
8 5 2 0.829 1.060 0.648 7.372 o
9 0 1 1.145 0.895 0.302 33.419 o
9 0 2 8.012 8.071 0.503 11.376 o
9 0 3 0.006 0.225 0.297 35.079 o
9 1 0 2.365 2.417 0.361 23.013 o
9 1 1 1.260 1.182 0.229 57.024 o
9 1 2 0.184 0.095 0.215 66.652 o
9 1 3 0.968 0.960 0.281 38.406 o
9 2 1 6.288 6.100 0.365 21.023 o
9 2 2 0.418 0.393 0.299 34.561 o
9 2 3 1.013 0.905 0.416 17.743 o
9 3 1 1.973 1.760 0.469 13.903 o
;
loop_
_space_group_symop_id
_space_group_symop_operation_xyz
1 x,y,z
2 -y+1/2,x,z+1/2
3 y,-x+1/2,z+1/2
4 x+1/2,-y,-z
5 -x,y+1/2,-z
6 -x+1/2,-y+1/2,z
7 y+1/2,x+1/2,-z+1/2
8 -y,-x,-z+1/2
9 -x,-y,-z
10 y-1/2,-x,-z-1/2
11 -y,x-1/2,-z-1/2
12 -x-1/2,y,z
13 x,-y-1/2,z
14 x-1/2,y-1/2,-z
15 -y-1/2,-x-1/2,z-1/2
16 y,x,z-1/2
loop_
_atom_site_label
_atom_site_type_symbol
_atom_site_fract_x
_atom_site_fract_y
_atom_site_fract_z
_atom_site_U_iso_or_equiv
_atom_site_adp_type
_atom_site_occupancy
_atom_site_site_symmetry_order
_atom_site_refinement_flags_posn
_atom_site_refinement_flags_adp
_atom_site_refinement_flags_occupancy
O1 O 0.52976(7) 0.75 0.12893(8) 0.03641(15) Uani 1.000000 2 S T P
O2 O 0.25 0.75 -0.25 0.0383(2) Uani 1.000000 8 S T P
H1a H 0.4797(10) 0.6541(14) 0.1927(14) 0.039(3) Uiso 0.500000 1 . . .
H1b H 0.650(2) 0.75 0.1232(17) 0.044(4) Uiso 0.500000 2 S T P
H2 H 0.155(2) 0.75 -0.171(2) 0.043(3) Uiso 0.500000 2 S T P
H1c H 0.4794(17) 0.75 0.009(2) 0.037(3) Uiso 0.500000 2 S T P
loop_
_atom_site_aniso_label
_atom_site_aniso_U_11
_atom_site_aniso_U_22
_atom_site_aniso_U_33
_atom_site_aniso_U_12
_atom_site_aniso_U_13
_atom_site_aniso_U_23
O1 0.0290(2) 0.0406(3) 0.0396(2) -0.000000 0.00105(17) 0.000000
O2 0.0416(3) 0.0416(3) 0.0316(4) -0.000000 -0.000000 0.000000
loop_
_atom_type_symbol
_atom_type_scat_dispersion_real
_atom_type_scat_dispersion_imag
_atom_type_scat_Cromer_Mann_a1
_atom_type_scat_Cromer_Mann_a2
_atom_type_scat_Cromer_Mann_a3
_atom_type_scat_Cromer_Mann_a4
_atom_type_scat_Cromer_Mann_b1
_atom_type_scat_Cromer_Mann_b2
_atom_type_scat_Cromer_Mann_b3
_atom_type_scat_Cromer_Mann_b4
_atom_type_scat_Cromer_Mann_c
_atom_type_scat_source
_atom_type_scat_dispersion_source
H 0.00000 0.00000 0.49300 0.32291 0.14019 0.04081 10.51090 26.12570 3.14236
57.79970 0.0030380000826
'International Tables Volume C Table 6.1.1.4 (pp. 500-502)' custom
O 0.00580 0.00360 3.04850 2.28680 1.54630 0.86700 13.27710 5.70110 0.32390
32.90890 0.250800013542
'International Tables Volume C Table 6.1.1.4 (pp. 500-502)' custom
loop_
_diffrn_refln_index_h
_diffrn_refln_index_k
_diffrn_refln_index_l
_diffrn_refln_intensity_net
_diffrn_refln_intensity_u
_diffrn_refln_scale_group_code
0 0 1 14.5469 22.3442 7
0 0 -1 -3.57493 18.4307 10
0 0 -1 -4.44756 21.4305 12
0 0 1 24.6168 20.9741 15
0 0 -1 -0.44008 19.2922 5
0 0 1 -14.9075 22.3804 1
0 0 1 6.93642 19.9097 9
0 0 2 142291 2235.26 9
0 0 2 143013 2189.76 1
0 0 2 137518 2219.86 15
0 0 -2 137063 2274.65 12
0 0 2 135542 2146.69 7
0 0 -3 -150.484 174.326 5
0 0 -3 -1.24624 111.656 12
0 0 4 103170 2405.51 9
0 0 -4 105236 2534.01 12
0 0 -5 184.45 202.917 5
0 0 5 -33.1938 184.903 9
1 0 0 12.5509 17.087 13
-1 0 0 33.1323 26.4192 8
-1 0 0 -8.16681 12.6284 10
-1 0 0 -8.60813 15.1245 7
1 0 0 0.95075 13.5138 11
1 0 0 -12.8933 24.0729 4
-1 0 1 4856.06 205.574 9
-1 0 1 4859.63 202.727 1
0 1 -1 4789.08 258.587 6
-1 0 1 4535.41 203.863 15
-1 0 1 4449.88 222.257 8
0 -1 1 5023.14 270.77 9
0 1 -1 4612.85 257.202 3
1 0 -1 4588.09 225.354 4
-1 0 1 4812.21 270.321 7
1 0 -1 4486.83 226.152 12
0 -1 1 4682.42 263.515 15
1 0 -1 4932.66 234.895 5
0 1 -1 4801.54 196.059 11
0 1 -1 4942.43 202.995 13
0 -1 1 4630.4 261.423 1
0 1 -1 4576.31 248.99 2
0 -1 1 4467.37 247.335 16
0 -1 1 4616.63 204.203 7
1 0 -1 4577.29 263.411 11
1 0 1 5133.54 253.954 1
1 0 2 408535 5192.7 9
1 0 -2 411079 5134.07 12
-1 0 2 406765 4959.77 1
-1 0 -2 412656 5259.41 5
0 -1 2 412762 4860.99 7
1 0 2 423689 5048.38 4
0 1 -2 417582 5199.49 5
1 0 2 426275 5150.59 1
0 -1 2 411247 5102.96 1
-1 0 2 418037 5008.66 9
-1 0 2 414852 5208.95 7
1 0 -2 414325 5164.84 5
-1 0 -2 413917 5082.24 10
1 0 -2 431312 5169.05 11
0 1 -3 116646 2348.1 5
0 1 -3 112810 2009.44 10
0 1 -3 119672 2350.16 12
0 -1 3 116825 2083.46 7
0 -1 3 119390 2307.23 15
-1 0 3 117423 2228.56 9
-1 0 3 120166 2359.02 7
1 0 -3 116852 2341.29 12
1 0 3 116789 2366.63 9
1 0 -3 117519 2223.22 11
0 -1 3 122285 2317.98 1
-1 0 -3 114045 2420.81 5
0 1 -3 115472 2006.98 11
0 -1 4 1183.21 178.25 4
1 0 -4 1419.48 306.24 5
0 1 -4 694.297 209.091 5
1 0 -4 1175.47 288.529 12
-1 0 4 1021.06 236.578 9
-1 0 -4 1040.07 278.982 5
0 1 -4 1340.01 276.661 12
1 0 4 1026.68 239.262 9
0 -1 4 1156.8 271.03 15
-1 0 4 829.294 241.453 7
0 1 -4 1174.18 212.728 10
0 -1 4 518.525 198.089 9
0 -1 4 1281.01 248.953 7
0 -1 4 769.774 212.771 16
1 0 -4 1289.15 254.741 11
0 1 -4 1214.52 230.442 11
0 -1 4 1063.84 237.601 1
0 1 -5 24809.5 1286.11 12
-1 0 5 25042.6 1262.72 7
1 0 -5 25012.9 1347.35 5
0 -1 5 24087 1108.3 7
0 -1 5 25387.5 1218.19 1
-1 0 5 24477.6 1223.95 9
0 -1 5 23589 1224.22 9
1 0 -5 22651.1 1253.76 12
0 -1 5 24413.8 1237.54 15
0 1 -5 23440.7 1039.19 11
0 1 -5 25738.9 1306.38 5
0 1 -6 9766.51 738.689 11
0 1 -6 10409.3 775.48 13
0 -1 6 9148.55 850.966 9
0 1 -6 10443.2 949.911 5
0 1 -6 11465.9 999.765 12
0 -1 6 10102.5 815.628 7
0 1 -7 704.831 447.366 5
0 -1 7 -363.658 328.545 9
0 1 -7 -332.411 364.554 12
1 1 0 11008.1 408.768 13
1 -1 0 10653.1 356.965 1
-1 1 0 11733.7 376.635 2
1 -1 0 11903.4 440.103 4
-1 1 0 11319.9 343.351 3
-1 1 0 11607.4 419.213 8
1 1 0 12909.5 429.442 11
1 -1 0 12352.8 392.38 16
1 -1 0 11201.4 348.304 15
-1 -1 0 11299.2 391.899 7
1 1 -1 -49.5609 38.4356 13
-1 -1 1 -6.85877 33.6278 15
-1 -1 1 17.282 26.9876 16
-1 1 -1 28.2767 34.6422 12
-1 -1 1 9.13087 21.6761 8
1 -1 1 13.5625 38.8549 15
-1 -1 1 -33.493 33.9745 9
-1 1 -1 11.6219 25.315 6
-1 -1 1 -17.2254 44.8744 7
1 -1 1 0.96833 33.1564 1
1 1 -1 83.2196 48.4878 11
1 1 -1 8.24006 22.5253 2
1 1 -1 14.1021 33.954 3
-1 1 -1 102.382 44.2087 8
1 1 -1 12.1424 31.6902 6
-1 -1 1 -26.687 35.6088 1
1 -1 1 -20.1291 41.4398 9
1 -1 1 29.4795 38.8386 4
1 -1 1 -35.0293 36.3405 16
-1 -1 2 55907.7 1245.41 15
-1 -1 2 57361.5 1249.03 9
-1 1 -2 57506.1 1287.81 12
-1 1 -2 60176.9 1060.23 8
1 1 -2 60575.6 972.599 10
1 1 -2 60593.1 1285.18 11
1 -1 2 57695.8 1332.58 9
-1 -1 2 59290.8 836.752 8
-1 -1 2 56935.3 1124.94 16
1 -1 2 57174.2 1311.35 1
-1 1 -2 59575.2 1339.66 5
1 -1 2 60631.2 1194.76 4
-1 1 -2 58769.6 1225.38 14
1 -1 2 60132.5 1362.49 16
1 -1 2 57905.3 943.657 7
-1 1 -2 60422.5 1309.26 10
-1 -1 2 59757.6 1315.23 7
1 1 -2 62180.5 1309.85 13
1 -1 2 59446.1 1344.36 15
1 1 -2 58758.8 1354.75 12
1 1 -3 -10.4021 81.8152 13
-1 -1 3 91.9897 105.872 1
1 -1 3 -53.7926 116.441 15
-1 -1 3 -27.548 86.2892 16
-1 -1 3 -13.953 47.3354 8
1 1 -3 55.5882 106.275 11
1 1 -3 35.8635 67.0524 10
-1 -1 3 71.3057 131.947 7
-1 1 -3 29.7956 91.3009 12
1 -1 3 -134.201 107.956 9
1 -1 3 -60.8118 107.759 16
1 1 -3 18.5336 92.5216 5
-1 1 -3 279.051 128.107 10
-1 -1 3 49.131 89.0522 9
-1 1 -3 29.9657 91.8489 14
-1 1 -3 114.972 129.464 5
1 -1 3 49.4705 109.566 1
-1 -1 3 -107.752 104.072 15
1 -1 3 5.4304 66.5679 7
1 -1 3 -72.444 101.898 4
1 1 -3 -76.9763 122.397 12
-1 -1 4 37547.4 1224.3 16
-1 1 -4 38994.5 1426.35 12
1 1 -4 38126.8 1415.75 12
-1 -1 4 38316.1 1339.82 9
-1 1 -4 40142.5 1462.32 5
1 -1 4 38061.5 1418.94 15
1 -1 4 36927.6 1154.05 4
1 -1 4 39617.4 1403.2 16
-1 -1 4 39404.7 1370.11 15
1 1 -4 37616.8 1251.83 11
1 -1 4 37002.3 1338.61 1
1 1 -4 38596.7 1283.39 13
1 -1 4 38371.5 1134.21 7
-1 1 -4 38488.9 1264.16 10
-1 -1 4 35786.2 1281.98 7
-1 -1 4 38774 1318.56 1
1 -1 4 39192.3 1421.88 9
1 1 -4 38960.3 1420.6 5
1 1 -5 -177.153 197.721 13
-1 -1 5 264.073 257.442 15
1 1 -5 -352.217 264.715 5
-1 1 -5 161.715 206.785 12
1 1 -5 -478.88 302.058 12
-1 -1 5 2.11817 182.873 9
1 1 -5 63.3493 156.989 11
1 -1 5 -27.5817 147.505 4
1 -1 5 -133.301 204.51 9
1 -1 5 406.54 270.418 15
-1 -1 5 -372.062 247.292 1
-1 1 -5 -40.5003 162.033 10
1 -1 5 338.299 237.332 1
-1 1 -5 -197.429 253.487 5
1 -1 5 329.175 190.991 7
-1 -1 5 301.557 210.541 7
-1 -1 6 2720.11 501.702 7
1 -1 6 2602.3 514.222 9
1 1 -6 3154.25 477.124 13
1 1 -6 3245.27 529.105 5
-1 1 -6 2018.55 446.79 12
1 1 -6 2567.39 396.952 11
1 1 -6 2785.76 528.235 12
-1 1 -6 3415.5 601.245 5
-1 -1 6 2572.53 492.763 9
1 1 -7 -117.115 306.527 12
-1 1 -7 239.032 287.579 5
1 1 -7 101.032 236.87 13
1 -1 7 325.959 359.081 9
-1 -1 7 19.9443 308.411 9
1 1 -7 221.594 325.619 5
-1 -1 7 -84.2102 296.603 7
2 0 0 119437 1915.09 4
2 0 0 123389 1809.83 13
-2 0 0 118678 1906.11 8
2 0 0 118920 1813.78 11
-2 0 0 121238 1700.03 10
-2 0 0 120360 1781.88 7
0 2 -1 587883 6895.43 6
2 0 1 595077 6970.96 4
2 0 -1 604177 6918.11 11
-2 0 -1 603140 6824.38 10
2 0 -1 590989 6738.2 4
0 -2 2 40212.8 1159.29 15
-2 0 -2 42029.7 1139.22 10
0 -2 2 40571.7 825.577 4
0 2 -2 39740.5 1098.82 2
2 0 2 40534.4 1112.18 9
0 2 -2 39236.9 1143.1 3
2 0 -2 40510.9 1174.1 13
2 0 -2 40515.8 1036.58 12
0 2 -2 40137 902.733 13
-2 0 2 37773.3 1135.73 7
0 2 -2 41694.2 1142.51 6
-2 0 2 40726.1 913.261 9
0 -2 2 42592.6 1158.96 9
2 0 -2 39340.1 1152.36 11
2 0 -2 39595 1026.02 5
0 2 -2 42203.5 885.51 11
-2 0 2 39797.6 996.842 8
2 0 -2 37417.4 1011.05 4
0 -2 2 38936.8 909.373 7
0 -2 2 39956.2 1140.68 1
0 2 -2 38098.4 822.283 14
-2 0 -2 40623.2 1114.26 14
-2 0 -2 39384.4 1042.23 8
2 0 2 39268.7 1140.98 4
0 -2 2 40473.1 1117.61 16
0 -2 3 189483 2348.88 4
-2 0 3 174832 2886.28 9
2 0 -3 177773 3123.02 5
2 0 3 179864 3206.71 9
-2 0 3 188867 3309.35 7
0 -2 3 187158 3216.06 1
0 2 -3 177744 2708.74 13
-2 0 3 181333 2832.68 8
2 0 -3 184230 3131.93 12
0 2 -3 180219 3225.33 5
0 2 -3 187210 3258.45 12
0 -2 3 179347 3066.01 16
0 -2 3 182421 3179.57 9
2 0 4 6253.02 593.744 9
-2 0 -4 6607.78 567.465 10
-2 0 4 5801.07 502.912 9
-2 0 4 6128.77 597.885 7
2 0 -4 6050.05 546.859 11
2 0 -4 6626.15 587.211 5
2 0 -4 6397.06 585.257 12
0 -2 5 16666 1049.72 15
0 -2 5 18013.4 1028.97 16
0 -2 5 16984.1 1028.97 1
0 -2 5 18241.7 900.849 7
0 2 -5 16951.1 848.053 10
0 -2 5 17491 1062.01 9
0 2 -5 18231.9 871.052 13
0 2 -5 17452.9 861.124 11
0 2 -5 18510.2 1107.43 5
0 2 -5 19065.7 1136.87 12
0 2 -6 2279.21 393.751 10
0 2 -6 2306 489.435 12
0 -2 6 1151.84 383.331 15
0 2 -6 2049.26 463.732 5
2 0 -6 1601.26 383.734 13
2 0 -6 1909.07 450.476 12
-2 0 6 1724.23 451.198 7
0 -2 6 1648.76 403.87 1
-2 0 6 1575.77 407.345 9
0 -2 6 1584.72 404.882 9
0 -2 6 2514.34 472.35 16
0 2 -8 559.663 406.706 12
0 2 -8 254.748 367.798 5
0 -2 8 356.351 347.183 9
2 -1 0 5.90258 29.4972 9
2 1 0 -23.7012 54.0856 13
-1 2 0 -33.4828 72.6241 2
-2 1 0 2.17552 38.0722 2
2 -1 0 51.4269 60.1829 4
-2 -1 0 0.44591 37.1757 14
2 1 0 -2.10738 50.1257 11
2 -1 0 22.3295 30.7494 1
1 -2 0 13.4483 43.7431 16
2 1 0 5.02322 43.7619 4
-2 1 0 16.4947 24.9951 3
2 -1 0 10.3951 31.4159 15
2 -1 0 37.2366 36.5543 11
-2 1 0 -37.0222 43.9865 7
2 -1 0 53.1121 44.521 13
-2 -1 0 -3.03433 52.1082 8
-2 1 0 -14.953 55.4841 8
2 -1 0 26.3045 42.6094 16
-2 -1 0 53.0535 52.8825 7
-1 2 -1 480275 5798.48 2
-1 -2 1 479464 5725.27 15
2 1 -1 481712 5771.31 11
2 1 -1 472135 5284.8 3
-1 2 -1 463713 5494.24 8
-1 -2 1 478958 5779.71 1
-1 2 -1 480001 5722.97 3
-2 -1 -1 481655 5718.08 8
2 -1 1 475878 5816.86 4
-2 1 -1 482481 5714.95 8
2 1 1 464842 5861.48 4
2 -1 1 475230 5471.12 1
1 -2 1 461613 5765.23 15
-2 1 1 466171 5751.16 7
1 -2 1 454676 5737.69 1
2 -1 -1 478465 5883.29 4
2 -1 -1 463998 5685.6 11
-2 -1 -1 470878 5583.24 14
-2 1 -1 461292 5726.17 10
1 2 -1 481389 5775.26 6
-2 -1 1 480226 5783.92 7
2 1 -1 469170 5763.33 13
-2 -1 1 478421 5288.72 1
-2 1 1 475002 5839.61 8
2 -1 1 480495 5695.01 16
2 -1 2 80899.2 1754.95 16
-1 2 -2 82287.9 1630.84 6
1 -2 2 78391.8 1741.35 15
-2 1 -2 78856.6 1711.92 10
1 -2 2 80039.5 1723.52 1
-1 -2 2 76452.6 1584.27 7
-1 2 -2 77535.4 1109.8 13
-1 2 -2 74684.7 1699.6 3
2 -1 2 80076 1654.79 15
1 -2 2 78598.6 1744.41 16
-2 1 -2 78811.2 1594.13 5
1 -2 2 78691.9 1162.25 7
-1 -2 2 78235.1 1559.52 16
2 -1 2 75994.6 1660.8 4
-2 -1 2 80812.6 1359.6 8
-1 2 -2 78443.8 1725.08 2
-1 -2 2 82718.4 1684.11 9
-2 1 -2 78924.7 1605.56 12
-1 -2 2 77481.4 1667.45 1
-2 1 2 85148.1 1871.15 7
-2 1 -2 79734.4 1665.03 14
-2 -1 2 80458.3 1735.75 7
2 -1 -2 73860 1714.66 11
2 1 -2 80510.4 1248.57 4
-2 1 -2 78081.8 1523.8 8
-2 -1 2 79183.6 1456.85 1
1 2 -2 81187.4 1575.98 11
2 -1 2 81015 1637.78 1
1 2 -2 79045.3 1589.57 13
2 -1 2 80396.8 1663.01 9
-1 -2 2 78799.6 1680.92 15
1 -2 2 77906.4 1700.98 9
2 1 -2 78118.3 1479.03 3
-1 2 -2 78843.7 1329.09 8
1 2 -2 81038.5 1744.73 6
2 1 -2 80699.6 1739.63 13
2 1 -2 80243.4 1738.9 11
2 1 -2 78182.7 1240.86 2
-2 1 2 76820.4 1753.4 8
1 2 -2 79731.2 1687.46 3
1 -2 3 3345.51 367.871 16
1 2 -3 3282.09 324.529 13
2 1 -3 3108.28 337.046 5
-2 -1 3 2596.94 287.686 1
-1 -2 3 3070.05 345.933 15
-2 -1 3 3488.57 240.496 8
-1 -2 3 3539.69 331.739 16
1 2 -3 3119.79 361.573 5
-1 2 -3 3027.44 346.808 12
-1 2 -3 3005.01 370.59 5
1 2 -3 3065.77 313.835 2
-2 1 -3 3340.67 340.78 14
-2 -1 3 3718.9 349.748 15
1 2 -3 3127.36 372.798 6
2 1 -3 3342.97 372.783 13
-1 -2 3 3249.76 332.143 7
-2 1 -3 2875.44 337.795 12
-2 -1 3 3391.32 322.052 9
1 -2 3 3349.65 237.595 7
2 -1 3 3251.86 378.557 9
1 2 -3 3186.22 379.261 12
1 -2 3 3117.8 284.036 4
1 -2 3 3066.98 358.415 15
2 -1 -3 2493.55 321.942 11
-1 2 -3 2856.38 213.621 8
2 1 -3 3807.64 392.789 11
-1 2 -3 2699.63 276.425 14
2 1 -3 3280.77 359.929 12
1 2 -3 3127.75 259.535 10
2 -1 3 3009.13 356.556 1
-1 2 -3 3097.32 209.247 13
-1 2 -3 2973.71 216.488 11
2 -1 3 3154.19 373.52 16
2 -1 3 3434.48 235.48 7
-2 -1 3 2851.86 245.458 16
-2 1 -3 3382.42 356.494 10
-1 -2 3 3024.31 343.736 1
-2 1 -3 2952.04 280.683 8
1 2 -3 3087.81 314.622 11
-2 -1 3 3027.15 356.374 7
-1 2 -3 2726.66 322.546 10
-1 -2 3 2843.78 338.016 9
2 -1 3 3162.42 366.772 15
1 -2 3 3216.54 363.926 1
1 2 -3 2873.6 343.464 3
1 -2 3 3280.97 365.356 9
-2 1 -3 2543.21 314.518 5
-2 1 3 3296.95 414.9 7
2 -1 3 3306.13 339.235 4
2 -1 4 552.797 209.356 1
1 -2 4 224.385 142.355 4
1 2 -4 204.056 155.29 2
-1 2 -4 493.847 193.766 10
1 2 -4 90.3117 132.471 13
-2 1 -4 330.847 182.121 5
2 1 -4 657.971 234.608 11
2 -1 4 46.2756 132.174 4
-1 2 -4 488.524 218.387 12
-2 -1 4 439.964 178.91 9
1 -2 4 293.734 135.79 7
-1 -2 4 433.249 205.845 15
1 -2 4 213.633 190.51 15
-2 -1 4 280.751 113.045 8
-1 -2 4 238.706 171.962 9
-2 -1 4 248.787 185.417 1
2 1 -4 194.657 190.181 12
-2 1 -4 130.365 147.459 10
-1 2 -4 505.148 163.135 14
2 -1 4 319.804 192.83 15
1 -2 4 369.667 228.948 16
2 -1 4 53.4422 177.925 9
-1 2 -4 427.832 203.724 5
-2 -1 4 491.427 189.686 15
-1 -2 4 186.356 162.121 7
-2 -1 4 356.416 208.441 7
1 -2 4 428.296 166.845 9
1 2 -4 647.105 246.476 12
2 -1 4 386.364 222.622 16
-2 1 -4 286.629 185.912 14
-1 -2 4 327.977 195.105 1
2 1 -4 222.177 184.03 13
-1 2 -4 358.143 128.429 11
-1 -2 4 173.442 150.776 16
1 -2 4 488.032 221.3 1
-1 2 -4 339.862 117.62 13
-2 1 -4 329.913 195.536 12
2 -1 4 299.802 136.784 7
1 2 -4 138.256 122.317 10
1 2 -4 211.319 124.802 11
1 2 -4 337.888 197.417 5
2 1 -4 454.026 193.368 5
-2 -1 5 1630.72 343.908 7
2 -1 5 1471.4 330.345 4
1 -2 5 1240.55 357.818 15
2 1 -5 1909.01 398.114 5
2 1 -5 1554.15 364.908 12
-2 1 -5 1479.75 365.652 5
-2 1 -5 2095.43 398.765 10
-2 -1 5 1435.3 297.393 1
1 2 -5 1675.94 356.637 5
-1 2 -5 1535.26 362.967 5
1 -2 5 1925.38 413.155 9
1 2 -5 2013.1 342.499 11
-1 -2 5 2051.6 388.966 9
1 2 -5 2092.88 303.644 10
2 -1 5 1657.88 405.852 9
-2 -1 5 1775.31 324.878 15
-1 -2 5 2054.34 389.614 15
-2 -1 5 1363.75 326.873 9
1 2 -5 2054.14 329.269 13
2 -1 5 1555.15 390.488 1
-1 -2 5 1825.35 368.571 1
1 2 -5 1769.25 407.065 12
-1 -2 5 1495.19 318.136 7
2 1 -5 1820.52 359.591 11
2 1 -5 1748.38 346.789 13
-2 1 -5 2183.09 434.945 12
-1 -2 5 2110.8 361.513 16
1 2 -6 2739.97 541.752 12
1 -2 6 2504.26 482.059 16
-1 2 -6 3071.09 462.39 10
-2 -1 6 3381.62 520.68 7
2 1 -6 3139.63 554.984 5
2 -1 6 2520.84 487.454 9
1 2 -6 2797.56 417.47 11
-2 -1 6 2593.98 499.634 9
2 1 -6 2030.36 440.971 13
1 -2 6 2723.83 522.91 15
1 2 -6 3415.93 568.412 5
1 -2 6 2922.87 533.268 1
1 2 -6 3301.68 479.507 13
-1 2 -6 2563.23 485.168 12
-2 1 -6 2680.29 475.037 10
-2 1 -6 2569.65 526.037 5
1 -2 6 2329.97 496.203 9
2 1 -6 2673.87 507.649 12
-1 2 -6 2828.88 541.442 5
-1 -2 6 3096.15 505.037 1
2 1 -6 2751.01 454.701 11
-1 -2 6 2484.18 457.447 7
-1 -2 6 3046.79 526.341 9
-1 -2 6 3430.1 558.77 15
1 2 -7 3329.33 630.422 12
-1 -2 7 3508.49 623.98 9
1 -2 7 3992.26 687.499 1
-2 -1 7 3244.01 605.858 7
-1 2 -7 3221.04 622.865 12
1 -2 7 2485.15 561.074 9
-2 -1 7 3744.49 639.917 9
-1 2 -7 3115.76 633.574 5
1 2 -7 4166.41 674.857 5
-1 -2 7 3219.73 588.223 1
-1 2 -8 81.0847 370.16 5
1 2 -8 136.548 342.112 5
1 2 -8 589.221 400.472 12
-1 -2 8 389.339 366.384 9
1 -2 8 -287.135 388.711 9
2 2 0 378849 5058.01 13
2 -2 0 390813 4763.47 15
2 -2 0 387225 5236.6 4
-2 2 0 387491 5120.37 8
-2 -2 0 385771 4937.92 7
2 2 0 382630 5055.36 11
-2 2 0 379766 4879.48 2
2 -2 0 379987 4809.82 1
2 -2 0 388050 4927.73 16
-2 -2 1 18.863 97.694 15
2 2 -1 55.2288 80.4339 4
-2 2 -1 47.4978 49.1233 7
-2 2 -1 -52.0691 99.3561 2
2 -2 1 -84.4816 71.8361 1
2 -2 1 32.98 77.5793 9
2 -2 1 242.213 154.888 4
-2 2 1 192.433 174.583 8
-2 -2 1 -3.48893 92.7795 7
2 -2 1 3.71116 81.6928 16
2 2 -1 114.744 110.858 6
2 2 -1 17.213 92.0117 11
-2 2 -1 -2.7029 107.765 8
2 2 -1 -19.5231 93.8971 13
2 2 -1 -32.4905 69.8734 3
-2 2 -1 -58.6841 74.1498 3
2 -2 1 80.9622 100.221 15
-2 2 -1 3.36893 73.543 6
-2 -2 1 -38.0101 69.5916 1
-2 2 -2 21387.4 731.222 6
-2 2 -2 21803.1 788.582 12
2 2 -2 21247.5 840.243 11
2 2 -2 21884.1 709.004 2
2 -2 2 20334.1 832.186 15
-2 -2 2 20942.8 769.059 9
-2 2 -2 20804.6 744.991 8
-2 -2 2 20603 776.726 15
-2 -2 2 21249.5 567.188 8
2 -2 2 21577.6 839.446 9
-2 -2 2 21156.3 686.827 16
-2 2 -2 22732.1 853.336 5
-2 -2 2 21034 786.436 1
2 2 -2 20822.7 849.407 13
2 -2 2 20577.3 883.739 16
2 2 -2 21373.4 795.262 3
2 -2 2 20835.7 834.453 1
-2 2 -2 20757.3 835.987 3
2 2 -2 21112.3 852.85 6
2 -2 2 21242.8 831.967 4
-2 -2 2 21857.7 873.492 7
2 2 -2 21619 478.499 4
2 -2 3 -86.9808 129.58 4
-2 2 -3 -45.6988 84.5511 8
2 2 -3 284.187 167.595 11
-2 2 -3 14.0907 112.828 14
-2 2 -3 -30.8225 122.456 12
2 -2 3 -56.6337 152.751 1
-2 -2 3 185.648 152.632 7
-2 -2 3 119.608 100.211 9
2 2 -3 -0.28902 101.45 2
-2 -2 3 -117.199 95.4817 16
2 -2 3 23.8686 40.0142 7
2 2 -3 49.2762 64.2066 10
2 2 -3 -17.8483 147.9 6
2 2 -3 -59.2102 129.362 5
-2 2 -3 -15.9453 51.7373 11
2 -2 3 30.4831 135.535 16
-2 2 -3 -38.0552 146.454 10
-2 2 -3 -0.59626 115.276 5
-2 -2 3 -22.0224 120.348 15
2 2 -3 -98.4904 118.866 13
-2 -2 3 150.037 121.827 1
-2 -2 3 5.88582 48.4898 8
2 -2 3 -56.4344 144.055 9
2 2 -3 149.618 131.328 3
2 -2 3 -139.539 166.626 15
-2 -2 4 132633 2802.68 15
-2 2 -4 134246 2692.9 14
2 2 -4 135057 2830.29 13
2 2 -4 134083 2788.53 3
2 -2 4 130717 2993.46 16
2 -2 4 139817 3015 1
-2 2 -4 137755 2871.98 10
-2 -2 4 133873 2767.26 1
2 -2 4 138799 3031.7 15
-2 -2 4 133561 2859.74 7
2 -2 4 131512 2969.02 9
-2 -2 4 133177 2761.41 9
-2 2 -5 53.8672 184.846 5
-2 2 -5 332.293 261.872 12
2 -2 5 148.665 204.453 16
2 2 -5 230.91 212.215 5
-2 2 -5 91.4143 223.919 10
-2 -2 5 192.655 226.211 1
2 2 -5 212.781 214.807 11
2 2 -5 -22.9593 220.35 12
2 2 -5 -168.266 197.859 13
2 -2 5 -232.046 244.322 15
2 -2 5 194.884 229.355 1
-2 -2 5 -108.491 202.897 9
-2 -2 5 -354.85 247.695 7
-2 -2 5 15.7391 180.977 15
2 -2 5 -330.6 298.709 9
-2 -2 5 59.357 148.269 16
2 -2 5 94.7703 176.622 4
2 2 -5 22.2813 142.049 2
-2 -2 6 2982.06 493.866 7
2 2 -6 3504.52 509.6 13
-2 -2 6 3930.02 571.615 9
-2 2 -6 3861.07 550.81 10
2 2 -6 3555.91 542.675 11
-2 -2 6 3828.23 546.151 1
2 -2 6 3537.21 595.943 9
2 2 -6 3972.9 595.458 5
2 -2 6 4344.55 650.654 1
-2 -2 6 3153.95 559.542 15
2 -2 6 3467.71 609.463 16
-2 2 -6 3792.33 603.768 5
2 2 -6 4050.79 624.545 12
-2 2 -6 3539.79 599.355 12
2 -2 6 3906.08 616.725 15
-2 -2 7 -91.6276 269.174 7
-2 -2 7 -217.561 303.174 9
2 2 -7 -234.189 325.43 12
-2 2 -7 -257.895 388.141 12
-2 2 -7 -167.112 273.413 10
2 -2 7 -191.706 371.614 9
2 2 -7 425.712 373.786 13
2 2 -7 -367.04 313.183 11
2 2 -7 568.882 388.883 5
-2 2 -7 -478.322 362.514 5
-2 -2 7 485.043 361.756 1
2 2 -8 509.035 407.153 12
-2 2 -8 1091.71 554.693 5
2 2 -8 759.229 429.562 5
2 -2 8 162.997 389.399 9
-2 -2 8 1135.87 462.955 9
-3 0 0 176.54 122.564 8
-3 0 0 147.768 91.088 7
3 0 0 50.9879 105.391 4
3 0 0 141.586 89.8985 11
-3 0 0 31.2051 88.3036 10
3 0 0 206.942 114.12 13
-3 0 1 46076.7 861.591 10
0 3 -1 44578 1275.99 3
3 0 1 45339.5 1122.9 11
3 0 -1 48217.4 1227.53 4
-3 0 -1 46366.9 1231.2 14
-3 0 -1 46288 1174.06 10
3 0 -1 45851.8 1271.86 13
-3 0 -1 47694.8 1273.36 8
3 0 -1 46275.7 1252.18 11
3 0 1 46605.7 1086.47 13
3 0 1 47453.2 1320.29 4
-3 0 1 45255.8 1219.01 8
-3 0 -1 45641 1002.55 7
-3 0 1 47428.9 1249.53 7
3 0 1 45108.1 986.974 9
-3 0 2 15774.4 698.976 8
0 3 -2 16753 635.846 13
3 0 -2 15912 691.899 4
3 0 -2 15590.9 784.188 13
-3 0 -2 16405.3 760.739 14
0 -3 2 16420.2 809.791 15
3 0 -2 15405.3 614.984 5
3 0 2 16565.8 713.32 9
-3 0 -2 15969.4 747.904 10
3 0 2 15860.3 806.071 4
0 3 -2 16460.4 773.455 6
0 3 -2 15384.9 490.314 8
0 3 -2 16764.7 795.994 3
3 0 -2 16050.7 636.049 12
0 3 -2 17498.4 600.466 11
-3 0 -2 15828.1 738.732 8
3 0 -2 15770.9 777.607 11
0 -3 2 17404.8 803.164 9
0 3 -2 16093.7 769.762 2
-3 0 2 16128.1 490.131 9
0 -3 2 16259.4 801.857 1
-3 0 2 14915.5 768.083 7
0 -3 2 17216.6 642.191 7
0 -3 2 16546.9 791.765 16
3 0 -3 110605 2535.88 11
-3 0 3 121539 2099.96 9
3 0 -3 120375 2389.14 5
3 0 3 116292 2572.72 4
0 -3 3 117986 2569.38 1
-3 0 3 116401 2621.51 7
3 0 -3 120079 2615.02 13
0 -3 3 124033 2583.14 9
3 0 3 117510 2516.41 9
-3 0 -3 119620 2463.33 14
0 -3 3 118087 2508.02 16
-3 0 -3 115519 2320.27 8
0 -3 3 118259 2580.3 15
-3 0 -3 122153 2542.7 10
-3 0 3 114014 2233.1 8
3 0 -4 349.748 213.575 13
3 0 -4 162.404 160.944 12
0 -3 4 15.6911 313.526 7
0 3 -4 -342.363 241.643 12
3 0 4 413.668 244.044 9
-3 0 4 -63.3951 168.327 8
0 3 -4 56.5549 267.831 3
-3 0 4 148.914 114.042 9
0 3 -4 -21.7382 379.515 2
3 0 4 -169.511 187.923 4
0 3 -4 132.39 243.865 5
0 -3 4 -48.5622 277.218 15
0 3 -4 193.275 275.468 13
3 0 -4 -27.0298 170.546 5
0 3 -4 -244.818 147.816 14
0 -3 4 476.299 282.529 16
-3 0 -4 -18.8831 171.307 10
3 0 -4 -270.134 210.524 11
-3 0 4 160.174 185.528 7
0 -3 5 32380.4 1516.23 15
0 3 -5 34271.1 1570.56 5
0 -3 5 31176.4 1484.5 9
3 0 -5 33131.2 1532.05 12
0 3 -5 32096.5 1473.4 3
0 -3 5 32747.3 1214.04 7
0 3 -5 31433.3 1210.83 10
-3 0 5 34298.1 1400.97 9
0 3 -5 32984.7 1422.31 2
3 0 -5 32380.1 1479.69 13
0 -3 5 30714 1404.25 16
0 3 -5 34929.1 1595.81 12
3 0 -5 30368.5 1470.93 11
0 -3 5 32912.7 1500.09 1
-3 0 5 34515.8 1645.89 7
0 3 -5 33921.5 1502.99 6
0 3 -6 974.548 340.65 6
0 3 -6 1099.06 372.987 5
-3 0 6 732.757 313.871 9
0 3 -6 550.145 294.34 3
0 -3 6 828.83 347.751 16
0 -3 6 985.573 349.601 15
0 -3 6 441.045 262.405 1
3 0 -6 708.307 296.917 13
0 -3 6 373.409 323.054 9
0 3 -6 487.89 240.936 12
0 3 -6 1481.65 399.745 2
3 0 -6 492.753 311.478 11
-3 0 6 468.746 315.145 7
3 0 -6 1163.32 401.027 12
0 -3 7 1132.95 451.164 1
0 -3 7 468.4 355.367 15
0 3 -7 -413.635 406.234 2
0 3 -7 -85.1547 416.451 12
0 3 -7 -78.9504 301.136 6
0 -3 7 -88.9796 433.45 9
0 -3 7 -875.435 405.347 16
0 -3 8 -514.156 400.597 15
0 3 -8 412.585 427.569 6
0 3 -8 -287.04 433.01 12
0 -3 8 -628.934 468.874 9
0 -3 8 652.879 451.175 1
0 3 -8 -290.484 359.768 3
0 3 -8 1016.67 503.846 5
3 -1 0 91245.4 1695.46 13
-3 1 0 88438.6 1899.28 8
-3 -1 0 92113.8 1808.94 7
3 -1 0 94762.1 1991.22 4
-3 1 0 95137.9 1672.13 7
3 -1 0 91123.3 1586.37 16
3 -1 0 94480.6 1323.34 15
3 1 0 96339.4 1892.59 4
-3 1 0 93110.4 1588.25 2
3 1 0 97648.8 1915.92 11
1 -3 1 29593.6 1054.73 16
-1 3 -1 29461.7 964.455 6
3 -1 1 28494.2 697.688 13
3 -1 -1 26193 988.612 4
1 3 -1 29838.6 925.698 11
3 -1 1 29185.7 754.846 11
3 -1 -1 28223.8 655.668 16
3 -1 1 28174.5 909.293 16
-3 1 -1 29379.2 699.567 5
3 -1 -1 26966.2 921.38 11
-3 1 -1 27824.9 490.325 6
-3 1 -1 27123.5 935.006 10
1 -3 1 29152.1 1032.63 15
-3 1 -1 29257.1 997.393 8
1 -3 1 31134.2 1025.5 9
-3 1 -1 27627.2 650.406 7
3 -1 1 27762.7 1017.43 4
-1 3 -1 29345.9 1022.1 2
-1 -3 1 26129.1 980.925 1
3 -1 1 26767.9 751.663 9
1 -3 1 27198.3 1010 1
-1 -3 1 27620.2 986.733 15
3 -1 1 26711.4 741.443 1
-3 1 1 27704.9 1001.99 8
-3 -1 -1 28707.8 967.876 8
-1 3 -1 27525.2 983.084 3
3 -1 -1 28075.5 969.749 13
-3 1 1 27443.8 936.925 7
-1 3 -1 27578.1 923.634 8
3 1 1 27302.7 1028.81 4
-3 -1 -1 29227.4 924.505 14
-1 -3 1 29445.3 919.56 7
1 3 -1 28622 983.397 3
-1 3 -2 21671.3 696.176 8
1 -3 2 20342.8 918.685 1
-3 1 -2 22903 930.471 14
-3 1 2 22287.4 962.559 7
3 1 -2 22358.6 962.205 13
-3 1 -2 21180.3 854.432 8
-3 1 2 22199 927.466 8
1 -3 2 21940.1 953.875 16
-1 3 -2 21786.6 941.695 2
3 -1 2 21125.9 809.268 9
1 -3 2 21014.2 835.848 4
3 1 2 20479.2 949.321 4
-3 -1 2 21292.3 931.889 7
3 1 -2 22760 728.466 4
-3 -1 2 21468.6 645.995 9
3 1 -2 21563.7 825.802 6
-1 3 -2 22563.8 945.056 3
-3 1 -2 22588.9 916.849 10
3 -1 -2 18927.1 899.381 4
3 1 -2 21758.4 673.856 3
1 -3 2 22178.5 932.88 9
3 1 -2 21439.8 744.169 5
3 -1 2 22392.9 921.577 16
3 -1 -2 22622.8 946.659 11
-1 3 -2 22187.2 874.261 6
-3 -1 2 21040.5 759.26 8
3 1 -2 22825.3 957.858 11
3 -1 2 21334.5 827.381 15
3 -1 2 20140.4 904.476 4
3 -1 2 21321.9 790.067 1
-3 -1 2 20517 646.051 1
1 -3 2 23179.6 963.961 15
-3 -1 2 22798.6 686.384 15
-3 -1 -2 22338.8 880.209 14
-3 1 -2 23070.4 810.68 5
-1 3 -3 13167.4 746.398 6
-3 -1 3 12864.7 608.868 9
1 3 -3 13314.1 680.363 13
1 -3 3 13506.7 637.86 4
3 1 -3 12484.8 780.584 11
-3 1 3 13303 769.235 8
-3 1 -3 13501.6 755.704 14
1 3 -3 14076.4 677.166 11
-3 1 3 13766.1 858.234 7
-1 -3 3 13394.4 697.223 7
3 1 -3 13337 741.149 12
-1 3 -3 14075.7 449.644 11
3 1 -3 13744.3 710.201 5
1 3 -3 13950.3 806.09 6
1 -3 3 13073.8 786.762 1
3 -1 3 13423.7 791.405 4
-1 3 -3 13270 788.07 12
-1 -3 3 12944.5 769.734 1
-1 -3 3 14524 796.954 9
3 -1 3 12293.7 723.013 9
1 3 -3 14402.2 752.972 2
-3 -1 3 13527.9 598.45 8
3 1 -3 13766.2 458.823 2
1 3 -3 14088.5 796.136 3
3 -1 3 14177.4 831.38 16
-1 -3 3 13315 732.876 16
3 -1 3 14711.1 781.758 15
-3 -1 3 13243.2 798.6 7
-1 -3 3 12442.5 764.414 15
3 -1 -3 14100.6 826.558 11
-3 -1 3 13963.5 632.001 1
1 -3 4 618.361 272.504 16
3 -1 4 185.927 165.741 15
-1 -3 4 326.096 173.038 16
-1 3 -4 459.603 238.39 5
1 -3 4 480.401 167.797 4
3 1 -4 634.996 223.847 12
-3 -1 4 360.973 224.79 7
-1 3 -4 441.824 227.928 2
-1 -3 4 400.415 203.506 1
-1 -3 4 648.992 254.47 15
1 3 -4 564.256 183.052 13
-3 -1 4 548.953 215.759 1
1 3 -4 647.456 232.494 2
1 -3 4 424.373 206.96 1
3 -1 4 522.586 215.624 1
-3 1 4 283.72 222.79 7
3 -1 -4 402.213 212.355 11
-3 1 -4 429.595 206.824 5
-1 3 -4 350.667 201.828 12
3 1 -4 956.753 300.831 13
1 3 -4 329.75 160.554 11
1 3 -4 752.494 289.68 12
-1 3 -4 801.888 254.69 3
1 3 -4 666.034 285.937 6
1 -3 4 512.69 266.859 15
3 -1 4 693.407 266.845 4
1 3 -4 751.226 201.612 10
-1 3 -4 785.39 257.36 10
-3 -1 4 486.96 178.439 15
-3 1 -4 463.233 208.654 14
1 3 -4 728.431 244.94 5
3 1 -4 421.147 239.437 11
-1 -3 4 313.742 167.693 9
-3 -1 4 379.991 169.566 9
3 1 -4 523.012 209.982 5
3 -1 4 521.538 245.713 9
1 3 -4 575.228 214.053 3
-3 -1 4 739.146 176.96 8
-3 1 -4 590.737 226.613 10
3 -1 4 340.997 251.381 16
-1 -3 4 481.039 187.977 7
-1 3 -4 355.237 133.908 14
1 -3 4 245.759 202.305 9
-1 3 -4 603.837 227.704 6
1 -3 5 1431.67 348.225 9
-3 1 -5 1474.78 356.931 5
-1 3 -5 2359.67 438.328 5
1 3 -5 2758.3 371.136 13
-1 -3 5 2265.53 373.095 7
-3 -1 5 2161.28 427.579 7
1 3 -5 1782.55 306.116 11
3 1 -5 2080.21 401.827 12
-1 -3 5 2315.52 378.322 16
3 1 -5 2127.08 403.464 13
1 3 -5 1818.21 407.277 12
1 -3 5 2476.67 465.293 1
-3 -1 5 2449.7 391.036 9
3 1 -5 1648.27 395.782 11
1 3 -5 1794.4 379.484 6
1 3 -5 2309.93 413.125 3
-1 3 -5 2510.03 397.003 10
1 3 -5 2418.01 459.871 5
1 -3 5 1528.79 357.559 16
-1 -3 5 2046.84 377.199 9
3 -1 5 1685.45 418.697 9
3 1 -5 2056.95 400.98 5
-1 -3 5 2260.81 434.955 15
-1 3 -5 2155.53 416.829 2
-1 3 -5 2243.8 386.396 6
-1 3 -5 2316.18 411.887 3
1 3 -5 1979.36 334.582 2
-1 3 -5 1998.79 414.456 12
-1 -3 5 2459.57 467.022 1
-3 1 -5 2551.21 442.277 10
3 -1 5 2013.38 409.319 4
1 -3 5 2902.94 502.901 15
1 -3 6 673.035 320.799 9
-1 -3 6 1208.96 396.381 9
1 3 -6 1728.74 442.31 12
-1 3 -6 746.731 304.587 6
1 -3 6 1047.47 351.397 16
3 1 -6 539.841 281.936 11
-1 3 -6 1453.53 381.394 10
3 1 -6 673.537 338.989 12
-1 3 -6 1457.23 385.185 12
-1 3 -6 556.178 320.225 5
1 3 -6 894.544 369.526 3
-3 1 -6 723.76 302.456 10
1 3 -6 1431.64 353.403 2
1 -3 6 1463.31 432.265 15
1 3 -6 1094.08 337.929 5
-3 -1 6 905.775 310.17 9
1 3 -6 1245.53 400.194 6
3 -1 6 725.121 357.899 9
1 -3 6 1218.46 430.225 1
3 1 -6 575.473 310.019 5
-1 -3 6 1417.97 412.797 1
3 1 -6 996.367 350.679 13
3 -1 6 899.979 361.523 4
-3 -1 6 1381.2 343.592 7
-1 -3 6 1042.63 366.959 15
-1 -3 6 1113.62 338.905 16
-1 -3 6 1005.66 280.077 7
-1 -3 7 693.087 328.18 9
-1 3 -7 408.27 334.942 12
1 3 -7 645.546 411.8 12
-3 -1 7 1147.41 478.964 7
3 1 -7 725.521 397.703 12
-1 -3 7 500.019 366.601 1
1 -3 7 473.389 295.796 1
3 1 -7 633.871 360.642 11
-1 -3 7 495.231 382.462 15
1 3 -7 694.952 359.78 3
1 3 -7 576.154 383.792 6
-1 3 -7 348.53 306.157 10
-1 3 -7 628.242 388.168 6
3 1 -7 830.682 389.91 5
1 -3 7 1056.99 418.557 9
-3 -1 7 916.473 360.848 9
-1 3 -7 732.077 424.704 5
3 1 -7 624.03 347.423 13
1 -3 7 686.301 364.898 16
1 3 -7 847.397 442.746 5
1 -3 7 1632.83 538.983 15
1 -3 8 818.812 494.859 1
1 3 -8 1170.42 565.989 12
-1 3 -8 710.89 500.05 12
-1 -3 8 1018.91 459.245 1
-1 3 -8 712.131 449.838 2
-1 3 -8 671.539 526.251 6
1 -3 8 1211.43 532.905 9
1 3 -8 762.522 432.086 3
-3 -1 8 693.148 393.151 7
-1 -3 8 1925.07 589.751 9
1 3 -8 421.532 408.296 5
-1 3 -8 1167.14 519.134 5
-1 -3 8 725.745 443.329 15
3 1 -8 658.914 397.13 13
1 3 -8 480.472 397.59 6
-3 -2 0 13.2497 83.5028 8
3 2 0 12.2805 115.835 13
3 2 0 241.77 114.592 4
2 -3 0 -32.3174 98.244 16
-2 3 0 -179.094 128.025 2
-3 -2 0 60.4747 88.6931 7
-2 3 0 135.867 127.17 8
2 -3 0 -180.397 156.981 4
3 2 0 180.293 115.153 11
-3 2 1 49028.4 1352.15 7
2 3 -1 50399.7 1385.23 11
2 3 -1 48880 1416.04 13
2 3 -1 47326.5 1429.87 6
3 -2 1 47241.7 1440.7 4
3 2 -1 47139.4 1279.75 6
-3 2 1 46326.3 1466.35 8
-3 2 -1 47950.1 957.365 12
-2 -3 1 45908.9 1310.12 15
2 -3 1 49128.5 1370.52 15
3 -2 1 46371.7 1172.62 15
2 -3 1 45436.7 1351.66 1
-2 3 -1 46505.2 1367.58 2
3 -2 1 47732.7 907.724 13
-3 2 -1 47239.4 1308.04 2
-2 3 -1 47374.7 1325.66 8
-2 -3 1 51612.8 1383.47 7
3 -2 1 47617.4 887.559 11
-3 2 -1 42444.7 1116.74 3
-3 -2 1 44144.2 1143.2 1
3 -2 -1 48772.4 1325.17 11
2 -3 1 50161.7 1348.9 9
2 -3 1 47674.9 1437.66 4
-2 -3 1 43819.8 1308.1 1
3 2 -1 49179 1407.62 11
-3 2 -1 47909.3 1370.5 8
-3 -2 1 44648.7 1171.14 8
3 -2 1 44890.8 1140.75 1
3 -2 1 46285.5 1136.43 9
3 2 -1 49709.5 1208.01 4
-2 3 -1 45151.2 1293.01 3
-3 -2 1 48637.8 1398.49 7
3 -2 -1 44263.4 1475.99 4
2 -3 1 45698 1384.06 16
3 -2 1 46895 1318.07 16
2 -3 2 121757 2458.97 4
2 -3 2 126488 2666.44 16
-3 2 -2 129325 2636.87 10
-3 2 -2 126020 2343.12 5
-3 2 -2 131628 2067.83 6
3 2 -2 133098 2526.59 6
3 2 -2 133788 2632.1 11
3 -2 -2 133148 2698.83 11
-3 -2 2 130797 2640.97 7
-3 2 2 128826 2804.77 8
3 -2 2 134422 2670.91 4
2 -3 2 134712 2589.63 9
2 -3 2 130038 2599.84 15
-2 -3 2 141991 2578.86 9
3 -2 2 132676 2638.97 16
3 2 -2 127915 1986.27 4
-3 -2 2 130322 2184.16 8
-2 3 -2 126471 2295.26 8
-3 2 -2 131309 2232.53 12
-2 3 -2 123744 2603.47 2
-3 2 2 125661 2679.75 7
3 -2 2 128400 2436.44 15
-2 3 -2 129062 2555.48 3
3 -2 2 128026 2395.43 1
-2 -3 2 127819 2355.94 16
-2 3 -3 2343.93 369.68 2
2 3 -3 2053.87 340.954 6
2 3 -3 2727.28 329.652 2
-2 -3 3 2507.6 356.103 7
-2 3 -3 2452.51 356.028 12
3 -2 3 2019.24 304.886 1
3 -2 3 2287.35 369.227 16
-2 3 -3 2100.52 348.611 3
2 3 -3 2819.45 365.469 13
-3 2 -3 2105.16 307.759 5
2 -3 3 2460.73 372.684 9
2 3 -3 1830.94 301.613 11
-3 2 -3 2403.88 333.688 12
-2 -3 3 1962.63 317.122 1
2 -3 3 2429.73 381.941 15
-2 3 -3 1943.78 330.218 10
-2 3 -3 2512.83 356.706 5
-3 2 -3 2000.83 261.228 6
2 3 -3 2007.4 318.85 3
3 -2 3 1644.34 291.328 9
-2 -3 3 1857.4 310.264 15
2 -3 3 2037.11 336.271 1
-3 2 -3 2072.71 306.127 8
-2 3 -3 1890.21 228.157 8
2 -3 3 2670.98 334.433 4
3 -2 3 2261.16 352.797 4
-2 -3 3 1759.91 260.671 16
2 -3 3 1910.62 345.757 16
3 -2 3 2109.78 335.472 15
-3 2 -3 2155.02 335.569 14
-2 -3 3 2465.4 346.547 9
-3 2 -3 2527.48 366.924 10
-2 3 -3 2361.56 306.525 6
2 3 -4 183.445 146.753 11
-3 2 -4 613.415 241.465 14
-2 3 -4 666.477 236.399 14
-3 -2 4 486.726 221.554 1
-2 3 -4 382.811 227.223 5
-2 -3 4 266.829 203.43 7
2 -3 4 482 260.867 16
-3 -2 4 563.272 217.137 15
2 3 -4 543.105 218.322 13
3 -2 4 553.503 243.377 1
3 2 -4 153.859 248.723 13
3 -2 4 276.697 186.04 15
-2 -3 4 366.71 218.108 15
-3 -2 4 585.901 266.384 7
-3 2 -4 237.869 167.945 12
-2 3 -4 61.2209 199.215 10
3 2 -4 310.981 183.088 3
2 3 -4 322.87 170.885 2
2 -3 4 216.081 176.519 15
3 2 -4 534.073 246.65 11
-2 -3 4 498.385 203.294 1
3 -2 4 176.39 177.703 4
2 3 -4 956.959 312.477 6
-2 3 -4 343.107 212.677 6
-2 -3 4 277.834 169.305 16
3 2 -4 506.209 237.869 6
-3 2 -4 243.23 187.382 10
2 -3 4 541.011 257.742 1
2 3 -4 335.827 175.538 5
-2 3 -4 -113.595 202.456 3
2 -3 4 329.143 183.238 4
3 2 -4 237.82 171.592 5
2 -3 4 179.565 200.434 9
-3 2 -4 340.226 202.641 5
2 3 -4 379.684 193.865 3
3 -2 4 386.808 219.506 9
3 2 -4 383.937 218.893 12
2 3 -4 508.483 246.885 12
-3 -2 4 456.858 192.759 9
-3 2 -4 452.263 196.622 8
-2 3 -4 82.4408 191.542 2
-2 3 -4 427.125 246.626 12
-2 -3 4 -7.55428 204.088 9
3 -2 4 191.028 304.698 16
3 2 -5 451.255 251.587 11
3 -2 5 695.976 257.608 4
-2 3 -5 490.417 205.11 14
-3 2 -5 443.145 235.369 12
-2 3 -5 1182.02 359.942 5
-2 3 -5 487.16 243.385 3
3 2 -5 484.258 257.119 13
3 2 -5 558.167 236.667 3
-2 -3 5 728.262 254.68 16
-3 -2 5 930.869 338.951 7
2 3 -5 238.453 160.684 2
-2 3 -5 324.411 266.615 6
-2 3 -5 622.641 263.801 12
2 -3 5 740.859 303.423 9
2 3 -5 565.297 273.302 3
3 -2 5 734.586 340.785 16
2 3 -5 674.397 302.634 6
3 -2 5 940.447 338.964 15
-2 3 -5 646.664 249.225 10
2 -3 5 491.804 295.807 15
-3 -2 5 263.141 219.966 1
-3 2 -5 775.695 271.187 14
2 3 -5 785.603 309.404 12
-3 -2 5 553.778 236.171 15
3 2 -5 364.633 236.205 12
2 3 -5 389.263 210.218 13
2 3 -5 588.097 274.571 5
-2 -3 5 335.684 218.264 1
-2 -3 5 536.792 260.469 9
-3 -2 5 590.488 254.736 9
3 2 -5 831.673 275.793 5
2 -3 5 759.95 318.953 1
-3 2 -5 228.701 240.348 5
-2 -3 5 1254.8 343.092 7
3 -2 5 925.121 322.979 9
3 -2 5 455.149 263.529 1
-2 -3 5 1143.32 326.07 15
2 -3 5 244.028 242.516 16
2 3 -5 511.127 240.717 11
3 2 -6 7304.8 789.422 13
2 -3 6 7452.7 840.885 9
3 -2 6 8555.11 917.824 15
-3 -2 6 8419.2 791.935 1
-3 2 -6 7146.35 808.446 5
2 3 -6 8129.88 875.664 12
-3 2 -6 7736.29 860.802 12
-2 -3 6 8266.84 824.447 15
3 2 -6 7753.98 757.826 3
3 2 -6 6665.45 742.572 11
2 3 -6 8082.02 843.466 5
3 2 -6 7625.5 822.035 12
-3 2 -6 8408.27 802.456 10
-2 3 -6 8361.3 785.84 10
-2 3 -6 8208.21 859.755 5
-2 3 -6 7229.98 773.626 6
-2 3 -6 8650.38 872.333 12
3 -2 6 6309.08 768.521 1
-3 -2 6 7984.34 788.41 15
-3 -2 6 8976.46 824.337 9
-3 -2 6 8090.27 841.141 7
3 2 -6 6563.47 743.66 5
2 -3 6 8310.5 892.96 16
2 -3 6 8144.75 885.895 15
2 -3 6 6968.55 834.497 1
3 -2 6 7583.63 856.919 9
-2 3 -7 299.648 434.461 12
-2 -3 7 696.975 369.45 1
-3 2 -7 1001.03 442.064 10
2 3 -7 1664.1 505.119 3
3 2 -7 1223.9 465.22 12
-3 -2 7 805.463 405.979 7
2 3 -7 1243.36 495.714 12
2 -3 7 952.847 399.984 16
3 2 -7 737.579 380.648 11
-2 3 -7 1279.15 351.583 10
2 -3 7 288.175 338.594 1
2 3 -7 508.165 367.733 6
3 2 -7 998.02 400.31 13
-2 -3 7 1226.27 438.892 9
-3 -2 7 1194.27 418.437 9
2 -3 7 -293.4 515.564 9
2 3 -7 1304.19 455.878 5
3 -2 7 1280.03 464.994 9
3 2 -7 1055.33 380.61 5
-3 2 -7 667.569 430.452 5
2 -3 7 -2.32793 403.865 15
-2 -3 7 1383.59 484.48 15
-2 -3 8 612.701 428.294 1
-3 -2 8 -296.919 471.447 7
3 2 -8 158.248 387.77 12
-2 3 -8 -151.021 379.203 12
-2 3 -8 561.643 388.096 10
3 2 -8 154.897 350.46 11
2 3 -8 394.577 390.428 3
-2 3 -8 119.913 374.355 6
3 2 -8 -268.611 365.762 5
-2 -3 8 311.22 429.788 9
2 3 -8 -61.0675 367.842 5
-2 3 -8 -303.488 444.86 5
3 -3 0 133354 2960.1 4
3 -3 0 143402 2682.05 16
-3 3 0 141807 2881.65 8
-3 -3 1 28.4631 147.529 7
-3 -3 1 155.277 128.987 1
3 3 -1 -120.491 127.406 11
3 3 -1 -72.1058 161.372 13
-3 3 -1 55.7557 126.33 2
3 3 -1 -35.8022 138.492 6
3 -3 -1 -0.87093 173.882 4
3 -3 1 4.03341 56.0764 11
-3 3 -1 -19.7694 129.342 8
3 -3 1 195.819 195.78 4
3 -3 1 148.753 138.971 9
-3 3 1 -26.0564 161.06 8
-3 3 -1 6.16908 105.467 3
-3 3 -1 73.8475 72.7043 7
3 -3 1 -28.596 122.84 16
3 -3 1 15.7627 117.45 15
3 -3 1 -2.83424 112.875 1
-3 -3 1 -13.1467 108.625 15
-3 3 -2 12262.3 604.219 6
3 3 -2 12182.7 516.721 4
3 -3 2 11761.8 769.186 16
3 3 -2 13139.6 789.165 11
-3 -3 2 12089.7 612.556 16
-3 3 -2 12583 646.344 12
-3 3 -2 12456.9 717.273 3
3 -3 2 11416.3 692.588 1
-3 -3 2 12206.4 760.976 7
3 3 -2 12298.6 750.467 6
3 3 -2 12527.8 676.718 3
3 -3 2 12159.1 705.283 9
-3 -3 2 11272 665.106 1
-3 3 -2 12268.3 703.066 8
3 -3 2 13724.4 821.678 4
3 -3 2 12194.4 721.714 15
3 3 -2 13746.5 812.904 13
-3 -3 2 11325.9 659.093 15
-3 3 -2 12048.9 757.831 2
3 3 -3 -258.145 188.792 13
3 3 -3 -56.6096 207.373 6
3 3 -3 299.805 210.542 11
-3 3 -3 -53.372 236.488 2
-3 -3 3 -201.067 149.647 16
-3 3 -3 35.9419 126.593 6
-3 3 -3 126.208 205.328 10
-3 3 -3 49.6486 164.514 3
-3 3 -3 -105.084 145.071 5
-3 -3 3 89.4466 162.584 9
-3 3 -3 -150.381 178.279 12
3 3 -3 -155.024 168.761 3
3 -3 3 459.537 233.178 9
3 -3 3 15.3915 150.968 1
-3 3 -3 124.067 139.532 8
3 -3 3 -78.085 165.456 15
3 -3 3 210.875 178.778 4
-3 -3 3 -205.94 178.91 15
-3 -3 3 250.192 184.56 7
3 -3 3 -203.668 221.215 16
-3 -3 3 -52.4917 184.318 1
3 -3 4 3754.02 551.148 16
3 -3 4 4600.3 507.663 4
-3 -3 4 3802.82 497.049 7
3 3 -4 4013.51 509.605 13
3 3 -4 3731.56 490.454 11
3 -3 4 3604.27 495.994 1
-3 3 -4 3921.1 487.62 14
3 3 -4 3981.94 530.758 6
-3 3 -4 4099.25 452.447 6
-3 3 -4 3882.38 491.444 3
-3 3 -4 3826.55 503.963 10
-3 3 -4 4280.94 536.24 5
3 3 -4 3656.5 499.674 5
3 3 -4 4012.65 482.86 3
-3 -3 4 4021.28 467.466 9
3 -3 4 4315.23 520.135 9
-3 3 -4 3922.82 477.507 12
3 3 -4 3852.6 523.255 12
-3 -3 4 3468.51 447.722 15
-3 -3 4 3668.6 451.699 1
3 -3 4 4281.17 537.303 15
-3 3 -4 3907.39 521.179 2
3 -3 5 248.138 281.518 9
3 -3 5 148.688 230.277 15
3 -3 5 269.835 299.098 16
-3 -3 5 -205.19 234.903 1
-3 3 -5 -285.803 247.969 12
3 3 -5 139.322 240.693 13
3 3 -5 -369.962 307.069 11
3 3 -5 305.732 242.567 6
-3 3 -5 70.8261 185.948 6
-3 3 -5 3.5501 243.707 10
-3 -3 5 533.224 278.684 15
3 3 -5 -121.508 200.439 3
3 3 -5 159.449 240.018 5
-3 3 -5 565.855 314.16 3
-3 3 -5 169.607 266.603 5
-3 3 -5 -329.262 291.605 14
3 -3 5 -109.742 300.815 1
-3 -3 5 -30.9629 210.219 9
3 3 -5 -136.062 277.289 12
3 3 -6 246.692 338.338 13
-3 -3 6 509.452 342.061 7
-3 3 -6 572.257 356.178 12
-3 -3 6 408.154 316.464 9
3 3 -6 571.781 379.955 6
-3 3 -6 113.712 267.721 6
3 3 -6 554.187 354.247 12
3 3 -6 513.686 295.618 3
-3 3 -6 327.454 324.117 10
3 3 -6 176.122 251.518 5
3 -3 6 -171.978 367.328 9
-3 3 -6 873.019 370.534 5
3 -3 6 -188.849 376.09 1
-3 3 -6 254.703 232.314 14
-3 -3 6 -17.1784 272.387 1
3 -3 6 109.891 312.736 15
3 -3 6 528.56 375.53 16
-3 -3 6 230.562 287.297 15
3 3 -6 287.307 321.75 11
3 -3 7 652.253 379.656 1
3 3 -7 338.221 361.185 12
3 3 -7 271.347 329.043 13
-3 3 -7 -16.4426 332.226 12
-3 3 -7 262.537 282.807 6
3 3 -7 71.9218 289.851 3
-3 -3 7 357.861 349.118 1
-3 -3 7 43.9627 296.408 9
3 -3 7 -810.668 436.681 9
3 3 -7 575.6 403.603 5
-3 3 -7 -99.2439 342.675 5
-3 -3 7 252.416 354.897 7
3 -3 7 449.115 385.607 16
-3 -3 7 238.952 289.098 15
3 -3 7 259.743 364.301 15
3 3 -7 -29.4221 277.632 11
-3 3 -7 -130.678 339.134 10
3 3 -7 -170.844 308.313 6
-3 3 -8 2008.39 578.386 10
-4 0 0 378582 5357.65 8
4 0 0 376147 5083.89 11
4 0 -1 1530.25 260.125 13
-4 0 -1 1911.8 279.938 14
0 4 -1 1400.13 256.818 3
-4 0 1 1513.57 261.966 8
4 0 1 1542.74 216.583 13
0 -4 1 1258.61 267.601 1
-4 0 1 1795.67 283.591 7
-4 0 1 1829.55 191.437 10
4 0 1 1683.34 248.384 11
4 0 -1 1544.35 160.071 12
-4 0 -1 1861.6 257.014 10
4 0 -1 1531.24 165.622 6
4 0 1 1482.87 168.959 9
-4 0 -1 1504.22 204.744 7
-4 0 -1 1764.6 279.884 8
-4 0 1 1561.08 114.868 2
0 -4 1 1262.62 249.42 15
4 0 -1 1538.09 263.588 11
4 0 -1 1827.24 288.739 4
4 0 1 1154.59 251.11 4
-4 0 2 11644.5 737.138 7
4 0 -2 13035 780.698 13
0 4 -2 11837.2 757.08 3
4 0 2 10853.4 741.127 4
-4 0 -2 11925.3 725.73 14
4 0 -2 11485.1 548.702 12
0 4 -2 11376.6 736.06 2
0 -4 2 10916.2 746.36 15
0 4 -2 12395.4 753.091 6
0 -4 2 12292.2 774.03 16
-4 0 2 10884.2 328.015 9
4 0 -2 11232.2 378.813 3
4 0 -2 12236.7 695.563 4
-4 0 -2 12476.5 714.928 10
-4 0 2 11473.5 379.31 10
4 0 -2 11553.6 747.165 11
0 -4 2 13030 786.841 9
4 0 2 11298.1 610.221 9
0 -4 2 10811.2 728.726 1
-4 0 -2 12404.9 734.957 8
-4 0 2 10571.2 660.884 8
-4 0 -3 496.16 161.013 14
0 4 -3 663.855 255.492 6
0 -4 3 401.527 225.12 1
4 0 3 625.76 219.591 4
4 0 -3 495.478 169.545 12
-4 0 3 708.275 288.694 7
4 0 -3 353.177 175.069 4
0 4 -3 496.603 225.416 2
0 4 -3 564.698 149.185 11
0 4 -3 332.703 134.776 13
0 4 -3 614.898 218.971 3
-4 0 -3 569.602 180.915 8
4 0 -3 444.346 227.782 11
-4 0 -3 227.398 168.036 10
0 -4 3 654.79 278.764 9
4 0 3 693.72 223.153 9
4 0 -3 804.812 275.59 13
0 -4 3 570.939 231.16 16
0 -4 3 421.081 159.807 7
0 -4 3 618.352 234.553 15
-4 0 3 399.201 177.191 8
0 -4 4 21139.9 893.499 7
4 0 -4 15470.8 1031.46 13
4 0 -4 19091.5 1015.51 12
-4 0 4 18165.4 1143.48 7
0 4 -4 18908.7 1104.02 3
0 4 -4 19677.2 1114.31 6
-4 0 -4 20197 1115.45 10
0 4 -4 18808.6 946.019 10
4 0 -4 19474.9 1145.15 11
4 0 4 18251.6 1075.96 9
0 -4 4 17399.6 1058.3 1
0 -4 4 18092.4 1044.35 16
-4 0 -4 19386.9 1044.8 14
4 0 4 18625.7 1114.15 4
0 -4 4 19463.3 1105.57 9
0 4 -4 20360.9 1091.72 2
0 4 -4 18091.1 1114.32 5
0 -4 4 18884.3 1105.94 15
-4 0 4 19014.8 943.942 8
0 4 -5 749.14 370.976 12
4 0 -5 103.23 213.168 12
-4 0 5 639.333 369.899 7
0 4 -5 596.3 344.606 5
0 4 -5 340.223 238.717 6
4 0 -5 407.171 251.323 11
4 0 -5 -12.6011 261.687 13
0 4 -5 134.329 238.926 3
0 -4 5 163.578 201.797 16
0 -4 5 -129.751 253.678 9
0 4 -5 -202.882 265.192 2
0 -4 5 647.762 288.549 15
0 -4 5 1295.69 404.059 1
0 4 -5 574.126 258.673 10
0 4 -6 -293.457 329.316 2
-4 0 6 127.619 353.68 7
4 0 -6 -330.851 308.024 12
4 0 -6 -348.681 382.955 11
4 0 -6 -115.73 331.963 13
0 4 -6 575.241 321.97 3
0 -4 6 844.412 401.725 9
0 4 -6 900.975 421.758 6
0 4 -6 146.941 304.034 12
0 -4 7 339.981 320.277 9
0 4 -7 -232.35 361.575 2
0 -4 7 353.524 351.544 15
0 -4 7 -45.8743 321.59 16
0 4 -7 134.465 356.363 6
0 4 -7 110.987 332.559 12
0 4 -7 -184.156 342.348 3
0 4 -7 95.7176 321.69 5
0 -4 7 85.0936 338.395 1
-4 1 0 -46.2186 93.061 2
4 -1 0 -60.4116 75.7512 16
-4 1 0 -47.7843 119.244 7
4 1 0 -48.2546 148.156 11
4 -1 0 -24.1751 96.1064 11
4 -1 0 38.4697 152.165 4
-4 1 0 -43.4025 91.3059 10
4 1 0 28.9615 124.437 13
-4 -1 0 31.5271 129.655 8
4 -1 0 33.1317 42.4694 1
-4 -1 0 94.8086 111.864 7
4 1 0 83.5524 140.419 4
-4 -1 0 -82.4295 134.975 14
4 -1 0 7.67183 47.8375 15
4 -1 0 -57.3884 104.412 13
-4 1 0 -150.707 169.839 8
4 -1 1 -25.4031 136.28 4
4 1 1 276.146 139.615 13
4 -1 1 151.619 102.317 13
-4 1 -1 143.266 81.2277 7
-4 -1 1 175.907 59.459 1
-4 1 1 124.715 137.436 8
4 -1 -1 -97.7427 154.661 13
-4 1 1 -19.6996 111.067 7
-4 1 1 178.539 75.9283 2
4 -1 1 9.78062 84.3475 11
4 1 -1 187.815 95.0998 6
4 -1 -1 14.5173 124.963 4
4 -1 -1 91.2885 113.209 11
4 1 1 197.995 146.666 4
-4 1 -1 98.204 68.2044 3
-1 4 -1 144.339 133.891 2
-4 1 -1 122.379 115.657 10
1 -4 1 229.865 170.985 1
4 -1 -1 143.343 79.2729 16
4 1 -1 194.864 135.112 13
-4 -1 1 189.439 184.958 8
4 1 -1 -110.086 151.279 11
-4 -1 1 64.1 53.3285 15
4 -1 1 -0.75189 75.8581 1
-1 4 -1 120.896 143.717 3
4 -1 1 155.141 95.6727 9
-4 -1 1 320.08 167.092 7
-4 1 -1 99.2066 61.7198 5
4 -1 1 224.951 146.098 16
-4 -1 -1 123.619 124.205 14
4 1 -1 76.3565 105.776 4
1 -4 1 159.862 168.86 16
-4 1 -1 237.561 155.344 8
4 -1 1 28.5907 81.5364 15
-4 -1 -1 193.896 159.636 8
-4 -1 -1 249.861 120.101 7
1 -4 1 199.835 155.895 15
-1 -4 2 45097 1323.82 7
1 4 -2 43877.2 1440.71 2
-4 -1 2 43873 1501.89 7
4 -1 2 42479.3 1205.74 1
4 1 -2 46337.7 1532.34 13
4 -1 -2 44880.9 1526.33 13
-4 1 -2 46669.8 1504.61 14
4 -1 2 45586.7 1461.44 16
1 4 -2 45367.9 1310.12 11
1 -4 2 46661.9 1533.19 9
4 1 -2 42180.2 1465.81 11
-1 4 -2 47508.2 1487.32 6
4 1 -2 42262.1 1229.16 6
4 -1 2 44108.9 1533.28 4
1 -4 2 45994.7 1557.46 15
-4 1 2 42042.7 1455.85 8
-1 4 -2 45269 1525.35 2
-1 4 -2 45275.2 1519.12 3
4 1 -2 45043.6 971.614 3
-4 1 -2 44575.6 1439.04 10
1 4 -2 44698.4 1495.08 3
-1 4 -2 42054.6 1191.4 8
-4 -1 2 44263.2 928.728 1
4 1 -2 43477.7 1246.13 4
-4 1 -2 46159.9 1250.96 5
4 -1 2 42728 1228.43 9
-4 1 2 45268.7 1510.18 7
-1 -4 2 49513.5 1562.16 9
-1 -4 2 41210.2 1468.27 1
-4 -1 -2 43506.2 1430.54 8
-4 1 -2 44068.2 1439.43 8
-4 -1 2 42821.6 1311.15 8
4 1 2 43037.9 1544.23 4
-1 -4 2 42335.2 1436.4 16
4 -1 2 45267.3 1257.63 15
-1 -4 2 42964.7 1507.94 15
4 -1 -2 45592.5 1533.81 4
-4 -1 -2 45612.1 1423.39 14
-4 1 -3 17022.3 950.098 14
1 -4 3 17167 999.398 16
-1 -4 3 18320 875.062 7
4 1 -3 18261.3 1006.6 13
4 -1 3 18540.3 900.989 1
4 1 -3 18226.3 790.654 4
-1 4 -3 18026 999.325 2
1 -4 3 17922.2 1021.94 15
1 4 -3 18454.8 952.348 2
4 1 -3 18160.2 871.056 12
4 1 -3 17155.3 995.595 11
4 -1 -3 16623.5 989.417 11
-1 4 -3 18269.9 959.548 6
1 4 -3 18137 1010.97 6
-1 -4 3 16749.3 919.906 16
-4 1 3 17580.5 959.924 8
4 -1 3 17176.6 997.776 4
4 1 -3 17763.4 885.272 6
4 1 -3 18517.8 718.628 3
4 -1 -3 18518.1 1043.12 13
-1 4 -3 17753.7 1003.45 3
1 4 -3 18728.7 1008.31 3
1 4 -3 18564 879.315 13
1 4 -3 17854 824.575 11
4 1 -3 17486.2 799.091 5
-1 -4 3 19214.9 1003.47 9
1 -4 3 17624.1 988.011 9
-4 1 -3 17796.9 903.681 5
-4 -1 3 16980.3 669.93 9
-4 -1 3 17487.8 994.126 7
4 -1 3 18088.3 904.985 9
-1 -4 3 17577.6 996.521 15
-1 -4 3 18291.7 1016.22 1
1 -4 3 17024.7 983.986 1
-4 1 -3 18426 920.04 8
-4 -1 3 16736.4 780.853 8
-4 1 3 18386.9 1067.8 7
-4 1 -3 17521 958.51 10
-4 -1 3 15661.4 667.739 15
-4 -1 3 17974.2 689.09 1
1 -4 3 17820.9 873.906 4
4 -1 3 18049.4 1018.32 16
-4 1 -4 336.581 271.941 14
-1 4 -4 229.33 172.107 14
-1 -4 4 623.738 267.537 15
1 -4 4 379.694 259.308 9
-4 1 -4 129.802 182.667 5
1 4 -4 329.23 187.83 13
4 1 -4 536.271 254.104 13
1 -4 4 178.745 211.686 16
-1 4 -4 514.405 257.039 2
-1 4 -4 45.7312 200.984 12
-4 1 4 410.564 284.06 7
4 1 -4 509.055 280.462 11
1 -4 4 530.125 227.576 15
-4 -1 4 129.02 248.256 7
4 -1 4 327.104 254.596 4
4 1 -4 352.615 220.34 12
-1 -4 4 340.107 219.221 16
1 4 -4 363.98 168.814 11
-1 -4 4 484.459 210.442 7
-4 1 4 306.33 192.58 8
-4 1 -4 112.841 175.259 8
4 -1 -4 226.616 213.877 11
1 4 -4 188.886 228.737 6
-1 4 -4 114.094 191.372 6
-4 1 -4 432.398 266.412 10
1 4 -4 272.351 181.761 10
-1 4 -4 206.311 209.073 10
-1 4 -4 528.572 249.799 5
-1 4 -4 792.442 321.349 3
1 4 -4 214.557 218.721 3
-1 -4 4 -59.3978 224.895 9
-1 -4 4 403.244 220.662 1
4 1 -4 154.284 160.188 5
4 -1 4 -18.819 183.411 9
1 -4 4 356.464 248.058 1
4 -1 -4 -14.0212 224.484 13
1 4 -4 459.072 223.937 2
-1 -4 5 5942.38 588.709 7
-4 -1 5 6537.3 758.785 7
4 -1 -5 6075.73 711.996 13
-1 -4 5 6249.3 651.188 16
1 -4 5 5909.61 692.683 16
1 -4 5 4979.09 660.246 1
4 1 -5 5563.66 690.472 13
-4 1 5 6812.88 793.837 7
1 4 -5 7046.54 784.966 12
4 1 -5 5916.05 641.462 12
4 1 -5 6025.04 709.267 11
1 4 -5 7389.62 784.253 6
-1 4 -5 6673.92 693.516 6
-1 4 -5 6328.29 714.644 3
1 4 -5 6423.5 714.242 3
-1 -4 5 5601.76 670.303 1
4 -1 -5 3938.41 597.564 11
-1 4 -5 6222.67 621.896 10
-1 4 -5 6178.97 678.931 2
4 1 -5 6363.49 646.609 5
-1 -4 5 6371.41 689.302 9
1 4 -5 5482.46 671.214 5
-1 4 -5 5606.17 699.19 5
1 -4 5 5780.09 674.127 9
4 -1 5 4809.3 646.312 9
1 4 -5 6818.54 669.32 2
4 -1 5 6300.89 717.731 4
-1 -4 5 5690.77 678.04 15
-4 1 -5 6525.69 718.273 10
-4 1 -5 5081.62 597.799 14
-1 4 -5 7121.33 753.655 12
1 -4 5 5757.74 688.339 15
-1 4 -6 2761.48 526.819 2
4 1 -6 3021.63 568.321 13
1 4 -6 3102.83 492.708 2
1 4 -6 2352.16 532.927 5
1 4 -6 3051.06 571.696 12
-1 4 -6 2047.43 472.588 12
-4 -1 6 2276.36 578.588 7
4 1 -6 2973.53 535.659 12
-1 -4 6 1561.94 437.033 15
4 1 -6 1000.42 360.285 11
-4 1 -6 1974.51 489.734 10
1 4 -6 2556.44 568.71 6
-1 4 -6 3284.33 567.994 6
4 -1 6 2228.31 518.397 4
-1 4 -6 2559.41 470.947 10
-1 -4 6 2999.76 558.395 1
-1 4 -6 3040.39 588.917 3
1 4 -6 2953.14 533.818 3
1 -4 6 2329.83 550.197 1
-1 4 -6 2137.28 514.672 5
-1 -4 6 2801.67 526.986 9
1 -4 6 2034.52 471.811 9
1 -4 6 2440.7 546.882 15
4 -1 6 2088.66 497.047 9
4 1 -6 2270.4 506.532 5
1 -4 6 3107.12 576.362 16
-1 -4 6 2811.45 510.42 16
-1 4 -7 42.5244 328.516 2
1 -4 7 -193.082 322.298 16
4 1 -7 157.816 293.326 13
-1 -4 7 164.787 333.593 1
1 4 -7 846.31 466.339 12
-4 -1 7 -6.05052 350.964 7
-1 4 -7 91.3683 340.287 12
4 1 -7 649.739 405.993 12
1 -4 7 -154.129 307.177 1
1 4 -7 227.97 304.45 6
-1 4 -7 715.823 374.983 6
1 4 -7 -209.629 341.451 3
-1 -4 7 -262.111 357.739 9
1 -4 7 18.8403 332.855 9
1 4 -7 -329.382 393.062 5
-1 4 -7 -15.8619 319.676 3
-1 4 -7 -183.635 314.148 5
1 -4 7 1002.45 493.685 15
-1 -4 7 799.43 445.538 15
4 1 -7 706.858 381.602 11
-1 4 -8 532.521 371.524 2
-4 -1 8 -232.833 457.73 7
4 1 -8 234.298 399.012 11
-1 4 -8 -33.7328 416.287 6
-1 -4 8 657.653 489.022 9
1 -4 8 188.157 394.219 16
4 1 -8 179.734 370.531 13
4 2 0 7008.9 569.032 4
-4 2 0 6612.16 442.457 7
4 2 0 6954.87 557.596 13
-4 -2 0 6885.43 533.557 7
4 -2 0 6876.14 461.984 13
4 2 0 7447.37 587.415 11
-4 2 0 6808.57 454.495 2
4 -2 0 7200.11 457.313 11
4 -2 0 7026.98 611.824 4
-4 2 0 6641.97 573.174 8
4 -2 0 6563.32 369.933 1
-4 -2 0 6245.87 504.558 8
4 -2 0 6067.3 354.047 15
-4 -2 0 6408.65 429.907 14
4 2 -1 61560.8 1771.94 13
-4 2 1 57052.1 1602.11 7
4 -2 -1 58957.8 1633.87 13
-4 2 -1 61935.6 1777.72 8
4 2 -1 64539.9 1802.45 11
4 2 -1 58030.5 1514.83 6
4 -2 -1 60548.5 1613.4 11
-4 2 -1 57107.9 1556.69 2
-2 4 -1 60691.3 1721.22 8
-4 -2 1 64035.2 1797.06 7
4 -2 1 61527.7 1836.93 4
-4 2 -1 61733.1 1242.09 5
4 -2 1 55286.8 1299.43 9
4 -2 1 59796.7 1221.97 13
4 -2 -1 56971 1239 1
2 -4 1 54591.7 1725.79 1
-4 -2 -1 59054.8 1634.14 8
-4 -2 1 61106.1 1602.84 8
4 -2 1 59812.8 1595.87 16
4 2 1 61562.9 1857.3 4
4 -2 -1 58623.2 1366.97 16
2 -4 1 58587.7 1802.57 16
-4 2 1 59125.3 1802.43 8
4 -2 -1 58992.1 1849.07 4
4 -2 -1 56602.7 1181.92 15
2 -4 1 58040 1865.3 4
-4 -2 1 59096.7 1244.97 14
-2 4 -1 58052.8 1746.47 2
2 4 -2 9747.16 680.454 13
-4 2 2 7923.89 656.983 7
-4 -2 2 8580.76 676.797 7
-4 2 -2 8308.85 653.475 10
4 -2 2 8203.77 667.552 4
-4 2 -2 8460.32 495.552 12
4 -2 -2 7246.49 677.667 4
2 4 -2 8879.59 628.52 11
4 2 -2 8539.18 661.293 11
4 -2 2 8365.85 553.727 15
2 4 -2 8754.08 693.708 6
4 -2 -2 7901.25 638.306 11
4 2 -2 7435.79 560.997 6
4 -2 -2 7277.39 442.611 16
-4 2 -2 7587.43 524.095 3
2 4 -2 8519.08 636.099 3
4 2 -2 9120.49 490.876 3
-2 -4 2 8064.54 599.73 7
-4 2 -2 8691.37 509.7 5
4 -2 2 8353.7 538.861 9
-2 -4 2 8362.6 667.819 1
4 2 -2 7777.82 485.697 4
-4 -2 2 7745.62 529.264 8
-2 -4 2 8628.57 652.776 15
-4 2 -2 8344.83 622.77 8
-4 -2 2 7557.59 447.529 1
4 -2 2 8296.77 631.023 16
-4 2 2 8133.15 691.198 8
-2 -4 2 8599.25 612.243 16
-4 -2 2 7540.22 450.164 15
4 -2 2 8506.92 555.629 1
4 2 -2 8196.44 647.251 13
-2 4 -3 29367.7 1330.83 2
4 2 -3 25773.2 1239.12 13
-4 2 3 24308.1 1270.55 7
2 4 -3 29560.4 1186.9 11
2 4 -3 26486.7 1150.33 13
2 -4 3 26561.4 1133.85 4
4 -2 3 26602.9 1260.48 4
-4 2 -3 25431.8 1090.61 12
4 2 -3 25928.5 1220.59 11
-2 4 -3 26334.7 1118.25 6
2 4 -3 27278 1274.55 6
4 -2 -3 25436.4 1276.45 11
4 2 -3 26955.8 1146.77 6
4 2 -3 26601.6 973.256 3
-2 4 -3 25676 1229.43 3
2 4 -3 28205 1243.87 3
-4 2 -3 26685.9 1224.47 10
4 2 -3 25212.6 1034.8 5
-4 2 -3 26545.3 1077.13 5
-2 -4 3 27362.7 1207.94 9
-4 -2 3 28479.6 971.222 9
2 -4 3 26806.6 1218.86 9
4 -2 3 24596.8 1098.7 9
-2 -4 3 25003.2 1191 1
-4 -2 3 27159.4 972.468 8
-4 2 -3 25188.8 1107.74 8
2 -4 3 25844.1 1246.89 15
2 -4 3 25468.4 1206.49 1
2 4 -3 26103.1 1123.46 2
4 -2 3 26083.8 1242.64 16
-2 4 -3 26316.6 951.097 8
2 -4 3 25312.1 1252.06 16
-2 -4 3 25726.9 1117 16
-4 2 3 25966.5 1269.04 8
-2 -4 3 26333 1156.79 7
4 -2 3 24861 1084.82 1
-4 2 -3 25517.2 1197.99 14
4 -2 3 27589.6 1163.12 15
-4 -2 3 26088.1 937.194 1
-2 -4 3 26104.5 1197.62 15
-4 -2 3 24504.2 920.271 15
-4 -2 3 26399 1254.88 7
2 4 -4 3992.4 477.677 13
-2 4 -4 4715.26 493.447 14
-2 4 -4 5741.01 617.947 12
4 -2 4 4888.18 562.613 1
4 -2 4 4500.86 555.19 4
4 2 -4 5340.4 624.309 13
-2 -4 4 4545.08 487.86 16
-2 4 -4 5238.78 598.468 2
4 2 -4 4470.49 565.917 11
2 4 -4 5347.33 536.839 11
4 2 -4 4773.54 565.263 6
2 -4 4 4979.22 599.926 1
2 -4 4 4090.66 565.763 16
4 2 -4 4960.46 483.989 3
-4 -2 4 4176.69 552.504 7
-4 2 -4 5242.41 560.755 5
2 4 -4 4457.78 571.779 6
-2 4 -4 4615.94 531.577 6
4 2 -4 4481.98 497.032 5
-2 4 -4 4522.87 539.939 10
-2 4 -4 4663.47 554.284 3
-2 4 -4 4363.54 569.29 5
-2 -4 4 4838.51 548.568 9
-4 2 -4 5093.03 605.695 10
2 4 -4 4827.47 570.91 3
2 -4 4 4686.93 561.137 9
-2 -4 4 4045.82 513.004 1
-2 -4 4 5324.24 567.368 7
-4 -2 4 4942.16 446.573 1
4 -2 4 3897.57 510.035 9
-4 2 -4 4841.54 515.721 8
4 -2 4 5743.73 661.992 16
4 2 -4 4735.35 536.175 12
-4 2 -4 4762.99 568.315 14
2 -4 4 5436.11 625.426 15
-4 -2 4 4930.82 477.421 15
4 -2 4 4659.39 565.45 15
-2 -4 4 4392.12 538.15 15
2 4 -4 4801.12 507.315 2
4 -2 5 4894.75 619.712 4
-2 -4 5 6242.98 663.38 7
-4 -2 5 6333.44 745.397 7
4 -2 5 6105.68 698.031 1
-2 4 -5 6269.95 736.264 2
2 4 -5 6720.11 633.814 13
4 2 -5 5285.25 654.486 13
2 4 -5 5051.87 692.762 12
4 2 -5 5297.1 638.701 12
-2 4 -5 5807.9 639.044 6
2 -4 5 4739.23 668.985 1
2 4 -5 5132.6 567.566 2
2 4 -5 4103.68 517.281 11
2 4 -5 6381.01 695.095 3
4 2 -5 4824.44 653.971 11
2 -4 5 5957.44 705.882 9
2 4 -5 5757.08 711.838 6
-4 2 -5 5795.28 694.227 10
4 2 -5 4692.26 618.33 6
-2 4 -5 5339.91 628.66 10
-2 4 -5 6341.85 748.755 5
4 2 -5 5409.03 616.095 5
-2 4 -5 5213.64 666.973 3
-2 -4 5 5981.95 667.122 9
2 4 -5 5781.13 687.279 5
-2 4 -5 5351.64 640.35 12
4 -2 5 5436.21 672.155 9
-4 2 -5 5589.03 655.112 5
2 -4 5 6714.25 759.209 16
-2 -4 5 5425.33 590.439 16
4 -2 5 5110.25 708.005 16
-2 4 -5 5929.6 582.545 14
4 -2 5 6649.78 734.847 15
2 -4 5 7079.29 780.897 15
-2 -4 5 5698.98 670.562 1
-2 -4 5 4972.35 633.045 15
-4 2 -5 6330.2 643.233 14
-2 4 -6 922.176 387.534 2
4 2 -6 585.269 393.309 13
-2 -4 6 956.828 378.941 7
-4 -2 6 756.364 359.259 7
2 4 -6 576.831 330.267 12
-2 4 -6 842.959 357.229 12
-2 -4 6 703.407 357.081 15
4 2 -6 636.447 322.941 11
2 4 -6 669.863 375.741 6
-2 4 -6 572.757 368.646 6
-4 2 -6 716.769 381.376 10
4 2 -6 832.491 375.445 6
-2 4 -6 1438.57 417.081 10
-2 4 -6 920.308 399.319 3
-2 -4 6 962.437 387.188 1
2 4 -6 880.69 345.256 3
2 4 -6 534.021 346.091 5
-2 -4 6 713.852 334.674 9
-2 4 -6 1049.18 385.564 5
2 -4 6 710.909 326.895 9
4 -2 6 579.597 371.003 9
4 2 -6 987.825 387.012 5
-4 2 -6 1067.12 407.414 5
2 -4 6 503.05 343.24 16
2 -4 6 396.576 293.614 1
2 -4 6 710.558 329.689 15
4 2 -7 1616.56 539.531 12
-2 -4 7 1996.45 543.171 15
-4 -2 7 2895.81 674.691 7
-2 4 -7 1778.23 521.622 12
-2 -4 7 1812.37 478.802 1
4 2 -7 1817.35 572.163 11
2 4 -7 2569.26 626.49 6
-4 2 -7 3121.03 630.553 10
-2 4 -7 2191.81 530.43 6
-2 4 -7 2713.4 566.382 10
4 2 -7 2270.08 614.723 6
-2 4 -7 1755.92 536.845 3
2 -4 7 1133.85 461.233 1
2 4 -7 1977.73 504.236 3
-2 -4 7 2452.56 571.95 9
2 -4 7 1427.71 493.083 9
2 4 -7 1442.99 504.017 5
-2 4 -7 2338.67 585.707 5
4 -2 7 1561.4 522.33 9
4 2 -7 1575.94 479.971 5
4 2 -7 1931.97 522.177 13
2 -4 7 2963.21 723.102 15
2 -4 7 2767.44 664.305 16
2 4 -7 2248.94 586.179 12
-2 4 -7 2632.26 598.821 2
4 2 -8 -26.1989 388.235 13
-4 -2 8 205.551 491.234 7
4 2 -8 -280.395 405.982 11
-2 4 -8 -305.544 430.387 6
-2 -4 8 32.2491 360.923 9
4 2 -8 157.441 340.415 5
-4 -3 0 -99.7621 163.757 7
4 3 0 -149.193 176.823 13
4 -3 0 104.977 118.755 1
4 -3 0 -49.1825 183.066 4
-4 3 0 -176.476 158.041 7
3 -4 0 -71.9809 201.778 4
4 -3 0 64.7104 115.157 15
-4 3 0 -135.04 210.422 8
4 -3 0 -30.3703 92.0966 11
-4 3 0 -205.196 166.642 2
4 -3 0 16.6161 124.877 16
3 -4 0 71.2764 181.345 16
-3 4 0 -60.6898 222.188 8
-4 -3 1 7467.92 627.79 7
-4 3 1 6773.54 555.056 7
4 -3 1 6282.09 470.002 15
3 -4 1 6703.32 638.507 4
3 4 -1 6172.59 594.405 13
3 4 -1 6897.68 604.964 11
4 3 -1 7310.53 625.468 11
-4 3 -1 6293.99 471.698 3
4 -3 -1 7244.4 556.821 11
-3 4 -1 6575.99 574.431 8
4 3 -1 7302.28 637.597 13
-3 4 -1 7089 572.111 3
4 -3 1 7099.34 492.837 9
-4 -3 1 6258.06 484.891 1
3 -4 1 5533.53 524.341 1
4 -3 1 6054.72 475.641 1
-4 3 -1 6908.06 602.539 8
4 -3 1 5968.83 535.818 16
4 3 -1 6724.24 531.095 4
3 -4 1 6943.21 616.399 16
4 -3 -1 6630.85 518.963 16
-4 3 1 6661.15 661.601 8
4 -3 1 7021.11 657.993 4
-3 4 -1 6832.39 595.131 2
3 -4 1 6424.54 562.16 15
-4 -3 1 6237.46 468.423 15
4 -3 -1 6051.92 650.69 4
-4 3 -1 6504.43 549.387 2
-3 -4 1 6846.05 572.776 7
3 4 -2 1109.42 308.575 13
4 3 -2 993.245 277.97 13
-4 3 -2 1098.54 286.495 2
-3 -4 2 868.705 210.989 1
-4 -3 2 501.283 166.055 1
3 -4 2 1114.7 290.601 4
-4 -3 2 998.917 301.33 7
-3 4 -2 709.03 241.066 2
3 4 -2 818.214 227.408 11
4 3 -2 841.788 261.237 11
-3 4 -2 759.56 206.903 6
3 -4 2 1089.75 272.187 1
3 4 -2 433.097 221.499 6
4 3 -2 559.084 211.14 6
4 -3 2 792.689 249.881 4
3 -4 2 866.239 255.429 16
4 -3 2 816.205 247.237 16
-4 3 -2 821.962 209.492 5
3 -4 2 1013.97 264.347 9
4 -3 2 571.947 179.14 9
-4 3 -2 1307.88 268.886 3
-3 4 -2 705.095 241.18 3
4 -3 2 422.258 213.63 1
-3 -4 2 725.937 193.107 16
-4 3 -2 696.468 236.063 8
4 -3 2 628.087 200.524 15
-3 4 -2 895.143 225.486 8
4 3 -2 794.561 180.378 4
3 -4 2 961.972 265.257 15
-4 -3 2 806.239 200.465 15
-3 -4 2 894.519 243.038 15
-3 -4 3 23983.9 1199.41 7
-4 -3 3 24879.8 1265.85 7
3 4 -3 24558.9 1208.99 13
-4 -3 3 24150.4 1022.32 15
4 3 -3 23458.7 1216.77 13
3 -4 3 23472.5 1186.11 1
-3 -4 3 24183.7 1049.37 16
-3 4 -3 24326.1 1137.15 12
-4 3 -3 24384.6 1054.6 12
4 3 -3 24206.5 1221.84 11
-3 4 -3 26027.1 1099.02 6
3 4 -3 23417.3 1220.31 6
4 3 -3 23034.7 1159.84 6
-4 3 -3 24260.7 1124.74 3
-3 4 -3 24601.6 1206.58 3
4 3 -3 23636.2 1017.85 3
3 4 -3 24625.8 1154.68 3
-4 3 -3 24893.5 1273.53 10
-3 4 -3 23886.2 1193.93 5
-4 3 -3 23734.1 1079.15 5
4 -3 3 24625 1155.39 15
-4 -3 3 26487.4 1064.38 9
-3 -4 3 22956.2 1108.9 9
3 -4 3 22853 1149.07 9
4 -3 3 20880.5 1054.07 9
3 -4 3 25025 1199.69 4
-4 3 -3 23847.7 1113.28 8
-3 4 -3 24818.4 1048.18 8
4 -3 3 25775 1303.41 16
3 -4 3 22894.5 1242.32 16
-4 -3 3 22862.8 968.789 1
3 -4 3 25099.5 1232.29 15
4 -3 3 22877.3 1103.81 1
-4 3 -3 22590.3 1178.67 2
-3 -4 3 22286.4 1118.28 15
-3 4 -3 24705.2 1245.92 2
-4 3 -4 238.832 230.701 14
3 -4 4 9.81638 236.245 1
-3 4 -4 -146.205 211.81 14
3 4 -4 -104.555 216.816 13
-4 3 -4 56.891 240.128 2
4 -3 4 -93.6478 225.318 4
4 3 -4 -180.86 230.674 13
-3 4 -4 -281.002 288.692 2
-3 -4 4 -211.303 263.962 7
3 -4 4 10.7806 200.452 4
4 3 -4 45.3528 182.294 12
-3 4 -4 249.33 255.781 12
-4 -3 4 -390.849 262.445 1
-4 3 -4 284.955 193.699 12
4 -3 4 22.2471 206.041 15
-4 3 -4 -197.639 179.43 8
3 4 -4 244.563 255.232 11
3 4 -4 -306.229 295.266 6
-3 4 -4 325.496 218.829 6
4 3 -4 54.9806 247.565 6
4 -3 4 -152.243 238.223 16
-4 3 -4 48.2966 205.638 3
3 -4 4 61.9373 249.433 15
-4 3 -4 -168.988 229.664 10
-3 4 -4 -68.5121 230.306 10
3 4 -4 -254.62 261.92 5
-3 4 -4 126.814 227.491 3
4 3 -4 48.2736 176.364 5
-3 4 -4 106.135 203.719 5
-3 -4 4 -27.3344 189.203 9
3 -4 4 -412.436 265.621 9
-4 3 -4 -37.5977 180.584 5
4 -3 4 308.893 247.29 9
4 3 -4 -93.1923 205.566 3
3 4 -4 136.982 197.763 3
-3 -4 4 -161.879 206.263 1
4 -3 4 124.836 224.716 1
-3 -4 4 289.94 206.673 15
3 -4 4 -49.2534 235.161 16
-4 -3 4 148.543 179.769 15
4 -3 5 10029.3 905.961 1
-3 -4 5 9815.5 878.424 7
-4 -3 5 10627 941.599 7
3 4 -5 10269.5 866.144 13
4 3 -5 9526.2 880.923 13
3 -4 5 9636.21 945.371 16
3 4 -5 9110.41 899.749 12
4 3 -5 10172.3 902.452 12
-3 4 -5 9672.31 872.544 12
-4 3 -5 9899.11 886.498 12
4 -3 5 10433.6 943.698 15
-3 -4 5 9424.93 817.066 1
3 4 -5 9984.66 933.093 6
-3 4 -5 9776.25 813.489 6
4 3 -5 8618.53 893.991 6
-3 4 -5 10304.5 919.108 3
3 4 -5 10460.2 868.643 3
3 4 -5 10026.6 833.832 11
-4 3 -5 10502.4 923.197 10
3 4 -5 8984.44 847.355 5
-3 4 -5 10663.5 924.069 5
4 3 -5 8347.1 778.123 5
-4 3 -5 9421.9 852.278 5
-3 -4 5 10038.6 850.969 9
3 -4 5 9763.06 904.302 9
4 -3 5 10242 903.793 9
4 -3 5 9882.11 880.371 4
4 3 -5 9660.84 907.308 11
4 -3 5 9464.28 939.504 16
-3 4 -5 9516.05 804.015 14
3 -4 5 8143.05 853.348 15
-3 4 -5 9048.75 884.819 2
-3 -4 5 9350.55 810.359 15
3 -4 5 9626.41 906.05 1
-3 4 -5 9659.95 886.842 10
-4 3 -5 9670.04 874.755 3
-4 3 -5 10253.5 860.554 14
3 -4 6 494.124 419.075 1
3 4 -6 158.284 285.431 13
-3 4 -6 -362.459 387.851 2
4 3 -6 189.092 266.919 13
-3 -4 6 -381.063 297.325 7
4 -3 6 359.067 380.557 16
-4 -3 6 302.251 278.874 7
3 4 -6 153.653 304.673 12
3 -4 6 719.026 456.462 16
-3 4 -6 1450.95 481.312 12
4 -3 6 552.376 331.727 1
3 4 -6 385.968 320.684 11
4 3 -6 55.0995 310.553 11
4 3 -6 332.843 274.911 12
3 4 -6 458.518 414.674 6
-3 4 -6 -166.673 279.339 6
4 3 -6 442.5 333.193 6
-4 3 -6 914.701 403.9 3
-4 3 -6 961.085 452.019 10
-3 4 -6 188.035 274.941 10
-3 4 -6 489.373 346.71 3
3 4 -6 -134.992 327.126 3
-3 -4 6 235.373 285.558 9
3 4 -6 624.45 351.706 5
3 -4 6 657.015 375.053 9
4 -3 6 -197.522 346.965 9
-3 4 -6 488.35 344.616 5
-3 -4 6 618.361 377.022 1
4 3 -6 94.8987 256.152 5
-4 3 -6 304.966 343.819 5
4 -3 6 405.253 360.669 15
3 -4 6 678.22 453.778 15
-3 -4 6 -234.832 301.515 15
-4 3 -6 -360.145 329.438 14
-3 4 -7 87.7148 350.124 2
4 3 -7 -773.148 486.818 13
-4 -3 7 345.107 416.337 7
3 4 -7 310.122 361.279 12
4 3 -7 -348.246 411.499 12
-3 4 -7 192.498 344.734 12
4 -3 7 280.986 340.202 1
3 4 -7 -108.586 378.306 6
-4 3 -7 -292.923 299.783 3
-4 3 -7 -343.995 402.273 10
4 3 -7 -301.089 431.917 6
-3 4 -7 121.752 322.443 10
-3 -4 7 120.474 316.695 1
-3 4 -7 199.821 327.197 3
3 4 -7 -39.4733 312.691 3
-3 -4 7 3.14389 361.304 9
4 3 -7 32.6575 372.736 11
3 -4 7 463.517 367.522 9
4 -3 7 261.056 424.076 9
3 4 -7 161.771 302.488 5
-3 4 -7 -513.297 400.903 5
3 -4 7 -317.979 402.24 1
4 3 -7 -403.752 396.283 5
-4 3 -7 -163.988 373.741 5
3 -4 7 -471.328 437.867 16
-3 -4 7 -305.654 357.917 15
3 -4 7 248.674 381.06 15
-4 4 0 65580.9 1894.98 2
4 -4 0 66019.2 1837.95 15
4 -4 0 64734.5 1855.41 1
4 -4 0 62085 1944.45 16
-4 4 0 62914.5 2120.85 8
4 -4 0 61363.4 2217.66 4
-4 4 -1 -143.179 168.283 3
4 -4 1 -56.7164 174.411 16
4 -4 1 148.47 150.553 1
4 -4 1 440.048 313.795 4
4 4 -1 -157.542 239.932 11
-4 4 -1 80.9315 188.331 2
4 4 -1 422.801 280.674 13
-4 -4 1 273.778 233.748 7
-4 4 -1 -15.1311 216.129 8
4 -4 1 -221.091 180.279 15
4 4 -2 3012.34 476.959 13
-4 -4 2 2833.09 444.706 7
-4 -4 2 2173.65 356.29 1
4 -4 2 2265.62 401.245 4
-4 4 -2 1899.77 353.15 2
4 4 -2 2810.67 462.676 11
4 -4 2 2545.23 373.427 1
-4 -4 2 2195.85 346.711 15
4 -4 2 2243.87 355.023 9
4 4 -2 1571.01 375.947 6
-4 4 -2 2121.82 340.825 3
4 -4 2 2159.03 399.176 16
-4 4 -2 2311.75 371.386 8
4 -4 2 2371.44 376.904 15
-4 -4 3 389.988 211.604 15
-4 4 -3 413.968 277.149 2
4 4 -3 176.112 261.21 11
4 4 -3 -74.9947 221.696 6
-4 -4 3 82.2404 164.903 1
4 4 -3 -163.493 185.087 3
4 -4 3 -168.902 230.448 15
-4 4 -3 214.253 281.757 10
-4 4 -3 -33.6731 201.472 5
4 -4 3 58.9122 246.876 4
4 -4 3 -202.051 236.34 9
-4 4 -3 187.865 219.382 3
4 4 -3 295.403 283.151 13
4 -4 3 -104.909 195.374 1
4 -4 3 7.80761 279.032 16
-4 4 -3 -148.041 202.546 8
-4 -4 3 110.985 242.022 7
-4 4 -4 4352.41 598.001 14
4 4 -4 4858.12 639.594 13
-4 4 -4 4596.26 616.158 2
-4 -4 4 5291.2 658.321 7
4 -4 4 5568.34 658.168 4
4 -4 4 3872.86 564.772 1
4 4 -4 3947.97 598.36 11
4 4 -4 4217.41 642.372 6
4 4 -4 5488.31 606.618 3
4 -4 4 4239.55 635.161 16
4 -4 4 4645.77 620.026 15
-4 4 -4 5174.35 672.072 10
4 4 -4 4019.28 547.599 5
-4 4 -4 4979.07 630.848 3
-4 4 -4 4489 554.655 5
4 -4 4 4532.15 585.817 9
-4 -4 4 4119.15 510.949 1
-4 -4 4 4548.37 533.134 15
-4 4 -5 60.0226 316.604 14
-4 4 -5 -273.178 281.943 2
4 4 -5 196.318 350.404 13
-4 -4 5 178.649 293.68 7
4 -4 5 -89.2878 296.973 15
4 4 -5 -191.038 246.493 12
4 4 -5 365.565 322.929 11
4 4 -5 -258.853 267.845 6
-4 4 -5 15.3518 324.081 10
-4 4 -5 243.905 273.606 3
4 4 -5 -270.839 270.541 5
4 -4 5 -315.286 281.685 9
-4 4 -5 329.948 296.928 5
4 -4 5 -468.004 331.804 1
4 -4 5 -329.618 421.076 16
-4 4 -6 364.888 317.067 14
-4 -4 6 -70.9911 356.809 7
4 4 -6 576.107 373.154 12
4 4 -6 622.327 361.954 13
4 4 -6 -337.55 299.14 11
4 -4 6 703.028 410.929 1
4 4 -6 59.4237 369.173 6
-4 4 -6 221.143 324.928 10
-4 4 -6 413.289 353.696 3
4 4 -6 394.9 281.75 5
4 -4 6 441.188 346.151 9
-4 4 -6 -16.1216 274.038 5
4 -4 6 1154.09 479.182 16
-4 4 -6 -45.2561 319.516 2
4 -4 6 568.243 394.498 15
4 4 -7 445.78 415.943 13
-4 -4 7 1047.51 452.985 7
4 -4 7 -73.3331 358.492 1
4 4 -7 -197.98 435.564 12
4 4 -7 -62.5244 343.952 6
-4 4 -7 -425.87 466.281 10
-4 4 -7 150.543 356.781 3
4 -4 7 -779.263 472.75 9
4 4 -7 -97.6212 317.084 5
-4 4 -7 218.051 427.583 5
4 -4 7 345.145 382.223 15
5 0 0 -8.53385 174.001 4
5 0 0 -52.9823 131.64 13
-5 0 0 -78.9195 130.043 7
5 0 0 59.6922 178.677 11
-5 0 0 63.7623 125.407 10
-5 0 0 -168.894 201.759 8
-5 0 -1 4836.98 494.761 14
-5 0 -1 4793.14 418.169 7
-5 0 1 4159.96 453.773 7
5 0 -1 4795.01 483.479 11
5 0 1 4821.2 430.543 13
5 0 -1 4522.29 482.789 13
5 0 1 4806.32 453.662 11
-5 0 -1 4838.19 448.17 10
-5 0 1 4576.7 328.331 10
-5 0 1 4642.34 501.912 8
5 0 -1 4590.48 492.443 4
-5 0 -1 4198.98 494.536 8
-5 0 -2 65205.2 1942.53 14
0 5 -2 64298.8 2000.79 2
-5 0 2 62178.4 1914.02 7
-5 0 2 59459.9 1813.26 8
0 5 -2 67156 2045.07 6
5 0 -2 58539 1882.86 11
5 0 -2 61293.6 1439.98 6
-5 0 -2 62891.5 1819.93 10
5 0 2 61205.3 1521.8 9
0 -5 2 58869.4 2009.37 1
-5 0 -2 65727.4 1982.26 8
0 -5 2 63182.9 2028.38 16
5 0 2 59911 2007.02 4
0 -5 2 63765.7 2053.67 15
5 0 -3 5434.92 629.791 13
0 -5 3 4158.1 541.856 16
-5 0 3 4316.6 503.832 8
-5 0 3 4414.56 567.084 7
0 -5 3 4178.95 530.26 1
0 5 -3 4258.85 547.617 6
5 0 -3 4424.92 574.405 11
0 5 -3 5108.93 576.692 2
0 -5 3 5820.07 644.252 9
0 5 -3 4745.26 560.684 3
0 -5 3 5157.85 629.992 15
5 0 -3 4892.03 529.524 4
-5 0 -4 152.508 240.306 14
5 0 -4 -303.487 248.612 13
-5 0 4 -8.0259 302.629 7
0 5 -4 -247.682 254.533 2
5 0 -4 -189.815 247.788 11
0 5 -4 85.5922 242.919 6
-5 0 -4 -0.97664 273.216 10
0 -5 4 112.247 231.63 1
0 -5 4 163.478 268.977 9
0 5 -4 -8.23748 247.273 3
5 0 4 183.163 236.675 9
0 -5 4 169.291 246.624 16
5 0 4 5.87899 236.492 4
-5 0 4 95.6207 198.569 8
0 -5 4 41.4308 217.804 15
0 -5 5 1970.45 455.784 16
5 0 -5 1577.83 484.388 13
0 5 -5 1068.97 343.494 12
-5 0 5 1144.24 426.813 7
0 5 -5 1635.02 407.435 2
5 0 -5 522.837 332.035 11
0 5 -5 1629.84 447.485 6
0 5 -5 1448.81 335.636 10
0 5 -5 1746.8 466.533 5
0 -5 5 881.036 384.503 9
0 5 -5 1183.41 383.699 3
0 -5 5 651.577 337.368 1
0 -5 5 2018.67 509.446 15
5 0 -6 6003.63 811.722 13
0 5 -6 7329.98 911.527 12
-5 0 6 6254.64 900.354 7
0 5 -6 6331.55 747.975 2
0 5 -6 8576.96 919.858 6
0 -5 6 6686.98 842.182 1
5 0 -6 5405.6 801.473 11
0 -5 6 5665 799.021 15
0 5 -6 7268.28 882.224 3
0 5 -6 6431.07 852.348 5
0 -5 6 6715.76 828.04 9
0 -5 6 6053.9 770.257 16
5 0 -7 83.8659 337.629 13
0 5 -7 137.416 362.762 12
0 5 -7 -360.068 400.918 2
-5 0 7 121.058 392.112 7
5 0 -7 109.49 290.574 11
0 5 -7 113.625 369.361 6
0 5 -7 97.59 348.598 3
0 -5 7 -450.706 438.134 9
0 5 -7 472.097 377.524 5
0 -5 7 121.178 370.161 1
0 -5 7 -233.3 413.481 16
-5 -1 0 8393.2 579.655 14
-5 1 0 8292.85 552.846 7
5 1 0 9000.56 649.689 13
5 -1 0 8209.38 559.354 13
5 1 0 8761.88 658.942 11
5 -1 0 7960.52 567.878 11
5 1 0 8395.89 660.812 4
-5 1 0 8489.41 564.823 10
-5 -1 0 8538.67 625.429 7
-5 -1 0 8853.92 680.968 8
-5 1 0 7834.48 656.087 8
5 -1 0 8304.91 488.752 16
5 -1 0 8996 714.992 4
-5 1 0 7411.79 461.314 2
-5 -1 -1 6012.65 536.702 14
-5 -1 -1 4530.7 442.451 7
-5 -1 1 5291.16 545.722 7
-5 1 1 5064.46 485.816 7
5 1 1 6067.13 518.151 13
5 -1 1 5132.14 421.15 13
5 1 -1 5657.07 540.57 13
5 -1 -1 4961.1 490.95 13
5 1 1 4508.72 531.112 4
5 1 1 5591.55 532.307 11
5 -1 1 5341.87 442.748 11
-5 1 1 4536.81 511.035 8
5 1 -1 5244.18 523.315 11
5 1 -1 4620.62 371.869 6
5 -1 -1 4591.73 482.465 11
-5 1 -1 5456.35 405.808 7
-5 1 -1 4598.27 457.805 10
-5 1 1 5038.96 401.29 10
5 -1 -1 5824.03 585.498 4
-5 -1 -1 4988.63 544.492 8
-5 -1 1 5429.95 539.04 8
-5 1 -1 5492.49 560.468 8
5 -1 1 5495.25 472.477 16
5 -1 1 4945.99 552.02 4
5 1 -1 4751.28 480.507 4
-5 -1 -2 3242.41 427.394 14
1 5 -2 2786.23 421.017 3
-5 1 -2 2954.76 443.514 14
5 1 -2 2761.81 358.706 4
5 1 -2 3138.81 456.03 13
-1 -5 2 3611.04 503.456 1
1 -5 2 2486.32 414.896 1
5 1 -2 3364.91 346.374 12
-5 -1 2 3125.47 447.239 7
-1 5 -2 3069.23 416.541 6
1 5 -2 3067.08 453.155 6
5 1 -2 2558.16 428.607 11
5 1 -2 3119.49 334.62 6
-1 5 -2 3198.76 462.153 2
-5 1 -2 2805.59 410.402 10
5 -1 2 3634.82 515.684 4
5 -1 2 2726.29 307.986 9
-1 5 -2 4018.2 503.586 3
5 -1 2 3196.34 412.22 16
1 -5 2 2899.33 458.058 16
-1 -5 2 2790.71 425.126 16
-5 1 -2 3327.39 453.278 8
-5 -1 2 2931.13 397.051 8
-5 -1 -2 4082.75 492.88 8
5 1 2 2992.95 472.049 4
1 -5 2 3694.31 501.594 15
-1 -5 2 2587.09 430.197 15
-1 5 -2 2990.16 376.329 8
-5 1 -3 3561.95 516.674 14
-5 -1 -3 3504.04 463.26 14
5 -1 3 3796.51 547.873 4
-5 1 3 3644.29 507.076 8
5 1 -3 3390.73 512.245 13
-5 -1 3 3409.59 495.669 7
5 1 -3 3518.13 401.972 12
-5 1 3 3169.7 533.693 7
1 5 -3 4133.83 429.772 11
-1 -5 3 3533.69 521.873 1
5 -1 -3 3642.18 504.408 4
1 -5 3 3381.89 482.335 1
-1 5 -3 3706.62 476.101 6
-1 5 -3 3627.55 517.499 2
5 1 -3 3598.16 514.1 11
1 5 -3 3717.33 520.12 6
5 -1 -3 3136.17 505.857 11
5 1 -3 3580.42 414.823 6
-5 1 -3 3032.53 456.424 10
1 5 -3 4032.87 528.606 2
-1 -5 3 4263.62 540.297 9
1 -5 3 4120.69 541.762 9
1 -5 3 3382.32 496.7 15
5 -1 3 3310.35 400.041 9
-1 5 -3 3927.46 527.561 3
1 5 -3 3576.88 499.924 3
5 -1 -3 3022.96 482.093 13
-1 -5 3 3492.95 479.712 16
-5 1 -3 3888.32 506.554 8
1 -5 3 3515.44 526.084 16
-5 -1 3 3578.28 424.006 8
5 1 3 3171.39 536.944 4
-1 -5 3 3496.23 492.795 15
-1 -5 3 4059.07 446.551 7
-1 -5 4 19547.6 1005.16 7
-5 -1 4 16854.1 1146.15 7
5 1 -4 17368.5 1150.76 13
5 -1 -4 17555.2 1184.29 13
5 -1 4 17513.2 1178.19 4
5 1 -4 18167.5 1012.52 12
5 1 -4 17923.3 1174.91 11
5 -1 -4 18608.8 1222.97 11
-1 5 -4 19285 1159.3 6
1 5 -4 18137.7 1178.62 6
5 1 -4 16901 1023.56 6
-1 5 -4 19886 1228.46 3
-5 1 -4 19098.8 1155.97 10
1 -5 4 20402.6 1246.32 9
5 -1 4 17291.6 1055.72 9
-5 1 -4 17624 1033.32 8
-1 -5 4 17718.5 1154.58 1
1 -5 4 17114.1 1137.92 16
-1 -5 4 16084.1 1042.96 16
1 -5 4 16739.7 1138.59 1
1 -5 4 18374.5 1175.32 15
-1 -5 4 18811.5 1183.62 15
-1 5 -4 18864.8 1173.06 2
-5 1 -4 18781.2 1132.74 14
-1 5 -5 300.806 259.404 12
-5 1 -5 739.427 325.826 14
-1 -5 5 929.728 382.452 1
5 1 -5 -28.9136 283.797 13
5 -1 -5 460.478 294.018 13
1 5 -5 680.436 359.652 12
-5 -1 5 693.35 415.101 7
5 1 -5 107.01 259.417 12
-1 5 -5 836.141 308.437 2
-5 1 5 535.261 342.194 7
-1 -5 5 900.321 342.116 16
1 -5 5 398.567 335.11 1
1 5 -5 1029.88 340.133 2
5 1 -5 419.733 311.985 11
5 -1 -5 992.489 386.809 11
1 5 -5 679.807 318.805 6
-1 5 -5 847.854 345.16 6
-5 1 -5 1155.09 398.791 10
5 1 -5 199.251 224.487 6
-1 5 -5 795.761 314.653 10
1 5 -5 457.874 316.057 5
-1 5 -5 1049.09 432.081 5
-1 5 -5 353.992 292.229 3
-1 -5 5 896.047 388.557 9
1 -5 5 1149.97 419.99 9
1 5 -5 452.576 264.705 3
5 -1 5 338.756 276.249 9
1 -5 5 565.978 284.471 16
1 -5 5 252.714 296.645 15
-1 -5 5 807.371 360.484 15
5 -1 5 358.223 321.674 4
5 1 -6 1518.26 524.255 13
1 5 -6 1343.22 475.876 12
-1 5 -6 1458.46 461.396 12
-1 5 -6 836.968 342.934 2
5 1 -6 386.533 290.058 12
-1 -5 6 935.14 458.017 1
1 5 -6 731.073 354.665 2
1 -5 6 532.694 325.77 16
1 -5 6 1284.39 480.842 1
5 1 -6 1046.91 448.876 11
1 5 -6 1548.17 499.03 6
-1 5 -6 514.802 359.944 6
-5 1 -6 1012.98 472.796 10
-1 5 -6 549.1 297.264 10
-1 5 -6 934.829 359.882 3
1 5 -6 1256.69 469.42 3
1 5 -6 944.194 402.056 5
-1 5 -6 905.964 407.354 5
-1 -5 6 630.616 351.023 9
1 -5 6 1701.97 509.305 9
5 -1 6 1108.65 442.453 9
-1 -5 6 1308.51 415.899 16
1 -5 6 925.291 413.483 15
-1 -5 6 756.257 355.909 15
5 -1 6 712.351 432.102 4
-5 -1 6 1444.45 504.619 7
5 1 -7 804.016 448.023 13
-1 5 -7 210.893 322.472 2
-5 -1 7 -336.956 375.655 7
1 5 -7 863.339 472.288 12
-1 5 -7 239.937 347.404 12
1 -5 7 613.937 477.843 1
1 -5 7 -10.7005 361.396 16
5 1 -7 -89.0502 362.107 11
1 5 -7 556.992 417.902 6
-1 5 -7 -223.386 391.777 6
-1 5 -7 762.526 474.647 3
1 5 -7 458.977 403.778 3
-1 -5 7 157.34 342.881 9
1 -5 7 719.926 407.625 9
1 5 -7 99.602 405.698 5
-1 5 -7 944.497 496.388 5
-1 -5 7 305.999 341.285 1
1 -5 7 1114.71 565.346 15
-1 -5 7 125.808 381.438 15
-5 -2 0 -102.381 142.059 14
5 2 0 -211.752 215.922 13
-5 -2 0 315.289 218.504 7
5 -2 0 -412.788 243.158 4
-5 2 0 131.903 147.446 7
-5 2 0 9.23166 137.259 2
5 2 0 217.84 231.68 11
5 -2 0 -31.2524 119.538 11
5 -2 0 -187.847 155.754 13
5 2 0 19.6233 248.769 4
-5 -2 0 -10.713 191.721 8
5 -2 0 -142.996 151.688 16
-5 2 0 -281.484 227.838 8
-2 5 -1 56872.8 1904.96 2
-5 -2 1 54960.4 1802.61 7
5 2 -1 60099.8 1885.05 13
5 -2 1 56608.7 1414.15 11
5 -2 1 58485.4 1963.2 4
-5 2 -1 54507.2 1726.42 10
2 -5 1 48442.1 1802.58 1
-5 -2 -1 57165.1 1799.12 8
-5 2 -1 54859.2 1843.36 8
5 -2 1 56658.8 1647.62 16
5 2 1 58319.6 1983.89 4
-5 2 -1 58461.1 1645.73 2
2 -5 1 58254.5 1931.46 15
5 2 -2 31.0721 146.065 4
5 -2 2 127.792 212.246 4
5 -2 2 -17.5976 136.802 1
5 2 -2 272.84 242.493 13
-2 -5 2 96.1575 224.893 1
-5 -2 2 71.9676 197.755 7
5 -2 -2 -122.859 206.621 13
2 -5 2 350.845 261.86 1
-5 2 2 363.488 239.971 7
5 -2 -2 4.85866 226.603 4
2 5 -2 -87.7438 248.395 6
5 2 -2 -40.242 194.418 11
5 2 -2 59.6527 150.409 6
5 -2 2 -127.633 170.218 15
5 -2 -2 320.135 230.801 11
-2 5 -2 171.731 237.266 2
-5 2 -2 -60.5805 189.209 10
-5 2 -2 -152.108 144.791 3
2 -5 2 300.558 209.163 9
5 -2 2 -107.892 147.894 9
2 -5 2 64.965 188.651 15
-2 5 -2 53.7046 177.429 3
5 -2 2 22.818 177.607 16
-5 -2 2 -209.378 164.583 8
2 -5 2 43.482 216.673 16
-5 2 -2 -84.0448 196.74 8
-5 2 2 -303.89 282.098 8
-2 5 -2 221.629 225.218 8
-2 -5 2 19.7129 195.539 15
5 -2 3 4753.52 490.78 1
-2 -5 3 3972.49 502.338 16
-5 2 -3 3549.49 509.735 14
2 5 -3 5014.9 557.083 13
5 -2 3 4614.4 596.11 4
-2 -5 3 4644.62 521.237 7
5 2 -3 4419.5 565.189 13
5 -2 -3 4351.36 577.834 13
-5 -2 3 4938.77 609.506 7
-5 2 3 4806.78 628.226 7
2 5 -3 4605.6 507.637 11
-2 -5 3 4255.69 561.747 1
5 2 -3 4915.11 600.586 11
5 2 -3 4092.74 473.776 12
-2 5 -3 5665.21 579.426 6
5 2 -3 4507.8 523.469 6
2 -5 3 4426.11 540.158 4
-2 5 -3 4462.67 581.673 2
2 5 -3 5217.86 619.224 6
2 -5 3 4884.93 589.021 1
5 -2 -3 4865.25 618.336 11
2 5 -3 5038.3 588.913 3
-5 2 -3 4093.18 467.229 3
-5 2 -3 4983.77 600.029 10
5 -2 3 4771.19 505.391 9
-2 5 -3 4649.36 604.344 3
-5 -2 3 4859.94 487.143 8
5 -2 3 4360.63 568.899 16
2 -5 3 5263.67 644.276 16
-5 2 -3 4225.93 531.642 8
5 -2 3 5077.69 509.09 15
2 -5 3 4256.93 569.299 15
-2 -5 3 4465.61 563.862 15
-5 2 3 4513.33 592.341 8
-2 -5 4 323.137 247.676 16
-5 2 -4 -36.3396 244.214 14
2 -5 4 -85.3886 265.615 16
-2 5 -4 370.426 285.803 14
5 -2 4 126.071 269.95 4
2 5 -4 -167.126 214.75 13
-2 -5 4 379.84 278.909 7
5 -2 -4 45.9657 248.287 13
-2 5 -4 -29.3796 238.781 12
-2 5 -4 196.592 298.784 2
-5 2 4 -512.567 378.85 7
2 5 -4 -45.8769 194.991 11
-2 5 -4 -202.583 235.691 6
2 5 -4 288.814 289.99 6
5 -2 -4 -346.084 255.445 11
-5 2 -4 -88.0993 237.021 8
-5 2 -4 27.8405 246.418 10
-2 -5 4 174.905 228.549 1
2 5 -4 519.528 259.423 2
-2 5 -4 -142.615 272.069 5
-2 -5 4 80.2177 224.467 9
2 -5 4 56.3297 249.392 9
-2 5 -4 -27.7546 242.773 3
2 -5 4 -119.64 312.131 1
5 -2 4 -113.041 216.695 9
2 5 -4 184.436 261.571 3
5 -2 4 39.6539 246.078 16
5 -2 4 -22.9888 200.959 1
5 -2 4 298.248 278.998 15
2 -5 4 95.3829 238.279 15
-2 -5 4 -428.88 275.8 15
-5 2 4 -111.803 255.571 8
-5 2 -5 2446.92 501.814 14
2 -5 5 2115.83 495.055 1
5 -2 5 2472 526.386 4
-2 -5 5 2460.58 444.251 7
5 2 -5 2025.15 473.662 13
2 5 -5 1419.62 427.962 12
-2 5 -5 1933.73 438.805 12
-2 5 -5 2591.32 539.097 2
5 2 -5 2523.95 456.764 12
2 -5 5 2682.73 566.787 16
5 2 -5 1774.18 466.712 11
-2 5 -5 2242.61 435.58 6
2 5 -5 1691.19 467.202 6
5 2 -5 1685.9 460.502 6
-5 2 -5 2594.23 539.842 10
-2 5 -5 2470.54 436.353 10
2 5 -5 2440.52 519.43 5
-2 5 -5 2042.86 484.017 5
-2 5 -5 2286.53 478.731 3
-2 -5 5 2345.72 485.074 9
2 5 -5 2148.06 435.446 3
5 -2 5 2691.48 531.864 9
-2 -5 5 2621.93 512.07 1
-5 -2 5 1988.89 479.475 7
2 -5 5 2596.5 504.562 15
-2 -5 5 2120.19 455.166 15
-5 2 -6 157.475 259.336 14
5 -2 6 -142.023 310.026 4
5 2 -6 285.901 296.961 13
-2 5 -6 3.58036 332.771 2
2 5 -6 204.844 345.359 12
-2 5 -6 -455.068 318.735 12
5 2 -6 82.8934 283.132 12
-2 -5 6 -750.407 432.914 1
5 2 -6 -672.81 381.232 11
2 -5 6 208.375 303.922 1
2 5 -6 -229.089 378.213 6
-2 5 -6 -398.137 369.995 6
-5 2 -6 152.205 396.392 10
5 2 -6 254.002 272.588 6
-2 5 -6 -202.249 285.409 10
-2 5 -6 424.999 364.643 3
-5 -2 6 362.967 353.896 7
2 5 -6 46.8578 316.354 5
-2 -5 6 -115.836 320.316 9
-2 5 -6 -405.23 430.229 5
2 5 -6 29.4948 291.449 3
2 -5 6 188.606 357.458 9
5 -2 6 154.872 345.873 9
2 -5 6 398.014 349.77 16
2 -5 6 592.032 425.905 15
-2 -5 6 -51.6347 324.298 15
-2 -5 7 2272.31 621.22 1
-2 5 -7 1919.33 562.278 2
-5 -2 7 2131.26 589.53 7
-2 5 -7 2468.47 617.616 12
5 2 -7 2364.61 579.303 12
2 5 -7 2275.01 569.125 6
-2 5 -7 1888.35 515.159 6
-5 2 -7 2721.2 636.862 10
5 2 -7 328.283 389.48 6
-2 5 -7 1794.29 531.906 10
-2 5 -7 1397.85 514.922 3
2 5 -7 2450.88 584.381 3
-2 -5 7 1844.58 542.06 9
2 -5 7 1994.37 573.352 9
2 5 -7 1038.54 491.075 5
-2 5 -7 1256.73 489.318 5
5 -2 7 1715.66 560.315 9
2 -5 7 1263.02 491.253 15
-2 -5 7 2612.28 623.795 15
2 -5 7 1421.51 470.563 16
2 -5 7 1354.7 484.442 1
5 3 0 299.279 215.901 13
-5 -3 0 378.867 223.77 7
5 -3 0 -386.249 338.291 4
5 3 0 156.759 224.928 11
5 -3 0 92.2117 127.119 11
-5 3 0 467.148 213.774 2
5 -3 0 386.411 185.194 13
5 3 0 -50.9053 234.667 4
-5 3 0 670.366 261.009 8
-5 3 1 11473.9 781.279 7
5 -3 -1 12804.7 837.068 13
-3 5 -1 13608.9 930.462 2
5 -3 -1 11563 786.367 11
-5 3 -1 12061.5 881.553 8
5 -3 1 11529.4 791.953 16
-5 3 1 12765.1 959.484 8
5 -3 1 13473.9 994.655 4
5 -3 -1 11903.4 982.447 4
-5 3 -1 12280.9 780.565 2
-3 -5 2 2226.11 386.211 7
5 3 -2 1981.53 399.826 13
5 -3 2 2308.38 396.058 16
-5 -3 2 1709.54 401.41 7
-5 3 -2 2244.53 385.906 2
-3 -5 2 2076.4 396.831 1
5 -3 2 2454.2 472.821 4
5 -3 2 1921.84 313.648 1
-5 3 2 1980.05 399.672 7
3 -5 2 1540.26 371.665 1
3 -5 2 1498.53 350.524 4
3 5 -2 1800.52 353.044 11
5 -3 -2 1795.9 436.47 4
-5 -3 2 2067.23 320.126 8
3 5 -2 1726.33 360.576 6
5 3 -2 1700.39 361.277 6
-3 5 -2 1911.62 394.394 2
5 -3 -2 2081.92 407.622 11
-5 3 2 2296.36 476.588 8
-5 3 -2 2515.22 437.36 10
5 -3 2 2554.32 352.865 9
-5 3 -2 1945.07 300.178 3
-3 5 -2 2061.77 400.242 3
-3 5 -2 2093.97 363.439 8
3 -5 2 1966.55 421.999 16
-5 3 -2 2354.14 416.619 8
5 -3 2 1734.9 308.149 15
3 -5 2 1864.46 381.278 15
-3 -5 2 2115.31 371.967 15
-5 3 -3 9709.85 860.087 14
-5 -3 3 9328.33 860.813 7
3 5 -3 10889 862.103 13
5 3 -3 9286.7 835.883 13
5 -3 3 9643.67 872.079 4
-3 -5 3 9359.1 781.224 7
3 5 -3 9437.16 784.117 11
5 3 -3 7835.76 756.689 11
-3 5 -3 9278.79 727.709 6
3 5 -3 9737.99 882.085 6
5 3 -3 8691.07 751.464 6
-5 3 -3 9598.03 738.503 3
-3 5 -3 8924.09 786.632 3
-5 3 -3 9360.61 824.343 10
3 5 -3 8690.33 755.343 3
5 -3 3 9391.02 723.321 1
5 -3 3 7694.62 648.205 9
-3 -5 3 8765.25 791.909 1
3 -5 3 8570.69 801.984 1
-5 3 -3 9704.29 801.253 8
5 -3 3 10213.8 865.589 16
3 -5 3 8876.4 843.296 16
-3 -5 3 8686.74 706.315 16
-5 3 -3 9329.91 802.042 2
5 -3 3 8044.87 694.979 15
3 -5 3 9618.63 832.905 15
-3 -5 3 8764 779.144 15
-3 5 -3 9906.81 877.931 2
-5 3 -4 4063.19 618.678 14
-5 3 -4 3052.53 541.1 2
3 5 -4 3149.24 500.241 13
5 -3 4 3639.63 574.113 4
-3 -5 4 3157.29 516.378 7
5 3 -4 3008.87 555.815 13
3 -5 4 3291.42 561.643 1
-5 -3 4 4139.84 626.443 7
5 3 -4 2445.5 447.875 12
-3 5 -4 3223.51 515.493 12
-3 5 -4 2485.87 514.991 2
5 -3 4 2652.37 456.173 1
3 5 -4 3080.39 513.315 11
5 3 -4 3416.66 598.611 11
-3 5 -4 3327.75 500.319 6
3 5 -4 3873.83 608.692 6
5 3 -4 4000.88 587.989 6
-5 3 -4 3129.1 511.799 10
-5 3 -4 3551.45 503.784 3
-3 -5 4 3785.86 538.585 1
-3 5 -4 3698.43 587.696 10
-3 5 -4 3588.76 565.349 5
-3 -5 4 3866.22 537.795 9
3 -5 4 3232.25 526.985 9
-3 5 -4 3408.37 558.192 3
5 -3 4 3029.12 462.62 9
3 5 -4 2981.81 477.806 3
5 -3 4 3791.3 620.456 16
3 -5 4 3490.91 577.145 16
-5 3 -4 3428.16 510.384 8
5 -3 4 3517.34 542.199 15
3 -5 4 2705.21 515.511 15
-3 -5 4 3465.49 532.578 15
-5 3 -5 1774.68 487.938 14
5 -3 5 1852.34 447.366 1
5 -3 5 1351.22 380.228 4
3 -5 5 2698.17 595.735 16
3 5 -5 1947.88 461.827 13
5 3 -5 1461.21 422.308 13
-3 -5 5 2327.07 474.938 7
-5 -3 5 2414.85 513.285 7
3 5 -5 1103.33 462.229 12
-3 5 -5 1830.42 479.886 2
5 3 -5 1762.94 421.293 12
3 -5 5 1670.92 498.149 1
-3 5 -5 1823.43 475.81 12
3 5 -5 1680.94 438.296 11
5 3 -5 1545.93 520.556 11
3 5 -5 1653.36 519.089 6
5 3 -5 912.812 427.679 6
-5 3 -5 1597.58 469.053 10
-5 3 -5 1521.77 416.138 3
-3 5 -5 977.713 390.733 10
3 5 -5 1639.09 448.28 5
-3 -5 5 2079.53 459.606 9
-3 5 -5 1742.47 414.067 3
-3 5 -5 1301.26 385.506 5
3 -5 5 2183.93 477.694 9
5 -3 5 1726.11 416.587 9
3 5 -5 2613.13 522.614 3
5 -3 5 2092.68 556.346 16
5 -3 5 2386.76 503.868 15
-3 -5 5 2574.64 521.964 1
3 -5 5 877.244 368.63 15
-3 -5 5 1368.7 366.043 15
-5 3 -6 286.492 310.932 14
3 -5 6 766.02 423.689 16
5 3 -6 309.297 323.419 13
-3 -5 6 731.628 423.853 7
-3 5 -6 651.491 396.607 2
-5 -3 6 958.844 378.488 7
3 5 -6 943.473 403.63 12
5 3 -6 318.209 295.087 12
-3 5 -6 756.637 375.784 12
5 -3 6 308.204 356.718 1
-3 -5 6 648.506 392.201 1
5 3 -6 607.773 406.422 11
3 5 -6 55.6248 338.014 6
5 3 -6 -266.502 315.309 6
-5 3 -6 229.806 385.636 10
-5 3 -6 35.1959 303.068 3
-3 5 -6 376.17 331.468 10
3 -5 6 773.562 426.573 1
-3 5 -6 291.486 337.024 3
-3 -5 6 188.233 288.857 9
3 5 -6 825.334 389.496 5
3 -5 6 454.207 429.121 9
-3 5 -6 296.663 309.154 5
5 -3 6 603.243 379.451 9
3 5 -6 583.571 378.425 3
5 -3 6 915.539 394.101 16
5 -3 6 199.287 385.962 15
3 -5 6 201.6 330.13 15
-3 -5 6 820.601 426.716 15
5 3 -7 958.357 478.377 13
-5 -3 7 2084.58 602.031 7
5 3 -7 238.251 325.985 12
-3 5 -7 -721.557 598.617 12
5 3 -7 405.748 382.113 11
5 3 -7 -217.438 451.201 6
-5 3 -7 701.832 451.601 3
-3 5 -7 564.721 467.138 10
3 5 -7 644.957 416.514 3
3 5 -7 821.953 422.667 5
5 -3 7 566.451 372.462 9
-3 5 -7 194.591 495.03 5
-3 -5 7 561.94 351.002 15
-3 -5 7 1369.05 534.753 1
5 -4 0 -67.368 292.174 4
-5 4 0 -6.1609 189.648 2
5 -4 0 136.867 263.947 16
-5 4 0 98.48 227.859 8
5 4 -1 2607.86 472.875 13
-5 -4 1 3530.78 532.472 7
4 -5 1 2216.85 398.708 1
5 -4 1 2246.97 410.895 16
5 -4 1 2775.01 490.397 4
4 -5 1 2047.39 436.298 4
5 4 -1 3117.18 503.936 11
-5 4 -1 3251.47 466.694 2
-4 5 -1 3053.31 461.584 2
4 -5 1 3674.4 539.013 16
4 -5 1 3065.87 456.58 15
5 4 -1 2784.3 434.957 4
-5 4 -1 2605.16 456.7 8
-4 5 -1 2371.52 467.438 8
-4 -5 2 19213.1 1149.82 7
-5 -4 2 20276.1 1230.71 7
4 5 -2 19385.4 1206.77 13
5 4 -2 20699.7 1255.39 13
4 5 -2 19181.4 1172.04 11
5 4 -2 17271.2 1145.38 11
5 4 -2 18973.8 1139.37 6
-5 4 -2 16939.4 936.678 3
-4 5 -2 17404.7 1040.79 3
5 -4 2 17536.7 952.916 9
-4 -5 2 15168.1 1036.78 1
4 -5 2 16225.5 1035.97 1
-5 4 -2 17427 1100.51 8
5 -4 2 17634.4 1109.92 16
-4 5 -2 16956.2 1054.22 8
4 -5 2 17131 1135.38 16
5 -4 2 16790.1 946.403 1
5 -4 2 17835.5 991.69 15
5 -4 2 17503.2 1188.69 4
4 -5 2 15293.6 1008.55 15
-4 -5 2 16992.5 1041.61 15
4 -5 2 17056.5 1174.03 4
-5 4 -2 16873.3 1068.85 2
-4 5 -2 17034.5 1117.94 2
4 5 -3 818.415 301.676 13
5 4 -3 1246.49 445.722 13
-4 -5 3 1500.17 436.799 7
-5 -4 3 1194.31 392.431 7
5 -4 3 866.29 278.269 1
-5 4 -3 359.047 257.16 2
5 -4 3 869.998 367.425 4
4 -5 3 1542.57 399.884 4
-4 5 -3 670.959 345.387 2
-4 -5 3 570.999 278.066 1
4 5 -3 712.538 359.761 11
5 4 -3 175.487 277.919 11
4 -5 3 972.283 368.176 16
4 5 -3 1341.17 397.883 6
5 4 -3 750.308 313.178 6
-5 4 -3 1190.4 413.399 10
4 -5 3 740.059 290.898 1
4 -5 3 469.711 332.005 9
5 -4 3 1270.48 319.046 9
-5 4 -3 729.471 284.864 3
-4 5 -3 834.347 310.607 3
5 -4 3 1245.09 411.028 16
-5 4 -3 631.892 268.478 8
5 -4 3 712.033 273.843 15
4 -5 3 1033.96 351.963 15
-4 -5 3 1113.62 347.059 15
-5 4 -4 682.559 372.9 14
-4 5 -4 293.816 267.09 14
4 5 -4 323.864 335.384 13
5 4 -4 -406.79 319.404 13
-4 -5 4 14.0687 298.361 7
-5 4 -4 42.2629 275.766 2
-5 -4 4 -66.6607 297.935 7
5 -4 4 -310.475 360.267 4
-4 5 -4 307.575 264.821 2
4 -5 4 -403.758 356.734 4
4 5 -4 120.883 317.858 11
5 4 -4 114.113 291.428 11
4 5 -4 231.066 303.373 6
5 4 -4 2.90266 288.895 6
-5 4 -4 429.439 371.313 10
-4 5 -4 90.8331 296.237 10
5 -4 4 -15.2081 257.394 1
-4 -5 4 -90.4328 273.16 1
-4 5 -4 69.5979 232.542 5
-5 4 -4 130.284 292.607 3
4 -5 4 428.505 326.184 9
5 -4 4 812.647 356.643 9
-4 5 -4 186.41 250.742 3
4 5 -4 236.398 251.798 3
5 -4 4 176.883 294.812 16
4 -5 4 63.3532 256.242 16
5 -4 4 -334.966 355.559 15
4 -5 4 176.026 278.275 15
-4 -5 4 -6.58538 223.755 15
4 -5 4 5.76275 261.546 1
-5 4 -5 185.254 336.595 14
-4 5 -5 -339.626 328.843 14
4 5 -5 814.612 444.5 13
5 -4 5 267.157 286.784 1
5 4 -5 444.479 320.903 13
-4 -5 5 98.4822 302.007 7
-5 -4 5 -19.8004 324.846 7
5 -4 5 -135.14 364.352 16
4 5 -5 557.396 367.736 12
-4 5 -5 548.602 317.697 2
5 4 -5 -183.098 303.808 12
4 5 -5 -331.307 353.372 11
5 4 -5 -263.808 343.837 11
4 -5 5 477.274 404.135 1
4 5 -5 71.6067 308.093 6
5 4 -5 213.649 312.377 6
-5 4 -5 301.674 342.422 10
-4 5 -5 -460.789 390.549 10
-5 4 -5 -0.30868 282.189 3
4 5 -5 251.943 324.658 5
-4 5 -5 398.798 307.93 3
4 -5 5 325.829 306.204 9
-4 5 -5 242.361 249.913 5
5 -4 5 167.624 282.489 9
4 -5 5 -376.616 322.232 16
5 -4 5 344.398 341.449 15
4 -5 5 83.4901 307.298 15
-5 4 -6 1550.4 464.975 14
-5 4 -6 2912.34 651.769 2
4 5 -6 3428.03 632.081 13
5 4 -6 2064.19 565.068 13
-4 -5 6 2072.65 565.388 7
-5 -4 6 1847.78 555.255 7
-4 5 -6 1707.77 502.394 2
4 5 -6 2892.9 644.505 12
5 4 -6 2586.16 567.995 12
5 4 -6 1527.59 597.743 11
4 5 -6 2071.16 654.211 6
5 4 -6 1317.93 506.32 6
-5 4 -6 1944.39 565.669 10
-4 5 -6 3020.15 635.46 10
-5 4 -6 2544.15 608.99 3
-4 5 -6 2396.1 535.266 3
4 5 -6 2145.52 570.276 5
4 -5 6 2594.24 631.386 9
5 -4 6 2071.25 548.003 9
-4 5 -6 2407.22 568.164 5
5 -4 6 1614.23 486.938 1
5 -4 6 2091.29 582.433 16
4 -5 6 2827.47 689.681 16
4 -5 6 1803.81 578.093 1
5 -4 6 2002.61 553.408 15
4 -5 6 3126.96 634.735 15
-5 4 -7 -141.209 353.888 14
-5 5 0 10200.6 968.705 8
5 -5 0 8322.81 819.136 16
5 -5 0 8526.08 952.34 4
5 -5 1 536.571 384.826 4
-5 5 -1 129.156 229.732 2
5 -5 1 104.263 259.066 16
-5 5 -1 -66.1783 252.456 8
5 5 -2 581.118 360.556 13
-5 -5 2 449.214 334.676 7
5 -5 2 746.861 398.734 4
5 5 -2 348.369 270.605 11
-5 5 -2 639.373 324.384 2
5 -5 2 514.601 264.648 1
5 -5 2 -10.3814 262.944 16
-5 5 -2 281.886 273.011 8
5 5 -3 79.8959 326.898 13
-5 -5 3 -346.693 339.027 7
5 5 -3 196.879 346.536 11
5 5 -3 -324.191 329.08 6
-5 5 -3 -302.019 352.436 10
5 -5 3 -949.767 429.726 9
-5 5 -3 -236.13 394.469 3
-5 5 -3 679.958 410.833 8
-5 5 -4 9495.38 945.336 14
-5 -5 4 11378 1041.3 7
5 5 -4 11696.8 1101.95 13
5 5 -4 8265.39 933.999 11
5 5 -4 11476.7 1072.78 6
-5 5 -4 9181.06 859.001 3
-5 5 -4 10070.7 1028.77 10
5 -5 4 9113 872.08 9
5 -5 4 9135.63 970.992 16
5 -5 4 10046.7 949.308 15
5 -5 4 9027.06 889.451 1
5 -5 4 11050.7 1044.41 4
-5 5 -4 9493.43 963.695 2
-5 5 -5 -253.021 387.081 14
-5 -5 5 -310.345 400.992 7
-5 5 -5 -453.727 359.782 2
5 -5 5 -269.24 460.711 16
5 5 -5 -984.598 634.436 6
-5 5 -5 59.6688 349.769 10
5 -5 5 46.7475 297.429 9
-5 5 -5 371.327 350.193 3
5 -5 5 -696.234 411.912 1
5 -5 5 183.398 360.975 15
-5 5 -6 110.519 331.25 14
5 5 -6 1791.65 601.324 13
5 -5 6 -41.798 352.933 1
5 5 -6 2244.64 627.116 11
5 5 -6 415.248 500.145 6
-5 5 -6 590.125 377.394 3
5 -5 6 333.2 360.364 9
5 -5 6 641.139 409.909 15
-6 0 0 9341.99 698.334 7
6 0 0 9020.3 769.344 4
6 0 0 9542.63 705.367 13
6 0 0 9525.56 724.346 11
-6 0 0 8864.03 597.617 10
-6 0 0 8917.65 771.832 8
-6 0 -1 15388.4 956.991 14
-6 0 -1 15441.1 821.06 7
-6 0 1 14661.4 923.229 7
6 0 1 14692.2 844.905 13
6 0 -1 13340.2 897.199 13
6 0 1 15195.8 903.468 11
6 0 -1 13973.8 908.725 11
-6 0 -1 14682.7 823.702 10
-6 0 -1 13138.4 948.552 8
-6 0 1 13368.9 930.12 8
6 0 1 13188.7 970.238 4
6 0 -1 13177.1 910.102 4
6 0 2 2931.87 533.601 4
-6 0 -2 3585.94 535.982 14
6 0 -2 1956.08 407.045 13
6 0 -2 2042.39 410.853 4
-6 0 2 1498.7 378.83 7
6 0 -2 1331.24 367.82 11
-6 0 -2 2698.35 416.583 10
-6 0 2 1589.22 363.084 8
0 6 -3 8145.44 795.718 2
-6 0 3 7021.55 747.429 7
6 0 -3 8077.98 811.727 13
0 -6 3 6936.13 763.912 1
0 6 -3 8092.88 815.146 6
6 0 -3 6993.26 733.15 11
-6 0 -3 8107.14 750.494 10
0 6 -3 8240.02 814.024 3
-6 0 -3 7087.39 733.841 8
-6 0 3 7097.55 686.803 8
0 -6 3 8567.49 842.77 16
6 0 3 7299.87 800.49 4
0 -6 3 7889.65 798.878 15
6 0 -3 8283.75 734.28 4
-6 0 -3 8488.8 784.119 14
-6 0 -4 -140.724 238.896 14
6 0 -4 -502.308 351.316 13
-6 0 4 408.405 346.735 7
0 6 -4 222.585 260.11 6
6 0 -4 369.039 333.086 11
0 -6 4 -222.595 339.489 1
-6 0 -4 174.559 256.709 10
0 6 -4 -27.4021 274.828 2
0 -6 4 142.173 271.364 9
0 6 -4 496.075 373.273 3
-6 0 -4 152.216 245.642 8
0 -6 4 -31.463 265.194 16
-6 0 4 -22.7442 262.741 8
0 -6 4 -202.605 303.162 15
6 0 4 424.711 267.613 4
6 0 -5 2010.66 460.087 13
0 -6 5 2152.69 513.614 16
0 6 -5 747.263 364.249 12
-6 0 5 1680.09 522.314 7
0 6 -5 2186.12 568.845 6
6 0 -5 1404.14 472.475 11
0 6 -5 1893.78 503.809 2
0 6 -5 2173.36 514.841 5
0 -6 5 2002 511.755 9
0 6 -5 2126.39 530.557 3
0 -6 5 1660.54 502.602 1
0 -6 5 2013.59 501.173 15
0 -6 6 205.819 345.001 1
6 0 -6 98.805 350.606 13
0 6 -6 140.475 383.516 12
-6 0 6 -87.0679 469.548 7
0 6 -6 -574.436 393.18 2
6 0 -6 645.246 396.132 11
0 6 -6 270.987 370.837 6
0 6 -6 149.804 345.761 5
0 -6 6 -528.974 424.002 9
0 6 -6 1261.85 549.137 3
0 -6 6 586.885 404.623 16
0 -6 6 464.474 406.899 15
0 6 -7 680.909 469.171 2
0 -6 7 1442.17 548.759 16
6 1 0 96.1824 202.319 4
-6 -1 0 7.72141 179.972 14
6 1 0 334.422 209.196 13
6 -1 0 2.66028 197.933 4
-6 -1 0 -32.4948 242.484 7
6 -1 0 112.477 167.109 13
-6 1 0 9.98814 148.195 7
6 1 0 186.383 172.382 11
6 -1 0 60.2332 163.269 11
-6 1 0 74.314 163.764 10
-6 -1 0 113.338 217.575 8
-6 1 0 -441.008 317.079 8
-6 -1 -1 10747.9 778.777 14
-6 -1 1 10517.9 692.305 14
-6 -1 1 12059.5 863.653 7
6 1 1 12327.4 828.717 13
6 1 -1 10324.3 803.54 13
6 -1 -1 10726.4 789.431 13
6 -1 1 11023.8 900.591 4
6 1 1 11001.5 813.55 11
6 -1 1 11370.3 728.833 11
6 1 -1 11231.4 838.128 11
6 -1 -1 9925.87 743.431 11
-6 1 -1 11122.1 751.865 10
-6 -1 -1 11163.5 866.469 8
-6 -1 1 11472 847.117 8
-6 1 -1 11454.9 881.532 8
6 1 1 9841.05 868.404 4
6 1 -1 10444.5 781.136 4
-6 -1 -1 10557.4 721.795 7
-6 -1 -2 1206.96 322.829 14
-6 1 -2 1124.29 343.315 14
6 -1 2 900.521 334.174 4
6 1 -2 929.487 332.794 13
6 1 -2 901.362 277.66 4
6 -1 -2 780.444 283.319 13
1 -6 2 1005.89 341.863 1
-6 -1 -2 270.881 237.558 8
-6 -1 2 1076.36 328.188 7
-6 1 2 1129.05 363.881 7
6 -1 -2 953.37 334.902 4
6 1 -2 1081.75 323.649 11
6 1 2 705.835 313.748 4
6 -1 -2 704.896 282.597 11
-6 1 -2 976.632 299.886 10
-6 1 -2 584.909 298.068 8
-6 -1 2 1108.28 300.369 8
-6 1 2 713.462 301.05 8
1 -6 2 902.304 318.651 15
-6 -1 -3 266.17 261.999 14
6 -1 3 316.27 296.485 4
-6 1 -3 -78.5727 271.719 14
1 -6 3 379.687 320.687 16
6 1 -3 262.609 285.561 13
6 -1 -3 -110.372 228.691 13
-6 -1 3 5.74247 258.82 7
-1 -6 3 757.549 365.942 1
-6 1 3 217.011 260.657 7
6 -1 -3 -224.372 275.82 4
1 -6 3 220.417 252.691 1
-1 6 -3 17.6821 215.888 6
1 6 -3 -88.2938 261.295 6
6 1 -3 -149.867 227.782 11
6 -1 -3 253.523 269.151 11
-6 1 -3 -229.116 241.268 10
-1 6 -3 102.509 212.99 2
1 -6 3 -309.126 230.86 9
-1 6 -3 199.624 286.707 3
-6 -1 -3 -25.9334 242.458 8
-6 1 -3 525.747 301.536 8
-1 -6 3 -307.71 245.366 15
-1 -6 3 81.7575 250.812 16
-6 -1 3 -301.546 242.692 8
-6 1 3 19.2175 263.64 8
6 1 3 350.11 350.974 4
1 -6 3 90.0797 245.018 15
6 -1 4 -179.815 280.424 4
-6 1 -4 -131.101 319.699 14
6 1 -4 -323.301 363.327 13
6 -1 -4 -61.5618 296.145 13
-6 -1 4 -447.364 336.385 7
-6 1 4 -298.039 349.694 7
-1 6 -4 172.672 271.873 6
1 6 -4 227.561 335.162 6
6 1 -4 407.257 336.005 11
-1 -6 4 141.797 255.922 15
6 -1 -4 -88.9193 267.384 11
-1 6 -4 -100.79 267.275 2
-1 -6 4 126.743 323.867 1
-6 1 -4 119.111 301.453 10
1 -6 4 125.788 270.411 1
1 6 -4 -40.6013 252.128 2
-1 -6 4 -284.529 292.027 9
1 -6 4 734.509 414.692 9
-1 6 -4 30.6597 280.587 3
1 6 -4 477.292 329.329 3
-6 1 -4 -27.5111 259.932 8
1 -6 4 91.9076 294.077 16
-1 -6 4 136.274 283.984 16
-6 1 4 -267.607 256.027 8
1 -6 4 235.148 287.768 15
6 -1 5 691.493 421.516 4
-6 1 -5 -51.8339 265.265 14
6 1 -5 -376.245 406.415 13
6 -1 -5 13.2429 298.667 13
-1 6 -5 703.681 423.334 12
-6 -1 5 -382.644 354.947 7
-6 1 5 -211.852 413.006 7
-1 6 -5 -441.482 347.794 2
6 1 -5 583.862 400.301 11
-1 6 -5 88.4837 316.291 6
1 6 -5 431.317 368.591 6
6 -1 -5 -1249.2 434.514 11
-6 1 -5 958.2 414.699 10
1 6 -5 -258.029 292.11 2
-1 6 -5 223.122 300.638 10
1 6 -5 -109.727 330.774 5
-1 6 -5 -204.817 360.678 5
-1 -6 5 -840.623 480.084 9
1 -6 5 -353.415 353.282 9
-1 6 -5 594.667 397.968 3
-1 -6 5 -407.348 286.673 1
1 6 -5 -49.2714 275.74 3
1 -6 5 -564.816 464.011 1
1 -6 5 7.35202 344.757 16
-1 -6 5 -203.423 299.252 16
1 -6 5 148.995 346.482 15
-1 -6 5 65.9984 315.45 15
6 -1 6 209.386 380.027 4
-1 -6 6 28.8172 325.855 1
6 1 -6 23.2243 340.732 13
6 -1 -6 -465.968 393.726 13
1 -6 6 140.023 321.227 1
1 6 -6 98.3434 367.591 12
-6 -1 6 -145.536 411.032 7
-1 6 -6 105.716 332.585 12
-6 1 6 680.935 467.404 7
-1 6 -6 129.705 371.26 2
6 1 -6 396.398 418.786 11
-1 6 -6 320.007 355.372 6
1 6 -6 347.979 443.435 6
1 6 -6 1017.09 440.495 2
-6 1 -6 40.0386 312.295 10
1 6 -6 430.611 420.471 5
-1 6 -6 767.739 448.292 5
-1 -6 6 594.289 419.606 9
1 -6 6 69.0064 375.725 9
-1 6 -6 125.476 389.573 3
1 6 -6 147.417 356.645 3
6 -1 6 153.655 345.606 9
1 -6 6 -140.481 320.234 16
-1 -6 6 -87.4152 295.437 16
1 -6 6 723.429 471.584 15
-1 -6 6 38.6819 316.262 15
-6 -2 0 9997.09 789.607 7
6 2 0 9711.44 808.913 13
6 -2 0 10102.8 688.526 13
6 2 0 10197 839.184 11
6 -2 0 8660.21 637.579 11
-6 2 0 10055.8 727.791 10
-6 -2 0 8925.25 765.273 8
-6 2 0 8536.92 794.732 8
6 2 0 8199.35 771.574 4
6 -2 0 8710.37 813.806 4
-6 -2 0 9422.78 656.516 14
-6 -2 -1 433.201 200.63 14
-6 2 -1 417.016 213.631 2
-6 -2 1 1217.42 370.498 7
6 -2 1 558.191 283.687 4
6 -2 -1 252.153 180.876 13
6 -2 -1 149.396 233.836 4
-6 2 1 349.006 243.924 7
6 2 -1 935.755 343.037 11
6 -2 -1 625.752 227.219 11
-6 2 -1 114.185 209.677 10
6 -2 1 275.258 157.016 16
-6 -2 -1 152.311 194.054 8
-6 -2 1 1870.94 412.713 8
-6 2 -1 781.999 347.624 8
-6 2 1 523.586 262.71 8
6 2 1 484.221 291.438 4
-6 2 -2 1009.22 270.853 2
6 -2 2 1801.19 450.939 4
-6 -2 2 1337.9 382.065 7
6 -2 -2 1184.64 415.282 13
2 -6 2 1190.8 360.038 1
-6 2 2 2021.16 426.732 7
6 -2 -2 1792.79 425.586 4
6 2 -2 1455.48 379.33 11
6 -2 -2 1168.38 332.74 11
-6 2 -2 1555.13 366.068 10
-2 6 -2 837.718 280.209 2
6 -2 2 1270.14 335.325 16
-2 6 -2 1260.8 368.79 3
-6 -2 2 1122.86 332.389 8
2 -6 2 1218.07 393.441 16
-6 2 -2 1634.1 400.056 8
-6 2 2 1668.14 420.462 8
2 -6 2 1375.7 391.306 15
-6 2 -3 495.657 324.046 14
6 -2 3 229.836 313.478 4
6 2 -3 90.3888 288.589 13
6 -2 -3 280.297 258.263 13
-6 -2 3 260.807 238.078 7
-2 -6 3 308.347 269.911 1
-6 2 3 17.5756 326.752 7
6 -2 -3 361.452 305.901 4
2 -6 3 188.183 240.655 1
-2 6 -3 242.432 230.185 6
2 6 -3 -18.8709 283.923 6
6 2 -3 -73.1299 254.735 11
6 -2 -3 402.094 260.892 11
-2 6 -3 525.006 362.049 2
-6 2 -3 -437.947 302.742 10
2 -6 3 598.612 321.207 9
-2 6 -3 383.165 235.585 3
6 -2 3 660.942 328.4 16
2 6 -3 -13.3152 244.121 3
2 -6 3 933.693 406.057 16
-6 2 -3 653.897 350.635 8
-2 -6 3 120.126 213.306 16
-6 2 3 19.9573 243.305 8
2 -6 3 69.563 257.169 15
-2 -6 3 533.206 280.235 15
-6 2 -4 12648.1 1035.94 14
-6 2 4 9054.79 962.075 7
6 -2 -4 11561.3 1044.71 13
-2 6 -4 11610.7 966.852 6
2 6 -4 12482 1100.31 6
6 -2 -4 10352.3 1021.49 11
-2 6 -4 13017.8 1076.58 3
-6 2 -4 11669.8 1005.63 10
2 6 -4 11396.7 983.809 3
2 -6 4 13529.8 1087.9 9
-2 -6 4 11163.3 991.445 1
-6 2 -4 11840.1 957.365 8
6 -2 4 10726.6 987.158 16
2 -6 4 11276.8 1046.53 16
-6 2 4 12216.2 1071.93 8
-2 -6 4 10400.8 913.603 16
2 -6 4 10326.4 978.089 1
6 -2 4 10515.6 996.772 4
2 -6 4 11535.1 1051.24 15
-2 -6 4 10494.9 970.566 15
-2 6 -4 12158.9 1051.74 2
-2 -6 4 13216.7 929.109 7
-6 2 -5 1495.3 501.708 14
6 -2 5 1606.33 510.812 4
6 2 -5 193.021 328.406 13
-6 -2 5 393.248 361.294 7
-2 6 -5 -571.79 369.834 12
-2 6 -5 383.729 357.513 2
6 2 -5 -673.831 404.143 11
-2 6 -5 282.743 342.45 6
2 6 -5 554.138 363.949 6
-6 2 -5 534.447 417.897 10
-2 6 -5 103.535 300.517 10
2 6 -5 -0.36706 298.808 5
-2 6 -5 338.311 371.961 5
-2 -6 5 537.595 410.89 9
2 -6 5 -89.7925 351.17 9
-2 6 -5 -288.862 413.578 3
-2 -6 5 -615.226 416.568 1
2 6 -5 -9.43834 295.958 3
-6 2 -5 696.718 349.725 8
2 -6 5 -62.6547 318.171 16
2 -6 5 97.1598 323.454 1
2 -6 5 642.728 388.911 15
-2 -6 5 -216.901 392.579 15
-6 2 -6 579.252 381.859 14
6 -2 6 -124.068 341.656 4
-2 -6 6 -56.9195 364.601 1
6 2 -6 299.45 372.635 13
-6 -2 6 997.723 467.685 7
2 6 -6 206.321 380.189 12
-2 6 -6 964.436 440.049 12
2 -6 6 942.627 452.975 1
-2 6 -6 20.9097 436.54 2
6 2 -6 231.949 420.238 11
-2 6 -6 691.173 373.256 6
2 6 -6 729.807 446.862 6
-6 2 -6 499.548 424.422 10
-2 6 -6 323.276 378.785 10
2 6 -6 1048.31 501.747 5
-2 -6 6 685.748 474.774 9
2 -6 6 785.563 478.102 9
-2 6 -6 169.953 339.603 5
-2 6 -6 1169.32 454.872 3
6 -2 6 711.786 391.282 9
2 6 -6 1495.96 532.255 3
2 -6 6 546.599 432.969 16
2 -6 6 1496.42 549.703 15
-2 -6 6 1364.34 525.979 15
-2 6 -7 377.879 490.973 6
6 -2 7 -655.401 522.63 9
-6 -3 0 -7.27782 207.639 7
6 3 0 217.896 245.992 13
6 -3 0 -112.397 260.969 4
6 3 0 -167.955 249.106 11
-6 3 0 -370.764 324.792 8
6 3 0 606.348 310.178 4
6 3 -1 1276.72 385.591 13
-6 -3 1 1565.17 420.356 7
6 -3 -1 1056.63 306.804 13
6 -3 1 1135.52 319.581 4
-6 3 -1 1551.3 358.128 2
6 -3 -1 941.725 276.56 4
6 3 -1 1173.3 352.061 11
6 -3 -1 546.073 230.021 11
-6 3 -1 1112.84 326.269 10
6 -3 1 1698.8 361.717 16
-6 3 -1 1281.14 408.292 8
-6 3 1 317.738 313.262 8
6 3 -1 497.111 247.165 4
-3 6 -2 6932.37 753.585 2
6 3 -2 6008.22 718.002 13
-6 -3 2 6673.66 752.779 7
6 -3 2 5359.21 714.246 4
6 -3 -2 5988.6 699.029 13
3 -6 2 5118.41 666.858 1
-6 3 2 5225.37 652.95 7
6 3 -2 6762.52 760.489 11
6 -3 -2 5664.69 670.501 11
-3 6 -2 5649.56 653.794 3
-6 3 -2 5221.66 648.682 10
-6 -3 2 5532.11 587.539 8
6 -3 2 5606.52 645.297 16
3 -6 2 6030.93 759.167 16
-6 3 -2 6143.15 636.473 2
-6 3 -2 6224.44 709.692 8
-6 3 2 6035.51 780.317 8
3 -6 2 5118.58 658.858 15
-3 6 -2 5315.03 618.657 8
-6 3 -3 157.923 280.063 14
-6 3 -3 548.452 282.479 2
6 3 -3 426.48 329.192 13
6 -3 3 465.308 275.162 4
-6 -3 3 31.3831 330.219 7
6 -3 -3 975.049 378.94 13
-3 -6 3 1303.2 400.669 1
-6 3 3 568.614 351.159 7
6 3 -3 192.454 244.649 11
3 6 -3 536.223 369.596 6
-3 6 -3 895.204 388.529 2
6 -3 -3 765.453 360.054 11
3 -6 3 824.53 377.901 1
-6 3 -3 966.459 371.802 10
3 -6 3 701.75 289.659 9
-3 6 -3 1022.78 352.647 3
6 -3 3 561.346 319.114 16
3 -6 3 670.845 324.487 16
-3 -6 3 640.002 299.425 16
-6 3 -3 1279.04 397.402 8
3 -6 3 768.477 375.64 15
-6 3 3 909.955 385.965 8
-3 -6 3 539.085 264.195 15
-6 3 -4 -450.996 335.434 14
-6 3 -4 500.525 347.154 2
3 6 -4 130.59 275.56 13
-3 -6 4 316.574 260.762 7
6 -3 4 121.271 285.899 4
6 3 -4 -232.902 355.813 13
-6 -3 4 542.278 387.07 7
-3 6 -4 -92.0954 265.513 12
3 6 -4 -64.5394 339.305 11
-3 6 -4 79.8002 303.111 2
6 3 -4 153.163 315.799 11
3 6 -4 4.89322 314.932 6
6 3 -4 3.2616 258.767 6
-3 -6 4 -514.21 343.99 1
-6 3 -4 -553.764 388.37 10
-3 6 -4 -288.842 299.272 5
3 -6 4 -103.182 271.733 9
3 -6 4 -26.0874 313.517 1
-3 6 -4 -42.4962 283.391 3
6 -3 4 -422.986 381.117 16
3 6 -4 94.7531 278.672 3
3 -6 4 560.763 407.92 16
-6 3 -4 -121.769 299.706 8
3 -6 4 -55.9508 353.484 15
-3 -6 4 -441.406 377.939 15
3 -6 5 832.712 418.826 1
-6 3 -5 262.102 366.497 14
-6 3 -5 161.304 311.236 2
-3 -6 5 512.266 397.669 7
6 -3 5 181.624 315.714 4
6 3 -5 1101.99 476.45 13
-6 -3 5 321.855 326.895 7
-3 6 -5 1141.8 512.208 2
6 3 -5 164.991 380.225 11
3 6 -5 874.558 463.511 6
6 3 -5 -583.745 328.872 6
-6 3 -5 -288.982 381.768 10
-3 6 -5 1056.53 472.518 10
3 6 -5 903.259 427.163 5
-3 6 -5 265.561 354.97 5
3 -6 5 769.608 419.048 9
-3 6 -5 326.116 362.853 3
-3 -6 5 -252.359 368.357 1
3 6 -5 609.868 333.999 3
6 -3 5 558.716 365.464 16
3 -6 5 962.499 490.864 16
3 -6 5 715.876 390.982 15
-3 -6 5 360.926 338.332 15
-6 3 -6 675.996 388.457 14
-6 3 -6 375.144 356.337 2
6 3 -6 1130.89 456.186 13
-3 -6 6 931.147 433.785 1
-6 -3 6 798.379 459.32 7
6 3 -6 869.969 487.171 11
3 -6 6 875.249 507.403 1
3 6 -6 717.514 432.717 6
6 3 -6 324.015 339.235 6
-6 3 -6 548.613 368.43 10
-3 6 -6 451.888 389.996 10
-3 -6 6 737.205 383.696 9
3 6 -6 498.042 361.091 5
3 -6 6 773.342 528.748 9
-3 6 -6 707.716 403.523 5
-3 6 -6 869.818 376.702 3
3 6 -6 937.31 500.741 3
3 -6 6 1302.04 515.017 16
3 -6 6 652.187 444.08 15
-3 -6 6 1058.77 474.66 15
6 -4 0 2783.84 596.638 4
6 4 -1 3733.25 585.174 13
-6 -4 1 3592.14 572.336 7
6 -4 1 3722.49 627.88 4
6 -4 -1 3646.4 704.26 4
6 4 -1 3074.69 533.569 11
-6 4 -1 4018.77 528.334 2
6 -4 1 2608.37 458.042 16
4 -6 1 3808.7 650.342 16
-6 4 -1 2832.57 513.675 8
-6 4 1 2998.87 603.451 8
6 4 -2 974.516 356.556 13
-6 -4 2 457.984 360.337 7
6 -4 2 1081.77 445.393 4
-6 4 -2 676.452 296.255 2
6 4 -2 511.626 326.093 11
4 -6 2 1002.5 359.018 1
6 -4 -2 490.669 288.294 11
-4 6 -2 1416.05 417.139 2
-6 4 -2 819.857 358.63 10
6 -4 2 594.584 289.162 16
4 -6 2 1073.19 427.095 16
-6 4 -2 1756.47 465.636 8
-4 6 -2 417.779 266.014 8
4 -6 2 976.423 318.087 15
-6 4 2 1099.32 470.27 8
-4 -6 3 2724.49 503.567 7
6 4 -3 1845.57 478.148 13
-6 -4 3 1630.5 497.093 7
6 -4 3 1602.98 399.564 4
-6 4 -3 1793.08 446.194 2
-4 -6 3 1381.64 390.919 1
4 -6 3 2378.07 521.665 4
4 6 -3 2233.42 447.906 11
6 4 -3 2325.11 553.054 11
4 6 -3 1787.72 501.894 6
6 4 -3 1807.27 436.062 6
-4 6 -3 2467.43 519.917 2
-6 4 -3 2079.2 505.512 10
4 -6 3 2116.24 496.9 1
-4 6 -3 1416.06 381.314 3
6 -4 3 2374.97 517.626 16
4 -6 3 2255.67 563.481 16
-6 4 -3 2148.97 465.512 8
4 -6 3 1671.28 398.537 15
-4 -6 3 2397.79 482.693 15
-6 4 -4 112.389 312.716 14
-4 -6 4 -753.466 538.236 7
6 4 -4 101.482 343.845 13
-6 -4 4 -547.061 441.268 7
6 -4 4 426.047 395.188 16
-6 4 -4 614.885 423.642 2
6 -4 4 167.68 329.688 4
-4 6 -4 -373.916 499.958 2
6 4 -4 -228.471 326.811 11
4 6 -4 395.714 449.645 6
6 4 -4 607.362 394.254 6
-6 4 -4 441.097 315.368 10
-4 6 -4 -11.4261 328.612 10
-4 6 -4 -97.3463 291.868 5
4 -6 4 600.065 383.385 9
-4 6 -4 217.516 278.349 3
4 -6 4 943.389 430.525 1
4 -6 4 556.091 384.918 16
4 -6 4 -361.363 342.897 15
-6 4 -5 914.204 477.402 14
4 6 -5 1230.02 457.623 13
-4 -6 5 1129.59 430.117 7
6 4 -5 273.401 375.388 13
-6 4 -5 -7.68459 314.664 2
-6 -4 5 800.907 418.442 7
6 -4 5 1485.81 513.511 4
4 -6 5 474.236 375.098 1
-4 6 -5 628.527 453.765 2
6 4 -5 982.518 496.004 11
4 6 -5 561.629 393.911 6
6 4 -5 505.244 396.073 6
-6 4 -5 802.16 491.866 10
-4 6 -5 246.927 402.134 10
4 6 -5 423.164 288.435 5
4 -6 5 666.277 384.247 9
-4 6 -5 1203.32 424.619 5
-4 6 -5 263.681 459.877 3
6 -4 5 839.598 444.617 16
4 -6 5 209.933 373.647 16
4 -6 5 507.454 375.105 15
-4 -6 6 -278.757 440.015 7
6 4 -6 -398.423 438.996 6
4 6 -6 208.147 321.92 5
-4 6 -6 372.909 326.124 5
6 -5 0 65.6773 324.758 4
-6 5 0 163.326 311.655 8
6 -5 1 5748.36 848.602 4
-6 5 -1 4612.75 599.161 2
6 -5 1 5897.32 741.408 16
5 -6 1 7169.55 849.526 16
-6 5 -1 5960.97 786.751 8
-5 6 -1 5425.89 754.326 8
6 5 -2 801.611 401.752 13
-6 -5 2 410.531 317.915 7
6 -5 2 192.092 310.648 4
5 -6 2 -320.518 326.257 4
6 5 -2 419.544 383.706 11
-6 5 -2 -373.503 313.144 2
-5 6 -2 -98.6996 264.849 2
6 -5 2 -28.6153 276.243 16
5 -6 2 254.3 350.988 16
-6 5 -2 310.509 276.505 8
-5 6 -2 105.06 286.65 8
5 6 -3 577.794 394.208 13
-5 -6 3 499.64 375.006 7
6 5 -3 -263.156 441.841 13
-6 -5 3 732.022 346.621 7
6 -5 3 113.395 342.921 4
5 -6 3 1616.32 554.047 4
-6 5 -3 677.39 373.26 2
5 6 -3 497.769 370.443 11
6 5 -3 281.693 406.213 11
6 5 -3 158.776 275.145 6
-5 6 -3 696.878 369.576 2
-6 5 -3 128.563 329.272 10
5 -6 3 1.26509 293.796 1
-5 6 -3 -426.789 354.926 3
6 -5 3 404.248 291.887 16
5 -6 3 339.516 332.174 16
-6 5 -3 156.945 361.861 8
5 -6 3 777.181 367.665 15
5 -6 4 461.724 429.543 1
-6 5 -4 544.844 414.919 14
5 6 -4 -211.124 406.416 13
-5 -6 4 158.104 347.257 7
6 5 -4 62.9341 416.828 13
-6 -5 4 -4.62377 377.451 7
6 -5 4 -313.913 441.098 4
-6 5 -4 -290.055 372.074 2
-5 6 -4 -147.899 372.224 2
5 6 -4 -62.9403 365.153 11
6 5 -4 -12.1499 409.403 11
5 6 -4 -148.595 330.618 6
6 5 -4 231.329 318.723 6
-6 5 -4 -537.297 518.836 10
-5 6 -4 -196.344 410.219 10
5 -6 4 188.452 390.45 9
-5 6 -4 84.0127 309.939 3
6 -5 4 355.36 417.805 16
5 -6 4 967.99 526.723 16
5 -6 4 -263.989 320.327 15
-6 5 -5 329.118 427.006 14
-5 6 -5 -110.142 451.56 14
5 6 -5 -255.302 466.245 13
6 5 -5 456.256 422.597 13
-5 -6 5 278.211 373.036 7
6 5 -5 362.473 365.4 12
5 6 -5 122.052 330.268 11
6 5 -5 158.472 382.663 11
5 6 -5 430.822 496.863 6
6 5 -5 326.706 408.983 6
5 -6 5 803.72 459.113 1
5 -6 5 -205.179 344.717 9
-5 6 -5 561.219 389.786 3
6 -5 5 416.49 366.966 16
5 -6 5 -77.3938 334.46 15
6 -6 1 196.132 354.482 16
-6 6 -1 43.122 331.042 8
6 -6 2 -206.887 446.357 4
-6 6 -2 140.913 337.528 2
6 -6 2 787.174 465.855 16
-6 6 -2 900.684 391.898 8
6 6 -3 625.636 441.571 13
-6 -6 3 -66.9714 363.979 7
6 -6 3 -252.598 344.656 4
6 6 -3 -178.402 385.605 11
-6 6 -3 -176.476 320.444 2
-6 6 -3 183.648 339.562 10
6 -6 3 -473.058 419.374 16
-6 6 -4 1225.63 484.904 14
6 6 -4 1536.12 557.49 13
6 6 -4 1349.16 526.827 11
-6 6 -4 706.776 371.357 2
6 6 -4 1363.05 545.899 6
6 -6 4 931.391 416.171 16
-7 0 0 -79.9199 228.745 14
7 0 0 -6.72952 255.959 4
7 0 0 95.2558 211.339 13
-7 0 0 318.211 277.535 7
7 0 0 -89.0973 254.829 11
-7 0 0 64.5451 279.542 8
-7 0 -1 5697.63 648.209 14
7 0 1 5927.69 753.674 4
7 0 -1 5476.6 638.352 13
7 0 -1 5241.07 650.058 4
-7 0 1 5743.7 669.55 7
7 0 1 6635.04 657.514 11
7 0 -1 5060.58 605.553 11
-7 0 -1 5916.03 583.107 10
-7 0 -1 5263.43 695.401 8
-7 0 1 6112.85 703.884 8
7 0 2 362.898 291.852 4
-7 0 -2 -184.037 326.81 14
7 0 -2 529.517 344.439 13
-7 0 2 337.194 266.444 7
7 0 -2 351.557 258.397 4
7 0 -2 195.804 257.549 11
-7 0 -2 386.442 268.16 10
-7 0 -2 -91.4307 267.025 8
-7 0 2 178.137 257.684 8
-7 0 3 10894.9 1000.87 7
7 0 -3 11721 1032.6 13
7 0 -3 9977.12 938.699 11
-7 0 -3 10491.7 900.243 10
0 -7 3 9599.95 976.482 1
-7 0 -3 9905.87 931.719 8
-7 0 3 11087.1 932.295 8
0 -7 3 10189 1011.02 15
-7 0 -3 11840.4 1018.1 14
-7 0 -4 -372.403 388.355 14
7 0 -4 532.694 388.375 13
-7 0 4 -597.222 440.726 7
0 7 -4 -128.45 312.435 6
7 0 -4 -315.749 361.484 11
0 -7 4 3.32208 297.929 1
-7 0 -4 29.5779 281.794 10
0 7 -4 -167.848 254.636 2
0 7 -4 -6.32138 305.105 3
-7 0 -4 84.6652 272.287 8
0 -7 4 -120.19 341.21 16
0 -7 4 273.91 355.361 15
7 0 4 -484.693 453.183 4
7 0 -5 4460.89 737.695 13
-7 0 5 6450.06 920.333 7
0 7 -5 7450.88 947.097 6
7 0 -5 5352.66 839.753 11
0 7 -5 5792.95 827.214 2
0 -7 5 6496.22 872.722 9
0 -7 5 6719.87 889.288 1
0 7 -5 7503.15 940.135 3
0 -7 5 6595.6 876.293 16
0 -7 5 4127.03 739.043 15
0 7 -6 554.228 380.854 2
0 -7 6 -315.414 445.138 16
-7 -1 0 11540.5 836.377 14
-7 -1 0 11341.9 887.45 7
7 1 0 11080.8 894.163 13
7 -1 0 10126 788.488 13
7 1 0 11940.2 937.788 11
7 -1 0 10729.3 816.877 11
-7 -1 0 12314.6 987.726 8
-7 1 0 11466.5 965.341 8
7 1 0 9605.07 891.858 4
7 -1 0 11619.4 975.249 4
7 1 1 3472.74 589.269 4
-7 -1 -1 4145.31 560.699 14
-7 1 -1 4071.72 588.182 14
-7 -1 -1 3949.84 487.002 7
7 1 -1 4411.74 589.878 4
7 1 1 4347.92 557.099 13
7 -1 1 3355.32 567.577 4
7 1 -1 4900.78 633.839 13
7 -1 -1 3765.4 518.172 13
-7 -1 1 4181.59 582.839 7
7 -1 -1 4321.79 598.265 4
-7 1 1 4091.76 535.497 7
7 1 -1 5455.79 689.981 11
7 -1 -1 4410.48 576.549 11
-7 1 -1 3959.25 515.132 10
-7 -1 -1 4318.34 632.135 8
-7 -1 1 4775.13 610.964 8
-7 1 -1 4092.58 611.48 8
-7 1 1 3574.46 578.03 8
-7 -1 -2 1107.72 346.75 14
-7 1 -2 1427.92 407.688 14
7 -1 2 1575.13 437.261 4
7 1 -2 1139.91 361.791 13
7 1 -2 1585.38 376.194 4
-7 -1 2 1128.07 390.58 7
-7 1 2 1138.36 399.951 7
7 -1 -2 1132.82 379.711 4
7 1 -2 1275.7 384.652 11
7 -1 -2 646.238 291.357 11
-7 1 -2 1631.27 416.063 10
-7 -1 -2 822.314 361.275 8
-7 1 -2 1337.1 382.469 8
-7 -1 2 1305.7 356.155 8
-7 1 2 897.981 358.303 8
7 1 2 886.149 393.425 4
-7 -1 -3 2839.59 515.467 14
-7 1 -3 3064.62 546.185 14
7 -1 3 3246.82 644.42 4
7 1 -3 3466.88 600.276 13
7 -1 -3 3359.34 602.704 13
-7 1 3 3782.15 651.69 7
1 -7 3 2268.93 544.158 1
7 -1 -3 3172.09 541.289 4
7 1 -3 2863.19 557.917 11
7 -1 -3 3042.45 551.5 11
-7 1 -3 2654.67 488.151 10
-7 -1 -3 3275.5 576.728 8
-1 7 -3 3246.13 590.833 3
-7 1 -3 2980.49 565.747 8
1 -7 3 3466.45 632.814 16
-7 1 3 2580.87 527.274 8
1 -7 3 3634.37 622.495 15
7 1 3 3079.71 589.968 4
-7 1 -4 633.532 360.133 14
7 -1 4 4.24879 355.216 4
7 1 -4 523.775 385.219 13
7 -1 -4 347.818 284.962 13
-7 1 4 128.425 357.657 7
-1 7 -4 154.414 325.984 6
1 7 -4 -293.137 420.915 6
7 1 -4 381.544 384.427 11
-1 -7 4 354.579 390.758 1
7 -1 -4 908.833 488.015 11
-7 1 -4 -281.609 349.364 10
-1 7 -4 422.036 364.497 2
-1 7 -4 287.508 337.672 3
1 7 -4 249.461 314.349 3
-7 1 -4 1261.86 413.366 8
1 -7 4 291.312 350.697 16
-1 -7 4 886.909 412.055 16
-7 1 4 749.136 348.368 8
-1 -7 4 -51.8383 336.346 15
-7 1 -5 1680.64 494.997 14
7 -1 5 1287.33 505.144 4
7 1 -5 793.622 381.912 13
7 -1 -5 1447.84 519.791 13
-7 -1 5 -226.523 418.45 7
-1 7 -5 467.949 339.324 12
-7 1 5 357.076 410.811 7
-1 7 -5 934.718 514.713 6
1 7 -5 789.064 438.749 6
7 1 -5 855.302 434.862 11
7 -1 -5 926.728 510.786 11
-1 7 -5 1302.18 442.781 2
-7 1 -5 324.862 363.747 10
-1 7 -5 1028.22 409.456 10
-1 7 -5 419.83 351.036 5
-1 -7 5 236.905 329.884 1
1 -7 5 1462 569.066 9
1 -7 5 1058.71 461.84 1
-1 7 -5 1000.89 449.669 3
1 7 -5 1002.24 484.325 3
-7 1 -5 287.733 259.428 8
1 -7 5 1916.42 610.054 16
-1 -7 5 1255.94 434.437 16
1 -7 5 173.884 349.905 15
-1 -7 5 259.756 333.365 15
7 -1 6 -344.714 438.06 4
-1 7 -6 -223.762 423.331 6
1 -7 6 -161.456 404.258 16
7 2 0 275.051 276.043 4
7 2 0 -7.19699 248.653 13
-7 -2 0 265.54 272.879 7
7 -2 0 -125.002 286.489 4
7 2 0 -36.2995 222.334 11
-7 -2 0 270.277 245.746 8
-7 2 0 -143.431 345.129 8
-7 -2 -1 83.5584 223.471 14
7 2 -1 -42.6618 241.676 4
7 2 -1 -286.887 333.967 13
-7 -2 1 -4.76633 276.121 7
7 -2 1 332.41 304.364 4
7 -2 -1 163.647 218.655 13
7 -2 -1 376.633 341.442 4
7 2 -1 156.398 303.026 11
7 -2 -1 126.942 251.848 11
-7 2 -1 -7.21611 255.723 10
-7 -2 -1 429.74 339.195 8
-7 -2 1 393.543 313.753 8
-7 2 -1 66.9677 303.692 8
-7 2 1 -332.613 358.717 8
7 2 1 -380.245 397.826 4
-7 2 -2 14762.5 1121.89 14
-7 -2 2 14418.1 1122.18 7
-7 2 2 12489.5 975.609 7
7 2 -2 14858.7 1124.85 13
7 -2 -2 15909.7 1145.26 13
7 2 -2 16151.3 1183.21 11
7 -2 -2 14589.5 1093.59 11
-7 2 -2 14701 1042.28 10
-7 -2 -2 15978.2 1147.22 8
-7 -2 2 13919.3 1020.81 8
-7 2 -2 16836.2 1223.8 8
-7 2 2 13247.6 1111.35 8
7 2 2 13924.3 1242.24 4
7 -2 2 14836.4 1197.01 4
7 -2 -2 14939.9 1217.99 4
-7 2 -3 1225 484.246 14
7 -2 3 1393.36 510.042 4
7 2 -3 921.524 330.718 13
-7 -2 3 1134.94 429.598 7
7 -2 -3 1321.6 454.477 13
-7 2 3 1342.82 463.463 7
7 -2 -3 984.801 403.132 4
2 -7 3 2582.74 584.008 1
7 2 -3 906.778 402.527 11
7 -2 -3 953.132 360.105 11
-7 2 -3 940.532 356.407 10
-2 7 -3 1799.69 491.76 2
-2 7 -3 1779.97 497.333 3
-7 2 -3 1055.16 399.056 8
2 -7 3 1619.77 546.83 16
-7 2 3 1250.05 457.184 8
2 -7 3 1014.32 424.924 15
-7 2 -4 453.67 370.514 14
7 -2 4 497.193 353.986 4
7 2 -4 84.6347 363.419 13
7 -2 -4 2.70945 335.885 13
-7 -2 4 624 411.38 7
-7 2 4 -146.975 396.847 7
-2 7 -4 -121.111 372.022 6
2 7 -4 -108.08 391.952 6
7 2 -4 156.255 409.42 11
-2 -7 4 738.198 410.278 1
7 -2 -4 -260.635 436.284 11
-2 7 -4 164.211 362.144 2
-7 2 -4 -421.299 451.866 10
2 -7 4 -52.0819 356.63 1
-2 7 -4 -49.3726 323.229 3
-7 2 -4 -232.314 370.938 8
2 7 -4 327.81 331.921 3
-2 -7 4 509.078 346.344 16
2 -7 4 1121.53 455.785 16
-7 2 4 -447.487 413.099 8
2 -7 4 -199.043 320.686 15
-2 -7 4 -199.822 357.484 15
-7 2 -5 609.895 350.243 14
7 -2 5 284.179 352.922 4
7 2 -5 11.9252 352.564 13
7 -2 -5 1079.96 474.434 13
-7 -2 5 952.967 512.005 7
-2 7 -5 -4.5838 428.392 12
-7 2 5 676.143 493.558 7
-2 7 -5 437.346 354.177 6
7 2 -5 542.271 417.42 11
2 7 -5 495.528 366.475 6
-2 7 -5 801.836 406.346 2
-7 2 -5 299.463 384.844 10
-2 7 -5 556.137 388.395 10
-2 7 -5 -124.494 388.282 5
-2 -7 5 656.068 428.194 1
2 -7 5 473.098 392.74 9
-2 7 -5 95.5915 327.152 3
2 -7 5 -252.662 376.314 1
2 7 -5 526.765 343.024 3
-7 2 -5 800.208 336.34 8
2 -7 5 290.78 412.599 16
2 -7 5 725.073 428.341 15
-7 2 5 62.8104 370.275 8
-2 -7 5 -139.606 361.973 15
-2 7 -6 247.931 432.631 12
-2 7 -6 1197.15 433.506 10
7 3 0 18129.8 1258.25 13
-7 3 0 15523.9 1058.02 10
-7 -3 0 15783.6 1091.65 8
-7 3 0 14332.7 1178.02 8
7 3 0 15157.9 1213.81 4
7 -3 0 16866 1305.75 4
-7 -3 0 15497.6 1117.42 7
7 3 -1 162.666 276.977 13
-7 -3 1 838.517 384.23 7
7 -3 1 668.897 415.861 4
7 -3 -1 550.835 318.371 4
7 3 -1 1338.57 439.46 11
-7 3 -1 1193.91 387.391 10
-7 -3 1 338.628 240.219 8
-7 3 -1 588.035 360.98 8
-7 3 1 416.699 352.571 8
7 3 -2 780.085 382.728 13
-7 -3 2 308.23 306.097 7
7 -3 -2 599.105 347.132 13
7 -3 2 1100.93 457.586 4
7 -3 -2 1349.97 459.112 4
7 3 -2 1345.47 500.449 11
7 -3 -2 719.921 322.943 11
-7 3 -2 1363.92 439.217 10
-7 -3 2 82.6412 249.373 8
-7 3 -2 484.717 299.973 8
-7 3 2 265.177 386.051 8
-7 3 -3 532.776 359.705 14
-7 3 -3 227.47 304.779 2
7 -3 3 280.614 363.668 4
-7 -3 3 721.067 449.546 7
7 -3 -3 576.213 376.698 13
-7 3 3 -10.5621 305.569 7
3 -7 3 646.612 355.893 1
7 -3 -3 504.591 336.802 11
-7 3 -3 344.871 307.309 10
-3 7 -3 1467.23 491.289 2
7 -3 3 641.664 370.567 16
-3 7 -3 101.583 304.577 3
3 -7 3 41.3202 307.747 16
-7 3 -3 449.722 394.555 8
-7 3 3 979.193 346.657 8
3 -7 3 330.809 312.397 15
-7 3 -4 2191.69 573.448 14
-7 3 -4 1500.65 440.414 2
7 3 -4 2573.4 590.963 13
7 -3 4 1597.68 513.979 4
-7 -3 4 2010.13 573.462 7
7 3 -4 1316.8 545.545 11
-3 -7 4 2574.16 586.524 1
-7 3 -4 1433.41 449.429 10
3 -7 4 3239.69 632.585 1
-3 7 -4 2172.94 516.001 3
7 -3 4 2317.48 595.733 16
3 -7 4 2085.19 589.699 16
-7 3 -4 2072.22 498.148 8
3 -7 4 2059.28 569.316 15
-7 3 -5 -245.957 367.225 14
-7 3 -5 47.419 336.047 2
7 -3 5 -105.2 437.781 4
7 3 -5 102.876 335.693 13
-7 -3 5 395.108 445.945 7
7 3 -5 49.2107 354.201 11
3 7 -5 0.43899 372.385 6
-7 3 -5 382.301 418.741 10
-3 7 -5 -564.909 415.671 10
-3 7 -5 336.05 390.87 5
3 -7 5 -160.447 378.538 9
-3 -7 5 -299.087 416.633 1
-3 7 -5 -454.613 454.872 3
3 7 -5 -55.2839 317.959 3
3 -7 5 -97.3314 374.72 16
3 -7 5 195.243 359.693 1
3 -7 5 318.443 383.918 15
-3 -7 5 12.9871 372.85 15
7 -4 0 -353.916 422.038 4
-7 4 0 -84.4404 311.84 8
7 4 -1 2452.15 560.972 13
-7 -4 1 2403.41 569.159 7
7 -4 1 2501.69 595.205 4
7 -4 -1 2384.32 623.523 4
7 4 -1 1839.34 561.844 11
-7 4 -1 2067.85 503.521 10
-7 4 -1 1996.41 498.384 8
-7 4 1 2444.48 601.007 8
7 4 -2 520.327 328.434 13
-7 -4 2 5.6331 338.854 7
7 -4 2 496.708 410.651 4
4 -7 2 852.558 456.635 1
7 4 -2 34.7258 294.415 11
7 -4 -2 237.091 398.128 4
-7 4 -2 102.698 321.129 10
-7 4 -2 39.5648 309.704 8
-7 4 2 77.6167 390.634 8
4 -7 2 685.191 377.127 15
-7 4 -3 3764.26 672.512 14
7 4 -3 3677.49 651.033 13
-7 -4 3 5941.69 840.328 7
7 -4 3 3143.47 674.97 4
-7 4 -3 3573.54 604.079 2
7 4 -3 4307.67 770.311 11
4 -7 3 4089.17 700.012 1
-4 7 -3 2538.85 590.454 2
-7 4 -3 4815.14 769.154 10
7 -4 3 4289.61 680.403 16
4 -7 3 3800.68 728.689 16
-4 7 -3 4013.8 651.267 3
-7 4 -3 3997.09 679.764 8
4 -7 3 2624.93 594.472 15
-7 4 -4 -43.0015 383.813 14
7 4 -4 -209.827 378.16 13
-7 -4 4 276.844 400.527 7
-7 4 -4 252.876 347.173 2
7 -4 4 -492.817 438.204 4
4 7 -4 -95.1323 374.723 6
7 4 -4 369.088 459.199 11
-4 7 -4 -744.723 469.463 2
-7 4 -4 71.6333 383.174 10
4 -7 4 -631.679 501.11 1
-4 7 -4 -496.54 380.997 3
7 -4 4 190.609 365.465 16
4 -7 4 180.388 397.296 16
4 -7 4 169.792 351.365 15
-4 -7 4 92.2106 324.743 15
-4 -7 5 2967.86 623.151 7
7 -4 5 1921.21 627.013 4
4 -7 5 2555.96 653.204 15
7 -5 0 656.056 416.405 4
-7 5 0 753.691 386.16 8
7 -5 1 1834.94 575.585 4
7 -5 -1 2646.29 675.129 4
-7 5 -1 2478.55 592.316 8
-7 5 1 3251.04 734.851 8
7 5 -2 320.385 375.842 13
-7 -5 2 398.909 441.037 7
7 -5 2 -41.3523 378.51 4
7 5 -2 -230.738 435.784 11
-7 5 -2 301.675 391.897 10
-5 7 -2 271.784 319.55 2
5 -7 2 786.851 473.133 16
-7 5 -2 -261.925 330.604 8
7 5 -3 2846.7 646.137 13
-7 -5 3 2552.7 623.182 7
7 -5 3 3530.96 690.407 4
-7 5 -3 2535.6 561.915 2
7 5 -3 1800.13 592.152 11
-5 7 -3 2653.33 630.776 2
-7 5 -3 2261.62 574.103 10
7 -5 3 2041.5 582.74 16
5 -7 3 2375.9 630.546 16
-7 5 -3 3014.62 653.663 8
7 -5 4 54.5636 414.913 4
-7 5 -4 -312.464 461.398 2
-5 7 -4 35.2945 296.959 3
7 -5 4 -275.675 370.675 16
5 -7 4 184.346 424.111 1
5 -7 4 -456.994 577.449 15
7 -6 1 46.3751 405.295 4
-7 6 -1 -637.485 517.202 8
7 -6 2 1759.4 630.928 4
-7 6 -2 1822.41 536.326 10
-6 7 -2 1884.22 500.081 2
6 -7 2 1435.6 546.436 16
-7 6 -2 1591.41 524.61 8
6 -7 3 -374.793 409.603 4
-7 6 -3 -125.789 406.248 2
7 -6 3 642.844 492.857 16
-8 0 0 5142.62 675.514 14
8 0 0 5608.99 765.765 4
8 0 0 5977 721.625 11
-8 0 0 5725.58 774.011 8
-8 0 -1 1509.29 503.314 14
8 0 1 1699.97 528.644 4
8 0 -1 763.657 370.725 13
8 0 -1 973.798 403.745 4
-8 0 1 1827.07 492.815 7
8 0 -1 306.773 296.886 11
-8 0 -1 517.626 372.016 8
-8 0 1 682.1 381.91 8
-8 0 -2 997.689 461.407 14
8 0 2 493.272 354.084 4
8 0 -2 441.812 379.386 13
-8 0 2 489.294 357.77 7
8 0 -2 705.182 355.664 4
8 0 -2 -166.048 391.106 11
-8 0 -2 492.103 422.428 8
-8 0 2 959.652 398.593 8
-8 0 -3 336.232 396.957 14
8 0 3 -110.13 408.647 4
8 0 -3 1002.3 408.865 13
-8 0 3 398.254 351.563 7
8 0 -3 -353.31 311.62 11
-8 0 -3 1234.78 422.021 10
-8 0 -3 644.275 385.661 8
-8 0 3 138.934 309.748 8
-8 0 -4 -420.653 415.104 14
8 0 4 173.005 395.408 4
8 0 -4 37.4595 359.085 13
-8 0 4 -381.615 437.214 7
8 0 -4 -323.471 422.09 11
0 -8 4 -199.768 400.776 1
-8 0 -4 275.498 344.746 8
0 -8 4 99.8982 355.872 15
0 -8 5 493.581 458.549 16
8 1 0 -124.514 288.764 4
8 1 0 -242.126 293.116 13
-8 -1 0 54.166 273.357 7
8 -1 0 -321.059 288.513 4
8 1 0 9.86329 247.952 11
-8 -1 0 -300.812 340.604 8
-8 1 0 -628.635 441.702 8
-8 -1 -1 176.005 267.499 14
8 1 1 944.873 461.281 4
-8 1 -1 594.353 337.588 14
8 1 -1 587.392 388.66 13
8 1 -1 376.64 274.224 4
8 -1 1 -205.847 358.099 4
8 -1 -1 401.414 327.165 13
-8 -1 1 356.737 324.156 7
8 -1 -1 277.091 345.753 4
8 1 -1 -33.9033 306.665 11
8 -1 -1 107.153 252.293 11
-8 -1 -1 296.755 337.168 8
-8 -1 1 695.223 354.937 8
-8 1 -1 392.872 343.139 8
-8 1 1 787.486 406.334 8
8 1 2 316.376 344.285 4
-8 -1 -2 410.545 319.554 14
-8 1 -2 -428.352 414.865 14
8 -1 2 505.866 352.77 4
8 1 -2 -128.185 312.978 13
8 -1 -2 -297.939 294.953 13
-8 -1 2 42.6858 341.114 7
-8 1 2 995.006 416.147 7
8 -1 -2 73.5737 339.934 4
8 1 -2 -443.268 376.427 11
8 -1 -2 3.45248 259.835 11
-8 1 -2 592.489 352.902 10
-8 -1 -2 -445.14 362.124 8
-8 1 -2 63.2307 449.908 8
-8 -1 2 554.733 383.599 8
-8 1 2 402.548 404.474 8
-8 -1 -3 -82.2207 314.693 14
-8 1 -3 -177.666 390.779 14
8 -1 3 355.665 329.916 4
8 1 -3 -417.782 424.311 13
8 -1 -3 640.366 416.935 13
-8 -1 3 58.1585 354.75 7
-8 1 3 405.475 373.744 7
8 1 -3 209.102 291.181 11
8 -1 -3 0.73172 286.354 11
-8 1 -3 485.25 369.456 10
-8 -1 -3 632.784 396.495 8
-8 1 -3 0.36703 317.569 8
-8 -1 3 598.067 394.613 8
-8 1 3 84.2132 317.63 8
8 1 3 296.414 433.926 4
-8 1 -4 323.248 422.613 14
8 -1 4 -736.235 540.876 4
8 1 -4 -39.9679 391.23 13
8 -1 -4 110.451 420.239 13
-8 -1 4 -199.939 348.81 7
-8 1 4 420.166 393.009 7
8 1 -4 -206.056 308.577 11
8 -1 -4 141.695 369.846 11
1 -8 4 452.31 406.999 1
-8 1 -4 -320.118 362.36 10
-8 1 -4 -410.261 349.884 8
-1 8 -4 530.551 457.932 3
1 -8 4 -99.5799 386.697 16
-8 1 4 -315.494 354.772 8
1 -8 4 51.7269 315.051 15
-1 8 -5 -777.822 510.689 6
-8 1 -5 -198.377 310.999 8
-1 -8 5 577.816 471.369 16
8 2 0 526.522 393.514 4
8 2 0 -446 402.89 13
-8 -2 0 101.467 278.658 7
8 -2 0 -76.5543 336.094 4
8 2 0 95.9832 283.826 11
-8 -2 0 477.317 346.204 8
-8 2 0 -379.388 428.311 8
8 2 1 757.063 444.093 4
8 2 -1 504.943 306.572 13
-8 -2 1 1192.41 440.099 7
8 -2 1 877.741 443.97 4
8 -2 -1 1377.88 463.974 4
8 2 -1 1321.77 454.089 11
-8 -2 -1 695.777 399.075 8
-8 -2 1 792.83 412.521 8
-8 2 -1 1312.17 383.36 8
-8 2 1 1087.83 422.868 8
-8 2 -2 297.879 412.164 14
8 2 -2 386.861 358.737 13
8 -2 2 470.446 313.832 4
-8 -2 2 527.001 412.87 7
8 -2 -2 -31.671 274.193 13
8 -2 -2 -29.1535 361.145 4
8 2 -2 -274.159 411.589 11
8 -2 -2 272.549 309.873 11
-8 2 -2 181.328 320.886 10
-8 -2 -2 701.865 382.743 8
-8 -2 2 238.614 308.882 8
-8 2 -2 -182.253 348.899 8
-8 2 2 308.492 361.76 8
8 2 2 174.523 339.564 4
-8 2 -3 1045.97 500.219 14
8 -2 3 848.123 458.196 4
8 2 -3 -87.6125 389.434 13
-8 -2 3 705.258 427.47 7
8 -2 -3 882.097 446.48 13
-8 2 3 414.66 340.958 7
8 -2 -3 858.707 465.382 4
8 2 -3 339.629 380.067 11
8 -2 -3 282.11 369.764 11
-8 2 -3 318.259 320.898 10
-8 2 -3 891.83 514.649 8
-8 2 3 981.794 471.114 8
8 -2 4 -1908.44 821.072 4
8 2 -4 1283.25 529.137 13
8 -2 -4 645.353 441.44 13
-8 -2 4 1214.02 467.848 7
-8 2 4 1168.16 602.171 7
8 2 -4 388.214 370.016 11
8 -2 -4 310.267 402.395 11
-8 2 -4 -15.3972 562.657 10
2 -8 4 1365.07 556.852 1
-2 8 -4 2368.16 630.213 2
-8 2 -4 -880.632 644.045 8
2 -8 4 1870.61 668.101 16
-8 2 4 559.925 424.268 8
2 -8 4 1360.92 610.78 15
-2 8 -5 341.689 388.517 12
-2 8 -5 -509.168 436.274 10
-8 2 -5 -847.849 482.028 8
8 3 0 -242.909 340.941 4
8 -3 0 -595.828 1614.92 4
-8 -3 0 -369.646 346.172 8
8 3 -1 280.963 341.587 13
-8 -3 1 -473.591 412.083 7
8 -3 1 474.686 399.22 4
8 -3 -1 284.606 417.468 4
8 3 -1 403.419 394.823 11
-8 3 -1 380.664 315.792 10
-8 -3 1 -159.325 313.895 8
-8 3 -1 401.282 392.754 8
-8 3 1 -123.5 347.136 8
-8 3 -2 541.741 405.674 14
8 3 -2 100.01 380.726 13
-8 -3 2 481.019 394.101 7
8 -3 2 4.71152 370.236 4
8 -3 -2 245.797 356.757 4
8 3 -2 131.442 331.279 11
-8 3 -2 -16.6346 306.561 10
-8 3 -2 -343.115 446.3 8
-8 3 2 162.756 380.725 8
-8 3 -3 -94.8672 400.865 14
8 3 -3 201.423 405.295 13
-8 -3 3 838.985 535.835 7
8 -3 3 289.693 388.366 4
8 -3 -3 810.146 464.245 13
8 3 -3 1007.05 520.549 11
8 -3 -3 -11.9901 386.11 11
-8 3 -3 119.448 344.327 10
-8 3 -3 189.791 342.029 8
-8 3 3 1030.65 476.076 8
-8 3 -4 -45.7832 428.539 10
-8 3 -4 -129.856 439.834 8
3 -8 4 472.115 482.287 15
8 -4 0 1195.07 533.595 4
-8 4 0 1607.88 509.906 8
-8 -4 1 -101.136 389.614 7
8 4 -1 300.608 338.72 13
8 -4 1 256.28 465.293 4
8 -4 -1 178.78 387.623 4
8 4 -1 -266.854 350.185 11
-8 4 -1 533.348 375.998 10
-8 4 -1 168.072 350.814 8
-8 4 1 236.421 464.716 8
8 4 -2 -123.891 352.033 13
-8 -4 2 190.694 389.917 7
8 -4 2 -38.3169 404.674 4
8 4 -2 -247.267 361.697 11
8 -4 -2 63.3788 377.106 4
-8 4 -2 87.3201 376.335 10
-8 4 -2 883.168 463.748 8
-8 4 2 -623.927 613.232 8
-8 4 -3 -72.5423 395.695 10
-8 4 -3 545.345 450.609 8
-8 5 -1 96.2531 396.034 10
-8 5 -1 810.796 522.311 8
-8 5 -2 287.404 424.477 10
-8 5 -2 1023.74 566.674 8
9 0 0 -369.462 395.125 4
-9 0 0 80.2059 415.378 8
-9 0 -1 420.623 370.679 14
9 0 1 -80.7535 385.653 4
9 0 -1 794.441 481.26 4
9 0 -1 683.394 388.724 11
-9 0 -1 640.359 440.419 8
-9 0 1 722.792 505.332 8
-9 0 -2 4963.23 743.209 14
9 0 2 5070.92 878.228 4
9 0 -2 4275.38 731.167 13
-9 0 2 4295.91 720.04 7
9 0 -2 5158.92 791.497 11
-9 0 -2 4968.77 811.825 8
-9 0 2 3341.55 672.193 8
-9 0 -3 32.5902 348.537 14
9 0 -3 43.2235 395.838 13
-9 0 3 643.008 429.973 7
9 0 -3 276.477 314.707 11
-9 0 3 -405.859 451.59 8
-9 1 0 1738.41 527.204 14
9 1 0 918.513 455.734 4
9 -1 0 1613.84 563.231 4
9 1 0 1449.58 492.375 11
-9 -1 0 1546.9 510.493 8
-9 1 0 1041.64 486.945 8
-9 1 -1 1210.34 500.32 14
9 1 1 666.091 424.411 4
9 1 -1 129.601 412.134 13
9 1 -1 249.235 375.721 4
9 -1 1 222.95 438.847 4
9 -1 -1 1276.81 461.755 4
9 1 -1 980.907 487.631 11
-9 -1 -1 873.7 461.919 8
-9 -1 1 339.256 372.783 8
-9 1 -1 930.988 417.086 8
-9 1 1 800.421 446.075 8
-9 -1 -2 -518.07 384.179 14
-9 1 -2 240.223 405.537 14
9 1 2 -672.66 518.581 4
9 -1 2 272.295 409.248 4
9 1 -2 -550.31 480.056 13
-9 -1 2 514.83 342.491 7
9 -1 -2 -132.21 375.695 4
9 1 -2 985.734 501.729 11
9 -1 -2 -651.51 432.68 11
-9 -1 -2 505.191 409.662 8
-9 1 -2 27.4676 386.427 8
-9 -1 2 134.776 374.611 8
-9 1 2 412.654 432.473 8
-9 -1 -3 871.611 443.197 14
9 1 -3 1244.47 486.168 13
9 -1 -3 245.712 435.318 13
-9 -1 3 265.032 391.764 7
-9 1 3 383.447 448.868 7
9 -1 -3 223.096 362.031 11
-9 1 3 755.443 430.01 8
9 2 0 -169.764 371.788 4
9 2 0 -469.775 400.577 13
9 -2 0 -268.602 492.284 4
-9 -2 0 -71.2051 345.095 8
-9 2 0 39.6681 384.328 8
9 2 1 3485.54 781.251 4
-9 2 -1 3303.2 633.253 14
9 2 -1 2939.42 611.869 13
-9 -2 1 3379.86 694.308 7
9 -2 1 3287.43 709.485 4
9 -2 -1 4477.33 764.661 4
9 2 -1 3533.58 665.898 11
-9 -2 -1 4006.82 686.064 8
-9 -2 1 3155.81 644.131 8
-9 2 -1 2662.52 693.774 8
-9 2 1 3641.42 753.279 8
-9 2 -2 -598.887 530.537 14
9 2 -2 52.1637 385.668 13
-9 -2 2 455.464 433.388 7
9 -2 -2 794.673 537.285 4
9 2 -2 679.412 519.728 11
-9 -2 2 -45.8406 364.72 8
-9 2 2 344.741 474.454 8
9 -2 -3 1045.56 524.048 13
9 -2 -3 405.489 385.122 11
-9 2 -3 246.529 365.606 10
9 3 -1 1423.92 523.187 13
-9 -3 1 923.628 441.25 7
-9 -3 1 724.836 434.599 8
loop_
_geom_angle_atom_site_label_1
_geom_angle_atom_site_label_2
_geom_angle_atom_site_label_3
_geom_angle
_geom_angle_site_symmetry_1
_geom_angle_site_symmetry_3
_geom_angle_publ_flag
H1a O1 H1a 102.3(12) 13_575 . ?
H1b O1 H1a 115.3(7) . . ?
H1b O1 H1a 115.3(7) . 13_575 ?
H1c O1 H1a 105.3(8) . . ?
H1c O1 H1a 105.3(8) . 13_575 ?
H1c O1 H1b 112.1(12) . . ?
H2 O2 H2 111.9(10) . 7_454 ?
H2 O2 H2 111.9(10) 8_664 . ?
H2 O2 H2 105(2) 8_664 7_454 ?
H2 O2 H2 111.9(10) 6_565 7_454 ?
H2 O2 H2 111.9(10) 8_664 6_565 ?
H2 O2 H2 105(2) 6_565 . ?
loop_
_geom_bond_atom_site_label_1
_geom_bond_atom_site_label_2
_geom_bond_distance
_geom_bond_site_symmetry_2
_geom_bond_publ_flag
O1 H1a 0.759(8) . ?
O1 H1a 0.759(8) 13_575 ?
O1 H1b 0.740(12) . ?
O1 H1c 0.746(13) . ?
O2 H2 0.736(11) . ?
O2 H2 0.736(11) 6_565 ?
O2 H2 0.736(11) 8_664 ?
O2 H2 0.736(11) 7_454 ?
