#------------------------------------------------------------------------------
#$Date: 2022-05-26 01:13:24 +0300 (Thu, 26 May 2022) $
#$Revision: 275644 $
#$URL: file:///home/coder/svn-repositories/cod/cif/1/56/70/1567016.cif $
#------------------------------------------------------------------------------
#
# This file is available in the Crystallography Open Database (COD),
# http://www.crystallography.net/
#
# All data on this site have been placed in the public domain by the
# contributors.
#
data_1567016
loop_
_publ_author_name
'Zhou, Bo'
'Yan, Dongpeng'
_publ_section_title
;
 Color-tunable persistent luminescence in 1D zinc--organic halide
 microcrystals for single-component white light and temperature-gating
 optical waveguides
;
_journal_name_full               'Chemical Science'
_journal_paper_doi               10.1039/D2SC01947G
_journal_year                    2022
_chemical_formula_moiety         'C14 H14 Cl2 N6 Zn'
_chemical_formula_sum            'C16 H15 Cl2 N4 Zn'
_chemical_formula_weight         399.59
_space_group_crystal_system      triclinic
_space_group_IT_number           2
_space_group_name_Hall           '-P 1'
_space_group_name_H-M_alt        'P -1'
_atom_sites_solution_hydrogens   geom
_atom_sites_solution_primary     iterative
_audit_block_doi                 10.5517/ccdc.csd.cc28rr3x
_audit_creation_date             2021-09-07
_audit_creation_method
;
Olex2 1.3
(compiled 2020.07.31 svn.rc2a77460 for OlexSys, GUI svn.r6145)
;
_audit_update_record
;
2021-09-07 deposited with the CCDC.	2022-05-16 downloaded from the CCDC.
;
_cell_angle_alpha                106.449(3)
_cell_angle_beta                 92.468(4)
_cell_angle_gamma                101.093(4)
_cell_formula_units_Z            2
_cell_length_a                   7.5306(4)
_cell_length_b                   8.4502(4)
_cell_length_c                   14.2634(4)
_cell_measurement_reflns_used    4757
_cell_measurement_temperature    100.00(10)
_cell_measurement_theta_max      74.7460
_cell_measurement_theta_min      3.2170
_cell_volume                     849.64(7)
_computing_cell_refinement       'CrysAlisPro 1.171.40.67a (Rigaku OD, 2019)'
_computing_data_collection       'CrysAlisPro 1.171.40.67a (Rigaku OD, 2019)'
_computing_data_reduction        'CrysAlisPro 1.171.40.67a (Rigaku OD, 2019)'
_computing_molecular_graphics    'Olex2 1.3 (Dolomanov et al., 2009)'
_computing_publication_material  'Olex2 1.3 (Dolomanov et al., 2009)'
_computing_structure_refinement  'SHELXL 2017/1 (Sheldrick, 2015)'
_computing_structure_solution    'olex2.solve 1.3 (Bourhis et al., 2015)'
_diffrn_ambient_environment      N~2~
_diffrn_ambient_temperature      100.00(10)
_diffrn_detector                 'Hybrid Pixel Array Detector'
_diffrn_detector_area_resol_mean 10.0000
_diffrn_detector_type            HyPix
_diffrn_measured_fraction_theta_full 0.997
_diffrn_measured_fraction_theta_max 0.954
_diffrn_measurement_details
;
List of Runs (angles in degrees, time in seconds):

  # Type    Start    End  Width  t~exp~   \w     \q     \k     \f   Frames
#--------------------------------------------------------------------------
  1  \w     37.00 119.00   0.50    0.09    --   47.82  37.00 -38.00  164
  2  \w     93.00 172.00   0.50    0.37    --  104.75  37.00 -38.00  158
  3  \w    147.00 172.00   0.50    0.37    --  104.75  45.00-120.00   50
  4  \w    138.00 171.00   0.50    0.37    --  104.75  45.00-180.00   66
  5  \w    119.00 145.00   0.50    0.37    --  104.75  45.00-120.00   52
  6  \w     91.00 170.00   0.50    0.37    --  104.75  15.00-120.00  158
  7  \w     95.00 132.00   0.50    0.37    --  104.75  45.00-180.00   74
  8  \w     40.00  70.00   0.50    0.37    --  104.75 -61.00 -60.00   60
  9  \w     42.00  72.00   0.50    0.37    --  104.75 -61.00   0.00   60
 10  \w     34.00  63.00   0.50    0.37    --  104.75 -61.00 -30.00   58
 11  \w     32.00  57.00   0.50    0.37    --  104.75 -61.00  30.00   50
 12  \w     79.00 115.00   0.50    0.37    --  104.75-125.00 -60.00   72
 13  \w     47.00 113.00   0.50    0.37    --  104.75-125.00 -90.00  132
 14  \w     35.00  61.00   0.50    0.37    --  104.75 -61.00-180.00   52
 15  \w     34.00 109.00   0.50    0.37    --  104.75 -94.00 -90.00  150
 16  \w     65.00 118.00   0.50    0.09    --   47.82  37.00  30.00  106
 17  \w     74.00 108.00   0.50    0.37    --  104.75 -77.00 120.00   68
 18  \w     73.00 116.00   0.50    0.37    --  104.75-125.00 150.00   86
 19  \w     33.00  65.00   0.50    0.37    --  104.75 -77.00 120.00   64
 20  \w     34.00  80.00   0.50    0.37    --  104.75 -94.00 150.00   92
 21  \w     32.00  65.00   0.50    0.37    --  104.75-125.00 150.00   66
 22  \w      2.00  34.00   0.50    0.09    --   47.82 -37.00 165.00   64
 23  \w    -39.00  25.00   0.50    0.09    --  -47.82  37.00  90.00  128
 24  \w    -10.00  16.00   0.50    0.09    --  -47.82  57.00 -30.00   52
 25  \w    -30.00  -5.00   0.50    0.09    --  -47.82  37.00 -38.00   50
 26  \w    -62.00 -19.00   0.50    0.09    --  -47.82  57.00 -30.00   86
 27  \w    -65.00 -30.00   0.50    0.37    -- -102.00 125.00 -30.00   70
 28  \w    -66.00 -41.00   0.50    0.37    -- -102.00  61.00   0.00   50
 29  \w    -97.00 -69.00   0.50    0.37    -- -102.00 125.00 -30.00   56
 30  \w   -111.00 -50.00   0.50    0.37    -- -102.00 125.00  30.00  122
 31  \w    -91.00 -48.00   0.50    0.09    --  -47.82 125.00 120.00   86
 32  \w    -97.00 -64.00   0.50    0.37    -- -102.00  77.00 150.00   66
 33  \w    -55.00 -30.00   0.50    0.37    -- -102.00  61.00  90.00   50
 34  \w    -65.00 -40.00   0.50    0.09    --  -47.82 -37.00 165.00   50
 35  \w   -114.00 -67.00   0.50    0.09    --  -47.82 -37.00 165.00   94
 36  \w   -175.00-111.00   0.50    0.37    -- -102.00 -37.00 165.00  128
 37  \w   -168.00 -91.00   0.50    0.37    -- -102.00 -61.00 -60.00  154
;
_diffrn_measurement_device       'four-circle diffractometer'
_diffrn_measurement_device_type  'XtaLAB Synergy R, DW system, HyPix'
_diffrn_measurement_method       '\w scans'
_diffrn_orient_matrix_type
'CrysAlisPro convention (1999,Acta A55,543-557)'
_diffrn_orient_matrix_UB_11      -0.0855456000
_diffrn_orient_matrix_UB_12      -0.1632661000
_diffrn_orient_matrix_UB_13      0.0236912000
_diffrn_orient_matrix_UB_21      0.1860427000
_diffrn_orient_matrix_UB_22      -0.0028534000
_diffrn_orient_matrix_UB_23      0.0480776000
_diffrn_orient_matrix_UB_31      -0.0447072000
_diffrn_orient_matrix_UB_32      0.1058118000
_diffrn_orient_matrix_UB_33      0.0997350000
_diffrn_radiation_monochromator  mirror
_diffrn_radiation_probe          x-ray
_diffrn_radiation_type           'Cu K\a'
_diffrn_radiation_wavelength     1.54184
_diffrn_reflns_av_R_equivalents  0.0422
_diffrn_reflns_av_unetI/netI     0.0444
_diffrn_reflns_Laue_measured_fraction_full 0.997
_diffrn_reflns_Laue_measured_fraction_max 0.954
_diffrn_reflns_limit_h_max       9
_diffrn_reflns_limit_h_min       -8
_diffrn_reflns_limit_k_max       10
_diffrn_reflns_limit_k_min       -10
_diffrn_reflns_limit_l_max       17
_diffrn_reflns_limit_l_min       -12
_diffrn_reflns_number            9015
_diffrn_reflns_point_group_measured_fraction_full 0.997
_diffrn_reflns_point_group_measured_fraction_max 0.954
_diffrn_reflns_theta_full        67.684
_diffrn_reflns_theta_max         75.907
_diffrn_reflns_theta_min         3.248
_diffrn_source                   'Rotating-anode X-ray tube'
_diffrn_source_type              'Rigaku (Cu) X-ray Source'
_exptl_absorpt_coefficient_mu    4.922
_exptl_absorpt_correction_T_max  1.00000
_exptl_absorpt_correction_T_min  0.69161
_exptl_absorpt_correction_type   multi-scan
_exptl_absorpt_process_details
;
CrysAlisPro 1.171.40.67a (Rigaku Oxford Diffraction, 2019)
Empirical absorption correction using spherical harmonics,
 implemented in SCALE3 ABSPACK scaling algorithm.
;
_exptl_crystal_colour            'clear light colourless'
_exptl_crystal_colour_lustre     clear
_exptl_crystal_colour_modifier   light
_exptl_crystal_colour_primary    colourless
_exptl_crystal_density_diffrn    1.562
_exptl_crystal_description       needle
_exptl_crystal_F_000             406
_exptl_crystal_size_max          0.1
_exptl_crystal_size_mid          0.02
_exptl_crystal_size_min          0.02
_refine_diff_density_max         1.514
_refine_diff_density_min         -0.886
_refine_diff_density_rms         0.105
_refine_ls_extinction_method     none
_refine_ls_goodness_of_fit_ref   1.108
_refine_ls_hydrogen_treatment    constr
_refine_ls_matrix_type           full
_refine_ls_number_parameters     210
_refine_ls_number_reflns         3383
_refine_ls_number_restraints     0
_refine_ls_restrained_S_all      1.108
_refine_ls_R_factor_all          0.0688
_refine_ls_R_factor_gt           0.0617
_refine_ls_shift/su_max          0.000
_refine_ls_shift/su_mean         0.000
_refine_ls_structure_factor_coef Fsqd
_refine_ls_weighting_details
'w=1/[\s^2^(Fo^2^)+(0.0816P)^2^+2.1905P] where P=(Fo^2^+2Fc^2^)/3'
_refine_ls_weighting_scheme      calc
_refine_ls_wR_factor_gt          0.1736
_refine_ls_wR_factor_ref         0.1783
_reflns_Friedel_coverage         0.000
_reflns_number_gt                2966
_reflns_number_total             3383
_reflns_threshold_expression     'I > 2\s(I)'
_iucr_refine_instructions_details
;
TITL
    20200812c.res
    created by SHELXL-2017/1 at 11:24:55 on 07-Sep-2021
CELL 1.54184 7.53058 8.45023 14.26343 106.4489 92.4676 101.0935
ZERR 2 0.00044 0.00039 0.00041 0.0034 0.0038 0.0044
LATT 1
SFAC C H Cl N Zn
UNIT 32 30 4 8 2

L.S. 20
PLAN  2
SIZE 0.1 0.02 0.02
CONF
BOND $H
MORE -1
fmap 2
acta
REM <olex2.extras>
REM <HklSrc "%.\\20200812c.hkl">
REM </olex2.extras>

WGHT    0.081600    2.190500
FVAR       6.75305
ZN1   5    0.051711    0.822829    0.743423    11.00000    0.02667    0.03515 =
         0.05344    0.00364    0.00036    0.00613
CL1   3   -0.025390    1.064007    0.825245    11.00000    0.03227    0.04003 =
         0.05635   -0.00045    0.00074    0.01107
CL2   3   -0.153996    0.589784    0.736849    11.00000    0.03818    0.04208 =
         0.05715   -0.00137    0.01131   -0.00191
N1    4    0.151050    0.709786    0.460004    11.00000    0.05443    0.05395 =
         0.04943   -0.00473   -0.01109    0.02886
AFIX  43
H1    2    0.150763    0.631924    0.405936    11.00000   -1.20000
AFIX   0
N3    4    0.110628    0.827379    0.607746    11.00000    0.03358    0.03616 =
         0.04929    0.00047   -0.00174    0.00985
C8    1    0.184952    0.953517    0.568767    11.00000    0.02653    0.04613 =
         0.04448    0.00744   -0.00080    0.01324
C14   1    0.213706    0.877431    0.472659    11.00000    0.03465    0.05710 =
         0.04849    0.00578   -0.00631    0.02007
N4    4    0.291642    0.817307    0.810519    11.00000    0.02934    0.03818 =
         0.05046    0.00632    0.00241    0.01016
N6    4    0.576362    0.882233    0.847865    11.00000    0.02328    0.04824 =
         0.08169   -0.01036   -0.00497    0.01303
AFIX  43
H6    2    0.690065    0.920478    0.845788    11.00000   -1.20000
AFIX   0
N2    4    0.090365    0.680406    0.540919    11.00000    0.04870    0.04195 =
         0.05536   -0.00090   -0.01022    0.01637
C9    1    0.229377    1.129828    0.609986    11.00000    0.03068    0.04289 =
         0.05457    0.00929    0.00181    0.00836
AFIX  43
H9    2    0.208411    1.180684    0.674232    11.00000   -1.20000
AFIX   0
C7    1    0.327916    0.769937    0.892145    11.00000    0.04920    0.04240 =
         0.04782    0.00173    0.00130    0.02207
C2    1    0.586687    0.775837    1.005636    11.00000    0.04668    0.04188 =
         0.09348   -0.02386   -0.02628    0.02586
AFIX  43
H2    2    0.710600    0.802890    1.026105    11.00000   -1.20000
AFIX   0
C12   1    0.334970    1.143913    0.454630    11.00000    0.03501    0.08095 =
         0.06220    0.03315    0.00207    0.01604
AFIX  43
H12   2    0.387439    1.210724    0.417102    11.00000   -1.20000
AFIX   0
C6    1    0.210413    0.692982    0.950012    11.00000    0.07947    0.04813 =
         0.05868    0.01208    0.01327    0.03035
AFIX  43
H6A   2    0.085217    0.665392    0.933230    11.00000   -1.20000
AFIX   0
C13   1    0.290981    0.973705    0.413175    11.00000    0.04239    0.09289 =
         0.04741    0.02073   -0.00001    0.03065
AFIX  43
H13   2    0.311038    0.923512    0.348667    11.00000   -1.20000
AFIX   0
N5    4    0.443829    0.887117    0.782401    11.00000    0.02566    0.04096 =
         0.06354    0.00461    0.00493    0.00804
C1    1    0.511822    0.810689    0.917439    11.00000    0.05196    0.04185 =
         0.05901   -0.00251   -0.00611    0.02226
C3    1    0.460935    0.701392    1.054466    11.00000    0.08785    0.03557 =
         0.05732    0.00305    0.01700    0.00939
C10   1    0.304721    1.224235    0.552148    11.00000    0.02884    0.05756 =
         0.06751    0.02233   -0.00222    0.00850
C5    1    0.281614    0.660288    1.029313    11.00000    0.07701    0.04973 =
         0.06584    0.00885    0.01072    0.02360
AFIX  43
H5    2    0.205151    0.608804    1.066611    11.00000   -1.20000
AFIX   0
C11   1    0.357544    1.414666    0.591581    11.00000    0.04932    0.06513 =
         0.09616    0.03764   -0.00568   -0.00161
AFIX 137
H11A  2    0.304774    1.451896    0.651910    11.00000   -1.50000
H11B  2    0.313776    1.463374    0.544368    11.00000   -1.50000
H11C  2    0.487622    1.449644    0.603503    11.00000   -1.50000
AFIX   0
C4    1    0.535084    0.665901    1.148217    11.00000    0.07029    0.05589 =
         0.07724    0.01131    0.00401    0.00824
AFIX 137
H4A   2    0.662503    0.666498    1.146489    11.00000   -1.50000
H4B   2    0.471012    0.557516    1.150579    11.00000   -1.50000
H4C   2    0.517520    0.751776    1.205471    11.00000   -1.50000
AFIX   0
HKLF 4




REM
REM R1 =  0.0617 for    2966 Fo > 4sig(Fo)  and  0.0688 for all    3383 data
REM    210 parameters refined using      0 restraints

END  
     
WGHT      0.0816      2.1824 

REM Highest difference peak  1.514,  deepest hole -0.886,  1-sigma level  0.105
Q1    1   0.2833  0.6231  1.1072  11.00000  0.05    1.51
Q2    1   0.6802  0.8373  0.9793  11.00000  0.05    1.25

  REM The information below was added by Olex2.
  REM
  REM R1 = 0.0617 for 2966 Fo > 4sig(Fo) and 0.0688 for all 9015 data
  REM 210 parameters refined using n/a restraints
  REM Highest difference peak 1.51, deepest hole -0.89
  REM Mean Shift 0, Max Shift 0.000.

  REM +++ Tabular Listing of Refinement Information +++
  REM R1_all = 0.0688
  REM R1_gt = 0.0617
  REM wR_ref = 0.1783
  REM GOOF = 1.108
  REM Shift_max = 0.000
  REM Shift_mean = 0
  REM Reflections_all = 9015
  REM Reflections_gt = 2966
  REM Parameters = 210
  REM Hole = -0.89
  REM Peak = 1.51
  REM Flack = n/a

  
;
_cod_data_source_file            d2sc01947g2.cif
_cod_data_source_block           20200812c
_cod_database_code               1567016
_shelx_shelxl_version_number     2017/1
_chemical_oxdiff_formula         ZnClCHN
_shelx_space_group_comment
;
The symmetry employed for this shelxl refinement is uniquely defined
by the following loop, which should always be used as a source of
symmetry information in preference to the above space-group names.
They are only intended as comments.
;
_shelx_estimated_absorpt_t_max   0.908
_shelx_estimated_absorpt_t_min   0.639
_reflns_odcompleteness_completeness 99.90
_reflns_odcompleteness_iscentric 1
_reflns_odcompleteness_theta     66.97
_olex2_refinement_description
;
1. Fixed Uiso
 At 1.2 times of:
  All C(H) groups, All N(H) groups
 At 1.5 times of:
  All C(H,H,H) groups
2.a Aromatic/amide H refined with riding coordinates:
 N1(H1), N6(H6), C9(H9), C2(H2), C12(H12), C6(H6A), C13(H13), C5(H5)
2.b Idealised Me refined as rotating group:
 C11(H11A,H11B,H11C), C4(H4A,H4B,H4C)
;
_olex2_submission_special_instructions 'No special instructions were received'
_oxdiff_exptl_absorpt_empirical_details
;
Empirical correction (ABSPACK) includes:
- Absorption correction using spherical harmonics
- Frame scaling
;
_oxdiff_exptl_absorpt_empirical_full_max 2.014
_oxdiff_exptl_absorpt_empirical_full_min 0.575
loop_
_space_group_symop_operation_xyz
'x, y, z'
'-x, -y, -z'
loop_
_atom_site_label
_atom_site_type_symbol
_atom_site_fract_x
_atom_site_fract_y
_atom_site_fract_z
_atom_site_U_iso_or_equiv
_atom_site_adp_type
_atom_site_occupancy
_atom_site_site_symmetry_order
_atom_site_calc_flag
_atom_site_refinement_flags_posn
_atom_site_refinement_flags_adp
_atom_site_refinement_flags_occupancy
_atom_site_disorder_assembly
_atom_site_disorder_group
Zn1 Zn 0.05171(8) 0.82283(7) 0.74342(5) 0.0406(2) Uani 1 1 d . . . . .
Cl1 Cl -0.02539(15) 1.06401(14) 0.82525(9) 0.0457(3) Uani 1 1 d . . . . .
Cl2 Cl -0.15400(16) 0.58978(15) 0.73685(9) 0.0505(3) Uani 1 1 d . . . . .
N1 N 0.1511(7) 0.7098(6) 0.4600(3) 0.0549(12) Uani 1 1 d . . . . .
H1 H 0.150763 0.631924 0.405936 0.066 Uiso 1 1 calc R U . . .
N3 N 0.1106(5) 0.8274(5) 0.6077(3) 0.0421(9) Uani 1 1 d . . . . .
C8 C 0.1850(6) 0.9535(6) 0.5688(3) 0.0397(10) Uani 1 1 d . . . . .
C14 C 0.2137(7) 0.8774(7) 0.4727(4) 0.0477(12) Uani 1 1 d . . . . .
N4 N 0.2916(5) 0.8173(5) 0.8105(3) 0.0404(8) Uani 1 1 d . . . . .
N6 N 0.5764(5) 0.8822(6) 0.8479(4) 0.0569(13) Uani 1 1 d . . . . .
H6 H 0.690065 0.920478 0.845788 0.068 Uiso 1 1 calc R U . . .
N2 N 0.0904(6) 0.6804(5) 0.5409(3) 0.0515(11) Uani 1 1 d . . . . .
C9 C 0.2294(6) 1.1298(6) 0.6100(4) 0.0438(11) Uani 1 1 d . . . . .
H9 H 0.208411 1.180684 0.674232 0.053 Uiso 1 1 calc R U . . .
C7 C 0.3279(7) 0.7699(6) 0.8921(4) 0.0473(11) Uani 1 1 d . . . . .
C2 C 0.5867(8) 0.7758(7) 1.0056(5) 0.069(2) Uani 1 1 d . . . . .
H2 H 0.710600 0.802890 1.026105 0.082 Uiso 1 1 calc R U . . .
C12 C 0.3350(7) 1.1439(9) 0.4546(4) 0.0565(14) Uani 1 1 d . . . . .
H12 H 0.387439 1.210724 0.417102 0.068 Uiso 1 1 calc R U . . .
C6 C 0.2104(10) 0.6930(7) 0.9500(4) 0.0604(15) Uani 1 1 d . . . . .
H6A H 0.085217 0.665392 0.933230 0.072 Uiso 1 1 calc R U . . .
C13 C 0.2910(8) 0.9737(9) 0.4132(4) 0.0588(15) Uani 1 1 d . . . . .
H13 H 0.311038 0.923512 0.348667 0.071 Uiso 1 1 calc R U . . .
N5 N 0.4438(5) 0.8871(5) 0.7824(3) 0.0456(10) Uani 1 1 d . . . . .
C1 C 0.5118(8) 0.8107(7) 0.9174(4) 0.0533(13) Uani 1 1 d . . . . .
C3 C 0.4609(10) 0.7014(7) 1.0545(4) 0.0628(16) Uani 1 1 d . . . . .
C10 C 0.3047(7) 1.2242(7) 0.5521(4) 0.0508(12) Uani 1 1 d . . . . .
C5 C 0.2816(10) 0.6603(8) 1.0293(5) 0.0644(16) Uani 1 1 d . . . . .
H5 H 0.205151 0.608804 1.066611 0.077 Uiso 1 1 calc R U . . .
C11 C 0.3575(9) 1.4147(8) 0.5916(6) 0.0697(18) Uani 1 1 d . . . . .
H11A H 0.304774 1.451896 0.651910 0.104 Uiso 1 1 calc R U . . .
H11B H 0.313776 1.463374 0.544368 0.104 Uiso 1 1 calc R U . . .
H11C H 0.487622 1.449644 0.603503 0.104 Uiso 1 1 calc R U . . .
C4 C 0.5351(10) 0.6659(8) 1.1482(5) 0.0704(17) Uani 1 1 d . . . . .
H4A H 0.662503 0.666498 1.146489 0.106 Uiso 1 1 calc R U . . .
H4B H 0.471012 0.557516 1.150579 0.106 Uiso 1 1 calc R U . . .
H4C H 0.517520 0.751776 1.205471 0.106 Uiso 1 1 calc R U . . .
loop_
_atom_site_aniso_label
_atom_site_aniso_U_11
_atom_site_aniso_U_22
_atom_site_aniso_U_33
_atom_site_aniso_U_23
_atom_site_aniso_U_13
_atom_site_aniso_U_12
Zn1 0.0267(3) 0.0351(3) 0.0534(4) 0.0036(3) 0.0004(3) 0.0061(2)
Cl1 0.0323(5) 0.0400(6) 0.0563(7) -0.0004(5) 0.0007(5) 0.0111(4)
Cl2 0.0382(6) 0.0421(6) 0.0572(7) -0.0014(5) 0.0113(5) -0.0019(5)
N1 0.054(3) 0.054(3) 0.049(2) -0.005(2) -0.011(2) 0.029(2)
N3 0.0336(19) 0.0362(19) 0.049(2) 0.0005(17) -0.0017(16) 0.0099(16)
C8 0.027(2) 0.046(2) 0.044(2) 0.007(2) -0.0008(18) 0.0132(18)
C14 0.035(2) 0.057(3) 0.048(3) 0.006(2) -0.006(2) 0.020(2)
N4 0.0293(18) 0.0382(19) 0.050(2) 0.0063(17) 0.0024(16) 0.0102(15)
N6 0.0233(19) 0.048(2) 0.082(3) -0.010(2) -0.005(2) 0.0130(17)
N2 0.049(2) 0.042(2) 0.055(3) -0.0009(19) -0.010(2) 0.0164(19)
C9 0.031(2) 0.043(2) 0.055(3) 0.009(2) 0.002(2) 0.0084(19)
C7 0.049(3) 0.042(3) 0.048(3) 0.002(2) 0.001(2) 0.022(2)
C2 0.047(3) 0.042(3) 0.093(5) -0.024(3) -0.026(3) 0.026(2)
C12 0.035(3) 0.081(4) 0.062(3) 0.033(3) 0.002(2) 0.016(3)
C6 0.079(4) 0.048(3) 0.059(3) 0.012(3) 0.013(3) 0.030(3)
C13 0.042(3) 0.093(5) 0.047(3) 0.021(3) 0.000(2) 0.031(3)
N5 0.0257(18) 0.041(2) 0.064(3) 0.0046(18) 0.0049(17) 0.0080(16)
C1 0.052(3) 0.042(3) 0.059(3) -0.003(2) -0.006(3) 0.022(2)
C3 0.088(5) 0.036(3) 0.057(3) 0.003(2) 0.017(3) 0.009(3)
C10 0.029(2) 0.058(3) 0.068(3) 0.022(3) -0.002(2) 0.009(2)
C5 0.077(4) 0.050(3) 0.066(4) 0.009(3) 0.011(3) 0.024(3)
C11 0.049(3) 0.065(4) 0.096(5) 0.038(4) -0.006(3) -0.002(3)
C4 0.070(4) 0.056(4) 0.077(4) 0.011(3) 0.004(3) 0.008(3)
loop_
_atom_type_symbol
_atom_type_description
_atom_type_scat_dispersion_real
_atom_type_scat_dispersion_imag
_atom_type_scat_source
C C 0.0181 0.0091 'International Tables Vol C Tables 4.2.6.8 and 6.1.1.4'
H H 0.0000 0.0000 'International Tables Vol C Tables 4.2.6.8 and 6.1.1.4'
Cl Cl 0.3639 0.7018 'International Tables Vol C Tables 4.2.6.8 and 6.1.1.4'
N N 0.0311 0.0180 'International Tables Vol C Tables 4.2.6.8 and 6.1.1.4'
Zn Zn -1.5491 0.6778 'International Tables Vol C Tables 4.2.6.8 and 6.1.1.4'
loop_
_diffrn_refln_index_h
_diffrn_refln_index_k
_diffrn_refln_index_l
_diffrn_refln_intensity_net
_diffrn_refln_intensity_u
_diffrn_refln_scale_group_code
0 0 1 6442.57 341.275 31
0 0 2 6934.05 389.653 23
0 0 2 7620.55 451.305 31
0 0 3 119766 5106.08 26
0 0 -3 122847 5151.14 16
0 0 3 125991 5210.02 23
0 0 3 127240 5312.91 31
0 0 4 104960 4350.48 23
0 0 -4 104852 4265.49 16
0 0 4 108349 4494.59 31
0 0 4 95021.8 4190.26 26
0 0 5 51879.5 2398.18 23
0 0 -5 50806.8 2283.31 16
0 0 5 52367.8 2565.28 31
0 0 -6 98178 4388.71 16
0 0 6 108129 4779.18 31
0 0 6 105403 4564.07 23
0 0 7 40719.1 2316.71 31
0 0 7 42157.1 2124.19 23
0 0 8 4638.44 547.473 23
0 0 8 5711.05 732.338 31
0 0 9 21048.9 1055.98 27
0 0 9 21989.1 1153.75 30
0 0 9 21296.7 1024.39 11
0 0 9 21094.6 1370.87 23
0 0 9 20734.1 1176.39 21
0 0 9 20258 1159.65 15
0 0 9 23589.9 1094.71 33
0 0 9 21462.9 1208.9 12
0 0 9 20698.6 1217.85 13
0 0 9 21241.2 1042.39 9
0 0 10 31570.5 1530.52 9
0 0 10 30463.8 1651.57 15
0 0 10 28572.4 1865.51 23
0 0 10 31812.2 1508.22 11
0 0 10 31811.4 1571.51 33
0 0 10 33145.3 1667.33 30
0 0 10 34217.7 1717.95 21
0 0 11 24233.9 1248.55 33
0 0 11 24872.8 1355.41 30
0 0 11 22307.9 1191.98 9
0 0 11 23839.4 1270.55 29
0 0 11 22125.5 1166.9 11
0 0 12 10900 647.014 32
0 0 12 9674.99 594.205 11
0 0 12 10128.9 691.066 29
0 0 12 9350.84 612.66 9
0 0 12 10067.7 662.187 33
0 0 12 11032.8 786.301 30
0 0 13 1723.08 234.311 11
0 0 13 1488.05 284.219 29
0 0 13 2161.88 390.331 30
0 0 13 1833.47 331.041 18
0 0 13 2179.84 272.671 9
0 0 13 1887.61 281.205 33
0 0 13 1894.8 273.018 32
0 0 14 14765.6 962.291 30
0 0 14 16270.2 834.48 32
0 0 15 2545.46 369.238 30
0 0 16 256.851 192.521 30
0 -1 17 1096.81 197.754 30
0 -1 16 2450.33 335.437 30
0 -1 15 2569.36 386.023 30
0 -1 15 3662.13 319.43 9
0 -1 14 6538.12 479.216 9
0 -1 14 6535.9 595.875 30
0 -1 14 6558.42 445.576 11
0 -1 14 6348.21 525.018 29
0 -1 13 4586.94 430.06 29
0 -1 13 2860.37 369.101 18
0 -1 13 3879.52 396.539 33
0 -1 13 4285.23 374.405 9
0 -1 13 3767.79 467.098 30
0 -1 13 3681.73 333.358 11
0 -1 12 18132.4 903.925 11
0 -1 12 17070.4 929.958 9
0 -1 12 16744.7 967.104 33
0 -1 12 18322.3 1058.51 30
0 -1 11 2558 308.393 27
0 -1 11 3074.43 395.416 30
0 -1 11 3268.25 348.812 33
0 -1 11 3400.03 297.54 11
0 -1 11 2986.4 311.171 9
0 -1 11 2198.14 480.764 23
0 -1 10 1453.99 224.471 27
0 -1 10 1591.35 259.105 10
0 -1 10 1185.58 354.319 23
0 -1 10 1182.79 199.36 9
0 -1 10 1628.8 245.039 33
0 -1 10 1306.1 268.659 21
0 -1 10 1146.65 271.281 30
0 -1 9 4537.95 391.752 37
0 -1 9 4756.61 359.857 27
0 -1 9 5339.71 413.624 10
0 -1 9 5287.95 627.456 23
0 -1 9 4593.9 474.308 15
0 -1 9 5043.09 380.009 33
0 1 -8 2924.57 375.972 16
0 -1 8 3994.47 498.779 23
0 -1 7 105937 4846.82 23
0 1 -7 105595 4721.65 16
0 1 -6 475.426 189.006 16
0 -1 6 356.31 94.1243 24
0 -1 6 374.621 209.402 23
0 -1 5 294827 11540.3 35
0 -1 5 312123 11826.2 23
0 1 -5 308316 11751.4 16
0 1 -4 944.144 178.477 16
0 -1 4 304.73 104.913 35
0 -1 3 533616 22174.3 34
0 -1 2 1999.69 213.123 23
0 -1 2 1790.03 182.117 34
0 -1 1 183976 7714.97 23
0 1 0 209681 8835.78 16
0 -1 0 216631 8893.55 34
0 1 1 305978 12723 16
0 -1 -1 310408 12815.3 34
0 1 2 43292.9 1842.63 23
0 -1 -2 42077 1895.48 34
0 1 3 7664.55 414.799 23
0 1 3 7529.04 585.255 31
0 -1 -3 6975.98 401.948 35
0 1 4 32559.6 1431.1 23
0 1 4 31839.2 1665.31 31
0 -1 -4 32667.9 1338.47 35
0 1 5 3172.03 302.787 23
0 1 5 2982.06 467.56 31
0 1 6 14275.7 1078.25 31
0 1 6 13232.2 805.428 23
0 1 7 92047.1 4204.15 23
0 1 7 96952.3 4628.61 31
0 1 8 3923.43 436.755 23
0 1 8 3613.66 440.167 12
0 1 8 4897.75 746.914 31
0 1 8 5223.2 388.887 29
0 1 8 4448.95 463.606 13
0 1 8 5107.2 475.954 21
0 1 9 15275.1 815.336 29
0 1 9 13294.8 729.901 19
0 1 9 12517.8 886.292 12
0 1 9 13746.5 716.158 11
0 1 9 14686.4 766.578 33
0 1 9 14302.5 733.365 9
0 1 9 11519.9 832.226 15
0 1 9 15483.1 947.197 21
0 1 9 13335.9 757.901 20
0 1 9 13763.3 1341.36 31
0 1 9 13346.3 907.759 13
0 1 10 5220.54 586.475 13
0 1 10 6060.35 405.376 11
0 1 10 6168.47 579.47 15
0 1 10 5395.43 399.868 19
0 1 10 6281.02 485.935 29
0 1 10 5218.88 402.17 9
0 1 10 4783.31 405.082 20
0 1 10 6211.65 432.055 32
0 1 10 5491.11 429.852 33
0 1 11 11492.4 701.973 33
0 1 11 10275 660.62 20
0 1 11 12561.8 687.302 9
0 1 11 13482.1 723.066 32
0 1 11 11624.8 754.61 29
0 1 12 164.778 183.53 29
0 1 12 -179.658 158.293 33
0 1 12 -14.2836 178.58 32
0 1 12 24.5205 235.328 18
0 1 13 952.061 232.019 32
0 1 13 669.886 230.322 29
0 1 13 892.023 285.44 18
0 1 14 150.894 212.64 18
0 1 14 151.226 161.549 32
0 1 15 207.629 139.912 32
0 1 15 69.7551 213.127 30
0 1 15 -13.3264 160.59 18
0 1 16 687.074 196.966 30
0 -2 17 761.958 170.386 30
0 -2 16 145.481 133.318 9
0 -2 16 241.619 193.095 30
0 -2 15 865.475 223.151 29
0 -2 15 1007.33 272.971 30
0 -2 15 1036.94 218.583 9
0 -2 15 816.7 182.402 11
0 -2 14 2592.15 280.895 11
0 -2 14 2699.31 306.662 9
0 -2 14 2029.97 369.904 30
0 -2 13 562.587 222.123 9
0 -2 13 437.762 179.645 11
0 -2 13 477.305 219.934 33
0 -2 13 373.014 202.117 27
0 -2 13 673.193 261.116 30
0 -2 12 1961.07 486.873 23
0 -2 12 1740.93 264.11 32
0 -2 12 1705.19 317.561 30
0 -2 12 1831.59 275.848 27
0 -2 11 5193.47 757.919 23
0 -2 11 5520.98 407.757 32
0 -2 11 4854.17 360.053 4
0 -2 11 4966.15 470.647 30
0 -2 11 4878.86 413.816 27
0 -2 10 27136.1 1344.85 27
0 -2 10 27082.3 1294.5 4
0 -2 10 27703.4 1828.92 23
0 2 -10 23132.1 1600.6 16
0 -2 10 28816.4 1412.47 30
0 -2 10 29340.4 1333.14 32
0 -2 10 28664 1411.63 10
0 -2 9 94.2367 123.487 32
0 2 -9 68.6096 171.947 16
0 -2 9 130.353 137.893 33
0 -2 9 -14.1414 144.693 10
0 -2 9 32.2806 128.399 27
0 -2 9 43.8203 237.228 23
0 -2 8 9104.47 814.301 23
0 2 -8 8318.1 725.168 16
0 2 -7 14624.3 910.657 16
0 -2 7 13218.7 945.465 23
0 -2 6 26712.5 1320.22 35
0 2 -6 27422.5 1467.71 16
0 2 -5 64410.2 2945.08 16
0 -2 5 61954.3 2992.13 23
0 -2 4 80823.1 3645.08 23
0 -2 4 79059.4 3568.62 34
0 2 -4 80839.4 3595.1 16
0 -2 3 4386.95 405.956 34
0 -2 3 4437.32 421.032 23
0 -2 2 9620.58 614.823 23
0 2 -1 16037.2 811.872 16
0 -2 1 14736.3 824.692 23
0 -2 1 16051.2 890.426 34
0 -2 0 168995 7318.54 34
0 2 0 171750 7203.35 16
0 2 1 156323 6492.65 16
0 -2 -1 149622 6641.68 34
0 -2 -2 85058.6 3791.06 34
0 2 3 8539.57 411.735 23
0 2 4 28173.8 1295.18 23
0 -2 -4 32625.1 1451.14 35
0 2 5 -40.7902 268.283 31
0 2 5 62.6443 81.8121 22
0 2 5 -42.3334 70.2302 23
0 2 6 9761.24 965.824 31
0 2 7 25755.6 1797.52 31
0 2 7 26784.2 1343.19 21
0 2 7 24891.6 1229.84 20
0 2 7 23545.3 1213.7 29
0 2 7 26086 1265.89 30
0 2 7 21985.4 1313.56 12
0 2 8 6798.07 910.955 31
0 2 8 7455.05 546.307 30
0 2 8 6913.92 495.721 29
0 2 8 7001.08 497.245 20
0 2 8 6240.33 440.146 19
0 2 8 6015.15 571.996 21
0 2 8 6123.63 582.777 12
0 2 8 6049.79 555.185 13
0 2 9 6782.36 540.345 29
0 2 9 6467.14 991.151 31
0 2 9 7892.12 666.14 13
0 2 9 8206.43 520.008 19
0 2 9 8387.75 561.534 20
0 2 9 7735.36 606.908 30
0 2 9 7670.5 656.659 12
0 2 10 -249.448 354.385 31
0 2 10 313.207 172.043 20
0 2 10 166.995 152.296 19
0 2 10 348.886 310.891 13
0 2 10 17.8218 185.189 29
0 2 10 405.377 255.502 30
0 2 11 151.813 177.916 32
0 2 11 14.6997 152.454 20
0 2 11 239.731 259.596 30
0 2 11 160.099 140.383 19
0 2 12 1853.75 369.174 30
0 2 12 2502.49 304.79 32
0 2 13 233.849 247.807 18
0 2 13 493.463 186.685 32
0 2 13 281.774 257.775 30
0 2 14 130.34 189.663 18
0 2 14 154.272 144.219 32
0 2 14 197.865 214.699 30
0 2 15 990.005 225.802 30
0 2 15 808.282 172.124 18
0 -3 17 719.015 140.265 9
0 -3 16 107.328 129.548 11
0 -3 16 230.914 158.708 30
0 -3 15 749.523 219.831 30
0 -3 15 1078.74 197.204 11
0 -3 14 2339.4 315.618 27
0 -3 14 2969.25 301.413 11
0 -3 14 1871.75 312.915 30
0 -3 13 5307.88 402.706 4
0 -3 13 5820.21 476.298 27
0 -3 13 5382.76 493.763 30
0 -3 13 6558.05 504.231 33
0 -3 12 2535.33 327.439 27
0 -3 12 1985.34 543.562 23
0 -3 12 2688.64 352.461 10
0 -3 12 1679.47 297.618 30
0 -3 12 2282.26 254.379 4
0 -3 12 2914.8 343.727 33
0 -3 11 11631.4 705.489 33
0 -3 11 10948.1 725.818 10
0 -3 11 11008.3 632.67 4
0 -3 11 10998.5 709.897 30
0 -3 11 12754.5 715.704 27
0 -3 11 11343.6 1168.01 23
0 3 -10 3365 549.386 16
0 -3 10 3317.41 629.494 23
0 -3 10 3371.83 352.092 30
0 -3 10 4139.92 363.163 27
0 -3 10 3946.03 313.131 4
0 -3 10 3951.85 378.704 10
0 -3 10 3952.39 353.722 33
0 3 -9 12180.4 1018.48 16
0 -3 9 12363.1 651.383 4
0 -3 9 12476.3 725.99 10
0 -3 9 11761.9 687.602 33
0 -3 8 60311.7 2885.48 35
0 3 -8 68292.6 3216.07 16
0 -3 7 627.506 202.266 35
0 3 -7 634.183 257.995 16
0 -3 7 514.512 272.252 23
0 -3 6 8198.56 742.299 23
0 3 -6 9229.77 727.565 16
0 -3 6 8140.12 631.215 35
0 -3 5 46364.2 2447.63 23
0 3 -5 47977.6 2390.1 16
0 -3 5 50442.5 2392.5 34
0 -3 4 14255.3 951.869 23
0 3 -4 13510.3 877.485 16
0 -3 4 14425.4 934.379 34
0 -3 3 43306.5 2158.66 23
0 -3 3 43306.4 2195.27 34
0 -3 2 74930 3491.48 23
0 3 -2 78599.5 3461.98 16
0 -3 1 1370.08 317.848 34
0 3 -1 1755.8 241.337 16
0 -3 0 85457.5 3983.59 34
0 3 0 86733.4 3797.39 16
0 3 1 9720.45 560.755 16
0 -3 -1 8856.71 739.456 34
0 -3 -2 164341 7247.1 34
0 -3 -3 9344.85 706.14 35
0 -3 -4 42359 2120 35
0 3 5 23029.6 1290.69 22
0 3 5 26244.2 1764.34 31
0 3 6 64793.8 3428.64 31
0 3 6 57061.5 2605.51 19
0 3 6 59860.6 2664.55 30
0 3 6 62416.5 2758.08 21
0 3 6 52100.5 2725.76 12
0 3 6 60337.7 2669.82 20
0 3 7 1647.67 342.997 12
0 3 7 2145.51 257.369 19
0 3 7 2679.9 314.858 20
0 3 7 1873.04 332.757 13
0 3 7 2095.39 604.018 31
0 3 7 2282.38 307.123 30
0 3 8 31644.9 2268.19 31
0 3 8 27652.1 1357.9 19
0 3 8 23792.1 1485.45 12
0 3 8 25842.7 1491.19 13
0 3 8 28018.6 1450.88 30
0 3 8 31030.9 1448.13 20
0 3 9 3599.39 390.163 20
0 3 9 2950.33 397.068 30
0 3 9 2466.33 436.135 13
0 3 9 2732.05 733.639 31
0 3 9 2526.6 316.924 19
0 3 10 1250.5 368.289 13
0 3 10 1203.51 257.653 20
0 3 10 1047.96 316.939 18
0 3 10 1213.11 309.749 30
0 3 10 907.74 538.274 31
0 3 10 1149.66 223.624 19
0 3 11 96.6983 255.625 18
0 3 11 66.8033 232.538 30
0 3 11 361.029 184.485 32
0 3 11 228.302 160.993 19
0 3 11 339.541 181.686 20
0 3 12 4017.95 455.941 18
0 3 12 4099.1 351.473 32
0 3 12 3392.06 422.763 30
0 3 13 3605.8 380.356 18
0 3 13 3027.93 372.259 30
0 3 13 3307.48 293.535 32
0 -4 16 379.435 157.213 9
0 -4 16 425.497 141.402 11
0 -4 15 417.5 191.008 9
0 -4 15 449.087 172.652 11
0 -4 15 368.222 192.918 27
0 -4 14 5059.78 416.108 9
0 -4 14 4231.87 346.798 4
0 -4 14 5264.97 437.741 27
0 -4 13 18007.1 937.126 4
0 -4 13 18171.5 1009.2 27
0 4 -12 7894.81 926.442 16
0 -4 12 9317.52 662.464 10
0 -4 12 9162.19 577.425 4
0 -4 11 5479.41 403.974 4
0 -4 11 5496.18 461.442 10
0 -4 11 4566.23 421.9 33
0 4 -11 4019.42 666.717 16
0 -4 11 6024.73 468.352 27
0 -4 10 36177.2 1737.95 6
0 -4 10 39238.1 1882.02 10
0 -4 10 39958.1 1854.34 33
0 -4 10 43199.1 1827.2 4
0 4 -10 43728.8 2442.03 16
0 -4 9 1169.15 203.519 33
0 -4 9 1202.77 219.702 10
0 -4 9 1277.17 438.705 23
0 4 -9 1091.55 367.131 16
0 -4 9 1402 159.792 6
0 -4 8 52658.9 2301.12 7
0 -4 8 48317.8 2318.96 10
0 -4 8 49356.8 2299.8 33
0 -4 8 56513.6 2901.91 23
0 4 -8 47820.6 2653.82 22
0 -4 8 55075.6 2624.24 35
0 -4 7 19692.2 1401.37 23
0 4 -7 21142.5 1360.95 16
0 -4 7 18752.2 1238.67 35
0 -4 6 2248.71 393.918 35
0 -4 6 2596.61 457.749 23
0 4 -6 3332.99 459.839 16
0 -4 5 27776 1660.06 23
0 4 -4 6629.69 604.134 16
0 -4 4 7030.93 677.49 34
0 -4 4 6783.04 652.819 23
0 4 -3 126372 5638.89 16
0 4 -2 2289.9 329.742 16
0 -4 2 2580.19 448.22 34
0 4 -1 216274 9124.68 16
0 -4 1 204745 9341.97 34
0 4 0 60763 2799.48 16
0 -4 0 59036.1 3060.75 34
0 4 1 264290 11177.8 16
0 -4 -2 99929.2 4706.57 35
0 -4 -3 42313.2 2287.11 35
0 4 4 7225.39 699.157 22
0 -4 -4 7026.79 700.015 35
0 4 4 7527.04 507.912 20
0 4 4 6716.56 454.038 19
0 4 5 13110.1 861.522 13
0 4 5 13196.7 1358.63 31
0 4 5 14122 810.117 30
0 4 5 15414.3 845.391 20
0 4 6 1927.07 251.508 19
0 4 6 1387.14 303.468 12
0 4 6 1688.73 574.749 31
0 4 6 1860.73 279.51 30
0 4 6 1972.73 330.673 13
0 4 7 11777.6 894.418 12
0 4 7 12726.2 902.029 13
0 4 7 14759.9 862.478 30
0 4 7 15396.4 1573.5 31
0 4 7 14261.4 800.73 19
0 4 8 857.221 220.305 19
0 4 8 391.437 276.337 13
0 4 8 679.517 245.512 30
0 4 8 411.5 269.564 18
0 4 8 93.0382 412.675 31
0 4 8 743.104 251 20
0 4 9 21859.9 1241.39 30
0 4 9 24286.4 1244.63 20
0 4 9 24165 1176.19 19
0 4 9 18696.8 1928.42 31
0 4 9 21267.9 1275.36 18
0 4 9 20213.8 1280.97 13
0 4 10 7790.28 636.88 18
0 4 10 7518.61 612.016 30
0 4 10 8410.89 544.729 19
0 4 10 8194.79 582.826 20
0 4 11 8148.15 509.945 32
0 4 11 7899.73 611.644 18
0 4 11 7624.45 523.197 20
0 4 12 2319.31 297.918 18
0 4 12 2165.69 233.852 32
0 4 13 6884.67 448.558 18
0 -5 17 578.649 114.559 9
0 -5 16 208.752 136.957 27
0 -5 16 357.549 132.792 11
0 -5 16 271.662 137.993 9
0 -5 15 6527.26 441.346 9
0 -5 15 6397.08 464.999 27
0 -5 14 545.333 150.595 4
0 -5 14 662.831 220.033 27
0 -5 13 15063.4 851.973 27
0 -5 13 13415.1 766.442 4
0 -5 12 5899.9 488.303 10
0 -5 12 6582.84 456.152 4
0 -5 12 6670.81 517.421 27
0 -5 11 17207.5 846.91 4
0 -5 11 14368.1 860.523 10
0 5 -11 15458.6 1347.95 16
0 -5 11 13953.6 747.328 6
0 -5 10 5330.98 354.922 6
0 -5 10 4849.59 420.946 10
0 -5 9 2341.29 262.053 7
0 -5 9 1594.24 353.788 35
0 5 -9 2460.88 508.08 16
0 -5 9 1741.87 250.584 10
0 -5 9 1689.75 488.556 23
0 5 -8 19642.5 1407.93 16
0 5 -8 16917.5 1340.85 22
0 -5 8 18204.4 1434.65 23
0 -5 8 20317 1338.65 35
0 -5 8 19660.7 944.304 7
0 -5 8 15512.8 913.789 10
0 -5 7 5323.32 708.599 23
0 5 -7 4746.45 341.075 2
0 -5 7 5096.63 636.16 35
0 5 -7 6214.39 693.332 16
0 -5 6 78701.4 3953.25 35
0 -5 6 81897.5 3489.58 7
0 5 -6 78737.3 3454.19 2
0 -5 5 13365.6 721.208 7
0 5 -5 15743.1 1093.63 16
0 5 -5 13388.8 702.351 2
0 -5 5 15355.1 1127.65 35
0 5 -4 84113.6 4038.26 16
0 5 -3 55907.7 2814.64 16
0 5 -2 75064.9 3579.67 16
0 5 -1 57514 2815.32 16
0 -5 0 23225.9 1529.4 35
0 5 0 20344.5 1004.81 2
0 5 0 22266.4 1226.21 16
0 5 1 32086 1422.38 2
0 -5 -1 32033.5 1949.45 35
0 5 1 30768.7 1443.75 19
0 5 1 28766.2 1458.63 20
0 5 2 30866.2 1515.99 20
0 -5 -2 32190.8 1970.17 35
0 5 2 32132.1 1445.43 2
0 5 2 31953.3 1488.57 19
0 5 2 29172.1 1569.48 13
0 5 3 1111.14 263.325 13
0 -5 -3 867.709 327.144 35
0 5 3 1026.48 196.762 19
0 5 3 1366.82 170.004 2
0 5 3 1145.53 341.339 22
0 5 3 1052.79 224.817 20
0 5 4 890.328 322.977 22
0 5 4 1334.05 567.107 31
0 5 4 792.685 249.009 13
0 5 4 993.167 233.711 20
0 5 4 938.969 219.746 18
0 5 4 932.226 208.682 19
0 5 5 89.1883 394.28 31
0 5 5 249.285 210.472 20
0 5 5 109.047 173.251 18
0 5 5 129.038 221.602 13
0 5 5 258.604 178.153 19
0 5 6 32872.7 1577.94 20
0 5 6 29463.2 1553.49 18
0 5 6 29078.4 1592.33 13
0 5 7 7698.4 582.279 20
0 5 7 7182.87 1132.19 31
0 5 7 6827.8 605.007 13
0 5 7 6679.06 571.901 18
0 5 8 30858.2 1450.25 19
0 5 8 26446 1489.83 18
0 5 9 223.768 197.184 18
0 5 9 162.603 193.203 20
0 5 10 5066.57 399.781 20
0 5 10 5076.04 359.61 32
0 5 10 4083.76 405.712 18
0 5 11 113.67 129.1 20
0 5 11 59.778 142.683 18
0 5 12 4273.47 295.33 18
0 -6 16 327.456 116.736 9
0 -6 16 635.099 140.045 27
0 -6 16 736.539 127.385 11
0 -6 15 244.823 135.696 9
0 -6 15 126.463 154.194 27
0 -6 14 2720.3 306.388 27
0 -6 14 2385.46 241.346 4
0 -6 13 742.982 175.213 4
0 -6 13 600.289 226.742 27
0 -6 12 115.6 154.576 10
0 -6 12 -49.6187 147.269 4
0 6 -11 183.222 270.005 16
0 -6 11 165.869 105.128 6
0 -6 11 57.97 144.365 10
0 -6 11 155.411 158.353 4
0 -6 10 6860.29 497.539 10
0 -6 10 7565.88 457.311 6
0 6 -10 7333.06 900.617 16
0 6 -9 918.535 171.207 2
0 -6 9 1254.82 366.148 35
0 6 -9 636.549 337.042 16
0 6 -8 3551.19 627.512 22
0 -6 8 3477.17 578.588 35
0 6 -8 3403.86 301.574 2
0 6 -7 15825.9 1287.91 16
0 -6 7 16654.5 870.774 7
0 -6 7 15738.9 1291.31 35
0 6 -7 15225.5 827.5 2
0 6 -6 15381.3 794.308 2
0 6 -6 15585.1 1226.53 16
0 -6 6 15328.7 1255.91 35
0 -6 6 14081.1 802.114 7
0 6 -5 5564.33 398.836 2
0 6 -5 5795.89 692.667 16
0 -6 5 6402.96 432.526 7
0 -6 5 5082.44 726.176 35
0 -6 4 24162.4 1175.4 7
0 6 -4 22974.3 1154.65 2
0 6 -4 25490.5 1586.36 16
0 6 -3 1565.32 202.66 2
0 -6 3 1866.89 480.173 35
0 6 -3 1483.53 342.544 16
0 6 -2 6675.04 665.125 16
0 -6 2 7021.46 845.936 35
0 6 -1 150.992 151.507 16
0 -6 1 222.131 286.029 35
0 6 -1 169.635 126.679 2
0 6 0 5074.12 406.178 20
0 -6 0 5986.24 792.353 35
0 6 0 6050.18 397.273 2
0 6 1 3144.55 328.386 20
0 6 1 3416.17 314.008 19
0 -6 -1 3582.2 630.622 35
0 6 1 3746.13 298.276 2
0 6 1 2578.39 369.793 13
0 6 2 3584.68 424.315 13
0 6 2 3719.31 636.035 22
0 6 2 4033.76 327.353 2
0 6 2 4982.9 376.75 19
0 -6 -2 3007.58 578.967 35
0 6 2 3947.02 373.422 20
0 6 3 4620.26 384.351 19
0 6 3 4161.53 324.946 2
0 6 3 4253.17 645.545 22
0 6 3 4329.18 404.864 20
0 6 4 161.71 177.1 19
0 6 4 -35.0799 189.9 20
0 6 4 -285.572 435.509 31
0 6 5 13902.4 776.557 19
0 6 5 12275.1 791.695 20
0 6 6 2129.01 286.621 18
0 6 6 2045.24 314.206 20
0 6 7 2917.9 329.32 18
0 6 7 4006.5 392.211 20
0 6 8 4275.12 368.989 20
0 6 8 2877.77 315.353 18
0 6 9 707.963 161.782 18
0 6 9 382.812 138.728 17
0 6 10 207.139 92.4865 17
0 6 10 71.1791 90.2967 18
0 -7 16 7.84853 64.5685 11
0 -7 15 -7.90642 114.026 27
0 -7 15 -76.0164 90.0875 9
0 -7 14 335.319 120.322 4
0 -7 14 374.361 127.832 9
0 -7 13 990.083 174.669 4
0 -7 12 54.8932 136.038 4
0 -7 11 3617.99 318.849 4
0 -7 11 3208.35 267.648 6
0 -7 10 4554.52 331.651 6
0 7 -9 228.097 139.507 2
0 7 -9 291.596 248.476 16
0 -7 9 -50.5653 223.59 35
0 -7 8 1638.01 427.635 35
0 -7 8 1613.62 244.07 7
0 7 -8 792.628 340.312 16
0 7 -8 1453.53 446.15 22
0 7 -8 1790.82 240.058 2
0 7 -7 6199.93 801.088 16
0 7 -7 7298.5 481.52 2
0 -7 7 6574.73 855.702 35
0 7 -7 6200.59 881.328 22
0 -7 7 7323.93 503.659 7
0 7 -6 9594.02 989.286 16
0 -7 6 10423.3 629.625 7
0 7 -6 10282.1 615.769 2
0 -7 6 10584.9 1091.1 35
0 7 -6 8535.2 1052.79 22
0 -7 5 8617.58 548.823 7
0 7 -5 8194.14 530.509 2
0 7 -5 7923.82 993.512 22
0 -7 5 8016.86 956.256 35
0 7 -5 7798.92 844.123 16
0 7 -4 3143.36 308.347 2
0 7 -4 2891.08 492.06 16
0 -7 4 3305.2 316.483 7
0 7 -3 1472.99 366.888 16
0 -7 3 1532.11 219.744 7
0 -7 3 1322.97 438.27 35
0 7 -2 5198.26 790.042 22
0 7 -2 5216.87 412.656 2
0 -7 2 5768.65 427.348 7
0 -7 2 6170.43 860.63 35
0 -7 1 -63.9347 282.616 35
0 7 -1 87.4491 149.094 2
0 7 -1 109.812 113.153 17
0 7 -1 200.245 249.372 22
0 7 0 63.8065 139.944 20
0 7 0 184.075 142.179 2
0 7 0 195.457 266.687 22
0 -7 0 377.837 288.179 35
0 7 1 19034.5 1006.24 20
0 -7 -1 19453.2 1586.32 35
0 7 1 18870.8 975.354 2
0 7 1 18283.1 1539.48 22
0 7 2 3918 362.839 20
0 7 2 4042.31 317.575 2
0 7 3 5451.59 442.77 20
0 7 4 3247.5 342.594 20
0 7 5 20168.1 1062.85 20
0 7 6 6821.29 474.542 20
0 7 7 1343.36 208.8 20
0 7 7 1368.84 181.42 17
0 7 8 2863.53 246.088 20
0 7 9 786.816 93.2572 17
0 -8 14 677.049 107.131 4
0 -8 14 588.602 91.3361 9
0 -8 13 1079.11 137.55 9
0 -8 13 1879.45 175.782 4
0 -8 12 295.222 163.956 27
0 -8 12 355.693 131.919 4
0 -8 11 6010.66 361.31 6
0 -8 10 1107.1 158.644 6
0 -8 9 19473.2 957.77 6
0 -8 9 19379.2 1002.81 7
0 -8 8 1984.94 258.88 7
0 8 -8 2425.66 260.515 2
0 -8 7 3519.17 326.087 7
0 8 -7 3150.75 304.017 2
0 -8 6 530.985 178.631 7
0 8 -6 342.976 161.886 2
0 -8 5 3092.88 307.836 7
0 8 -5 3128.68 310.372 2
0 -8 4 2902.44 605.074 35
0 -8 4 3642.7 332.139 7
0 8 -4 3661.06 335.787 2
0 -8 3 3167.96 311.116 7
0 8 -2 5690.56 427.708 2
0 -8 2 6228.64 436.622 7
0 -8 1 4675.2 363.745 7
0 8 -1 4086.82 312.371 17
0 8 -1 4603.68 360.556 2
0 -8 0 28174.2 1319.57 7
0 8 0 27018.3 1284.13 17
0 8 0 26468.4 1304.69 2
0 8 1 10660.3 601.365 20
0 -8 -1 10424.1 607.823 7
0 8 1 10977.1 603.298 17
0 -8 -2 9303.79 531.646 7
0 8 2 8979.01 543.662 20
0 8 2 9740.15 547.092 17
0 8 3 11005.4 605.93 17
0 8 3 10853.6 611.085 20
0 8 4 5050.97 351.711 20
0 8 4 5036.85 341.374 17
0 8 5 5727.49 350.657 17
0 8 6 1884.91 163.609 17
0 -9 13 332.094 91.3712 27
0 -9 13 244.949 64.5426 4
0 -9 12 2772.86 225.464 27
0 -9 11 954.178 165.184 27
0 -9 10 2903.77 229.38 4
0 -9 10 2372.13 192.372 6
0 -9 9 238.971 101.149 6
0 -9 8 749.584 154.496 7
0 -9 7 1832.69 217.453 7
0 -9 6 2830.75 265.237 7
0 -9 5 6859.93 442.743 7
0 -9 4 5976.18 401.007 7
0 -9 3 4418.97 329.175 7
0 -9 2 11185.8 606.464 7
0 -9 1 3270.4 259.957 7
0 -9 0 4616.69 299.477 7
0 9 1 3899.86 246.524 17
0 9 1 4599.91 305.158 14
0 9 2 3048.95 198.952 17
0 -10 9 1007.27 120.396 27
0 -10 9 943.915 101.901 4
0 -10 9 777.82 89.3715 6
0 -10 8 112.575 70.4609 4
0 -10 7 849.942 107.943 6
0 10 -7 756.256 101.627 14
0 -10 6 1657.56 147.855 6
0 -10 5 2899.13 195.365 6
0 -10 4 442.502 77.7197 6
0 -10 4 414.019 85.9573 7
0 -10 3 707.771 87.6545 7
0 -10 3 645.534 79.4414 6
0 -10 2 311.342 82.0733 36
0 10 -1 399.757 82.3613 14
-1 10 0 446.965 88.6048 14
-1 10 -2 27.7956 85.7086 14
-1 10 -3 4649.24 275.864 14
1 -10 3 2983.3 194.319 6
1 -10 4 27.4942 62.4878 6
-1 10 -4 163.2 97.2258 14
-1 10 -5 2656.36 212.433 14
1 -10 5 2376.48 179.34 6
-1 10 -6 132.754 87.9578 14
1 -10 6 178.311 82.4369 6
1 -10 6 150.16 85.3093 4
1 -10 7 9020.95 466.169 4
-1 10 -7 8569.72 461.901 14
1 -10 8 1644.57 141.984 6
1 -10 8 1529.94 144.744 4
1 -10 9 1744.98 146.477 4
1 -10 10 156.12 55.2984 6
1 -10 10 147.256 62.2838 4
1 -10 10 158.128 87.5493 27
-1 9 4 201.854 67.0663 17
-1 9 3 781.238 110.226 17
-1 9 2 3632.05 265.736 14
-1 9 2 3395.88 237.946 17
-1 9 1 763.212 122.98 17
-1 9 1 577.475 142.095 14
-1 9 0 12819.8 639.657 17
1 -9 1 3417.41 252.305 7
1 -9 1 3505.52 238.429 6
1 -9 2 16850.4 791.777 6
1 -9 2 15380.7 793.01 7
1 -9 3 5323.91 356.065 7
1 -9 4 3832.19 296.835 7
1 -9 5 6820.57 413.858 6
1 -9 5 6425.22 421.907 7
1 -9 6 1382.96 181.68 6
1 -9 6 1201.56 185.165 7
1 -9 7 -8.53067 106.647 6
1 -9 8 7211.36 426.732 6
1 -9 9 563.463 141.368 4
1 -9 10 463.23 130.793 4
1 -9 10 570.488 111.946 6
1 -9 11 101.976 93.6633 4
1 -9 11 -10.8136 69.0961 6
1 -9 12 1972.66 170.4 4
1 -9 13 81.0432 79.6752 27
-1 8 7 526.244 92.1573 17
-1 8 6 213.905 95.4949 17
-1 8 5 6309.86 392.501 17
-1 8 4 4872.1 348.305 17
-1 8 3 13268.1 726.924 17
-1 8 3 13796.2 740.371 14
-1 8 2 5286.13 380.898 17
-1 8 1 1456.54 208.927 17
-1 8 0 20716.6 996.834 17
1 -8 0 18331 964.088 7
-1 8 0 20345.1 1157.02 13
-1 8 -1 5582.69 549.902 13
-1 8 -1 5921.28 394.657 17
1 -8 1 5463.62 390.428 7
1 -8 2 7314.07 464.263 7
-1 8 -2 7711.29 955.875 22
-1 8 -2 6700.08 433.575 17
1 -8 2 6530.11 871.743 35
1 -8 3 164.367 135.359 7
1 -8 3 190.098 280.163 35
1 -8 4 566.016 364.323 35
-1 8 -4 201.786 286.95 22
1 -8 4 421.041 149.939 7
1 -8 5 428.568 166.187 7
1 -8 5 1170.82 406.07 35
-1 8 -5 1070.36 395.92 22
1 -8 6 1445.09 216.475 7
1 -8 6 1308.67 431.427 35
1 -8 7 12353.8 708.738 7
1 -8 8 491.649 175.415 7
1 -8 9 827.034 161.666 6
1 -8 10 2174.53 244.904 4
1 -8 10 2282.05 220.525 6
1 -8 11 2271.69 208.68 6
1 -8 11 2321.67 241.749 4
1 -8 12 647.127 155.502 4
1 -8 12 764.632 188.739 27
1 -8 13 1019.93 178.703 27
1 -8 14 236.077 93.3935 4
1 -8 14 438.55 117.149 27
1 -8 15 11.3314 66.482 11
-1 7 9 616.93 99.9876 17
-1 7 8 197.446 107.585 17
-1 7 7 953.663 194.887 20
-1 7 6 1899.96 238.499 17
-1 7 6 2035.02 266.806 20
-1 7 5 11581.2 684.906 17
-1 7 5 12057.1 719.772 20
-1 7 4 -13.4044 139.856 17
-1 7 4 -52.3039 128.319 14
-1 7 4 -44.9184 240.252 13
-1 7 4 -45.7056 165.934 20
-1 7 3 7724.88 1139.39 31
-1 7 3 8151.35 524.326 17
-1 7 3 6859.82 520.135 20
-1 7 3 7156.68 641.749 13
-1 7 2 6089.47 803.936 22
-1 7 2 7669.41 648.781 13
-1 7 2 6846.64 500.045 20
1 -7 -2 7399.1 870.541 35
-1 7 2 7206.19 489.566 17
1 -7 -1 7658.19 919.249 35
-1 7 1 8246.53 690.891 13
-1 7 1 7682.52 509.059 17
-1 7 1 7846.56 517.853 20
1 -7 -1 6944.69 465.508 7
-1 7 1 8149.52 961.924 22
-1 7 0 26074.8 1227.77 17
-1 7 0 24366.9 1216.54 20
1 -7 0 26677.8 1879.52 35
-1 7 0 25037.9 1222.31 2
1 -7 0 22744.6 1186.09 7
-1 7 0 24578.2 1843.54 22
-1 7 -1 7683.12 481.672 17
1 -7 1 7156.99 470.985 7
-1 7 -1 6848.51 483.247 2
-1 7 -1 6177.3 866.816 22
-1 7 -2 2929.16 293.108 2
1 -7 2 2775.78 277.957 7
1 -7 2 2728.1 615.774 35
-1 7 -2 2294.79 576.478 22
-1 7 -2 3154.62 278.332 17
1 -7 3 183.963 298.757 35
-1 7 -3 173.268 204.808 16
-1 7 -3 394.477 320.304 22
1 -7 3 141.812 124.291 7
1 -7 4 132.936 133.221 7
-1 7 -4 190.194 231.625 16
-1 7 -4 65.8861 269.644 22
-1 7 -4 38.4734 138.078 2
-1 7 -5 4223.46 703.136 22
1 -7 5 3434.08 622.323 35
-1 7 -5 3271.19 560.122 16
-1 7 -5 3160.04 313.773 2
1 -7 5 3682.97 316.574 7
-1 7 -6 4532.04 378.699 2
1 -7 6 4644.5 375.583 7
-1 7 -6 4667.3 765.493 22
-1 7 -6 5130.93 701.189 16
1 -7 6 4919.03 726.598 35
-1 7 -7 14783.3 812.143 2
-1 7 -7 14314.3 1266.85 16
1 -7 7 14407.4 1286.42 35
-1 7 -7 12276 1274.2 22
1 -7 7 15508.2 824.298 7
-1 7 -8 8906.31 1042.9 22
1 -7 8 11556.3 672.673 7
-1 7 -8 11175.8 1103.12 16
1 -7 8 10197.3 1035.1 35
1 -7 9 16568.6 1400.88 35
1 -7 9 21217.6 1016.78 6
-1 7 -10 1148.84 388.446 16
1 -7 10 1351.11 194.627 6
1 -7 11 1342.62 180.558 6
1 -7 12 3389.04 261.024 6
1 -7 13 3119.45 280.342 4
1 -7 13 2312.34 235.493 9
1 -7 14 156.355 114.406 4
1 -7 14 204.265 146.86 27
1 -7 14 157.581 103.244 9
1 -7 15 177.339 84.0427 9
-1 6 10 259.249 128.421 18
-1 6 10 229.751 94.6333 17
-1 6 9 2207.53 225.699 17
-1 6 9 1799.97 245.14 18
-1 6 8 1757.53 235.116 17
-1 6 8 2216.68 288.57 20
-1 6 8 1975.19 279.894 18
-1 6 7 10085.3 679.441 18
-1 6 7 11181 706.913 20
-1 6 6 977.362 238.795 18
-1 6 6 1276.96 333.073 13
-1 6 6 1605.76 285.529 20
-1 6 6 782.051 505.794 31
-1 6 5 25616.9 1477.16 13
-1 6 5 25527.7 1286.02 14
-1 6 5 28466.5 1390.17 20
-1 6 5 25803 2258.22 31
-1 6 5 25716.6 1346.27 18
-1 6 4 33257.6 1591.07 20
-1 6 4 30532.5 1694.18 13
-1 6 3 65184.8 3059.45 13
-1 6 3 66700.7 3452.27 22
1 -6 -3 57670.1 3362.32 35
-1 6 3 66324.1 3933.15 31
-1 6 3 63338 2895.19 20
-1 6 2 6174.42 478.695 20
-1 6 2 7132.28 836.761 22
-1 6 2 6818.88 435.106 2
1 -6 -2 6167.43 808.325 35
-1 6 2 5997.06 591.99 13
-1 6 1 53875.7 2465.73 20
-1 6 1 59297.1 3139.19 22
-1 6 1 53431.4 2420.87 2
-1 6 0 2801.91 566.406 22
-1 6 0 2319.46 239.81 2
-1 6 0 2379.92 261.81 20
-1 6 -1 9820.41 576.148 2
1 -6 1 10339.5 1080.55 34
-1 6 -1 10031.4 577.5 17
-1 6 -1 9005.27 982.584 22
-1 6 -2 5126.35 352.112 17
1 -6 2 4480.8 343.568 7
-1 6 -2 5023.26 595.29 16
-1 6 -3 15099.5 1272.05 22
-1 6 -3 14372.2 777.661 2
1 -6 3 14347.4 770.919 7
1 -6 3 16720.9 1349.87 34
-1 6 -3 16139.9 1150.74 16
1 -6 4 29682.4 1429.49 7
-1 6 -4 33260.9 2076.88 22
-1 6 -4 32951.6 1900.45 16
-1 6 -4 30133.5 1437.57 2
1 -6 5 4729.27 707.121 34
-1 6 -5 3932.39 597.91 16
-1 6 -5 4506.6 704.866 22
-1 6 -5 4615.59 351.957 2
1 -6 5 5136.01 365.694 7
-1 6 -6 27339.8 1291.93 2
-1 6 -6 26332.6 1871.99 22
-1 6 -6 27397.8 1778.03 16
1 -6 6 25903.3 1290.91 7
1 -6 7 19336.4 1430.09 35
1 -6 7 19782.4 997.768 7
1 -6 7 17312.2 1406.91 23
-1 6 -7 17902.8 1481.28 22
-1 6 -7 19204.3 976.423 2
-1 6 -8 16929.8 1349.35 16
1 -6 8 14784.2 1227.89 35
1 -6 8 14264.3 1289.05 23
1 -6 8 15517.3 849.884 7
-1 6 -8 16613.4 1365.46 22
1 -6 9 15769.4 1404.36 23
1 -6 9 18355.8 895.262 6
1 -6 9 15849.7 1279.14 35
-1 6 -9 16520.2 1419.95 16
1 -6 10 13814.5 1316.38 23
-1 6 -10 15338.2 1339.03 16
1 -6 10 14287.1 758.112 6
1 -6 11 3199.36 268.084 6
-1 6 -11 2110.34 528.058 16
1 -6 12 96.3075 97.1004 6
1 -6 12 103.358 152.671 4
1 -6 12 77.2716 192.379 27
1 -6 13 381.754 159.123 9
1 -6 13 800.023 220.728 27
1 -6 13 332.63 154.826 4
1 -6 14 2776.81 295.101 27
1 -6 14 2331.17 250.2 4
1 -6 14 2619.95 252.279 9
1 -6 15 495.117 138.869 9
1 -6 16 1575.14 161.204 9
-1 5 12 1883.5 215.737 18
-1 5 11 2997.2 317.508 18
-1 5 10 22007.8 1134.48 17
-1 5 10 25604.9 1213.59 20
-1 5 10 23562.4 1246.21 18
-1 5 9 692.648 237.25 20
-1 5 9 533.274 241.246 18
-1 5 9 320.848 292.402 13
-1 5 8 50743.6 2310.71 18
-1 5 8 46734.4 2266.26 30
-1 5 8 50990.1 2405.43 13
-1 5 8 42280 3197.86 31
-1 5 8 41573.2 2308.79 12
-1 5 7 749.716 343.543 12
-1 5 7 1325.02 358.468 13
-1 5 7 1090.05 273.754 18
-1 5 7 1120.55 275.884 30
-1 5 6 22823.3 1264.85 30
-1 5 6 21162.9 1340.89 12
-1 5 6 23020 1141.03 14
-1 5 6 24660.9 1286.44 18
-1 5 6 24274 1378.35 13
-1 5 6 23917.8 1260.73 20
-1 5 5 199.985 238.112 12
-1 5 5 107.971 188.984 30
-1 5 5 125.142 269.386 13
-1 5 5 -54.97 179.843 18
-1 5 5 203.587 182.628 20
-1 5 4 64353.2 3811.1 31
-1 5 4 64493.3 3019.85 13
-1 5 4 60491.7 2986.32 12
-1 5 4 65264 2856.25 19
-1 5 4 63132.8 3270.85 22
-1 5 4 63644.9 2891.39 20
-1 5 4 63197.4 2895.66 18
-1 5 3 1738.66 328.065 13
-1 5 3 1391.76 363.597 22
-1 5 3 1498.69 213.222 19
-1 5 3 1195.49 167.463 2
-1 5 3 1030.08 220.694 20
1 -5 -2 57174.3 2967.57 34
-1 5 2 53646.4 2851.15 22
-1 5 2 52908.1 2348.88 19
-1 5 2 51036.3 2300.95 2
-1 5 2 51113.9 2364.63 20
1 -5 -1 31440 1977.93 34
-1 5 1 30827.6 1929.53 22
1 -5 0 42275.5 2365.97 34
-1 5 0 37674.2 2009 16
-1 5 0 39730 2286.44 22
-1 5 -1 12458.7 900.818 16
1 -5 1 12495.5 1078.96 34
1 -5 2 133298 6309.76 34
-1 5 -2 135554 6084.94 16
-1 5 -3 67240.7 3206.58 16
1 -5 3 62020 3088.58 23
-1 5 -4 55247.1 2789.44 16
-1 5 -4 53566.5 2898.18 22
1 -5 4 49515.9 2718.1 23
1 -5 4 58673.6 2955.17 34
1 -5 5 4536.29 561.138 23
-1 5 -5 4077.04 541.242 16
-1 5 -5 3816.8 580.752 22
1 -5 5 3603.05 288.974 7
1 -5 5 3621.28 557.388 34
-1 5 -6 34960.5 2141.5 22
1 -5 6 36019.8 2101.47 23
1 -5 6 40096.7 2172.31 34
1 -5 6 36485.5 1648.91 7
-1 5 -6 34215.6 1622.34 2
-1 5 -7 10301.5 927.736 16
1 -5 7 9189.51 908.829 23
1 -5 7 9599.43 904.257 34
-1 5 -7 8860.6 534.103 2
-1 5 -7 9857.13 931.634 22
1 -5 7 9654.24 566.138 7
1 -5 8 7464.92 863.301 23
1 -5 8 8089.51 501.155 7
1 -5 8 8310.25 789.385 35
1 -5 8 7023.14 464.44 33
-1 5 -8 6353.91 752.066 22
-1 5 -8 7360.47 832.126 16
-1 5 -9 20418.5 1459.69 16
1 -5 9 17306.7 1213.87 35
1 -5 9 16593 899.749 33
1 -5 9 16223.2 910.733 10
1 -5 9 17145.4 1420.83 23
1 -5 9 18381.8 876.249 6
1 -5 10 2131.35 262.604 33
1 -5 10 2105.35 273.55 10
1 -5 10 2293 230.802 6
-1 5 -10 1436.82 453.873 16
1 -5 10 2339.59 570.242 23
1 -5 11 3790.19 356.32 33
1 -5 11 4392.72 370.417 4
1 -5 11 2869.09 613.715 23
-1 5 -11 4089.25 671.179 16
1 -5 11 3963.04 301.482 6
1 -5 12 200.193 273.292 23
1 -5 12 298.543 206.149 27
-1 5 -12 299.621 265.093 16
1 -5 12 255.028 165.906 4
1 -5 12 119.122 160.628 33
1 -5 12 331.677 108.295 6
1 -5 13 9512.87 593.562 4
1 -5 13 8445.36 583.92 9
1 -5 14 241.498 169.659 9
1 -5 14 214.825 149.053 4
1 -5 14 264.495 176.327 27
1 -5 15 5123 376.369 9
1 -5 16 438.653 138.751 11
1 -5 16 436.008 136.685 9
1 -5 17 952.578 129.223 9
1 -5 17 1406.95 141.572 11
-1 4 13 9508.65 581.993 18
-1 4 12 -49.7543 192.959 18
-1 4 12 133.575 205.929 30
-1 4 11 9653.5 776.103 13
-1 4 11 10549.2 640.885 20
-1 4 11 9501.13 719.118 30
-1 4 11 11622.3 754.14 18
-1 4 10 1028.58 205.064 32
-1 4 10 1159.69 365.767 13
-1 4 10 1010.23 245.635 20
-1 4 10 1069.04 314.555 30
-1 4 10 913.98 304.204 18
-1 4 9 4805.44 494.749 18
-1 4 9 3610.14 482.611 12
-1 4 9 5418.15 991.017 31
-1 4 9 3999.97 478.399 30
-1 4 9 5256.95 449.904 20
-1 4 9 4352.5 557.727 13
-1 4 8 9070.3 792.041 12
-1 4 8 8938.15 709.667 18
-1 4 8 8961.26 1297.77 31
-1 4 8 9462.23 706.189 30
-1 4 8 9512.21 661.019 20
-1 4 8 8749.92 769.106 13
-1 4 8 9966.94 615.703 19
-1 4 7 38372.9 1751.2 19
-1 4 7 34718.9 1831.15 30
-1 4 7 37796.3 1870.05 18
-1 4 7 37382.1 1939.31 13
-1 4 7 37680.3 1806.78 20
-1 4 7 32270.6 1917.99 12
-1 4 7 38009.1 2711.2 31
-1 4 6 23812.3 1331.1 13
-1 4 6 23196.4 1260.79 18
-1 4 6 23727.6 1172.76 19
-1 4 6 23108.2 1255.58 30
-1 4 6 21989.6 1343.62 12
-1 4 5 2337.29 377.234 12
-1 4 5 2938.33 392.812 22
-1 4 5 2712.06 305.558 20
-1 4 5 2114.25 304.797 30
-1 4 5 2467.29 265.208 19
-1 4 5 2768.89 329.003 18
-1 4 5 2867.66 398.941 13
-1 4 4 83405.9 3685.38 22
-1 4 4 73951.9 3341.29 20
-1 4 4 73792.6 3434.07 13
-1 4 3 195912 8518.11 22
1 -4 -3 187930 8565.64 34
-1 4 2 58932.6 3053.24 22
1 -4 -2 64020.9 3141.14 34
-1 4 1 146896 6765.29 22
1 -4 -1 154022 6826.28 34
-1 4 0 68167.3 3229.55 16
1 -4 0 73204.2 3473.13 34
-1 4 -1 55074.7 2683.34 16
1 -4 1 58152 2879.44 34
1 -4 2 5185.52 571.407 34
1 -4 2 4831.31 449.993 23
-1 4 -2 4849.53 478.555 16
-1 4 -3 40437 2040.23 16
1 -4 3 38044.6 2000.03 23
1 -4 4 630.311 243.604 23
1 -4 4 603.131 286.723 34
1 -4 5 187.426 224.505 23
1 -4 5 95.9159 223.486 34
-1 4 -5 106.286 213.452 22
-1 4 -5 62.1383 210.885 16
1 -4 6 549.722 251.105 34
-1 4 -6 398.753 239.073 22
1 -4 6 427.225 266.571 23
-1 4 -6 344.235 234.261 16
-1 4 -7 16626.9 1161.76 16
-1 4 -7 13461.8 1055.09 22
1 -4 7 15116.1 1072.34 34
1 -4 7 15509.7 1152.9 23
1 -4 8 21111.7 1107.64 10
1 -4 8 22447.2 1100.31 33
1 -4 8 22651.7 1127.3 37
-1 4 -8 20275.5 1369.19 22
1 -4 8 24681.2 1605.06 23
-1 4 -8 26077.1 1580.66 16
1 -4 8 23106.1 1062.12 6
1 -4 9 726.947 358.521 23
1 -4 9 663.588 126.027 6
1 -4 9 592.615 176.049 10
1 -4 9 369.795 164.484 37
-1 4 -9 662.974 302.27 16
1 -4 9 699.458 177.383 33
1 -4 10 23437.7 1211.48 10
1 -4 10 25289.4 1179.81 4
1 -4 10 23847.5 1191.96 33
1 -4 10 22409.3 1101.97 6
1 -4 10 23505.2 1719.48 23
-1 4 -10 22009.2 1620.07 16
1 -4 11 1814.62 274.203 27
1 -4 11 1457.52 254.162 33
-1 4 -11 1474.22 428.143 16
1 -4 11 1859.27 240.582 4
1 -4 11 1498.87 175.575 6
1 -4 12 919.024 228.551 30
1 -4 12 1304.01 251.084 27
1 -4 12 931.372 445.817 23
1 -4 12 480.146 194.782 33
1 -4 12 739.096 200.643 4
1 -4 13 5423.23 455.902 33
1 -4 13 5944.78 452.969 9
1 -4 13 4579.81 441.649 30
1 -4 13 5768.08 454.555 27
1 -4 13 6234.74 431.252 4
1 -4 14 3150.07 347.98 33
1 -4 14 3297 353.937 30
1 -4 14 3350.12 337.002 27
1 -4 14 3759.2 348.083 9
1 -4 15 751.814 194.816 30
1 -4 15 1293.96 213.69 11
1 -4 15 1009.49 211.587 9
1 -4 16 237.553 139.084 11
1 -4 16 137.616 136.014 9
1 -4 17 338.835 108.923 11
-1 3 14 -14.1323 181.348 30
-1 3 13 2971.72 388.873 30
-1 3 12 959.829 205.672 32
-1 3 12 776.352 294.127 30
-1 3 11 1690.32 372.827 30
-1 3 11 1803.89 259.543 32
-1 3 11 1378.79 411.881 13
-1 3 11 2141.76 389.035 18
-1 3 11 1674.66 270.834 20
-1 3 10 200.202 262.763 18
-1 3 10 51.1442 157.708 32
-1 3 10 -148.549 191.052 20
-1 3 10 190.214 405.086 31
-1 3 10 88.8408 318.712 13
-1 3 10 1081.34 329.683 12
-1 3 10 -146.885 252.12 30
-1 3 9 1121.82 356.998 13
-1 3 9 271.761 428.187 31
-1 3 9 137.845 261.965 30
-1 3 9 310.434 273.727 18
-1 3 9 304.193 192.852 20
-1 3 9 185.044 154.192 19
-1 3 9 93.6186 290.484 12
-1 3 8 275.241 175.782 20
-1 3 8 890.475 187.864 19
-1 3 8 148.163 297.057 15
-1 3 8 412.955 226.574 30
-1 3 8 87.5474 273.935 12
-1 3 8 370.577 245.995 18
-1 3 8 -165.024 390.103 31
-1 3 8 201.615 189.209 29
-1 3 8 126.866 252.9 13
-1 3 7 217.856 332.451 31
-1 3 7 67.1479 224.668 13
-1 3 7 342.908 215.645 30
-1 3 7 246.298 183.371 29
-1 3 7 266.859 173.778 20
-1 3 7 493.891 280.003 12
-1 3 7 421.948 204.253 18
-1 3 7 288.97 154.936 19
-1 3 6 52307.8 2508.5 13
-1 3 6 55558.3 2460.91 30
-1 3 6 54398.9 2421.57 20
-1 3 6 56654.2 3154.23 31
-1 3 6 48649 2533 12
-1 3 6 53419 2366.98 19
-1 3 6 51459.3 2424.11 29
-1 3 5 4369.57 414.711 22
-1 3 4 67816.7 3118.84 22
1 -3 -4 65533.9 3190.31 34
1 -3 -3 60226.9 2922.3 34
-1 3 3 60328.3 2874.82 22
-1 3 2 62862 3051.18 22
1 -3 -2 66496.6 3114.64 34
-1 3 1 159730 7011.55 22
1 -3 0 9534.48 528.536 23
-1 3 0 10098.1 633.129 16
1 -3 1 97666.2 4364.17 23
-1 3 -1 104526 4449.97 16
1 -3 2 908.626 202.014 23
-1 3 -2 686.522 206.255 16
1 -3 3 552.483 194.703 23
-1 3 -4 3215.21 404.937 22
-1 3 -4 3539.84 409.714 16
1 -3 4 3533.34 403.48 23
-1 3 -5 558.797 221.591 22
1 -3 5 334.147 222.149 23
1 -3 5 641.993 243.26 34
-1 3 -5 630.012 235.439 16
1 -3 6 6450.85 611.615 23
-1 3 -6 5722.57 573.41 16
-1 3 -6 5195.19 525.306 22
1 -3 6 6377.61 548.699 34
-1 3 -7 3466.07 464.866 16
1 -3 7 2982.59 376.296 34
-1 3 -7 2685.66 355.095 22
1 -3 7 3237.65 490.064 23
1 -3 8 51677.1 2251.85 37
-1 3 -8 53115.2 2639.28 16
1 -3 8 45008.2 2316.95 35
-1 3 -9 1137.77 329.639 16
1 -3 9 1301.74 204.158 33
1 -3 9 1153.51 220.731 10
1 -3 9 1289.96 223.635 37
1 -3 9 1276.14 186.313 4
1 -3 9 1259.13 191.571 32
1 -3 10 12655.8 1155.98 23
1 -3 10 12813.7 727.42 27
-1 3 -10 10662.2 1015.27 16
1 -3 10 12827.7 741.743 33
1 -3 10 13820.6 725.153 32
1 -3 10 13711.6 717.346 4
1 -3 10 12237.4 762.893 37
1 -3 10 12351.7 762.524 10
1 -3 11 4323.36 390.184 33
1 -3 11 5024.67 367.358 4
1 -3 11 3673.57 682.826 23
1 -3 11 4163.49 370.631 27
-1 3 -11 2962.93 518.436 16
1 -3 12 9342.36 662.155 30
1 -3 12 8686.95 592.94 9
1 -3 12 8846.58 610.455 33
1 -3 12 8953.61 558.302 4
1 -3 12 9026.26 585.458 27
1 -3 13 1493.44 471.458 23
1 -3 13 1779.78 266.445 27
1 -3 13 1611.4 287.228 33
1 -3 13 1507.53 262.564 9
1 -3 13 1725.03 314.56 30
1 -3 14 52.106 159.181 27
1 -3 14 16.4658 178.275 33
1 -3 14 -56.9943 201.985 30
1 -3 14 127.696 191.839 9
1 -3 14 12.8364 171.561 11
1 -3 15 1619.55 228.429 11
1 -3 15 1479.12 276.151 30
1 -3 15 1171.84 224.834 9
1 -3 16 258.089 140.305 11
1 -3 16 370.185 152.778 9
1 -3 16 318.522 170.765 30
-1 2 15 2612.15 269.484 18
-1 2 14 165.364 195.462 18
-1 2 13 3020.88 302.261 32
-1 2 13 3483.88 417.071 18
-1 2 12 1014.82 310.61 18
-1 2 12 1117.52 227.141 32
-1 2 11 627.049 287.564 18
-1 2 11 205.665 155.907 20
-1 2 11 44.2142 329.558 15
-1 2 11 212.163 169.218 32
-1 2 11 224.18 227.5 29
-1 2 11 243.524 348.883 13
-1 2 10 154.746 292.485 12
-1 2 10 -19.4258 200.058 29
-1 2 10 -61.6806 159.642 32
-1 2 10 -229.116 319.17 13
-1 2 10 -439.62 327.422 15
-1 2 10 -86.9767 423.63 31
-1 2 10 45.212 125.973 19
-1 2 10 43.348 149.787 20
-1 2 9 512.584 221.923 29
-1 2 9 643.383 304.702 13
-1 2 9 633.087 310.378 12
-1 2 9 380.376 176.534 20
-1 2 9 603.612 156.387 19
-1 2 9 210.396 227.36 30
-1 2 9 866.474 483.941 31
-1 2 8 23003 1092.03 19
-1 2 8 20701.8 1190.17 15
-1 2 8 22147.5 1271.49 13
-1 2 8 22214 1210.79 30
-1 2 8 21788.5 1297.04 12
-1 2 8 24655.8 1869.93 31
-1 2 8 21711.2 1048.06 9
-1 2 8 23183.4 1138.4 20
-1 2 8 22790.6 1173.36 29
-1 2 7 10666.6 672.282 30
-1 2 7 10734.4 718.306 13
-1 2 7 10353.6 637.326 29
-1 2 7 10168.1 752.162 12
-1 2 7 11288.7 1114.06 31
-1 2 6 87551.2 4398.43 31
-1 2 5 2108.02 456.451 31
1 -2 -5 1251.83 213.536 34
-1 2 4 155761 6666.38 22
1 -2 -4 155749 6731.02 34
-1 2 3 12677.8 812.503 26
-1 2 3 11860.4 712.224 22
-1 2 2 667353 27931 26
-1 2 2 668345 27863.8 22
-1 2 1 655660 27358.3 22
-1 2 0 7331.17 452.955 16
1 -2 0 6802.4 379.838 23
-1 2 0 5837.75 504.471 26
1 -2 1 1175.03 166.196 23
-1 2 -1 1087.52 230.193 22
1 -2 2 12421.9 687.711 23
-1 2 -2 11157.5 734.063 22
-1 2 -2 12102.7 709.697 16
-1 2 -3 25554.4 1338.45 22
-1 2 -3 26489.9 1338.88 16
1 -2 3 26569.2 1328.54 23
-1 2 -4 7984.82 548.839 22
1 -2 4 7168.3 564.061 23
-1 2 -4 7901.53 567.684 16
1 -2 5 25063.2 1415.99 23
-1 2 -5 25759.6 1322.49 22
-1 2 -5 27586.9 1409.41 16
-1 2 -6 89266.8 3879 16
1 -2 6 80882.1 3727.31 34
-1 2 -7 41586.5 1946.06 16
1 -2 7 33745.1 1664.12 34
-1 2 -8 64826.9 3238.24 16
1 -2 8 70448 3397.8 23
1 -2 9 15308 766.596 4
-1 2 -9 12485.9 989.782 16
1 -2 9 14984.8 835.72 10
1 -2 9 15368.3 1187.94 23
1 -2 9 15243.9 778.473 32
1 -2 9 14906.8 778.709 27
1 -2 10 19608.6 929.647 32
1 -2 10 15342.8 975.737 21
1 -2 10 16928.5 914.127 27
1 -2 10 18406 907.33 4
1 -2 10 18316.7 1398.91 23
1 -2 10 18101.1 934.421 9
1 -2 11 630.263 352.202 23
1 -2 11 509.647 203.222 37
1 -2 11 612.781 230.835 21
1 -2 11 434.335 180.252 9
1 -2 11 398.034 168.591 27
1 -2 11 467.382 173.555 32
1 -2 11 385.057 149.569 4
1 -2 12 7332.71 489.889 32
1 -2 12 7174.35 507.946 9
1 -2 12 5986.2 556.957 30
1 -2 12 5222.08 800.659 23
1 -2 12 5528.33 463.183 27
1 -2 12 7724.04 503.499 11
1 -2 13 2812.84 309.075 32
1 -2 13 2567.08 298.685 11
1 -2 13 2523.99 384.426 30
1 -2 13 2259.32 310.166 9
1 -2 13 1682.46 471.064 23
1 -2 14 800.63 229.651 33
1 -2 14 959.414 284.22 30
1 -2 14 1046.97 223.723 11
1 -2 15 3496.56 349.984 33
1 -2 15 3908.03 322.907 11
1 -2 15 3435.59 408.553 30
1 -2 16 -132.03 191.488 30
1 -2 17 1224.21 190.176 30
-1 1 16 818.608 218.619 30
-1 1 15 1157.08 301.087 30
-1 1 14 3400.01 378.045 18
-1 1 14 3503.35 315.693 32
-1 1 14 3880.97 463.501 30
-1 1 14 2738.3 351.91 29
-1 1 13 1119.08 343.628 30
-1 1 13 819.362 255.669 29
-1 1 13 995.6 211.738 32
-1 1 13 1055.71 290.971 18
-1 1 12 51.5057 281.226 30
-1 1 12 257.19 175.641 32
-1 1 12 189.316 241.352 18
-1 1 12 220.64 144.231 9
-1 1 12 242.073 236.798 29
-1 1 11 16548.3 1040.29 30
-1 1 11 17076.4 889.555 32
-1 1 11 16058.4 1037.27 15
-1 1 11 15868.2 841.922 9
-1 1 11 16972.3 977.175 29
-1 1 11 15471.6 1104.89 12
-1 1 11 16156.3 1136.71 13
-1 1 11 15143.8 1004.46 18
-1 1 10 680.424 145.607 11
-1 1 10 929.93 239.188 29
-1 1 10 713.61 164.541 20
-1 1 10 754.903 326.227 13
-1 1 10 825.723 164.654 9
-1 1 10 703.429 327.096 12
-1 1 10 1043.31 303.169 30
-1 1 10 654.744 177.38 33
-1 1 10 796.33 252.257 18
-1 1 10 816.131 185.764 32
-1 1 10 305.681 274.669 15
-1 1 9 89235.1 3670.27 32
-1 1 9 90237.9 4595.88 31
-1 1 9 83016.2 3671.74 20
-1 1 9 84779.9 3680.21 33
-1 1 9 93362.1 3781.15 29
-1 1 9 80702.9 3616.76 11
-1 1 9 82722.8 3638.4 9
-1 1 9 80589.4 3804.48 15
-1 1 9 86643.8 3820.09 30
-1 1 9 81942.2 3874.54 13
-1 1 8 19652.6 955.412 32
-1 1 8 18885.1 1117.47 13
-1 1 8 18886.5 1058.33 30
-1 1 8 19791.5 1561.23 31
-1 1 8 21411.6 1051.29 29
-1 1 7 211552 9569.89 31
-1 1 6 5850.83 483.497 26
-1 1 6 6999.64 738.991 31
1 -1 -5 95429.6 3828.88 1
-1 1 5 99466 4354.52 31
-1 1 5 95574.8 4048.2 26
-1 1 4 119599 5210.05 26
-1 1 4 120639 5408.78 31
-1 1 3 198339 8417.71 26
-1 1 2 3919.57 292.803 25
-1 1 2 3521.79 273.724 22
-1 1 2 4117.63 336.302 26
-1 1 1 268512 11067.3 31
-1 1 1 260293 11017.5 25
-1 1 1 262223 11022.7 22
-1 1 0 10220.5 570.089 22
-1 1 0 11152.5 591.988 26
-1 1 -1 126110 5271.81 26
-1 1 -1 116230 5258.94 16
-1 1 -1 126702 5264.74 25
-1 1 -1 128048 5280.31 22
-1 1 -2 152976 6535.55 26
-1 1 -2 154095 6555 22
-1 1 -2 158286 6566.66 16
-1 1 -2 154970 6538.89 25
-1 1 -3 155423 6471.23 16
-1 1 -3 149363 6421.05 25
-1 1 -4 11578.2 676.606 16
-1 1 -5 349104 15052.8 16
1 -1 5 370946 15158.7 23
-1 1 -6 4620.62 375.028 16
1 -1 6 2390.67 189.182 34
1 -1 6 4231.19 446.63 23
1 -1 6 2689.02 160.654 1
-1 1 -7 42520.6 2137.75 16
1 -1 7 48265.4 2334.18 23
1 -1 8 31248.2 1731.99 23
-1 1 -8 27514.1 1492.22 16
1 -1 9 15669.8 827.669 37
1 -1 9 16684 766.637 32
1 -1 9 11996.2 843.734 21
1 -1 9 12976 733.352 27
1 -1 9 13875.6 726.542 4
1 -1 9 14679.3 1126.51 23
1 -1 10 2808.9 285.436 11
1 -1 10 2963.6 333.865 37
1 -1 10 2876.33 517.414 23
1 -1 10 2959.75 294.169 32
1 -1 10 3078.15 400.561 21
1 -1 10 2825.63 278.254 27
1 -1 11 7944.51 491.497 11
1 -1 11 7157.81 522.31 33
1 -1 11 6116.15 797.255 23
1 -1 11 6548.41 601.263 21
1 -1 11 6264.58 531.163 37
1 -1 11 7397.23 491.463 32
1 -1 11 5940.9 458.556 27
1 -1 11 7429.56 609.923 30
1 -1 12 23072.8 1217.46 33
1 -1 12 22990.7 1191.82 29
1 -1 12 24129.1 1173.53 32
1 -1 12 21147.3 1290.15 21
1 -1 12 22944 1148.83 11
1 -1 12 23416.3 1298.25 30
1 -1 13 1576.52 345.959 30
1 -1 13 1549.91 281.914 33
1 -1 13 1961.23 274.289 32
1 -1 13 1673.56 258.348 11
1 -1 13 1429.23 253.896 29
1 -1 14 4714.79 391.396 9
1 -1 14 4480.12 481.993 30
1 -1 14 3983.05 349.291 11
1 -1 14 4135.69 375.215 32
1 -1 14 3329.14 385.528 18
1 -1 14 3797.59 385.655 33
1 -1 15 5597.54 507.765 30
1 -1 16 4731.73 420.889 30
1 -1 17 344.895 144.55 30
-1 0 17 97.4279 124.304 30
-1 0 16 1918.16 293.317 30
-1 0 15 3065.07 347.575 29
-1 0 15 3248.59 418.492 30
-1 0 14 15844.3 952.895 30
-1 0 14 16505 790.531 32
-1 0 14 13261.5 729.818 9
-1 0 14 11102.8 788.784 18
-1 0 14 12180.8 819.181 29
-1 0 13 1434.4 291.345 29
-1 0 13 1073.73 280.27 18
-1 0 13 947.737 220.705 32
-1 0 13 986.346 334.053 30
-1 0 13 975.843 173.904 11
-1 0 13 970.963 199.758 9
-1 0 12 12561.3 819.39 29
-1 0 12 13175.9 728.727 9
-1 0 12 12954.1 745.789 32
-1 0 12 11692.4 827.844 18
-1 0 12 12717.9 888.844 30
-1 0 12 12611.6 691.119 11
-1 0 11 18386.4 926.327 32
-1 0 11 17827.6 950.398 33
-1 0 11 15329.6 992.371 18
-1 0 11 15737.6 883.252 9
-1 0 11 15885.2 1070.78 15
-1 0 11 17304.4 1049.97 30
-1 0 11 17259.2 864.039 11
-1 0 11 20387.9 1180.92 12
-1 0 10 32121.1 1654.53 18
-1 0 10 29370.6 1726.65 12
-1 0 10 32515.9 1508.66 11
-1 0 10 34018.7 1689.12 30
-1 0 10 36409.2 1642.28 10
-1 0 10 32495.4 1551.29 32
-1 0 10 33401.3 1541.32 9
-1 0 10 34868.9 1598.62 33
-1 0 10 31302.4 1703.1 15
-1 0 9 6379.07 415.392 32
-1 0 9 6621.28 448.011 33
-1 0 9 6685.56 447.063 27
-1 0 9 6118.72 507.072 30
-1 0 9 6475.31 567.685 12
-1 0 9 6527.38 464.97 10
-1 0 9 7144.84 505.11 8
-1 0 9 4934.45 506.591 15
-1 0 8 22234.6 1331.8 23
-1 0 7 28662.7 1461.46 26
-1 0 7 30457.5 1600.75 23
-1 0 6 105004 4670.34 26
-1 0 6 106450 4770.57 23
-1 0 6 113857 5065.68 31
-1 0 5 293.655 80.7151 25
1 0 -5 194.597 66.4053 1
-1 0 5 268.932 275.866 31
-1 0 5 275.051 172.594 23
-1 0 4 171938 7514.28 24
-1 0 4 179714 7579.08 23
1 0 -4 177242 7427.47 1
-1 0 4 188481 7771.28 31
1 0 -3 29832.6 1352.98 1
-1 0 3 31795.5 1420.88 24
1 0 -2 197612 8258.9 1
1 0 -1 184218 7895.1 1
-1 0 1 194979 7922.16 24
1 0 0 85367.3 3586.35 1
-1 0 0 83640.6 3588.36 24
-1 0 -1 54268.1 2365.05 24
1 0 1 56574.9 2381.34 1
1 0 2 267657 11245.7 1
-1 0 -2 271350 11215.7 24
1 0 3 3598.77 238.646 1
1 0 3 3841.12 337.157 31
1 0 4 76090.3 3305.62 1
1 0 4 85159.4 3559.45 31
1 0 5 5665.29 519.371 31
1 0 5 5881.1 462.928 23
1 0 6 2144.54 393.268 31
1 0 6 3110.87 370.538 23
1 0 7 261.678 272.319 31
1 0 7 138.858 191.436 23
1 0 8 13042.1 1118.97 31
1 0 8 13131.8 991.138 23
1 0 8 13786.4 708.659 9
1 0 9 48706.1 2228.96 37
1 0 9 47099.2 2339.06 21
1 0 9 49249.4 2596.62 23
1 0 9 47946.6 2170.16 9
1 0 9 48414.3 2156.91 11
1 0 10 9604.74 622.09 29
1 0 10 9634.83 647.124 37
1 0 10 10492.2 615.2 9
1 0 10 8893.05 890.504 23
1 0 10 9993.78 593.581 11
1 0 10 11108.9 793.064 21
1 0 10 11530.7 624.786 32
1 0 10 10016.5 711.096 30
1 0 11 20497.1 1033.49 32
1 0 11 19734 1060.78 33
1 0 11 17611.8 1034.03 29
1 0 11 20301.7 1013.83 11
1 0 11 18240.9 1190.68 21
1 0 11 20022 1160.11 30
1 0 11 20186.8 1033.48 9
1 0 12 6601.55 530.19 29
1 0 12 6986.32 506.888 11
1 0 12 7970.5 538.233 9
1 0 12 8491.79 673.672 30
1 0 12 7694.41 560.738 33
1 0 12 9309.19 566.157 32
1 0 13 4905.42 540.072 30
1 0 13 5309.41 446.258 33
1 0 13 6262.96 462.737 32
1 0 14 10830.5 743.473 30
1 0 14 8468.31 663.341 18
1 0 14 9276.69 605.9 33
1 0 14 11837.2 641.077 32
1 0 15 79.7957 138.458 32
1 0 15 89.5489 215.783 30
1 0 16 868.421 207.971 30
-1 -1 17 733.727 170.332 30
-1 -1 16 505.739 191.711 29
-1 -1 16 430.175 215.476 30
-1 -1 15 1264.14 300.51 30
-1 -1 15 1392.73 207.258 9
-1 -1 15 1044.59 257.073 29
-1 -1 14 15947.6 962.468 30
-1 -1 14 14145.4 795.337 9
-1 -1 14 13651.7 754.544 11
-1 -1 14 16295.4 922.193 29
-1 -1 13 142.014 247.332 30
-1 -1 13 358.789 155.328 11
-1 -1 13 213.802 167.64 9
-1 -1 13 502.381 195.332 18
-1 -1 13 427.468 189.878 32
-1 -1 12 129.616 169.834 32
-1 -1 12 -84.4338 134.886 11
-1 -1 12 52.8406 153.716 9
-1 -1 12 -175.37 197.541 27
-1 -1 12 252.147 198.445 10
-1 -1 12 34.655 167.567 18
-1 -1 12 -45.1196 224.571 30
-1 -1 11 3706.17 474.431 15
-1 -1 11 1746.16 281.671 18
-1 -1 11 2813.24 294.597 32
-1 -1 11 2831.25 349.108 10
-1 -1 11 2779.62 373.252 30
-1 -1 11 2265.74 305.119 33
-1 -1 11 2419.49 300.868 27
-1 -1 10 1088.02 215.131 27
-1 -1 10 861.122 234.37 30
-1 -1 10 907.433 215.883 18
-1 -1 10 1134.53 234.763 10
-1 -1 10 931.878 205.942 33
-1 -1 10 776.773 181.785 32
-1 -1 10 1015.04 246.176 8
1 1 -9 1093.13 268.995 16
-1 -1 9 1460.71 245.657 30
-1 -1 9 754.002 273.684 12
-1 -1 9 1424.46 227.106 10
-1 -1 9 1300.18 185.646 32
-1 -1 9 1319.52 207.47 27
-1 -1 9 1028.26 314.588 23
-1 -1 9 1511.02 329.643 13
-1 -1 9 1599.44 247.736 8
-1 -1 9 1389.87 207.571 33
1 1 -8 2245.39 356.411 16
-1 -1 8 2891.17 444.303 23
-1 -1 7 15994.8 885.162 24
-1 -1 7 15916.1 1065.58 23
-1 -1 6 444.476 154.898 24
-1 -1 6 711.435 259.066 23
1 1 -5 85233 3737.89 1
-1 -1 5 88927.2 3944.8 23
-1 -1 4 1491.56 196.163 35
1 1 -4 1442.16 177.004 1
1 1 -3 30245.7 1388.85 1
-1 -1 3 29264.4 1395.87 35
1 1 -2 61405.6 2649.38 1
-1 -1 2 59109.7 2663.65 35
-1 -1 1 35441.1 1640.54 35
1 1 -1 35613.9 1618.33 1
-1 -1 0 144607 6154.04 35
-1 -1 -1 2285.99 238.969 35
1 1 1 2028.19 216.852 1
1 1 2 13120.9 709.657 1
-1 -1 -2 14123.7 736.24 35
1 1 3 20144.7 982.2 1
-1 -1 -3 19544.7 985.106 35
1 1 4 1762.36 194.993 1
1 1 5 8956.96 782.138 31
1 1 5 10610.2 686.466 23
1 1 6 3943.66 545.069 31
1 1 6 3137.3 377.816 23
1 1 7 949.209 389.872 31
1 1 7 662.634 208.56 23
1 1 8 10917.1 1073.85 31
1 1 8 11115.5 602.928 9
1 1 8 10676.6 587.597 11
1 1 8 9570.35 797.243 23
1 1 8 10829.2 625.47 37
1 1 9 41427.3 1956.86 37
1 1 9 40503.2 1964.1 20
1 1 9 40513.3 1950.92 29
1 1 9 45453.7 2067.32 30
1 1 9 43837.9 1936.41 9
1 1 9 42867 1918.41 11
1 1 9 39105 2577.1 31
1 1 10 101.99 152.344 29
1 1 10 367.385 169.707 33
1 1 10 546.172 319.512 21
1 1 10 127.498 142.36 20
1 1 10 321.983 157.206 19
1 1 10 210.034 212.228 30
1 1 10 309.652 159.473 11
1 1 10 274.394 362.54 31
1 1 11 8657.87 536.386 32
1 1 11 8110.2 530.867 33
1 1 11 6036.39 482.133 20
1 1 11 6446.89 509.943 29
1 1 11 6802.78 483.217 19
1 1 11 7742.25 628.833 30
1 1 11 8907.53 742.127 21
1 1 12 3970.21 363.062 33
1 1 12 4188.67 481.571 30
1 1 13 2287.19 381.528 18
1 1 13 2753.64 408.546 30
1 1 14 2084.76 339.404 30
1 1 14 1568.32 291.982 18
1 1 15 147.591 196.498 30
1 1 15 -183.04 147.732 18
1 1 16 -17.9681 115.774 30
-1 -2 16 880.584 216.129 30
-1 -2 16 838.451 169.676 9
-1 -2 16 1133.12 230.956 29
-1 -2 15 1485.64 290.104 30
-1 -2 15 1844.98 253.044 9
-1 -2 15 2342.55 331.499 29
-1 -2 14 1979.03 266.222 9
-1 -2 14 1491.09 217.823 11
-1 -2 14 1813.39 326.129 30
-1 -2 13 205.041 215.385 10
-1 -2 13 234.813 213.495 27
-1 -2 13 158.634 147.992 11
-1 -2 13 146.666 218.693 30
-1 -2 13 100.157 166.598 9
-1 -2 12 12082.3 746.971 27
-1 -2 12 11026.2 777.455 30
-1 -2 12 12963.8 816.569 10
-1 -2 11 60.659 98.5466 4
-1 -2 11 358.77 202.321 30
1 2 -10 1658.23 374.716 16
-1 -2 10 1976.37 278.175 30
-1 -2 10 1733.82 188.424 4
-1 -2 10 2213.32 380.601 15
-1 -2 9 91.0348 260.933 15
-1 -2 9 211.377 133.173 32
1 2 -9 256.343 224.976 16
-1 -2 9 286.316 156.597 33
-1 -2 9 225.098 231.998 23
1 2 -8 522.986 244.719 16
-1 -2 8 492.077 180.944 24
-1 -2 8 79.2383 229.827 23
-1 -2 7 84547.6 4030.73 23
-1 -2 7 83211.4 3697.4 35
-1 -2 6 486.985 176.896 35
1 2 -5 69211.3 3175.64 1
-1 -2 5 68844.8 3348.32 23
-1 -2 5 72392.8 3188.58 35
-1 -2 4 25964.4 1478.92 23
-1 -2 4 27420.4 1382.74 35
1 2 -4 27210.4 1369.13 1
1 2 -3 146390 6248.6 1
-1 -2 3 143722 6273.25 35
1 2 -2 222476 9444.25 1
-1 -2 1 57636.7 2799.82 35
1 2 -1 64746.4 2782.89 1
-1 -2 0 40597.4 1960.8 35
1 2 1 7592.48 532.546 1
-1 -2 -1 8200.87 582.308 35
-1 -2 -2 585.13 204.658 35
1 2 2 559.541 175.708 1
1 2 3 8843.36 596.807 1
-1 -2 -3 9276.1 624.011 35
-1 -2 -4 27137.7 1389.93 35
1 2 5 15549.3 890.949 23
1 2 5 15519.9 1191.07 31
1 2 6 2855.81 324.918 23
1 2 6 2860.5 556.09 31
1 2 7 71662.2 3072.98 30
1 2 7 61034.6 3111.6 12
1 2 7 68200.9 3684.47 31
1 2 7 71591.1 3185 21
1 2 8 5928.44 480.322 30
1 2 8 4645.17 395.928 29
1 2 8 5030.88 488.024 13
1 2 8 5645.45 454.147 20
1 2 8 4953.3 537.789 21
1 2 8 5891.86 853.398 31
1 2 9 19063.3 1035.9 19
1 2 9 22124.6 1267.61 21
1 2 9 21022.6 1142.09 30
1 2 9 18529.3 1687.35 31
1 2 9 19984.5 1093.36 20
1 2 9 18831.8 1161.88 13
1 2 9 20407 1022.8 33
1 2 10 1678.93 326.885 30
1 2 10 1657.55 393.971 21
1 2 10 1967.71 283.445 20
1 2 10 1717.43 260.303 19
1 2 10 1708.23 584.7 31
1 2 11 6563.83 592.925 30
1 2 11 7080.46 512.43 20
1 2 11 6877.9 485.661 19
1 2 12 1196.95 310.098 30
1 2 13 6336.77 530.971 30
1 2 14 1998.53 284.535 18
1 2 14 1969.26 284.359 30
1 2 15 504.029 143.527 18
1 2 15 782.219 128.744 32
-1 -3 17 1975.99 189.878 9
-1 -3 16 192.423 138.999 9
-1 -3 16 239.208 191.167 29
-1 -3 15 2938.35 270.731 11
-1 -3 15 2944.4 312.957 9
-1 -3 14 310.367 222.815 27
-1 -3 14 759.95 219.162 9
-1 -3 13 10410 658.983 27
-1 -3 13 11139.7 713.06 10
-1 -3 12 631.415 150.653 4
-1 -3 12 647.059 253.025 10
1 3 -11 908.047 345.25 16
-1 -3 11 1044.87 170.259 4
-1 -3 11 1085.85 270.941 10
-1 -3 11 1352.54 304.014 8
-1 -3 10 21419.3 1036.61 4
-1 -3 10 21913.1 1166.41 10
-1 -3 10 21072 1165.34 8
1 3 -10 20748 1496.61 16
-1 -3 9 26691.3 1384.84 8
-1 -3 9 29087.4 1473.72 15
-1 -3 9 25879.5 1369.6 10
-1 -3 9 28560.5 1535.39 24
1 3 -9 28933.1 1757.16 16
-1 -3 8 63910 3090.07 35
1 3 -8 69912.7 3365.65 16
-1 -3 7 113647 5229.3 23
-1 -3 7 108043 4953.81 35
-1 -3 6 93607.2 4279.82 35
-1 -3 5 34568.6 1820.51 35
-1 -3 4 5550.14 526.018 35
1 3 -3 51942.5 2500.07 1
1 3 -2 33253.1 1683.69 1
-1 -3 2 31401.6 1723.83 35
-1 -3 1 4382.3 487.324 35
-1 -3 0 46574.7 2316.61 35
1 3 0 45513.7 2261.49 1
1 3 1 3741.73 312.414 16
-1 -3 -1 3908.07 459.833 35
-1 -3 -2 320136 12642.1 35
1 3 2 287301 12276.5 16
-1 -3 -3 21228.8 1272.19 35
-1 -3 -4 79382.5 3714.32 35
1 3 5 198.322 199.948 21
1 3 5 173.424 320.397 31
1 3 6 67606.6 3651.88 31
1 3 6 70871.7 3015.06 21
1 3 6 66676.3 2875.73 30
1 3 7 17480.8 993.535 30
1 3 7 18667.6 1023.21 20
1 3 7 19011.8 1122.62 21
1 3 7 18325.5 965.219 19
1 3 8 49803.4 2493.47 30
1 3 8 47677.8 3238.28 31
1 3 8 55625.9 2462.42 19
1 3 8 51860.2 2508.92 20
1 3 9 11374.7 737.637 20
1 3 9 11257.5 689.644 19
1 3 9 11051.7 750.608 30
1 3 10 6208.62 551.652 30
1 3 10 7152.2 534.646 20
1 3 10 6592.41 484.622 19
1 3 11 600.107 248.083 30
1 3 11 393.154 185.749 20
1 3 11 424.578 181.471 19
1 3 11 431.891 266.501 18
1 3 11 504.928 194.452 32
1 3 12 4154.64 426.567 30
1 3 12 4049.2 451.959 18
1 3 13 912.379 233.878 18
1 3 13 1248.52 193.627 32
1 3 14 4098.72 321.063 18
1 3 14 4810.65 291.925 32
-1 -4 17 125.721 98.8534 9
-1 -4 17 18.0619 126.276 29
-1 -4 16 1873.57 221.862 9
-1 -4 15 1138.87 187.863 11
-1 -4 15 1018.54 233.384 27
-1 -4 14 4055.6 423.06 10
-1 -4 13 4896.6 366.137 4
-1 -4 13 5480.55 489.458 10
1 4 -12 20167.7 1617.78 16
-1 -4 12 22741.1 1231.5 10
-1 -4 12 22485.2 1100.96 4
1 4 -11 3342.33 604.341 16
-1 -4 11 3737.64 400.319 10
-1 -4 11 3674.42 317.901 4
-1 -4 11 4377.49 409.865 27
-1 -4 10 6632.55 522.378 8
-1 -4 10 6260.21 506.147 10
1 4 -10 6582.07 805.743 16
-1 -4 9 12143.6 652.996 7
-1 -4 9 10736.7 705.865 8
-1 -4 9 10639.2 869.065 35
1 4 -9 11686.3 1043.07 16
-1 -4 8 42395 1901.65 7
-1 -4 8 38454.6 1944.88 8
-1 -4 8 45486.9 2286.3 35
1 4 -8 46178.4 2426.92 16
-1 -4 7 21037.8 1374.61 35
1 4 -7 22285.4 1440.76 16
-1 -4 7 21588.3 1051.47 7
1 4 -6 32836.4 1869.07 16
-1 -4 6 32142.6 1847.65 35
-1 -4 5 19245.7 1279.73 35
-1 -4 4 3519.86 509.24 35
1 4 -3 64216.7 3085.24 16
1 4 -2 22004.3 1259.33 16
-1 -4 2 21472.8 1395.48 35
-1 -4 1 191654 8542.46 35
1 4 -1 192237 8310.32 16
1 4 0 7318.8 552.765 16
-1 -4 0 6799.16 705.515 35
1 4 1 94273.3 4146.16 16
-1 -4 -1 93322.7 4491.94 35
-1 -4 -2 37528.2 2123.34 35
1 4 3 98014.9 4346.08 19
-1 -4 -3 112375 4866.35 35
1 4 4 4670.35 372.59 19
1 4 4 4792.95 443.24 21
-1 -4 -4 4889.24 593.673 35
1 4 5 24060.6 1234.43 20
1 4 5 22874.6 1262.6 21
1 4 5 22770.2 1167.31 19
1 4 6 -162.985 396.955 31
1 4 6 342.114 242.545 21
1 4 7 2325.03 304.421 30
1 4 7 1560.9 604.07 31
1 4 8 227.041 192.504 30
1 4 8 178.063 379.239 31
1 4 8 98.3981 211.859 20
1 4 8 46.4804 181.26 19
1 4 9 20546.9 1112.87 20
1 4 9 21285.1 1066.08 19
1 4 10 11865.3 715.217 20
1 4 10 11904.9 679.715 19
1 4 11 7943.98 484.209 32
1 4 11 6904.82 484.861 20
1 4 11 6772.67 540.706 18
1 4 11 7347.89 469.292 19
1 4 12 2010.69 215.22 32
1 4 12 1391.03 237.221 18
1 4 13 6787.32 345.979 32
1 4 13 5278.41 363.632 18
-1 -5 17 829.186 151.07 29
-1 -5 16 181.924 140.108 27
-1 -5 15 2249 258.642 9
-1 -5 14 126.94 175.914 10
-1 -5 13 6888.81 465.172 4
-1 -5 13 8668.4 583.101 10
-1 -5 12 534.689 232.659 27
-1 -5 12 323.65 211.721 10
-1 -5 12 220.614 143.112 4
1 5 -12 297.251 272.289 16
1 5 -11 180.556 275.421 16
-1 -5 11 137.436 207.048 27
-1 -5 11 132.19 148.333 4
-1 -5 11 160.38 182.404 10
-1 -5 10 -68.2812 172.322 10
1 5 -10 -116.31 247.717 16
-1 -5 9 5932.63 463.917 10
1 5 -9 5575.19 756.515 16
-1 -5 9 5017.46 447.387 8
-1 -5 9 5956.69 420.542 7
-1 -5 9 6231.1 695.184 35
-1 -5 8 4647.7 636.81 35
-1 -5 8 6177.73 405.282 7
1 5 -8 5203.32 694.278 16
1 5 -8 4524.44 343.773 2
-1 -5 8 4503.06 397.22 8
-1 -5 7 405.119 276.704 35
1 5 -7 325.116 122.123 2
-1 -5 7 403.758 143.707 7
-1 -5 6 11162.7 993.052 35
-1 -5 6 11112.7 634.078 7
1 5 -6 11112.1 966.772 16
1 5 -6 11210.8 607.687 2
1 5 -5 472.529 131.116 2
1 5 -5 690.477 276.435 16
-1 -5 5 491.534 326.072 35
1 5 -4 26659.5 1266.06 2
1 5 -4 29313.1 1668.54 16
1 5 -3 6276.35 394.752 2
1 5 -3 6627.9 646.248 16
-1 -5 3 6083.12 740.484 35
1 5 -2 67205.7 3248.43 16
-1 -5 2 65852 3486.55 35
1 5 -1 29537.9 1381.76 2
1 5 -1 31073.4 1669.84 16
-1 -5 1 30026.1 1910.65 35
1 5 0 4795.92 324.968 2
1 5 0 3974.41 319.981 19
1 5 0 5129.72 473.805 16
-1 -5 0 5028.28 673.774 35
-1 -5 -1 25581.8 1694.47 35
1 5 1 24203.5 1121.54 2
1 5 1 22133.6 1140.33 19
1 5 2 9225.68 587.688 19
1 5 2 10673.2 563.281 2
-1 -5 -2 10707.2 1029.17 35
1 5 2 9443.65 628.744 20
1 5 3 551.138 133.107 2
-1 -5 -3 149.029 242.561 35
1 5 3 229.379 189.424 20
1 5 3 467.524 171.006 19
1 5 4 4587.73 438.158 20
1 5 4 5059.61 411.09 19
1 5 5 1793.88 303.816 20
1 5 5 1534.99 588.254 31
1 5 5 1597.75 256.959 19
1 5 6 13630.5 843.405 20
1 5 6 14448.4 792.812 19
1 5 6 10876.3 789.436 18
1 5 6 13249.5 1515.99 31
1 5 7 3476.27 397.329 20
1 5 7 2828.18 378.354 18
1 5 8 6974.95 549.156 18
1 5 9 45.0285 179.948 20
1 5 9 -37.1528 155.515 19
1 5 9 -65.5137 188.58 18
1 5 10 8730.68 501.959 32
1 5 10 7441.34 525.744 18
1 5 10 8659.56 528.799 20
1 5 11 1747.13 187.682 32
1 5 11 1786.14 193.073 20
1 5 11 1458.34 190.025 18
-1 -6 16 407.245 113.233 9
-1 -6 15 1246.26 182.397 9
-1 -6 14 194.911 171.117 27
-1 -6 13 1440.95 196.891 4
-1 -6 13 1804.58 284.198 27
-1 -6 13 1544.31 237.986 10
-1 -6 12 225.508 145.928 4
-1 -6 12 379.477 171.584 10
-1 -6 12 484.255 226.023 27
-1 -6 11 634.091 125.958 6
1 6 -11 180.566 266.822 16
-1 -6 11 359.146 175.222 10
-1 -6 10 8030.28 524.662 7
-1 -6 10 7105.53 526.546 10
1 6 -10 7728.32 933.518 16
-1 -6 9 860.131 188.98 7
-1 -6 9 547.397 295.504 35
1 6 -9 614.948 151.302 2
-1 -6 9 929.625 209.549 10
1 6 -8 4586.42 701.574 16
-1 -6 8 5223.61 713.27 35
-1 -6 8 3901.73 375.339 10
-1 -6 8 4838.29 396.207 7
-1 -6 7 217.083 279.588 35
1 6 -7 234.3 140.384 2
1 6 -7 157.908 256.521 16
-1 -6 7 210.472 157.189 7
-1 -6 6 35227.7 2187.33 35
1 6 -6 32837.1 1568.93 2
1 6 -6 35122.2 2109.63 16
1 6 -5 3121.35 515.754 16
1 6 -5 3484.8 299.831 2
-1 -6 5 2946.49 585.228 35
1 6 -4 297.781 225.019 16
1 6 -4 263.46 142.501 2
1 6 -3 12404.2 983.725 16
1 6 -3 11560.6 656.131 2
-1 -6 3 11356.5 1137.5 35
1 6 -2 22427.5 1465.41 16
1 6 -2 24119.7 1175.92 2
-1 -6 2 27167.8 1828.31 35
-1 -6 1 22026.9 1618.11 35
1 6 -1 19233.9 977.572 2
1 6 -1 18869.7 960.113 19
1 6 0 7201.91 480.39 19
1 6 0 8275.08 493.699 2
1 6 0 6939.36 504.695 20
-1 -6 0 8875.17 990.3 35
1 6 1 424.857 146.486 2
1 6 1 613.834 189.133 20
1 6 1 531.102 173.253 19
-1 -6 -1 427.081 314.834 35
-1 -6 -2 237.023 305.973 35
1 6 2 613.633 186.528 19
1 6 2 456.737 204.301 20
1 6 2 642.694 149.552 2
1 6 3 156.887 114.192 2
1 6 3 160.382 236.349 22
1 6 3 -17.2625 173.106 20
1 6 3 169.037 168.133 19
1 6 4 499.094 223.96 20
1 6 4 741.641 203.037 19
1 6 5 -105.911 206.424 20
1 6 5 101.205 167.338 19
1 6 6 8961.89 593.265 19
1 6 6 9082.59 631.925 20
1 6 7 996.726 233.826 20
1 6 7 1076.67 220.566 19
1 6 8 12173.7 703.537 20
1 6 9 -115.813 113.537 32
1 6 10 3823.26 251.115 20
1 6 10 3582.57 230.21 17
-1 -7 15 183.081 93.5816 9
-1 -7 15 74.3048 113.915 27
-1 -7 14 543.401 169.011 27
-1 -7 13 561.254 188.047 27
-1 -7 13 186.848 114.164 4
-1 -7 12 785.366 208.323 27
-1 -7 12 599.197 147.635 10
-1 -7 12 576.789 146.543 4
-1 -7 11 676.868 126.134 6
1 7 -10 1845 215.037 2
-1 -7 10 2057.28 255.035 7
1 7 -9 5734.07 412.957 2
-1 -7 9 6926.3 470.523 7
-1 -7 8 4286.52 679.049 35
1 7 -8 2974.59 573.907 16
-1 -7 8 3849.1 356.745 7
1 7 -8 3253.17 642.004 22
1 7 -8 4319.88 341.146 2
1 7 -7 379.231 264.93 16
1 7 -7 635.221 168.716 2
-1 -7 7 654.388 359.115 35
1 7 -6 40148.7 2431.26 16
1 7 -6 41349.8 1912.8 2
-1 -7 6 41055.4 2572.35 35
-1 -7 5 18586.5 969.252 7
1 7 -5 17888.2 935.906 2
1 7 -5 14791.8 1282.5 16
-1 -7 5 18301.4 1518.81 35
-1 -7 4 6398.41 483.221 7
1 7 -4 5396.77 681.486 16
1 7 -4 6919.39 462.6 2
-1 -7 4 6106.49 857.924 35
-1 -7 3 268.752 164.893 7
-1 -7 3 197.481 291.14 35
-1 -7 2 3593.73 673.244 35
1 7 -2 3453.57 316.135 2
1 7 -1 8052.49 518.643 2
-1 -7 1 7524.44 984.105 35
1 7 0 14557.1 752.179 2
1 7 0 11993.8 732.989 20
-1 -7 0 13906.6 1316.52 35
1 7 1 27831.8 1336.13 2
1 7 1 27255.3 1978.18 22
1 7 1 27815.7 1379.13 20
-1 -7 -1 28812.4 2031.49 35
1 7 2 30.2106 117.774 2
1 7 2 58.0993 162.784 20
1 7 3 18143.7 981.05 20
1 7 4 10439 647.643 20
1 7 5 16429.6 885.643 20
1 7 6 1171 202.904 20
1 7 7 9667.85 518.088 20
1 7 7 8442.68 485.835 17
1 7 8 3330.83 221.469 17
1 7 8 3378.2 239.528 20
-1 -8 14 63.5907 65.9164 9
-1 -8 14 -6.01491 95.8699 27
-1 -8 13 2582.69 236.266 27
-1 -8 12 122.469 104.359 4
-1 -8 12 135.032 140.106 27
-1 -8 11 6468.57 445.145 27
-1 -8 11 6591.64 409.173 4
-1 -8 10 272.876 107.667 6
1 8 -9 3393.04 281.72 2
1 8 -8 869.654 183.367 2
1 8 -7 10002.2 601.811 2
-1 -8 7 10526.4 627.182 7
-1 -8 6 1357.87 225.317 7
1 8 -6 1164.31 207.584 2
1 8 -5 7033.35 467.811 2
-1 -8 5 6309.38 467.98 7
-1 -8 4 7658.23 516.657 7
1 8 -4 7419.44 504.086 2
-1 -8 3 813.478 201.91 7
1 8 -2 14694.6 816.689 2
-1 -8 2 15906.5 846.767 7
-1 -8 1 10500.1 610.195 7
1 8 -1 9106.96 569.576 2
1 8 0 23333.4 1150.89 2
-1 -8 0 24692.5 1191.61 7
1 8 1 10176.7 566.276 17
-1 -8 -1 11347.5 623.78 7
1 8 2 15229.6 805.967 20
-1 -8 -2 17802.3 840.551 7
1 8 2 16159.8 805.042 17
-1 -8 -3 7848.03 437.227 7
1 8 3 7212.18 427.401 17
1 8 3 7649.59 447.219 20
1 8 4 4110.92 277.596 20
1 8 4 4592.67 274.463 17
1 8 5 3862.65 244.064 17
1 8 5 3851.91 251.387 20
-1 -9 12 330.238 73.1561 4
-1 -9 12 370.737 90.4106 27
-1 -9 11 311.099 105.13 27
-1 -9 11 267.124 91.9083 4
-1 -9 10 1724.06 183.247 27
-1 -9 10 1304.66 131.96 6
-1 -9 10 1336.91 155.347 4
-1 -9 9 35.8909 79.6466 6
-1 -9 8 421.694 132.57 7
-1 -9 7 996.923 165.661 7
1 9 -7 788.284 150.944 2
1 9 -6 1121.03 173.652 2
-1 -9 6 972.122 173.304 7
-1 -9 5 9420.98 528.294 7
1 9 -5 8459.73 513.985 2
-1 -9 4 1944.95 221.645 7
1 9 -3 3717.63 294.741 2
-1 -9 3 4277.59 310.631 7
-1 -9 2 6946.28 422.077 7
-1 -9 1 3325.59 257.754 7
-1 -9 0 12838.9 616.299 36
-1 -9 0 12597.4 631.501 7
-1 -9 -1 239.497 78.4159 7
-1 -10 8 125.152 57.9938 4
-1 -10 7 773.895 86.2921 6
-1 -10 6 66.5694 53.7547 6
-1 -10 5 2891.9 175.654 6
-1 -10 5 2550.21 181.494 7
-1 -10 5 3115.19 192.752 36
-1 -10 4 46.5231 54.2156 7
-1 -10 4 59.9067 62.4342 36
-1 -10 4 28.0691 45.6032 6
-2 10 0 1020.26 124.434 14
-2 10 -2 7.2717 87.6015 14
-2 10 -3 5758.9 356.545 14
-2 10 -4 333.836 106.869 14
2 -10 4 123.48 64.8366 6
-2 10 -5 6127.83 345.8 14
2 -10 5 5220.79 304.598 6
-2 10 -6 519.817 103.35 14
2 -10 6 851.824 111.958 6
2 -10 7 4210.85 240.58 6
2 -10 7 3430.01 219.397 4
2 -10 8 1311.44 127.68 6
2 -10 8 1117.26 112.357 4
2 -10 9 821.481 99.4665 6
2 -10 9 767.415 90.218 4
-2 9 4 62.9506 70.1064 17
-2 9 3 480.321 101.48 17
-2 9 2 496.111 129.635 14
-2 9 2 495.851 114.067 17
-2 9 1 -20.5233 117.53 14
-2 9 1 -22.6944 92.0083 17
-2 9 0 2146.9 201.321 17
-2 9 -1 1462.21 213.304 14
-2 9 -1 1550.67 175.367 17
2 -9 2 6403.91 382.663 6
-2 9 -2 7047.32 571.023 13
-2 9 -2 6987.66 470.053 14
-2 9 -3 312.27 257.709 13
2 -9 3 946.062 142.531 6
2 -9 4 4096.17 290.618 6
2 -9 5 2804.26 239.432 6
2 -9 6 2198.17 211.025 6
-2 9 -6 1733.92 218.717 14
-2 9 -7 5820.57 384.677 14
2 -9 7 6604.35 390.113 6
2 -9 7 5689.34 369.75 4
2 -9 8 206.84 109.984 6
2 -9 8 243.573 118.219 4
2 -9 9 -7.74478 98.9602 4
2 -9 10 78.3486 92.2304 6
2 -9 10 -71.332 100.412 4
2 -9 11 120.317 75.8362 6
2 -9 11 169.48 95.421 4
2 -9 12 533.311 102.527 4
2 -9 13 3.76274 55.5168 4
-2 8 6 1822.76 179.106 17
-2 8 5 7319.82 438.839 17
-2 8 4 1107.96 175.716 17
-2 8 3 2105.66 355.739 13
-2 8 3 2630.28 272.09 14
-2 8 3 3086.95 275.824 17
-2 8 2 260.255 155.473 14
-2 8 2 137.461 245.242 13
-2 8 2 219.54 140.167 17
-2 8 1 748.067 211.158 14
-2 8 1 1005.39 189.5 17
-2 8 1 886.933 316.946 13
-2 8 0 15813.1 847.375 17
-2 8 0 16322.6 1052.71 13
2 -8 1 -35.0659 105.609 6
-2 8 -1 103.976 127.294 17
2 -8 2 4104.91 315.882 7
-2 8 -2 4030.22 685.502 22
2 -8 2 4603.37 323.626 6
-2 8 -2 4948.85 352.723 17
2 -8 2 3615.36 663.498 35
2 -8 3 630.544 374.127 35
2 -8 3 931.774 163.109 7
-2 8 -3 816.587 154.334 17
2 -8 3 885.261 158.6 6
-2 8 -4 1718.49 477.91 22
2 -8 4 1040.64 173.373 7
2 -8 4 1532.99 190.681 6
2 -8 5 7156.79 447.441 6
2 -8 5 6374.06 853.394 35
-2 8 -5 6246.39 868.321 22
2 -8 5 6571.1 442.109 7
2 -8 6 2204.08 244.293 7
2 -8 6 2783.34 255.673 6
2 -8 7 155.465 128.569 6
2 -8 8 375.383 145.147 6
2 -8 9 32.1298 127.153 4
2 -8 10 82.1321 126.045 4
2 -8 10 8.93945 105.613 6
2 -8 11 1587.26 202.747 4
2 -8 11 1423.58 171.876 6
2 -8 12 2233.08 192.241 6
2 -8 12 2742.1 254.763 27
2 -8 12 2257.45 223.791 4
2 -8 13 140.222 104.922 4
2 -8 14 2969.62 210.122 4
-2 7 9 730.436 102.481 17
-2 7 8 2656.69 224.023 17
-2 7 7 1863.58 213.973 17
-2 7 6 4644.5 497.827 13
-2 7 5 4248.48 494.615 13
-2 7 5 3359.24 314.169 14
-2 7 5 3878.87 339.369 17
-2 7 4 18152.4 974.935 20
-2 7 4 18148.3 956.96 14
-2 7 4 17402.2 1122.46 13
-2 7 4 17155.2 946.883 17
-2 7 3 5461.68 951.685 31
-2 7 3 6996.22 500.08 14
-2 7 3 6588.81 477.698 17
-2 7 3 6964.15 499.862 20
-2 7 3 6537.7 656.169 13
-2 7 2 13789.1 984.317 13
-2 7 2 14618.7 807.843 20
-2 7 2 12138.7 1400.11 31
-2 7 2 14368.5 794.381 17
2 -7 -2 11153.2 1137.39 35
-2 7 2 13744.4 1248.73 22
-2 7 1 366.007 314.699 22
-2 7 1 711.058 331.475 13
-2 7 1 -79.3878 398.346 31
-2 7 1 783.294 182.229 17
-2 7 0 45795.6 2815.07 22
-2 7 0 47749.6 2143.12 17
2 -7 0 53032.8 2986.73 34
-2 7 -1 7157.1 488.414 17
-2 7 -1 8821.62 1006.43 22
2 -7 1 7939.21 988.335 34
-2 7 -2 15322.5 789.492 17
2 -7 2 13202.6 741.004 7
2 -7 3 331.697 341.89 34
2 -7 3 241.924 126.306 7
-2 7 -3 546.645 146.266 17
-2 7 -3 129.057 285.575 22
-2 7 -4 323.981 265.397 22
2 -7 4 263.258 133.892 7
2 -7 5 3282.07 646.903 34
-2 7 -5 3513.19 644.556 22
2 -7 5 3397.92 298.845 7
-2 7 -6 551.919 301.7 16
2 -7 6 896.09 178.43 7
-2 7 -6 778.277 392.901 22
2 -7 6 1324.45 182.338 6
2 -7 6 1190.66 433.678 34
-2 7 -7 12933.9 1187.74 16
-2 7 -7 11715.8 1215.14 22
2 -7 7 13754 729.426 6
-2 7 -8 1172.67 402.621 22
2 -7 8 1361.85 389.802 35
-2 7 -8 1185.68 393.283 16
2 -7 9 16125.9 838.69 6
-2 7 -9 14583.5 1343.75 16
2 -7 9 16190.6 862.026 4
2 -7 10 1406.53 221.935 4
2 -7 10 1088.54 183.213 6
2 -7 11 10867.2 587.167 6
2 -7 11 9951.59 614.753 4
2 -7 12 85.57 155.691 27
2 -7 12 175.222 102.206 6
2 -7 12 253.763 155.474 4
2 -7 13 1434.83 193.873 4
2 -7 13 939.739 136.736 9
2 -7 15 2058.81 182.411 11
-2 6 10 1445 200.498 18
-2 6 9 5371.07 353.781 17
-2 6 9 4448.6 385.381 18
-2 6 8 2599.26 320.291 18
-2 6 8 3001.47 433.468 13
-2 6 8 2761.24 274.398 17
-2 6 7 29283.8 1657.61 13
-2 6 7 29670.1 1515.73 18
-2 6 7 32393.3 1527.7 20
-2 6 7 29187.1 1457.62 17
-2 6 6 12262.7 899.653 13
-2 6 6 11307.3 667.147 14
-2 6 6 12133.6 758.526 18
-2 6 6 11747.5 704.753 17
-2 6 6 10125.6 826.817 12
-2 6 6 12755.1 764.294 20
-2 6 5 147061 6226.15 14
-2 6 5 139634 6427.99 12
-2 6 5 150714 6294.24 20
-2 6 5 142307 6280.1 18
-2 6 5 130814 7326.04 31
-2 6 5 146076 6475.25 13
-2 6 4 2868.23 731.205 31
-2 6 4 3137.89 488.557 13
-2 6 4 3330.52 358.227 18
-2 6 4 2580.33 430.467 12
-2 6 4 3671.3 371.616 20
-2 6 4 3781.99 347.29 14
-2 6 4 3256.47 328.08 17
-2 6 3 6068.89 453.724 17
-2 6 3 6723.32 642.747 13
-2 6 3 6252.76 778.199 22
-2 6 3 6187.76 480.994 20
-2 6 3 5434.16 940.503 31
-2 6 2 382.302 285.516 13
-2 6 2 845.784 454.535 31
-2 6 2 433.003 300.487 22
-2 6 2 596.89 193.197 20
2 -6 -2 171.738 287.524 34
-2 6 2 424.338 174.749 17
-2 6 1 51889.1 3287.06 31
-2 6 1 63357.3 3248.88 22
-2 6 1 55168.3 2555.51 20
-2 6 1 55825 2546.73 17
2 -6 -1 62954.6 3296.41 34
-2 6 0 3618.69 310.382 17
-2 6 0 3608.52 598.501 22
-2 6 0 2874.52 293.497 20
2 -6 0 3714.03 660.827 34
2 -6 1 7117.69 857.91 34
-2 6 -1 5291.09 735.27 22
-2 6 -1 5888.55 415.969 17
2 -6 2 13500.5 1215.1 34
-2 6 -2 13508.3 689.985 17
2 -6 2 11039.8 632.928 7
2 -6 3 3130.3 264.97 7
-2 6 -3 3135.43 576.326 22
-2 6 -3 3270.85 281.005 17
2 -6 3 3580.42 647.29 34
-2 6 -3 2788.02 490.45 16
2 -6 4 34964.2 1742.9 7
-2 6 -4 42841 2458.31 22
-2 6 -4 40896.8 1756.91 17
-2 6 -4 41278.3 2293.3 16
2 -6 5 8727.17 938.283 34
-2 6 -5 7517.93 840.326 16
2 -6 5 7310.4 771.414 23
-2 6 -5 8709.23 959.97 22
2 -6 5 8464.79 504.932 7
2 -6 6 31664.9 1481.88 6
2 -6 6 34286.9 2113.15 34
-2 6 -6 32735.9 2136.23 22
2 -6 6 32203.2 1980.3 23
-2 6 -6 34655.6 2078.91 16
2 -6 6 31075.9 1504.31 7
2 -6 7 17161.9 1353.31 34
2 -6 7 14441.3 1254.32 23
-2 6 -7 16033.3 1359.12 22
2 -6 8 28583.3 1858.19 34
2 -6 8 27581.8 1304.64 6
2 -6 8 25943 1849.84 23
-2 6 -8 24046.3 1825.21 22
-2 6 -8 29567.2 1948.72 16
2 -6 9 11209.8 1182.58 23
2 -6 9 14611.3 749.385 6
2 -6 9 14638.7 782.998 4
-2 6 -9 12207.6 1210.4 16
2 -6 9 11575.7 1066.88 35
2 -6 10 9961.04 577.251 6
2 -6 10 10180.8 623.924 4
2 -6 10 7918.83 1000.5 23
-2 6 -10 9996.64 1082.37 16
2 -6 11 1500.76 202.148 6
2 -6 11 952.97 386.918 23
2 -6 11 1162.88 192.633 9
2 -6 11 1767.8 249.866 4
2 -6 12 1196.93 229.886 27
2 -6 12 993.794 157.295 6
2 -6 12 854.408 176.832 9
2 -6 12 1576.48 234.89 4
2 -6 13 1530.34 200.144 9
2 -6 14 2103.14 211.461 9
2 -6 15 86.1628 120.321 11
2 -6 15 55.8346 93.03 9
2 -6 16 549.709 112.189 11
-2 5 12 4353.95 329.623 18
-2 5 11 421.726 180.465 18
-2 5 10 14482.7 1006.38 13
-2 5 10 15469.5 925.224 18
-2 5 10 14872.5 809.655 17
-2 5 9 -27.7178 308.909 13
-2 5 9 97.2801 138.559 17
-2 5 9 378.845 284.137 12
-2 5 9 -48.3613 181.683 20
-2 5 9 19.9186 211.788 18
-2 5 9 148.449 242.904 30
-2 5 8 48970.4 2577.95 12
-2 5 8 51638.1 2353.33 17
-2 5 8 54510 2486.35 18
-2 5 8 54060 2623.41 13
-2 5 8 47765.4 2468.95 30
-2 5 7 -98.1214 384.433 31
-2 5 7 55.6583 102.718 14
-2 5 7 -62.9331 319.763 12
-2 5 7 -160.857 241.281 30
-2 5 7 296.06 223.443 18
-2 5 7 59.4139 321.633 13
-2 5 6 37442.8 2718.26 31
-2 5 6 33540.6 1813.74 30
-2 5 6 36960.2 1949.32 13
-2 5 6 34387.7 1674.42 14
-2 5 6 34609 1935.97 12
-2 5 6 36068.8 1807.72 18
-2 5 6 39654.1 1793.61 20
-2 5 5 6010.58 1002.83 31
-2 5 5 6112.83 428.881 14
-2 5 5 5595.2 587.684 13
-2 5 5 5994.63 475.614 20
-2 5 5 5647.15 489.003 18
-2 5 5 5820.14 528.516 30
-2 5 4 18732.1 952.356 14
-2 5 4 17677.5 1132.54 13
-2 5 4 18076.3 1652.24 31
-2 5 4 18640.3 995.97 20
2 -5 -4 17173.7 1336.69 34
-2 5 4 18693.5 1018.21 18
-2 5 4 16256.7 1019.06 30
-2 5 3 6152.68 604.018 13
-2 5 3 6927.86 959.613 31
-2 5 3 6333.65 735.948 22
2 -5 -3 6871.75 819.489 34
-2 5 3 7255.33 500.774 20
-2 5 3 7595.47 521.229 18
2 -5 -2 956.052 344.199 34
-2 5 2 443.906 273.376 22
-2 5 2 514.42 170.615 20
-2 5 2 370.945 327.361 31
2 -5 -1 19616.2 1445.14 34
-2 5 1 20520.9 1414.06 22
-2 5 1 19041.4 983.555 20
-2 5 1 19103.9 970.251 17
-2 5 0 11416.6 637.776 17
-2 5 0 11187.3 998.968 22
2 -5 0 12607 1078.23 34
-2 5 -1 57890 2651.46 2
2 -5 1 78898.7 3406.5 34
-2 5 -2 28665.9 1644.25 16
-2 5 -2 29556.4 1787.08 22
-2 5 -2 25354.9 1258.87 2
2 -5 2 32383.1 1859.81 34
2 -5 3 17122.8 1067.17 23
-2 5 -3 18042.4 1296.9 22
-2 5 -3 18630.8 1210.67 16
-2 5 -3 15052 810.394 2
2 -5 4 26891.5 1653.66 34
-2 5 -4 24677.9 1535.48 16
2 -5 4 21369.1 1407.64 23
-2 5 -4 23275.1 1588.13 22
2 -5 5 39904.4 1873.64 7
2 -5 5 41357.2 2287.88 23
-2 5 -5 45029.8 2461.91 22
-2 5 -6 41198 2329.78 16
2 -5 6 38223.4 2266.25 23
-2 5 -6 40811.5 2367.59 22
2 -5 6 47032.3 2401.54 34
2 -5 6 39198.6 1830.71 7
2 -5 7 650.612 315.633 23
2 -5 7 217.305 235.635 34
2 -5 7 341.335 131.374 37
2 -5 7 345.118 115.297 6
-2 5 -7 145.242 236.168 22
-2 5 -7 192.091 247.622 16
2 -5 8 14830.2 813.348 33
2 -5 8 16465.1 842.869 4
2 -5 8 15591.3 848.686 37
2 -5 8 15947.9 1217.81 34
-2 5 -8 14117.2 1207.3 22
2 -5 8 16979 1324.48 23
2 -5 8 16546.5 816.158 6
-2 5 -8 15908.1 1290.06 16
-2 5 -9 4917.6 725.422 16
2 -5 9 5288.56 366.322 6
2 -5 9 4928.28 381.344 33
2 -5 9 4236.75 692.297 23
2 -5 9 4927.9 413.7 37
2 -5 9 5587.87 404.352 4
2 -5 10 1696.34 242.96 4
2 -5 10 1227.09 183.356 6
2 -5 10 1063.46 217.539 37
2 -5 10 1730.92 487.387 23
2 -5 10 1169.82 212.884 33
-2 5 -10 1843.16 479.401 16
2 -5 11 2333.09 226.751 6
2 -5 11 1788.16 257.001 33
2 -5 11 1773.03 240.31 9
2 -5 11 1297.76 466.587 23
2 -5 11 1866.84 270.132 4
-2 5 -11 1567.18 457.148 16
2 -5 12 217.81 169.757 33
2 -5 12 411.649 124.679 6
2 -5 12 526.87 330.489 23
2 -5 12 577.745 194.351 27
2 -5 12 403.515 166.161 9
2 -5 13 647.323 196.361 33
2 -5 13 858.301 190.972 9
2 -5 14 1554.38 231.416 33
2 -5 14 1413.73 207.11 9
2 -5 15 4993.76 354.563 9
2 -5 15 6097.6 391.432 11
2 -5 16 138.118 115.222 11
2 -5 17 370.188 83.1132 11
-2 4 13 2627.13 283.168 18
-2 4 12 109.562 217.995 30
-2 4 12 263.696 208.018 18
-2 4 11 11955.6 920.472 13
-2 4 11 11727.7 845.83 30
-2 4 11 12878 842.07 18
-2 4 10 1225.99 337.58 30
-2 4 10 816.178 175.664 17
-2 4 10 1083.23 374.9 12
-2 4 10 788.486 286.835 18
-2 4 10 1494.79 418.207 13
-2 4 9 215.2 335.112 13
-2 4 9 403.53 279.832 30
-2 4 9 497.997 351.061 12
-2 4 9 259.57 197.63 20
-2 4 9 513.454 274.674 18
-2 4 9 308.866 152.668 17
-2 4 8 17233 910.687 32
-2 4 8 15949.7 1749.37 31
-2 4 8 18536.8 1128.78 30
-2 4 8 20125.7 1221.53 13
-2 4 8 16238.3 1058.5 15
-2 4 8 18971 1030.39 20
-2 4 8 19818.3 1125.72 18
-2 4 8 19107.8 1243.32 12
-2 4 7 2093.44 411.929 13
-2 4 7 1421.86 579.761 31
-2 4 7 1720.4 413.807 12
-2 4 7 2278.2 363.154 30
-2 4 7 1788.48 284.598 20
-2 4 7 1719.55 317.226 15
-2 4 7 1518.89 311.194 18
-2 4 6 4491.09 457.81 30
-2 4 6 4438.19 338.792 14
-2 4 6 4534.82 855.446 31
-2 4 6 4694.82 518.789 13
-2 4 6 4945.69 449.146 18
-2 4 6 3903.21 431.39 15
-2 4 5 5411.87 496.758 15
-2 4 5 6470.32 528.645 30
-2 4 5 5759.4 398.264 14
-2 4 5 5902.01 483.398 18
-2 4 5 6069.17 453.719 20
-2 4 5 7239.71 981.562 31
-2 4 5 6046.35 555.205 13
-2 4 4 1655.47 286.854 30
-2 4 4 1466.22 320.33 13
2 -4 -4 1761.65 389.037 34
-2 4 4 2019.93 530.484 31
-2 4 4 1422.91 243.405 18
-2 4 4 1697.59 232.482 20
-2 4 4 1548.81 186.391 14
2 -4 -3 55587.7 2854.18 34
-2 4 3 52860.1 2762.86 22
-2 4 3 53552.9 3022.42 31
-2 4 2 28806.5 1887.87 31
-2 4 2 30608.4 1751.05 22
-2 4 1 50222.4 2626.2 22
-2 4 0 712.93 276.511 22
2 -4 1 62268.6 2833.14 23
2 -4 2 3607.65 372.599 23
-2 4 -2 2929.37 454.822 22
-2 4 -2 4013.42 464.55 16
2 -4 3 44705 2270.39 23
-2 4 -3 48342.9 2392.98 16
-2 4 -3 45443.9 2443.95 22
2 -4 4 2975.84 400.272 23
-2 4 -4 2992.99 469.296 22
2 -4 5 342.189 217.533 23
-2 4 -5 184.406 213.569 22
-2 4 -5 34.5263 208.103 16
-2 4 -6 262.288 226.316 22
2 -4 6 428.915 270.875 23
-2 4 -6 605.324 283.149 16
2 -4 7 230.12 129.991 37
2 -4 7 263.458 118.228 4
2 -4 7 510.168 241.355 34
2 -4 7 287.838 97.5083 6
2 -4 7 693.538 285.357 23
-2 4 -7 110.711 190.392 22
-2 4 -7 374.397 250.853 16
2 -4 8 4304.29 521.028 34
2 -4 8 4354.92 357.685 37
2 -4 8 4532.49 312.42 6
2 -4 8 4579.35 621.093 23
2 -4 8 4615.52 340.407 4
-2 4 -8 3498.77 565.961 16
2 -4 9 16196 831.429 6
-2 4 -9 15465.5 1285.23 16
2 -4 9 14833.6 1283.33 23
2 -4 9 16950 919.196 37
2 -4 9 17785.2 885.747 4
-2 4 -10 11738.2 1137.17 16
2 -4 10 14388.2 786.04 33
2 -4 10 13634.2 713.033 6
2 -4 10 12767.5 743.091 9
2 -4 10 12331.8 1199.22 23
2 -4 10 14617.2 775.128 4
2 -4 10 13688.1 811.892 37
2 -4 11 5764.11 383.297 6
2 -4 11 6140.77 453.868 27
2 -4 11 6170.43 466.437 33
2 -4 11 5274.69 423.592 9
2 -4 11 6244.26 497.532 37
2 -4 12 -132.61 259.932 23
2 -4 12 393.554 180.946 27
2 -4 12 332.844 180.784 33
2 -4 12 202.371 104.328 6
2 -4 12 161.776 159.508 9
2 -4 13 1272.55 265.361 30
2 -4 13 1209.81 232.704 9
2 -4 13 1415.61 260.959 33
2 -4 14 2129.06 298.794 30
2 -4 14 2320.66 289.581 11
2 -4 14 2709.85 286.484 9
2 -4 14 1997.34 283.623 33
2 -4 15 7950.58 516.623 33
2 -4 15 9348.46 515.144 11
2 -4 15 7816.07 489.037 9
2 -4 16 35.3187 115.688 30
-2 3 14 44.8801 181.138 30
-2 3 14 155.6 160.649 18
-2 3 13 7757.48 629.494 30
-2 3 12 266.048 278.038 30
-2 3 12 367.733 334.112 13
-2 3 11 5666.39 635.043 13
-2 3 11 5114.01 563.416 30
-2 3 11 4310.52 577.695 12
-2 3 11 4905.37 506.393 15
-2 3 10 10790 796.918 15
-2 3 10 10543 819.324 30
-2 3 10 10380.3 887.72 13
-2 3 10 10036.3 612.43 17
-2 3 10 10913.4 909.154 12
-2 3 10 11161.5 684.832 20
-2 3 10 11615 822.247 18
-2 3 10 11163.9 633.258 32
-2 3 9 5628.48 560.624 15
-2 3 9 6159.56 424.788 32
-2 3 9 6344.21 684.051 12
-2 3 9 6473.95 561.255 29
-2 3 9 6429.72 657.053 13
-2 3 9 6449.85 606.656 30
-2 3 9 6240.4 484.151 20
-2 3 9 5975.58 576.557 18
-2 3 8 5241.38 531.63 15
-2 3 8 5112.09 376.082 32
-2 3 8 6114.18 563.709 30
-2 3 8 6105.96 624.611 13
-2 3 8 6117.29 647.733 12
-2 3 8 6670.95 476.521 20
-2 3 8 5824.22 532.363 18
-2 3 7 10418.1 753.374 30
-2 3 7 12423.1 843.003 13
-2 3 7 10701.4 759.864 15
-2 3 7 10518.2 837.8 12
-2 3 7 11849.4 696.509 20
-2 3 7 11801.7 764.686 18
-2 3 6 323.125 358.105 31
-2 3 6 128.265 204.265 30
-2 3 6 52.288 140.771 20
-2 3 6 191.432 170.84 18
-2 3 6 110.445 187.121 15
-2 3 5 5585.33 776.274 31
-2 3 5 3815.83 356.677 29
2 -3 -5 4938.85 518.364 34
-2 3 5 4150.38 396.937 30
-2 3 4 2619.61 529.561 31
-2 3 3 73778.5 3754.65 31
-2 3 3 76374.1 3701.24 26
-2 3 3 76932.6 3555.48 22
-2 3 2 360.762 260.015 31
-2 3 2 24.5885 161.922 22
-2 3 2 504.809 276.521 26
-2 3 1 28657.3 1564.82 31
-2 3 1 31682.9 1562.44 22
-2 3 0 2565.37 404.255 26
2 -3 0 2925.21 260.769 23
2 -3 1 154442 6566.13 23
-2 3 -1 149866 6769.16 22
-2 3 -2 9524.24 725.194 22
2 -3 2 8749.27 614.386 23
2 -3 3 51771.1 2378.84 23
-2 3 -3 49002.4 2452.08 22
-2 3 -3 45913.3 2398.79 16
-2 3 -4 28584.6 1624.16 16
-2 3 -4 29693.1 1643.15 22
2 -3 4 31007.1 1607.85 23
-2 3 -5 1088.02 274.158 22
2 -3 5 1513.53 309.653 23
-2 3 -5 1363.99 305.019 16
2 -3 6 86254 4063.26 23
-2 3 -6 84938.8 4053.09 16
-2 3 -7 5788.2 630.627 16
2 -3 7 7078.26 689.218 23
2 -3 8 30796.2 1430.38 32
2 -3 8 26773.4 1605.29 34
2 -3 8 30916.9 1414.12 6
2 -3 8 34176.4 1947.1 23
-2 3 -8 31395.3 1854.6 16
2 -3 8 32190.8 1505.19 37
2 -3 8 32931.4 1458.43 4
2 -3 9 7305.4 448.735 32
-2 3 -9 6353.79 722.698 16
2 -3 9 7254.41 421.478 6
2 -3 9 6572.29 448.607 27
2 -3 9 7178.68 461.434 9
2 -3 9 6877.21 498.523 37
2 -3 10 25053.5 1249.72 37
2 -3 10 22366.4 1669.93 23
2 -3 10 24716.9 1156.64 32
2 -3 10 24911.3 1160.86 27
2 -3 10 22186.8 1087 5
2 -3 10 23332.5 1163.44 9
2 -3 10 21996 1094.29 6
2 -3 11 35045.9 1586.36 32
2 -3 11 36260 1688.46 37
2 -3 11 34143.3 1579.38 27
2 -3 11 35040.6 1600.84 4
2 -3 11 33552.4 1596.31 9
2 -3 11 30310.3 1502.9 6
2 -3 12 21748.2 1109.19 27
2 -3 12 22500.2 1181.95 33
2 -3 12 22507.9 1148.27 9
2 -3 12 23049 1221.39 37
2 -3 13 1576.7 317.464 30
2 -3 13 1370.65 268.844 33
2 -3 13 1852.38 276.877 11
2 -3 13 1168.64 246.823 9
2 -3 14 233.318 189.291 33
2 -3 14 -75.2993 212.235 30
2 -3 14 350.06 188.09 11
2 -3 14 143.634 175.994 9
2 -3 15 5973.92 440.527 33
2 -3 15 5134.58 453.607 30
2 -3 15 6056.43 421.202 9
2 -3 16 1293.07 222.097 30
-2 2 15 3791.18 374.881 30
-2 2 14 901.932 295.269 30
-2 2 14 679.648 227.153 18
-2 2 13 5433.97 540.682 18
-2 2 13 4923.6 587.006 30
-2 2 12 5693.12 553.388 15
-2 2 12 4779.61 616.469 13
-2 2 12 3866.57 460.512 29
-2 2 12 4247.26 527.693 30
-2 2 12 4038.32 348.73 32
-2 2 12 4050.7 472.079 18
-2 2 11 863.994 292.345 29
-2 2 11 910.899 326.588 15
-2 2 11 1366.1 370.537 30
-2 2 11 1314.99 217.199 32
-2 2 11 1008.43 294.278 18
-2 2 10 10617.3 795.152 15
-2 2 10 10439.3 780.14 30
-2 2 10 10312.9 725.257 29
-2 2 10 10148.1 623.107 20
-2 2 10 11719 785.343 18
-2 2 10 8458.9 572.492 32
-2 2 9 1812.26 357.879 15
-2 2 9 1802.69 224.079 32
-2 2 9 2138.78 262.288 20
-2 2 9 1959.95 340.635 18
-2 2 9 1482.44 564.378 31
-2 2 8 35482.5 1855.69 15
-2 2 8 37561.1 1688.45 32
-2 2 8 37801.8 1750.8 20
-2 2 7 209.132 131.921 20
-2 2 7 202.104 208.353 15
-2 2 6 174976 7781.18 26
-2 2 5 -44.2527 309.277 31
-2 2 5 120.108 194.3 26
-2 2 4 132077 5920.28 26
-2 2 4 131333 6048.1 31
-2 2 3 60376.7 2875.95 26
-2 2 3 58081.1 2923.98 31
-2 2 2 104497 4668.77 31
-2 2 2 104351 4671.15 26
-2 2 2 101219 4577.97 25
-2 2 1 348.704 199.107 31
-2 2 1 457.365 200.798 25
-2 2 1 179.334 164.587 22
-2 2 0 171082 7169.21 31
-2 2 0 162760 7267.45 26
-2 2 -1 19185.2 1065.2 26
-2 2 -1 16607.9 1013.55 25
-2 2 -1 18800.5 889.367 31
-2 2 -1 17401.8 1041.43 22
-2 2 -2 44752.2 2178.54 26
-2 2 -2 46216.3 2213.08 22
-2 2 -2 45526.5 2176.85 25
-2 2 -3 28544.4 1494.39 26
-2 2 -3 29689.9 1517.5 16
-2 2 -3 29605.9 1506.99 25
2 -2 4 74963.6 3343.22 23
-2 2 -4 68905.1 3304.08 16
2 -2 5 58111.2 2656.86 23
-2 2 -5 50206 2579.16 16
-2 2 -6 68207.5 3236.81 16
-2 2 -7 100851 4371.21 16
2 -2 7 90724.1 4081.57 1
2 -2 8 111004 4372.51 37
2 -2 8 111195 4859.94 23
2 -2 8 103588 4294.61 9
2 -2 9 28781.9 1253.11 32
2 -2 9 25467.2 1180.78 6
2 -2 9 25978.4 1369.98 21
2 -2 9 26857.9 1730.79 23
2 -2 9 23609.6 1172 5
2 -2 9 26058.2 1245.22 9
2 -2 10 37798.8 1633.08 32
2 -2 10 33127.5 2151.13 23
2 -2 10 33392.4 1553.71 5
2 -2 10 33202.7 1751.02 21
2 -2 10 35516.8 1625.9 4
2 -2 10 35192.7 1638.51 9
2 -2 10 33484.8 1550.52 6
2 -2 11 2953.92 303.96 32
2 -2 11 2190.77 522.291 23
2 -2 11 2787.9 308.091 11
2 -2 11 2233.31 372.569 21
2 -2 11 2768.05 310.858 9
2 -2 11 3617.91 379.415 37
2 -2 12 30059.6 1417.36 11
2 -2 12 21730.3 1880.71 23
2 -2 12 24797 1479.97 21
2 -2 12 30257.1 1434.73 9
2 -2 12 26178.4 1471.74 37
2 -2 12 32104.1 1416.87 32
2 -2 13 255.629 173.44 32
2 -2 13 530.268 266.577 30
2 -2 13 140.575 221.763 21
2 -2 13 593.437 207.827 9
2 -2 14 109.606 177.415 33
2 -2 14 -159.59 183.213 9
2 -2 14 40.7695 225.895 30
2 -2 15 945.444 261.159 30
2 -2 15 660.612 195.498 33
2 -2 16 -25.6417 155.195 30
-2 1 16 2525.72 293.774 30
-2 1 15 223.409 241.093 30
-2 1 14 -70.0625 267.479 30
-2 1 14 148.91 181.259 18
-2 1 14 -36.0455 205.319 29
-2 1 13 18264.2 985.375 32
-2 1 13 19856.5 1140.58 29
-2 1 13 20267.1 1218.15 30
-2 1 13 19295.1 1116.2 18
-2 1 12 756.09 356.724 15
-2 1 12 64.0112 221.504 29
-2 1 12 403.687 306.822 30
-2 1 12 166.15 114.477 9
-2 1 12 288.029 225.469 18
-2 1 12 312.762 159.963 32
-2 1 11 17137.2 1041.14 30
-2 1 11 15982.9 833.575 32
-2 1 11 15040.8 1068.3 12
-2 1 11 14832.1 1028.11 15
-2 1 11 14482.5 782.83 9
-2 1 11 15733.2 975.693 18
-2 1 10 4376.53 351.369 32
-2 1 10 5168.16 504.838 30
-2 1 10 3839.94 530.148 13
-2 1 10 4050.23 536.053 12
-2 1 10 3873.2 303.485 9
-2 1 10 4663.71 466.075 18
-2 1 10 3844.95 503.219 15
-2 1 9 60763.3 2907.02 15
-2 1 9 62633.4 2822.21 8
-2 1 9 63009.3 2900.45 30
-2 1 9 62240.6 2971.77 13
-2 1 9 62305.9 2770.14 10
-2 1 9 58066.9 2965.82 12
-2 1 9 61562.1 2724.05 32
-2 1 9 63364.1 2880.44 18
-2 1 8 3289.99 271.842 32
-2 1 8 3777.25 466.453 26
-2 1 8 4147.36 458.731 12
-2 1 8 3715.72 363.588 29
-2 1 8 3246.51 416.299 13
-2 1 8 3003.99 384.555 15
-2 1 8 4119.96 404.475 30
-2 1 8 3632.06 373.018 18
-2 1 7 65128.9 3171.72 26
-2 1 6 54519.3 2679.44 26
-2 1 5 163923 7261.88 25
-2 1 5 181901 7455.98 26
-2 1 5 176046 7676.75 31
2 -1 -5 167359 7192.25 1
-2 1 4 1163.8 207.073 25
-2 1 4 1090.81 274.563 26
2 -1 -4 1075.38 163.836 1
-2 1 4 842.751 311.672 31
-2 1 3 18106.5 1032.07 26
-2 1 3 17089.8 941.325 25
-2 1 3 16748 1081.95 31
-2 1 2 6922.06 557.696 31
-2 1 1 7836.84 560.275 26
-2 1 1 7608.05 530.897 31
-2 1 0 55012.8 2526.52 26
-2 1 -1 999999 41564.1 26
-2 1 -2 926780 38518.3 26
-2 1 -3 7475.44 479.089 26
-2 1 -3 7498.77 512.956 25
-2 1 -4 311.827 121.449 26
-2 1 -4 330.12 144.417 25
-2 1 -5 107156 4686.91 25
2 -1 5 108135 4648.39 1
2 -1 6 13530 749.591 1
2 -1 6 17325.7 1051.38 23
2 -1 7 226621 9935.15 23
2 -1 8 6980.43 466.04 37
2 -1 8 6323.65 418.152 9
2 -1 8 6948.64 718.899 23
2 -1 8 6372.57 410.657 32
2 -1 9 11843.7 626.798 32
2 -1 9 10210.7 966.222 23
2 -1 9 9850.89 567.372 5
2 -1 9 11266.7 621.488 11
2 -1 9 10479.6 774.969 21
2 -1 9 11870.5 645.918 9
2 -1 9 11144 687.499 37
2 -1 10 -33.8123 168.447 37
2 -1 10 212.01 121.778 3
2 -1 10 50.7621 224.493 23
2 -1 10 282.377 164.623 32
2 -1 10 387.911 171.923 11
2 -1 10 121.595 252.197 21
2 -1 10 217.014 162.588 9
2 -1 11 3936.39 660.231 23
2 -1 11 5876.98 428.617 11
2 -1 11 5236.58 564.505 21
2 -1 11 5683.13 439.029 9
2 -1 11 4584.4 460.896 37
2 -1 11 5983.15 437.611 32
2 -1 12 3407.47 379.491 33
2 -1 12 3520.29 345.869 32
2 -1 12 3442.27 450.354 30
2 -1 12 2992.43 569.081 23
2 -1 12 2979.73 433.333 21
2 -1 12 3937.55 367.848 9
2 -1 12 3075.13 369.389 37
2 -1 13 25.9092 162.007 32
2 -1 13 22.5859 241.638 30
2 -1 13 282.76 205.177 33
2 -1 13 94.3769 234.887 21
2 -1 14 716.101 272.164 30
2 -1 14 653.954 199.888 33
2 -1 14 953.476 198.853 32
2 -1 15 1693.17 224.236 33
2 -1 15 1584.54 283.547 30
2 -1 16 3882.28 350.569 30
-2 0 16 329.631 200.781 30
-2 0 15 228.382 203.97 29
-2 0 15 -79.7001 223.322 30
-2 0 14 738.34 270.306 29
-2 0 14 1170.2 329.94 30
-2 0 13 376.02 255.577 29
-2 0 13 197.703 139.1 9
-2 0 13 164.057 183.154 18
-2 0 13 204.619 290.082 30
-2 0 12 19627.6 1244.61 15
-2 0 12 18891.5 1004.29 32
-2 0 12 20269.8 1205.49 30
-2 0 12 18414.2 978.496 9
-2 0 12 19307 1108.8 18
-2 0 11 6709.35 661.305 15
-2 0 11 7523.47 630.387 30
-2 0 11 8101.82 499.467 32
-2 0 11 6687.83 710.198 13
-2 0 11 7473.21 681.542 12
-2 0 11 7770.67 558.755 10
-2 0 11 6824.56 467.116 9
-2 0 11 7011.26 573.26 18
-2 0 11 8483.19 620.734 8
-2 0 10 12470.9 935.073 15
-2 0 10 15877.3 788.03 32
-2 0 10 14933.2 1013.24 13
-2 0 10 15369.6 933.236 30
-2 0 10 15571.3 901.992 8
-2 0 10 13738.6 970.023 12
-2 0 10 15606.8 859.586 10
-2 0 10 13133.5 750.444 9
-2 0 10 14875.3 883.217 18
-2 0 9 20087.2 997.329 32
-2 0 9 20559.9 1128.16 30
-2 0 9 21422.8 1224.88 13
-2 0 9 19189.1 1180.36 12
-2 0 9 20435.8 1074.36 10
-2 0 9 19885.7 1105.26 8
-2 0 9 20922.8 1104.91 18
-2 0 9 20936.7 1053.48 27
-2 0 8 419.909 205.404 30
-2 0 8 553.066 254.132 13
-2 0 8 373.964 192.818 26
-2 0 8 466.796 157.612 27
-2 0 7 2238.85 353.661 26
2 0 -6 1670.25 208.16 1
2 0 -5 5573.9 390.742 1
-2 0 5 5567.06 475.488 24
-2 0 4 3870.97 387.778 24
2 0 -4 4044.52 318.292 1
2 0 -3 79210.5 3481.07 1
-2 0 3 79983.9 3555.36 24
2 0 -2 117619 5053.06 1
-2 0 1 115100 5108.35 24
2 0 -1 120802 5076.91 1
-2 0 0 19294.6 985.319 24
2 0 0 18586.4 961.289 1
2 0 1 93049.5 4148.95 1
-2 0 -1 98821.7 4156.13 24
-2 0 -2 345745 14727.3 24
2 0 2 359930 14758.6 1
2 0 3 639.306 145.77 1
2 0 4 26754.5 1286.39 31
2 0 4 24813.3 1185.99 1
-2 0 -4 22719.6 1097.42 26
2 0 5 4048.26 323.004 1
2 0 5 4282.38 450.789 31
2 0 6 778.592 253.204 23
2 0 6 508.582 231.869 31
2 0 6 332.274 106.574 1
2 0 7 5083.36 597.075 31
2 0 7 4932.77 573.375 23
2 0 8 19498.6 884.808 3
2 0 8 15690.4 1197.44 23
2 0 8 17829.9 937.598 37
2 0 8 17830.4 878.39 11
2 0 8 13629.6 1191.25 31
2 0 8 16174.8 1058.8 21
2 0 8 16912.2 882.165 9
2 0 9 1590.24 211.652 3
2 0 9 1440.79 244.022 37
2 0 9 1478.58 365.585 23
2 0 9 1502.64 219.19 11
2 0 9 1704.89 376.404 21
2 0 9 1850.54 233.978 9
2 0 10 3977.31 347.294 32
2 0 10 4471.47 365.664 3
2 0 10 3700.22 501.545 21
2 0 10 4092.25 391.975 37
2 0 11 -85.5931 171.629 37
2 0 11 -13.3365 159.931 32
2 0 11 -280.092 284.648 21
2 0 12 5168.78 402.215 32
2 0 12 4010.46 534.214 21
2 0 12 4677.2 412.224 33
2 0 12 3522.3 328.602 19
2 0 13 308.341 177.618 33
2 0 13 491.86 195.282 32
2 0 14 97.8268 147.018 32
2 0 15 316.629 139.467 32
-2 -1 16 397.844 190.339 30
-2 -1 16 366.199 186.823 29
-2 -1 15 75.7514 203.888 30
-2 -1 15 208.399 216.212 29
-2 -1 14 883.515 290.636 30
-2 -1 14 918.68 181.541 9
-2 -1 13 1556.98 334.425 30
-2 -1 13 1400.12 277.953 10
-2 -1 13 1324.52 221.513 9
-2 -1 12 2207.01 376.724 30
-2 -1 12 2343.25 228.963 11
-2 -1 12 2534.1 345.222 10
-2 -1 12 2212.98 271.884 9
-2 -1 12 2196.84 290.173 18
-2 -1 11 19451.5 1172.56 15
-2 -1 11 20453.8 1121.85 8
-2 -1 11 19453.1 1101.2 30
-2 -1 11 20223.4 1170.38 12
-2 -1 11 20428.5 1041.39 27
-2 -1 11 16570 900.923 11
-2 -1 11 19570.1 1071.32 10
-2 -1 11 17532.9 1003.54 18
-2 -1 10 15656.5 952.758 30
-2 -1 10 15318.2 991.259 12
-2 -1 10 16257 1026.38 15
-2 -1 10 18792.8 969.878 10
-2 -1 10 14903.3 885.946 18
-2 -1 10 16604.7 901.565 27
-2 -1 10 16830.9 978.499 8
-2 -1 9 821.214 308.038 15
-2 -1 9 1566.06 262.932 30
-2 -1 9 1633.16 231.152 27
-2 -1 9 1408.41 273.904 8
-2 -1 9 1475.82 196.086 32
-2 -1 9 1441.23 291.091 12
-2 -1 9 1589.01 250.708 10
-2 -1 9 1421.63 297.098 26
-2 -1 9 1594.67 337.252 13
-2 -1 8 5673.04 399.425 27
2 1 -7 8903.07 610.125 1
-2 -1 7 10368.8 720.381 24
-2 -1 6 1447.75 279.773 24
2 1 -6 1679.12 244.68 1
-2 -1 5 19174.7 1103.08 24
2 1 -5 19109.1 1027.48 1
2 1 -4 62233.8 2820.16 1
-2 -1 3 39873.8 1929.24 35
2 1 -3 40222.2 1897.32 1
2 1 -2 27565.1 1372.29 1
-2 -1 1 4276.64 395.753 35
2 1 -1 3944.13 357.363 1
-2 -1 0 363674 15326.3 35
-2 -1 -1 12984.6 785.282 35
2 1 1 12518.2 739.216 1
2 1 2 16767.8 923.688 1
2 1 3 7220.64 510.111 1
-2 -1 -4 33440.6 1584.62 24
2 1 4 36605.1 1691.66 1
2 1 5 437.68 143.54 1
2 1 5 697.972 288.576 31
2 1 6 1245.64 342.448 31
2 1 6 963.554 266.373 23
2 1 7 9286.32 507.819 3
2 1 7 8260.66 735.436 23
2 1 7 7728.39 473.689 11
2 1 7 7381.51 634.656 21
2 1 7 8324.44 513.688 37
2 1 8 33366.5 1637.55 37
2 1 8 29631.3 1900.66 23
2 1 8 33844.7 1595.15 11
2 1 8 30168.2 1781.83 21
2 1 8 26752.6 2025.27 31
2 1 9 13560 831.916 37
2 1 9 17077.1 845.439 3
2 1 10 16193 951.578 30
2 1 10 14723.4 842.31 37
2 1 10 14256.8 852.133 20
2 1 11 3623.66 353.547 33
2 1 11 3923.06 356.109 32
2 1 11 3814.57 444.901 30
2 1 11 2834.99 320.038 20
2 1 11 2906.86 319.005 19
2 1 12 9078.3 677.492 30
2 1 12 9104.14 568.9 33
2 1 12 10423.4 600.398 32
2 1 12 9129.64 765.193 21
2 1 13 19.1741 218.442 30
2 1 13 73.4683 160.435 32
2 1 14 6827.18 517.98 30
2 1 14 5510.19 484.897 18
2 1 15 184.387 106.978 32
2 1 15 -10.7678 139.944 30
2 1 15 -28.5356 127.153 18
-2 -2 17 -114.997 133.069 29
-2 -2 16 3511.34 358.436 29
-2 -2 15 700.826 221.023 30
-2 -2 15 667.208 172.922 9
-2 -2 14 12708.1 854.848 30
-2 -2 14 14193.3 786.193 9
-2 -2 13 318.093 223.19 30
-2 -2 13 292.587 133.516 11
-2 -2 13 405.563 228.892 10
-2 -2 12 352.881 212.093 30
-2 -2 12 432.064 248.607 8
-2 -2 12 288.468 220.13 10
-2 -2 12 461.911 228.774 27
-2 -2 11 -18.0527 192.043 30
2 2 -11 180.517 213.346 16
-2 -2 11 160.308 191.368 27
-2 -2 11 79.5293 196.616 10
-2 -2 10 18074.1 1144.23 15
-2 -2 10 20454.8 1046.34 27
-2 -2 10 19831.3 1093.1 10
2 2 -10 18304.4 1363.93 16
-2 -2 9 13033.3 875.12 15
-2 -2 9 13169 833.775 8
-2 -2 9 14532.2 778.937 27
-2 -2 9 14049.2 973.66 24
-2 -2 8 12837.7 799.65 15
-2 -2 8 12840.3 703.892 27
-2 -2 8 14294 943.729 24
-2 -2 8 11944.4 751.722 8
-2 -2 7 68506.1 3160.15 24
2 2 -7 63063.7 3060.76 1
-2 -2 6 18174.5 1092.67 35
2 2 -6 18785.4 1084.4 1
-2 -2 5 125079 5532.63 35
2 2 -5 124048 5491.48 1
-2 -2 4 79984.8 3749.7 35
2 2 -4 83244.7 3709.4 1
-2 -2 3 184262 8278.49 35
2 2 -3 197999 8258.47 1
2 2 -2 80610.2 3660.95 1
-2 -2 1 242476 10417 35
-2 -2 0 45603.8 2293.39 35
2 2 0 47315.7 2245.87 1
-2 -2 -1 79363.6 3715.16 35
2 2 1 81377.3 3663.35 1
2 2 2 880.349 221.76 1
-2 -2 -2 1661.06 303.034 35
2 2 3 33123.7 1704.68 1
-2 -2 -3 33566.6 1752.48 35
2 2 4 16513.1 993.267 1
2 2 5 54599.4 2937.82 31
2 2 6 5557.18 568.029 23
2 2 6 4577.4 698.479 31
2 2 6 5575 548.379 21
2 2 6 6921.95 437.026 3
2 2 7 96183.7 5588.42 31
2 2 7 107666 5213.14 21
2 2 8 2651.77 596.921 31
2 2 8 3994.88 505.123 21
2 2 8 3824.44 394.654 30
2 2 9 56740.2 2648.03 30
2 2 9 58767.6 2813.64 21
2 2 9 54552 2618.94 20
2 2 10 1534.34 222.38 33
2 2 10 1622.38 277.659 20
2 2 10 1837.55 317.017 30
2 2 10 895.55 368.733 21
2 2 10 942.304 232.428 19
2 2 11 21970.6 1077.78 32
2 2 11 23012.7 1313.62 21
2 2 11 18263 1055.3 20
2 2 11 20388 1060.3 19
2 2 11 19799.1 1141.37 30
2 2 12 3396.22 318.587 32
2 2 12 2456 344.351 30
2 2 12 2448.43 268.29 19
2 2 13 3575.05 363.821 30
2 2 13 4336.1 339.193 32
2 2 14 79.8505 113.162 32
-2 -3 17 772.339 173.778 29
-2 -3 16 228.603 123.117 9
-2 -3 15 2271.86 256.416 9
-2 -3 14 49.312 219.69 27
-2 -3 13 4865.82 458.888 27
-2 -3 12 16661.1 937.9 27
-2 -3 12 18193.9 1026.95 8
-2 -3 11 329.072 200.191 27
-2 -3 11 362.357 242.358 8
2 3 -11 468.422 301.881 16
-2 -3 11 101.978 206.845 10
-2 -3 10 19115.5 1104.47 15
-2 -3 10 17860.1 967.155 27
-2 -3 10 17873.4 1027.66 8
-2 -3 10 14529.7 1142.12 24
2 3 -10 16430.4 1330.62 16
-2 -3 9 10340.3 751.561 15
-2 -3 9 10197.5 873.828 24
-2 -3 9 11612.3 666.688 27
-2 -3 9 10387.8 701.989 8
-2 -3 8 41531.1 1986.59 8
-2 -3 8 41888.6 2016.31 15
-2 -3 7 60690.3 3001.25 35
-2 -3 6 155418 6662.99 35
2 3 -6 141501 6587.51 1
2 3 -5 12517.9 899.743 1
-2 -3 5 13060.4 944.564 35
2 3 -4 104617 4693.29 1
-2 -3 4 99811.9 4723.97 35
2 3 -3 78429.6 3681.41 1
2 3 -2 35264.6 1861.32 1
-2 -3 2 34769.5 1921.72 35
-2 -3 1 3443.45 461.338 35
2 3 0 58091 2834.66 1
-2 -3 0 57994.6 2908.09 35
-2 -3 -1 5250.06 568.038 35
2 3 1 4958.51 515.973 1
2 3 2 79611.2 3831.96 1
-2 -3 -2 83809.5 3931.85 35
-2 -3 -3 30028 1741.75 35
2 3 4 166658 7197.86 21
2 3 5 1489.75 307.758 21
2 3 6 55671 2584.15 30
2 3 6 61489.2 2764.24 21
2 3 6 52738.7 3263.8 31
2 3 7 6164.7 917.841 31
2 3 7 6872.73 529.842 30
2 3 7 8537.14 684.03 21
2 3 8 29644.5 2307.25 31
2 3 8 31020 1635.33 30
2 3 8 33890.2 1697.68 20
2 3 8 33692.5 1633.88 19
2 3 9 2777.52 350.995 30
2 3 9 3045.81 482.273 21
2 3 9 3398.48 393.031 20
2 3 9 3134.81 335.698 19
2 3 10 5107.62 449.523 20
2 3 10 5452.56 431.245 19
2 3 11 2345.54 280.696 32
2 3 11 1954.01 268.38 20
2 3 11 1900.91 246.327 19
2 3 12 132.917 143.425 32
2 3 12 -128.997 194.256 18
2 3 13 587.033 137.25 32
2 3 13 367.193 164.405 18
-2 -4 16 7.98808 112.05 9
-2 -4 15 494.753 201.633 27
-2 -4 15 299.481 154.473 9
-2 -4 14 1116.33 263.12 27
-2 -4 14 848.87 246.04 10
-2 -4 13 2119.39 328.895 27
-2 -4 13 1951.16 328.65 10
-2 -4 12 2960.04 372.18 10
-2 -4 12 2762.6 360.433 27
-2 -4 12 2153.5 223.498 4
-2 -4 12 2484.49 377.894 8
2 4 -12 2328.27 511.892 16
2 4 -11 27361.4 1929.86 16
-2 -4 11 30133.3 1475.41 27
-2 -4 11 29270.7 1510.52 10
-2 -4 11 27421.4 1342.58 4
-2 -4 11 30096.1 1528.07 8
-2 -4 10 9402.84 624.264 27
2 4 -10 9579.25 1003.82 16
-2 -4 10 8554.42 843.506 24
-2 -4 10 8704.25 648.888 8
-2 -4 9 1956 297.092 8
-2 -4 9 2214.13 234.249 7
-2 -4 8 28037.9 1438.64 8
-2 -4 8 28816.2 1354.02 7
-2 -4 8 28772.8 1759.4 35
-2 -4 7 3658.98 368.81 8
2 4 -7 4637.35 319.234 2
-2 -4 7 5202.66 347.497 7
-2 -4 7 4280.21 587.113 35
-2 -4 6 8830.28 515.595 7
2 4 -6 8776.74 493.64 2
-2 -4 6 8431.66 835.34 35
-2 -4 5 25890.2 1646.98 35
2 4 -4 1227.51 324.459 1
-2 -4 4 1698.51 398.251 35
2 4 -3 10019.6 851.69 1
-2 -4 2 1925.56 448.039 35
2 4 -1 49785.7 2559.68 1
-2 -4 1 45108.9 2582.63 35
-2 -4 0 1936.46 435.743 35
-2 -4 -1 43396.8 2445.36 35
2 4 1 42673.3 1907.11 2
2 4 2 16001.1 797.167 2
-2 -4 -2 16148.3 1246.91 35
2 4 3 33733.3 1538.4 2
-2 -4 -3 35393.2 2078.57 35
2 4 4 287.256 206.439 21
2 4 5 2167.63 348.11 21
2 4 5 1718.47 259.818 19
2 4 5 1244.47 516.899 31
2 4 6 13545.4 893.879 21
2 4 6 13480.4 783.506 19
2 4 7 2406.31 409.047 21
2 4 7 2955.72 330.06 19
2 4 7 1891.18 600.628 31
2 4 8 250.54 220.969 20
2 4 9 240.754 203.198 20
2 4 9 28.0555 167.424 19
2 4 10 2814.45 306.355 20
2 4 10 3001.56 294.943 19
2 4 11 1685.61 212.36 20
2 4 11 2089.08 214.64 19
2 4 11 1484.57 245.032 18
2 4 12 17.617 123.12 18
-2 -5 16 302.922 118.796 9
-2 -5 15 256.101 165.926 27
-2 -5 14 181.647 174.428 10
-2 -5 14 155.468 193.395 27
-2 -5 13 3917.29 403.852 27
-2 -5 13 3764.79 391.677 10
-2 -5 12 59.0426 114.487 4
-2 -5 12 -165.876 200.728 10
-2 -5 12 66.9749 206.501 27
-2 -5 11 404.989 225.96 27
2 5 -11 118.887 253.571 16
-2 -5 11 264.697 209.986 10
-2 -5 11 537.147 224.777 8
-2 -5 10 2411.46 332.139 8
-2 -5 10 3151.89 349.262 27
-2 -5 10 2344.95 482.071 24
-2 -5 10 2614.18 277.525 7
2 5 -10 1985.17 484.758 16
2 5 -9 1555.26 439.607 16
-2 -5 9 1397 260.096 8
-2 -5 9 1384.64 211.144 7
-2 -5 9 2286.39 455.393 35
2 5 -8 286.772 130.104 2
-2 -5 8 548.191 294.594 35
-2 -5 8 278.973 143.065 7
-2 -5 8 226.153 166.785 8
-2 -5 7 1073.94 390.996 35
-2 -5 7 1247.16 198.926 7
2 5 -7 1639.88 202.289 2
2 5 -7 1178.87 397.649 16
-2 -5 6 1287.9 396.467 35
2 5 -6 1008.06 168.33 2
-2 -5 6 873.603 171.629 7
2 5 -6 1100.65 353.425 16
-2 -5 5 826.078 363.569 35
2 5 -5 1126.8 172.458 2
2 5 -5 1106.15 343.767 16
2 5 -4 5426.85 371.571 2
2 5 -4 4408.73 581.21 16
2 5 -3 36903 1696.64 2
2 5 -3 36921.1 2082.34 16
-2 -5 3 37387.5 2290.54 35
-2 -5 2 1283.74 423.997 35
2 5 -2 1709.59 333.457 16
2 5 -1 30415.4 1713.85 16
2 5 -1 30458.8 1436.21 2
-2 -5 1 32804.3 2075.94 35
2 5 0 6385.99 403.56 2
2 5 0 5593.27 396.03 19
-2 -5 0 5725.28 792.269 35
2 5 1 24962.2 1160.86 2
2 5 1 22462 1168.11 19
-2 -5 -1 25646.7 1789.05 35
2 5 2 6543.57 485.548 19
2 5 2 8077.7 465.266 2
-2 -5 -2 7379.33 893.713 35
2 5 3 384.528 172.727 19
-2 -5 -3 269.826 285.72 35
2 5 3 536.93 130.313 2
2 5 4 639.217 236.179 20
2 5 4 886.365 210.576 19
2 5 5 2545.47 701.384 31
2 5 5 2433.46 343.459 20
2 5 5 1965.6 281.878 19
2 5 6 761.973 255.372 20
2 5 6 703.128 219.947 19
2 5 7 2216.66 327.604 20
2 5 7 2193.27 287.472 19
2 5 7 1248.99 268.401 18
2 5 8 -114.442 172.578 19
2 5 8 137.719 168.604 18
2 5 9 1823.17 246.113 20
2 5 9 1183.69 218.212 18
2 5 10 397.913 142.206 20
2 5 10 200.732 121.236 18
2 5 11 435.125 101.521 32
-2 -6 15 1623.08 208.144 27
-2 -6 14 114.318 158.078 27
-2 -6 14 11.3985 132.632 10
-2 -6 13 4321.63 374.825 27
-2 -6 13 3578.92 342.982 10
-2 -6 12 379.11 181.182 10
-2 -6 12 235.596 189.203 27
-2 -6 12 177.586 118.292 4
-2 -6 11 342.13 198.383 27
-2 -6 11 355.065 185.406 10
-2 -6 10 49.0686 132.033 7
-2 -6 10 33.1949 159.294 10
2 6 -10 58.9436 241.211 16
-2 -6 9 2133.39 486.632 35
2 6 -9 3053.48 270.375 2
-2 -6 9 2848.12 292.107 7
-2 -6 8 3939.23 646.006 35
2 6 -8 4334.29 342.876 2
2 6 -8 4579.9 688.852 16
-2 -6 8 4531.64 373.049 7
2 6 -7 7642.08 490.89 2
2 6 -7 7688.93 885.338 16
-2 -6 7 6825.84 879.569 35
-2 -6 7 8079.54 522.188 7
-2 -6 6 27455.1 1321.57 7
2 6 -6 26173.8 1286.22 2
2 6 -6 26157.5 1780.11 16
-2 -6 6 25007.3 1865.13 35
-2 -6 5 13292.2 759.339 7
2 6 -5 15517.4 1199.65 16
2 6 -5 13467.2 739.04 2
2 6 -4 43534.5 1980.82 2
2 6 -4 41478.2 2417.79 16
2 6 -3 18920.2 1345.06 16
-2 -6 3 19927.9 1611.94 35
2 6 -2 8466.89 531.14 2
-2 -6 2 8686.06 1030.29 35
2 6 -1 54466.3 2453.62 2
-2 -6 1 55537.9 3245.54 35
2 6 0 7914.71 489.312 2
2 6 0 6496.9 505.922 20
2 6 0 7384.58 471.114 19
-2 -6 0 7656.98 973.969 35
2 6 1 27956.3 1273.89 2
2 6 1 24495.9 1323.52 20
2 6 1 25784.3 1276.48 19
-2 -6 -1 25218.4 1921.89 35
2 6 2 12559.1 684.737 2
2 6 2 12781.6 778.97 20
2 6 2 12801.8 725.186 19
-2 -6 -2 11252.9 1179.44 35
2 6 3 45.6824 110.183 2
2 6 3 276.542 204.236 20
2 6 3 202.344 166.445 19
2 6 4 276.263 204.438 20
2 6 4 380.854 178.739 19
2 6 5 344.734 203.66 20
2 6 5 196.629 167.832 19
2 6 6 23695.1 1249.32 20
2 6 6 25261 1218.12 19
2 6 7 -38.1513 165.262 20
2 6 7 -62.5233 143.041 19
2 6 8 12591.4 679.041 20
2 6 9 1016 134.116 32
-2 -7 15 97.5382 91.277 27
-2 -7 15 83.1181 78.378 9
-2 -7 14 1530.19 194.562 27
-2 -7 13 295.313 151.711 27
-2 -7 13 58.2168 101.292 10
-2 -7 12 878.98 197.177 27
-2 -7 12 511.198 144.504 10
-2 -7 11 1029.29 216.494 27
-2 -7 11 565.805 165.421 10
2 7 -10 4058.91 294.055 2
-2 -7 10 4310.02 333.531 7
-2 -7 10 5062.06 387.934 27
2 7 -9 7352.47 473.358 2
-2 -7 9 8407.14 515.289 7
2 7 -8 11122.5 646.473 2
-2 -7 8 11780.6 679.164 7
2 7 -7 16076.4 848.155 2
-2 -7 7 15690.1 869.325 7
-2 -7 6 33589.9 1587.21 7
2 7 -6 33905.8 1566.43 2
2 7 -6 28572.9 2002.91 16
-2 -7 6 29912.6 2172.75 35
2 7 -5 7425.91 485.224 2
2 7 -5 6392.26 752.516 16
-2 -7 5 6176.98 876.686 35
2 7 -4 33948.8 1579.71 2
-2 -7 4 29020.6 2188.65 35
-2 -7 3 7702.06 983.657 35
2 7 -2 17749.2 931.209 2
-2 -7 2 17339.3 1560.61 35
-2 -7 1 1468.92 474.825 35
2 7 -1 856.701 185.73 2
2 7 0 4736.62 363.662 2
2 7 0 4755.91 377.156 20
2 7 1 7793.93 470.767 2
2 7 1 6859.72 492.55 20
-2 -7 -2 378.313 144.172 36
2 7 2 238.282 160.009 20
2 7 3 21948.8 1114.02 20
2 7 4 95.5303 157.761 20
2 7 5 24466.2 1180.95 20
2 7 6 3395.64 269.981 20
2 7 7 8887.81 445.21 17
2 7 7 8775.36 459.94 20
-2 -8 13 321.262 100.687 27
-2 -8 12 982.251 151.59 27
-2 -8 11 4135.03 299.625 27
-2 -8 11 3785.8 263.581 4
2 8 -10 1086.03 141.058 2
-2 -8 10 1268.44 184.351 27
2 8 -9 7332.86 443.247 2
-2 -8 9 8211.65 480.968 27
-2 -8 9 7711.52 467.799 7
-2 -8 8 858.837 174.111 7
2 8 -8 504.073 144.721 2
-2 -8 8 869.296 162.472 36
2 8 -7 10356.5 593.371 2
-2 -8 7 10500.6 607.984 7
2 8 -6 246.638 149.694 2
2 8 -5 5529.04 397.605 2
-2 -8 4 936.274 205.284 7
-2 -8 3 353.029 178.119 7
2 8 -3 463.728 159.019 2
-2 -8 2 2215.6 266.131 7
2 8 -2 2307.39 238.231 2
-2 -8 1 426.607 162.376 7
2 8 -1 425.878 139.935 2
-2 -8 1 204.174 146.926 36
-2 -8 0 11558.8 628.723 7
2 8 0 9817.85 566.425 2
-2 -8 0 11264 595.191 36
-2 -8 -1 3220.5 273.894 7
-2 -8 -1 2589.65 221.012 36
-2 -8 -2 7171.55 430.123 7
2 8 3 942.708 121.082 20
2 8 3 952.067 109.43 17
-2 -8 -4 2007.43 146.016 7
-2 -9 10 107.082 71.1551 4
-2 -9 9 665.746 91.2711 6
-2 -9 8 -45.4464 85.7664 7
2 9 -7 13.4361 93.5699 2
-2 -9 7 37.9769 93.0933 36
2 9 -6 1821.71 183.495 2
-2 -9 5 7.77285 99.7418 7
2 9 -5 -29.6923 100.364 2
-2 -9 5 21.6448 104.384 36
-2 -9 4 217.085 110.508 7
-2 -9 4 122.06 112.422 36
-2 -9 3 314.423 114.471 7
-2 -9 3 460.699 121.142 36
2 9 -3 272.215 107.883 2
-2 -9 2 430.103 107.753 36
-2 -9 2 417.008 115.397 7
-2 -9 1 799.623 125.132 7
-2 -9 1 740.619 103.221 36
-2 -9 0 1986.98 162.248 7
-3 10 -1 415.702 97.105 14
-3 10 -2 13.6118 83.9391 14
-3 10 -3 1988.25 182.038 14
-3 10 -4 133.101 86.2432 14
3 -10 4 105.619 48.3439 6
-3 10 -5 2567.63 193.296 14
3 -10 5 2349.07 162.753 6
-3 10 -5 2467.39 280.212 13
-3 10 -6 158.622 181.184 13
3 -10 6 377.916 80.6415 6
-3 10 -6 359.87 80.042 14
3 -10 7 1861.94 147.964 6
3 -10 8 452.351 83.5495 6
3 -10 9 1337.17 112.185 6
-3 9 2 26.1941 104.175 14
-3 9 1 559.633 149.063 14
-3 9 1 585.66 244.023 13
-3 9 0 -18.8111 216.588 13
-3 9 -1 583.03 159.065 14
-3 9 -1 693.334 276.862 13
-3 9 -2 8100.23 516.156 14
-3 9 -2 8067.78 647.721 13
-3 9 -3 4103.36 330.02 14
3 -9 3 3728.54 262.637 6
3 -9 4 82.3108 95.6899 6
-3 9 -4 113.474 129.326 14
-3 9 -5 4950.79 348.367 14
3 -9 5 4185.33 297.08 6
3 -9 6 498.501 109.721 4
-3 9 -6 512.195 138.223 14
3 -9 6 676.026 130.693 6
3 -9 7 8560.76 438.603 6
3 -9 7 6396.73 394.605 4
3 -9 8 26.1453 91.0611 4
3 -9 8 88.1392 96.2538 6
3 -9 9 61.1653 85.7213 6
3 -9 9 -18.7268 82.7755 4
3 -9 10 535.163 105.443 4
3 -9 11 606.86 95.483 6
3 -9 11 462.971 93.4734 4
3 -9 12 79.6786 51.2673 6
-3 8 5 429.711 121.734 17
-3 8 5 491.45 235.336 13
-3 8 4 663.64 155.087 14
-3 8 4 598.036 143.734 17
-3 8 3 135.849 266.364 13
-3 8 3 246.51 133.874 17
-3 8 3 359.585 154.043 14
-3 8 2 1650.68 220.012 17
-3 8 2 1718.84 243.73 14
-3 8 2 2335.97 413.249 13
-3 8 1 291.381 295.394 13
-3 8 1 249.846 145.09 17
-3 8 0 10453 643.781 14
-3 8 0 10950 833.65 13
-3 8 0 9135.94 583.609 17
-3 8 -1 7547 552.108 14
-3 8 -1 8419.28 522.741 17
-3 8 -2 24906.7 1277.1 14
3 -8 2 23323.4 1171.13 6
-3 8 -3 2584.75 297.932 14
3 -8 3 2367.51 231.307 6
-3 8 -4 7208.96 508.024 14
3 -8 4 7629.47 461.117 6
-3 8 -5 5309.7 395.917 14
3 -8 5 5468.42 359.359 6
-3 8 -6 344.387 141.226 14
3 -8 6 150.701 121.449 6
3 -8 6 259.905 120.538 4
3 -8 7 12969.8 659.987 6
3 -8 7 10891.2 629.738 4
3 -8 8 13653.1 708.928 6
3 -8 8 12629.1 690.797 4
3 -8 9 574.229 149.835 4
3 -8 10 349.057 131.571 4
3 -8 11 139.223 114.158 4
3 -8 11 97.1708 101.942 6
3 -8 12 1251.02 161.047 4
3 -8 12 1510.24 150.529 6
3 -8 13 120.825 78.389 11
-3 7 8 3746.29 261.129 17
-3 7 7 -18.0745 109.395 17
-3 7 7 -19.6946 246.215 13
-3 7 6 3286.52 295.474 17
-3 7 6 3646.03 476.228 13
-3 7 5 394.532 317.174 13
-3 7 5 972.985 187.768 14
-3 7 4 4117.77 358.799 17
-3 7 4 4195.06 374.985 14
-3 7 4 4920.76 571.717 13
-3 7 3 42875.8 1999.8 17
-3 7 3 42259.7 2024.45 14
-3 7 3 44074.8 2253.55 13
3 -7 -2 11103.3 1149.56 34
-3 7 2 12916.5 784.355 14
-3 7 2 12900.6 978.137 13
-3 7 2 13698.8 764.233 17
3 -7 -1 8790.9 1037.19 34
-3 7 1 8225.51 669.852 15
-3 7 1 9897.33 614.855 17
3 -7 0 57905.4 3347.88 34
-3 7 0 54634.7 2603.63 14
-3 7 0 58379.2 2581.79 17
3 -7 1 8799.41 1038.87 34
3 -7 1 8139.02 483.62 6
-3 7 -1 8319.83 571.175 14
-3 7 -1 8321.48 1006.39 22
-3 7 -1 9137.39 565.848 17
3 -7 2 11121.6 1169.3 34
3 -7 2 9463.5 550.588 6
-3 7 -2 10349 613.664 17
3 -7 3 12025.2 1244.17 34
3 -7 3 11499.1 643.716 6
-3 7 -3 12257.4 691.582 17
-3 7 -3 13068.5 1266.51 22
3 -7 4 19450.9 973.413 6
-3 7 -4 20377.7 1637.95 22
3 -7 5 8786.21 1023.3 34
3 -7 5 7457.02 472.271 6
-3 7 -5 7925.38 985.883 22
-3 7 -5 7582.1 511.743 14
3 -7 6 380.723 318.079 34
-3 7 -6 193.664 132.231 14
3 -7 6 86.0281 122.664 6
3 -7 6 146.219 121.674 4
3 -7 7 7268.87 455.27 6
3 -7 7 6449.46 440.839 4
3 -7 8 3981.59 634.181 34
3 -7 8 3952.33 313.543 6
3 -7 8 2945.35 293.452 4
3 -7 9 10968 634.229 4
3 -7 10 1789.87 217.872 6
3 -7 10 1825.46 231.238 4
3 -7 11 14862.6 763.852 6
3 -7 11 14662.5 785.03 4
3 -7 12 -88.3965 132.822 4
3 -7 12 -48.4044 99.9849 6
3 -7 13 1161.85 171.486 4
3 -7 14 2406.95 197.696 11
3 -7 15 996.955 104.885 11
-3 6 10 275.012 222.071 13
-3 6 9 2397.66 391.135 13
-3 6 9 2674.35 230.132 17
-3 6 8 1334.04 190.685 17
-3 6 8 1278.24 373.348 13
-3 6 8 1207.94 313.562 12
-3 6 8 1101.13 241.572 18
-3 6 7 17109 907.076 17
-3 6 7 17795.2 1147.93 13
-3 6 7 16228.3 1093.15 12
-3 6 7 17850.1 988.22 18
-3 6 6 8140.57 541.886 17
-3 6 6 8674.83 777.385 13
-3 6 6 8588.98 544.771 14
-3 6 6 8288.03 747.143 12
-3 6 6 8110.23 596.475 18
-3 6 5 4101.66 454.408 15
-3 6 5 5229.02 614.451 13
-3 6 5 4803.61 444.047 18
-3 6 5 4013.72 841.952 31
-3 6 5 5045.15 400.567 17
-3 6 5 5143.12 409.367 14
-3 6 4 10398.1 1293.68 31
-3 6 4 13765.2 773.228 14
-3 6 4 13190.4 971.897 13
-3 6 4 11512.7 830.322 15
-3 6 4 13012 794.076 18
-3 6 3 61508.7 2729.83 14
3 -6 -3 60607.1 3306.78 34
-3 6 3 51313.1 3441.53 31
-3 6 3 56036.6 2811.03 15
-3 6 3 63742.2 2982.69 13
-3 6 3 59708.7 2696.94 17
-3 6 2 2088.44 549.821 31
-3 6 2 2997.61 407.938 15
-3 6 2 2481.54 294.1 14
3 -6 -2 2598.55 560.329 34
-3 6 2 2644.4 290.355 17
-3 6 1 28296.8 1338.7 17
3 -6 -1 27839.8 1927.16 34
-3 6 0 1398.54 219.39 17
3 -6 0 1796.85 483.439 34
-3 6 0 880.483 383.556 31
-3 6 0 2033.82 484.069 22
3 -6 1 5647.08 796.037 34
-3 6 -1 5943.93 425.198 17
3 -6 1 5536.54 359.771 6
-3 6 -1 5247.52 749.739 22
3 -6 2 1504.14 173.435 6
-3 6 -2 1944.06 239.039 17
-3 6 -3 5921.37 414.497 17
-3 6 -3 5024.45 769.501 22
3 -6 3 5674.03 368.867 6
3 -6 4 43668.9 2029.46 6
-3 6 -4 48282 2766.55 22
3 -6 5 5913.1 796.429 34
-3 6 -5 4695.98 374.477 14
-3 6 -5 5179.09 766.396 22
3 -6 5 5203.39 357.603 6
3 -6 6 17174.3 1355.14 34
3 -6 6 15386.8 782.509 6
3 -6 6 14602.8 1194.45 23
3 -6 6 13803.7 767.483 4
3 -6 7 16573 840.672 6
3 -6 7 16829.2 1373.69 34
3 -6 7 14523.3 1262.67 23
3 -6 7 15549.3 833.836 4
3 -6 8 11110 1102.53 34
3 -6 8 13231.3 1215.21 23
3 -6 8 13753.7 739.499 4
3 -6 9 21666.5 1034.8 6
3 -6 9 20124.2 1043.47 4
3 -6 10 365.215 141.132 6
3 -6 10 61.6401 241.69 23
3 -6 10 140.097 158.085 4
3 -6 11 719.091 169.417 33
3 -6 11 1049.29 175.514 6
3 -6 11 1308.71 223.619 4
3 -6 12 21.9584 121.003 33
3 -6 12 83.9309 106.272 6
3 -6 12 94.8938 140.846 4
3 -6 13 105.491 132.777 4
3 -6 13 280.035 98.2418 9
3 -6 14 111.37 122.25 11
3 -6 15 94.6264 101.798 11
3 -6 16 473.501 78.7508 11
-3 5 11 2426.19 402.833 13
-3 5 11 2373.12 312.449 18
-3 5 10 3268.83 427.034 12
-3 5 10 3706.19 380.382 18
-3 5 10 2999.86 464.668 13
-3 5 9 541.701 243.905 18
-3 5 9 397.839 352.739 13
-3 5 9 318.322 312.19 12
-3 5 9 590.827 154.336 17
-3 5 8 4975.66 609.077 13
-3 5 8 5172.6 394.183 17
-3 5 8 5305.17 631.678 12
-3 5 8 5561.66 497.003 18
-3 5 7 6624.14 702.163 12
-3 5 7 6365.85 1088.43 31
-3 5 7 7340.48 730.462 13
-3 5 7 7002.61 612.782 15
-3 5 7 7539.01 594.986 18
-3 5 7 6858.21 481.138 17
-3 5 6 30394.3 2496.07 31
-3 5 6 33966.5 1648.77 14
-3 5 6 34528.8 1800.95 15
-3 5 6 34713.6 1652.81 17
-3 5 6 36217 1771.38 18
-3 5 5 662.187 437.382 31
-3 5 5 140.83 148.16 14
-3 5 5 213.061 256.475 15
-3 5 5 497.511 221.973 18
-3 5 5 148.754 144.959 17
3 -5 -4 848.684 326.728 34
-3 5 4 892.448 431.874 31
-3 5 4 722.642 291.016 15
-3 5 4 863.84 193.851 14
-3 5 4 859.805 234.321 18
-3 5 4 934.094 193.671 17
3 -5 -3 643.858 315.657 34
-3 5 3 66.0605 302.85 31
-3 5 3 384.566 261.173 15
-3 5 3 540.622 154.35 14
-3 5 3 521.719 201.16 18
-3 5 2 577.552 354.631 31
-3 5 2 181.885 132.344 14
-3 5 2 144.525 165.631 18
-3 5 2 270.959 136.796 17
-3 5 1 3168.45 291.267 17
-3 5 1 2505.89 504.536 31
-3 5 1 3425.36 558.368 22
-3 5 0 32816.6 1997.33 22
-3 5 0 32289.3 1484.63 17
-3 5 -1 25895.3 1680.97 31
-3 5 -1 31187.2 1395.27 17
3 -5 1 28150.5 1309.32 6
-3 5 -2 177.001 121.978 17
3 -5 2 119.221 83.6318 6
-3 5 -2 -97.5673 299.477 22
3 -5 3 9417.41 769.395 23
3 -5 3 9924.7 541.06 6
-3 5 -3 11764.2 1034.92 22
-3 5 -3 10274.2 586.857 17
3 -5 4 87590.2 3771.25 6
3 -5 4 86686.1 4178.42 23
-3 5 -4 90758.3 4465.4 22
3 -5 5 309.076 108.219 6
3 -5 5 657.734 262.888 23
-3 5 -5 104.243 238.832 22
3 -5 6 19738.8 964.433 6
3 -5 6 20338.1 1411.88 23
3 -5 6 19177.3 965.46 4
3 -5 7 13812.9 1126.47 34
3 -5 7 11500.7 1059.24 23
3 -5 7 12711.1 691.228 4
3 -5 7 12478.4 710.916 37
3 -5 8 19101.4 1432.61 34
3 -5 8 22309.3 1046.67 6
3 -5 8 22513.2 1096.66 37
3 -5 8 20126.7 1532.76 23
3 -5 8 18947.8 1041.28 4
3 -5 9 2963.84 294.237 33
3 -5 9 3589.52 291.327 6
3 -5 9 2687.73 553.35 23
3 -5 9 3344.43 314.198 4
3 -5 9 2303.29 295.619 37
3 -5 10 227.965 147.033 33
3 -5 10 33.4111 117.835 6
3 -5 10 625.86 369.713 23
3 -5 10 192.964 122.505 9
3 -5 10 119.72 154.088 4
3 -5 10 143.136 153.905 37
3 -5 11 362.64 172.511 33
3 -5 11 442.978 185.341 37
3 -5 11 302.942 128.471 6
3 -5 11 64.6145 264.731 23
3 -5 11 363.251 126.604 5
3 -5 11 315.278 141.603 9
3 -5 11 256.99 166.558 4
3 -5 12 1076.49 210.494 33
3 -5 12 1014.26 164.587 6
3 -5 12 789.865 164.067 9
3 -5 12 944.021 206.824 4
3 -5 13 90.0525 145.783 33
3 -5 13 -22.5698 150.839 11
3 -5 13 85.0744 119.77 9
3 -5 14 1313.53 215.653 30
3 -5 14 1575.41 213.178 11
3 -5 14 1547.84 217.153 33
3 -5 14 1473.59 185.775 9
3 -5 15 1462.79 181.288 11
3 -5 16 95.2595 87.3338 11
-3 4 12 4566.87 559.541 13
-3 4 12 5739.75 497.163 18
-3 4 11 1026.19 380.851 13
-3 4 11 1643.35 369.145 12
-3 4 11 1839.65 323.238 18
-3 4 11 1208.78 330.422 30
-3 4 10 1747.12 329.604 15
-3 4 10 1519.5 374.02 30
-3 4 10 1698.91 438.842 12
-3 4 10 1683.08 333.623 18
-3 4 9 882.307 175.068 17
-3 4 9 801.105 320.957 30
-3 4 9 1114.91 423.531 12
-3 4 9 1390.8 317.645 18
-3 4 9 765.135 305.39 15
-3 4 8 21587.9 1390.8 30
-3 4 8 26124.3 1561.77 12
-3 4 8 24994.2 1222.48 17
-3 4 8 21262.1 2086.84 31
-3 4 8 27525.8 1410.67 18
-3 4 8 24483.1 1410.28 15
-3 4 7 10521.8 806.345 15
-3 4 7 11127.5 1375.68 31
-3 4 7 11862 666.833 17
-3 4 7 11531.5 791.345 18
-3 4 7 10562.9 816.231 30
-3 4 6 18480.6 1130.45 15
-3 4 6 18782.9 1142.59 30
-3 4 6 18203.8 964.063 14
-3 4 6 19648.9 1205.48 13
-3 4 6 17145.3 1667.13 31
-3 4 6 19493 1103.14 18
-3 4 6 19088.6 975.514 17
-3 4 5 349.849 138.797 14
-3 4 5 141.544 364.654 31
-3 4 5 477.483 262.126 15
-3 4 5 281.008 258.175 13
-3 4 5 329.668 181.867 20
-3 4 5 385.049 248.478 30
-3 4 5 209.252 205.152 18
-3 4 5 306.957 135.142 17
-3 4 4 1043.55 418.265 31
-3 4 4 888.525 172.236 14
-3 4 4 942.344 279.696 15
-3 4 4 739.332 264.415 30
-3 4 4 659.549 305.875 13
-3 4 4 934.282 205.9 20
-3 4 4 1089.7 240.605 18
-3 4 4 948.017 169.688 17
-3 4 3 -105.468 298.78 31
-3 4 3 87.2218 226.068 13
-3 4 3 230.614 116.825 14
-3 4 3 81.3041 163.044 18
-3 4 3 43.223 112.086 17
-3 4 2 5158.81 696.325 31
-3 4 2 5801.6 388.322 14
-3 4 1 14706.6 1115.96 31
-3 4 0 23592.4 1452.92 31
-3 4 0 25426.1 1577.95 22
-3 4 -1 41775.1 2204.68 31
3 -4 1 46758.8 2165.75 23
3 -4 2 64432.2 3078.43 23
-3 4 -2 66522.9 3336.71 22
3 -4 3 52442.4 2629.77 23
-3 4 -3 54162.6 2834.59 22
3 -4 4 33073.7 1843.44 23
3 -4 5 22047 1048.4 6
3 -4 5 23551.8 1439.11 23
3 -4 6 58830.6 2569.6 37
3 -4 6 56178 2987.44 23
3 -4 6 57182 2535.69 4
3 -4 7 63.6824 97.3539 6
3 -4 7 89.6355 242.629 23
3 -4 7 -12.2295 114.698 37
3 -4 7 150.626 121.002 4
3 -4 8 32315.5 2013.93 34
3 -4 8 37074 1756.14 37
3 -4 8 37086.1 1690.34 6
3 -4 8 34142.4 2193.6 23
3 -4 8 38827.9 1720.93 4
3 -4 9 7032.71 444.534 6
3 -4 9 6296.29 824.334 23
3 -4 9 8111.49 493.34 4
3 -4 9 5849.95 430.169 9
3 -4 9 7506.03 518.911 37
3 -4 10 1601.61 262.396 37
3 -4 10 1253.32 190.153 6
3 -4 10 728.08 355.387 23
3 -4 10 1381.46 193.835 5
3 -4 10 1311.35 204.231 9
3 -4 10 1422.87 230.444 4
3 -4 11 105.731 113.788 6
3 -4 11 -56.9347 111.532 5
3 -4 11 -95.4904 147.211 9
3 -4 11 -35.3776 167.165 37
3 -4 11 68.9955 158.042 4
3 -4 12 462.299 192.211 33
3 -4 12 346.368 122.02 6
3 -4 12 193.958 296.068 23
3 -4 12 299.728 173.269 11
3 -4 12 220.11 108.461 5
3 -4 12 323.31 163.629 9
3 -4 12 408.342 214.259 37
3 -4 13 7030.23 492.17 33
3 -4 13 6858.68 472.6 11
3 -4 13 5957.55 434.64 9
3 -4 14 207.517 165.78 33
3 -4 14 -90.8347 174.363 30
3 -4 14 223.546 157.121 11
3 -4 15 2826.93 273.671 33
3 -4 15 2582.56 284.968 30
3 -4 15 3464.32 271.387 11
3 -4 16 339.689 114.451 30
-3 3 13 9200.02 608.177 18
-3 3 12 5622.79 533.299 15
-3 3 12 5530.33 500.612 18
-3 3 11 16911.1 1080.81 15
-3 3 10 3613.7 551.754 13
-3 3 10 3054.36 464.392 15
-3 3 9 6624.75 624.451 15
-3 3 9 5712.64 532.896 29
-3 3 9 6583.29 663.738 13
-3 3 9 5548.65 395.361 17
-3 3 8 10104.3 742.915 15
-3 3 8 9163.05 663.458 29
-3 3 8 8123.79 737.509 13
-3 3 8 8058.81 518.396 17
-3 3 8 8921.74 678.132 18
-3 3 7 24348.8 1375.77 15
-3 3 7 25011.7 1992.49 31
-3 3 7 23335.4 1310.1 29
-3 3 7 25548.5 1431.67 13
-3 3 7 26639.5 1362.86 18
-3 3 7 23739.2 1181.79 17
-3 3 6 135.981 368.085 31
-3 3 6 285.309 264.429 15
-3 3 6 68.7886 199.096 29
-3 3 6 -99.7664 270.074 26
-3 3 6 69.9616 228.879 13
-3 3 6 114.032 108.94 14
-3 3 6 18.9298 191.111 18
-3 3 6 183.652 111.864 17
-3 3 5 30103.5 2042.06 31
-3 3 5 28950.9 1557.08 30
-3 3 5 29247.9 1488.34 29
-3 3 5 29668.4 1898.68 26
-3 3 5 32133.2 1588.27 15
-3 3 5 30626.8 1579.53 13
-3 3 5 29684.1 1406.39 17
-3 3 5 32312.6 1539.39 18
-3 3 5 29847.9 1408.79 14
-3 3 4 19277.2 1100.38 30
-3 3 4 20965.9 1433.34 26
-3 3 4 19039.4 1447.4 31
-3 3 3 90120 4526.6 31
-3 3 3 98028.6 4573.44 26
-3 3 2 14190.4 1045.05 31
-3 3 1 139267 6331.63 31
-3 3 1 146390 6496.71 26
-3 3 0 16644.9 1010.71 31
-3 3 0 17560.7 1181.58 26
-3 3 -1 262207 11252.2 31
-3 3 -1 279275 11609.4 26
-3 3 -2 3758.54 482.514 26
-3 3 -3 120155 5470.04 26
3 -3 4 25094.3 1467.05 23
3 -3 5 78088.8 3757.05 23
3 -3 6 559.033 293.393 23
3 -3 6 716.658 156.8 37
3 -3 7 32894.2 1514.51 6
3 -3 7 33421.3 1986.35 23
3 -3 7 34176.8 1538.87 4
3 -3 7 32791.7 1577.37 37
3 -3 8 12600 668.454 6
3 -3 8 13315.8 1106.52 23
3 -3 8 13254.5 702.772 4
3 -3 8 11557.8 669.599 9
3 -3 8 14143.2 758.705 37
3 -3 9 12227.3 670.5 32
3 -3 9 12362.4 753.219 37
3 -3 9 12265.7 662.187 6
3 -3 9 12404 661.511 5
3 -3 9 12847.6 709.138 4
3 -3 9 12422.6 686.63 9
3 -3 10 20746.6 1055.54 32
3 -3 10 21503.6 1048.33 6
3 -3 10 20082.1 1194.81 21
3 -3 10 19831.5 1591.05 23
3 -3 10 20991.3 1039.55 5
3 -3 10 21877.6 1101.25 4
3 -3 10 22135.2 1082.75 9
3 -3 10 22756.6 1177.15 37
3 -3 11 3836.62 296.463 6
3 -3 11 3128.51 623.303 23
3 -3 11 3488.68 289.62 5
3 -3 11 3933.83 359.157 11
3 -3 11 3080.59 395.658 21
3 -3 11 3634.96 333.473 9
3 -3 11 3861.37 401.349 37
3 -3 12 4741.69 339.631 6
3 -3 12 4355.28 731.663 23
3 -3 12 5811.32 431.848 11
3 -3 12 5482.36 413.364 9
3 -3 12 4872.89 339.019 5
3 -3 12 4752.17 451.59 37
3 -3 13 5446.69 456.072 33
3 -3 13 6478.3 450.179 11
3 -3 13 5283.29 422.542 9
3 -3 14 5480.43 435.73 33
3 -3 14 6043.96 420.859 11
3 -3 14 5162.85 472.106 30
3 -3 15 1815.02 233.405 33
3 -3 15 1417.44 257.814 30
3 -3 15 2149.24 229.036 11
3 -3 16 599.102 161.391 30
-3 2 14 8362.11 616.526 30
-3 2 14 6985.32 500.827 18
-3 2 13 7929.54 681.02 15
-3 2 13 7103.75 595.102 18
-3 2 12 4621.55 569.284 15
-3 2 12 5622.82 593.915 30
-3 2 12 4783.75 652.575 13
-3 2 12 4739.8 589.667 12
-3 2 12 5372.89 506.736 18
-3 2 11 2150.68 448.759 15
-3 2 11 3282.59 476.525 30
-3 2 11 2411.04 373.442 29
-3 2 11 2367.65 507.87 13
-3 2 11 2490.05 492.452 12
-3 2 11 3044.87 401.159 18
-3 2 10 2827.85 451.452 15
-3 2 10 3131.71 470.089 30
-3 2 10 2228.92 368.408 29
-3 2 10 2294.38 469.093 12
-3 2 10 3013.42 506.257 13
-3 2 10 3659.11 432.695 18
-3 2 9 795.249 332.163 15
-3 2 9 1106.57 367.066 13
-3 2 9 924.373 318.331 30
-3 2 9 747.839 267.843 29
-3 2 9 647.128 383.596 12
-3 2 9 636.316 249.376 18
-3 2 8 47680.5 2304.25 30
-3 2 8 48793.4 2231.41 29
-3 2 8 49603.7 2350.01 13
-3 2 8 43122 2082.56 28
-3 2 8 47334.8 2304.77 15
-3 2 8 45638 2369.36 12
-3 2 8 41041.7 2534.64 26
-3 2 8 49350.8 2265.71 18
-3 2 7 171.841 243.448 15
-3 2 7 128.052 239.241 30
-3 2 7 194.101 177.288 29
-3 2 7 70.2816 115.133 28
-3 2 7 88.8584 227.333 13
-3 2 7 220.984 239.321 26
-3 2 7 243.04 197.614 18
-3 2 6 102306 4637.32 15
-3 2 6 106598 5269.89 31
-3 2 6 101438 4639.7 30
-3 2 6 108123 4569.36 29
-3 2 6 104145 4482.22 28
-3 2 6 103872 4644.6 13
-3 2 6 108407 5019.81 26
-3 2 5 30101.8 1742.58 26
-3 2 5 26401.8 1808.1 31
3 -2 -5 26448.5 1415.23 1
-3 2 4 160965 7048.01 26
-3 2 4 157530 6885.46 25
-3 2 4 146960 7095.97 31
-3 2 3 14102.7 1068.25 31
-3 2 3 14794.3 1067.47 26
-3 2 3 16145.4 1007.92 25
-3 2 2 250409 10938.8 31
-3 2 2 255819 10897.9 25
-3 2 1 561.317 289.972 26
-3 2 1 568.82 253.059 25
-3 2 0 87590.7 4058.57 26
-3 2 -1 249.439 216.731 26
-3 2 -1 208.016 189.391 25
-3 2 -2 82647.6 3888.07 26
-3 2 -2 86708.7 3896.52 25
-3 2 -3 43866.2 2212.12 26
-3 2 -3 46000.8 2241.93 25
-3 2 -4 23494.5 1349.51 26
-3 2 -4 27208 1430.37 25
-3 2 -5 27234.8 1504.49 25
3 -2 6 83508.4 4053.91 23
3 -2 6 86575.2 3664.52 37
3 -2 6 79923.7 3805.51 1
3 -2 7 17276.3 855.568 6
3 -2 7 16558.9 1003.1 1
3 -2 7 18206.5 884.305 4
3 -2 7 17310.4 870.161 9
3 -2 7 19288.5 947.134 37
3 -2 8 63058.1 2639.04 6
3 -2 8 68347 3276.38 23
3 -2 8 65683.7 2642.76 5
3 -2 8 64945.2 2672.09 9
3 -2 8 69546.1 2761.79 37
3 -2 9 4342.38 325.845 32
3 -2 9 3678.88 282.063 6
3 -2 9 3393.16 589.032 23
3 -2 9 3512.54 316.07 11
3 -2 9 3848.65 297.458 5
3 -2 9 3374.43 314.146 9
3 -2 10 9711.2 545.761 6
3 -2 10 6579.97 902.156 23
3 -2 10 9509.89 573.231 32
3 -2 10 9763.03 551.385 5
3 -2 10 10862.3 609.382 11
3 -2 10 7645.69 701.886 21
3 -2 10 9981.06 602.789 9
3 -2 11 64.7103 98.9427 6
3 -2 11 -60.4284 247.302 23
3 -2 11 131.597 167.463 11
3 -2 11 -24.4306 244.905 21
3 -2 11 164.221 171.117 9
3 -2 11 94.3875 187.931 37
3 -2 11 94.1868 145.903 32
3 -2 12 2045.88 234.119 3
3 -2 12 1891.21 248.186 32
3 -2 12 1702.88 466.44 23
3 -2 12 2276.13 291.66 11
3 -2 12 1553.23 338.276 21
3 -2 12 1443.65 283.739 37
3 -2 13 3419.43 316.642 32
3 -2 13 3595.6 431.82 30
3 -2 13 4103.79 355.575 11
3 -2 13 3286.5 407.699 21
3 -2 13 3433.97 378.869 37
3 -2 14 162.876 211.741 30
3 -2 15 138.188 134.231 33
3 -2 15 199.601 192.875 30
3 -2 16 211.612 139.436 30
-3 1 15 -16.2156 200.903 30
-3 1 14 15193.4 783.172 15
-3 1 14 1410.52 363.698 30
-3 1 13 3578.28 510.56 15
-3 1 13 2493.29 433.788 30
-3 1 13 2257.93 382.488 29
-3 1 13 2619.93 351.329 18
-3 1 12 1639.75 417.61 15
-3 1 12 1602.34 401.798 30
-3 1 12 1667.99 334.262 29
-3 1 12 1184.36 428.866 13
-3 1 12 2001.81 406.769 12
-3 1 12 1991.97 336.726 18
-3 1 11 3710.47 553.723 15
-3 1 11 4978.44 568.816 30
-3 1 11 4590.78 474.13 29
-3 1 11 4458.93 573.807 12
-3 1 11 4301.55 458.391 18
-3 1 11 4518.75 437.231 8
-3 1 11 4358.5 607.812 13
-3 1 10 151.401 128.129 28
-3 1 10 184.027 194.689 8
-3 1 10 156.349 288.932 15
-3 1 10 280.964 264.948 30
-3 1 10 140.523 214.966 29
-3 1 10 173.307 341.351 13
-3 1 10 -30.6736 318.109 12
-3 1 10 393.794 153.338 10
-3 1 10 581.949 234.417 18
-3 1 9 40126.5 1983.88 30
-3 1 9 39974 2026.7 13
-3 1 9 37257.7 1773.31 28
-3 1 9 38299.8 1894.71 29
-3 1 9 36865.2 2023.5 12
-3 1 9 37852.9 1808.6 10
-3 1 9 42346.5 1939.63 18
-3 1 9 38383.5 1883.3 8
-3 1 8 296.855 234.046 30
-3 1 8 318.131 198.456 29
-3 1 8 504.85 151.512 28
-3 1 8 316.666 262.167 13
-3 1 8 368.257 246.855 26
-3 1 8 204.263 258.077 12
-3 1 8 330.503 147.411 10
-3 1 8 306.585 198.053 18
-3 1 8 235.268 173.619 8
-3 1 7 48226.1 2454.47 30
-3 1 7 53419.3 2405.65 29
-3 1 7 53138.3 2329.31 28
-3 1 7 51061.7 2485.36 13
-3 1 7 53025.7 2791.77 26
-3 1 7 54794.9 2447.96 18
3 -1 -6 65384.3 2974.75 1
-3 1 6 67800.6 3290.02 26
-3 1 6 63089.3 3051.47 25
-3 1 5 56095.9 2795.29 26
-3 1 5 53078.8 2610.26 25
3 -1 -5 54766.3 2538.87 1
-3 1 4 7757.66 675.771 26
-3 1 4 6287.54 544.93 25
3 -1 -4 6322.4 497.295 1
3 -1 -3 13426.5 812.795 1
3 -1 -2 2594.29 297.467 1
3 -1 -1 37903.6 1850.66 1
3 -1 0 13213.8 804.614 1
-3 1 -1 165903 7238.14 26
3 -1 2 21941.9 1211.71 1
-3 1 -2 23022.9 1256.32 26
-3 1 -3 104210 4636.11 26
3 -1 3 104487 4628.95 1
-3 1 -4 3001.47 325.479 26
-3 1 -4 3350.15 380.086 25
3 -1 4 2910.54 330.873 1
-3 1 -5 69760.8 3112.4 25
3 -1 5 63861.9 3050.4 1
3 -1 6 12868.9 829.609 1
-3 1 -6 13658.9 878.539 25
3 -1 6 15285.4 774.285 37
3 -1 7 7245.57 423.999 6
3 -1 7 7853.35 506.429 37
3 -1 7 7591.36 760.463 23
3 -1 7 7744.49 448.693 11
3 -1 7 7139.3 429.462 5
3 -1 7 7378.73 453.766 9
3 -1 8 20821.9 1009.38 32
3 -1 8 20396.2 988.83 6
3 -1 8 21115 1462.6 23
3 -1 8 20819.6 1091.51 37
3 -1 8 20739.8 1014.92 11
3 -1 8 19566.9 989.206 5
3 -1 8 21514.4 1034.22 9
3 -1 9 4947.69 344.107 6
3 -1 9 5653.24 389.926 32
3 -1 9 4892.33 695.382 23
3 -1 9 5061 358.527 5
3 -1 9 5198.11 391.042 11
3 -1 9 4691.93 547.578 21
3 -1 9 5592.03 404.287 9
3 -1 9 5680.6 460.244 37
3 -1 10 143.275 147.294 32
3 -1 10 118.49 144.153 3
3 -1 10 91.2378 94.6416 6
3 -1 10 332.834 270.206 23
3 -1 10 -25.0392 158.637 11
3 -1 10 -27.7894 272.707 21
3 -1 10 36.292 168.822 37
3 -1 11 670.61 199.565 32
3 -1 11 1374.41 224.572 3
3 -1 11 962.743 375.244 23
3 -1 11 1385.09 236.594 11
3 -1 11 1118.8 344.163 21
3 -1 11 1188.55 263.529 37
3 -1 12 390.511 173.908 32
3 -1 12 497.357 193.315 11
3 -1 12 483.972 292.279 21
3 -1 12 391.678 202.511 37
3 -1 13 187.125 149.527 32
3 -1 13 105.963 178.931 33
3 -1 13 155.267 241.655 21
3 -1 14 1355.77 196.558 32
3 -1 14 1882.14 301.551 30
3 -1 14 1569.16 236.546 33
3 -1 15 561.433 139.29 33
3 -1 15 422.435 196.555 30
3 -1 16 96.3566 119.296 30
-3 0 15 1199.67 266.426 30
-3 0 14 1236.83 319.35 30
-3 0 14 1056.44 294.673 29
-3 0 13 4722.47 498.303 29
-3 0 13 4605.96 440.375 18
-3 0 12 2622.77 431.237 30
-3 0 12 2680.74 396.861 29
-3 0 12 2186.09 304.832 10
-3 0 12 2374.85 325.975 18
-3 0 12 2655.11 372.661 8
-3 0 11 2881.62 433.637 30
-3 0 11 2930.83 385.742 29
-3 0 11 3607.97 539.188 13
-3 0 11 2837.99 280.136 28
-3 0 11 2943.1 457.7 12
-3 0 11 2806.91 331.299 10
-3 0 11 2334.21 241.948 9
-3 0 11 3081.6 364.694 18
-3 0 11 2449.2 368.235 8
-3 0 10 422.486 293.628 15
-3 0 10 116.496 256.778 30
-3 0 10 82.2822 307.421 13
-3 0 10 193.905 143.97 28
-3 0 10 -325.125 301.991 12
-3 0 10 281.687 181.604 10
-3 0 10 178.733 192.434 18
-3 0 10 41.4029 198.746 8
-3 0 9 12514.6 839.657 15
-3 0 9 11022.9 772.499 8
-3 0 9 12103.5 820.462 30
-3 0 9 11062.4 981.619 26
-3 0 9 12106.5 851.441 12
-3 0 9 12802.8 870.504 13
-3 0 9 12920 751.523 10
-3 0 9 12503.9 762.703 18
-3 0 8 39.8673 227.118 15
-3 0 8 -114.663 206.942 30
-3 0 8 23.8544 144.429 27
-3 0 8 63.2481 217.151 13
-3 0 8 192.796 203.743 26
-3 0 8 -21.8439 204.852 12
-3 0 8 464.085 173.408 18
-3 0 7 49649 2259.48 27
-3 0 7 52478.1 2446.57 25
-3 0 7 50342.1 2375.07 15
3 0 -6 19653.3 1097.66 1
3 0 -5 15988 935.414 1
3 0 -4 5995.51 486.124 1
-3 0 4 6426.52 566.241 24
3 0 -3 808.452 200.751 1
-3 0 2 2143.55 331.043 24
3 0 -2 2384.34 303.157 1
-3 0 1 4045.25 415.374 24
3 0 -1 4026.15 382.74 1
-3 0 0 10794.4 722.164 24
-3 0 -1 36099.5 1785.63 24
3 0 1 35624 1775.98 1
3 0 2 78368.7 3601.66 1
-3 0 -2 81029.6 3593.33 24
3 0 3 83702.5 3777.46 1
-3 0 -4 161.798 126.895 26
3 0 4 383.372 163.596 1
3 0 5 116807 5152.17 1
3 0 6 895.922 146.742 11
3 0 6 783.601 133.794 5
3 0 6 942.653 179.38 37
3 0 6 710.33 181.999 1
3 0 7 16396.8 836.624 37
3 0 7 14436.5 736.782 6
3 0 7 15455.6 1158.84 23
3 0 7 13637.3 735.366 5
3 0 7 14860.5 759.417 11
3 0 8 1797.26 231.138 3
3 0 8 1465.93 176.743 6
3 0 8 1753.41 413.463 23
3 0 8 1713.78 222.244 11
3 0 8 1680.87 248.696 37
3 0 9 12171.4 693.881 6
3 0 9 12190.9 1125.9 23
3 0 9 14290.7 758.332 11
3 0 9 12132.1 939.712 21
3 0 9 13876.7 818.625 37
3 0 10 1039.23 229.182 3
3 0 10 565.993 182.007 32
3 0 10 661.041 206.421 37
3 0 10 357.826 264.735 23
3 0 10 1007.65 371.59 21
3 0 11 691.239 188.543 32
3 0 11 996.977 233.759 37
3 0 11 887.648 205.809 3
3 0 11 1033.89 367.096 21
3 0 12 2220.16 405.711 21
3 0 12 1059.98 219.539 32
3 0 12 1455 322.168 30
3 0 12 1759.59 251.092 37
3 0 13 -12.785 146.475 33
3 0 13 110.528 214.352 30
3 0 13 160.306 145.093 32
3 0 13 200.054 254.607 21
3 0 14 4681.7 336.338 32
3 0 14 5222.47 430.295 30
3 0 15 287.509 152.93 30
-3 -1 16 765.821 206.714 29
-3 -1 15 442.566 225.459 29
-3 -1 15 297.455 189.797 30
-3 -1 14 3957.2 460.133 30
-3 -1 14 3779.81 458.667 29
-3 -1 13 1517.04 324.609 30
-3 -1 13 1684.15 328.451 29
-3 -1 13 1292.98 276.019 10
-3 -1 13 1111.87 189.489 9
-3 -1 12 7518.97 720.22 15
-3 -1 12 6477.45 616.707 30
-3 -1 12 6600.46 486.617 28
-3 -1 12 7211.01 580.305 10
-3 -1 12 7099.08 625.927 8
-3 -1 11 19464.9 1203.81 15
-3 -1 11 17785.8 1112.15 30
-3 -1 11 19125.3 1048.62 27
-3 -1 11 18065.4 1130.18 12
-3 -1 11 19837.5 1093.32 10
-3 -1 11 20220.1 1150.27 8
-3 -1 10 24680.6 1401.38 15
-3 -1 10 23281.5 1319.97 30
-3 -1 10 24011.6 1250.4 27
-3 -1 10 22585.4 1340.06 12
-3 -1 10 25660.2 1317.47 10
-3 -1 10 24103.2 1237.2 18
-3 -1 10 27010.7 1377.05 8
-3 -1 9 14309.5 909.082 15
-3 -1 9 13241.1 859.936 30
-3 -1 9 15081.1 964.697 13
-3 -1 9 14743.7 797.338 27
-3 -1 9 13374 882.911 12
-3 -1 9 13446.9 867.746 8
-3 -1 8 6314.58 537.637 15
-3 -1 8 6362.76 506.47 30
-3 -1 8 6226.09 559.854 13
-3 -1 8 5970.48 431.324 27
-3 -1 7 24454.7 1236.37 27
3 1 -7 27308.5 1439.13 1
-3 -1 6 77270.4 3597.95 24
3 1 -6 72835.4 3447.3 1
-3 -1 5 21293.1 1287.7 24
3 1 -5 21099.8 1205.97 1
3 1 -4 31547.1 1646.37 1
3 1 -3 335.154 194.08 1
-3 -1 3 587.69 247.787 24
3 1 -2 107578 4837.09 1
-3 -1 2 109195 4885.24 24
3 1 -1 13257 856.266 1
-3 -1 1 13671.3 880.159 24
-3 -1 0 186400 8068.01 24
3 1 1 10502.7 742.571 1
-3 -1 -1 11468 749.897 24
-3 -1 -2 251551 10697.3 24
3 1 2 249628 10737.1 1
-3 -1 -3 23361.6 1272.37 24
3 1 3 25200.9 1347.75 1
3 1 4 101839 4589.25 1
3 1 5 5381.1 595.827 31
3 1 5 6772.74 553.271 1
3 1 6 16629.3 795.404 3
3 1 6 15005.4 803.615 37
3 1 7 1166.45 333.508 23
3 1 7 1291.2 221.677 3
3 1 7 1025.52 201.501 37
3 1 8 10624.4 1037.52 23
3 1 8 12540.2 955.339 21
3 1 8 12831.7 778.44 37
3 1 9 17514.6 1016.28 37
3 1 9 17562.1 1215.82 21
3 1 10 14579.9 869.637 30
3 1 10 12818.3 767.179 37
3 1 10 15796.9 786.947 3
3 1 11 8394.45 532.647 32
3 1 11 7014.23 589.108 30
3 1 12 4434.68 349.927 32
3 1 12 3512.41 393.251 30
3 1 12 3257.82 311.657 19
3 1 13 752.012 172.827 32
3 1 13 991.603 226.565 30
3 1 14 9135.92 422.658 32
3 1 14 4685.84 424.804 18
-3 -2 17 420.178 128.216 29
-3 -2 16 1491.18 243.946 29
-3 -2 15 1856.64 304.134 29
-3 -2 14 7838.64 568.519 29
-3 -2 14 6829.96 528.771 10
-3 -2 13 9777.94 739.796 10
-3 -2 13 9579.65 779.47 8
-3 -2 12 15800.1 1036.61 15
-3 -2 12 13789.5 872.093 27
-3 -2 12 15674.8 940.557 10
-3 -2 12 15158.7 969.316 8
-3 -2 11 6288.22 633.298 15
-3 -2 11 6187.98 504.861 27
3 2 -11 4803.32 669.497 16
-3 -2 10 5932.74 589.292 15
-3 -2 10 6287.81 483.736 27
-3 -2 9 8554.06 690.138 15
-3 -2 9 8497.7 568.996 27
-3 -2 9 9162.27 863.838 24
-3 -2 9 9484.16 664.133 8
-3 -2 8 8830.08 546.655 27
-3 -2 8 8933.66 820.973 24
-3 -2 8 8468.92 654.234 15
-3 -2 7 59545.7 2782.2 27
3 2 -7 66515.6 3101.16 1
-3 -2 6 28521.3 1669.23 24
3 2 -6 27740.6 1572.26 1
-3 -2 5 175064 7650.11 24
3 2 -5 168727 7535.46 1
3 2 -4 3691.82 425.179 1
3 2 -3 82969.9 3864.78 1
3 2 -2 55362.6 2715.66 1
-3 -2 1 102221 4748.49 35
3 2 0 29776.6 1650.94 1
3 2 1 51277.7 2553.11 1
3 2 2 1175.32 278.247 1
-3 -2 -3 99333 4591.4 24
3 2 3 105092 4687.83 1
3 2 4 13938.7 722.984 3
3 2 4 9889.91 837.491 1
3 2 5 17393.1 863.635 37
3 2 5 16336.4 1078.24 1
3 2 6 3195.19 504.04 23
3 2 6 4127.14 496.833 21
3 2 6 4073.83 342.171 37
3 2 7 21690.1 1294.76 21
3 2 7 24536.6 1130.5 3
3 2 8 3168.6 368.596 30
3 2 8 3292.84 492.403 21
3 2 8 4143.28 382.227 3
3 2 9 62838.6 2951.47 30
3 2 9 67125.5 3148.58 21
3 2 10 2259.23 430.583 21
3 2 10 2184.9 312.124 30
3 2 10 2329.56 313.439 20
3 2 10 2218.83 288.515 19
3 2 11 1554.49 235.431 32
3 2 11 1324.94 358.783 21
3 2 11 1382.81 230.111 19
3 2 12 367.289 159.231 32
3 2 12 360.879 140.475 19
3 2 13 1256.49 169.525 32
3 2 13 622.679 193.294 18
-3 -3 17 580.487 133.166 29
-3 -3 16 59.3536 161.128 29
-3 -3 15 2236.97 307.041 29
-3 -3 15 2453.07 300.044 10
-3 -3 14 638.132 222.878 10
-3 -3 13 614.124 235.737 27
-3 -3 13 561.056 274.453 8
-3 -3 12 3297.61 378.429 27
3 3 -12 2498.79 494.328 16
3 3 -11 2654.49 528.829 16
-3 -3 11 3120.3 366.395 27
-3 -3 11 2923.13 401.478 8
-3 -3 10 25296.4 1384.08 8
-3 -3 10 26562.4 1426.9 15
-3 -3 10 25671.6 1299 27
-3 -3 10 22818.6 1629.07 24
-3 -3 9 3750.86 463.132 15
-3 -3 9 4486.12 442.789 8
-3 -3 9 4016.65 369.757 27
-3 -3 9 3737.24 577.356 24
-3 -3 8 14763.7 950.556 15
3 3 -8 16212.2 1174.63 1
-3 -3 8 17031 881.091 27
-3 -3 8 18663 1313.95 24
-3 -3 8 16058.5 803.607 36
-3 -3 7 30216.3 1455.16 27
3 3 -7 32813.4 1830.5 1
-3 -3 7 33472 1934.79 24
3 3 -7 30247.4 1406.48 2
-3 -3 7 30785.3 1411.45 36
-3 -3 6 38425.2 1765.82 36
3 3 -6 39403 2169.84 1
3 3 -6 40153 1764.37 2
3 3 -5 62514.9 2980.53 1
-3 -3 5 65572.5 3081.19 35
-3 -3 5 55776.3 2534.85 36
3 3 -4 4871 553.061 1
-3 -3 4 4279.45 584.356 35
3 3 -3 3225.09 447.718 1
-3 -3 2 431.33 282.997 35
3 3 -2 839.029 275.943 1
-3 -3 1 39.676 229.615 35
-3 -3 0 32581.2 1994.91 35
3 3 0 35472.3 1945.18 1
-3 -3 -1 42534.8 2286.18 35
3 3 1 41550.2 2173.43 1
-3 -3 -1 37665.2 1752.63 36
3 3 2 21803 1383.66 1
3 3 2 20928.8 1015.39 2
-3 -3 -2 19855.5 1020.17 36
3 3 2 23868.9 1080.8 3
-3 -3 -3 6076.25 401.095 36
3 3 3 7294.42 707.33 1
3 3 3 6263.44 393.921 2
3 3 3 7227.5 467.003 3
3 3 4 65356.3 3061.02 21
3 3 5 187.156 285.762 31
3 3 5 474.579 270.679 21
3 3 6 14512.7 973.69 21
3 3 7 -26.3489 256.671 21
3 3 8 524.439 305.844 21
3 3 9 2986.97 448.744 21
3 3 9 2645.3 348.665 20
3 3 9 2585.59 315.902 19
3 3 10 9023.07 592.082 20
3 3 10 8954.95 569.451 19
3 3 11 69.4149 139.676 32
3 3 11 159.585 128.082 19
3 3 12 860.968 156.616 32
3 3 12 456.838 174.534 18
-3 -4 16 323.445 147.813 29
-3 -4 15 160.995 119.881 9
-3 -4 14 41.3323 186.317 27
-3 -4 14 143.896 179.218 10
-3 -4 13 589.357 220.898 27
-3 -4 13 609.574 251.338 10
-3 -4 13 902.935 266.889 8
-3 -4 12 4036.74 404.465 27
-3 -4 12 3871.18 419.098 10
-3 -4 12 3613 429.148 8
3 4 -11 1847.82 456.41 16
-3 -4 11 1796.61 298.855 27
-3 -4 11 2525.48 370.334 8
-3 -4 10 7733.03 560.95 27
-3 -4 10 6603.08 815.132 24
-3 -4 10 8153.16 627.061 8
3 4 -10 8146.21 915.151 16
-3 -4 9 1246.67 177.341 7
-3 -4 9 1568.96 258.784 27
-3 -4 9 1119.67 266.121 8
-3 -4 9 1015.23 392.15 24
-3 -4 9 1278.17 180.049 36
-3 -4 8 18965.3 934.721 36
-3 -4 8 17510.2 976.704 27
-3 -4 8 19966.2 1458.69 24
3 4 -8 19054.8 921.225 2
-3 -4 8 18313.1 931.675 7
-3 -4 8 18421.9 1055.98 8
3 4 -7 7260.96 437.388 2
-3 -4 7 6629.49 442.501 36
-3 -4 7 6716.71 439.72 7
-3 -4 6 3796.92 600.787 35
-3 -4 6 4098.64 318.9 7
3 4 -6 3128.7 539.057 1
3 4 -6 3768.17 303.433 2
3 4 -5 14068.3 1107.41 1
3 4 -5 12770.4 696.047 2
-3 -4 5 13958.3 1163.08 35
-3 -4 4 49.307 279.355 35
3 4 -4 116.242 110.988 2
3 4 -4 -43.6337 212.544 1
3 4 -3 2081.2 437.376 1
3 4 -3 2126.95 227.79 2
-3 -4 2 1203.83 396.175 35
-3 -4 1 1428.83 454.062 35
3 4 -1 1243.92 181.271 2
3 4 -1 1182.72 354.753 1
-3 -4 0 417.066 337.514 35
3 4 0 252.673 125.775 2
3 4 0 352.607 303.821 1
-3 -4 -1 10720 1030.9 35
3 4 1 8974.35 897.33 1
3 4 1 9621.85 554.01 2
3 4 2 15252.6 798.158 2
-3 -4 -2 15921.6 829.415 36
-3 -4 -3 12524.3 681.438 36
3 4 3 12014.7 651.176 2
3 4 4 16588.2 1002.54 21
3 4 5 3304.11 706.882 31
3 4 5 5151.67 503.191 21
3 4 6 15190.2 977.909 21
3 4 6 16084.2 892.57 19
3 4 7 270.47 253.247 21
3 4 7 566.798 215.849 19
3 4 8 -69.447 195.649 20
3 4 8 110.636 176.71 19
3 4 9 188.219 183.576 20
3 4 10 1199.54 189.56 32
3 4 10 1108.36 195.255 20
3 4 10 1308.44 189.143 19
3 4 11 87.2273 108.099 32
3 4 11 -12.5012 96.5553 19
3 4 11 -41.034 110.96 18
-3 -5 16 303.692 115.439 29
-3 -5 15 196.267 140.431 10
-3 -5 14 713.295 191.386 27
-3 -5 14 652.262 192.087 10
-3 -5 13 1679.06 266.388 27
-3 -5 13 1931.49 287.746 10
-3 -5 12 5154.91 434.154 27
-3 -5 12 5188.1 462.214 10
-3 -5 12 5441.95 470.662 8
-3 -5 11 4332.71 394.271 27
-3 -5 11 3628.08 406.138 10
-3 -5 11 3594.49 404.229 8
-3 -5 10 6583.7 490.297 27
-3 -5 10 6117.88 782.508 24
-3 -5 10 6587.16 527.921 8
3 5 -10 5192.21 756.757 16
3 5 -9 514.141 150.111 2
3 5 -9 680.432 315.341 16
-3 -5 9 716.622 167.937 7
-3 -5 9 512.476 210.035 27
-3 -5 9 1043.82 379.382 24
-3 -5 9 844.905 167.524 36
-3 -5 9 535.439 227.233 8
-3 -5 8 37818.4 1964.95 8
-3 -5 8 42763.9 1937.04 27
3 5 -8 42346.8 1880.25 2
-3 -5 8 41104.2 1890.79 36
-3 -5 8 41048.9 1896 7
-3 -5 7 1511.63 221.93 7
3 5 -7 691.789 336.703 16
3 5 -7 1420.7 202.399 2
-3 -5 7 1068.83 234.258 8
-3 -5 7 1312.1 444.977 35
-3 -5 7 1230.84 205.487 36
-3 -5 6 14869.7 808.01 7
3 5 -6 15296.5 799.523 2
-3 -5 6 13079.3 1267.33 35
-3 -5 5 4732.05 741.962 35
3 5 -5 5389.98 384.475 2
3 5 -4 90.9878 127.514 2
3 5 -3 56.9697 131.225 2
-3 -5 3 181.748 311.963 35
3 5 -2 9618.09 858.076 16
-3 -5 2 10899.4 1121.24 35
3 5 -1 34573 1616.42 2
-3 -5 1 33642 2278.09 35
-3 -5 0 823.933 425.193 35
3 5 0 1071.18 187.868 2
3 5 0 798.99 167.868 19
-3 -5 -1 62025.9 3378.15 35
3 5 1 60990.3 2566.5 2
3 5 1 52020.9 2553.49 19
-3 -5 -1 59067.2 2601.44 36
3 5 2 6816.8 435.253 2
3 5 2 6750.05 471.013 19
-3 -5 -2 6579.34 465.432 36
3 5 3 25244.1 1200.39 2
3 5 3 26210.9 1279.3 19
-3 -5 -3 24632 1227.96 36
3 5 4 6963.15 1062.02 31
3 5 4 10497 630.596 19
3 5 5 4085.51 426.664 20
3 5 5 4136.97 378.49 19
3 5 6 6293.39 512 20
3 5 6 6186.73 461.232 19
3 5 7 3635.61 351.205 20
3 5 7 3406.88 303.447 19
3 5 8 1033.46 188.065 19
3 5 8 419.673 144.581 18
3 5 9 3527.3 292.571 20
3 5 9 4033.35 286.14 19
3 5 10 1709.69 148.863 32
3 5 10 1283.96 139.137 20
-3 -6 15 1420.05 146.031 9
-3 -6 14 592.99 157.084 27
-3 -6 14 711.903 155.681 10
-3 -6 13 6148.99 420.003 27
-3 -6 13 6027.94 427.054 10
-3 -6 12 -70.644 152.36 27
-3 -6 12 55.291 156.619 10
-3 -6 11 12081.9 679.493 27
-3 -6 11 10724.5 694.746 10
-3 -6 10 777.311 158.07 7
-3 -6 10 986.366 209.323 27
-3 -6 10 1003.08 210.824 8
3 6 -10 661.954 136.305 2
-3 -6 9 8486.24 507.914 36
-3 -6 9 7812.81 536.581 27
3 6 -9 8421.44 495.147 2
-3 -6 9 8266.02 512.746 7
3 6 -8 1539.14 215.096 2
-3 -6 8 1644.06 224.197 7
-3 -6 8 1702.17 250.6 27
-3 -6 8 1927.24 243.577 36
3 6 -8 1481.72 415.803 16
-3 -6 7 4856.21 740.955 35
3 6 -7 4464.22 352.331 2
-3 -6 7 4992.22 387.51 36
-3 -6 7 4384.54 364.195 7
3 6 -7 3541.84 616.788 16
-3 -6 6 758.714 399.248 35
-3 -6 6 1291.17 225.127 7
3 6 -6 1675.73 226.245 2
3 6 -6 1276.5 376.102 16
-3 -6 5 24203.7 1231.06 7
3 6 -5 25651.4 1221.39 2
3 6 -5 23822.5 1669.44 16
-3 -6 5 20455 1765.99 35
3 6 -4 54146.1 2389.1 2
3 6 -4 47975.2 2805.09 16
-3 -6 3 1624.2 510.044 35
3 6 -2 20317 1036.35 2
-3 -6 2 19510.3 1671.97 35
-3 -6 1 24496.2 1973.77 35
3 6 -1 27887.6 1332.61 2
3 6 0 5025.4 367.161 2
-3 -6 0 5302.11 408.322 36
3 6 1 13566.4 711.976 2
3 6 1 12406.1 766.547 20
3 6 1 12097 698.637 19
-3 -6 -1 13824.4 751.13 36
3 6 2 25929.2 1217.42 2
3 6 2 24498.2 1309.12 20
3 6 2 25099 1245.04 19
-3 -6 -2 26692.9 1254.85 36
3 6 3 79.1699 182.318 20
3 6 3 23.3541 140.682 19
3 6 4 6536.17 495.601 20
3 6 4 6646.96 448.052 19
3 6 5 82.0891 175.569 20
3 6 5 10.513 131.437 19
3 6 6 12608.4 721.385 20
3 6 6 13637.8 697.249 19
3 6 7 696.924 163.451 20
3 6 7 834.336 149.395 19
3 6 8 10102.9 517.25 20
-3 -7 13 17.9465 90.8057 27
-3 -7 13 92.8928 83.1241 10
-3 -7 12 1402.66 176.337 27
-3 -7 12 1526.03 177.38 10
-3 -7 11 542.809 147.254 27
-3 -7 11 656.88 149.473 10
3 7 -10 1310.36 155.613 2
-3 -7 10 1316.62 194.357 27
-3 -7 10 1232.02 193.543 10
-3 -7 9 4267.6 341.756 27
-3 -7 9 4075.61 355.993 10
-3 -7 9 4893.53 343.275 7
3 7 -8 10127.5 571.119 2
-3 -7 8 9937.03 574.331 36
-3 -7 8 9716.52 573.345 7
3 7 -7 1861.1 228.38 2
-3 -7 7 1700.8 231.546 36
-3 -7 7 2099.15 246.164 7
-3 -7 6 7314.65 491.045 7
3 7 -6 7727.26 484.294 2
-3 -7 6 6973.23 485.962 36
-3 -7 5 2666.25 285.607 7
3 7 -5 2326.06 260.518 2
-3 -7 4 10030.9 624.388 7
3 7 -4 10815.7 618.691 2
-3 -7 4 9938.23 628.329 36
-3 -7 3 4118.06 362.16 36
-3 -7 2 556.593 184.411 36
3 7 -2 541.45 162.594 2
-3 -7 1 1321.07 218.031 36
3 7 -1 1352.29 203.721 2
3 7 0 173.931 121.163 2
-3 -7 0 310.793 153.197 36
3 7 1 8239.04 531.049 20
-3 -7 -1 10208.8 546.998 36
3 7 2 20.6444 122.546 20
3 7 3 14273.3 745.588 20
3 7 4 274.9 125.763 20
3 7 5 7155.5 402.57 20
3 8 -10 138.844 67.9504 2
3 8 -9 2609.72 208.614 2
-3 -8 8 167.492 104.219 7
3 8 -8 87.5362 99.8676 2
-3 -8 8 98.7597 103.859 36
-3 -8 7 973.642 160.887 7
3 8 -7 690.568 149.514 2
-3 -8 7 743.339 151.164 36
-3 -8 6 1386.74 193.395 36
3 8 -6 1059.05 174.265 2
-3 -8 6 1429.7 186.349 7
-3 -8 5 104.939 122.005 7
3 8 -5 143.499 123.66 2
-3 -8 4 117.377 129.226 7
-3 -8 4 37.3469 131.47 36
3 8 -3 833.402 160.383 2
-3 -8 3 1342.91 191.496 36
3 8 -2 798.407 146.797 2
-3 -8 2 976.35 166.179 36
-3 -8 1 660.814 149.305 7
3 8 -1 486.955 119.986 2
-3 -8 1 625.584 142.217 36
-3 -8 0 156.943 118.046 7
-3 -8 0 130.931 93.7131 36
-3 -8 -1 -7.1402 94.679 7
-3 -8 -2 6233.4 353 7
3 9 -7 3398.11 208.494 2
-3 -9 7 3385.61 205.227 7
-3 -9 7 3148.77 205.508 36
-3 -9 6 622.973 94.854 7
3 9 -6 633.01 99.3839 2
-3 -9 5 235.613 82.8883 7
3 9 -5 434.738 89.409 2
-3 -9 5 318.175 86.4946 36
3 9 -4 83.1922 74.0257 2
-3 -9 4 162.821 78.3169 36
-3 -9 3 51.5567 65.6228 36
-3 -9 2 440.912 77.7328 7
-4 10 -2 523.981 161.929 13
-4 10 -3 -117.862 144.95 13
-4 10 -4 11.2416 154.295 13
-4 10 -5 485.958 176.234 13
-4 10 -6 851.412 188.825 13
-4 9 3 750.781 193.301 13
-4 9 2 3254.99 349.178 13
-4 9 1 278.705 212.462 13
-4 9 0 611.686 152.73 14
-4 9 0 530.218 254.889 13
-4 9 -1 8336.18 511.13 14
-4 9 -1 8573.64 642.7 13
-4 9 -2 127.869 127.859 14
-4 9 -3 2604.33 243.141 14
4 -9 3 1997.55 165.858 6
-4 9 -4 9.91162 111.096 14
4 -9 4 68.2195 74.7405 6
-4 9 -5 5012.13 339.31 14
4 -9 5 4812.33 303.484 6
4 -9 6 2922.1 220.989 6
4 -9 7 5820.35 344.418 6
4 -9 8 352.086 101.519 6
4 -9 9 772.363 115.35 6
4 -9 10 409.837 87.3836 6
-4 8 6 1513.89 241.88 13
-4 8 5 8124.4 590.34 13
-4 8 4 193.94 257.301 13
-4 8 4 206.083 116.845 17
-4 8 3 3977.03 331.627 14
-4 8 3 3760.27 465.811 13
-4 8 3 3751.87 302.31 17
-4 8 2 6462.35 455.949 14
-4 8 2 6279.16 422.5 17
-4 8 1 497.369 151.879 17
-4 8 0 5366.53 429.703 14
-4 8 -1 11503 700.141 14
-4 8 -2 39857.4 1712.6 14
4 -8 2 32774.5 1563.73 6
-4 8 -3 12362.5 723.486 14
4 -8 3 12180.4 641.517 6
-4 8 -4 8233.22 515.921 14
4 -8 4 7040.49 439.385 6
-4 8 -5 6801.95 483.775 14
4 -8 5 8315.86 466.683 6
-4 8 -6 764.727 156.756 14
4 -8 6 708.464 147.58 6
4 -8 7 10068.1 518.199 6
4 -8 7 7613.61 460.711 4
4 -8 8 141.787 92.4386 4
4 -8 8 328.186 121.597 6
4 -8 9 253.644 106.417 4
4 -8 9 258.34 121.43 6
4 -8 10 2522.3 212.008 4
4 -8 11 381.763 103.474 6
4 -8 12 2688.93 192.136 6
-4 7 8 928.407 247.499 13
-4 7 7 75.5164 239.159 13
-4 7 7 -7.55028 94.3905 17
-4 7 6 2709.12 426.224 13
-4 7 6 2689.87 248.682 17
-4 7 5 7239.93 613.105 12
-4 7 5 6780.49 452.554 17
-4 7 4 9854.93 623.47 14
-4 7 3 25644 1306.48 17
-4 7 3 27698.3 1358.69 14
-4 7 2 9460.95 741.292 15
-4 7 2 10707.4 645.208 17
4 -7 -1 4717.87 736.787 34
-4 7 1 4272.9 509.359 15
-4 7 1 4498.18 384.252 17
-4 7 1 5017.51 428.734 14
-4 7 1 5065.29 626.159 13
4 -7 0 34743.9 2334.84 34
-4 7 0 33013.1 1668.85 14
-4 7 0 35176.2 1655.54 17
4 -7 1 15136.1 1396.5 34
-4 7 -1 14824 818.007 17
-4 7 -1 13308.7 820.355 14
4 -7 2 34547.8 2311.54 34
-4 7 -2 32026.2 1575.93 14
4 -7 2 31731.8 1478.71 6
4 -7 3 138.484 337.383 34
4 -7 3 274.94 122.574 6
-4 7 -3 180.3 147.738 14
4 -7 4 6769 918.481 34
-4 7 -4 5606 444.096 14
4 -7 4 6123.09 399.26 6
4 -7 5 400.242 334.406 34
-4 7 -5 246.697 145.904 14
4 -7 5 115.018 114.793 6
4 -7 6 191.338 281.923 34
4 -7 6 31.8977 123.109 6
4 -7 6 100.087 104.815 4
4 -7 7 1337.66 192.368 6
4 -7 7 975.654 166.443 4
4 -7 8 211.695 136.556 6
4 -7 8 117.944 120.278 4
4 -7 9 5183.95 363.848 4
4 -7 10 18.9179 115.585 4
4 -7 11 9129.82 495.842 6
4 -7 11 7768.24 455.079 11
4 -7 11 9537.74 481.955 5
4 -7 11 8026.1 486.944 4
4 -7 12 689.669 127.824 6
4 -7 12 530.732 109.63 11
4 -7 13 1034.06 115.417 11
-4 6 10 224.798 210.797 13
-4 6 9 -121.306 211.813 12
-4 6 8 3679.99 456.502 12
-4 6 8 3764.32 283.858 17
-4 6 7 7799.37 481.859 17
-4 6 7 7020.78 669.117 12
-4 6 6 5384.33 626.716 12
-4 6 6 6477.56 440.915 17
-4 6 5 11896.3 842.697 15
-4 6 5 12985.8 977.734 13
-4 6 5 12093.5 712.491 17
-4 6 4 -25.2449 273.361 15
-4 6 4 288.515 164.046 14
-4 6 4 379.063 369.433 13
-4 6 4 -13.8908 142.186 17
4 -6 -3 23656.1 1795.75 34
-4 6 3 26453.5 1503.96 15
-4 6 3 27574.4 1372.41 14
-4 6 3 26721.8 1602.32 13
4 -6 -2 417.541 315.377 34
-4 6 2 457.337 303.424 15
-4 6 2 -62.7425 335.822 13
-4 6 2 330.158 170.051 17
4 -6 -1 10776.3 1125.24 34
-4 6 1 9960.86 669.414 14
-4 6 1 11348.5 673.94 17
-4 6 0 7320.67 533.727 14
-4 6 0 8066.96 536.298 17
-4 6 -1 6476.11 481.143 14
4 -6 1 6278.41 396.112 6
-4 6 -1 7074.51 494.16 17
-4 6 -2 175.932 139.757 14
4 -6 2 128.853 98.0322 6
-4 6 -3 984.702 200.396 14
4 -6 3 1313.4 172.309 6
-4 6 -4 499.016 159.531 14
4 -6 4 584.476 134.485 6
-4 6 -5 1231.06 202.451 14
4 -6 5 1235.24 180.045 6
4 -6 6 1938.07 489.73 34
4 -6 6 1704.53 212.149 6
4 -6 6 1949.64 432.102 23
4 -6 6 1415.91 190.315 4
4 -6 7 459.481 318.79 34
4 -6 7 391.787 149.037 6
4 -6 7 371.696 266.789 23
4 -6 7 538.01 143.329 4
4 -6 8 105.416 224.759 34
4 -6 8 341.854 153.277 6
4 -6 8 681.086 342.047 23
4 -6 8 200.253 133.177 4
4 -6 9 2824.06 566.906 23
4 -6 9 3294.43 300.182 4
4 -6 9 3110.91 307.834 37
4 -6 10 4090.57 326.542 6
4 -6 10 3730.55 322.032 4
4 -6 10 3644.52 341.605 37
4 -6 11 5735.34 377.282 6
4 -6 11 4502.41 343.498 11
4 -6 11 5738.83 361.744 5
4 -6 11 5248.77 385.593 4
4 -6 12 170.338 112.081 33
4 -6 12 -25.8663 103.871 6
4 -6 12 -71.7184 112.175 11
4 -6 13 92.8258 103.684 11
4 -6 14 568.687 104.157 11
-4 5 11 2636.93 317.745 12
-4 5 10 2174.7 375.021 12
-4 5 9 -134.379 326.869 13
-4 5 9 84.5586 310.567 12
-4 5 8 290.71 270.694 15
-4 5 8 88.7951 351.392 13
-4 5 8 418.2 360.516 12
-4 5 8 -32.5149 112.365 17
-4 5 7 15639.3 1033.28 15
-4 5 7 18006.3 1166.5 13
-4 5 7 16936.2 1179.38 12
-4 5 7 17583.6 1013.18 18
-4 5 7 15394.5 861.38 17
-4 5 6 11047.1 843.929 15
-4 5 6 10990.6 669.876 17
-4 5 6 12324.9 947.895 13
-4 5 6 12427.5 799.495 18
-4 5 5 26832.9 1506.39 15
-4 5 5 26836.1 1328.76 14
-4 5 5 27673.6 1576.93 13
-4 5 5 26361.7 1298.11 17
4 -5 -4 350.885 284.517 34
-4 5 4 205.753 292.636 31
-4 5 4 627.769 319.662 15
-4 5 4 230.364 168.169 14
-4 5 4 1143.58 386.567 13
-4 5 4 516.702 162.369 17
-4 5 3 3934.37 695.491 31
-4 5 3 5441.6 431.412 14
-4 5 3 5590.96 613.076 13
-4 5 3 5340.94 411.9 17
-4 5 3 6072.38 593.615 15
-4 5 2 250.806 301.889 13
-4 5 1 37538.4 1818.4 14
-4 5 1 39395.7 1819.58 17
-4 5 0 926.315 186.627 14
-4 5 0 1077.32 208.332 17
4 -5 1 4706.69 313.776 6
-4 5 -1 4082 364.042 17
-4 5 -2 9703.52 602.481 14
4 -5 2 10232.8 547.089 6
-4 5 -3 7602.65 504.41 14
4 -5 3 8401.4 466.798 6
-4 5 -4 11761.3 666.574 14
4 -5 4 11710 626.378 6
4 -5 4 10146.9 918.222 23
4 -5 5 3446.47 277.545 6
4 -5 5 2676.79 478.85 23
4 -5 5 3036.7 255.963 4
4 -5 6 7567.55 467.192 6
4 -5 6 6322.05 767.323 23
4 -5 6 6942.11 448.788 4
4 -5 6 7867.99 497.326 37
4 -5 7 9618.25 556.687 6
4 -5 7 7808.89 892.265 23
4 -5 7 9134.32 545.053 4
4 -5 7 8975.92 575.068 37
4 -5 8 3416.45 559.478 34
4 -5 8 3132.65 579.549 23
4 -5 8 3012.38 294.544 4
4 -5 8 3868.01 352.021 37
4 -5 9 15439.1 788.693 6
4 -5 9 12427.8 1225.66 23
4 -5 9 13582.2 781.876 4
4 -5 9 14170.8 826.632 37
4 -5 10 8658.53 556.23 33
4 -5 10 10226.7 566.379 6
4 -5 10 9039.7 563.205 4
4 -5 10 8868.69 602.329 37
4 -5 11 221.726 155.451 33
4 -5 11 326.531 136.161 6
4 -5 11 281.699 142.801 11
4 -5 11 471.341 145.534 5
4 -5 11 361.33 171.65 37
4 -5 12 587.761 169.719 33
4 -5 12 387.815 126.313 6
4 -5 12 512.975 152.398 11
4 -5 12 352.333 172.689 37
4 -5 13 96.6105 128.191 33
4 -5 13 176.587 128.874 11
4 -5 14 25.7902 103.143 33
4 -5 14 214.981 133.686 30
4 -5 14 99.5638 106.147 11
-4 4 12 4296.8 465.387 13
-4 4 11 2213.59 436.698 13
-4 4 10 21992.7 1284.04 15
-4 4 10 23230.1 1409.9 13
-4 4 10 24080.3 1277.67 18
-4 4 9 2530.5 410.385 15
-4 4 9 2162.57 461.635 13
-4 4 9 2855.65 392.653 18
-4 4 8 34140 1818.1 15
-4 4 8 35195.9 1896.41 13
-4 4 8 34579 1758.23 18
-4 4 8 32345.8 1562.36 17
-4 4 7 3338.2 477.158 15
-4 4 7 2682.33 497.226 13
-4 4 7 2999.41 402.733 18
-4 4 7 2685.41 279.409 17
-4 4 6 62795 2922.1 15
-4 4 6 60854.3 2937.93 13
-4 4 6 61234.5 2828.05 18
-4 4 6 56566.1 2653.57 17
-4 4 5 4398.37 524.188 15
-4 4 5 4645.99 542.677 13
-4 4 5 3957.75 434.005 18
-4 4 5 4226.66 348.015 17
-4 4 4 19256.7 1196.45 15
-4 4 4 16217.7 1507.54 31
-4 4 4 20532 1037.14 14
-4 4 4 21313.7 1225.41 13
-4 4 4 20472.6 1134.8 18
-4 4 4 19056.1 1005.95 17
-4 4 3 105.376 271.802 31
-4 4 3 337.74 149.696 14
-4 4 3 549.09 322.735 26
-4 4 3 458.895 260.458 13
-4 4 3 503.27 148.709 17
-4 4 2 14456.6 1207.01 31
-4 4 2 15743.2 1002 13
-4 4 2 16349.8 850.191 17
-4 4 1 18347.9 950.989 14
-4 4 1 18567.3 1463.52 26
-4 4 0 40321.9 1858.71 14
-4 4 0 43347.1 2469.24 26
-4 4 0 39740.9 1861.73 17
-4 4 -1 21550 1057.19 14
-4 4 -1 21562.6 1544.92 26
4 -4 1 19834 1246.47 23
-4 4 -2 98737.1 4415.13 14
4 -4 2 104015 4363.62 6
4 -4 2 107373 4774.4 23
-4 4 -3 29781.6 1410.32 14
4 -4 3 29568.2 1365.03 6
4 -4 3 31613.2 1770.63 23
4 -4 4 65085.5 2873.77 6
4 -4 4 66437.4 3343.94 23
4 -4 4 67091.8 2905.03 37
4 -4 5 3015.74 253.801 6
4 -4 5 2930.5 489.311 23
4 -4 5 2823.15 245.015 4
4 -4 5 3279.74 285.748 37
4 -4 6 68452.4 2940.09 6
4 -4 6 62502.9 3443.55 23
4 -4 6 64470.5 2920.61 4
4 -4 6 69605.3 2986.39 37
4 -4 7 514.636 279.089 23
4 -4 7 276.078 128.999 4
4 -4 7 590.79 171.888 37
4 -4 8 527.918 151.411 6
4 -4 8 501.006 316.266 23
4 -4 8 688.837 172.247 4
4 -4 8 540.386 189.28 37
4 -4 9 1784.09 222.972 6
4 -4 9 1131.17 390.348 23
4 -4 9 1419.98 223.702 4
4 -4 9 1493.69 260.373 37
4 -4 10 641.714 159.745 6
4 -4 10 185.929 274.395 23
4 -4 10 283.601 151.853 11
4 -4 10 441.223 159.317 5
4 -4 10 209.275 183.797 37
4 -4 11 11386.8 644.152 6
4 -4 11 11195.2 651.088 11
4 -4 11 12250.7 647.118 5
4 -4 11 10672.1 723.744 37
4 -4 12 1317.27 238.498 33
4 -4 12 1309.96 185.802 6
4 -4 12 1963.21 204.6 5
4 -4 12 1558.43 224.469 11
4 -4 12 1432.36 256.908 37
4 -4 13 16567.7 912.742 33
4 -4 13 18404.4 885.769 11
4 -4 13 16915 950.456 37
4 -4 14 562.955 158.458 33
4 -4 14 896.613 203.576 30
4 -4 14 566.141 146.076 11
4 -4 15 670.087 134.646 33
4 -4 15 718.532 156.631 30
-4 3 13 38533.1 1893.26 12
-4 3 12 2282.8 387.769 15
-4 3 12 2870.18 460.729 13
-4 3 12 2444.76 435.152 12
-4 3 11 27889.2 1564.47 15
-4 3 11 28376.5 1636.71 13
-4 3 11 28227.5 1639.97 12
-4 3 11 29460.5 1507.75 18
-4 3 10 2588.52 448.59 15
-4 3 10 2675.08 481.287 13
-4 3 10 2917.24 520.516 12
-4 3 10 2660.83 470.603 30
-4 3 9 24053.4 1441.76 15
-4 3 9 23941.2 1435.56 30
-4 3 9 24380.3 1489.81 13
-4 3 9 25814.4 1553.39 12
-4 3 8 17921.6 932.42 17
-4 3 8 20563.5 1226.16 30
-4 3 8 19533.7 1207.36 15
-4 3 8 19898.1 1233.46 13
-4 3 7 8499.75 712.905 15
-4 3 7 9004.29 728.151 30
-4 3 7 8051.38 719.904 13
-4 3 7 6995.87 915.765 26
-4 3 7 8702.73 657.541 18
-4 3 7 7557.01 484.509 17
-4 3 6 256.27 285.609 15
-4 3 6 -26.006 271.333 30
-4 3 6 -59.7212 282.207 26
-4 3 6 201.753 276.287 13
-4 3 6 63.5816 200.31 18
-4 3 6 73.2914 108.571 17
-4 3 5 33223.6 1737.14 13
-4 3 5 33069.1 2153.01 26
-4 3 5 35873.2 1715.53 18
-4 3 5 31455.7 1537.13 17
4 -3 -5 34958.2 1836.71 1
4 -3 -4 17560 1115.62 1
-4 3 4 16432.6 999.053 13
-4 3 4 15663.4 1328.1 26
-4 3 4 17877.6 987.242 18
-4 3 4 15405.7 834.468 17
-4 3 3 16891.3 914.207 14
-4 3 3 18501.7 1054.95 13
-4 3 3 20729.9 1461.81 26
-4 3 3 18617.5 916.041 17
-4 3 2 42034.2 1913.4 14
-4 3 1 243814 10854.1 26
-4 3 1 243707 10734.4 25
-4 3 0 3378.84 532.887 26
-4 3 -1 158300 7207.82 26
-4 3 -1 157114 7169.18 25
-4 3 -2 318.044 235.164 26
-4 3 -2 301.196 259.648 25
-4 3 -3 58779.4 3117.95 26
-4 3 -3 63910.2 3150.81 25
4 -3 4 1322.57 155.489 6
4 -3 4 1102.7 169.798 37
4 -3 5 4492.6 304.207 6
4 -3 5 3991.72 563.735 23
4 -3 5 4120.27 291.453 4
4 -3 5 3847.94 322.761 37
4 -3 6 2994.88 512.956 23
4 -3 6 2481.55 402.394 1
4 -3 6 2449.78 240.594 4
4 -3 6 3442.45 303.367 37
4 -3 7 4782.12 339.243 6
4 -3 7 4952.51 684.058 23
4 -3 7 4435.51 324.573 11
4 -3 7 4613.65 346.367 4
4 -3 7 3655.56 482.112 1
4 -3 7 4562.03 380.737 37
4 -3 8 18997.7 956.365 6
4 -3 8 16937.5 1409.81 23
4 -3 8 18806.2 943.045 11
4 -3 8 18695.6 958.834 5
4 -3 8 19710.2 1037.43 37
4 -3 9 1733.13 225.108 6
4 -3 9 1675.71 226.398 11
4 -3 9 2143.32 232.77 5
4 -3 9 1207.35 244.442 37
4 -3 10 32303.9 1544.62 6
4 -3 10 29936.3 2139.46 23
4 -3 10 33277.8 1557.52 11
4 -3 10 33921.4 1550.74 5
4 -3 10 32540.7 1725.45 21
4 -3 10 32738.3 1656.26 37
4 -3 11 2432.76 239.723 6
4 -3 11 1307 436.993 23
4 -3 11 2055.6 236.699 5
4 -3 11 2022.28 260.62 11
4 -3 11 1620.64 334.053 21
4 -3 11 2147.46 313.656 37
4 -3 12 6725.28 439.172 6
4 -3 12 8291.94 503.048 11
4 -3 12 7833.94 574.544 37
4 -3 13 10956.7 701.247 33
4 -3 13 13315.3 683.222 11
4 -3 14 3722.46 315.313 33
4 -3 14 3098.45 344.518 30
4 -3 15 348.846 122.411 33
4 -3 15 327.187 152.471 30
-4 2 14 16510.2 923.536 15
-4 2 13 5002.96 580.203 15
-4 2 13 16528.5 848.246 12
-4 2 12 4432.13 544.944 15
-4 2 12 4485.12 568.114 13
-4 2 12 4137.58 528.766 12
-4 2 11 26.8695 349.153 15
-4 2 11 82.4231 292.102 30
-4 2 11 -233.841 246.055 29
-4 2 11 59.5022 329.691 13
-4 2 11 94.2571 331.971 12
-4 2 11 -41.6626 217.338 18
-4 2 10 616.403 357.123 15
-4 2 10 710.943 343.26 30
-4 2 10 345.687 243.08 29
-4 2 10 450.778 353.875 13
-4 2 10 266.251 352.302 12
-4 2 10 753.566 269.145 18
-4 2 9 1633.04 393.78 30
-4 2 9 1981.39 336.237 29
-4 2 9 1824.67 253.604 28
-4 2 9 2022.18 442.134 13
-4 2 9 2457.2 477.9 12
-4 2 9 2432.53 359.366 18
-4 2 8 4464.46 537.258 30
-4 2 8 4242.73 438.705 29
-4 2 8 4145.76 538.037 13
-4 2 8 4742.58 382.606 28
-4 2 8 4320.65 671.301 26
-4 2 8 5037.46 488.375 18
-4 2 8 3955.39 395.367 8
-4 2 7 2765.67 439.122 30
-4 2 7 3341.64 379.858 29
-4 2 7 3983.24 339.081 28
-4 2 7 3580.83 451.459 13
-4 2 7 4087.85 649.606 26
-4 2 7 3648 408.396 18
-4 2 6 16977.9 1026.91 15
-4 2 6 15869.2 805.546 17
-4 2 6 16832.3 1042.14 30
-4 2 6 15988.7 913.516 29
-4 2 6 16621.5 874.346 28
-4 2 6 15646.3 985.833 13
-4 2 6 19645 1430.35 26
4 -2 -6 15214.4 1015.28 1
-4 2 6 16720.9 978.896 18
4 -2 -5 212.131 156.777 1
-4 2 5 251.804 236.566 15
-4 2 5 41.9696 156.067 29
-4 2 5 145.691 140.284 28
-4 2 5 395.411 314.502 26
-4 2 5 188.237 208.715 13
-4 2 5 250.57 207.275 25
-4 2 4 93833.7 4253.86 15
-4 2 4 92314.1 4108.27 28
-4 2 4 105478 4755.11 26
-4 2 4 98783.5 4536.22 25
4 -2 -4 97081 4383.55 1
4 -2 -3 7067.52 614.915 1
-4 2 3 6887.7 685.669 25
4 -2 -2 36531.4 1925.51 1
-4 2 2 38515.5 2139.89 26
-4 2 2 34946.5 1996.5 25
-4 2 1 2027.86 419.435 26
4 -2 -1 2343.28 341.66 1
-4 2 0 20094.4 1323.84 26
-4 2 0 19130.7 1269.01 25
-4 2 -1 139008 6326.14 26
-4 2 -1 139744 6298.65 25
4 -2 2 120359 5357.13 1
-4 2 -2 118804 5436.9 26
-4 2 -2 115085 5421.81 25
4 -2 3 75587.1 3592.44 1
-4 2 -3 72463.6 3612.85 26
-4 2 -3 78324.5 3666.06 25
4 -2 4 52312.3 2392.06 6
-4 2 -4 52507.7 2721.65 26
-4 2 -4 57608.9 2822.04 25
4 -2 4 57789.6 2745.38 1
4 -2 4 57407.2 2451.23 37
4 -2 5 728.829 227.208 1
4 -2 5 537.248 155.868 37
-4 2 -5 639.663 267.954 25
4 -2 6 23623.7 1103.85 6
4 -2 6 23566.5 1562.43 23
4 -2 6 23332.5 1376.41 1
4 -2 6 21683.4 1072.25 11
4 -2 6 24342.5 1176.66 37
4 -2 7 1031.86 161.952 6
4 -2 7 1278.25 175.169 11
4 -2 7 1096.15 174.717 5
4 -2 7 1211.79 221.443 37
4 -2 7 1044.61 251.512 1
4 -2 8 15177.3 752.414 6
4 -2 8 13394 729.463 11
4 -2 8 13174.1 739.62 5
4 -2 8 14783.6 829.47 37
4 -2 9 24145.7 1233.09 6
4 -2 9 26192.8 1845.65 23
4 -2 9 26250.5 1254.98 11
4 -2 9 27167.5 1259.36 5
4 -2 10 8150.77 522.44 32
4 -2 10 9774.01 549.182 6
4 -2 10 9063.61 550.705 5
4 -2 10 9558.98 575.234 11
4 -2 10 9648.75 772.972 21
4 -2 11 29.2724 121.467 32
4 -2 11 126.38 165.594 3
4 -2 11 50.952 111.015 6
4 -2 11 146.754 159.59 11
4 -2 11 -102.403 263.657 21
4 -2 11 111.468 174.211 37
4 -2 12 10104.4 564.046 3
4 -2 12 7492.16 490.891 32
4 -2 12 10125.9 560.575 11
4 -2 12 7126.68 639.099 21
4 -2 12 8510.99 615.783 37
4 -2 13 176.175 158.168 37
4 -2 14 171.331 194.636 30
4 -2 15 330.858 115.473 33
4 -2 15 380.808 149.5 30
-4 1 14 5721.27 547.283 15
-4 1 13 941.565 292.805 29
-4 1 13 15285.9 747.75 12
-4 1 12 184.323 240.444 29
-4 1 12 795.665 294.262 12
-4 1 12 765.202 318.161 30
-4 1 11 135.714 293.899 30
-4 1 11 21.1285 210.352 29
-4 1 11 180.215 149.589 28
-4 1 11 -29.3653 321.721 13
-4 1 11 145.431 189.707 8
-4 1 11 269.48 302.236 12
-4 1 11 -19.6927 196.064 18
-4 1 10 137.045 293.196 15
-4 1 10 -81.7826 291.61 30
-4 1 10 -41.2232 228.407 29
-4 1 10 -91.5065 158.236 28
-4 1 10 -28.6948 308.815 13
-4 1 10 580.338 326.731 12
-4 1 10 81.9668 208.233 18
-4 1 10 -78.6018 187.148 8
-4 1 9 1288.3 269.726 8
-4 1 9 1784.39 387.8 15
-4 1 9 1453.92 362.082 30
-4 1 9 1229 286.419 29
-4 1 9 1832.45 246.168 28
-4 1 9 1626.19 401.282 13
-4 1 9 1223.08 392.793 26
-4 1 9 1678.31 386.662 12
-4 1 9 2257.7 328.131 18
-4 1 8 8455.36 707.25 15
-4 1 8 8950.54 624.409 29
-4 1 8 9076.41 727.169 30
-4 1 8 8724.93 570.922 28
-4 1 8 9197.14 720.016 13
-4 1 8 9128.23 958.142 26
-4 1 8 9519.33 763.649 12
-4 1 8 10011.7 673.403 18
-4 1 7 67.0738 227.199 15
-4 1 7 94.5809 260.532 30
-4 1 7 61.0935 166.343 29
-4 1 7 23.8747 150.564 28
-4 1 7 -63.4346 217.756 13
-4 1 7 -151.156 272.754 26
-4 1 7 158.635 159.011 25
-4 1 7 -37.3526 185.9 18
-4 1 6 5364.78 500.843 15
-4 1 6 4786.19 520.358 30
4 -1 -6 5735.89 538.922 1
-4 1 6 5209.08 424.701 29
-4 1 6 6466.21 418.143 28
-4 1 6 5808.58 501.938 13
-4 1 6 5643.1 722.734 26
-4 1 6 5841.29 615.002 25
-4 1 6 6617.93 504.124 18
-4 1 5 183.078 196.107 15
-4 1 5 277.7 144.123 28
-4 1 5 312.997 303.6 26
-4 1 5 258.632 205.914 25
4 -1 -5 229.525 168.048 1
-4 1 4 42761.3 2423.48 26
-4 1 4 41983.4 2264.99 25
4 -1 -4 43790.1 2184.25 1
4 -1 -3 1646.99 292.001 1
-4 1 2 6002.01 659.312 26
4 -1 -2 5974.3 549.071 1
-4 1 1 2452.57 436.269 26
4 -1 -1 2154.56 337.124 1
-4 1 0 7709.92 713.404 26
4 -1 0 6167.36 571.763 1
-4 1 -1 74624.4 3594.22 26
-4 1 -2 79337.3 3662.29 26
4 -1 2 73841.5 3574.75 1
-4 1 -3 61289.4 2901.92 26
4 -1 3 56776.1 2862.92 1
4 -1 4 13394.4 675.664 6
-4 1 -4 13309.3 904.397 26
-4 1 -4 15081.5 1003.32 25
4 -1 4 13459.6 926.954 1
4 -1 4 12490.4 664.751 5
4 -1 4 13874.1 732.486 37
4 -1 5 7887.91 665.107 1
-4 1 -5 9264.07 749.964 25
4 -1 5 7816.56 457.473 5
4 -1 6 2587.18 229.297 6
-4 1 -6 2402.95 383.583 25
4 -1 6 2025.06 330.692 1
4 -1 6 2516.47 225.28 11
4 -1 7 15094.1 779.607 6
4 -1 7 13639.1 1196.74 23
4 -1 7 14590.9 768.83 11
4 -1 7 14722.9 779.259 5
4 -1 7 16344.1 876.791 37
4 -1 8 49472.8 2191.26 6
4 -1 8 45742 2160.37 32
4 -1 8 49834.5 2818.65 23
4 -1 8 51074.5 2198.5 11
4 -1 8 45440.5 2182.11 5
4 -1 8 54728.4 2329.12 37
4 -1 9 5604.87 411.809 32
4 -1 9 6943.19 431.016 6
4 -1 9 6990.34 525.005 37
4 -1 9 5696.8 785.291 23
4 -1 9 6022.53 439.085 11
4 -1 10 2187.33 271.563 3
4 -1 10 1803.5 232.183 32
4 -1 10 1752.8 211.682 6
4 -1 10 1563.4 439.746 23
4 -1 10 2210.88 450.189 21
4 -1 10 2155.17 313.938 37
4 -1 11 594.044 162.787 32
4 -1 11 910.761 222.759 3
4 -1 11 732.888 318.342 21
4 -1 11 284.292 188.111 37
4 -1 12 2526.04 246.116 32
4 -1 12 2174.7 394.976 21
4 -1 12 2486.18 309.68 37
4 -1 13 448.554 174.752 33
4 -1 13 383.558 125.843 32
4 -1 13 164.847 205.671 30
4 -1 13 296.057 221.228 21
4 -1 14 63.7831 117.948 33
4 -1 14 88.9347 173.109 30
4 -1 15 -16.0267 116.708 30
-4 0 15 191.225 168.555 29
-4 0 14 9319.67 621.177 15
-4 0 14 1563.33 300.138 29
-4 0 13 2962.26 472.322 15
-4 0 13 1566.85 320.278 29
-4 0 12 52.2266 377.321 15
-4 0 12 882.029 297.678 30
-4 0 12 204.375 226.49 29
-4 0 12 661.701 250.731 8
-4 0 12 466.117 170.329 10
-4 0 11 3307.62 504.223 15
-4 0 11 3277.26 458.679 30
-4 0 11 3534.69 416.526 29
-4 0 11 3437.53 336.929 28
-4 0 11 2505.34 424.53 12
-4 0 11 3700.02 362.732 10
-4 0 11 3406.86 419.747 8
-4 0 10 12127.7 810.388 8
-4 0 10 11391.2 853.257 15
-4 0 10 9857.38 790.943 30
-4 0 10 12194 769.778 29
-4 0 10 11523.7 867.798 13
-4 0 10 11870.9 685.778 28
-4 0 10 10695.1 829.337 12
-4 0 10 10651.3 709.309 10
-4 0 9 44262.7 2206.67 15
-4 0 9 42582.6 2184.54 30
-4 0 9 45336.4 2114 29
-4 0 9 42883.6 2210.17 13
-4 0 9 47708.6 2056.84 28
-4 0 9 39340.1 2529.8 26
-4 0 9 41304.9 2193.58 12
-4 0 9 42678.8 2160.47 8
-4 0 8 5765.06 537.012 15
-4 0 8 5415.68 532.18 30
-4 0 8 5655.55 461.056 29
-4 0 8 5039.03 513.832 13
-4 0 8 6265.77 780.079 26
-4 0 8 5631.83 540.646 12
-4 0 7 15042.5 918.444 15
-4 0 7 13983.2 916.308 30
-4 0 7 13534.1 892.429 13
-4 0 7 14769.9 1051.14 25
4 0 -7 14462.1 973.428 1
-4 0 6 52662.4 2522.1 15
4 0 -6 55922.1 2675.77 1
4 0 -5 35995.2 1903.68 1
4 0 -4 15889.8 1029.26 1
4 0 -3 17870.2 1130.58 1
-4 0 3 18961.8 1235.23 24
-4 0 2 1312.6 325.949 24
4 0 -2 1202.59 274.123 1
4 0 -1 9355.31 733.309 1
-4 0 1 9803.27 777.423 24
-4 0 0 6292.53 603.921 24
4 0 1 173317 7628.85 1
4 0 2 10996.9 816.432 1
4 0 3 74632.4 3628.83 1
4 0 3 77962 3371.2 37
4 0 4 1056.72 270.17 1
4 0 4 772.558 145.601 5
4 0 4 932.049 178.179 37
4 0 5 78664.2 3489.73 6
4 0 5 78660.6 3482.33 5
4 0 5 87013.5 3575.38 37
4 0 5 80991.3 3804.1 1
4 0 6 6662.5 431.452 6
4 0 6 5946.01 584.609 1
4 0 7 48961.4 2258.22 6
4 0 7 50852 2846.41 23
4 0 7 52838.9 2368.17 37
4 0 8 6291.96 442.268 3
4 0 8 5096.38 458.851 37
4 0 8 5464.63 385.942 6
4 0 8 5056.65 716.373 23
4 0 9 9786.73 611.391 3
4 0 9 7847.68 520.954 32
4 0 9 7307.17 880.792 23
4 0 9 9601.04 628.556 37
4 0 10 6069.78 448.913 32
4 0 10 7206.43 536.019 37
4 0 11 2017.64 244.574 32
4 0 11 2479.69 441.375 21
4 0 11 1928.7 281.878 37
4 0 12 4816.97 344.989 32
4 0 12 4578.44 429.582 30
4 0 12 4903.97 516.574 21
4 0 13 963.383 148.532 32
4 0 13 992.271 220.966 30
4 0 13 1024.97 264.327 21
-4 -1 15 2230.94 282.353 29
-4 -1 14 25658.1 1024.2 15
-4 -1 14 7195.03 647.682 29
-4 -1 13 9505.49 719.296 15
-4 -1 13 6575.98 570.154 29
-4 -1 13 6959.22 529.092 10
-4 -1 13 8679.71 625.93 8
-4 -1 12 23992.9 1436.94 15
-4 -1 12 24705.9 1343.5 29
-4 -1 12 25495.2 1250.15 28
-4 -1 12 23953.6 1303.37 10
-4 -1 12 26743 1400.22 8
-4 -1 11 9336.17 766.023 15
-4 -1 11 7229.37 646.007 30
-4 -1 11 10037.7 675.451 29
-4 -1 11 8436.66 662 12
-4 -1 11 9802.18 664.911 10
-4 -1 11 9358.59 720.077 8
-4 -1 10 1215.07 363.576 15
-4 -1 10 1509.6 318.209 30
-4 -1 10 1558.06 340.937 8
-4 -1 10 1366.11 411.257 26
-4 -1 9 53685.9 2591.99 15
-4 -1 9 53472.5 3034.46 26
-4 -1 8 20708.9 1116.59 15
-4 -1 8 17018.2 943.266 27
-4 -1 7 20197.6 1078.1 15
-4 -1 7 15905.5 914.571 27
4 1 -7 17478.2 1168.36 1
-4 -1 7 19770 888.585 36
-4 -1 6 10054.8 720.093 15
-4 -1 6 12830 1032.88 24
-4 -1 6 12312 618.809 36
4 1 -6 12922.7 916.166 1
-4 -1 5 4329.31 303.31 36
-4 -1 5 5231.22 636.63 24
4 1 -5 5522.9 558.942 1
4 1 -4 15173.1 1032.94 1
-4 -1 3 5024.88 582.812 24
4 1 -3 3975.13 487.928 1
-4 -1 2 196456 8916.29 24
4 1 -2 208008 8895.82 1
-4 -1 1 4075.53 531.996 24
4 1 -1 4599.22 509.976 1
-4 -1 0 246975 10730.4 24
-4 -1 -1 5926.65 588.709 24
4 1 1 5297.77 561.783 1
4 1 2 122643 5309.59 6
-4 -1 -2 125146 5647.84 24
-4 -1 -2 125833 5305.14 36
4 1 2 132545 5721.89 1
4 1 3 3206.71 265.09 3
4 1 3 2575.41 401.626 1
-4 -1 -3 2162.83 347.472 24
4 1 3 2613.75 262.706 37
-4 -1 -3 2429.41 223.801 36
4 1 4 34235.5 1741.39 6
4 1 4 39219.2 1815.89 37
4 1 4 37373.5 2071.4 1
-4 -1 -4 37892.7 1729.24 36
4 1 5 179.433 152.99 3
4 1 5 92.9896 159.741 1
4 1 5 194.353 140.269 37
4 1 6 18909.7 1017 37
4 1 7 3821.91 630.21 23
4 1 7 4497.71 406.381 37
4 1 8 23550.9 1509.6 21
4 1 8 24757.3 1310.44 37
4 1 9 1969.8 441.752 21
4 1 9 2666.69 304.517 37
4 1 10 4455.23 346.617 32
4 1 10 4037.3 412.787 30
4 1 10 3842.58 529.615 21
4 1 11 13628.8 720.839 32
4 1 11 12625.8 785.784 30
4 1 11 14519 934.935 21
4 1 12 7025.75 423.966 32
4 1 13 836.251 124.471 32
-4 -2 16 983.111 169.517 29
-4 -2 15 766.268 207.124 29
-4 -2 14 6128.06 489.535 29
-4 -2 14 5885.19 448.332 10
-4 -2 13 1233.84 275.818 29
-4 -2 13 1048.31 209.91 28
-4 -2 13 1073.4 268.559 10
-4 -2 13 1450.67 312.628 8
-4 -2 12 18054.6 1115.9 15
-4 -2 12 17460.1 1033.7 10
-4 -2 11 4178.58 535.341 15
-4 -2 11 4875.43 480.008 10
-4 -2 10 -370.107 363.585 15
-4 -2 10 -59.8593 175.1 27
-4 -2 9 -282.464 331.719 15
-4 -2 9 329.727 171.809 27
-4 -2 8 19.8545 258.053 15
-4 -2 8 122.62 140.547 27
-4 -2 8 346.981 268.39 24
-4 -2 7 7482.8 599.879 15
-4 -2 7 7340.88 494.984 27
-4 -2 7 8730.13 906.959 24
4 2 -7 8271.79 759.226 1
4 2 -7 8640.34 475.85 2
-4 -2 7 8501.62 481.144 36
-4 -2 6 1509.34 186.488 36
4 2 -6 1245.1 165.451 2
-4 -2 6 1773.36 429.937 24
4 2 -6 1038.54 295.282 1
4 2 -5 96738.5 4570.04 1
-4 -2 5 96364.7 4139.37 36
-4 -2 4 4654.25 628.231 24
4 2 -4 4317.01 541.487 1
-4 -2 4 4849.36 331.958 36
-4 -2 3 50941.9 2311.24 36
-4 -2 3 55321.9 2805.42 24
4 2 -3 56817.6 2757.19 1
-4 -2 2 1662.4 370.189 24
4 2 -2 1343.19 318.383 1
-4 -2 1 65220.5 3287.66 24
-4 -2 1 65684 2860.91 36
-4 -2 0 18173.9 1227.59 24
4 2 0 19453.1 1259.96 1
-4 -2 0 17393.8 880.898 36
-4 -2 -1 28466.4 1754.15 24
4 2 1 31764.9 1822.03 1
-4 -2 -1 27582 1407.1 36
-4 -2 -2 12070.8 944.863 24
4 2 2 12373.5 987.492 1
4 2 2 12193.6 665.962 2
4 2 2 12228.1 707.299 37
-4 -2 -2 12170.2 669.001 36
4 2 3 9382.18 858.797 1
4 2 3 9523.14 559.272 2
4 2 3 10778.3 623.177 37
-4 -2 -3 9792.64 568.986 36
4 2 4 7243.76 724.011 1
4 2 4 6434.1 429.086 2
4 2 4 7511.98 497.73 37
4 2 5 11720.5 722.068 37
4 2 5 14307 788.912 3
4 2 6 13966.9 973.5 21
4 2 6 13529.6 774.728 37
4 2 7 12217.6 935.662 21
4 2 7 11587.1 714.602 37
4 2 8 28.1285 283.902 21
4 2 9 12540.4 910.571 21
4 2 10 778.065 178.061 32
4 2 10 690.33 300.291 21
4 2 10 463.859 194.908 20
4 2 10 740.547 194.169 19
4 2 11 8225.09 473.766 32
4 2 11 8449.62 618.722 21
4 2 11 7309.46 476.133 19
4 2 12 194.406 106.886 32
-4 -3 16 222.401 112.068 29
-4 -3 15 242.786 161.071 29
-4 -3 15 10.6991 131.414 10
-4 -3 14 1062.76 238.781 29
-4 -3 14 1103.94 234.668 10
-4 -3 13 34.9355 178.743 10
-4 -3 13 193.816 230.128 8
-4 -3 12 103.832 187.912 27
-4 -3 12 119.063 209.673 10
-4 -3 12 -128.749 232.327 8
4 3 -11 787.758 314.011 16
-4 -3 11 740.492 218.262 27
-4 -3 11 1422.46 330.295 8
-4 -3 10 481.928 195.223 27
-4 -3 10 468.347 308.359 24
-4 -3 10 458.183 263.545 8
-4 -3 9 3194.35 410.54 15
-4 -3 9 2977.53 317.407 27
-4 -3 9 3155.25 581.822 24
-4 -3 9 3198.18 416.581 8
4 3 -8 313.208 121.886 2
4 3 -8 293.137 232.399 1
-4 -3 8 295.91 154.697 27
-4 -3 8 271.739 287.413 24
-4 -3 8 355.201 130.951 36
4 3 -7 2831.23 503.673 1
-4 -3 7 3019.45 558.992 24
4 3 -7 3088.84 264.172 2
-4 -3 7 2821.55 269.606 36
4 3 -6 6453.26 717.226 1
-4 -3 6 6587.57 788.297 24
4 3 -6 5783.54 397.056 2
-4 -3 6 6148.3 416.878 36
4 3 -5 10291.4 926.793 1
4 3 -5 10898.9 571.991 2
-4 -3 5 8563 551.729 36
-4 -3 4 5048.51 686.005 24
4 3 -4 5083.95 643.445 1
4 3 -4 5959.99 385.748 2
-4 -3 4 5031.2 377.285 36
-4 -3 3 3923.3 591.964 24
4 3 -3 4222.14 589.08 1
4 3 -3 4220.18 322.765 2
4 3 -2 238.08 125.804 2
-4 -3 2 175.004 231.207 24
4 3 -2 214.025 247.787 1
-4 -3 2 30.9961 119.73 36
-4 -3 1 16420.1 1277.38 24
4 3 -1 18445.9 902.059 2
-4 -3 1 17276 902.6 36
4 3 0 90.0838 113.493 2
-4 -3 0 -83.3305 246.131 24
4 3 0 86.8649 211.585 1
-4 -3 0 212.087 132.049 36
4 3 1 230.281 118.442 2
-4 -3 -1 80.8175 223.983 24
4 3 1 43.7682 213.27 1
4 3 1 70.4093 116.977 37
-4 -3 -1 247.204 144.9 36
4 3 2 19.8661 118.534 2
4 3 2 176.118 226.728 1
4 3 2 94.1251 112.084 37
-4 -3 -2 32.4344 135.185 36
4 3 3 723.03 151.859 2
4 3 3 521.363 268.337 1
-4 -3 -3 794.911 171.962 36
4 3 4 10308.2 946.334 1
4 3 4 11053.8 597.621 2
4 3 4 11111.8 805.378 21
4 3 5 -25.3001 246.455 21
4 3 6 6534.11 613.918 21
4 3 7 18854.2 1153.55 21
4 3 8 2725.33 421.65 21
4 3 8 3389.12 341.913 19
4 3 9 9294.44 667.833 21
4 3 9 8139.88 563.862 20
4 3 10 1477.41 194.238 32
4 3 10 1708.81 224.834 20
4 3 10 1689.03 215.823 19
4 3 11 563.569 121.079 32
4 3 11 505.765 125.071 19
4 3 11 176.851 139.471 18
-4 -4 15 473.075 145.9 29
-4 -4 14 36.4029 150.345 29
-4 -4 13 2226.31 320.222 8
-4 -4 12 263.549 168.699 27
-4 -4 12 183.824 221.695 10
-4 -4 12 303.906 225.736 8
-4 -4 11 1086.2 228.25 27
-4 -4 11 1240.21 285.071 8
4 4 -10 719.452 321.569 16
-4 -4 10 792.734 206.254 27
-4 -4 10 651.085 340.374 24
-4 -4 10 568.178 250.253 8
-4 -4 9 4807.96 399.657 27
-4 -4 9 4827.71 734.315 24
4 4 -9 4836.83 337.699 2
-4 -4 9 5168.15 484.92 8
-4 -4 9 5023.83 357.281 36
-4 -4 8 6199.77 833.168 24
4 4 -8 5224.24 373.461 2
-4 -4 8 5160.21 494.469 8
-4 -4 8 5592.37 393.749 36
4 4 -7 7181.01 842.645 1
-4 -4 7 9121.94 986.184 24
4 4 -7 8700.74 518.053 2
-4 -4 7 8350.16 527.398 36
-4 -4 6 8505.17 531.764 7
4 4 -6 8827.51 937.813 1
4 4 -6 9396.32 551.254 2
-4 -4 6 9401.23 564.658 36
4 4 -5 10325.2 1044.18 1
-4 -4 5 11054.6 1114.43 24
4 4 -5 11549.3 641.648 2
-4 -4 5 10816.1 646.794 36
4 4 -4 7885.94 881.164 1
4 4 -4 8020.18 510.955 2
4 4 -3 18079.7 1430.57 1
4 4 -3 19788.9 998.003 2
-4 -4 2 907.091 193.028 36
4 4 -1 817.363 182.829 2
4 4 -1 675.811 332.582 1
-4 -4 1 966.885 203.334 36
4 4 0 24110.7 1703.64 1
-4 -4 0 23321.8 1668.81 24
4 4 0 24291.8 1201.63 2
-4 -4 0 25067.4 1224.5 36
4 4 1 211.042 142.291 2
4 4 1 205.005 270.945 1
-4 -4 -1 94.0444 242.336 24
-4 -4 -1 374.902 161.358 36
-4 -4 -2 40823.4 1864.85 36
4 4 2 39383.2 1832.89 2
4 4 3 214.66 119.479 2
-4 -4 -3 148.205 143.367 36
4 4 4 35716.6 1798.51 21
4 4 5 443.804 240.759 21
4 4 5 715.993 209.262 19
4 4 6 23599.7 1301.24 21
4 4 6 24696.5 1235.65 19
4 4 7 5867.08 509.499 21
4 4 7 6502.98 458.374 19
4 4 8 10262.4 654.627 20
4 4 8 11572.2 638.506 19
4 4 9 1907.53 194.477 32
4 4 9 1641.2 217.378 20
4 4 9 1609.25 195.967 19
4 4 10 666.38 115.898 32
4 4 10 656.247 118.055 20
-4 -5 15 210.69 107.563 10
-4 -5 14 1051.63 174.614 29
-4 -5 14 2171.4 228.614 10
-4 -5 13 517.114 191.935 10
-4 -5 12 8812.97 577.29 10
-4 -5 12 9457.53 583.869 8
-4 -5 11 5418.01 412.532 27
-4 -5 11 6333.15 492.456 8
-4 -5 10 9796.16 615.406 27
-4 -5 10 12070.1 721.635 8
4 5 -9 230.748 129.234 2
-4 -5 9 215.254 196.654 8
-4 -5 9 128.973 125.363 36
-4 -5 8 13972.9 1283.48 24
4 5 -8 13714.9 720.715 2
-4 -5 8 13101.1 817.462 8
-4 -5 8 13879.5 740.565 36
4 5 -8 10667 1115.15 16
-4 -5 7 1315.04 201.66 7
-4 -5 7 1856.53 515.001 24
4 5 -7 1921.29 227.999 2
-4 -5 7 1962.03 293.832 8
-4 -5 7 1861.65 244.18 36
-4 -5 6 9609.5 583.346 7
4 5 -6 10786.8 601.151 2
-4 -5 6 10581.4 612.059 36
-4 -5 5 14734.9 783.53 7
4 5 -5 13598.9 769.258 2
-4 -5 5 13811.8 792.647 36
4 5 -4 679.892 187.974 2
4 5 -3 30086.5 1492.13 2
-4 -5 3 32696.5 1529.18 36
-4 -5 2 639.984 207.682 36
4 5 -1 35739.2 1697.85 2
-4 -5 1 36668.9 1727.13 36
-4 -5 0 9584.59 1032.26 24
4 5 0 11828.1 658.86 2
-4 -5 0 11118.9 680.38 36
4 5 1 65341.7 2734.54 2
4 5 1 56060.4 2705.38 19
-4 -5 -1 64026.5 2766.91 36
4 5 2 14188.4 731.601 2
4 5 2 12836.8 744.696 19
-4 -5 -2 14185.3 765.742 36
4 5 3 44177.2 2002.68 19
-4 -5 -3 42812.8 1962.94 36
4 5 4 2015.78 250.294 19
4 5 5 2937.5 331.772 20
4 5 5 3218.16 302.324 19
4 5 6 4034.69 366.734 20
4 5 6 4212.31 324.27 19
4 5 7 9891.46 575.016 20
4 5 7 9326.06 530.254 19
4 5 8 12.8854 94.4476 19
-4 -6 14 72.6094 80.6066 10
-4 -6 13 4049.5 303.849 10
-4 -6 12 262.011 137.516 10
-4 -6 11 2197.7 267.645 10
4 6 -10 177.649 92.5834 2
4 6 -9 1923 199.679 2
4 6 -8 2250.93 235.256 2
-4 -6 8 2636.12 257.68 36
4 6 -7 306.967 148.564 2
-4 -6 7 313.785 130.289 7
-4 -6 7 374.553 170.132 36
-4 -6 6 11746.1 672.435 7
4 6 -6 12415.2 683.536 2
-4 -6 6 12260.1 698.158 36
-4 -6 5 1719.65 231.548 7
4 6 -5 2052.23 247.389 2
-4 -6 4 29409.3 1421.34 7
4 6 -4 29423.8 1412.93 2
-4 -6 4 29225.4 1437.45 36
-4 -6 3 16204.4 888.426 36
4 6 -2 17317 911.908 2
-4 -6 2 17724.2 941.201 36
4 6 -1 953.682 186.805 2
-4 -6 1 869.763 207.324 36
4 6 0 19636.6 952.054 2
-4 -6 0 21806 1003.52 36
4 6 1 15091.6 756.031 2
-4 -6 -1 16357.2 798.084 36
4 6 2 3369.36 328.004 20
4 6 2 3012.98 256.227 19
-4 -6 -2 3166.08 273.406 36
4 6 3 1557.75 236.916 20
4 6 3 1533.62 187.18 19
4 6 4 3079.84 286.226 20
4 6 4 2693.31 235.131 19
4 6 5 203.198 129.235 20
4 6 5 111.175 97.5942 19
4 6 6 2167.5 199.354 20
-4 -7 11 -39.7017 83.1071 10
-4 -7 10 40.3864 98.7072 10
4 7 -10 26.6618 64.9416 2
4 7 -9 265.452 99.3509 2
-4 -7 9 550.895 135.871 10
4 7 -8 68.8346 100.228 2
-4 -7 8 39.1326 112.878 36
4 7 -7 3729.58 287.86 2
-4 -7 7 4026 304.994 36
4 7 -6 2525.19 246.968 2
-4 -7 6 3238.31 273.452 36
-4 -7 6 2619.77 246.594 7
-4 -7 5 1731.86 208.231 7
4 7 -5 1614.76 210.63 2
-4 -7 4 4860.64 365.27 7
-4 -7 4 5926.36 392.909 36
-4 -7 3 719.163 168.904 7
-4 -7 3 968.778 183.431 36
4 7 -3 741.086 162.9 2
-4 -7 2 3889 315.756 7
4 7 -2 3343.72 283.464 2
-4 -7 2 3917.69 312.235 36
4 7 -1 1314.86 170.855 2
-4 -7 1 1336.03 196.339 36
-4 -7 0 175.325 118.18 36
-4 -7 -1 203.067 98.3742 36
4 7 2 167.082 88.537 20
4 8 -8 1694.33 143.929 2
4 8 -7 626.702 110.242 2
-4 -8 7 876.309 117.701 36
4 8 -6 2398.86 193.307 2
-4 -8 5 1206.73 146.066 36
4 8 -5 830.15 133.195 2
-4 -8 5 1076.89 129.957 7
-4 -8 4 2179.95 191.863 36
-4 -8 4 1997.04 182.546 7
-4 -8 3 36.6715 89.6145 7
4 8 -3 -17.083 81.5752 2
-4 -8 3 130.393 94.9884 36
-4 -8 2 2785.99 204.995 7
4 8 -2 2273.97 184.61 2
-4 -8 2 2887.09 202.537 36
-4 -8 1 562.576 101.364 7
-5 9 0 3652.71 378.097 13
-5 9 -1 506.619 237.366 13
-5 9 -2 720.051 253.886 13
-5 9 -3 6558.28 532.793 13
-5 9 -4 904.4 264.954 13
5 -9 5 3064.14 205.834 6
-5 9 -5 3996.8 396.987 13
5 -9 6 45.2035 67.152 6
5 -9 7 2248.48 170.392 6
5 -9 8 2376.32 171.742 6
5 -9 9 10081.9 481.192 6
5 -9 9 9920.87 475.593 5
5 -9 10 105.789 47.8007 6
-5 8 4 -48.7034 210.963 13
-5 8 3 3626.04 433.497 13
-5 8 2 3602.33 450.827 13
-5 8 1 22.9429 279.035 13
-5 8 0 2320.49 428.574 13
-5 8 -1 4904.14 486.612 15
-5 8 -1 5387.7 576.704 13
-5 8 -2 8396.86 550.767 14
-5 8 -2 9452.34 740.515 13
5 -8 3 3136.91 236.965 6
5 -8 4 2923.99 234.351 6
5 -8 5 2070.67 199.248 6
5 -8 6 5832.09 365.16 6
5 -8 7 -15.6769 96.2296 6
5 -8 8 528.534 124.724 6
5 -8 9 3011.58 229.225 6
5 -8 10 1615.53 153.952 6
5 -8 10 1336.37 144.68 5
5 -8 12 1552.7 116.735 6
-5 7 7 506.992 231.942 13
-5 7 6 -307.638 265.922 13
-5 7 6 17.7062 214.417 12
-5 7 5 6502.3 598.387 13
-5 7 5 5655.84 542.635 12
-5 7 4 2026.6 422.168 13
-5 7 3 466.431 255.667 15
-5 7 3 26.9657 312.317 13
-5 7 2 5219.95 536.449 15
-5 7 2 5105.87 602.843 13
-5 7 1 4905.17 552.889 15
-5 7 1 4263.98 399.674 14
-5 7 1 4823.4 584.586 13
-5 7 0 7055.47 518.66 14
-5 7 0 6272.05 685.426 13
-5 7 -1 61.9448 173.568 14
-5 7 -2 5550.48 445.412 14
5 -7 2 5783.6 361.083 6
-5 7 -3 161.158 157.169 14
5 -7 3 362.557 121.877 6
5 -7 4 3331.08 275.212 6
5 -7 5 149.614 110.703 6
5 -7 6 130.666 122.939 6
5 -7 7 437.521 136.667 6
5 -7 8 115.221 118.514 6
5 -7 9 3684.93 289.073 6
5 -7 10 1742.27 184.358 5
5 -7 11 1355.1 159.951 6
5 -7 11 1440.74 154.606 5
5 -7 12 987.876 121.074 6
-5 6 9 1562 284.653 13
-5 6 9 1254.63 242.018 12
-5 6 8 100.086 266.535 13
-5 6 8 160.461 244.005 12
-5 6 7 896.319 335.183 13
-5 6 7 323.662 289.116 12
-5 6 6 588.657 270.638 15
-5 6 6 952.071 359.079 13
-5 6 6 1004.77 352.329 12
-5 6 5 14797.3 978.595 15
-5 6 5 15154.7 1050.04 13
-5 6 4 1508.71 377.9 15
-5 6 4 1552.01 424.853 13
-5 6 3 5275.79 607.332 15
-5 6 3 6944.31 689.32 13
-5 6 2 25685.5 1474.89 15
-5 6 2 23075.6 1476.37 13
-5 6 1 3433.69 366.255 14
-5 6 1 3317.15 530.743 13
-5 6 0 34119.6 1679.75 14
-5 6 -1 4214.86 396.812 14
-5 6 -2 125.657 150.836 14
5 -6 2 133.306 102.618 6
-5 6 -3 1780.79 260.417 14
5 -6 3 2208.4 224.325 6
5 -6 4 8758.37 524.227 6
5 -6 5 434.484 141.12 6
5 -6 6 8620.46 528.988 6
5 -6 7 8370.43 519.602 6
5 -6 8 22.1249 130.025 6
5 -6 8 -12.1395 125.015 37
5 -6 9 18024 936.172 37
5 -6 10 250.018 130.551 5
5 -6 10 115.602 118.487 37
5 -6 11 7925.22 465.566 6
5 -6 11 8074.04 460.164 5
5 -6 12 936.377 135.207 6
-5 5 10 18.361 232.596 13
-5 5 9 104.27 218.367 15
-5 5 9 341.509 288.521 13
-5 5 8 759.265 296.464 15
-5 5 8 967.588 367.166 13
-5 5 7 14139.1 991.036 15
-5 5 7 16617.9 1081.96 13
-5 5 6 1185.43 372.305 15
-5 5 6 1425.8 406.68 13
-5 5 5 52193.9 2508.2 15
-5 5 5 52198.2 2524.3 13
-5 5 5 45854.2 2211.03 17
-5 5 4 20538.8 1244.7 15
-5 5 4 20255 1244.94 13
-5 5 4 17071.4 965.65 17
-5 5 3 53833.4 2632.64 15
5 -5 -3 57732.2 2927.63 1
-5 5 3 50693.6 2598.68 13
-5 5 3 49163.5 2351.59 17
-5 5 2 7331.21 698.971 13
-5 5 1 27294.4 1395.35 14
-5 5 1 27960.6 1582.85 13
-5 5 0 2024.86 272.091 14
-5 5 -1 9907.68 640.91 14
5 -5 1 10216.8 556.8 6
5 -5 2 8310.56 486.213 6
5 -5 3 1323.72 178.556 6
5 -5 4 36284 1659.32 6
5 -5 4 34066 2109.25 23
5 -5 5 6893.6 435.261 6
5 -5 5 5972.99 744.221 23
5 -5 5 5798.21 431.882 37
5 -5 6 20610.4 1025.62 6
5 -5 6 18576.3 1476.06 23
5 -5 6 20207.9 1051.82 37
5 -5 7 5614.92 690.277 1
5 -5 7 6455.08 431.367 6
5 -5 7 4848.99 726.939 23
5 -5 7 5823.7 445.866 37
5 -5 8 17325.5 880.801 6
5 -5 8 16826.6 918.611 37
5 -5 9 29492.3 1318.54 5
5 -5 9 24092.9 1333.27 37
5 -5 10 15320.6 813.122 6
5 -5 10 15919.8 810.924 5
5 -5 10 14811.6 856.106 37
5 -5 11 2545.46 269.173 33
5 -5 11 3083.86 264.737 6
5 -5 11 2768.59 307.918 37
5 -5 12 311.287 124.042 33
5 -5 12 207.607 105.154 6
5 -5 12 284.069 152.258 37
5 -5 13 252.631 107.29 33
5 -5 14 517.106 117.604 30
-5 4 12 11421.4 682.994 12
-5 4 11 -246.036 236.865 15
-5 4 11 -19.491 252.243 13
-5 4 11 243.214 266.629 12
-5 4 10 18305.7 1087.44 15
-5 4 10 18835.6 1150.07 13
-5 4 10 19440.7 1183.93 12
-5 4 9 1043.01 347.679 15
-5 4 9 1588.39 400.302 13
-5 4 9 1916.37 471.292 12
-5 4 8 17711 1181.83 15
-5 4 8 20084.6 1248.47 13
-5 4 8 20407.4 1309.3 12
-5 4 7 1360.63 404.846 15
-5 4 7 1576.24 406.669 13
-5 4 6 43838.6 2280.66 15
-5 4 6 43409 2264.65 13
-5 4 5 392.108 322.881 13
-5 4 4 29671.8 1622.95 13
-5 4 4 26256.2 2085.11 26
5 -4 -4 29951.6 1819.09 1
-5 4 3 2345.49 408.319 13
5 -4 -3 2727.46 476.195 1
5 -4 -2 25343.2 1589.86 1
-5 4 2 21955.2 1305.21 13
-5 4 2 20549.8 1728.27 26
-5 4 1 1601.01 507.73 26
-5 4 1 1276.61 320.038 13
-5 4 0 10527.1 1119.35 26
5 -4 1 20987.7 999.273 6
-5 4 -1 21864 1659.91 26
5 -4 1 19794.3 1349.17 23
5 -4 2 25765.3 1184.27 6
-5 4 -2 23133.3 1773.51 26
5 -4 2 23618.5 1574.5 23
5 -4 2 24865.2 1210.69 37
5 -4 3 52576.7 2335.06 6
5 -4 3 49181.6 2796.33 23
5 -4 3 53635.8 2375.26 37
5 -4 4 75893.6 3195.34 6
5 -4 4 68080.4 3702.26 23
5 -4 4 70978.4 3225.96 37
5 -4 5 8328.37 859.376 1
5 -4 5 8175.89 511.15 6
5 -4 5 8021.82 884.277 23
5 -4 5 8912.12 557.972 37
5 -4 6 12821 697.608 6
5 -4 6 11902.4 1120.6 23
5 -4 6 12186.5 734.81 37
5 -4 6 12203.7 1052.16 1
5 -4 7 9481.08 560.661 6
5 -4 7 8349.88 943.729 23
5 -4 7 7121.26 779.39 1
5 -4 7 8992.03 599.034 37
5 -4 8 20728.8 1652.16 23
5 -4 8 23123.8 1198.63 37
5 -4 9 1970.46 241.207 6
5 -4 9 1926.07 484.013 23
5 -4 9 2069.5 250.838 5
5 -4 9 1939.51 290.127 37
5 -4 10 3975.3 326.239 6
5 -4 10 3591.3 288.264 11
5 -4 10 4023.92 325.479 5
5 -4 10 3236.77 367.68 37
5 -4 11 3924.18 308.207 6
5 -4 11 3210.59 273.559 11
5 -4 11 4030.46 311.312 5
5 -4 11 3918.79 374.4 37
5 -4 12 23.0671 129.253 33
5 -4 12 8.40203 102.187 6
5 -4 12 -13.6386 140.454 37
5 -4 13 1566.08 200.28 33
5 -4 13 1578.13 216.309 37
5 -4 14 402.228 113.282 33
5 -4 14 87.8007 129.595 30
-5 3 13 5389.53 405.535 15
-5 3 12 200.036 254.545 15
-5 3 12 828.111 267.075 12
-5 3 11 8111.65 651.058 15
-5 3 11 6891.4 641.354 13
-5 3 11 6223.6 624.365 12
-5 3 10 2815.47 446.942 15
-5 3 10 2175.94 433.611 13
-5 3 10 2341.16 459.684 12
-5 3 9 1939.46 426.558 13
-5 3 9 2745.41 497.027 12
-5 3 8 367.262 297.01 13
-5 3 7 3850.47 503.451 13
-5 3 7 3444.43 678.639 26
-5 3 6 916.32 377.298 15
-5 3 6 362.46 300.442 13
-5 3 6 416.555 348.624 26
-5 3 5 16734.2 1083.33 15
-5 3 5 15382.5 1010.6 13
-5 3 5 16446 1470.84 26
5 -3 -5 15660.6 1147.79 1
-5 3 4 13586 936.01 15
-5 3 4 12857.7 862.47 13
-5 3 4 13802.6 1303.74 26
5 -3 -4 11512 983.04 1
-5 3 3 17454.1 1064.81 15
-5 3 3 14829 955.466 13
5 -3 -3 15702.2 1168.97 1
5 -3 -2 358.436 230.814 1
-5 3 2 607.527 373.117 26
-5 3 2 287.909 204.44 13
-5 3 2 50.2013 290.786 25
5 -3 -1 44312.9 2439.55 1
-5 3 1 44721.2 2681.07 26
-5 3 1 44113.3 2576.93 25
5 -3 0 13427.8 1052.8 1
-5 3 0 13747.5 1226.17 26
5 -3 0 13317.2 716.087 37
5 -3 1 32711.1 1487.87 6
-5 3 -1 34215.3 2134.31 26
-5 3 -1 33753.9 2079.83 25
5 -3 1 32515.2 1536.19 37
5 -3 2 688.591 291.371 1
-5 3 -2 153.873 271.308 26
-5 3 -2 393.694 290.987 25
5 -3 2 245.029 102.699 6
5 -3 2 439.014 137.833 37
5 -3 3 56145.8 2861.76 1
5 -3 3 52946.8 2363.75 6
-5 3 -3 52465.8 2930.6 26
-5 3 -3 54705.8 2971.83 25
5 -3 3 52941.9 2407.21 37
-5 3 -4 507.51 283.838 26
5 -3 4 333.946 126.407 6
5 -3 4 371.35 239.541 1
5 -3 4 726.844 172.069 37
5 -3 5 17562.6 888.857 6
5 -3 5 17862.8 1362.14 23
5 -3 5 15308.6 1208.76 1
5 -3 5 17621.7 943.719 37
5 -3 6 6469.86 433.402 6
5 -3 6 6652.52 821.592 23
5 -3 6 6228.39 685.137 1
5 -3 6 6469.7 434.826 5
5 -3 6 5651.59 460.868 37
5 -3 7 186.132 201.673 1
5 -3 7 286.769 262.517 23
5 -3 7 148.802 177.035 37
5 -3 8 6207.94 492.113 37
5 -3 8 6127.36 429.359 6
5 -3 8 4734.92 743.077 23
5 -3 9 4650.44 433.422 37
5 -3 9 5024.81 383.939 6
5 -3 9 4559.74 345.624 11
5 -3 9 5162.11 388.458 5
5 -3 10 4544.54 354.107 6
5 -3 10 4439.04 333.369 11
5 -3 10 4478.33 355.831 5
5 -3 10 4425.68 503.953 21
5 -3 10 4531.81 431.794 37
5 -3 11 2005.54 223.616 6
5 -3 11 1708.46 324.525 21
5 -3 11 2103.43 289.582 37
5 -3 12 1356.34 198.566 3
5 -3 12 1305.06 236.336 37
5 -3 13 2846.79 271.169 33
5 -3 14 1018.89 147.823 33
5 -3 14 702.284 165.556 30
-5 2 13 2016.13 415.193 15
-5 2 13 27434.4 855.799 12
-5 2 12 862.67 267.149 12
-5 2 11 474.452 316.687 13
-5 2 11 266.799 292.658 12
-5 2 10 2398.94 440.751 15
-5 2 10 2277.92 439.469 13
-5 2 10 2107.73 438.379 12
-5 2 9 -28.0934 321.755 15
-5 2 9 189.497 311.691 13
-5 2 9 -95.3149 314.012 12
-5 2 8 253.325 310.15 15
-5 2 8 57.4981 205.041 29
-5 2 8 -15.0551 181.391 28
-5 2 8 -52.3842 280.194 13
-5 2 8 195.828 278.039 26
-5 2 8 128.064 175.599 8
-5 2 7 3641.82 488.423 15
-5 2 7 2960.26 354.967 29
-5 2 7 3630.04 359.931 28
-5 2 7 2630.7 430.164 13
-5 2 7 3514.24 677.881 26
-5 2 6 1304.63 351.052 15
-5 2 6 1637.8 259.592 28
-5 2 6 1580.69 331.731 13
-5 2 6 1492 482.226 26
5 -2 -6 1135.96 298.67 1
5 -2 -5 1543.84 333.467 1
-5 2 5 1058.93 309.934 15
-5 2 5 1806.12 491.044 26
-5 2 5 1206.03 280.213 13
-5 2 5 1343.97 371.264 25
-5 2 4 53052.2 2587.74 15
-5 2 4 54091.3 2933.92 25
5 -2 -4 53935 2775.34 1
-5 2 3 3387.79 422.865 15
-5 2 3 2527.66 284.291 28
-5 2 3 2811.85 567.23 26
-5 2 3 2469.69 487.416 25
5 -2 -3 2491.27 418 1
-5 2 3 2825.42 252.663 36
-5 2 2 19461.4 1016.29 28
-5 2 2 21179.7 1536.51 26
-5 2 2 22042.7 1461.87 25
5 -2 -2 21069.9 1340.57 1
-5 2 2 18823 960.699 36
-5 2 1 44739.9 2113.42 28
-5 2 1 50216.9 2731.79 26
5 -2 -1 49302.3 2508.44 1
5 -2 0 1117.68 142.349 6
5 -2 0 1502.79 339.544 1
-5 2 0 1370.66 395.761 26
-5 2 0 1466.63 385.863 25
-5 2 0 1474.88 187.109 36
5 -2 1 47715.3 2157.3 6
-5 2 -1 54945.1 2811.03 26
-5 2 -1 53646.2 2759.19 25
5 -2 1 49166.1 2217.49 37
-5 2 -1 48822.2 2189.53 36
5 -2 2 6316.2 379.717 6
-5 2 -2 5470.81 697.807 26
-5 2 -2 5253.51 679.445 25
5 -2 2 6827.64 676.225 1
5 -2 2 6098.47 421.833 37
-5 2 -2 5547.89 379.797 36
5 -2 3 2220.6 219.959 6
-5 2 -3 2211.1 445.207 26
-5 2 -3 2834.59 516.168 25
5 -2 3 2268.95 215.383 5
5 -2 3 2252.47 404.886 1
-5 2 -3 2236.44 220.721 36
5 -2 3 2804.83 273.792 37
5 -2 4 2576.68 244.969 6
-5 2 -4 2440.6 499.105 25
5 -2 4 2229.92 403.847 1
5 -2 4 2804.33 253.448 5
5 -2 4 3109.11 300.974 37
5 -2 5 3415.98 292.172 6
5 -2 5 3332.39 497.119 1
-5 2 -5 2885.59 526.527 25
5 -2 5 4032.41 313.1 5
5 -2 5 3638.89 340.989 37
5 -2 6 218.455 289.464 23
5 -2 6 613.779 166.443 5
5 -2 6 850.056 273.652 1
5 -2 6 516.682 181.452 37
5 -2 7 333.587 154.679 6
5 -2 7 673.516 204.874 37
5 -2 8 15081.1 825.375 6
5 -2 8 14330.6 1319.02 23
5 -2 8 15926.2 914.43 37
5 -2 9 3570.69 313.975 6
5 -2 9 3289.06 598.664 23
5 -2 9 3669.14 327.673 5
5 -2 10 20050.4 992.099 6
5 -2 10 18256.6 1187.24 21
5 -2 11 1371.17 235.307 3
5 -2 11 1200.69 173.8 6
5 -2 11 1387.38 339.622 21
5 -2 11 1161.54 249.126 37
5 -2 12 2874.54 294.254 3
5 -2 12 2269.77 334.756 21
5 -2 12 2294.02 285.976 37
5 -2 13 3885.83 316.821 37
-5 1 13 11450 776.191 15
-5 1 12 -295.613 353.533 15
-5 1 12 152.007 192.81 29
-5 1 11 -178.271 390.151 15
-5 1 11 463.415 223.681 29
-5 1 11 366.14 181.289 28
-5 1 11 351.035 274.985 12
-5 1 10 375.442 328.055 15
-5 1 10 228.338 218.478 29
-5 1 10 257.187 179.293 28
-5 1 10 332.608 274.122 13
-5 1 10 605.777 305.524 12
-5 1 10 645.753 239.611 8
-5 1 9 54.027 299.602 15
-5 1 9 241.781 200.537 29
-5 1 9 421.365 206.151 28
-5 1 9 251.325 260.808 13
-5 1 9 249.929 304.573 26
-5 1 9 321.122 233.479 8
-5 1 9 509.433 312.081 12
-5 1 8 6240.11 602.476 15
-5 1 8 4470.63 441.985 29
-5 1 8 5319.77 542.824 13
-5 1 8 5609.13 445.719 28
-5 1 8 5051.28 771.404 26
-5 1 8 5355.65 581.687 12
-5 1 7 2046.86 401.324 15
-5 1 7 2168.14 296.185 29
-5 1 7 2602.35 303.438 28
-5 1 7 2195.13 354.796 13
-5 1 7 2648.17 575.032 26
-5 1 7 2092.28 424.199 25
5 -1 -6 34340.8 1934.13 1
-5 1 6 33732.4 1787.76 15
-5 1 6 37558.5 2327.15 26
-5 1 6 35247.2 2070.52 25
-5 1 6 34218.6 1571 36
-5 1 5 1841.19 342.065 15
-5 1 5 2200.6 279.929 28
-5 1 5 2567.16 553.42 26
-5 1 5 1934.37 442.496 25
5 -1 -5 1802.03 364.277 1
-5 1 5 2015.31 221.936 36
-5 1 4 113872 5059.35 15
5 -1 -4 122119 5332.7 1
-5 1 4 112385 4937.93 28
-5 1 4 126680 5517.92 25
-5 1 4 111662 4877.87 36
-5 1 3 3980.42 426.148 15
-5 1 3 3806.29 338.561 28
5 -1 -3 4062.71 522.837 1
-5 1 3 5594.58 730.697 26
-5 1 3 4760.62 621.82 25
-5 1 3 4052.17 307.233 36
-5 1 2 78338 3474.57 15
-5 1 2 75971.2 3368.02 28
-5 1 2 87893.7 4064.32 26
5 -1 -2 82863.2 3782.66 1
-5 1 2 73728.3 3327.97 36
-5 1 1 13382.3 743.011 28
-5 1 1 14315.4 1165.95 26
5 -1 -1 15390.5 1065.01 1
5 -1 0 23977.7 1124.49 6
-5 1 0 23261 1169.38 28
-5 1 0 24644.9 1157.72 36
5 -1 1 3483.92 259.305 6
-5 1 -1 3485.48 559.931 26
5 -1 1 3518.98 480.999 1
5 -1 1 3296.8 247.972 5
-5 1 -1 3541.55 278.47 36
5 -1 2 26746.8 1249.07 6
5 -1 2 28008 1655.77 1
-5 1 -2 28410.5 1729.27 26
-5 1 -2 31256 1790.09 25
5 -1 2 24665.6 1223.32 5
5 -1 2 27687.4 1316.04 37
-5 1 -2 27067 1257.74 36
5 -1 3 21136.5 1019.85 6
5 -1 3 22996.9 1415.16 1
-5 1 -3 22434.3 1433.3 26
-5 1 -3 20331 1453.64 25
5 -1 3 19750.5 996.94 5
5 -1 3 21853.4 1086.01 37
-5 1 -3 20450.2 1012.49 36
5 -1 4 24241.2 1143.48 6
5 -1 4 22216.5 1475.86 1
-5 1 -4 25825.4 1613.96 25
5 -1 4 22728.8 1129.14 5
5 -1 4 23826.6 1211.2 37
-5 1 -4 23410.1 1124.45 36
5 -1 5 11765.2 958.762 1
-5 1 -5 11522.2 1013.35 25
5 -1 5 11707.7 665.117 5
-5 1 -5 11969.5 635.911 36
5 -1 6 59564.4 2626.7 5
5 -1 6 56744.1 2974.7 1
5 -1 7 6280.54 431.281 6
5 -1 7 4807.21 754.118 23
5 -1 7 5868.9 487.346 37
5 -1 8 10755.5 633.476 6
5 -1 8 9575.36 1066.35 23
5 -1 8 11593.1 731.161 37
5 -1 9 6519.23 468.819 3
5 -1 9 5452.38 403.661 6
5 -1 9 5697.39 480.371 37
5 -1 10 24810.8 1568.84 21
5 -1 10 25783.4 1435.51 37
5 -1 11 1646.6 254.722 3
5 -1 11 1193.45 333.74 21
5 -1 11 1427.85 236.888 37
5 -1 12 3141.52 340.684 30
5 -1 12 3314.79 399.833 21
5 -1 12 3181.78 303.854 37
5 -1 13 59.4558 111.805 33
5 -1 13 97.1781 133.231 30
5 -1 13 212.672 181.041 21
-5 0 14 12960.8 811.184 15
-5 0 13 1376.02 348.109 15
-5 0 13 340.495 206.963 29
-5 0 12 508.981 230.186 29
-5 0 12 441.353 220.323 8
-5 0 11 4224.2 542.904 15
-5 0 11 3947.41 422.37 29
-5 0 11 4588.76 404.861 28
-5 0 11 4532.64 434.491 12
-5 0 11 4773.15 469.283 8
-5 0 10 1172.24 332.172 15
-5 0 10 831.841 239.302 29
-5 0 10 1002.23 235.822 28
-5 0 10 784.927 276.966 12
-5 0 10 980.218 218.439 10
-5 0 10 1143.96 299.963 8
-5 0 9 43358.5 2238.09 15
-5 0 9 42932.2 2112.54 29
-5 0 9 49409.2 2119.62 28
-5 0 9 45698.7 2766.65 26
-5 0 9 41005.3 2187.23 12
-5 0 8 913.72 309.994 15
-5 0 8 874.022 225.128 29
-5 0 8 1133.28 235.985 28
-5 0 8 1147.81 400.722 26
-5 0 7 41844.4 2056.75 15
-5 0 7 44429.4 2640.76 26
-5 0 7 38166.3 2293.74 25
5 0 -7 38676.5 2198.78 1
-5 0 7 41156 1837 36
-5 0 6 21722.3 1247.27 15
-5 0 6 22977.6 1165.39 28
-5 0 6 26273.4 1807.94 26
5 0 -6 21087.8 1415.32 1
-5 0 6 22802.2 1087.69 36
-5 0 5 58724.9 2867.32 15
-5 0 5 64788.2 2797.05 28
-5 0 5 61633.8 2724.51 36
5 0 -5 63479.7 3149.59 1
5 0 -4 2791.19 439.359 1
-5 0 4 2316.23 320.158 15
-5 0 4 2834.9 283.144 28
-5 0 4 2531.32 242.192 36
5 0 -3 81130.6 3690.1 1
-5 0 3 72263 3214.4 36
-5 0 3 74157.3 3254.98 28
5 0 -2 2989.5 454.734 1
-5 0 2 2299.97 250.143 28
-5 0 1 32320.1 1527.11 28
-5 0 1 32153.2 1509.74 36
-5 0 0 197.394 126.975 28
5 0 0 230.81 105.272 6
5 0 0 185.373 81.0315 5
-5 0 0 323.076 130.256 36
5 0 1 79206 3704.02 1
5 0 1 72567.5 3203.33 6
5 0 1 71834.1 3179.39 5
-5 0 -1 77040 3221.79 36
5 0 2 23599.1 1466.65 1
5 0 2 22030.1 1066.78 6
-5 0 -2 23014.1 1508.45 26
5 0 2 21002.4 1039.33 5
-5 0 -2 22475 1068.06 36
5 0 3 92792.5 4499.83 1
5 0 3 94238.4 4051.12 6
5 0 3 89925.6 4024.59 5
5 0 3 97797.1 4132.06 37
-5 0 -3 95144.8 4038.55 36
5 0 4 5211.32 378.016 6
5 0 4 6367.98 391.169 5
5 0 4 4869.2 426.222 37
5 0 4 4837.58 607.578 1
-5 0 -4 5019 361.646 36
-5 0 -5 86003.3 4343.01 25
5 0 5 83009.4 4254.98 1
5 0 5 93480.1 3973.8 37
5 0 6 361.977 186.637 3
5 0 6 363.807 152.977 6
5 0 6 327.821 184.013 37
5 0 7 14564.5 1408.5 23
5 0 7 21665.3 1107.73 37
5 0 8 171.817 262.202 23
5 0 8 262.464 186.273 37
5 0 9 19137.6 947.148 3
5 0 9 12857.8 856.269 37
5 0 10 1707.69 262.952 3
5 0 10 1738.84 254.291 37
5 0 11 1298.18 241.362 30
5 0 12 2063.36 225.762 33
5 0 12 2688.47 334.389 21
-5 -1 14 1967.08 247.893 29
-5 -1 13 2369.89 311.332 29
-5 -1 13 2762.44 345.833 8
-5 -1 12 6691.47 607.379 15
-5 -1 12 5917.98 497.182 29
-5 -1 12 6079.87 456.002 28
-5 -1 12 6843.59 494.641 10
-5 -1 12 7771.63 583.141 8
-5 -1 11 504.69 318.597 15
-5 -1 11 169.79 196.927 29
-5 -1 11 565.726 211.642 28
-5 -1 11 210.497 192.582 10
-5 -1 11 202.065 262.86 8
-5 -1 10 11898 897.605 15
-5 -1 10 11943.9 783.099 29
-5 -1 10 15188 811.08 28
-5 -1 10 10458.5 1140.76 26
-5 -1 10 14620.5 919.741 8
-5 -1 9 2113.94 429.745 15
-5 -1 9 3158.91 345.316 29
-5 -1 9 3287.3 643.265 26
-5 -1 8 12331.2 830.393 15
-5 -1 8 11857 636.648 36
-5 -1 7 7907 618.774 15
5 1 -7 7162.29 743.33 1
-5 -1 7 7682.47 467.096 36
-5 -1 6 15303.1 977.88 15
5 1 -6 15604.4 1201.03 1
5 1 -5 1317.84 355.11 1
-5 -1 5 1518.9 200.878 36
-5 -1 4 48953.3 2751.36 24
5 1 -4 51179.6 2655.61 1
-5 -1 4 48006.4 2180.04 36
-5 -1 3 5661.12 702.792 24
5 1 -3 5051.79 620.023 1
-5 -1 3 5291.82 377.087 36
-5 -1 2 29019.2 1868.19 24
5 1 -2 31420.6 1853.83 1
-5 -1 1 398.331 139.778 28
-5 -1 1 519.194 298.56 24
-5 -1 1 457.774 152.523 36
5 1 0 91225 3706.46 3
-5 -1 0 81671.8 4189.13 24
5 1 0 84583.2 4195.66 1
-5 -1 0 81125.6 3703.81 36
5 1 1 1641.25 206.781 3
5 1 1 1084.65 339.293 1
-5 -1 -1 1316.99 187.619 36
-5 -1 -2 72426.6 3304.13 36
5 1 2 70780.5 3763.82 1
5 1 2 73039.2 3376.06 37
5 1 3 6144.72 424.289 3
5 1 3 5127.21 647.027 1
5 1 3 5740.79 450.505 37
-5 -1 -3 5284.59 380.927 36
5 1 4 41430.3 1937.11 37
-5 -1 -4 37598.2 1824.69 36
5 1 5 4581.48 399.682 3
5 1 5 3546.37 285.866 2
5 1 5 3621.47 361.546 37
5 1 6 171.29 220.746 3
5 1 6 16.6434 162.147 37
5 1 7 435.131 280.532 23
5 1 7 372.481 176.078 37
5 1 8 273.329 134.682 32
5 1 8 145.249 309.145 21
5 1 8 464.664 164.766 37
5 1 9 2462.1 237.103 32
5 1 9 2491.35 436.471 21
5 1 10 5183.28 342.12 32
5 1 10 6853.02 579.984 21
5 1 11 8332.43 595.225 21
5 1 11 7374.43 454.599 19
-5 -2 14 257.388 154.206 29
-5 -2 13 90.5875 158.405 29
-5 -2 13 194.609 150.863 28
-5 -2 13 349.187 175.482 10
-5 -2 13 351.911 213.409 8
-5 -2 12 630.682 210.738 29
-5 -2 12 907.831 217.383 28
-5 -2 12 866.736 235.763 10
-5 -2 11 59.3016 296.294 15
-5 -2 11 92.3268 177.181 29
-5 -2 11 -19.1843 208.943 10
-5 -2 10 552.252 313.111 15
-5 -2 10 570.247 203.261 29
-5 -2 9 879.927 298.231 15
5 2 -8 846.246 149.338 2
-5 -2 8 712.353 153.436 36
5 2 -7 576.761 144.702 2
-5 -2 7 697.553 364.274 24
5 2 -7 643.391 292.217 1
-5 -2 7 670.463 164.812 36
5 2 -6 1365.52 377.255 1
5 2 -6 1575.01 200.993 2
-5 -2 6 1640.64 219.959 36
-5 -2 5 7045.2 839.521 24
5 2 -5 7527.59 792.869 1
5 2 -5 6793.02 442.425 2
-5 -2 5 6755.91 452.116 36
-5 -2 4 839.23 367.736 24
5 2 -4 404.777 261.923 1
-5 -2 4 815.188 175.594 36
-5 -2 3 56897.3 3158.53 24
5 2 -3 59286.3 3111.63 1
-5 -2 2 25215.4 1698.61 24
5 2 -2 25149.1 1655.97 1
-5 -2 2 24319 1199.34 36
-5 -2 1 614.922 327.316 24
-5 -2 1 799.997 180.296 36
-5 -2 0 36803 2259.53 24
5 2 0 37783.8 2282.69 1
-5 -2 0 37210.2 1805.34 36
5 2 0 42399 1822.86 3
5 2 1 1445.6 222.165 3
5 2 1 1266.63 200.788 2
-5 -2 -1 1320.7 375.221 24
5 2 1 1394.83 388.17 1
5 2 1 1235.51 226.735 37
-5 -2 -1 1209.49 206.456 36
5 2 2 6939.76 451.916 2
5 2 2 7145.93 505.344 37
-5 -2 -2 6660.07 454.305 36
5 2 2 8034.79 515.95 3
5 2 3 10200 975.097 1
5 2 3 11324 621.59 2
5 2 3 10107.6 670.246 37
-5 -2 -3 10407.7 625.458 36
5 2 3 12949.3 710.468 3
5 2 4 14195.5 777.491 2
5 2 4 15868.6 869.289 37
-5 -2 -4 15109.3 798.295 36
5 2 5 482.124 224.328 3
5 2 5 753.458 188.223 37
5 2 6 2965.26 463.306 21
5 2 6 3657.11 339.415 37
5 2 6 3826.14 374.929 3
5 2 7 -52.7805 282.306 21
5 2 8 1373.84 347.368 21
5 2 9 1095.3 158.067 32
5 2 9 1310.83 302.18 21
5 2 10 3500.85 364.576 21
5 2 10 3865 285.365 19
5 2 11 6479.02 370.576 19
-5 -3 14 1271.29 177.248 29
-5 -3 14 1772.02 215.56 10
-5 -3 13 10.5823 130.524 29
-5 -3 13 104.431 149.071 28
-5 -3 13 147.518 163.881 10
-5 -3 13 -92.122 196.191 8
-5 -3 12 2831.34 306.812 29
-5 -3 12 3977.75 390.057 10
-5 -3 12 3800.58 401.418 8
-5 -3 11 506.644 169.765 29
-5 -3 11 712.996 270.053 8
-5 -3 10 263.01 259.137 8
-5 -3 9 68.185 244.62 8
5 3 -8 175.611 114.535 2
-5 -3 8 243.714 322.036 24
-5 -3 8 357.718 147.401 36
-5 -3 7 10739.2 1158.29 24
5 3 -7 11690.1 641.184 2
-5 -3 7 12206.7 662.264 36
5 3 -6 687.575 165.603 2
5 3 -6 643.023 299.316 1
-5 -3 6 722.323 185.154 36
-5 -3 5 34951.7 2244.79 24
5 3 -5 35664.1 2156.92 1
5 3 -5 34890.1 1613.78 2
-5 -3 5 33215.1 1616.3 36
-5 -3 4 8669.27 954.758 24
5 3 -4 8712.69 901.334 1
5 3 -4 8351.43 518.18 2
-5 -3 4 7419.65 508.467 36
-5 -3 3 34051.3 2222.73 24
5 3 -3 34926.7 2203.57 1
5 3 -3 36294.5 1679.58 2
-5 -3 2 11797.2 689.07 36
-5 -3 2 11461.8 1111.67 24
-5 -3 1 27433.6 1874.69 24
5 3 -1 28727.8 1890.62 1
5 3 -1 29275 1379.46 2
-5 -3 1 27630 1376.21 36
-5 -3 0 25027.9 1246.77 36
-5 -3 0 23059.6 1689.95 24
5 3 0 23866.6 1729.28 1
5 3 0 25588.3 1240.39 2
5 3 0 25986.6 1280.72 37
5 3 1 13815.2 784.699 37
5 3 1 13086.4 1180.56 1
5 3 1 14102.3 757.911 2
-5 -3 -1 13439.3 767.11 36
5 3 2 3741.22 600.637 1
5 3 2 4699.52 353.979 2
5 3 2 3892.37 359.789 37
-5 -3 -2 4728.25 369.827 36
5 3 3 3546.74 581.022 1
5 3 3 4506.39 493.923 21
5 3 3 4421.46 335.972 2
5 3 3 4109.75 352.4 37
-5 -3 -3 4952.85 369.52 36
5 3 4 352.562 257.896 21
5 3 5 7861.74 645.847 21
5 3 6 430.091 245.623 21
5 3 7 9772.09 688.15 21
5 3 8 2119.24 207.182 32
5 3 8 2567.49 327.957 21
5 3 8 1960.31 271.985 20
5 3 8 2433.41 260.457 19
5 3 9 3937.05 259.43 32
5 3 9 3441.43 298.437 20
-5 -4 14 25.7175 103.077 28
-5 -4 14 152.694 116.91 10
-5 -4 13 597.834 162.074 28
-5 -4 13 645.413 187.784 8
-5 -4 12 928.741 227.785 8
-5 -4 11 2323.68 322.072 8
-5 -4 10 7107.35 561.438 8
5 4 -9 1683.36 189.946 2
-5 -4 9 1992.54 323.496 8
5 4 -8 10633.2 602.093 2
-5 -4 8 10258.2 734.177 8
-5 -4 8 11797.6 636.444 36
-5 -4 7 25339.7 1895.88 24
5 4 -7 25862.7 1252.94 2
-5 -4 7 26384.5 1271.96 36
5 4 -6 29402.5 2111.79 1
-5 -4 6 32289.6 2242.54 24
5 4 -6 35485.2 1626.15 2
-5 -4 6 35550.5 1641.68 36
5 4 -5 24036.5 1813.62 1
-5 -4 5 25727.1 1918.25 24
5 4 -5 27734.7 1331.35 2
-5 -4 5 28104.8 1348.44 36
5 4 -4 9733.32 1047.62 1
-5 -4 4 11101.5 1121.44 24
5 4 -4 11181.2 648.827 2
5 4 -3 1709.83 465.01 1
-5 -4 3 2630.88 559.447 24
5 4 -3 2285.22 269.785 2
-5 -4 3 1990.88 268.333 36
-5 -4 2 12925 1240.8 24
-5 -4 2 15288.1 832.314 36
5 4 -1 30159.7 2018.85 1
-5 -4 1 24916.9 1906.38 24
5 4 -1 30675 1438.64 2
5 4 -1 29342.8 1430.71 37
-5 -4 1 30304.6 1453.18 36
5 4 0 23054.8 1735 1
5 4 0 24817.5 1207.65 2
-5 -4 0 24235.9 1226.67 36
5 4 1 352.394 152.212 2
-5 -4 -1 461.418 186.156 36
5 4 2 23486.9 1166.38 2
-5 -4 -2 25037.6 1202.34 36
-5 -4 -3 344.289 151.11 36
5 4 4 22480.1 1122.6 19
5 4 5 236.568 158.319 19
5 4 6 9144.92 607.152 21
5 4 6 11205.2 597.509 19
5 4 7 1406.97 188.585 19
5 4 8 6184.7 347.226 32
5 4 8 5983.12 392.975 20
-5 -5 14 1150.11 132.95 10
-5 -5 13 712.729 151.965 10
-5 -5 12 1611.51 226.047 10
-5 -5 11 2447.89 293.151 10
-5 -5 11 2609.3 278.865 8
-5 -5 10 6589.64 478.9 8
5 5 -9 7990.06 457.25 2
-5 -5 9 8833.01 570.599 8
5 5 -8 7848.04 463.127 2
-5 -5 8 7831.56 549.767 8
-5 -5 8 7822.49 479.146 36
5 5 -7 2778.08 268.035 2
-5 -5 7 2914.73 324.262 8
-5 -5 7 2885.96 282.384 36
-5 -5 6 5978.91 415.995 36
5 5 -6 5821.2 398.576 2
-5 -5 6 4615.24 422.29 8
5 5 -5 2073.96 248.657 2
-5 -5 5 2607.65 280.64 36
-5 -5 4 15096.6 817.28 7
5 5 -4 16617.6 853.098 2
-5 -5 3 25904.5 1284.04 36
5 5 -2 6404.37 441.577 2
-5 -5 2 6117.78 456.804 36
5 5 -1 17557.8 906.863 2
-5 -5 1 17472.7 932.828 36
5 5 0 6458.16 429.156 2
-5 -5 0 6535.55 457.429 36
5 5 1 14472.9 756.286 2
-5 -5 -1 14899.8 788.693 36
5 5 2 8490.08 492.656 19
-5 -5 -2 8995.7 517.41 36
5 5 3 15605.9 779.619 19
5 5 4 -146.278 160.994 20
5 5 4 78.4928 116.551 19
5 5 5 990.452 191.732 20
5 5 5 1147.59 151.108 19
5 5 6 770.516 151.011 20
5 5 6 846.866 123.086 19
5 5 7 52.2133 72.4886 20
-5 -6 12 57.4067 93.0884 28
-5 -6 12 155.708 90.7914 10
-5 -6 11 1465.22 184.925 10
-5 -6 10 10.2928 126.942 10
5 6 -9 46.4788 78.5753 2
5 6 -8 217.177 109.214 2
5 6 -7 347.67 126.714 2
-5 -6 7 303.276 140.047 36
5 6 -6 1607.74 193.603 2
-5 -6 6 1494.3 204.44 36
5 6 -5 66.448 124.898 2
5 6 -4 2085.19 232.859 2
-5 -6 4 2639.16 264.359 36
-5 -6 3 1629.23 203.057 7
-5 -6 3 1840.18 230.143 36
5 6 -2 12162.9 675.278 2
-5 -6 2 13548.8 704.953 36
5 6 -1 6847.04 420.957 2
-5 -6 1 7053.67 446.051 36
5 6 0 74.5238 108.68 20
-5 -6 0 246.739 134.279 36
5 6 0 189.345 114.413 2
5 6 1 1844.51 222.645 20
-5 -6 -1 4163.39 261.037 36
5 6 2 438.247 129.37 20
5 6 3 225.885 105.531 20
5 6 4 188.714 82.0547 20
5 7 -8 423.443 87.1571 2
5 7 -7 93.9996 82.6498 2
-5 -7 7 11.3951 81.9078 36
-5 -7 6 940.218 138.307 36
5 7 -6 684.653 119.328 2
5 7 -5 1024.59 140.079 2
-5 -7 4 4016.96 283.363 36
5 7 -3 3306.03 235.098 2
-5 -7 3 3231.9 248.36 36
5 7 -2 751.075 122.048 2
-5 -7 2 961.669 140.579 36
-5 -7 1 3448.16 236.574 7
-5 -7 1 3766.83 241.415 36
-5 -7 0 971.688 121.782 7
-5 -7 -1 4615.3 260.882 7
-6 9 0 -17.7966 127.013 13
-6 9 -1 40.2196 143.529 13
-6 9 -2 1183.76 201.202 13
-6 9 -3 4607.52 362.299 13
-6 9 -4 670.83 172.91 13
-6 9 -5 5103.08 371.745 13
-6 9 -6 99.8079 117.814 13
6 -9 6 245.307 65.7664 5
6 -9 7 1747.41 126.328 5
-6 8 4 1037.15 186.937 13
-6 8 3 -51.3834 182.108 13
-6 8 2 284.727 215.68 13
-6 8 1 1027.21 263.819 13
-6 8 0 1932.1 294.733 15
-6 8 0 1982.94 333.262 13
-6 8 -1 1995.07 325.041 15
-6 8 -1 2716.52 368.806 13
-6 8 -2 2887.64 369.617 15
-6 8 -2 2354.05 354.582 13
-6 8 -3 822.13 267.367 13
6 -8 4 6238.51 343.959 6
-6 8 -4 6544.53 524.436 13
6 -8 5 9451.54 485.388 6
-6 8 -5 9701.93 647.958 13
6 -8 6 87.4224 74.8746 6
6 -8 7 3508.22 234.388 6
6 -8 8 341.717 88.0665 6
6 -8 9 699.558 98.3658 6
6 -8 10 31.7841 52.1191 6
6 -8 10 25.1697 52.4421 5
-6 7 6 63.8736 166.723 13
-6 7 6 116.677 170.574 12
-6 7 5 1601.63 297.488 13
-6 7 5 1858.85 304.518 12
-6 7 4 2092.34 303.595 15
-6 7 4 1976.14 336.641 13
-6 7 3 18.6788 231.422 15
-6 7 3 20.7197 250.805 13
-6 7 2 2161.29 371.155 15
-6 7 2 2360.33 387.986 13
-6 7 1 2829.06 426.845 15
-6 7 1 2607.85 424.041 13
-6 7 0 6550.61 605.94 15
-6 7 0 4963.42 553.155 13
-6 7 -1 1461.77 357.568 13
-6 7 -2 19259 1170.36 13
6 -7 3 5154.86 329.458 6
-6 7 -3 4613.19 510.652 13
6 -7 4 1622.72 183.464 6
6 -7 5 1643.46 184.812 6
6 -7 6 4376.87 308.059 6
6 -7 7 1947.93 197.526 6
6 -7 8 167.578 105.163 6
6 -7 9 443.461 109.669 6
6 -7 10 1143.28 132.816 6
6 -7 10 832.896 121.142 5
6 -7 11 607.672 91.8052 5
-6 6 8 553.672 200.213 13
-6 6 7 474.415 201.787 15
-6 6 7 236.598 231.606 13
-6 6 6 7573.01 584.857 15
-6 6 6 7821.23 619.943 13
-6 6 5 8314.62 664.663 15
-6 6 5 8894.74 702.361 13
-6 6 4 7462.64 649.106 15
-6 6 4 6062.77 612.221 13
-6 6 3 4470.78 539.083 15
-6 6 3 3429.8 481.689 13
-6 6 2 6286.21 657.706 15
-6 6 2 6711.51 640.422 13
-6 6 1 4612.76 540.64 13
-6 6 0 28778 1600 13
-6 6 -1 14878.9 1002.04 13
6 -6 2 30060.9 1393.08 6
-6 6 -2 30307.4 1645.71 13
6 -6 3 -38.4906 99.7589 6
6 -6 4 1541.48 191.037 6
6 -6 5 6239.28 413.716 6
6 -6 6 2870.2 266.109 6
6 -6 7 3691.88 300.216 6
6 -6 8 580.735 147.729 6
6 -6 9 7266.06 407.114 6
6 -6 9 5098.97 376.795 37
6 -6 10 3037.39 227.391 5
6 -6 10 1897.34 204.891 37
6 -6 11 9986.74 526.629 6
6 -6 11 10738.8 526.294 5
6 -6 12 55.7822 58.9397 6
-6 5 10 1368.06 194.308 12
-6 5 9 3507.12 349.886 15
-6 5 9 3759.23 387.436 13
-6 5 9 3195.99 389.518 12
-6 5 8 3953.25 421.558 15
-6 5 8 3476.65 424.627 13
-6 5 8 3827.31 471.378 12
-6 5 7 20473.6 1196.51 15
-6 5 7 19507.3 1190.59 13
-6 5 7 22689.1 1296.57 12
-6 5 6 1690.92 373.042 15
-6 5 6 1395.56 371.714 13
-6 5 5 43153.2 2203.61 13
-6 5 4 1928.17 417.183 13
-6 5 3 29094.1 1614.9 13
-6 5 2 935.743 397.938 15
-6 5 2 674.026 307.655 13
6 -5 -2 618.851 317.921 1
-6 5 1 21845.4 1323.1 13
6 -5 -1 25345.2 1721.59 1
6 -5 0 971.097 361.684 1
-6 5 0 520.879 298.785 13
6 -5 1 14806.1 1270.44 1
-6 5 -1 14161.7 946.083 13
6 -5 2 1943.18 209.574 6
6 -5 3 13260.4 1187.69 1
6 -5 3 13825.8 736.066 6
6 -5 4 5708.32 395.94 6
6 -5 4 5335.97 399.992 37
6 -5 4 6431.08 771.547 1
6 -5 5 203.232 132.781 6
6 -5 5 48.8266 191.349 1
6 -5 5 52.3028 124.61 37
6 -5 6 28536.6 1367.71 6
6 -5 6 28546.2 1396.61 37
6 -5 7 18440.6 910.944 6
6 -5 7 17470.8 902.159 5
6 -5 7 16038.4 918.772 37
6 -5 8 11263.4 636.802 6
6 -5 8 10941.2 660.16 37
6 -5 9 6180.75 437.987 37
6 -5 10 793.025 144.794 33
6 -5 10 862.566 157.276 6
6 -5 10 740.181 154 5
6 -5 10 782.448 178.697 37
6 -5 11 5396.66 329.973 6
6 -5 11 5869.28 334.032 5
6 -5 11 4962.2 353.439 37
6 -5 12 659.099 105.748 33
6 -5 12 775.763 111.936 6
-6 4 11 303.764 193.861 15
-6 4 11 886.622 186.164 12
-6 4 10 11513 730.225 15
-6 4 10 10072.7 695.207 13
-6 4 10 11775.8 751.439 12
-6 4 9 2905.72 407.862 15
-6 4 9 2863.28 393.573 13
-6 4 9 3105.49 447.723 12
-6 4 8 15252.8 981.617 13
-6 4 8 16026.3 1067.79 12
-6 4 7 -48.1732 280.239 13
-6 4 6 35307.1 1881.94 15
-6 4 6 33453.8 1809.7 13
-6 4 5 6105.96 648.133 15
-6 4 5 5581.19 574.823 13
-6 4 4 16157.5 1094.17 15
-6 4 4 15249.5 1003.12 13
-6 4 4 14813.8 1503.47 26
6 -4 -4 15330.4 1233.73 1
-6 4 3 458.988 358.659 15
-6 4 3 378.567 257.318 13
6 -4 -3 1073.14 341.765 1
6 -4 -2 403.524 291.906 1
-6 4 2 -212.858 346.41 15
-6 4 2 -155.145 342.869 26
-6 4 2 45.409 232.273 13
-6 4 1 455.252 382.444 26
6 -4 -1 1591.72 408.913 1
-6 4 0 7519.65 1014.07 26
6 -4 0 9498.52 948.322 1
6 -4 1 10974.1 600.922 6
-6 4 -1 9457.72 1154.03 26
6 -4 1 10987.3 640.177 37
6 -4 1 11197.3 1046.18 1
6 -4 2 18044.7 887.365 6
6 -4 2 15245.7 1274.04 23
6 -4 2 17138.6 917.605 37
6 -4 3 2551.87 278.746 37
6 -4 3 2768.89 261.498 6
6 -4 3 2186.15 480.901 1
6 -4 3 2237.28 470.797 23
6 -4 4 13557 716.343 6
6 -4 4 11965.2 1110.71 1
6 -4 4 13324.2 753.657 37
6 -4 5 10077.8 576.406 6
6 -4 5 7738.13 918.956 23
6 -4 5 8322.36 889.046 1
6 -4 5 8994.2 558.946 5
6 -4 5 9518.42 608.153 37
6 -4 6 20110.8 984.195 6
6 -4 6 13828.9 1371.23 23
6 -4 6 15430.7 1308.33 1
6 -4 6 20771.4 987.982 5
6 -4 6 18316.4 1014.39 37
6 -4 7 577.128 170.53 6
6 -4 7 607.929 190.03 5
6 -4 7 658.034 198.351 37
6 -4 8 11404.8 646.398 6
6 -4 8 10426.7 675.315 37
6 -4 9 59.3298 146.615 37
6 -4 10 590.679 153.096 6
6 -4 10 632.391 159.129 5
6 -4 10 516.96 174.76 37
6 -4 11 8.03048 98.5854 6
6 -4 11 11.6402 133.315 37
6 -4 12 684.617 132.841 33
6 -4 12 609.428 146.376 37
6 -4 13 42.7189 92.1501 30
-6 3 12 12467.2 685.809 12
-6 3 11 5889.58 496.519 12
-6 3 10 794.384 262.801 13
-6 3 10 695.294 289.473 12
-6 3 9 769.677 339.126 15
-6 3 9 724.87 283.66 13
-6 3 9 1051.04 343.12 12
-6 3 8 9228.97 762.347 15
-6 3 8 8234.35 696.376 13
-6 3 8 9324.5 780.553 12
-6 3 7 1271.18 393.47 15
-6 3 7 608.614 274.446 13
-6 3 6 8229.08 717.01 15
-6 3 6 6169.28 594.645 13
-6 3 6 6212.95 928.085 26
-6 3 5 2091.21 417.286 15
-6 3 5 1597.68 318.275 13
-6 3 5 1896.86 564.886 26
6 -3 -5 1987.95 406.896 1
-6 3 4 1322.14 386.651 15
6 -3 -4 1854.5 408.631 1
-6 3 3 2872.85 461.853 15
6 -3 -3 2255.17 470.422 1
-6 3 3 2896.25 653.768 26
-6 3 2 3819.34 511.576 15
-6 3 2 3465.98 706.891 26
6 -3 -2 4548.19 623.052 1
-6 3 1 4417.29 759.345 26
-6 3 1 4141.58 706.281 25
6 -3 -1 3537.34 576.631 1
6 -3 -1 4094.23 340.945 37
-6 3 0 1218.03 435.76 26
6 -3 0 1500.18 177.502 5
6 -3 0 1933.24 238.176 37
6 -3 0 1999.5 447.655 1
6 -3 1 15050.8 765.699 6
-6 3 -1 14397.6 1361.57 26
-6 3 -1 14655.2 1321.3 25
6 -3 1 15029.1 823.602 37
6 -3 1 14456.3 752.16 5
6 -3 2 47973.9 2118.28 6
-6 3 -2 42839.6 2783.23 26
-6 3 -2 47818.6 2823.55 25
6 -3 2 45377.4 2646.45 1
6 -3 2 47684.3 2108.58 5
6 -3 2 45963.5 2171.5 37
6 -3 3 45678.5 2037.36 6
-6 3 -3 40933.8 2642.82 26
6 -3 3 45550.7 2592.2 1
6 -3 3 46786.4 2033.03 5
6 -3 3 41842.9 2080.66 37
6 -3 4 96.6954 228.543 1
6 -3 4 183.697 130.953 6
6 -3 4 184.115 137.351 5
6 -3 4 123.872 154.26 37
6 -3 5 14587.7 792.78 6
6 -3 5 13188.9 1154.86 1
6 -3 5 12059.9 1208.03 23
6 -3 5 14967.4 788.974 5
6 -3 5 14811.7 851.014 37
6 -3 6 11620.7 681.039 6
6 -3 6 10360.5 978.111 1
6 -3 6 9447.59 1067.39 23
6 -3 6 11209.9 723.718 37
6 -3 7 6961.54 472.298 6
6 -3 7 6279.61 824.458 23
6 -3 7 7941.6 495.453 5
6 -3 7 6040.64 506.968 37
6 -3 8 1770.75 278.902 37
6 -3 9 2319.1 255.394 6
6 -3 9 2082.65 291.445 37
6 -3 10 492.506 145.445 6
6 -3 10 614.575 244.55 21
6 -3 10 727 204.631 37
6 -3 11 198.397 151.976 3
6 -3 11 72.3808 102.456 6
6 -3 11 173.645 146.612 37
6 -3 12 8.43198 110.943 33
6 -3 12 -115.933 127.62 37
6 -3 13 2490.97 198.588 33
-6 2 13 3431.85 325.094 15
-6 2 12 289.165 263.155 15
-6 2 12 10286 453.429 12
-6 2 11 8347.85 643.955 15
-6 2 11 7280.37 576.158 12
-6 2 10 2849.06 420.808 15
-6 2 10 1886.61 357.57 12
-6 2 9 4076.14 508.729 15
-6 2 9 3091.46 418.258 13
-6 2 9 3627.38 478.97 12
-6 2 8 7946.15 695.132 15
-6 2 8 6761.42 604.549 13
-6 2 8 7342.15 675.616 12
-6 2 7 2343.47 429.325 15
-6 2 7 1951.29 533.974 26
-6 2 6 868.277 330.198 15
-6 2 6 740.757 447.482 26
-6 2 5 19780.3 1186.88 15
6 -2 -5 18357.5 1339.07 1
-6 2 5 19020 1045.25 28
-6 2 5 18623.3 1655.96 26
-6 2 5 17155.8 1440.6 25
-6 2 4 666.585 300.33 15
-6 2 4 254.281 196.793 28
-6 2 4 625.155 361.963 25
6 -2 -4 442.305 272.065 1
-6 2 3 41393.5 2082.16 15
-6 2 3 39589.6 1931.79 28
6 -2 -3 41948.4 2358.67 1
-6 2 3 42494.5 2673.87 26
-6 2 3 39543.2 2473.19 25
-6 2 2 9732.61 752.034 15
-6 2 2 9873.35 1121.39 26
6 -2 -2 10443.6 966.16 1
-6 2 2 9447.39 1032.04 25
-6 2 2 10013 596.205 36
-6 2 1 41982.8 2674.97 26
6 -2 -1 43362.2 2460.11 1
6 -2 0 1124.31 369.014 1
-6 2 0 1309.35 437.372 26
6 -2 0 922.82 152.455 6
-6 2 0 1365.06 431.873 25
6 -2 0 711.231 181.404 37
-6 2 0 911.987 184.311 36
6 -2 1 43542.1 1978.52 6
-6 2 -1 47593.9 2730.87 26
-6 2 -1 46290.5 2671.31 25
6 -2 1 43923.1 1960.22 5
6 -2 1 43773.2 2052.97 37
-6 2 -1 43210.8 2008.76 36
6 -2 2 24353.2 1164.51 6
6 -2 2 23862 1631.21 1
-6 2 -2 20060.8 1658.83 26
-6 2 -2 23787.6 1733.66 25
6 -2 2 24273.2 1151.09 5
6 -2 2 23367.7 1224.63 37
-6 2 -2 24626.7 1188.47 36
6 -2 3 104297 4484.6 6
6 -2 3 103064 5045.19 1
-6 2 -3 104619 5201.13 25
6 -2 3 105708 4467.64 5
6 -2 3 100372 4547.59 37
6 -2 4 8805 544.725 6
6 -2 4 8665.25 876.179 1
-6 2 -4 8307.3 958.287 25
6 -2 4 9136.9 543.237 5
6 -2 4 8763 606.073 37
6 -2 5 2559.5 271.403 6
-6 2 -5 2562.73 533.569 25
6 -2 5 2524.75 267.782 5
6 -2 5 1939.98 432.409 1
6 -2 5 2767.35 318.237 37
6 -2 6 75.7448 142.291 6
6 -2 6 240.309 325.233 23
6 -2 6 23.9891 145.91 5
6 -2 6 87.8205 176.081 37
6 -2 7 4096.15 349.234 5
6 -2 7 3725.97 383.69 37
6 -2 8 5028.35 386.894 6
6 -2 8 5057.64 446.9 37
6 -2 9 10142.5 593.69 6
6 -2 10 20270.3 997.823 3
6 -2 10 17238.4 1099.29 21
6 -2 11 2586.8 269.661 3
6 -2 11 2035.55 246.537 37
6 -2 12 1598.57 187.056 33
6 -2 12 1227.81 192.531 30
6 -2 12 1342.72 177.241 37
-6 1 13 3223.58 340.818 15
-6 1 12 4359.5 443.124 15
-6 1 11 1091.86 343.565 15
-6 1 11 1371.16 246.921 12
-6 1 10 4784.13 504.833 15
-6 1 10 5109.65 409.782 28
-6 1 10 3606.89 440.249 12
-6 1 9 3725.17 471.161 15
-6 1 9 3641.66 363.394 28
-6 1 9 2847.83 405.837 12
-6 1 9 2780.83 372.733 8
-6 1 8 23630.4 1389.73 15
-6 1 8 26694.5 1301.49 28
-6 1 8 23060.5 1367.16 12
-6 1 7 1099.04 341.404 15
-6 1 7 1428.31 479.839 26
-6 1 6 33843.1 1731.88 15
-6 1 6 33849.9 1608.96 28
-6 1 6 33773.5 2310.24 26
-6 1 6 28889.2 2020.26 25
6 -1 -6 27780.8 1864.55 1
-6 1 5 2311.13 389.126 15
-6 1 5 2487.01 316.216 28
6 -1 -5 2847.25 480.001 1
-6 1 5 3052.49 572.151 25
-6 1 5 2855.78 274.591 36
6 -1 -4 98585.4 4681.22 1
-6 1 4 92057 4303.59 15
-6 1 4 95802 4210.43 28
-6 1 4 100275 5047.65 26
-6 1 4 95348.3 4820.27 25
-6 1 4 95704.3 4141.2 36
-6 1 3 3754.72 441.308 15
6 -1 -3 4129.2 590.529 1
-6 1 3 4446.52 394.713 28
-6 1 3 5623 829.042 26
-6 1 3 5320.96 737.588 25
-6 1 3 4638.16 351.334 36
-6 1 2 73546.6 3493.6 15
6 -1 -2 80333.7 3914.35 1
-6 1 2 75127 3411.08 28
-6 1 2 86476.4 4237.7 26
-6 1 2 79902.8 4065.2 25
-6 1 2 76945.4 3370.2 36
6 -1 -1 6573.38 750.479 1
-6 1 1 5801.06 456.208 28
-6 1 1 7992.23 922.371 26
-6 1 1 5852.16 775.131 25
6 -1 0 30730.4 1463.01 6
-6 1 0 34487.7 2166.95 26
-6 1 0 34176.8 2120.76 25
-6 1 0 31608.5 1503.66 36
6 -1 1 6676.89 429.21 6
6 -1 1 6151.84 742.156 1
-6 1 -1 7700.03 907.693 26
-6 1 -1 8428.05 912.118 25
6 -1 1 6660.33 409.117 5
6 -1 1 5990.32 476.566 37
-6 1 -1 7145.25 461.651 36
6 -1 2 24597.9 1621.41 1
6 -1 2 23668.7 1133.77 6
-6 1 -2 21251.1 1626.04 26
-6 1 -2 25943.1 1751.82 25
6 -1 2 21649.1 1098.18 5
6 -1 2 22678.4 1199.64 37
-6 1 -2 23580.8 1146.23 36
6 -1 3 208.314 136.179 6
-6 1 -3 110.733 269.744 25
6 -1 3 141.723 236.849 1
6 -1 3 194.448 126.959 5
6 -1 3 149.925 162.4 37
-6 1 -3 90.3246 136.82 36
6 -1 4 3498.37 310.467 6
6 -1 4 3353.56 552.568 1
-6 1 -4 2823.46 545.427 25
6 -1 4 3166.85 290.847 5
6 -1 4 2726.59 325.961 37
-6 1 -4 3500.38 299.039 36
6 -1 5 16133.4 857.743 6
6 -1 5 16349.5 848.402 5
6 -1 6 12986.1 1247.89 23
6 -1 7 29556.2 1505.75 6
6 -1 7 29434.5 1582.76 37
6 -1 8 20510.9 1118.2 37
6 -1 9 3698.8 485.724 21
6 -1 9 3141.89 329.333 37
6 -1 10 22118.5 1330.52 21
6 -1 10 22170 1212.39 37
6 -1 11 889.119 172.102 3
6 -1 11 825.706 252.343 21
6 -1 11 684.983 153.719 37
6 -1 12 1506.08 166.78 33
6 -1 12 1001.02 199.328 21
-6 0 13 7159.32 517.782 15
-6 0 12 629.794 274.366 15
-6 0 11 13305.7 874.278 15
-6 0 11 14353.3 785.368 28
-6 0 11 13966.8 836.812 8
-6 0 10 -63.7146 312.799 15
-6 0 10 501.47 203.793 28
-6 0 10 653.732 260.458 8
-6 0 9 10184.9 763.147 15
-6 0 9 11505.2 793.048 8
-6 0 8 13242 870.832 15
-6 0 8 11640.2 1257.59 26
-6 0 7 43671.1 2139.54 15
-6 0 7 45320.8 2066.6 28
-6 0 7 46190 2832.88 26
-6 0 7 43862.4 1951.43 36
6 0 -6 692.302 296.576 1
-6 0 6 1160.17 290.386 15
-6 0 6 1059.94 255.234 28
-6 0 6 1068.44 447.192 26
-6 0 6 909.509 354.349 25
-6 0 6 1069.61 190.89 36
-6 0 5 49840.3 2523.54 15
-6 0 5 56021.3 2488.92 28
-6 0 5 51564.8 3016.7 25
6 0 -5 53610.4 2904.85 1
-6 0 5 54978.5 2416.2 36
-6 0 4 22988.8 1188.54 28
-6 0 4 24545.4 1851.61 26
6 0 -4 21322.6 1541.35 1
-6 0 4 22997.8 1137.29 36
6 0 -3 1454.05 394.977 1
-6 0 3 1994.81 263.694 28
-6 0 3 1567.91 493.762 26
-6 0 3 1826.69 235.32 36
-6 0 2 7293.98 510.159 28
-6 0 2 7566.29 954.493 26
6 0 -2 6944.28 794.887 1
-6 0 1 10221.2 643.908 28
-6 0 1 10890.8 1126.56 26
-6 0 1 11153.7 637.372 36
6 0 -1 11807.9 1033.09 1
-6 0 0 2279.09 516.972 26
-6 0 0 2443.03 269.138 36
6 0 1 7566.28 463.916 3
-6 0 -1 5485.95 790.12 26
6 0 1 6450.52 786.492 1
-6 0 -1 6770.22 461.713 36
6 0 2 7548.84 466.227 3
6 0 2 6694.07 799.779 1
-6 0 -2 5964.09 443.78 36
-6 0 -3 21646.3 1653.79 25
6 0 3 19359.2 1525.28 1
6 0 3 22167.5 1208.95 37
-6 0 -3 21824.8 1124.37 36
-6 0 -4 11025.1 1113.65 25
6 0 4 10442 1040.71 1
6 0 4 12355.6 791.82 37
-6 0 -4 12800.2 708.934 36
6 0 5 23648.6 1306.37 37
-6 0 -5 23141.9 1195.96 36
6 0 6 3616.1 358.612 3
6 0 6 2026.37 307.609 37
6 0 7 32193.2 1461.85 3
6 0 7 25021.1 1410.82 37
6 0 8 673.62 344.796 21
6 0 8 391.375 182.3 37
6 0 9 4294.36 490.268 21
6 0 9 3526.43 330.308 37
-6 -1 13 -77.1187 140.806 8
-6 -1 12 4427.77 370.249 28
-6 -1 12 5062.6 432.069 8
-6 -1 11 5462.88 509.385 15
-6 -1 11 6019.68 446.036 28
-6 -1 11 5681.06 502.975 8
-6 -1 10 7779.79 647.576 15
-6 -1 10 11284.3 740.942 8
-6 -1 9 303.19 281.65 15
-6 -1 8 113.794 259.71 15
6 1 -8 466.133 125.404 2
-6 -1 8 140.311 203.05 28
-6 -1 7 11050.1 678.708 28
-6 -1 7 9501.3 1142.88 26
-6 -1 7 9944.67 1011.51 25
6 1 -7 9463.47 564.544 2
-6 -1 7 10834.4 596.866 36
-6 -1 6 1523.45 264.263 28
6 1 -6 1186 354.109 1
-6 -1 6 1436.47 210.532 36
-6 -1 5 4183.48 382.695 28
6 1 -5 3797.3 592.161 1
-6 -1 5 4305.69 347.037 36
-6 -1 4 7466.6 535.229 28
6 1 -4 7503.45 828.11 1
-6 -1 4 8368.05 520.768 36
6 1 -3 743.608 312.763 1
-6 -1 3 1185.27 232.981 28
-6 -1 3 1021.86 201.796 36
6 1 -2 653.712 315.259 1
-6 -1 2 565.399 181.431 28
-6 -1 1 242.075 163.954 36
-6 -1 0 4658.88 377.535 36
6 1 0 5394.61 388.127 3
6 1 1 1416.01 226.405 3
-6 -1 -1 1298.49 421.081 26
6 1 1 1799.5 270.398 37
6 1 1 1428.72 395.528 1
-6 -1 -1 1464.81 223.755 36
6 1 2 9106.29 979.533 1
6 1 2 11312.4 734.749 37
-6 -1 -2 11268.9 671.108 36
6 1 3 8228.6 517.568 2
6 1 3 8326.26 594.647 37
-6 -1 -3 8081.77 523.817 36
6 1 4 1637.35 388.389 1
6 1 4 2192.9 234.149 2
6 1 4 2179.05 299.867 37
-6 -1 -4 2445.07 257.058 36
6 1 5 184.92 189.381 3
6 1 5 232.099 165.25 37
6 1 6 1994.85 296.65 3
6 1 6 1715.83 257.081 37
6 1 7 776.967 218.138 3
6 1 7 256.46 312.831 21
6 1 7 554.913 176.775 37
6 1 8 222.174 270.367 21
6 1 9 1221.56 282.848 21
6 1 10 1574.6 246.008 21
6 1 10 1106.55 160.107 19
-6 -2 13 792.053 156.843 28
-6 -2 13 924.933 202.429 8
-6 -2 12 1759.34 228.402 28
-6 -2 11 2444.31 299.935 10
-6 -2 10 4643.24 408.732 28
-6 -2 10 4314.63 459.246 8
-6 -2 9 3557.79 368.272 28
6 2 -8 133.03 110.552 2
-6 -2 8 211.452 201.954 28
-6 -2 7 11086.2 696.695 28
6 2 -7 10849.6 609.853 2
-6 -2 7 11220.1 632.648 36
6 2 -6 564.649 164.047 2
-6 -2 6 864.231 227.433 28
6 2 -6 627.522 292.325 1
-6 -2 6 913.821 191.154 36
6 2 -5 445.936 165.603 2
-6 -2 5 217.761 192.36 28
6 2 -5 401.485 265.578 1
-6 -2 5 414.806 174.829 36
-6 -2 4 17070.6 972.756 28
6 2 -4 17068.4 1405.3 1
6 2 -4 19284.6 967.142 2
-6 -2 4 19019.2 971.301 36
6 2 -3 868.659 196.769 2
-6 -2 3 744.961 194.138 28
6 2 -3 893.91 341.895 1
6 2 -2 7402.58 871.432 1
6 2 -2 8811.67 533.254 2
-6 -2 2 7482.56 520.349 36
6 2 -1 2890.91 546.402 1
-6 -2 1 2932.75 300.253 36
-6 -2 0 27216.9 1348.93 36
6 2 0 23440.9 1797.94 1
6 2 0 28624.4 1347.72 2
6 2 0 27644.6 1405.09 37
6 2 1 2108.89 484.368 1
6 2 1 2554.5 270.683 2
6 2 1 2346.04 306.364 37
-6 -2 -1 2295.07 274.748 36
6 2 2 9148.11 561.352 2
6 2 2 8979.82 615.567 37
-6 -2 -2 9163.82 573.783 36
6 2 2 10993 615.016 3
6 2 3 4021.59 321.388 2
6 2 3 4069.84 375.546 37
-6 -2 -3 3837.34 329.735 36
6 2 4 8673.92 554.739 37
-6 -2 -4 7530.92 485.859 36
6 2 5 -47.8543 257.513 21
6 2 6 742.671 292.402 21
6 2 7 825.856 259.868 21
6 2 8 4438.19 413.875 21
6 2 9 853.236 202.425 21
6 2 9 1101.78 152.278 19
-6 -3 13 194.087 111.766 28
-6 -3 13 9.65895 121.375 8
-6 -3 12 5897.08 408.319 10
-6 -3 12 5630.19 426.489 8
-6 -3 11 1161.41 216.07 28
-6 -3 11 851.36 213.195 10
-6 -3 11 1262.63 253.302 8
-6 -3 10 5025.98 404.474 28
-6 -3 10 5391.73 474.688 8
-6 -3 9 1172.49 237.914 28
-6 -3 9 1031.1 273.857 8
6 3 -8 3063.49 252.68 2
6 3 -7 8677.48 520.665 2
-6 -3 7 9266.38 546.422 36
6 3 -6 4927.36 367.224 2
-6 -3 6 5121.9 388.255 36
-6 -3 5 18807.6 1585.44 24
6 3 -5 21298.2 1047.16 2
-6 -3 5 20283.9 1053.17 36
-6 -3 4 3537.38 342.599 28
-6 -3 4 3667.38 651.152 24
6 3 -4 3505.4 601.984 1
6 3 -4 4361.6 344.943 2
6 3 -3 42032.6 2644.96 1
-6 -3 3 39542.2 2660.14 24
6 3 -3 48128.6 2107.38 2
-6 -3 2 23792.5 1781.07 24
-6 -3 2 25327.9 1255.41 36
6 3 -1 14850.4 1354.89 1
6 3 -1 17971.6 933.236 2
6 3 -1 17856.3 971.203 37
-6 -3 1 17991.4 946.889 36
6 3 0 12657 686.839 2
6 3 0 11160.5 702.477 37
-6 -3 0 11613 689.824 36
6 3 1 5700.51 406.568 2
6 3 1 5824.98 437.351 37
-6 -3 -1 5738.41 426.049 36
6 3 2 980.26 179.063 2
6 3 2 984.878 249.641 21
-6 -3 -2 947.325 195.305 36
6 3 3 7021.3 573.548 21
-6 -3 -3 7887.8 476.425 36
6 3 4 569.531 230.955 21
6 3 5 5550.08 461.879 21
6 3 6 5668.52 441.356 21
6 3 6 6037.38 389.42 19
6 3 7 12064.1 634.297 21
6 3 7 12761.1 600.302 19
6 3 8 185.776 102.05 20
6 3 8 277.33 95.2828 19
-6 -4 13 757.891 116.402 10
-6 -4 12 345.974 128.491 28
-6 -4 12 187.517 126.541 10
-6 -4 12 201.034 127.207 8
-6 -4 11 1532.85 206.053 28
-6 -4 11 1480.06 220.695 8
-6 -4 10 9241.73 539.227 28
-6 -4 10 8322.19 561.439 8
6 4 -9 555.187 106.234 2
-6 -4 9 712.84 191.244 28
-6 -4 9 826.686 222.553 8
6 4 -8 4319.29 301.348 2
-6 -4 8 4836.65 421.367 8
6 4 -7 8357.33 480.761 2
-6 -4 7 7652.31 578.935 8
-6 -4 7 8245.95 494.484 36
6 4 -6 15652.1 823.087 2
-6 -4 6 16489.5 844.457 36
-6 -4 5 12842.2 739.065 28
6 4 -5 14265.8 745.071 2
-6 -4 5 13824.4 756.48 36
6 4 -4 19574.9 994.979 2
6 4 -3 9934.48 590.166 2
-6 -4 3 9486.34 593.562 36
-6 -4 2 719.611 191.826 36
6 4 -1 372.082 161.967 2
-6 -4 1 239.772 168.051 36
6 4 0 1226 191.139 2
-6 -4 0 1414.32 220.607 36
6 4 1 499.459 137.67 2
-6 -4 -1 359.596 158.583 36
6 4 2 9789.38 565.967 19
-6 -4 -2 12771.7 619.826 36
6 4 3 3189.71 252.416 19
6 4 4 24964.6 1151.89 19
6 4 5 938.6 183.855 20
6 4 5 1075.95 139.862 19
6 4 6 4122.61 307.132 20
6 4 6 5153.34 280.487 19
-6 -5 12 538.938 99.4952 10
-6 -5 11 958.24 140.614 28
-6 -5 11 964.109 153.378 10
-6 -5 10 1142.78 156.81 28
-6 -5 10 760.565 136.438 8
-6 -5 9 1187.29 171.076 28
6 5 -9 1038.1 115.259 2
-6 -5 9 1147.88 164.442 8
-6 -5 8 2843.27 249.257 28
6 5 -8 2846.74 213.982 2
-6 -5 8 2536.79 247.259 8
6 5 -7 197.05 108.81 2
-6 -5 7 228.622 130.019 28
-6 -5 7 296.144 122.212 36
6 5 -6 758.262 147.816 2
-6 -5 6 754.593 157.284 36
6 5 -5 26.303 113.934 2
6 5 -4 9.07552 114.968 2
-6 -5 3 1272.92 200.559 36
6 5 -2 17.7107 120.656 2
-6 -5 2 89.4015 137.362 36
6 5 -1 5370.37 345.091 2
-6 -5 1 5024.17 360.7 36
6 5 0 1444.87 173.222 2
-6 -5 0 1771.01 202.688 36
-6 -5 -1 2477.16 218.145 36
6 5 2 200.981 118.999 20
6 5 3 2053.81 197.376 20
6 5 4 1003.29 126.706 20
-6 -6 9 -11.7976 77.2823 10
6 6 -8 983.201 101.056 2
-6 -6 7 255.914 89.6219 36
6 6 -7 228.949 81.9876 2
6 6 -6 106.74 87.7549 2
-6 -6 6 203.838 100.594 36
6 6 -5 66.484 86.3132 2
6 6 -4 68.1192 90.5494 2
-6 -6 4 101.539 104.928 36
6 6 -3 874.642 130.188 2
-6 -6 3 805.485 135.419 36
-6 -6 2 149.239 102.61 36
6 6 -2 16.6748 81.5235 2
-6 -6 1 710.651 116.022 36
-7 8 0 251.776 149.512 15
-7 8 -1 409.057 171.614 15
-7 8 -2 725.004 204.21 15
-7 8 -3 3494.18 334.147 15
7 -8 4 -42.4786 55.8174 5
7 -8 5 3336.04 199.781 5
-7 8 -6 30.2341 149.209 15
7 -8 6 89.4937 56.1498 5
-7 8 -7 1358.35 182.132 15
-7 7 4 806.061 183.162 15
-7 7 4 543.973 194.018 12
-7 7 3 51.9241 174.842 15
-7 7 3 10.2537 136.505 13
-7 7 2 184.272 217 15
-7 7 2 118.962 160.949 13
-7 7 1 3336.69 383.985 15
-7 7 1 3219.98 332.571 13
-7 7 0 3001.8 325.646 13
-7 7 -1 4193.09 377.204 13
-7 7 -2 6458.37 486.851 13
7 -7 2 7062.4 382.73 5
7 -7 3 145.182 86.1653 5
7 -7 4 4623.86 290.546 5
7 -7 5 14469.2 715.43 6
7 -7 5 16080.8 732.785 5
7 -7 6 3355.58 229.86 6
7 -7 6 3670.16 240.137 5
7 -7 7 886.719 116.767 6
7 -7 7 1214.26 133.86 5
7 -7 8 18.1471 60.6331 6
7 -7 8 -13.8169 68.8188 5
7 -7 9 392.389 70.2569 6
7 -7 9 451.556 75.5265 5
-7 6 7 1696.1 222.387 12
-7 6 6 1622.51 248.503 15
-7 6 6 1955.65 292.736 12
-7 6 5 546.174 233.735 15
-7 6 5 458.77 178.69 13
-7 6 5 115.284 235.341 12
-7 6 4 5941.27 462.989 13
-7 6 3 14955.7 865.764 13
-7 6 2 4144.73 409.855 13
-7 6 1 2617.96 419.17 15
-7 6 1 1828.93 305.71 13
-7 6 0 22944.2 1334.25 15
-7 6 -1 449.906 340.836 15
7 -6 1 352.583 100.186 5
7 -6 2 13234 665.026 5
7 -6 3 5513.86 348.126 6
7 -6 3 5567.19 350.496 5
7 -6 4 4378.15 305.292 6
7 -6 4 4672.04 310.913 5
7 -6 5 689.177 136.3 6
7 -6 5 914.987 151.086 5
7 -6 6 626.663 131.355 6
7 -6 6 589.822 135.044 5
7 -6 7 1727.57 182.318 6
7 -6 7 1919.62 190.275 5
7 -6 8 99.1447 90.0588 6
7 -6 8 -25.627 96.0429 5
7 -6 9 1955.66 172.82 6
7 -6 9 2344.64 181.764 5
7 -6 10 658.445 93.2764 6
-7 5 8 2033.62 265.505 15
-7 5 8 1857.5 270.276 12
-7 5 7 1556.91 304.672 12
-7 5 6 507.142 201.091 13
-7 5 6 472.853 303.968 12
-7 5 5 16875.9 942.494 15
-7 5 5 11607.8 775.022 13
-7 5 4 940.651 349.741 15
-7 5 4 870.674 248.229 13
-7 5 3 22589.4 1331.34 15
-7 5 2 512.393 340.799 15
-7 5 1 8355.35 738.773 15
-7 5 0 2662.06 462.417 15
7 -5 1 363.78 116.267 5
7 -5 2 196.908 101.176 6
7 -5 2 329.101 113.27 5
7 -5 3 166.597 115.225 6
7 -5 3 -8.88533 111.613 5
7 -5 4 11409.9 618.074 6
7 -5 4 11697.7 617.794 5
7 -5 4 10401.9 617.721 37
7 -5 5 4531.96 337.195 6
7 -5 5 4928.75 340.565 5
7 -5 5 4582.17 347.645 37
7 -5 6 7389.76 452.206 6
7 -5 6 7790.99 458.358 5
7 -5 6 6989.52 460.311 37
7 -5 7 3512.31 280.757 6
7 -5 7 3933.1 289.676 5
7 -5 7 2957.21 280.89 37
7 -5 8 1723.97 184.468 6
7 -5 8 1437.53 180.016 5
7 -5 8 1160.03 173.84 37
7 -5 9 3916.99 269.46 6
7 -5 9 4164.16 271.089 5
7 -5 10 463.018 106.717 37
7 -5 11 3051.18 208.372 3
-7 4 9 593.415 215.657 15
-7 4 9 302.156 189.337 12
-7 4 8 10092.1 673.411 15
-7 4 8 9344.7 674.391 12
-7 4 7 5662.91 527.84 15
-7 4 7 4918.22 525.579 12
-7 4 6 23.1953 278.085 15
-7 4 5 6395.19 623.141 15
-7 4 4 1222.4 373.532 15
-7 4 3 3811.72 512.853 15
-7 4 2 1840.39 419.685 15
-7 4 1 3228.21 481.438 15
-7 4 0 137.713 306.958 15
7 -4 0 69.8188 110.014 37
7 -4 1 3934.21 291.258 5
7 -4 1 3792.64 326.115 37
7 -4 2 267.175 119.002 6
7 -4 2 172.726 117.029 5
7 -4 2 246.982 142.709 37
7 -4 3 2135.09 225.885 6
7 -4 3 2094.19 222.182 5
7 -4 3 1867.9 245.042 37
7 -4 4 20948.5 1059.71 6
7 -4 4 22125 1058.42 5
7 -4 4 21341.9 1102.44 37
7 -4 5 -53.8546 128.509 6
7 -4 5 90.7964 134.309 5
7 -4 5 95.7954 140.008 37
7 -4 6 12949.2 685.431 6
7 -4 6 12322.4 671.396 5
7 -4 6 11528.2 703.666 37
7 -4 7 2905.24 269.984 6
7 -4 7 3046.55 271.032 5
7 -4 7 2904.85 292.83 37
7 -4 8 4442.32 321.747 6
7 -4 8 4122.21 311.403 5
7 -4 8 4488.13 354.246 37
7 -4 9 3775.37 306.36 37
7 -4 10 501.818 129.941 37
7 -4 11 39.2535 90.3589 3
7 -4 11 43.1201 76.3385 37
-7 3 11 104.4 150.404 15
-7 3 10 2581.83 316.065 15
-7 3 10 1396.62 233.818 12
-7 3 9 698.363 257.668 15
-7 3 9 677.021 234.16 12
-7 3 8 13343.9 843.12 15
-7 3 8 12122.4 818.497 12
-7 3 7 2345.12 393.51 15
-7 3 7 2345.97 396.652 12
-7 3 6 15223.3 993.539 15
-7 3 5 12300.6 877.528 15
-7 3 4 8456.39 701.708 15
7 -3 -4 7520.54 484.81 37
-7 3 3 393.398 311.357 15
7 -3 -3 -48.3413 126.89 37
-7 3 2 130.429 277.386 15
-7 3 2 151.192 345.902 26
7 -3 -2 128.117 117.354 37
-7 3 1 332.943 299.567 15
-7 3 1 74.1625 327.859 26
7 -3 -1 104.165 253.751 1
7 -3 -1 147.532 126.908 37
-7 3 0 4215.21 495.414 15
-7 3 0 3667.81 710.464 26
7 -3 0 4369.73 361.483 37
7 -3 0 3313.04 573.948 1
7 -3 1 2973.95 269.257 6
-7 3 -1 2485.47 585.283 26
7 -3 1 3009.23 255.153 5
7 -3 1 3808.79 338.398 37
7 -3 2 11086.6 608.556 6
7 -3 2 9824.99 1011.39 1
7 -3 2 10327.5 583.676 5
7 -3 2 10344.6 651.11 37
7 -3 3 36361.3 1641.27 6
7 -3 3 34475.9 1614.37 5
7 -3 3 34280 1690.68 37
7 -3 4 18508 914.023 6
7 -3 4 17599.6 892.347 5
7 -3 4 15948.5 944.564 37
7 -3 5 7091.47 473.994 6
7 -3 5 7871.62 478.805 5
7 -3 5 7081.51 524.118 37
7 -3 6 21987.8 1082.37 6
7 -3 6 22502.8 1077.01 5
7 -3 6 20171.8 1122.68 37
7 -3 7 277.436 146.08 6
7 -3 7 89.0682 130.366 5
7 -3 7 156.055 159.139 37
7 -3 8 12390.8 649.728 6
7 -3 8 11016.6 682.459 37
7 -3 9 -96.0884 142.678 3
7 -3 9 81.8196 190.384 21
7 -3 9 45.8565 131.299 37
7 -3 10 371.67 134.412 37
7 -3 11 2223.76 178.242 33
7 -3 11 2520.55 195.679 3
-7 2 11 10087.4 611.865 15
-7 2 10 2436.39 344.286 15
-7 2 9 3222.6 384.813 15
-7 2 9 2629.05 316.03 12
-7 2 8 4904.74 484.944 15
-7 2 8 4342.34 440.154 12
-7 2 7 17920.9 1022.7 15
-7 2 7 14249.6 959.039 12
-7 2 6 7511.93 639.995 15
-7 2 5 2105.69 383.919 15
-7 2 4 259.651 263.275 15
7 -2 -3 14845.4 1292.85 1
-7 2 3 17085.3 1050.85 15
-7 2 3 19711.7 1652.24 26
-7 2 3 16469.5 1443.44 25
-7 2 2 7398.41 617.625 15
7 -2 -2 7413.23 836.477 1
-7 2 2 5676.09 883.68 26
-7 2 2 5815.51 862.767 25
7 -2 -2 7253.37 501.746 37
-7 2 1 28539.1 1548.67 15
7 -2 -1 31179.2 1967.48 1
-7 2 1 28430.6 2136.19 26
7 -2 -1 29284 1450.28 37
-7 2 0 6153.37 553.451 15
-7 2 0 5878.39 867.477 26
-7 2 0 5016.44 790.542 25
7 -2 0 6618.6 482.826 37
7 -2 1 34457.4 1576.42 6
7 -2 1 31463.7 2100.81 1
-7 2 -1 30769.8 2240.09 26
-7 2 -1 35506.7 2309.29 25
7 -2 1 33775.9 1536.06 5
7 -2 1 33318.4 1649.03 37
7 -2 2 676.422 158.351 6
-7 2 -2 633.973 382.885 25
7 -2 2 1034.8 357.476 1
7 -2 2 711.117 148.853 5
7 -2 2 514.166 191.843 37
7 -2 3 47852.4 2100.61 6
-7 2 -3 42494.6 2743.67 25
7 -2 3 46638.6 2068.08 5
7 -2 3 43209.2 2152.71 37
7 -2 4 3293.28 308.438 6
7 -2 4 4059.16 315.718 5
7 -2 4 3705.72 369.287 37
7 -2 5 16444.4 856.244 6
7 -2 5 15282.4 903.167 37
7 -2 6 214.368 173.19 3
7 -2 6 149.727 146.67 6
7 -2 6 109.936 163.971 37
7 -2 7 5194.61 385.415 3
7 -2 7 3859.5 370.033 37
7 -2 8 8347 503.029 3
7 -2 8 6552.89 491.324 37
7 -2 9 2520.13 259.413 3
7 -2 9 1101.91 273.883 21
7 -2 10 2978.89 308.801 21
7 -2 10 2705.79 241.566 37
7 -2 11 2331.58 182.94 33
-7 1 11 1671.29 264.497 15
-7 1 10 787.496 261.778 15
-7 1 9 138.315 267.137 15
-7 1 8 6797.61 556.178 15
-7 1 7 3014.06 398.695 15
-7 1 6 14415.3 924.807 15
-7 1 6 15906.1 887.588 28
-7 1 5 1582.19 314.56 15
-7 1 5 1752.71 290.02 28
-7 1 4 24056 1375.75 15
-7 1 4 24200.4 1963.41 26
-7 1 4 26785.1 1909.32 25
-7 1 4 28138.3 1295.11 36
7 -1 -3 455.928 268.019 1
-7 1 3 288.045 329.781 26
-7 1 3 245.766 281.478 25
-7 1 3 367.681 174.944 36
-7 1 2 28099.4 2043.07 26
-7 1 2 28954.3 1977.29 25
7 -1 -2 23346.9 1729.31 1
7 -1 -1 524.767 297.344 1
-7 1 1 136.521 267.494 26
-7 1 1 187.51 286.012 25
7 -1 -1 111.889 148.776 37
-7 1 1 25.0761 155.435 36
-7 1 0 12985.3 1291 26
-7 1 0 13115 1255.42 25
7 -1 0 13274.2 796.969 37
-7 1 0 13445.2 753.702 36
7 -1 1 766.222 163.638 3
7 -1 1 476.523 326.306 1
-7 1 -1 745.104 367.903 25
7 -1 1 483.027 199.882 37
-7 1 -1 906.99 196.888 36
7 -1 2 9385.05 530.588 3
-7 1 -2 7737.78 943.003 25
7 -1 2 7840.71 574.583 37
-7 1 -2 8148.97 531.451 36
7 -1 3 11618.7 636.21 3
7 -1 3 9288.08 666.871 37
7 -1 4 18048.8 870.335 3
7 -1 4 13165.7 873.582 37
7 -1 5 5891.45 441.144 3
7 -1 6 12786.4 739.752 3
7 -1 7 5603.01 408.628 3
7 -1 7 3770.52 366.384 37
7 -1 8 8985.95 613.41 37
7 -1 8 13866.5 677.948 3
7 -1 9 615.792 163.148 3
7 -1 9 292.735 130.021 37
7 -1 10 4171.31 344.118 21
-7 0 11 1039.07 232.995 15
-7 0 10 -149.774 268.169 15
-7 0 10 812.959 213.92 8
-7 0 9 869.536 276.843 15
-7 0 9 2469.74 327.419 8
-7 0 8 -392.432 302.432 15
-7 0 8 336.016 199.846 28
-7 0 7 10396.9 611.358 28
7 0 -7 7636.41 466.87 2
-7 0 6 8533.57 592.001 28
-7 0 6 8752.84 523.403 36
-7 0 5 1308.51 251.833 28
-7 0 5 1093.88 201.475 36
-7 0 4 3033.1 340.15 28
-7 0 4 2851.21 287.223 36
7 0 -3 461.959 298.54 1
-7 0 3 683.914 210.673 28
-7 0 3 559.91 406.13 26
-7 0 3 852.546 368.014 25
-7 0 3 871.99 196.919 36
7 0 -2 419.216 277.083 1
-7 0 2 136.466 290.855 26
-7 0 1 131.716 311.516 26
-7 0 1 246.096 291.062 25
7 0 -1 552.081 198.142 37
-7 0 1 300.47 161.963 36
7 0 0 797.054 338.901 1
-7 0 0 440.23 333.129 26
-7 0 0 615.247 349.401 25
7 0 0 577.972 210.1 37
-7 0 0 573.875 182.124 36
-7 0 -1 5353.49 786.022 25
-7 0 -1 6116.27 451.391 36
7 0 2 1137.91 215.985 3
-7 0 -2 1037.13 203.16 36
7 0 3 13929.4 864.754 37
-7 0 -3 13630.3 796.46 36
7 0 4 492.789 197.961 3
7 0 4 260.659 120.913 2
7 0 4 343.58 177.653 37
7 0 5 17866.6 1044.88 37
7 0 5 21967.7 1060.3 3
7 0 6 1901.94 257.36 37
7 0 6 2633.58 292.622 3
7 0 7 1823.93 372.633 21
7 0 7 2290.84 255.331 37
7 0 7 2750.17 281.085 3
7 0 8 2348.15 331.792 21
7 0 9 1095.2 220.198 21
-7 -1 12 144.704 104.2 8
-7 -1 11 749.399 187.924 8
-7 -1 10 65.4673 157.897 28
-7 -1 10 106.731 197.334 8
-7 -1 9 4813.29 388.867 28
-7 -1 9 4417.39 439.64 8
7 1 -8 223.445 96.9464 2
-7 -1 8 439.994 188.67 28
-7 -1 7 2291.7 288.292 28
7 1 -7 1419.65 181.309 2
-7 -1 6 7237.58 521.792 28
7 1 -6 7680.23 465.267 2
-7 -1 6 7640.33 480.185 36
-7 -1 5 8790.44 590.205 28
7 1 -5 9094.93 539.726 2
-7 -1 5 8815.52 547.916 36
-7 -1 4 8487.46 577.141 28
7 1 -4 9824.96 564.447 2
-7 -1 4 8581.11 553.364 36
-7 -1 3 13.6221 162.519 28
-7 -1 2 148.23 160.627 36
7 1 -1 268.829 186.911 37
-7 -1 1 507.021 173.009 36
7 1 0 2825.56 281.012 2
7 1 0 2555.17 315.965 37
-7 -1 0 2634.65 287.94 36
7 1 1 12769.3 690.55 2
7 1 1 11759.7 744.071 37
-7 -1 -1 11919.3 690.162 36
7 1 2 9167.97 547.391 2
7 1 2 8085.14 587.468 37
-7 -1 -2 9191.94 557.799 36
7 1 2 9560.56 559.134 3
7 1 3 12996.9 698.067 2
7 1 3 13517.1 786.124 37
-7 -1 -3 12160 702.858 36
7 1 3 14755.7 752.541 3
7 1 4 1086.35 210.289 3
7 1 4 728.444 200.476 37
-7 -1 -4 761.947 157.288 36
7 1 5 40219.8 1870.68 37
7 1 6 550.502 254.719 21
7 1 7 3869.47 386.759 21
7 1 8 1218.74 220.683 21
-7 -2 12 2031.86 207.239 8
-7 -2 11 4726.55 331.754 28
-7 -2 10 2989.65 282.105 28
-7 -2 10 3040.41 328.167 8
-7 -2 9 6181.81 433.819 28
-7 -2 9 6237.83 494.673 8
-7 -2 8 3264.58 307.381 28
7 2 -8 2576.32 211.975 2
-7 -2 7 8402.54 519.982 28
7 2 -7 7062.98 435.908 2
-7 -2 6 2568.14 304.154 28
7 2 -6 2849.68 258.358 2
-7 -2 6 3178.49 284.457 36
-7 -2 5 4532.28 385.656 28
7 2 -5 5136.67 362.354 2
-7 -2 5 4965.26 366.939 36
-7 -2 4 3078.53 316.994 28
7 2 -4 3942.87 318.961 2
-7 -2 4 3952.47 335.72 36
7 2 -3 380.359 172.007 2
7 2 -2 18697.7 925.932 2
7 2 -2 17142.1 967.643 37
-7 -2 2 16989.7 921.415 36
7 2 -1 1277.54 241.031 37
-7 -2 1 1319.73 227.826 36
7 2 0 36130 1644.02 2
7 2 0 34519.7 1697.92 37
-7 -2 0 34811.2 1649.74 36
7 2 1 547.721 164.526 2
7 2 1 441.497 177.179 37
-7 -2 -1 706.184 179.283 36
7 2 2 51468 2349.05 2
7 2 2 53557.5 2416.27 37
-7 -2 -2 54708.7 2373.48 36
7 2 3 1876.11 317.867 21
-7 -2 -3 2739.8 245.26 36
7 2 4 13312.6 803.018 21
7 2 5 1555.13 259.007 21
7 2 6 3669.29 318.834 21
7 2 7 60.1473 94.4232 20
7 2 7 32.2544 81.3438 19
-7 -3 11 1093.26 149.07 28
-7 -3 11 999.397 158.769 8
-7 -3 10 2990.77 253.989 28
-7 -3 10 3015.92 272.293 10
-7 -3 10 3665.5 306.994 8
-7 -3 9 1414.5 192.342 28
-7 -3 9 1097 218.505 8
7 3 -8 130.655 85.6017 2
-7 -3 8 147.028 139.545 28
-7 -3 8 158.181 179.061 8
-7 -3 7 4419.18 346.71 28
7 3 -7 4482.87 297.925 2
-7 -3 6 2436.86 259.8 28
7 3 -6 2668.67 233.214 2
-7 -3 6 2489.72 243.522 36
-7 -3 5 19128 994.947 28
7 3 -5 21146.2 999.125 2
-7 -3 5 20919.3 1009.99 36
7 3 -4 331.047 138.698 2
7 3 -3 24950.4 1175.66 2
7 3 -3 23757.6 1208.07 37
-7 -3 3 24178.4 1183.46 36
7 3 -2 1348.87 212.428 37
-7 -3 2 1499.47 216.093 36
7 3 -1 12819.8 670.972 2
-7 -3 1 11748.8 672.487 36
7 3 0 5736.33 382.393 2
-7 -3 0 6224.02 408.936 36
7 3 1 19646.7 974.498 2
-7 -3 -1 21401.2 1002.88 36
-7 -3 -2 904.168 154.317 36
7 3 3 2604.28 200.039 19
7 3 4 71.5971 78.8232 19
-7 -4 10 837.436 128.841 10
-7 -4 9 192.533 92.2704 28
-7 -4 9 174.66 115.832 8
-7 -4 8 5413.25 329.332 28
7 4 -8 4793.87 282.097 2
7 4 -7 435.415 99.0136 2
-7 -4 7 546.731 121.483 28
7 4 -6 1566.73 169.629 2
-7 -4 6 1753.21 216.72 8
-7 -4 6 1799.39 190.847 36
7 4 -5 3680.62 259.289 2
-7 -4 5 3861.17 273.853 36
7 4 -4 508.967 134.604 2
-7 -4 3 4211.19 310.101 36
7 4 -2 8268.15 476.139 2
-7 -4 2 9068.74 499.225 36
7 4 -1 1144.55 154.985 2
-7 -4 1 1025.62 165.742 36
7 4 0 263.747 97.4777 2
-7 -4 0 187.52 115.652 36
-7 -4 -1 46.6316 92.9128 36
7 4 3 58.9725 86.2035 20
7 5 -7 109.741 53.9107 2
7 5 -6 1748.94 146.447 2
-7 -5 6 2026.89 156.709 36
7 5 -5 2141.37 166.106 2
-7 -5 5 2134.55 176.588 36
7 5 -4 156.291 78.2433 2
-7 -5 4 220.98 95.5419 36
-7 -5 3 1317.81 142.391 36
7 5 -2 905.509 112.142 2
-7 -5 2 1071.34 126.472 36
-7 -5 1 69.0501 73.403 36
-8 7 1 -8.11562 113.434 15
-8 7 0 3703.2 298.159 15
-8 7 -1 2293.25 248.58 15
-8 7 -2 10936.2 615.224 15
-8 7 -3 4831.61 353.516 15
-8 7 -4 2351.4 228.475 15
-8 6 4 1049.6 182.335 15
-8 6 4 589.087 170.634 12
-8 6 3 6228.52 443.411 15
-8 6 2 1909.4 275.954 15
-8 6 1 8288.2 568.357 15
-8 6 0 7612 547.966 15
-8 6 -1 2075.96 307.428 15
-8 6 -2 14605.2 842.648 15
-8 6 -3 167.623 196.06 15
-8 6 -4 3345.99 335.371 15
8 -6 4 3357.46 208.683 5
-8 6 -5 -21.6488 149.665 15
8 -6 5 -3.99031 62.8894 5
8 -6 6 188.359 67.333 5
-8 5 6 1129.69 188.914 15
-8 5 5 2401.29 282.824 15
-8 5 5 1928.49 274.8 12
-8 5 4 715.643 234.623 15
-8 5 3 9292.98 636.188 15
-8 5 2 69.6118 236.21 15
-8 5 1 2687.67 364.842 15
-8 5 0 1474.45 304.881 15
-8 5 -1 7438.4 582.465 15
-8 5 -2 2811.63 361.666 15
-8 5 -3 429.406 220.764 15
8 -5 3 89.5689 82.0393 5
-8 5 -4 736.939 226.862 15
8 -5 4 781.21 117.404 5
-8 5 -5 344.167 174.714 15
8 -5 5 111.255 87.5691 6
8 -5 5 229.639 90.2984 5
8 -5 7 86.8306 84.6397 3
8 -5 8 253.02 81.1731 3
-8 4 7 716.327 178.384 15
-8 4 6 1531.88 259.168 15
-8 4 6 1411.87 238.854 12
-8 4 5 4540.59 421.404 15
-8 4 5 4582.05 427.659 12
-8 4 4 533.713 258.997 15
-8 4 3 9829.55 688.518 15
-8 4 2 1624.61 326.486 15
-8 4 1 3954.57 430.223 15
-8 4 0 56.1061 231.72 15
-8 4 -1 4657.33 454.291 15
8 -4 1 4830.21 336.811 37
-8 4 -2 1761.39 298.096 15
8 -4 2 1455.49 188.537 37
-8 4 -3 7945.3 571.005 15
8 -4 3 8348.2 447.965 5
8 -4 3 8479.72 494.412 37
8 -4 4 11097 607.214 37
8 -4 5 429.448 131.622 37
8 -4 6 1554.54 180.457 3
8 -4 6 1449 178.255 37
8 -4 7 16015.2 700.098 3
8 -4 7 12170.1 683.579 37
8 -4 8 6600.92 332.137 3
8 -4 8 4394.61 301.313 37
-8 3 8 9189 553.968 15
-8 3 7 3500.42 336.754 15
-8 3 6 8794.09 594.004 15
-8 3 5 291.439 222.466 15
-8 3 5 217.722 194.692 12
-8 3 4 6251.64 511.959 15
-8 3 3 -141.792 212.501 15
8 -3 -3 100.319 101.661 37
-8 3 2 12146.4 784.17 15
8 -3 -2 12580.6 674.366 37
-8 3 1 6660.13 547.061 15
8 -3 -1 7618.96 467.887 37
-8 3 0 4304.59 421.812 15
8 -3 0 4648.56 351.035 37
8 -3 1 11630.2 661.048 37
8 -3 2 20498.9 1040.04 37
8 -3 3 515.576 126.842 3
8 -3 3 130.025 139.655 37
8 -3 4 65094.9 2604.12 3
8 -3 4 52613.2 2621.41 37
8 -3 5 20792.3 920.292 3
8 -3 5 16193.7 921.559 37
8 -3 6 2065.42 211.97 3
8 -3 6 1523.82 197.075 37
8 -3 7 1505.94 181.46 3
8 -3 7 1420.62 176.9 37
8 -3 8 4809.38 385.354 21
8 -3 8 5184.83 342.59 37
-8 2 8 2621.24 294.895 15
-8 2 7 1814.61 251.513 15
-8 2 6 917.384 223.807 15
8 -2 -6 483.714 109.26 2
8 -2 -6 985.367 146.648 37
-8 2 5 1368.6 257.728 15
8 -2 -5 1840.98 202.606 37
-8 2 4 2528.73 313.096 15
8 -2 -4 2787.25 265.866 37
8 -2 -3 17193.9 893.776 37
8 -2 -2 8546.78 537.864 37
8 -2 -1 39511.3 1845.46 37
8 -2 0 1417.7 228.686 37
8 -2 1 27654.8 1357.74 37
8 -2 2 157.179 146.115 37
8 -2 3 23712.1 1041.5 3
8 -2 3 18413.5 1063.88 37
8 -2 4 2958.11 242.353 3
8 -2 4 1684.74 245.986 37
8 -2 5 5931.01 377.301 3
8 -2 5 4491.93 369.823 37
8 -2 6 381.263 151.024 3
8 -2 6 411.784 140.681 37
8 -2 7 1259.24 181.319 37
8 -2 7 2149.59 198.044 3
8 -2 8 410.451 110.485 3
8 -2 8 497.594 167.536 21
8 -1 -8 137.073 91.7725 37
8 -1 -7 359.027 120.659 37
8 -1 -6 3856.49 286.367 2
8 -1 -6 6620.82 380.378 37
8 -1 -5 5541.57 396.766 37
8 -1 -4 9637.09 583.867 37
8 -1 -3 178.742 139.244 37
8 -1 -2 17138.5 921.825 37
8 -1 -1 8987.12 575.676 37
8 -1 0 10947.2 664.286 37
8 -1 1 4111.14 357.482 37
8 -1 2 148.582 147.237 37
8 -1 3 4042.52 353.565 37
8 -1 3 4578.33 325.845 3
8 -1 4 -113.613 133.895 3
8 -1 5 259.718 128.726 3
8 -1 6 89.8087 111.913 3
8 -1 6 123.31 122.821 37
8 -1 7 455.142 203.354 21
8 -1 7 418.663 113.44 37
8 -1 8 1733.87 193.703 21
8 0 -9 351.478 100.632 37
-8 0 8 907.046 202.054 8
8 0 -7 236.09 81.9246 2
8 0 -6 2816.97 221.976 2
8 0 -5 1374.49 172.059 2
8 0 -5 1018.48 198.376 37
8 0 -4 15441.2 782.519 2
8 0 -4 15075.3 831.74 37
8 0 -3 1475.85 200.403 2
8 0 -3 1557.54 235.642 37
8 0 -2 6170.54 409.947 2
8 0 -2 5984.52 447.068 37
8 0 -1 4227.31 363.073 37
-8 0 1 3760.24 320.476 36
8 0 0 12544.4 680.648 2
8 0 0 12622.9 733.493 37
8 0 1 2787.53 253.636 2
8 0 2 1726.93 192.105 2
8 0 3 168.072 133.968 37
8 0 4 1037.61 182.04 37
8 0 5 3460.72 373.666 21
8 0 5 3930.24 295.129 37
8 0 6 1562.02 245.828 21
8 0 7 1043.17 160.243 21
-8 -1 9 8080.94 483.509 8
8 1 -7 2159.21 169.448 2
8 1 -6 5443.26 327.943 2
8 1 -5 11500.9 614.505 2
8 1 -5 11245.8 667.292 37
-8 -1 5 13040.4 638.798 36
8 1 -4 6488.29 405.39 2
8 1 -4 6225.53 443.928 37
-8 -1 4 7228.22 427.388 36
8 1 -3 8006.65 472.223 2
8 1 -2 54.3733 122.715 2
-8 -1 2 321.649 145.868 36
8 1 -1 6249.83 445.519 37
-8 -1 1 6239.47 408.88 36
8 1 0 519.192 139.021 2
8 1 0 461.741 155.606 37
-8 -1 0 693.597 162.595 36
8 1 1 12894.3 680.524 2
8 1 1 13250.7 731.822 37
-8 -1 -1 14190.4 702.504 36
8 1 2 851.452 169.069 37
8 1 3 10782.4 668.585 21
8 1 3 11522.7 612.269 37
8 1 4 33.5421 147.673 21
8 1 5 11625 620.26 21
8 2 -9 2470.9 198.775 37
-8 -2 9 3665.83 252.52 8
-8 -2 8 2489.06 245.867 8
8 2 -7 1726.87 144.548 2
-8 -2 7 3013.56 274.257 8
8 2 -6 1216.79 137.203 2
8 2 -5 224.604 108.004 2
8 2 -5 396.557 131.861 37
-8 -2 5 318.308 118.237 36
8 2 -4 9312.82 522.885 2
8 2 -4 10518.5 577.518 37
-8 -2 4 10249.7 539.891 36
8 2 -3 417.066 126.413 2
8 2 -3 224.79 123.202 37
8 2 -2 12621.8 685.596 37
-8 -2 2 12792.5 660.745 36
8 2 -1 96.5154 109.769 2
8 2 -1 115.827 115.374 37
-8 -2 1 348.965 130.012 36
8 2 0 17070 867.322 2
-8 -2 0 20198.3 897.402 36
-8 -2 -1 716.288 131.175 36
-8 -3 7 93.4612 89.304 8
8 3 -6 36.4363 62.7643 2
-8 -3 6 113.875 106.136 8
8 3 -5 5647.43 312.079 2
-8 -3 5 6300.69 328.18 36
8 3 -4 573.169 105.877 2
8 3 -3 6821.98 378.191 2
-8 -3 3 7197.05 392.659 36
-8 -3 2 114.625 96.7862 36
8 3 -1 3317.87 224.562 2
-8 -3 1 3865.33 247.345 36
-8 -3 0 2204.54 175.673 36
9 -3 0 836.527 116.268 37
9 -3 1 2194.42 181.491 37
9 -3 2 1566.61 150.532 37
9 -3 3 1661.97 152.439 37
9 -2 -4 127.171 72.5283 2
9 -2 -3 707.932 117.029 2
9 -2 -3 1205.33 131.32 37
9 -2 -2 280.668 101.271 2
9 -2 -2 410.203 102.11 37
9 -2 -1 1865.25 180.656 37
9 -2 0 834.365 135.578 37
9 -2 1 1589.34 165.843 2
9 -2 1 3582.19 231.543 37
9 -2 2 -9.91281 76.1297 2
9 -2 2 106.801 90.9904 37
9 -2 3 7156.16 401.008 37
9 -2 4 1868.31 159.161 37
9 -1 -4 551.099 100.094 2
9 -1 -4 1116.11 135.647 37
9 -1 -3 1504.32 160.971 2
9 -1 -3 3170.03 216.733 37
9 -1 -2 731.207 122.853 2
9 -1 -2 914.437 141.727 37
9 -1 -1 2387.52 201.998 2
9 -1 -1 3457.42 244.044 37
9 -1 0 62.5341 95.9959 37
9 -1 1 4113.25 289.175 2
9 -1 1 8613.33 383.882 37
9 -1 2 98.2294 89.7443 37
9 -1 3 2736.33 207.213 37
9 0 -5 1819.23 158.663 37
9 0 -4 5272.73 329.226 2
9 0 -4 9331.04 403.733 37
9 0 -3 476.242 97.6941 2
9 0 -3 584.262 118.167 37
9 0 -2 8434.04 476.22 2
9 0 -2 11821.9 534.91 37
9 0 -1 694.567 128.564 37
9 0 0 1970.35 159.315 2
9 0 2 1815.04 157.515 37
9 1 -3 2954.25 185.026 2
9 1 -2 315.425 76.6071 2
9 1 -2 462.114 92.1382 37
9 1 -1 1220.27 110.192 2
0 0 1 6442.57 341.275 31
0 0 2 6934.05 389.653 23
0 0 2 7620.55 451.305 31
0 0 3 119766 5106.08 26
0 0 -3 122847 5151.14 16
0 0 3 125991 5210.02 23
0 0 3 127240 5312.91 31
0 0 4 104960 4350.48 23
0 0 -4 104852 4265.49 16
0 0 4 108349 4494.59 31
0 0 4 95021.8 4190.26 26
0 0 5 51879.5 2398.18 23
0 0 -5 50806.8 2283.31 16
0 0 5 52367.8 2565.28 31
0 0 -6 98178 4388.71 16
0 0 6 108129 4779.18 31
0 0 6 105403 4564.07 23
0 0 7 40719.1 2316.71 31
0 0 7 42157.1 2124.19 23
0 0 8 4638.44 547.473 23
0 0 8 5711.05 732.338 31
0 0 9 21048.9 1055.98 27
0 0 9 21989.1 1153.75 30
0 0 9 21296.7 1024.39 11
0 0 9 21094.6 1370.87 23
0 0 9 20734.1 1176.39 21
0 0 9 20258 1159.65 15
0 0 9 23589.9 1094.71 33
0 0 9 21462.9 1208.9 12
0 0 9 20698.6 1217.85 13
0 0 9 21241.2 1042.39 9
0 0 10 31570.5 1530.52 9
0 0 10 30463.8 1651.57 15
0 0 10 28572.4 1865.51 23
0 0 10 31812.2 1508.22 11
0 0 10 31811.4 1571.51 33
0 0 10 33145.3 1667.33 30
0 0 10 34217.7 1717.95 21
0 0 11 24233.9 1248.55 33
0 0 11 24872.8 1355.41 30
0 0 11 22307.9 1191.98 9
0 0 11 23839.4 1270.55 29
0 0 11 22125.5 1166.9 11
0 0 12 10900 647.014 32
0 0 12 9674.99 594.205 11
0 0 12 10128.9 691.066 29
0 0 12 9350.84 612.66 9
0 0 12 10067.7 662.187 33
0 0 12 11032.8 786.301 30
0 0 13 1723.08 234.311 11
0 0 13 1488.05 284.219 29
0 0 13 2161.88 390.331 30
0 0 13 1833.47 331.041 18
0 0 13 2179.84 272.671 9
0 0 13 1887.61 281.205 33
0 0 13 1894.8 273.018 32
0 0 14 14765.6 962.291 30
0 0 14 16270.2 834.48 32
0 0 15 2545.46 369.238 30
0 0 16 256.851 192.521 30
0 -1 17 1096.81 197.754 30
0 -1 16 2450.33 335.437 30
0 -1 15 2569.36 386.023 30
0 -1 15 3662.13 319.43 9
0 -1 14 6538.12 479.216 9
0 -1 14 6535.9 595.875 30
0 -1 14 6558.42 445.576 11
0 -1 14 6348.21 525.018 29
0 -1 13 4586.94 430.06 29
0 -1 13 2860.37 369.101 18
0 -1 13 3879.52 396.539 33
0 -1 13 4285.23 374.405 9
0 -1 13 3767.79 467.098 30
0 -1 13 3681.73 333.358 11
0 -1 12 18132.4 903.925 11
0 -1 12 17070.4 929.958 9
0 -1 12 16744.7 967.104 33
0 -1 12 18322.3 1058.51 30
0 -1 11 2558 308.393 27
0 -1 11 3074.43 395.416 30
0 -1 11 3268.25 348.812 33
0 -1 11 3400.03 297.54 11
0 -1 11 2986.4 311.171 9
0 -1 11 2198.14 480.764 23
0 -1 10 1453.99 224.471 27
0 -1 10 1591.35 259.105 10
0 -1 10 1185.58 354.319 23
0 -1 10 1182.79 199.36 9
0 -1 10 1628.8 245.039 33
0 -1 10 1306.1 268.659 21
0 -1 10 1146.65 271.281 30
0 -1 9 4537.95 391.752 37
0 -1 9 4756.61 359.857 27
0 -1 9 5339.71 413.624 10
0 -1 9 5287.95 627.456 23
0 -1 9 4593.9 474.308 15
0 -1 9 5043.09 380.009 33
0 1 -8 2924.57 375.972 16
0 -1 8 3994.47 498.779 23
0 -1 7 105937 4846.82 23
0 1 -7 105595 4721.65 16
0 1 -6 475.426 189.006 16
0 -1 6 356.31 94.1243 24
0 -1 6 374.621 209.402 23
0 -1 5 294827 11540.3 35
0 -1 5 312123 11826.2 23
0 1 -5 308316 11751.4 16
0 1 -4 944.144 178.477 16
0 -1 4 304.73 104.913 35
0 -1 3 533616 22174.3 34
0 -1 2 1999.69 213.123 23
0 -1 2 1790.03 182.117 34
0 -1 1 183976 7714.97 23
0 1 0 209681 8835.78 16
0 -1 0 216631 8893.55 34
0 1 1 305978 12723 16
0 -1 -1 310408 12815.3 34
0 1 2 43292.9 1842.63 23
0 -1 -2 42077 1895.48 34
0 1 3 7664.55 414.799 23
0 1 3 7529.04 585.255 31
0 -1 -3 6975.98 401.948 35
0 1 4 32559.6 1431.1 23
0 1 4 31839.2 1665.31 31
0 -1 -4 32667.9 1338.47 35
0 1 5 3172.03 302.787 23
0 1 5 2982.06 467.56 31
0 1 6 14275.7 1078.25 31
0 1 6 13232.2 805.428 23
0 1 7 92047.1 4204.15 23
0 1 7 96952.3 4628.61 31
0 1 8 3923.43 436.755 23
0 1 8 3613.66 440.167 12
0 1 8 4897.75 746.914 31
0 1 8 5223.2 388.887 29
0 1 8 4448.95 463.606 13
0 1 8 5107.2 475.954 21
0 1 9 15275.1 815.336 29
0 1 9 13294.8 729.901 19
0 1 9 12517.8 886.292 12
0 1 9 13746.5 716.158 11
0 1 9 14686.4 766.578 33
0 1 9 14302.5 733.365 9
0 1 9 11519.9 832.226 15
0 1 9 15483.1 947.197 21
0 1 9 13335.9 757.901 20
0 1 9 13763.3 1341.36 31
0 1 9 13346.3 907.759 13
0 1 10 5220.54 586.475 13
0 1 10 6060.35 405.376 11
0 1 10 6168.47 579.47 15
0 1 10 5395.43 399.868 19
0 1 10 6281.02 485.935 29
0 1 10 5218.88 402.17 9
0 1 10 4783.31 405.082 20
0 1 10 6211.65 432.055 32
0 1 10 5491.11 429.852 33
0 1 11 11492.4 701.973 33
0 1 11 10275 660.62 20
0 1 11 12561.8 687.302 9
0 1 11 13482.1 723.066 32
0 1 11 11624.8 754.61 29
0 1 12 164.778 183.53 29
0 1 12 -179.658 158.293 33
0 1 12 -14.2836 178.58 32
0 1 12 24.5205 235.328 18
0 1 13 952.061 232.019 32
0 1 13 669.886 230.322 29
0 1 13 892.023 285.44 18
0 1 14 150.894 212.64 18
0 1 14 151.226 161.549 32
0 1 15 207.629 139.912 32
0 1 15 69.7551 213.127 30
0 1 15 -13.3264 160.59 18
0 1 16 687.074 196.966 30
0 -2 17 761.958 170.386 30
0 -2 16 145.481 133.318 9
0 -2 16 241.619 193.095 30
0 -2 15 865.475 223.151 29
0 -2 15 1007.33 272.971 30
0 -2 15 1036.94 218.583 9
0 -2 15 816.7 182.402 11
0 -2 14 2592.15 280.895 11
0 -2 14 2699.31 306.662 9
0 -2 14 2029.97 369.904 30
0 -2 13 562.587 222.123 9
0 -2 13 437.762 179.645 11
0 -2 13 477.305 219.934 33
0 -2 13 373.014 202.117 27
0 -2 13 673.193 261.116 30
0 -2 12 1961.07 486.873 23
0 -2 12 1740.93 264.11 32
0 -2 12 1705.19 317.561 30
0 -2 12 1831.59 275.848 27
0 -2 11 5193.47 757.919 23
0 -2 11 5520.98 407.757 32
0 -2 11 4854.17 360.053 4
0 -2 11 4966.15 470.647 30
0 -2 11 4878.86 413.816 27
0 -2 10 27136.1 1344.85 27
0 -2 10 27082.3 1294.5 4
0 -2 10 27703.4 1828.92 23
0 2 -10 23132.1 1600.6 16
0 -2 10 28816.4 1412.47 30
0 -2 10 29340.4 1333.14 32
0 -2 10 28664 1411.63 10
0 -2 9 94.2367 123.487 32
0 2 -9 68.6096 171.947 16
0 -2 9 130.353 137.893 33
0 -2 9 -14.1414 144.693 10
0 -2 9 32.2806 128.399 27
0 -2 9 43.8203 237.228 23
0 -2 8 9104.47 814.301 23
0 2 -8 8318.1 725.168 16
0 2 -7 14624.3 910.657 16
0 -2 7 13218.7 945.465 23
0 -2 6 26712.5 1320.22 35
0 2 -6 27422.5 1467.71 16
0 2 -5 64410.2 2945.08 16
0 -2 5 61954.3 2992.13 23
0 -2 4 80823.1 3645.08 23
0 -2 4 79059.4 3568.62 34
0 2 -4 80839.4 3595.1 16
0 -2 3 4386.95 405.956 34
0 -2 3 4437.32 421.032 23
0 -2 2 9620.58 614.823 23
0 2 -1 16037.2 811.872 16
0 -2 1 14736.3 824.692 23
0 -2 1 16051.2 890.426 34
0 -2 0 168995 7318.54 34
0 2 0 171750 7203.35 16
0 2 1 156323 6492.65 16
0 -2 -1 149622 6641.68 34
0 -2 -2 85058.6 3791.06 34
0 2 3 8539.57 411.735 23
0 2 4 28173.8 1295.18 23
0 -2 -4 32625.1 1451.14 35
0 2 5 -40.7902 268.283 31
0 2 5 62.6443 81.8121 22
0 2 5 -42.3334 70.2302 23
0 2 6 9761.24 965.824 31
0 2 7 25755.6 1797.52 31
0 2 7 26784.2 1343.19 21
0 2 7 24891.6 1229.84 20
0 2 7 23545.3 1213.7 29
0 2 7 26086 1265.89 30
0 2 7 21985.4 1313.56 12
0 2 8 6798.07 910.955 31
0 2 8 7455.05 546.307 30
0 2 8 6913.92 495.721 29
0 2 8 7001.08 497.245 20
0 2 8 6240.33 440.146 19
0 2 8 6015.15 571.996 21
0 2 8 6123.63 582.777 12
0 2 8 6049.79 555.185 13
0 2 9 6782.36 540.345 29
0 2 9 6467.14 991.151 31
0 2 9 7892.12 666.14 13
0 2 9 8206.43 520.008 19
0 2 9 8387.75 561.534 20
0 2 9 7735.36 606.908 30
0 2 9 7670.5 656.659 12
0 2 10 -249.448 354.385 31
0 2 10 313.207 172.043 20
0 2 10 166.995 152.296 19
0 2 10 348.886 310.891 13
0 2 10 17.8218 185.189 29
0 2 10 405.377 255.502 30
0 2 11 151.813 177.916 32
0 2 11 14.6997 152.454 20
0 2 11 239.731 259.596 30
0 2 11 160.099 140.383 19
0 2 12 1853.75 369.174 30
0 2 12 2502.49 304.79 32
0 2 13 233.849 247.807 18
0 2 13 493.463 186.685 32
0 2 13 281.774 257.775 30
0 2 14 130.34 189.663 18
0 2 14 154.272 144.219 32
0 2 14 197.865 214.699 30
0 2 15 990.005 225.802 30
0 2 15 808.282 172.124 18
0 -3 17 719.015 140.265 9
0 -3 16 107.328 129.548 11
0 -3 16 230.914 158.708 30
0 -3 15 749.523 219.831 30
0 -3 15 1078.74 197.204 11
0 -3 14 2339.4 315.618 27
0 -3 14 2969.25 301.413 11
0 -3 14 1871.75 312.915 30
0 -3 13 5307.88 402.706 4
0 -3 13 5820.21 476.298 27
0 -3 13 5382.76 493.763 30
0 -3 13 6558.05 504.231 33
0 -3 12 2535.33 327.439 27
0 -3 12 1985.34 543.562 23
0 -3 12 2688.64 352.461 10
0 -3 12 1679.47 297.618 30
0 -3 12 2282.26 254.379 4
0 -3 12 2914.8 343.727 33
0 -3 11 11631.4 705.489 33
0 -3 11 10948.1 725.818 10
0 -3 11 11008.3 632.67 4
0 -3 11 10998.5 709.897 30
0 -3 11 12754.5 715.704 27
0 -3 11 11343.6 1168.01 23
0 3 -10 3365 549.386 16
0 -3 10 3317.41 629.494 23
0 -3 10 3371.83 352.092 30
0 -3 10 4139.92 363.163 27
0 -3 10 3946.03 313.131 4
0 -3 10 3951.85 378.704 10
0 -3 10 3952.39 353.722 33
0 3 -9 12180.4 1018.48 16
0 -3 9 12363.1 651.383 4
0 -3 9 12476.3 725.99 10
0 -3 9 11761.9 687.602 33
0 -3 8 60311.7 2885.48 35
0 3 -8 68292.6 3216.07 16
0 -3 7 627.506 202.266 35
0 3 -7 634.183 257.995 16
0 -3 7 514.512 272.252 23
0 -3 6 8198.56 742.299 23
0 3 -6 9229.77 727.565 16
0 -3 6 8140.12 631.215 35
0 -3 5 46364.2 2447.63 23
0 3 -5 47977.6 2390.1 16
0 -3 5 50442.5 2392.5 34
0 -3 4 14255.3 951.869 23
0 3 -4 13510.3 877.485 16
0 -3 4 14425.4 934.379 34
0 -3 3 43306.5 2158.66 23
0 -3 3 43306.4 2195.27 34
0 -3 2 74930 3491.48 23
0 3 -2 78599.5 3461.98 16
0 -3 1 1370.08 317.848 34
0 3 -1 1755.8 241.337 16
0 -3 0 85457.5 3983.59 34
0 3 0 86733.4 3797.39 16
0 3 1 9720.45 560.755 16
0 -3 -1 8856.71 739.456 34
0 -3 -2 164341 7247.1 34
0 -3 -3 9344.85 706.14 35
0 -3 -4 42359 2120 35
0 3 5 23029.6 1290.69 22
0 3 5 26244.2 1764.34 31
0 3 6 64793.8 3428.64 31
0 3 6 57061.5 2605.51 19
0 3 6 59860.6 2664.55 30
0 3 6 62416.5 2758.08 21
0 3 6 52100.5 2725.76 12
0 3 6 60337.7 2669.82 20
0 3 7 1647.67 342.997 12
0 3 7 2145.51 257.369 19
0 3 7 2679.9 314.858 20
0 3 7 1873.04 332.757 13
0 3 7 2095.39 604.018 31
0 3 7 2282.38 307.123 30
0 3 8 31644.9 2268.19 31
0 3 8 27652.1 1357.9 19
0 3 8 23792.1 1485.45 12
0 3 8 25842.7 1491.19 13
0 3 8 28018.6 1450.88 30
0 3 8 31030.9 1448.13 20
0 3 9 3599.39 390.163 20
0 3 9 2950.33 397.068 30
0 3 9 2466.33 436.135 13
0 3 9 2732.05 733.639 31
0 3 9 2526.6 316.924 19
0 3 10 1250.5 368.289 13
0 3 10 1203.51 257.653 20
0 3 10 1047.96 316.939 18
0 3 10 1213.11 309.749 30
0 3 10 907.74 538.274 31
0 3 10 1149.66 223.624 19
0 3 11 96.6983 255.625 18
0 3 11 66.8033 232.538 30
0 3 11 361.029 184.485 32
0 3 11 228.302 160.993 19
0 3 11 339.541 181.686 20
0 3 12 4017.95 455.941 18
0 3 12 4099.1 351.473 32
0 3 12 3392.06 422.763 30
0 3 13 3605.8 380.356 18
0 3 13 3027.93 372.259 30
0 3 13 3307.48 293.535 32
0 -4 16 379.435 157.213 9
0 -4 16 425.497 141.402 11
0 -4 15 417.5 191.008 9
0 -4 15 449.087 172.652 11
0 -4 15 368.222 192.918 27
0 -4 14 5059.78 416.108 9
0 -4 14 4231.87 346.798 4
0 -4 14 5264.97 437.741 27
0 -4 13 18007.1 937.126 4
0 -4 13 18171.5 1009.2 27
0 4 -12 7894.81 926.442 16
0 -4 12 9317.52 662.464 10
0 -4 12 9162.19 577.425 4
0 -4 11 5479.41 403.974 4
0 -4 11 5496.18 461.442 10
0 -4 11 4566.23 421.9 33
0 4 -11 4019.42 666.717 16
0 -4 11 6024.73 468.352 27
0 -4 10 36177.2 1737.95 6
0 -4 10 39238.1 1882.02 10
0 -4 10 39958.1 1854.34 33
0 -4 10 43199.1 1827.2 4
0 4 -10 43728.8 2442.03 16
0 -4 9 1169.15 203.519 33
0 -4 9 1202.77 219.702 10
0 -4 9 1277.17 438.705 23
0 4 -9 1091.55 367.131 16
0 -4 9 1402 159.792 6
0 -4 8 52658.9 2301.12 7
0 -4 8 48317.8 2318.96 10
0 -4 8 49356.8 2299.8 33
0 -4 8 56513.6 2901.91 23
0 4 -8 47820.6 2653.82 22
0 -4 8 55075.6 2624.24 35
0 -4 7 19692.2 1401.37 23
0 4 -7 21142.5 1360.95 16
0 -4 7 18752.2 1238.67 35
0 -4 6 2248.71 393.918 35
0 -4 6 2596.61 457.749 23
0 4 -6 3332.99 459.839 16
0 -4 5 27776 1660.06 23
0 4 -4 6629.69 604.134 16
0 -4 4 7030.93 677.49 34
0 -4 4 6783.04 652.819 23
0 4 -3 126372 5638.89 16
0 4 -2 2289.9 329.742 16
0 -4 2 2580.19 448.22 34
0 4 -1 216274 9124.68 16
0 -4 1 204745 9341.97 34
0 4 0 60763 2799.48 16
0 -4 0 59036.1 3060.75 34
0 4 1 264290 11177.8 16
0 -4 -2 99929.2 4706.57 35
0 -4 -3 42313.2 2287.11 35
0 4 4 7225.39 699.157 22
0 -4 -4 7026.79 700.015 35
0 4 4 7527.04 507.912 20
0 4 4 6716.56 454.038 19
0 4 5 13110.1 861.522 13
0 4 5 13196.7 1358.63 31
0 4 5 14122 810.117 30
0 4 5 15414.3 845.391 20
0 4 6 1927.07 251.508 19
0 4 6 1387.14 303.468 12
0 4 6 1688.73 574.749 31
0 4 6 1860.73 279.51 30
0 4 6 1972.73 330.673 13
0 4 7 11777.6 894.418 12
0 4 7 12726.2 902.029 13
0 4 7 14759.9 862.478 30
0 4 7 15396.4 1573.5 31
0 4 7 14261.4 800.73 19
0 4 8 857.221 220.305 19
0 4 8 391.437 276.337 13
0 4 8 679.517 245.512 30
0 4 8 411.5 269.564 18
0 4 8 93.0382 412.675 31
0 4 8 743.104 251 20
0 4 9 21859.9 1241.39 30
0 4 9 24286.4 1244.63 20
0 4 9 24165 1176.19 19
0 4 9 18696.8 1928.42 31
0 4 9 21267.9 1275.36 18
0 4 9 20213.8 1280.97 13
0 4 10 7790.28 636.88 18
0 4 10 7518.61 612.016 30
0 4 10 8410.89 544.729 19
0 4 10 8194.79 582.826 20
0 4 11 8148.15 509.945 32
0 4 11 7899.73 611.644 18
0 4 11 7624.45 523.197 20
0 4 12 2319.31 297.918 18
0 4 12 2165.69 233.852 32
0 4 13 6884.67 448.558 18
0 -5 17 578.649 114.559 9
0 -5 16 208.752 136.957 27
0 -5 16 357.549 132.792 11
0 -5 16 271.662 137.993 9
0 -5 15 6527.26 441.346 9
0 -5 15 6397.08 464.999 27
0 -5 14 545.333 150.595 4
0 -5 14 662.831 220.033 27
0 -5 13 15063.4 851.973 27
0 -5 13 13415.1 766.442 4
0 -5 12 5899.9 488.303 10
0 -5 12 6582.84 456.152 4
0 -5 12 6670.81 517.421 27
0 -5 11 17207.5 846.91 4
0 -5 11 14368.1 860.523 10
0 5 -11 15458.6 1347.95 16
0 -5 11 13953.6 747.328 6
0 -5 10 5330.98 354.922 6
0 -5 10 4849.59 420.946 10
0 -5 9 2341.29 262.053 7
0 -5 9 1594.24 353.788 35
0 5 -9 2460.88 508.08 16
0 -5 9 1741.87 250.584 10
0 -5 9 1689.75 488.556 23
0 5 -8 19642.5 1407.93 16
0 5 -8 16917.5 1340.85 22
0 -5 8 18204.4 1434.65 23
0 -5 8 20317 1338.65 35
0 -5 8 19660.7 944.304 7
0 -5 8 15512.8 913.789 10
0 -5 7 5323.32 708.599 23
0 5 -7 4746.45 341.075 2
0 -5 7 5096.63 636.16 35
0 5 -7 6214.39 693.332 16
0 -5 6 78701.4 3953.25 35
0 -5 6 81897.5 3489.58 7
0 5 -6 78737.3 3454.19 2
0 -5 5 13365.6 721.208 7
0 5 -5 15743.1 1093.63 16
0 5 -5 13388.8 702.351 2
0 -5 5 15355.1 1127.65 35
0 5 -4 84113.6 4038.26 16
0 5 -3 55907.7 2814.64 16
0 5 -2 75064.9 3579.67 16
0 5 -1 57514 2815.32 16
0 -5 0 23225.9 1529.4 35
0 5 0 20344.5 1004.81 2
0 5 0 22266.4 1226.21 16
0 5 1 32086 1422.38 2
0 -5 -1 32033.5 1949.45 35
0 5 1 30768.7 1443.75 19
0 5 1 28766.2 1458.63 20
0 5 2 30866.2 1515.99 20
0 -5 -2 32190.8 1970.17 35
0 5 2 32132.1 1445.43 2
0 5 2 31953.3 1488.57 19
0 5 2 29172.1 1569.48 13
0 5 3 1111.14 263.325 13
0 -5 -3 867.709 327.144 35
0 5 3 1026.48 196.762 19
0 5 3 1366.82 170.004 2
0 5 3 1145.53 341.339 22
0 5 3 1052.79 224.817 20
0 5 4 890.328 322.977 22
0 5 4 1334.05 567.107 31
0 5 4 792.685 249.009 13
0 5 4 993.167 233.711 20
0 5 4 938.969 219.746 18
0 5 4 932.226 208.682 19
0 5 5 89.1883 394.28 31
0 5 5 249.285 210.472 20
0 5 5 109.047 173.251 18
0 5 5 129.038 221.602 13
0 5 5 258.604 178.153 19
0 5 6 32872.7 1577.94 20
0 5 6 29463.2 1553.49 18
0 5 6 29078.4 1592.33 13
0 5 7 7698.4 582.279 20
0 5 7 7182.87 1132.19 31
0 5 7 6827.8 605.007 13
0 5 7 6679.06 571.901 18
0 5 8 30858.2 1450.25 19
0 5 8 26446 1489.83 18
0 5 9 223.768 197.184 18
0 5 9 162.603 193.203 20
0 5 10 5066.57 399.781 20
0 5 10 5076.04 359.61 32
0 5 10 4083.76 405.712 18
0 5 11 113.67 129.1 20
0 5 11 59.778 142.683 18
0 5 12 4273.47 295.33 18
0 -6 16 327.456 116.736 9
0 -6 16 635.099 140.045 27
0 -6 16 736.539 127.385 11
0 -6 15 244.823 135.696 9
0 -6 15 126.463 154.194 27
0 -6 14 2720.3 306.388 27
0 -6 14 2385.46 241.346 4
0 -6 13 742.982 175.213 4
0 -6 13 600.289 226.742 27
0 -6 12 115.6 154.576 10
0 -6 12 -49.6187 147.269 4
0 6 -11 183.222 270.005 16
0 -6 11 165.869 105.128 6
0 -6 11 57.97 144.365 10
0 -6 11 155.411 158.353 4
0 -6 10 6860.29 497.539 10
0 -6 10 7565.88 457.311 6
0 6 -10 7333.06 900.617 16
0 6 -9 918.535 171.207 2
0 -6 9 1254.82 366.148 35
0 6 -9 636.549 337.042 16
0 6 -8 3551.19 627.512 22
0 -6 8 3477.17 578.588 35
0 6 -8 3403.86 301.574 2
0 6 -7 15825.9 1287.91 16
0 -6 7 16654.5 870.774 7
0 -6 7 15738.9 1291.31 35
0 6 -7 15225.5 827.5 2
0 6 -6 15381.3 794.308 2
0 6 -6 15585.1 1226.53 16
0 -6 6 15328.7 1255.91 35
0 -6 6 14081.1 802.114 7
0 6 -5 5564.33 398.836 2
0 6 -5 5795.89 692.667 16
0 -6 5 6402.96 432.526 7
0 -6 5 5082.44 726.176 35
0 -6 4 24162.4 1175.4 7
0 6 -4 22974.3 1154.65 2
0 6 -4 25490.5 1586.36 16
0 6 -3 1565.32 202.66 2
0 -6 3 1866.89 480.173 35
0 6 -3 1483.53 342.544 16
0 6 -2 6675.04 665.125 16
0 -6 2 7021.46 845.936 35
0 6 -1 150.992 151.507 16
0 -6 1 222.131 286.029 35
0 6 -1 169.635 126.679 2
0 6 0 5074.12 406.178 20
0 -6 0 5986.24 792.353 35
0 6 0 6050.18 397.273 2
0 6 1 3144.55 328.386 20
0 6 1 3416.17 314.008 19
0 -6 -1 3582.2 630.622 35
0 6 1 3746.13 298.276 2
0 6 1 2578.39 369.793 13
0 6 2 3584.68 424.315 13
0 6 2 3719.31 636.035 22
0 6 2 4033.76 327.353 2
0 6 2 4982.9 376.75 19
0 -6 -2 3007.58 578.967 35
0 6 2 3947.02 373.422 20
0 6 3 4620.26 384.351 19
0 6 3 4161.53 324.946 2
0 6 3 4253.17 645.545 22
0 6 3 4329.18 404.864 20
0 6 4 161.71 177.1 19
0 6 4 -35.0799 189.9 20
0 6 4 -285.572 435.509 31
0 6 5 13902.4 776.557 19
0 6 5 12275.1 791.695 20
0 6 6 2129.01 286.621 18
0 6 6 2045.24 314.206 20
0 6 7 2917.9 329.32 18
0 6 7 4006.5 392.211 20
0 6 8 4275.12 368.989 20
0 6 8 2877.77 315.353 18
0 6 9 707.963 161.782 18
0 6 9 382.812 138.728 17
0 6 10 207.139 92.4865 17
0 6 10 71.1791 90.2967 18
0 -7 16 7.84853 64.5685 11
0 -7 15 -7.90642 114.026 27
0 -7 15 -76.0164 90.0875 9
0 -7 14 335.319 120.322 4
0 -7 14 374.361 127.832 9
0 -7 13 990.083 174.669 4
0 -7 12 54.8932 136.038 4
0 -7 11 3617.99 318.849 4
0 -7 11 3208.35 267.648 6
0 -7 10 4554.52 331.651 6
0 7 -9 228.097 139.507 2
0 7 -9 291.596 248.476 16
0 -7 9 -50.5653 223.59 35
0 -7 8 1638.01 427.635 35
0 -7 8 1613.62 244.07 7
0 7 -8 792.628 340.312 16
0 7 -8 1453.53 446.15 22
0 7 -8 1790.82 240.058 2
0 7 -7 6199.93 801.088 16
0 7 -7 7298.5 481.52 2
0 -7 7 6574.73 855.702 35
0 7 -7 6200.59 881.328 22
0 -7 7 7323.93 503.659 7
0 7 -6 9594.02 989.286 16
0 -7 6 10423.3 629.625 7
0 7 -6 10282.1 615.769 2
0 -7 6 10584.9 1091.1 35
0 7 -6 8535.2 1052.79 22
0 -7 5 8617.58 548.823 7
0 7 -5 8194.14 530.509 2
0 7 -5 7923.82 993.512 22
0 -7 5 8016.86 956.256 35
0 7 -5 7798.92 844.123 16
0 7 -4 3143.36 308.347 2
0 7 -4 2891.08 492.06 16
0 -7 4 3305.2 316.483 7
0 7 -3 1472.99 366.888 16
0 -7 3 1532.11 219.744 7
0 -7 3 1322.97 438.27 35
0 7 -2 5198.26 790.042 22
0 7 -2 5216.87 412.656 2
0 -7 2 5768.65 427.348 7
0 -7 2 6170.43 860.63 35
0 -7 1 -63.9347 282.616 35
0 7 -1 87.4491 149.094 2
0 7 -1 109.812 113.153 17
0 7 -1 200.245 249.372 22
0 7 0 63.8065 139.944 20
0 7 0 184.075 142.179 2
0 7 0 195.457 266.687 22
0 -7 0 377.837 288.179 35
0 7 1 19034.5 1006.24 20
0 -7 -1 19453.2 1586.32 35
0 7 1 18870.8 975.354 2
0 7 1 18283.1 1539.48 22
0 7 2 3918 362.839 20
0 7 2 4042.31 317.575 2
0 7 3 5451.59 442.77 20
0 7 4 3247.5 342.594 20
0 7 5 20168.1 1062.85 20
0 7 6 6821.29 474.542 20
0 7 7 1343.36 208.8 20
0 7 7 1368.84 181.42 17
0 7 8 2863.53 246.088 20
0 7 9 786.816 93.2572 17
0 -8 14 677.049 107.131 4
0 -8 14 588.602 91.3361 9
0 -8 13 1079.11 137.55 9
0 -8 13 1879.45 175.782 4
0 -8 12 295.222 163.956 27
0 -8 12 355.693 131.919 4
0 -8 11 6010.66 361.31 6
0 -8 10 1107.1 158.644 6
0 -8 9 19473.2 957.77 6
0 -8 9 19379.2 1002.81 7
0 -8 8 1984.94 258.88 7
0 8 -8 2425.66 260.515 2
0 -8 7 3519.17 326.087 7
0 8 -7 3150.75 304.017 2
0 -8 6 530.985 178.631 7
0 8 -6 342.976 161.886 2
0 -8 5 3092.88 307.836 7
0 8 -5 3128.68 310.372 2
0 -8 4 2902.44 605.074 35
0 -8 4 3642.7 332.139 7
0 8 -4 3661.06 335.787 2
0 -8 3 3167.96 311.116 7
0 8 -2 5690.56 427.708 2
0 -8 2 6228.64 436.622 7
0 -8 1 4675.2 363.745 7
0 8 -1 4086.82 312.371 17
0 8 -1 4603.68 360.556 2
0 -8 0 28174.2 1319.57 7
0 8 0 27018.3 1284.13 17
0 8 0 26468.4 1304.69 2
0 8 1 10660.3 601.365 20
0 -8 -1 10424.1 607.823 7
0 8 1 10977.1 603.298 17
0 -8 -2 9303.79 531.646 7
0 8 2 8979.01 543.662 20
0 8 2 9740.15 547.092 17
0 8 3 11005.4 605.93 17
0 8 3 10853.6 611.085 20
0 8 4 5050.97 351.711 20
0 8 4 5036.85 341.374 17
0 8 5 5727.49 350.657 17
0 8 6 1884.91 163.609 17
0 -9 13 332.094 91.3712 27
0 -9 13 244.949 64.5426 4
0 -9 12 2772.86 225.464 27
0 -9 11 954.178 165.184 27
0 -9 10 2903.77 229.38 4
0 -9 10 2372.13 192.372 6
0 -9 9 238.971 101.149 6
0 -9 8 749.584 154.496 7
0 -9 7 1832.69 217.453 7
0 -9 6 2830.75 265.237 7
0 -9 5 6859.93 442.743 7
0 -9 4 5976.18 401.007 7
0 -9 3 4418.97 329.175 7
0 -9 2 11185.8 606.464 7
0 -9 1 3270.4 259.957 7
0 -9 0 4616.69 299.477 7
0 9 1 3899.86 246.524 17
0 9 1 4599.91 305.158 14
0 9 2 3048.95 198.952 17
0 -10 9 1007.27 120.396 27
0 -10 9 943.915 101.901 4
0 -10 9 777.82 89.3715 6
0 -10 8 112.575 70.4609 4
0 -10 7 849.942 107.943 6
0 10 -7 756.256 101.627 14
0 -10 6 1657.56 147.855 6
0 -10 5 2899.13 195.365 6
0 -10 4 442.502 77.7197 6
0 -10 4 414.019 85.9573 7
0 -10 3 707.771 87.6545 7
0 -10 3 645.534 79.4414 6
0 -10 2 311.342 82.0733 36
0 10 -1 399.757 82.3613 14
-1 10 0 446.965 88.6048 14
-1 10 -2 27.7956 85.7086 14
-1 10 -3 4649.24 275.864 14
1 -10 3 2983.3 194.319 6
1 -10 4 27.4942 62.4878 6
-1 10 -4 163.2 97.2258 14
-1 10 -5 2656.36 212.433 14
1 -10 5 2376.48 179.34 6
-1 10 -6 132.754 87.9578 14
1 -10 6 178.311 82.4369 6
1 -10 6 150.16 85.3093 4
1 -10 7 9020.95 466.169 4
-1 10 -7 8569.72 461.901 14
1 -10 8 1644.57 141.984 6
1 -10 8 1529.94 144.744 4
1 -10 9 1744.98 146.477 4
1 -10 10 156.12 55.2984 6
1 -10 10 147.256 62.2838 4
1 -10 10 158.128 87.5493 27
-1 9 4 201.854 67.0663 17
-1 9 3 781.238 110.226 17
-1 9 2 3632.05 265.736 14
-1 9 2 3395.88 237.946 17
-1 9 1 763.212 122.98 17
-1 9 1 577.475 142.095 14
-1 9 0 12819.8 639.657 17
1 -9 1 3417.41 252.305 7
1 -9 1 3505.52 238.429 6
1 -9 2 16850.4 791.777 6
1 -9 2 15380.7 793.01 7
1 -9 3 5323.91 356.065 7
1 -9 4 3832.19 296.835 7
1 -9 5 6820.57 413.858 6
1 -9 5 6425.22 421.907 7
1 -9 6 1382.96 181.68 6
1 -9 6 1201.56 185.165 7
1 -9 7 -8.53067 106.647 6
1 -9 8 7211.36 426.732 6
1 -9 9 563.463 141.368 4
1 -9 10 463.23 130.793 4
1 -9 10 570.488 111.946 6
1 -9 11 101.976 93.6633 4
1 -9 11 -10.8136 69.0961 6
1 -9 12 1972.66 170.4 4
1 -9 13 81.0432 79.6752 27
-1 8 7 526.244 92.1573 17
-1 8 6 213.905 95.4949 17
-1 8 5 6309.86 392.501 17
-1 8 4 4872.1 348.305 17
-1 8 3 13268.1 726.924 17
-1 8 3 13796.2 740.371 14
-1 8 2 5286.13 380.898 17
-1 8 1 1456.54 208.927 17
-1 8 0 20716.6 996.834 17
1 -8 0 18331 964.088 7
-1 8 0 20345.1 1157.02 13
-1 8 -1 5582.69 549.902 13
-1 8 -1 5921.28 394.657 17
1 -8 1 5463.62 390.428 7
1 -8 2 7314.07 464.263 7
-1 8 -2 7711.29 955.875 22
-1 8 -2 6700.08 433.575 17
1 -8 2 6530.11 871.743 35
1 -8 3 164.367 135.359 7
1 -8 3 190.098 280.163 35
1 -8 4 566.016 364.323 35
-1 8 -4 201.786 286.95 22
1 -8 4 421.041 149.939 7
1 -8 5 428.568 166.187 7
1 -8 5 1170.82 406.07 35
-1 8 -5 1070.36 395.92 22
1 -8 6 1445.09 216.475 7
1 -8 6 1308.67 431.427 35
1 -8 7 12353.8 708.738 7
1 -8 8 491.649 175.415 7
1 -8 9 827.034 161.666 6
1 -8 10 2174.53 244.904 4
1 -8 10 2282.05 220.525 6
1 -8 11 2271.69 208.68 6
1 -8 11 2321.67 241.749 4
1 -8 12 647.127 155.502 4
1 -8 12 764.632 188.739 27
1 -8 13 1019.93 178.703 27
1 -8 14 236.077 93.3935 4
1 -8 14 438.55 117.149 27
1 -8 15 11.3314 66.482 11
-1 7 9 616.93 99.9876 17
-1 7 8 197.446 107.585 17
-1 7 7 953.663 194.887 20
-1 7 6 1899.96 238.499 17
-1 7 6 2035.02 266.806 20
-1 7 5 11581.2 684.906 17
-1 7 5 12057.1 719.772 20
-1 7 4 -13.4044 139.856 17
-1 7 4 -52.3039 128.319 14
-1 7 4 -44.9184 240.252 13
-1 7 4 -45.7056 165.934 20
-1 7 3 7724.88 1139.39 31
-1 7 3 8151.35 524.326 17
-1 7 3 6859.82 520.135 20
-1 7 3 7156.68 641.749 13
-1 7 2 6089.47 803.936 22
-1 7 2 7669.41 648.781 13
-1 7 2 6846.64 500.045 20
1 -7 -2 7399.1 870.541 35
-1 7 2 7206.19 489.566 17
1 -7 -1 7658.19 919.249 35
-1 7 1 8246.53 690.891 13
-1 7 1 7682.52 509.059 17
-1 7 1 7846.56 517.853 20
1 -7 -1 6944.69 465.508 7
-1 7 1 8149.52 961.924 22
-1 7 0 26074.8 1227.77 17
-1 7 0 24366.9 1216.54 20
1 -7 0 26677.8 1879.52 35
-1 7 0 25037.9 1222.31 2
1 -7 0 22744.6 1186.09 7
-1 7 0 24578.2 1843.54 22
-1 7 -1 7683.12 481.672 17
1 -7 1 7156.99 470.985 7
-1 7 -1 6848.51 483.247 2
-1 7 -1 6177.3 866.816 22
-1 7 -2 2929.16 293.108 2
1 -7 2 2775.78 277.957 7
1 -7 2 2728.1 615.774 35
-1 7 -2 2294.79 576.478 22
-1 7 -2 3154.62 278.332 17
1 -7 3 183.963 298.757 35
-1 7 -3 173.268 204.808 16
-1 7 -3 394.477 320.304 22
1 -7 3 141.812 124.291 7
1 -7 4 132.936 133.221 7
-1 7 -4 190.194 231.625 16
-1 7 -4 65.8861 269.644 22
-1 7 -4 38.4734 138.078 2
-1 7 -5 4223.46 703.136 22
1 -7 5 3434.08 622.323 35
-1 7 -5 3271.19 560.122 16
-1 7 -5 3160.04 313.773 2
1 -7 5 3682.97 316.574 7
-1 7 -6 4532.04 378.699 2
1 -7 6 4644.5 375.583 7
-1 7 -6 4667.3 765.493 22
-1 7 -6 5130.93 701.189 16
1 -7 6 4919.03 726.598 35
-1 7 -7 14783.3 812.143 2
-1 7 -7 14314.3 1266.85 16
1 -7 7 14407.4 1286.42 35
-1 7 -7 12276 1274.2 22
1 -7 7 15508.2 824.298 7
-1 7 -8 8906.31 1042.9 22
1 -7 8 11556.3 672.673 7
-1 7 -8 11175.8 1103.12 16
1 -7 8 10197.3 1035.1 35
1 -7 9 16568.6 1400.88 35
1 -7 9 21217.6 1016.78 6
-1 7 -10 1148.84 388.446 16
1 -7 10 1351.11 194.627 6
1 -7 11 1342.62 180.558 6
1 -7 12 3389.04 261.024 6
1 -7 13 3119.45 280.342 4
1 -7 13 2312.34 235.493 9
1 -7 14 156.355 114.406 4
1 -7 14 204.265 146.86 27
1 -7 14 157.581 103.244 9
1 -7 15 177.339 84.0427 9
-1 6 10 259.249 128.421 18
-1 6 10 229.751 94.6333 17
-1 6 9 2207.53 225.699 17
-1 6 9 1799.97 245.14 18
-1 6 8 1757.53 235.116 17
-1 6 8 2216.68 288.57 20
-1 6 8 1975.19 279.894 18
-1 6 7 10085.3 679.441 18
-1 6 7 11181 706.913 20
-1 6 6 977.362 238.795 18
-1 6 6 1276.96 333.073 13
-1 6 6 1605.76 285.529 20
-1 6 6 782.051 505.794 31
-1 6 5 25616.9 1477.16 13
-1 6 5 25527.7 1286.02 14
-1 6 5 28466.5 1390.17 20
-1 6 5 25803 2258.22 31
-1 6 5 25716.6 1346.27 18
-1 6 4 33257.6 1591.07 20
-1 6 4 30532.5 1694.18 13
-1 6 3 65184.8 3059.45 13
-1 6 3 66700.7 3452.27 22
1 -6 -3 57670.1 3362.32 35
-1 6 3 66324.1 3933.15 31
-1 6 3 63338 2895.19 20
-1 6 2 6174.42 478.695 20
-1 6 2 7132.28 836.761 22
-1 6 2 6818.88 435.106 2
1 -6 -2 6167.43 808.325 35
-1 6 2 5997.06 591.99 13
-1 6 1 53875.7 2465.73 20
-1 6 1 59297.1 3139.19 22
-1 6 1 53431.4 2420.87 2
-1 6 0 2801.91 566.406 22
-1 6 0 2319.46 239.81 2
-1 6 0 2379.92 261.81 20
-1 6 -1 9820.41 576.148 2
1 -6 1 10339.5 1080.55 34
-1 6 -1 10031.4 577.5 17
-1 6 -1 9005.27 982.584 22
-1 6 -2 5126.35 352.112 17
1 -6 2 4480.8 343.568 7
-1 6 -2 5023.26 595.29 16
-1 6 -3 15099.5 1272.05 22
-1 6 -3 14372.2 777.661 2
1 -6 3 14347.4 770.919 7
1 -6 3 16720.9 1349.87 34
-1 6 -3 16139.9 1150.74 16
1 -6 4 29682.4 1429.49 7
-1 6 -4 33260.9 2076.88 22
-1 6 -4 32951.6 1900.45 16
-1 6 -4 30133.5 1437.57 2
1 -6 5 4729.27 707.121 34
-1 6 -5 3932.39 597.91 16
-1 6 -5 4506.6 704.866 22
-1 6 -5 4615.59 351.957 2
1 -6 5 5136.01 365.694 7
-1 6 -6 27339.8 1291.93 2
-1 6 -6 26332.6 1871.99 22
-1 6 -6 27397.8 1778.03 16
1 -6 6 25903.3 1290.91 7
1 -6 7 19336.4 1430.09 35
1 -6 7 19782.4 997.768 7
1 -6 7 17312.2 1406.91 23
-1 6 -7 17902.8 1481.28 22
-1 6 -7 19204.3 976.423 2
-1 6 -8 16929.8 1349.35 16
1 -6 8 14784.2 1227.89 35
1 -6 8 14264.3 1289.05 23
1 -6 8 15517.3 849.884 7
-1 6 -8 16613.4 1365.46 22
1 -6 9 15769.4 1404.36 23
1 -6 9 18355.8 895.262 6
1 -6 9 15849.7 1279.14 35
-1 6 -9 16520.2 1419.95 16
1 -6 10 13814.5 1316.38 23
-1 6 -10 15338.2 1339.03 16
1 -6 10 14287.1 758.112 6
1 -6 11 3199.36 268.084 6
-1 6 -11 2110.34 528.058 16
1 -6 12 96.3075 97.1004 6
1 -6 12 103.358 152.671 4
1 -6 12 77.2716 192.379 27
1 -6 13 381.754 159.123 9
1 -6 13 800.023 220.728 27
1 -6 13 332.63 154.826 4
1 -6 14 2776.81 295.101 27
1 -6 14 2331.17 250.2 4
1 -6 14 2619.95 252.279 9
1 -6 15 495.117 138.869 9
1 -6 16 1575.14 161.204 9
-1 5 12 1883.5 215.737 18
-1 5 11 2997.2 317.508 18
-1 5 10 22007.8 1134.48 17
-1 5 10 25604.9 1213.59 20
-1 5 10 23562.4 1246.21 18
-1 5 9 692.648 237.25 20
-1 5 9 533.274 241.246 18
-1 5 9 320.848 292.402 13
-1 5 8 50743.6 2310.71 18
-1 5 8 46734.4 2266.26 30
-1 5 8 50990.1 2405.43 13
-1 5 8 42280 3197.86 31
-1 5 8 41573.2 2308.79 12
-1 5 7 749.716 343.543 12
-1 5 7 1325.02 358.468 13
-1 5 7 1090.05 273.754 18
-1 5 7 1120.55 275.884 30
-1 5 6 22823.3 1264.85 30
-1 5 6 21162.9 1340.89 12
-1 5 6 23020 1141.03 14
-1 5 6 24660.9 1286.44 18
-1 5 6 24274 1378.35 13
-1 5 6 23917.8 1260.73 20
-1 5 5 199.985 238.112 12
-1 5 5 107.971 188.984 30
-1 5 5 125.142 269.386 13
-1 5 5 -54.97 179.843 18
-1 5 5 203.587 182.628 20
-1 5 4 64353.2 3811.1 31
-1 5 4 64493.3 3019.85 13
-1 5 4 60491.7 2986.32 12
-1 5 4 65264 2856.25 19
-1 5 4 63132.8 3270.85 22
-1 5 4 63644.9 2891.39 20
-1 5 4 63197.4 2895.66 18
-1 5 3 1738.66 328.065 13
-1 5 3 1391.76 363.597 22
-1 5 3 1498.69 213.222 19
-1 5 3 1195.49 167.463 2
-1 5 3 1030.08 220.694 20
1 -5 -2 57174.3 2967.57 34
-1 5 2 53646.4 2851.15 22
-1 5 2 52908.1 2348.88 19
-1 5 2 51036.3 2300.95 2
-1 5 2 51113.9 2364.63 20
1 -5 -1 31440 1977.93 34
-1 5 1 30827.6 1929.53 22
1 -5 0 42275.5 2365.97 34
-1 5 0 37674.2 2009 16
-1 5 0 39730 2286.44 22
-1 5 -1 12458.7 900.818 16
1 -5 1 12495.5 1078.96 34
1 -5 2 133298 6309.76 34
-1 5 -2 135554 6084.94 16
-1 5 -3 67240.7 3206.58 16
1 -5 3 62020 3088.58 23
-1 5 -4 55247.1 2789.44 16
-1 5 -4 53566.5 2898.18 22
1 -5 4 49515.9 2718.1 23
1 -5 4 58673.6 2955.17 34
1 -5 5 4536.29 561.138 23
-1 5 -5 4077.04 541.242 16
-1 5 -5 3816.8 580.752 22
1 -5 5 3603.05 288.974 7
1 -5 5 3621.28 557.388 34
-1 5 -6 34960.5 2141.5 22
1 -5 6 36019.8 2101.47 23
1 -5 6 40096.7 2172.31 34
1 -5 6 36485.5 1648.91 7
-1 5 -6 34215.6 1622.34 2
-1 5 -7 10301.5 927.736 16
1 -5 7 9189.51 908.829 23
1 -5 7 9599.43 904.257 34
-1 5 -7 8860.6 534.103 2
-1 5 -7 9857.13 931.634 22
1 -5 7 9654.24 566.138 7
1 -5 8 7464.92 863.301 23
1 -5 8 8089.51 501.155 7
1 -5 8 8310.25 789.385 35
1 -5 8 7023.14 464.44 33
-1 5 -8 6353.91 752.066 22
-1 5 -8 7360.47 832.126 16
-1 5 -9 20418.5 1459.69 16
1 -5 9 17306.7 1213.87 35
1 -5 9 16593 899.749 33
1 -5 9 16223.2 910.733 10
1 -5 9 17145.4 1420.83 23
1 -5 9 18381.8 876.249 6
1 -5 10 2131.35 262.604 33
1 -5 10 2105.35 273.55 10
1 -5 10 2293 230.802 6
-1 5 -10 1436.82 453.873 16
1 -5 10 2339.59 570.242 23
1 -5 11 3790.19 356.32 33
1 -5 11 4392.72 370.417 4
1 -5 11 2869.09 613.715 23
-1 5 -11 4089.25 671.179 16
1 -5 11 3963.04 301.482 6
1 -5 12 200.193 273.292 23
1 -5 12 298.543 206.149 27
-1 5 -12 299.621 265.093 16
1 -5 12 255.028 165.906 4
1 -5 12 119.122 160.628 33
1 -5 12 331.677 108.295 6
1 -5 13 9512.87 593.562 4
1 -5 13 8445.36 583.92 9
1 -5 14 241.498 169.659 9
1 -5 14 214.825 149.053 4
1 -5 14 264.495 176.327 27
1 -5 15 5123 376.369 9
1 -5 16 438.653 138.751 11
1 -5 16 436.008 136.685 9
1 -5 17 952.578 129.223 9
1 -5 17 1406.95 141.572 11
-1 4 13 9508.65 581.993 18
-1 4 12 -49.7543 192.959 18
-1 4 12 133.575 205.929 30
-1 4 11 9653.5 776.103 13
-1 4 11 10549.2 640.885 20
-1 4 11 9501.13 719.118 30
-1 4 11 11622.3 754.14 18
-1 4 10 1028.58 205.064 32
-1 4 10 1159.69 365.767 13
-1 4 10 1010.23 245.635 20
-1 4 10 1069.04 314.555 30
-1 4 10 913.98 304.204 18
-1 4 9 4805.44 494.749 18
-1 4 9 3610.14 482.611 12
-1 4 9 5418.15 991.017 31
-1 4 9 3999.97 478.399 30
-1 4 9 5256.95 449.904 20
-1 4 9 4352.5 557.727 13
-1 4 8 9070.3 792.041 12
-1 4 8 8938.15 709.667 18
-1 4 8 8961.26 1297.77 31
-1 4 8 9462.23 706.189 30
-1 4 8 9512.21 661.019 20
-1 4 8 8749.92 769.106 13
-1 4 8 9966.94 615.703 19
-1 4 7 38372.9 1751.2 19
-1 4 7 34718.9 1831.15 30
-1 4 7 37796.3 1870.05 18
-1 4 7 37382.1 1939.31 13
-1 4 7 37680.3 1806.78 20
-1 4 7 32270.6 1917.99 12
-1 4 7 38009.1 2711.2 31
-1 4 6 23812.3 1331.1 13
-1 4 6 23196.4 1260.79 18
-1 4 6 23727.6 1172.76 19
-1 4 6 23108.2 1255.58 30
-1 4 6 21989.6 1343.62 12
-1 4 5 2337.29 377.234 12
-1 4 5 2938.33 392.812 22
-1 4 5 2712.06 305.558 20
-1 4 5 2114.25 304.797 30
-1 4 5 2467.29 265.208 19
-1 4 5 2768.89 329.003 18
-1 4 5 2867.66 398.941 13
-1 4 4 83405.9 3685.38 22
-1 4 4 73951.9 3341.29 20
-1 4 4 73792.6 3434.07 13
-1 4 3 195912 8518.11 22
1 -4 -3 187930 8565.64 34
-1 4 2 58932.6 3053.24 22
1 -4 -2 64020.9 3141.14 34
-1 4 1 146896 6765.29 22
1 -4 -1 154022 6826.28 34
-1 4 0 68167.3 3229.55 16
1 -4 0 73204.2 3473.13 34
-1 4 -1 55074.7 2683.34 16
1 -4 1 58152 2879.44 34
1 -4 2 5185.52 571.407 34
1 -4 2 4831.31 449.993 23
-1 4 -2 4849.53 478.555 16
-1 4 -3 40437 2040.23 16
1 -4 3 38044.6 2000.03 23
1 -4 4 630.311 243.604 23
1 -4 4 603.131 286.723 34
1 -4 5 187.426 224.505 23
1 -4 5 95.9159 223.486 34
-1 4 -5 106.286 213.452 22
-1 4 -5 62.1383 210.885 16
1 -4 6 549.722 251.105 34
-1 4 -6 398.753 239.073 22
1 -4 6 427.225 266.571 23
-1 4 -6 344.235 234.261 16
-1 4 -7 16626.9 1161.76 16
-1 4 -7 13461.8 1055.09 22
1 -4 7 15116.1 1072.34 34
1 -4 7 15509.7 1152.9 23
1 -4 8 21111.7 1107.64 10
1 -4 8 22447.2 1100.31 33
1 -4 8 22651.7 1127.3 37
-1 4 -8 20275.5 1369.19 22
1 -4 8 24681.2 1605.06 23
-1 4 -8 26077.1 1580.66 16
1 -4 8 23106.1 1062.12 6
1 -4 9 726.947 358.521 23
1 -4 9 663.588 126.027 6
1 -4 9 592.615 176.049 10
1 -4 9 369.795 164.484 37
-1 4 -9 662.974 302.27 16
1 -4 9 699.458 177.383 33
1 -4 10 23437.7 1211.48 10
1 -4 10 25289.4 1179.81 4
1 -4 10 23847.5 1191.96 33
1 -4 10 22409.3 1101.97 6
1 -4 10 23505.2 1719.48 23
-1 4 -10 22009.2 1620.07 16
1 -4 11 1814.62 274.203 27
1 -4 11 1457.52 254.162 33
-1 4 -11 1474.22 428.143 16
1 -4 11 1859.27 240.582 4
1 -4 11 1498.87 175.575 6
1 -4 12 919.024 228.551 30
1 -4 12 1304.01 251.084 27
1 -4 12 931.372 445.817 23
1 -4 12 480.146 194.782 33
1 -4 12 739.096 200.643 4
1 -4 13 5423.23 455.902 33
1 -4 13 5944.78 452.969 9
1 -4 13 4579.81 441.649 30
1 -4 13 5768.08 454.555 27
1 -4 13 6234.74 431.252 4
1 -4 14 3150.07 347.98 33
1 -4 14 3297 353.937 30
1 -4 14 3350.12 337.002 27
1 -4 14 3759.2 348.083 9
1 -4 15 751.814 194.816 30
1 -4 15 1293.96 213.69 11
1 -4 15 1009.49 211.587 9
1 -4 16 237.553 139.084 11
1 -4 16 137.616 136.014 9
1 -4 17 338.835 108.923 11
-1 3 14 -14.1323 181.348 30
-1 3 13 2971.72 388.873 30
-1 3 12 959.829 205.672 32
-1 3 12 776.352 294.127 30
-1 3 11 1690.32 372.827 30
-1 3 11 1803.89 259.543 32
-1 3 11 1378.79 411.881 13
-1 3 11 2141.76 389.035 18
-1 3 11 1674.66 270.834 20
-1 3 10 200.202 262.763 18
-1 3 10 51.1442 157.708 32
-1 3 10 -148.549 191.052 20
-1 3 10 190.214 405.086 31
-1 3 10 88.8408 318.712 13
-1 3 10 1081.34 329.683 12
-1 3 10 -146.885 252.12 30
-1 3 9 1121.82 356.998 13
-1 3 9 271.761 428.187 31
-1 3 9 137.845 261.965 30
-1 3 9 310.434 273.727 18
-1 3 9 304.193 192.852 20
-1 3 9 185.044 154.192 19
-1 3 9 93.6186 290.484 12
-1 3 8 275.241 175.782 20
-1 3 8 890.475 187.864 19
-1 3 8 148.163 297.057 15
-1 3 8 412.955 226.574 30
-1 3 8 87.5474 273.935 12
-1 3 8 370.577 245.995 18
-1 3 8 -165.024 390.103 31
-1 3 8 201.615 189.209 29
-1 3 8 126.866 252.9 13
-1 3 7 217.856 332.451 31
-1 3 7 67.1479 224.668 13
-1 3 7 342.908 215.645 30
-1 3 7 246.298 183.371 29
-1 3 7 266.859 173.778 20
-1 3 7 493.891 280.003 12
-1 3 7 421.948 204.253 18
-1 3 7 288.97 154.936 19
-1 3 6 52307.8 2508.5 13
-1 3 6 55558.3 2460.91 30
-1 3 6 54398.9 2421.57 20
-1 3 6 56654.2 3154.23 31
-1 3 6 48649 2533 12
-1 3 6 53419 2366.98 19
-1 3 6 51459.3 2424.11 29
-1 3 5 4369.57 414.711 22
-1 3 4 67816.7 3118.84 22
1 -3 -4 65533.9 3190.31 34
1 -3 -3 60226.9 2922.3 34
-1 3 3 60328.3 2874.82 22
-1 3 2 62862 3051.18 22
1 -3 -2 66496.6 3114.64 34
-1 3 1 159730 7011.55 22
1 -3 0 9534.48 528.536 23
-1 3 0 10098.1 633.129 16
1 -3 1 97666.2 4364.17 23
-1 3 -1 104526 4449.97 16
1 -3 2 908.626 202.014 23
-1 3 -2 686.522 206.255 16
1 -3 3 552.483 194.703 23
-1 3 -4 3215.21 404.937 22
-1 3 -4 3539.84 409.714 16
1 -3 4 3533.34 403.48 23
-1 3 -5 558.797 221.591 22
1 -3 5 334.147 222.149 23
1 -3 5 641.993 243.26 34
-1 3 -5 630.012 235.439 16
1 -3 6 6450.85 611.615 23
-1 3 -6 5722.57 573.41 16
-1 3 -6 5195.19 525.306 22
1 -3 6 6377.61 548.699 34
-1 3 -7 3466.07 464.866 16
1 -3 7 2982.59 376.296 34
-1 3 -7 2685.66 355.095 22
1 -3 7 3237.65 490.064 23
1 -3 8 51677.1 2251.85 37
-1 3 -8 53115.2 2639.28 16
1 -3 8 45008.2 2316.95 35
-1 3 -9 1137.77 329.639 16
1 -3 9 1301.74 204.158 33
1 -3 9 1153.51 220.731 10
1 -3 9 1289.96 223.635 37
1 -3 9 1276.14 186.313 4
1 -3 9 1259.13 191.571 32
1 -3 10 12655.8 1155.98 23
1 -3 10 12813.7 727.42 27
-1 3 -10 10662.2 1015.27 16
1 -3 10 12827.7 741.743 33
1 -3 10 13820.6 725.153 32
1 -3 10 13711.6 717.346 4
1 -3 10 12237.4 762.893 37
1 -3 10 12351.7 762.524 10
1 -3 11 4323.36 390.184 33
1 -3 11 5024.67 367.358 4
1 -3 11 3673.57 682.826 23
1 -3 11 4163.49 370.631 27
-1 3 -11 2962.93 518.436 16
1 -3 12 9342.36 662.155 30
1 -3 12 8686.95 592.94 9
1 -3 12 8846.58 610.455 33
1 -3 12 8953.61 558.302 4
1 -3 12 9026.26 585.458 27
1 -3 13 1493.44 471.458 23
1 -3 13 1779.78 266.445 27
1 -3 13 1611.4 287.228 33
1 -3 13 1507.53 262.564 9
1 -3 13 1725.03 314.56 30
1 -3 14 52.106 159.181 27
1 -3 14 16.4658 178.275 33
1 -3 14 -56.9943 201.985 30
1 -3 14 127.696 191.839 9
1 -3 14 12.8364 171.561 11
1 -3 15 1619.55 228.429 11
1 -3 15 1479.12 276.151 30
1 -3 15 1171.84 224.834 9
1 -3 16 258.089 140.305 11
1 -3 16 370.185 152.778 9
1 -3 16 318.522 170.765 30
-1 2 15 2612.15 269.484 18
-1 2 14 165.364 195.462 18
-1 2 13 3020.88 302.261 32
-1 2 13 3483.88 417.071 18
-1 2 12 1014.82 310.61 18
-1 2 12 1117.52 227.141 32
-1 2 11 627.049 287.564 18
-1 2 11 205.665 155.907 20
-1 2 11 44.2142 329.558 15
-1 2 11 212.163 169.218 32
-1 2 11 224.18 227.5 29
-1 2 11 243.524 348.883 13
-1 2 10 154.746 292.485 12
-1 2 10 -19.4258 200.058 29
-1 2 10 -61.6806 159.642 32
-1 2 10 -229.116 319.17 13
-1 2 10 -439.62 327.422 15
-1 2 10 -86.9767 423.63 31
-1 2 10 45.212 125.973 19
-1 2 10 43.348 149.787 20
-1 2 9 512.584 221.923 29
-1 2 9 643.383 304.702 13
-1 2 9 633.087 310.378 12
-1 2 9 380.376 176.534 20
-1 2 9 603.612 156.387 19
-1 2 9 210.396 227.36 30
-1 2 9 866.474 483.941 31
-1 2 8 23003 1092.03 19
-1 2 8 20701.8 1190.17 15
-1 2 8 22147.5 1271.49 13
-1 2 8 22214 1210.79 30
-1 2 8 21788.5 1297.04 12
-1 2 8 24655.8 1869.93 31
-1 2 8 21711.2 1048.06 9
-1 2 8 23183.4 1138.4 20
-1 2 8 22790.6 1173.36 29
-1 2 7 10666.6 672.282 30
-1 2 7 10734.4 718.306 13
-1 2 7 10353.6 637.326 29
-1 2 7 10168.1 752.162 12
-1 2 7 11288.7 1114.06 31
-1 2 6 87551.2 4398.43 31
-1 2 5 2108.02 456.451 31
1 -2 -5 1251.83 213.536 34
-1 2 4 155761 6666.38 22
1 -2 -4 155749 6731.02 34
-1 2 3 12677.8 812.503 26
-1 2 3 11860.4 712.224 22
-1 2 2 667353 27931 26
-1 2 2 668345 27863.8 22
-1 2 1 655660 27358.3 22
-1 2 0 7331.17 452.955 16
1 -2 0 6802.4 379.838 23
-1 2 0 5837.75 504.471 26
1 -2 1 1175.03 166.196 23
-1 2 -1 1087.52 230.193 22
1 -2 2 12421.9 687.711 23
-1 2 -2 11157.5 734.063 22
-1 2 -2 12102.7 709.697 16
-1 2 -3 25554.4 1338.45 22
-1 2 -3 26489.9 1338.88 16
1 -2 3 26569.2 1328.54 23
-1 2 -4 7984.82 548.839 22
1 -2 4 7168.3 564.061 23
-1 2 -4 7901.53 567.684 16
1 -2 5 25063.2 1415.99 23
-1 2 -5 25759.6 1322.49 22
-1 2 -5 27586.9 1409.41 16
-1 2 -6 89266.8 3879 16
1 -2 6 80882.1 3727.31 34
-1 2 -7 41586.5 1946.06 16
1 -2 7 33745.1 1664.12 34
-1 2 -8 64826.9 3238.24 16
1 -2 8 70448 3397.8 23
1 -2 9 15308 766.596 4
-1 2 -9 12485.9 989.782 16
1 -2 9 14984.8 835.72 10
1 -2 9 15368.3 1187.94 23
1 -2 9 15243.9 778.473 32
1 -2 9 14906.8 778.709 27
1 -2 10 19608.6 929.647 32
1 -2 10 15342.8 975.737 21
1 -2 10 16928.5 914.127 27
1 -2 10 18406 907.33 4
1 -2 10 18316.7 1398.91 23
1 -2 10 18101.1 934.421 9
1 -2 11 630.263 352.202 23
1 -2 11 509.647 203.222 37
1 -2 11 612.781 230.835 21
1 -2 11 434.335 180.252 9
1 -2 11 398.034 168.591 27
1 -2 11 467.382 173.555 32
1 -2 11 385.057 149.569 4
1 -2 12 7332.71 489.889 32
1 -2 12 7174.35 507.946 9
1 -2 12 5986.2 556.957 30
1 -2 12 5222.08 800.659 23
1 -2 12 5528.33 463.183 27
1 -2 12 7724.04 503.499 11
1 -2 13 2812.84 309.075 32
1 -2 13 2567.08 298.685 11
1 -2 13 2523.99 384.426 30
1 -2 13 2259.32 310.166 9
1 -2 13 1682.46 471.064 23
1 -2 14 800.63 229.651 33
1 -2 14 959.414 284.22 30
1 -2 14 1046.97 223.723 11
1 -2 15 3496.56 349.984 33
1 -2 15 3908.03 322.907 11
1 -2 15 3435.59 408.553 30
1 -2 16 -132.03 191.488 30
1 -2 17 1224.21 190.176 30
-1 1 16 818.608 218.619 30
-1 1 15 1157.08 301.087 30
-1 1 14 3400.01 378.045 18
-1 1 14 3503.35 315.693 32
-1 1 14 3880.97 463.501 30
-1 1 14 2738.3 351.91 29
-1 1 13 1119.08 343.628 30
-1 1 13 819.362 255.669 29
-1 1 13 995.6 211.738 32
-1 1 13 1055.71 290.971 18
-1 1 12 51.5057 281.226 30
-1 1 12 257.19 175.641 32
-1 1 12 189.316 241.352 18
-1 1 12 220.64 144.231 9
-1 1 12 242.073 236.798 29
-1 1 11 16548.3 1040.29 30
-1 1 11 17076.4 889.555 32
-1 1 11 16058.4 1037.27 15
-1 1 11 15868.2 841.922 9
-1 1 11 16972.3 977.175 29
-1 1 11 15471.6 1104.89 12
-1 1 11 16156.3 1136.71 13
-1 1 11 15143.8 1004.46 18
-1 1 10 680.424 145.607 11
-1 1 10 929.93 239.188 29
-1 1 10 713.61 164.541 20
-1 1 10 754.903 326.227 13
-1 1 10 825.723 164.654 9
-1 1 10 703.429 327.096 12
-1 1 10 1043.31 303.169 30
-1 1 10 654.744 177.38 33
-1 1 10 796.33 252.257 18
-1 1 10 816.131 185.764 32
-1 1 10 305.681 274.669 15
-1 1 9 89235.1 3670.27 32
-1 1 9 90237.9 4595.88 31
-1 1 9 83016.2 3671.74 20
-1 1 9 84779.9 3680.21 33
-1 1 9 93362.1 3781.15 29
-1 1 9 80702.9 3616.76 11
-1 1 9 82722.8 3638.4 9
-1 1 9 80589.4 3804.48 15
-1 1 9 86643.8 3820.09 30
-1 1 9 81942.2 3874.54 13
-1 1 8 19652.6 955.412 32
-1 1 8 18885.1 1117.47 13
-1 1 8 18886.5 1058.33 30
-1 1 8 19791.5 1561.23 31
-1 1 8 21411.6 1051.29 29
-1 1 7 211552 9569.89 31
-1 1 6 5850.83 483.497 26
-1 1 6 6999.64 738.991 31
1 -1 -5 95429.6 3828.88 1
-1 1 5 99466 4354.52 31
-1 1 5 95574.8 4048.2 26
-1 1 4 119599 5210.05 26
-1 1 4 120639 5408.78 31
-1 1 3 198339 8417.71 26
-1 1 2 3919.57 292.803 25
-1 1 2 3521.79 273.724 22
-1 1 2 4117.63 336.302 26
-1 1 1 268512 11067.3 31
-1 1 1 260293 11017.5 25
-1 1 1 262223 11022.7 22
-1 1 0 10220.5 570.089 22
-1 1 0 11152.5 591.988 26
-1 1 -1 126110 5271.81 26
-1 1 -1 116230 5258.94 16
-1 1 -1 126702 5264.74 25
-1 1 -1 128048 5280.31 22
-1 1 -2 152976 6535.55 26
-1 1 -2 154095 6555 22
-1 1 -2 158286 6566.66 16
-1 1 -2 154970 6538.89 25
-1 1 -3 155423 6471.23 16
-1 1 -3 149363 6421.05 25
-1 1 -4 11578.2 676.606 16
-1 1 -5 349104 15052.8 16
1 -1 5 370946 15158.7 23
-1 1 -6 4620.62 375.028 16
1 -1 6 2390.67 189.182 34
1 -1 6 4231.19 446.63 23
1 -1 6 2689.02 160.654 1
-1 1 -7 42520.6 2137.75 16
1 -1 7 48265.4 2334.18 23
1 -1 8 31248.2 1731.99 23
-1 1 -8 27514.1 1492.22 16
1 -1 9 15669.8 827.669 37
1 -1 9 16684 766.637 32
1 -1 9 11996.2 843.734 21
1 -1 9 12976 733.352 27
1 -1 9 13875.6 726.542 4
1 -1 9 14679.3 1126.51 23
1 -1 10 2808.9 285.436 11
1 -1 10 2963.6 333.865 37
1 -1 10 2876.33 517.414 23
1 -1 10 2959.75 294.169 32
1 -1 10 3078.15 400.561 21
1 -1 10 2825.63 278.254 27
1 -1 11 7944.51 491.497 11
1 -1 11 7157.81 522.31 33
1 -1 11 6116.15 797.255 23
1 -1 11 6548.41 601.263 21
1 -1 11 6264.58 531.163 37
1 -1 11 7397.23 491.463 32
1 -1 11 5940.9 458.556 27
1 -1 11 7429.56 609.923 30
1 -1 12 23072.8 1217.46 33
1 -1 12 22990.7 1191.82 29
1 -1 12 24129.1 1173.53 32
1 -1 12 21147.3 1290.15 21
1 -1 12 22944 1148.83 11
1 -1 12 23416.3 1298.25 30
1 -1 13 1576.52 345.959 30
1 -1 13 1549.91 281.914 33
1 -1 13 1961.23 274.289 32
1 -1 13 1673.56 258.348 11
1 -1 13 1429.23 253.896 29
1 -1 14 4714.79 391.396 9
1 -1 14 4480.12 481.993 30
1 -1 14 3983.05 349.291 11
1 -1 14 4135.69 375.215 32
1 -1 14 3329.14 385.528 18
1 -1 14 3797.59 385.655 33
1 -1 15 5597.54 507.765 30
1 -1 16 4731.73 420.889 30
1 -1 17 344.895 144.55 30
-1 0 17 97.4279 124.304 30
-1 0 16 1918.16 293.317 30
-1 0 15 3065.07 347.575 29
-1 0 15 3248.59 418.492 30
-1 0 14 15844.3 952.895 30
-1 0 14 16505 790.531 32
-1 0 14 13261.5 729.818 9
-1 0 14 11102.8 788.784 18
-1 0 14 12180.8 819.181 29
-1 0 13 1434.4 291.345 29
-1 0 13 1073.73 280.27 18
-1 0 13 947.737 220.705 32
-1 0 13 986.346 334.053 30
-1 0 13 975.843 173.904 11
-1 0 13 970.963 199.758 9
-1 0 12 12561.3 819.39 29
-1 0 12 13175.9 728.727 9
-1 0 12 12954.1 745.789 32
-1 0 12 11692.4 827.844 18
-1 0 12 12717.9 888.844 30
-1 0 12 12611.6 691.119 11
-1 0 11 18386.4 926.327 32
-1 0 11 17827.6 950.398 33
-1 0 11 15329.6 992.371 18
-1 0 11 15737.6 883.252 9
-1 0 11 15885.2 1070.78 15
-1 0 11 17304.4 1049.97 30
-1 0 11 17259.2 864.039 11
-1 0 11 20387.9 1180.92 12
-1 0 10 32121.1 1654.53 18
-1 0 10 29370.6 1726.65 12
-1 0 10 32515.9 1508.66 11
-1 0 10 34018.7 1689.12 30
-1 0 10 36409.2 1642.28 10
-1 0 10 32495.4 1551.29 32
-1 0 10 33401.3 1541.32 9
-1 0 10 34868.9 1598.62 33
-1 0 10 31302.4 1703.1 15
-1 0 9 6379.07 415.392 32
-1 0 9 6621.28 448.011 33
-1 0 9 6685.56 447.063 27
-1 0 9 6118.72 507.072 30
-1 0 9 6475.31 567.685 12
-1 0 9 6527.38 464.97 10
-1 0 9 7144.84 505.11 8
-1 0 9 4934.45 506.591 15
-1 0 8 22234.6 1331.8 23
-1 0 7 28662.7 1461.46 26
-1 0 7 30457.5 1600.75 23
-1 0 6 105004 4670.34 26
-1 0 6 106450 4770.57 23
-1 0 6 113857 5065.68 31
-1 0 5 293.655 80.7151 25
1 0 -5 194.597 66.4053 1
-1 0 5 268.932 275.866 31
-1 0 5 275.051 172.594 23
-1 0 4 171938 7514.28 24
-1 0 4 179714 7579.08 23
1 0 -4 177242 7427.47 1
-1 0 4 188481 7771.28 31
1 0 -3 29832.6 1352.98 1
-1 0 3 31795.5 1420.88 24
1 0 -2 197612 8258.9 1
1 0 -1 184218 7895.1 1
-1 0 1 194979 7922.16 24
1 0 0 85367.3 3586.35 1
-1 0 0 83640.6 3588.36 24
-1 0 -1 54268.1 2365.05 24
1 0 1 56574.9 2381.34 1
1 0 2 267657 11245.7 1
-1 0 -2 271350 11215.7 24
1 0 3 3598.77 238.646 1
1 0 3 3841.12 337.157 31
1 0 4 76090.3 3305.62 1
1 0 4 85159.4 3559.45 31
1 0 5 5665.29 519.371 31
1 0 5 5881.1 462.928 23
1 0 6 2144.54 393.268 31
1 0 6 3110.87 370.538 23
1 0 7 261.678 272.319 31
1 0 7 138.858 191.436 23
1 0 8 13042.1 1118.97 31
1 0 8 13131.8 991.138 23
1 0 8 13786.4 708.659 9
1 0 9 48706.1 2228.96 37
1 0 9 47099.2 2339.06 21
1 0 9 49249.4 2596.62 23
1 0 9 47946.6 2170.16 9
1 0 9 48414.3 2156.91 11
1 0 10 9604.74 622.09 29
1 0 10 9634.83 647.124 37
1 0 10 10492.2 615.2 9
1 0 10 8893.05 890.504 23
1 0 10 9993.78 593.581 11
1 0 10 11108.9 793.064 21
1 0 10 11530.7 624.786 32
1 0 10 10016.5 711.096 30
1 0 11 20497.1 1033.49 32
1 0 11 19734 1060.78 33
1 0 11 17611.8 1034.03 29
1 0 11 20301.7 1013.83 11
1 0 11 18240.9 1190.68 21
1 0 11 20022 1160.11 30
1 0 11 20186.8 1033.48 9
1 0 12 6601.55 530.19 29
1 0 12 6986.32 506.888 11
1 0 12 7970.5 538.233 9
1 0 12 8491.79 673.672 30
1 0 12 7694.41 560.738 33
1 0 12 9309.19 566.157 32
1 0 13 4905.42 540.072 30
1 0 13 5309.41 446.258 33
1 0 13 6262.96 462.737 32
1 0 14 10830.5 743.473 30
1 0 14 8468.31 663.341 18
1 0 14 9276.69 605.9 33
1 0 14 11837.2 641.077 32
1 0 15 79.7957 138.458 32
1 0 15 89.5489 215.783 30
1 0 16 868.421 207.971 30
-1 -1 17 733.727 170.332 30
-1 -1 16 505.739 191.711 29
-1 -1 16 430.175 215.476 30
-1 -1 15 1264.14 300.51 30
-1 -1 15 1392.73 207.258 9
-1 -1 15 1044.59 257.073 29
-1 -1 14 15947.6 962.468 30
-1 -1 14 14145.4 795.337 9
-1 -1 14 13651.7 754.544 11
-1 -1 14 16295.4 922.193 29
-1 -1 13 142.014 247.332 30
-1 -1 13 358.789 155.328 11
-1 -1 13 213.802 167.64 9
-1 -1 13 502.381 195.332 18
-1 -1 13 427.468 189.878 32
-1 -1 12 129.616 169.834 32
-1 -1 12 -84.4338 134.886 11
-1 -1 12 52.8406 153.716 9
-1 -1 12 -175.37 197.541 27
-1 -1 12 252.147 198.445 10
-1 -1 12 34.655 167.567 18
-1 -1 12 -45.1196 224.571 30
-1 -1 11 3706.17 474.431 15
-1 -1 11 1746.16 281.671 18
-1 -1 11 2813.24 294.597 32
-1 -1 11 2831.25 349.108 10
-1 -1 11 2779.62 373.252 30
-1 -1 11 2265.74 305.119 33
-1 -1 11 2419.49 300.868 27
-1 -1 10 1088.02 215.131 27
-1 -1 10 861.122 234.37 30
-1 -1 10 907.433 215.883 18
-1 -1 10 1134.53 234.763 10
-1 -1 10 931.878 205.942 33
-1 -1 10 776.773 181.785 32
-1 -1 10 1015.04 246.176 8
1 1 -9 1093.13 268.995 16
-1 -1 9 1460.71 245.657 30
-1 -1 9 754.002 273.684 12
-1 -1 9 1424.46 227.106 10
-1 -1 9 1300.18 185.646 32
-1 -1 9 1319.52 207.47 27
-1 -1 9 1028.26 314.588 23
-1 -1 9 1511.02 329.643 13
-1 -1 9 1599.44 247.736 8
-1 -1 9 1389.87 207.571 33
1 1 -8 2245.39 356.411 16
-1 -1 8 2891.17 444.303 23
-1 -1 7 15994.8 885.162 24
-1 -1 7 15916.1 1065.58 23
-1 -1 6 444.476 154.898 24
-1 -1 6 711.435 259.066 23
1 1 -5 85233 3737.89 1
-1 -1 5 88927.2 3944.8 23
-1 -1 4 1491.56 196.163 35
1 1 -4 1442.16 177.004 1
1 1 -3 30245.7 1388.85 1
-1 -1 3 29264.4 1395.87 35
1 1 -2 61405.6 2649.38 1
-1 -1 2 59109.7 2663.65 35
-1 -1 1 35441.1 1640.54 35
1 1 -1 35613.9 1618.33 1
-1 -1 0 144607 6154.04 35
-1 -1 -1 2285.99 238.969 35
1 1 1 2028.19 216.852 1
1 1 2 13120.9 709.657 1
-1 -1 -2 14123.7 736.24 35
1 1 3 20144.7 982.2 1
-1 -1 -3 19544.7 985.106 35
1 1 4 1762.36 194.993 1
1 1 5 8956.96 782.138 31
1 1 5 10610.2 686.466 23
1 1 6 3943.66 545.069 31
1 1 6 3137.3 377.816 23
1 1 7 949.209 389.872 31
1 1 7 662.634 208.56 23
1 1 8 10917.1 1073.85 31
1 1 8 11115.5 602.928 9
1 1 8 10676.6 587.597 11
1 1 8 9570.35 797.243 23
1 1 8 10829.2 625.47 37
1 1 9 41427.3 1956.86 37
1 1 9 40503.2 1964.1 20
1 1 9 40513.3 1950.92 29
1 1 9 45453.7 2067.32 30
1 1 9 43837.9 1936.41 9
1 1 9 42867 1918.41 11
1 1 9 39105 2577.1 31
1 1 10 101.99 152.344 29
1 1 10 367.385 169.707 33
1 1 10 546.172 319.512 21
1 1 10 127.498 142.36 20
1 1 10 321.983 157.206 19
1 1 10 210.034 212.228 30
1 1 10 309.652 159.473 11
1 1 10 274.394 362.54 31
1 1 11 8657.87 536.386 32
1 1 11 8110.2 530.867 33
1 1 11 6036.39 482.133 20
1 1 11 6446.89 509.943 29
1 1 11 6802.78 483.217 19
1 1 11 7742.25 628.833 30
1 1 11 8907.53 742.127 21
1 1 12 3970.21 363.062 33
1 1 12 4188.67 481.571 30
1 1 13 2287.19 381.528 18
1 1 13 2753.64 408.546 30
1 1 14 2084.76 339.404 30
1 1 14 1568.32 291.982 18
1 1 15 147.591 196.498 30
1 1 15 -183.04 147.732 18
1 1 16 -17.9681 115.774 30
-1 -2 16 880.584 216.129 30
-1 -2 16 838.451 169.676 9
-1 -2 16 1133.12 230.956 29
-1 -2 15 1485.64 290.104 30
-1 -2 15 1844.98 253.044 9
-1 -2 15 2342.55 331.499 29
-1 -2 14 1979.03 266.222 9
-1 -2 14 1491.09 217.823 11
-1 -2 14 1813.39 326.129 30
-1 -2 13 205.041 215.385 10
-1 -2 13 234.813 213.495 27
-1 -2 13 158.634 147.992 11
-1 -2 13 146.666 218.693 30
-1 -2 13 100.157 166.598 9
-1 -2 12 12082.3 746.971 27
-1 -2 12 11026.2 777.455 30
-1 -2 12 12963.8 816.569 10
-1 -2 11 60.659 98.5466 4
-1 -2 11 358.77 202.321 30
1 2 -10 1658.23 374.716 16
-1 -2 10 1976.37 278.175 30
-1 -2 10 1733.82 188.424 4
-1 -2 10 2213.32 380.601 15
-1 -2 9 91.0348 260.933 15
-1 -2 9 211.377 133.173 32
1 2 -9 256.343 224.976 16
-1 -2 9 286.316 156.597 33
-1 -2 9 225.098 231.998 23
1 2 -8 522.986 244.719 16
-1 -2 8 492.077 180.944 24
-1 -2 8 79.2383 229.827 23
-1 -2 7 84547.6 4030.73 23
-1 -2 7 83211.4 3697.4 35
-1 -2 6 486.985 176.896 35
1 2 -5 69211.3 3175.64 1
-1 -2 5 68844.8 3348.32 23
-1 -2 5 72392.8 3188.58 35
-1 -2 4 25964.4 1478.92 23
-1 -2 4 27420.4 1382.74 35
1 2 -4 27210.4 1369.13 1
1 2 -3 146390 6248.6 1
-1 -2 3 143722 6273.25 35
1 2 -2 222476 9444.25 1
-1 -2 1 57636.7 2799.82 35
1 2 -1 64746.4 2782.89 1
-1 -2 0 40597.4 1960.8 35
1 2 1 7592.48 532.546 1
-1 -2 -1 8200.87 582.308 35
-1 -2 -2 585.13 204.658 35
1 2 2 559.541 175.708 1
1 2 3 8843.36 596.807 1
-1 -2 -3 9276.1 624.011 35
-1 -2 -4 27137.7 1389.93 35
1 2 5 15549.3 890.949 23
1 2 5 15519.9 1191.07 31
1 2 6 2855.81 324.918 23
1 2 6 2860.5 556.09 31
1 2 7 71662.2 3072.98 30
1 2 7 61034.6 3111.6 12
1 2 7 68200.9 3684.47 31
1 2 7 71591.1 3185 21
1 2 8 5928.44 480.322 30
1 2 8 4645.17 395.928 29
1 2 8 5030.88 488.024 13
1 2 8 5645.45 454.147 20
1 2 8 4953.3 537.789 21
1 2 8 5891.86 853.398 31
1 2 9 19063.3 1035.9 19
1 2 9 22124.6 1267.61 21
1 2 9 21022.6 1142.09 30
1 2 9 18529.3 1687.35 31
1 2 9 19984.5 1093.36 20
1 2 9 18831.8 1161.88 13
1 2 9 20407 1022.8 33
1 2 10 1678.93 326.885 30
1 2 10 1657.55 393.971 21
1 2 10 1967.71 283.445 20
1 2 10 1717.43 260.303 19
1 2 10 1708.23 584.7 31
1 2 11 6563.83 592.925 30
1 2 11 7080.46 512.43 20
1 2 11 6877.9 485.661 19
1 2 12 1196.95 310.098 30
1 2 13 6336.77 530.971 30
1 2 14 1998.53 284.535 18
1 2 14 1969.26 284.359 30
1 2 15 504.029 143.527 18
1 2 15 782.219 128.744 32
-1 -3 17 1975.99 189.878 9
-1 -3 16 192.423 138.999 9
-1 -3 16 239.208 191.167 29
-1 -3 15 2938.35 270.731 11
-1 -3 15 2944.4 312.957 9
-1 -3 14 310.367 222.815 27
-1 -3 14 759.95 219.162 9
-1 -3 13 10410 658.983 27
-1 -3 13 11139.7 713.06 10
-1 -3 12 631.415 150.653 4
-1 -3 12 647.059 253.025 10
1 3 -11 908.047 345.25 16
-1 -3 11 1044.87 170.259 4
-1 -3 11 1085.85 270.941 10
-1 -3 11 1352.54 304.014 8
-1 -3 10 21419.3 1036.61 4
-1 -3 10 21913.1 1166.41 10
-1 -3 10 21072 1165.34 8
1 3 -10 20748 1496.61 16
-1 -3 9 26691.3 1384.84 8
-1 -3 9 29087.4 1473.72 15
-1 -3 9 25879.5 1369.6 10
-1 -3 9 28560.5 1535.39 24
1 3 -9 28933.1 1757.16 16
-1 -3 8 63910 3090.07 35
1 3 -8 69912.7 3365.65 16
-1 -3 7 113647 5229.3 23
-1 -3 7 108043 4953.81 35
-1 -3 6 93607.2 4279.82 35
-1 -3 5 34568.6 1820.51 35
-1 -3 4 5550.14 526.018 35
1 3 -3 51942.5 2500.07 1
1 3 -2 33253.1 1683.69 1
-1 -3 2 31401.6 1723.83 35
-1 -3 1 4382.3 487.324 35
-1 -3 0 46574.7 2316.61 35
1 3 0 45513.7 2261.49 1
1 3 1 3741.73 312.414 16
-1 -3 -1 3908.07 459.833 35
-1 -3 -2 320136 12642.1 35
1 3 2 287301 12276.5 16
-1 -3 -3 21228.8 1272.19 35
-1 -3 -4 79382.5 3714.32 35
1 3 5 198.322 199.948 21
1 3 5 173.424 320.397 31
1 3 6 67606.6 3651.88 31
1 3 6 70871.7 3015.06 21
1 3 6 66676.3 2875.73 30
1 3 7 17480.8 993.535 30
1 3 7 18667.6 1023.21 20
1 3 7 19011.8 1122.62 21
1 3 7 18325.5 965.219 19
1 3 8 49803.4 2493.47 30
1 3 8 47677.8 3238.28 31
1 3 8 55625.9 2462.42 19
1 3 8 51860.2 2508.92 20
1 3 9 11374.7 737.637 20
1 3 9 11257.5 689.644 19
1 3 9 11051.7 750.608 30
1 3 10 6208.62 551.652 30
1 3 10 7152.2 534.646 20
1 3 10 6592.41 484.622 19
1 3 11 600.107 248.083 30
1 3 11 393.154 185.749 20
1 3 11 424.578 181.471 19
1 3 11 431.891 266.501 18
1 3 11 504.928 194.452 32
1 3 12 4154.64 426.567 30
1 3 12 4049.2 451.959 18
1 3 13 912.379 233.878 18
1 3 13 1248.52 193.627 32
1 3 14 4098.72 321.063 18
1 3 14 4810.65 291.925 32
-1 -4 17 125.721 98.8534 9
-1 -4 17 18.0619 126.276 29
-1 -4 16 1873.57 221.862 9
-1 -4 15 1138.87 187.863 11
-1 -4 15 1018.54 233.384 27
-1 -4 14 4055.6 423.06 10
-1 -4 13 4896.6 366.137 4
-1 -4 13 5480.55 489.458 10
1 4 -12 20167.7 1617.78 16
-1 -4 12 22741.1 1231.5 10
-1 -4 12 22485.2 1100.96 4
1 4 -11 3342.33 604.341 16
-1 -4 11 3737.64 400.319 10
-1 -4 11 3674.42 317.901 4
-1 -4 11 4377.49 409.865 27
-1 -4 10 6632.55 522.378 8
-1 -4 10 6260.21 506.147 10
1 4 -10 6582.07 805.743 16
-1 -4 9 12143.6 652.996 7
-1 -4 9 10736.7 705.865 8
-1 -4 9 10639.2 869.065 35
1 4 -9 11686.3 1043.07 16
-1 -4 8 42395 1901.65 7
-1 -4 8 38454.6 1944.88 8
-1 -4 8 45486.9 2286.3 35
1 4 -8 46178.4 2426.92 16
-1 -4 7 21037.8 1374.61 35
1 4 -7 22285.4 1440.76 16
-1 -4 7 21588.3 1051.47 7
1 4 -6 32836.4 1869.07 16
-1 -4 6 32142.6 1847.65 35
-1 -4 5 19245.7 1279.73 35
-1 -4 4 3519.86 509.24 35
1 4 -3 64216.7 3085.24 16
1 4 -2 22004.3 1259.33 16
-1 -4 2 21472.8 1395.48 35
-1 -4 1 191654 8542.46 35
1 4 -1 192237 8310.32 16
1 4 0 7318.8 552.765 16
-1 -4 0 6799.16 705.515 35
1 4 1 94273.3 4146.16 16
-1 -4 -1 93322.7 4491.94 35
-1 -4 -2 37528.2 2123.34 35
1 4 3 98014.9 4346.08 19
-1 -4 -3 112375 4866.35 35
1 4 4 4670.35 372.59 19
1 4 4 4792.95 443.24 21
-1 -4 -4 4889.24 593.673 35
1 4 5 24060.6 1234.43 20
1 4 5 22874.6 1262.6 21
1 4 5 22770.2 1167.31 19
1 4 6 -162.985 396.955 31
1 4 6 342.114 242.545 21
1 4 7 2325.03 304.421 30
1 4 7 1560.9 604.07 31
1 4 8 227.041 192.504 30
1 4 8 178.063 379.239 31
1 4 8 98.3981 211.859 20
1 4 8 46.4804 181.26 19
1 4 9 20546.9 1112.87 20
1 4 9 21285.1 1066.08 19
1 4 10 11865.3 715.217 20
1 4 10 11904.9 679.715 19
1 4 11 7943.98 484.209 32
1 4 11 6904.82 484.861 20
1 4 11 6772.67 540.706 18
1 4 11 7347.89 469.292 19
1 4 12 2010.69 215.22 32
1 4 12 1391.03 237.221 18
1 4 13 6787.32 345.979 32
1 4 13 5278.41 363.632 18
-1 -5 17 829.186 151.07 29
-1 -5 16 181.924 140.108 27
-1 -5 15 2249 258.642 9
-1 -5 14 126.94 175.914 10
-1 -5 13 6888.81 465.172 4
-1 -5 13 8668.4 583.101 10
-1 -5 12 534.689 232.659 27
-1 -5 12 323.65 211.721 10
-1 -5 12 220.614 143.112 4
1 5 -12 297.251 272.289 16
1 5 -11 180.556 275.421 16
-1 -5 11 137.436 207.048 27
-1 -5 11 132.19 148.333 4
-1 -5 11 160.38 182.404 10
-1 -5 10 -68.2812 172.322 10
1 5 -10 -116.31 247.717 16
-1 -5 9 5932.63 463.917 10
1 5 -9 5575.19 756.515 16
-1 -5 9 5017.46 447.387 8
-1 -5 9 5956.69 420.542 7
-1 -5 9 6231.1 695.184 35
-1 -5 8 4647.7 636.81 35
-1 -5 8 6177.73 405.282 7
1 5 -8 5203.32 694.278 16
1 5 -8 4524.44 343.773 2
-1 -5 8 4503.06 397.22 8
-1 -5 7 405.119 276.704 35
1 5 -7 325.116 122.123 2
-1 -5 7 403.758 143.707 7
-1 -5 6 11162.7 993.052 35
-1 -5 6 11112.7 634.078 7
1 5 -6 11112.1 966.772 16
1 5 -6 11210.8 607.687 2
1 5 -5 472.529 131.116 2
1 5 -5 690.477 276.435 16
-1 -5 5 491.534 326.072 35
1 5 -4 26659.5 1266.06 2
1 5 -4 29313.1 1668.54 16
1 5 -3 6276.35 394.752 2
1 5 -3 6627.9 646.248 16
-1 -5 3 6083.12 740.484 35
1 5 -2 67205.7 3248.43 16
-1 -5 2 65852 3486.55 35
1 5 -1 29537.9 1381.76 2
1 5 -1 31073.4 1669.84 16
-1 -5 1 30026.1 1910.65 35
1 5 0 4795.92 324.968 2
1 5 0 3974.41 319.981 19
1 5 0 5129.72 473.805 16
-1 -5 0 5028.28 673.774 35
-1 -5 -1 25581.8 1694.47 35
1 5 1 24203.5 1121.54 2
1 5 1 22133.6 1140.33 19
1 5 2 9225.68 587.688 19
1 5 2 10673.2 563.281 2
-1 -5 -2 10707.2 1029.17 35
1 5 2 9443.65 628.744 20
1 5 3 551.138 133.107 2
-1 -5 -3 149.029 242.561 35
1 5 3 229.379 189.424 20
1 5 3 467.524 171.006 19
1 5 4 4587.73 438.158 20
1 5 4 5059.61 411.09 19
1 5 5 1793.88 303.816 20
1 5 5 1534.99 588.254 31
1 5 5 1597.75 256.959 19
1 5 6 13630.5 843.405 20
1 5 6 14448.4 792.812 19
1 5 6 10876.3 789.436 18
1 5 6 13249.5 1515.99 31
1 5 7 3476.27 397.329 20
1 5 7 2828.18 378.354 18
1 5 8 6974.95 549.156 18
1 5 9 45.0285 179.948 20
1 5 9 -37.1528 155.515 19
1 5 9 -65.5137 188.58 18
1 5 10 8730.68 501.959 32
1 5 10 7441.34 525.744 18
1 5 10 8659.56 528.799 20
1 5 11 1747.13 187.682 32
1 5 11 1786.14 193.073 20
1 5 11 1458.34 190.025 18
-1 -6 16 407.245 113.233 9
-1 -6 15 1246.26 182.397 9
-1 -6 14 194.911 171.117 27
-1 -6 13 1440.95 196.891 4
-1 -6 13 1804.58 284.198 27
-1 -6 13 1544.31 237.986 10
-1 -6 12 225.508 145.928 4
-1 -6 12 379.477 171.584 10
-1 -6 12 484.255 226.023 27
-1 -6 11 634.091 125.958 6
1 6 -11 180.566 266.822 16
-1 -6 11 359.146 175.222 10
-1 -6 10 8030.28 524.662 7
-1 -6 10 7105.53 526.546 10
1 6 -10 7728.32 933.518 16
-1 -6 9 860.131 188.98 7
-1 -6 9 547.397 295.504 35
1 6 -9 614.948 151.302 2
-1 -6 9 929.625 209.549 10
1 6 -8 4586.42 701.574 16
-1 -6 8 5223.61 713.27 35
-1 -6 8 3901.73 375.339 10
-1 -6 8 4838.29 396.207 7
-1 -6 7 217.083 279.588 35
1 6 -7 234.3 140.384 2
1 6 -7 157.908 256.521 16
-1 -6 7 210.472 157.189 7
-1 -6 6 35227.7 2187.33 35
1 6 -6 32837.1 1568.93 2
1 6 -6 35122.2 2109.63 16
1 6 -5 3121.35 515.754 16
1 6 -5 3484.8 299.831 2
-1 -6 5 2946.49 585.228 35
1 6 -4 297.781 225.019 16
1 6 -4 263.46 142.501 2
1 6 -3 12404.2 983.725 16
1 6 -3 11560.6 656.131 2
-1 -6 3 11356.5 1137.5 35
1 6 -2 22427.5 1465.41 16
1 6 -2 24119.7 1175.92 2
-1 -6 2 27167.8 1828.31 35
-1 -6 1 22026.9 1618.11 35
1 6 -1 19233.9 977.572 2
1 6 -1 18869.7 960.113 19
1 6 0 7201.91 480.39 19
1 6 0 8275.08 493.699 2
1 6 0 6939.36 504.695 20
-1 -6 0 8875.17 990.3 35
1 6 1 424.857 146.486 2
1 6 1 613.834 189.133 20
1 6 1 531.102 173.253 19
-1 -6 -1 427.081 314.834 35
-1 -6 -2 237.023 305.973 35
1 6 2 613.633 186.528 19
1 6 2 456.737 204.301 20
1 6 2 642.694 149.552 2
1 6 3 156.887 114.192 2
1 6 3 160.382 236.349 22
1 6 3 -17.2625 173.106 20
1 6 3 169.037 168.133 19
1 6 4 499.094 223.96 20
1 6 4 741.641 203.037 19
1 6 5 -105.911 206.424 20
1 6 5 101.205 167.338 19
1 6 6 8961.89 593.265 19
1 6 6 9082.59 631.925 20
1 6 7 996.726 233.826 20
1 6 7 1076.67 220.566 19
1 6 8 12173.7 703.537 20
1 6 9 -115.813 113.537 32
1 6 10 3823.26 251.115 20
1 6 10 3582.57 230.21 17
-1 -7 15 183.081 93.5816 9
-1 -7 15 74.3048 113.915 27
-1 -7 14 543.401 169.011 27
-1 -7 13 561.254 188.047 27
-1 -7 13 186.848 114.164 4
-1 -7 12 785.366 208.323 27
-1 -7 12 599.197 147.635 10
-1 -7 12 576.789 146.543 4
-1 -7 11 676.868 126.134 6
1 7 -10 1845 215.037 2
-1 -7 10 2057.28 255.035 7
1 7 -9 5734.07 412.957 2
-1 -7 9 6926.3 470.523 7
-1 -7 8 4286.52 679.049 35
1 7 -8 2974.59 573.907 16
-1 -7 8 3849.1 356.745 7
1 7 -8 3253.17 642.004 22
1 7 -8 4319.88 341.146 2
1 7 -7 379.231 264.93 16
1 7 -7 635.221 168.716 2
-1 -7 7 654.388 359.115 35
1 7 -6 40148.7 2431.26 16
1 7 -6 41349.8 1912.8 2
-1 -7 6 41055.4 2572.35 35
-1 -7 5 18586.5 969.252 7
1 7 -5 17888.2 935.906 2
1 7 -5 14791.8 1282.5 16
-1 -7 5 18301.4 1518.81 35
-1 -7 4 6398.41 483.221 7
1 7 -4 5396.77 681.486 16
1 7 -4 6919.39 462.6 2
-1 -7 4 6106.49 857.924 35
-1 -7 3 268.752 164.893 7
-1 -7 3 197.481 291.14 35
-1 -7 2 3593.73 673.244 35
1 7 -2 3453.57 316.135 2
1 7 -1 8052.49 518.643 2
-1 -7 1 7524.44 984.105 35
1 7 0 14557.1 752.179 2
1 7 0 11993.8 732.989 20
-1 -7 0 13906.6 1316.52 35
1 7 1 27831.8 1336.13 2
1 7 1 27255.3 1978.18 22
1 7 1 27815.7 1379.13 20
-1 -7 -1 28812.4 2031.49 35
1 7 2 30.2106 117.774 2
1 7 2 58.0993 162.784 20
1 7 3 18143.7 981.05 20
1 7 4 10439 647.643 20
1 7 5 16429.6 885.643 20
1 7 6 1171 202.904 20
1 7 7 9667.85 518.088 20
1 7 7 8442.68 485.835 17
1 7 8 3330.83 221.469 17
1 7 8 3378.2 239.528 20
-1 -8 14 63.5907 65.9164 9
-1 -8 14 -6.01491 95.8699 27
-1 -8 13 2582.69 236.266 27
-1 -8 12 122.469 104.359 4
-1 -8 12 135.032 140.106 27
-1 -8 11 6468.57 445.145 27
-1 -8 11 6591.64 409.173 4
-1 -8 10 272.876 107.667 6
1 8 -9 3393.04 281.72 2
1 8 -8 869.654 183.367 2
1 8 -7 10002.2 601.811 2
-1 -8 7 10526.4 627.182 7
-1 -8 6 1357.87 225.317 7
1 8 -6 1164.31 207.584 2
1 8 -5 7033.35 467.811 2
-1 -8 5 6309.38 467.98 7
-1 -8 4 7658.23 516.657 7
1 8 -4 7419.44 504.086 2
-1 -8 3 813.478 201.91 7
1 8 -2 14694.6 816.689 2
-1 -8 2 15906.5 846.767 7
-1 -8 1 10500.1 610.195 7
1 8 -1 9106.96 569.576 2
1 8 0 23333.4 1150.89 2
-1 -8 0 24692.5 1191.61 7
1 8 1 10176.7 566.276 17
-1 -8 -1 11347.5 623.78 7
1 8 2 15229.6 805.967 20
-1 -8 -2 17802.3 840.551 7
1 8 2 16159.8 805.042 17
-1 -8 -3 7848.03 437.227 7
1 8 3 7212.18 427.401 17
1 8 3 7649.59 447.219 20
1 8 4 4110.92 277.596 20
1 8 4 4592.67 274.463 17
1 8 5 3862.65 244.064 17
1 8 5 3851.91 251.387 20
-1 -9 12 330.238 73.1561 4
-1 -9 12 370.737 90.4106 27
-1 -9 11 311.099 105.13 27
-1 -9 11 267.124 91.9083 4
-1 -9 10 1724.06 183.247 27
-1 -9 10 1304.66 131.96 6
-1 -9 10 1336.91 155.347 4
-1 -9 9 35.8909 79.6466 6
-1 -9 8 421.694 132.57 7
-1 -9 7 996.923 165.661 7
1 9 -7 788.284 150.944 2
1 9 -6 1121.03 173.652 2
-1 -9 6 972.122 173.304 7
-1 -9 5 9420.98 528.294 7
1 9 -5 8459.73 513.985 2
-1 -9 4 1944.95 221.645 7
1 9 -3 3717.63 294.741 2
-1 -9 3 4277.59 310.631 7
-1 -9 2 6946.28 422.077 7
-1 -9 1 3325.59 257.754 7
-1 -9 0 12838.9 616.299 36
-1 -9 0 12597.4 631.501 7
-1 -9 -1 239.497 78.4159 7
-1 -10 8 125.152 57.9938 4
-1 -10 7 773.895 86.2921 6
-1 -10 6 66.5694 53.7547 6
-1 -10 5 2891.9 175.654 6
-1 -10 5 2550.21 181.494 7
-1 -10 5 3115.19 192.752 36
-1 -10 4 46.5231 54.2156 7
-1 -10 4 59.9067 62.4342 36
-1 -10 4 28.0691 45.6032 6
-2 10 0 1020.26 124.434 14
-2 10 -2 7.2717 87.6015 14
-2 10 -3 5758.9 356.545 14
-2 10 -4 333.836 106.869 14
2 -10 4 123.48 64.8366 6
-2 10 -5 6127.83 345.8 14
2 -10 5 5220.79 304.598 6
-2 10 -6 519.817 103.35 14
2 -10 6 851.824 111.958 6
2 -10 7 4210.85 240.58 6
2 -10 7 3430.01 219.397 4
2 -10 8 1311.44 127.68 6
2 -10 8 1117.26 112.357 4
2 -10 9 821.481 99.4665 6
2 -10 9 767.415 90.218 4
-2 9 4 62.9506 70.1064 17
-2 9 3 480.321 101.48 17
-2 9 2 496.111 129.635 14
-2 9 2 495.851 114.067 17
-2 9 1 -20.5233 117.53 14
-2 9 1 -22.6944 92.0083 17
-2 9 0 2146.9 201.321 17
-2 9 -1 1462.21 213.304 14
-2 9 -1 1550.67 175.367 17
2 -9 2 6403.91 382.663 6
-2 9 -2 7047.32 571.023 13
-2 9 -2 6987.66 470.053 14
-2 9 -3 312.27 257.709 13
2 -9 3 946.062 142.531 6
2 -9 4 4096.17 290.618 6
2 -9 5 2804.26 239.432 6
2 -9 6 2198.17 211.025 6
-2 9 -6 1733.92 218.717 14
-2 9 -7 5820.57 384.677 14
2 -9 7 6604.35 390.113 6
2 -9 7 5689.34 369.75 4
2 -9 8 206.84 109.984 6
2 -9 8 243.573 118.219 4
2 -9 9 -7.74478 98.9602 4
2 -9 10 78.3486 92.2304 6
2 -9 10 -71.332 100.412 4
2 -9 11 120.317 75.8362 6
2 -9 11 169.48 95.421 4
2 -9 12 533.311 102.527 4
2 -9 13 3.76274 55.5168 4
-2 8 6 1822.76 179.106 17
-2 8 5 7319.82 438.839 17
-2 8 4 1107.96 175.716 17
-2 8 3 2105.66 355.739 13
-2 8 3 2630.28 272.09 14
-2 8 3 3086.95 275.824 17
-2 8 2 260.255 155.473 14
-2 8 2 137.461 245.242 13
-2 8 2 219.54 140.167 17
-2 8 1 748.067 211.158 14
-2 8 1 1005.39 189.5 17
-2 8 1 886.933 316.946 13
-2 8 0 15813.1 847.375 17
-2 8 0 16322.6 1052.71 13
2 -8 1 -35.0659 105.609 6
-2 8 -1 103.976 127.294 17
2 -8 2 4104.91 315.882 7
-2 8 -2 4030.22 685.502 22
2 -8 2 4603.37 323.626 6
-2 8 -2 4948.85 352.723 17
2 -8 2 3615.36 663.498 35
2 -8 3 630.544 374.127 35
2 -8 3 931.774 163.109 7
-2 8 -3 816.587 154.334 17
2 -8 3 885.261 158.6 6
-2 8 -4 1718.49 477.91 22
2 -8 4 1040.64 173.373 7
2 -8 4 1532.99 190.681 6
2 -8 5 7156.79 447.441 6
2 -8 5 6374.06 853.394 35
-2 8 -5 6246.39 868.321 22
2 -8 5 6571.1 442.109 7
2 -8 6 2204.08 244.293 7
2 -8 6 2783.34 255.673 6
2 -8 7 155.465 128.569 6
2 -8 8 375.383 145.147 6
2 -8 9 32.1298 127.153 4
2 -8 10 82.1321 126.045 4
2 -8 10 8.93945 105.613 6
2 -8 11 1587.26 202.747 4
2 -8 11 1423.58 171.876 6
2 -8 12 2233.08 192.241 6
2 -8 12 2742.1 254.763 27
2 -8 12 2257.45 223.791 4
2 -8 13 140.222 104.922 4
2 -8 14 2969.62 210.122 4
-2 7 9 730.436 102.481 17
-2 7 8 2656.69 224.023 17
-2 7 7 1863.58 213.973 17
-2 7 6 4644.5 497.827 13
-2 7 5 4248.48 494.615 13
-2 7 5 3359.24 314.169 14
-2 7 5 3878.87 339.369 17
-2 7 4 18152.4 974.935 20
-2 7 4 18148.3 956.96 14
-2 7 4 17402.2 1122.46 13
-2 7 4 17155.2 946.883 17
-2 7 3 5461.68 951.685 31
-2 7 3 6996.22 500.08 14
-2 7 3 6588.81 477.698 17
-2 7 3 6964.15 499.862 20
-2 7 3 6537.7 656.169 13
-2 7 2 13789.1 984.317 13
-2 7 2 14618.7 807.843 20
-2 7 2 12138.7 1400.11 31
-2 7 2 14368.5 794.381 17
2 -7 -2 11153.2 1137.39 35
-2 7 2 13744.4 1248.73 22
-2 7 1 366.007 314.699 22
-2 7 1 711.058 331.475 13
-2 7 1 -79.3878 398.346 31
-2 7 1 783.294 182.229 17
-2 7 0 45795.6 2815.07 22
-2 7 0 47749.6 2143.12 17
2 -7 0 53032.8 2986.73 34
-2 7 -1 7157.1 488.414 17
-2 7 -1 8821.62 1006.43 22
2 -7 1 7939.21 988.335 34
-2 7 -2 15322.5 789.492 17
2 -7 2 13202.6 741.004 7
2 -7 3 331.697 341.89 34
2 -7 3 241.924 126.306 7
-2 7 -3 546.645 146.266 17
-2 7 -3 129.057 285.575 22
-2 7 -4 323.981 265.397 22
2 -7 4 263.258 133.892 7
2 -7 5 3282.07 646.903 34
-2 7 -5 3513.19 644.556 22
2 -7 5 3397.92 298.845 7
-2 7 -6 551.919 301.7 16
2 -7 6 896.09 178.43 7
-2 7 -6 778.277 392.901 22
2 -7 6 1324.45 182.338 6
2 -7 6 1190.66 433.678 34
-2 7 -7 12933.9 1187.74 16
-2 7 -7 11715.8 1215.14 22
2 -7 7 13754 729.426 6
-2 7 -8 1172.67 402.621 22
2 -7 8 1361.85 389.802 35
-2 7 -8 1185.68 393.283 16
2 -7 9 16125.9 838.69 6
-2 7 -9 14583.5 1343.75 16
2 -7 9 16190.6 862.026 4
2 -7 10 1406.53 221.935 4
2 -7 10 1088.54 183.213 6
2 -7 11 10867.2 587.167 6
2 -7 11 9951.59 614.753 4
2 -7 12 85.57 155.691 27
2 -7 12 175.222 102.206 6
2 -7 12 253.763 155.474 4
2 -7 13 1434.83 193.873 4
2 -7 13 939.739 136.736 9
2 -7 15 2058.81 182.411 11
-2 6 10 1445 200.498 18
-2 6 9 5371.07 353.781 17
-2 6 9 4448.6 385.381 18
-2 6 8 2599.26 320.291 18
-2 6 8 3001.47 433.468 13
-2 6 8 2761.24 274.398 17
-2 6 7 29283.8 1657.61 13
-2 6 7 29670.1 1515.73 18
-2 6 7 32393.3 1527.7 20
-2 6 7 29187.1 1457.62 17
-2 6 6 12262.7 899.653 13
-2 6 6 11307.3 667.147 14
-2 6 6 12133.6 758.526 18
-2 6 6 11747.5 704.753 17
-2 6 6 10125.6 826.817 12
-2 6 6 12755.1 764.294 20
-2 6 5 147061 6226.15 14
-2 6 5 139634 6427.99 12
-2 6 5 150714 6294.24 20
-2 6 5 142307 6280.1 18
-2 6 5 130814 7326.04 31
-2 6 5 146076 6475.25 13
-2 6 4 2868.23 731.205 31
-2 6 4 3137.89 488.557 13
-2 6 4 3330.52 358.227 18
-2 6 4 2580.33 430.467 12
-2 6 4 3671.3 371.616 20
-2 6 4 3781.99 347.29 14
-2 6 4 3256.47 328.08 17
-2 6 3 6068.89 453.724 17
-2 6 3 6723.32 642.747 13
-2 6 3 6252.76 778.199 22
-2 6 3 6187.76 480.994 20
-2 6 3 5434.16 940.503 31
-2 6 2 382.302 285.516 13
-2 6 2 845.784 454.535 31
-2 6 2 433.003 300.487 22
-2 6 2 596.89 193.197 20
2 -6 -2 171.738 287.524 34
-2 6 2 424.338 174.749 17
-2 6 1 51889.1 3287.06 31
-2 6 1 63357.3 3248.88 22
-2 6 1 55168.3 2555.51 20
-2 6 1 55825 2546.73 17
2 -6 -1 62954.6 3296.41 34
-2 6 0 3618.69 310.382 17
-2 6 0 3608.52 598.501 22
-2 6 0 2874.52 293.497 20
2 -6 0 3714.03 660.827 34
2 -6 1 7117.69 857.91 34
-2 6 -1 5291.09 735.27 22
-2 6 -1 5888.55 415.969 17
2 -6 2 13500.5 1215.1 34
-2 6 -2 13508.3 689.985 17
2 -6 2 11039.8 632.928 7
2 -6 3 3130.3 264.97 7
-2 6 -3 3135.43 576.326 22
-2 6 -3 3270.85 281.005 17
2 -6 3 3580.42 647.29 34
-2 6 -3 2788.02 490.45 16
2 -6 4 34964.2 1742.9 7
-2 6 -4 42841 2458.31 22
-2 6 -4 40896.8 1756.91 17
-2 6 -4 41278.3 2293.3 16
2 -6 5 8727.17 938.283 34
-2 6 -5 7517.93 840.326 16
2 -6 5 7310.4 771.414 23
-2 6 -5 8709.23 959.97 22
2 -6 5 8464.79 504.932 7
2 -6 6 31664.9 1481.88 6
2 -6 6 34286.9 2113.15 34
-2 6 -6 32735.9 2136.23 22
2 -6 6 32203.2 1980.3 23
-2 6 -6 34655.6 2078.91 16
2 -6 6 31075.9 1504.31 7
2 -6 7 17161.9 1353.31 34
2 -6 7 14441.3 1254.32 23
-2 6 -7 16033.3 1359.12 22
2 -6 8 28583.3 1858.19 34
2 -6 8 27581.8 1304.64 6
2 -6 8 25943 1849.84 23
-2 6 -8 24046.3 1825.21 22
-2 6 -8 29567.2 1948.72 16
2 -6 9 11209.8 1182.58 23
2 -6 9 14611.3 749.385 6
2 -6 9 14638.7 782.998 4
-2 6 -9 12207.6 1210.4 16
2 -6 9 11575.7 1066.88 35
2 -6 10 9961.04 577.251 6
2 -6 10 10180.8 623.924 4
2 -6 10 7918.83 1000.5 23
-2 6 -10 9996.64 1082.37 16
2 -6 11 1500.76 202.148 6
2 -6 11 952.97 386.918 23
2 -6 11 1162.88 192.633 9
2 -6 11 1767.8 249.866 4
2 -6 12 1196.93 229.886 27
2 -6 12 993.794 157.295 6
2 -6 12 854.408 176.832 9
2 -6 12 1576.48 234.89 4
2 -6 13 1530.34 200.144 9
2 -6 14 2103.14 211.461 9
2 -6 15 86.1628 120.321 11
2 -6 15 55.8346 93.03 9
2 -6 16 549.709 112.189 11
-2 5 12 4353.95 329.623 18
-2 5 11 421.726 180.465 18
-2 5 10 14482.7 1006.38 13
-2 5 10 15469.5 925.224 18
-2 5 10 14872.5 809.655 17
-2 5 9 -27.7178 308.909 13
-2 5 9 97.2801 138.559 17
-2 5 9 378.845 284.137 12
-2 5 9 -48.3613 181.683 20
-2 5 9 19.9186 211.788 18
-2 5 9 148.449 242.904 30
-2 5 8 48970.4 2577.95 12
-2 5 8 51638.1 2353.33 17
-2 5 8 54510 2486.35 18
-2 5 8 54060 2623.41 13
-2 5 8 47765.4 2468.95 30
-2 5 7 -98.1214 384.433 31
-2 5 7 55.6583 102.718 14
-2 5 7 -62.9331 319.763 12
-2 5 7 -160.857 241.281 30
-2 5 7 296.06 223.443 18
-2 5 7 59.4139 321.633 13
-2 5 6 37442.8 2718.26 31
-2 5 6 33540.6 1813.74 30
-2 5 6 36960.2 1949.32 13
-2 5 6 34387.7 1674.42 14
-2 5 6 34609 1935.97 12
-2 5 6 36068.8 1807.72 18
-2 5 6 39654.1 1793.61 20
-2 5 5 6010.58 1002.83 31
-2 5 5 6112.83 428.881 14
-2 5 5 5595.2 587.684 13
-2 5 5 5994.63 475.614 20
-2 5 5 5647.15 489.003 18
-2 5 5 5820.14 528.516 30
-2 5 4 18732.1 952.356 14
-2 5 4 17677.5 1132.54 13
-2 5 4 18076.3 1652.24 31
-2 5 4 18640.3 995.97 20
2 -5 -4 17173.7 1336.69 34
-2 5 4 18693.5 1018.21 18
-2 5 4 16256.7 1019.06 30
-2 5 3 6152.68 604.018 13
-2 5 3 6927.86 959.613 31
-2 5 3 6333.65 735.948 22
2 -5 -3 6871.75 819.489 34
-2 5 3 7255.33 500.774 20
-2 5 3 7595.47 521.229 18
2 -5 -2 956.052 344.199 34
-2 5 2 443.906 273.376 22
-2 5 2 514.42 170.615 20
-2 5 2 370.945 327.361 31
2 -5 -1 19616.2 1445.14 34
-2 5 1 20520.9 1414.06 22
-2 5 1 19041.4 983.555 20
-2 5 1 19103.9 970.251 17
-2 5 0 11416.6 637.776 17
-2 5 0 11187.3 998.968 22
2 -5 0 12607 1078.23 34
-2 5 -1 57890 2651.46 2
2 -5 1 78898.7 3406.5 34
-2 5 -2 28665.9 1644.25 16
-2 5 -2 29556.4 1787.08 22
-2 5 -2 25354.9 1258.87 2
2 -5 2 32383.1 1859.81 34
2 -5 3 17122.8 1067.17 23
-2 5 -3 18042.4 1296.9 22
-2 5 -3 18630.8 1210.67 16
-2 5 -3 15052 810.394 2
2 -5 4 26891.5 1653.66 34
-2 5 -4 24677.9 1535.48 16
2 -5 4 21369.1 1407.64 23
-2 5 -4 23275.1 1588.13 22
2 -5 5 39904.4 1873.64 7
2 -5 5 41357.2 2287.88 23
-2 5 -5 45029.8 2461.91 22
-2 5 -6 41198 2329.78 16
2 -5 6 38223.4 2266.25 23
-2 5 -6 40811.5 2367.59 22
2 -5 6 47032.3 2401.54 34
2 -5 6 39198.6 1830.71 7
2 -5 7 650.612 315.633 23
2 -5 7 217.305 235.635 34
2 -5 7 341.335 131.374 37
2 -5 7 345.118 115.297 6
-2 5 -7 145.242 236.168 22
-2 5 -7 192.091 247.622 16
2 -5 8 14830.2 813.348 33
2 -5 8 16465.1 842.869 4
2 -5 8 15591.3 848.686 37
2 -5 8 15947.9 1217.81 34
-2 5 -8 14117.2 1207.3 22
2 -5 8 16979 1324.48 23
2 -5 8 16546.5 816.158 6
-2 5 -8 15908.1 1290.06 16
-2 5 -9 4917.6 725.422 16
2 -5 9 5288.56 366.322 6
2 -5 9 4928.28 381.344 33
2 -5 9 4236.75 692.297 23
2 -5 9 4927.9 413.7 37
2 -5 9 5587.87 404.352 4
2 -5 10 1696.34 242.96 4
2 -5 10 1227.09 183.356 6
2 -5 10 1063.46 217.539 37
2 -5 10 1730.92 487.387 23
2 -5 10 1169.82 212.884 33
-2 5 -10 1843.16 479.401 16
2 -5 11 2333.09 226.751 6
2 -5 11 1788.16 257.001 33
2 -5 11 1773.03 240.31 9
2 -5 11 1297.76 466.587 23
2 -5 11 1866.84 270.132 4
-2 5 -11 1567.18 457.148 16
2 -5 12 217.81 169.757 33
2 -5 12 411.649 124.679 6
2 -5 12 526.87 330.489 23
2 -5 12 577.745 194.351 27
2 -5 12 403.515 166.161 9
2 -5 13 647.323 196.361 33
2 -5 13 858.301 190.972 9
2 -5 14 1554.38 231.416 33
2 -5 14 1413.73 207.11 9
2 -5 15 4993.76 354.563 9
2 -5 15 6097.6 391.432 11
2 -5 16 138.118 115.222 11
2 -5 17 370.188 83.1132 11
-2 4 13 2627.13 283.168 18
-2 4 12 109.562 217.995 30
-2 4 12 263.696 208.018 18
-2 4 11 11955.6 920.472 13
-2 4 11 11727.7 845.83 30
-2 4 11 12878 842.07 18
-2 4 10 1225.99 337.58 30
-2 4 10 816.178 175.664 17
-2 4 10 1083.23 374.9 12
-2 4 10 788.486 286.835 18
-2 4 10 1494.79 418.207 13
-2 4 9 215.2 335.112 13
-2 4 9 403.53 279.832 30
-2 4 9 497.997 351.061 12
-2 4 9 259.57 197.63 20
-2 4 9 513.454 274.674 18
-2 4 9 308.866 152.668 17
-2 4 8 17233 910.687 32
-2 4 8 15949.7 1749.37 31
-2 4 8 18536.8 1128.78 30
-2 4 8 20125.7 1221.53 13
-2 4 8 16238.3 1058.5 15
-2 4 8 18971 1030.39 20
-2 4 8 19818.3 1125.72 18
-2 4 8 19107.8 1243.32 12
-2 4 7 2093.44 411.929 13
-2 4 7 1421.86 579.761 31
-2 4 7 1720.4 413.807 12
-2 4 7 2278.2 363.154 30
-2 4 7 1788.48 284.598 20
-2 4 7 1719.55 317.226 15
-2 4 7 1518.89 311.194 18
-2 4 6 4491.09 457.81 30
-2 4 6 4438.19 338.792 14
-2 4 6 4534.82 855.446 31
-2 4 6 4694.82 518.789 13
-2 4 6 4945.69 449.146 18
-2 4 6 3903.21 431.39 15
-2 4 5 5411.87 496.758 15
-2 4 5 6470.32 528.645 30
-2 4 5 5759.4 398.264 14
-2 4 5 5902.01 483.398 18
-2 4 5 6069.17 453.719 20
-2 4 5 7239.71 981.562 31
-2 4 5 6046.35 555.205 13
-2 4 4 1655.47 286.854 30
-2 4 4 1466.22 320.33 13
2 -4 -4 1761.65 389.037 34
-2 4 4 2019.93 530.484 31
-2 4 4 1422.91 243.405 18
-2 4 4 1697.59 232.482 20
-2 4 4 1548.81 186.391 14
2 -4 -3 55587.7 2854.18 34
-2 4 3 52860.1 2762.86 22
-2 4 3 53552.9 3022.42 31
-2 4 2 28806.5 1887.87 31
-2 4 2 30608.4 1751.05 22
-2 4 1 50222.4 2626.2 22
-2 4 0 712.93 276.511 22
2 -4 1 62268.6 2833.14 23
2 -4 2 3607.65 372.599 23
-2 4 -2 2929.37 454.822 22
-2 4 -2 4013.42 464.55 16
2 -4 3 44705 2270.39 23
-2 4 -3 48342.9 2392.98 16
-2 4 -3 45443.9 2443.95 22
2 -4 4 2975.84 400.272 23
-2 4 -4 2992.99 469.296 22
2 -4 5 342.189 217.533 23
-2 4 -5 184.406 213.569 22
-2 4 -5 34.5263 208.103 16
-2 4 -6 262.288 226.316 22
2 -4 6 428.915 270.875 23
-2 4 -6 605.324 283.149 16
2 -4 7 230.12 129.991 37
2 -4 7 263.458 118.228 4
2 -4 7 510.168 241.355 34
2 -4 7 287.838 97.5083 6
2 -4 7 693.538 285.357 23
-2 4 -7 110.711 190.392 22
-2 4 -7 374.397 250.853 16
2 -4 8 4304.29 521.028 34
2 -4 8 4354.92 357.685 37
2 -4 8 4532.49 312.42 6
2 -4 8 4579.35 621.093 23
2 -4 8 4615.52 340.407 4
-2 4 -8 3498.77 565.961 16
2 -4 9 16196 831.429 6
-2 4 -9 15465.5 1285.23 16
2 -4 9 14833.6 1283.33 23
2 -4 9 16950 919.196 37
2 -4 9 17785.2 885.747 4
-2 4 -10 11738.2 1137.17 16
2 -4 10 14388.2 786.04 33
2 -4 10 13634.2 713.033 6
2 -4 10 12767.5 743.091 9
2 -4 10 12331.8 1199.22 23
2 -4 10 14617.2 775.128 4
2 -4 10 13688.1 811.892 37
2 -4 11 5764.11 383.297 6
2 -4 11 6140.77 453.868 27
2 -4 11 6170.43 466.437 33
2 -4 11 5274.69 423.592 9
2 -4 11 6244.26 497.532 37
2 -4 12 -132.61 259.932 23
2 -4 12 393.554 180.946 27
2 -4 12 332.844 180.784 33
2 -4 12 202.371 104.328 6
2 -4 12 161.776 159.508 9
2 -4 13 1272.55 265.361 30
2 -4 13 1209.81 232.704 9
2 -4 13 1415.61 260.959 33
2 -4 14 2129.06 298.794 30
2 -4 14 2320.66 289.581 11
2 -4 14 2709.85 286.484 9
2 -4 14 1997.34 283.623 33
2 -4 15 7950.58 516.623 33
2 -4 15 9348.46 515.144 11
2 -4 15 7816.07 489.037 9
2 -4 16 35.3187 115.688 30
-2 3 14 44.8801 181.138 30
-2 3 14 155.6 160.649 18
-2 3 13 7757.48 629.494 30
-2 3 12 266.048 278.038 30
-2 3 12 367.733 334.112 13
-2 3 11 5666.39 635.043 13
-2 3 11 5114.01 563.416 30
-2 3 11 4310.52 577.695 12
-2 3 11 4905.37 506.393 15
-2 3 10 10790 796.918 15
-2 3 10 10543 819.324 30
-2 3 10 10380.3 887.72 13
-2 3 10 10036.3 612.43 17
-2 3 10 10913.4 909.154 12
-2 3 10 11161.5 684.832 20
-2 3 10 11615 822.247 18
-2 3 10 11163.9 633.258 32
-2 3 9 5628.48 560.624 15
-2 3 9 6159.56 424.788 32
-2 3 9 6344.21 684.051 12
-2 3 9 6473.95 561.255 29
-2 3 9 6429.72 657.053 13
-2 3 9 6449.85 606.656 30
-2 3 9 6240.4 484.151 20
-2 3 9 5975.58 576.557 18
-2 3 8 5241.38 531.63 15
-2 3 8 5112.09 376.082 32
-2 3 8 6114.18 563.709 30
-2 3 8 6105.96 624.611 13
-2 3 8 6117.29 647.733 12
-2 3 8 6670.95 476.521 20
-2 3 8 5824.22 532.363 18
-2 3 7 10418.1 753.374 30
-2 3 7 12423.1 843.003 13
-2 3 7 10701.4 759.864 15
-2 3 7 10518.2 837.8 12
-2 3 7 11849.4 696.509 20
-2 3 7 11801.7 764.686 18
-2 3 6 323.125 358.105 31
-2 3 6 128.265 204.265 30
-2 3 6 52.288 140.771 20
-2 3 6 191.432 170.84 18
-2 3 6 110.445 187.121 15
-2 3 5 5585.33 776.274 31
-2 3 5 3815.83 356.677 29
2 -3 -5 4938.85 518.364 34
-2 3 5 4150.38 396.937 30
-2 3 4 2619.61 529.561 31
-2 3 3 73778.5 3754.65 31
-2 3 3 76374.1 3701.24 26
-2 3 3 76932.6 3555.48 22
-2 3 2 360.762 260.015 31
-2 3 2 24.5885 161.922 22
-2 3 2 504.809 276.521 26
-2 3 1 28657.3 1564.82 31
-2 3 1 31682.9 1562.44 22
-2 3 0 2565.37 404.255 26
2 -3 0 2925.21 260.769 23
2 -3 1 154442 6566.13 23
-2 3 -1 149866 6769.16 22
-2 3 -2 9524.24 725.194 22
2 -3 2 8749.27 614.386 23
2 -3 3 51771.1 2378.84 23
-2 3 -3 49002.4 2452.08 22
-2 3 -3 45913.3 2398.79 16
-2 3 -4 28584.6 1624.16 16
-2 3 -4 29693.1 1643.15 22
2 -3 4 31007.1 1607.85 23
-2 3 -5 1088.02 274.158 22
2 -3 5 1513.53 309.653 23
-2 3 -5 1363.99 305.019 16
2 -3 6 86254 4063.26 23
-2 3 -6 84938.8 4053.09 16
-2 3 -7 5788.2 630.627 16
2 -3 7 7078.26 689.218 23
2 -3 8 30796.2 1430.38 32
2 -3 8 26773.4 1605.29 34
2 -3 8 30916.9 1414.12 6
2 -3 8 34176.4 1947.1 23
-2 3 -8 31395.3 1854.6 16
2 -3 8 32190.8 1505.19 37
2 -3 8 32931.4 1458.43 4
2 -3 9 7305.4 448.735 32
-2 3 -9 6353.79 722.698 16
2 -3 9 7254.41 421.478 6
2 -3 9 6572.29 448.607 27
2 -3 9 7178.68 461.434 9
2 -3 9 6877.21 498.523 37
2 -3 10 25053.5 1249.72 37
2 -3 10 22366.4 1669.93 23
2 -3 10 24716.9 1156.64 32
2 -3 10 24911.3 1160.86 27
2 -3 10 22186.8 1087 5
2 -3 10 23332.5 1163.44 9
2 -3 10 21996 1094.29 6
2 -3 11 35045.9 1586.36 32
2 -3 11 36260 1688.46 37
2 -3 11 34143.3 1579.38 27
2 -3 11 35040.6 1600.84 4
2 -3 11 33552.4 1596.31 9
2 -3 11 30310.3 1502.9 6
2 -3 12 21748.2 1109.19 27
2 -3 12 22500.2 1181.95 33
2 -3 12 22507.9 1148.27 9
2 -3 12 23049 1221.39 37
2 -3 13 1576.7 317.464 30
2 -3 13 1370.65 268.844 33
2 -3 13 1852.38 276.877 11
2 -3 13 1168.64 246.823 9
2 -3 14 233.318 189.291 33
2 -3 14 -75.2993 212.235 30
2 -3 14 350.06 188.09 11
2 -3 14 143.634 175.994 9
2 -3 15 5973.92 440.527 33
2 -3 15 5134.58 453.607 30
2 -3 15 6056.43 421.202 9
2 -3 16 1293.07 222.097 30
-2 2 15 3791.18 374.881 30
-2 2 14 901.932 295.269 30
-2 2 14 679.648 227.153 18
-2 2 13 5433.97 540.682 18
-2 2 13 4923.6 587.006 30
-2 2 12 5693.12 553.388 15
-2 2 12 4779.61 616.469 13
-2 2 12 3866.57 460.512 29
-2 2 12 4247.26 527.693 30
-2 2 12 4038.32 348.73 32
-2 2 12 4050.7 472.079 18
-2 2 11 863.994 292.345 29
-2 2 11 910.899 326.588 15
-2 2 11 1366.1 370.537 30
-2 2 11 1314.99 217.199 32
-2 2 11 1008.43 294.278 18
-2 2 10 10617.3 795.152 15
-2 2 10 10439.3 780.14 30
-2 2 10 10312.9 725.257 29
-2 2 10 10148.1 623.107 20
-2 2 10 11719 785.343 18
-2 2 10 8458.9 572.492 32
-2 2 9 1812.26 357.879 15
-2 2 9 1802.69 224.079 32
-2 2 9 2138.78 262.288 20
-2 2 9 1959.95 340.635 18
-2 2 9 1482.44 564.378 31
-2 2 8 35482.5 1855.69 15
-2 2 8 37561.1 1688.45 32
-2 2 8 37801.8 1750.8 20
-2 2 7 209.132 131.921 20
-2 2 7 202.104 208.353 15
-2 2 6 174976 7781.18 26
-2 2 5 -44.2527 309.277 31
-2 2 5 120.108 194.3 26
-2 2 4 132077 5920.28 26
-2 2 4 131333 6048.1 31
-2 2 3 60376.7 2875.95 26
-2 2 3 58081.1 2923.98 31
-2 2 2 104497 4668.77 31
-2 2 2 104351 4671.15 26
-2 2 2 101219 4577.97 25
-2 2 1 348.704 199.107 31
-2 2 1 457.365 200.798 25
-2 2 1 179.334 164.587 22
-2 2 0 171082 7169.21 31
-2 2 0 162760 7267.45 26
-2 2 -1 19185.2 1065.2 26
-2 2 -1 16607.9 1013.55 25
-2 2 -1 18800.5 889.367 31
-2 2 -1 17401.8 1041.43 22
-2 2 -2 44752.2 2178.54 26
-2 2 -2 46216.3 2213.08 22
-2 2 -2 45526.5 2176.85 25
-2 2 -3 28544.4 1494.39 26
-2 2 -3 29689.9 1517.5 16
-2 2 -3 29605.9 1506.99 25
2 -2 4 74963.6 3343.22 23
-2 2 -4 68905.1 3304.08 16
2 -2 5 58111.2 2656.86 23
-2 2 -5 50206 2579.16 16
-2 2 -6 68207.5 3236.81 16
-2 2 -7 100851 4371.21 16
2 -2 7 90724.1 4081.57 1
2 -2 8 111004 4372.51 37
2 -2 8 111195 4859.94 23
2 -2 8 103588 4294.61 9
2 -2 9 28781.9 1253.11 32
2 -2 9 25467.2 1180.78 6
2 -2 9 25978.4 1369.98 21
2 -2 9 26857.9 1730.79 23
2 -2 9 23609.6 1172 5
2 -2 9 26058.2 1245.22 9
2 -2 10 37798.8 1633.08 32
2 -2 10 33127.5 2151.13 23
2 -2 10 33392.4 1553.71 5
2 -2 10 33202.7 1751.02 21
2 -2 10 35516.8 1625.9 4
2 -2 10 35192.7 1638.51 9
2 -2 10 33484.8 1550.52 6
2 -2 11 2953.92 303.96 32
2 -2 11 2190.77 522.291 23
2 -2 11 2787.9 308.091 11
2 -2 11 2233.31 372.569 21
2 -2 11 2768.05 310.858 9
2 -2 11 3617.91 379.415 37
2 -2 12 30059.6 1417.36 11
2 -2 12 21730.3 1880.71 23
2 -2 12 24797 1479.97 21
2 -2 12 30257.1 1434.73 9
2 -2 12 26178.4 1471.74 37
2 -2 12 32104.1 1416.87 32
2 -2 13 255.629 173.44 32
2 -2 13 530.268 266.577 30
2 -2 13 140.575 221.763 21
2 -2 13 593.437 207.827 9
2 -2 14 109.606 177.415 33
2 -2 14 -159.59 183.213 9
2 -2 14 40.7695 225.895 30
2 -2 15 945.444 261.159 30
2 -2 15 660.612 195.498 33
2 -2 16 -25.6417 155.195 30
-2 1 16 2525.72 293.774 30
-2 1 15 223.409 241.093 30
-2 1 14 -70.0625 267.479 30
-2 1 14 148.91 181.259 18
-2 1 14 -36.0455 205.319 29
-2 1 13 18264.2 985.375 32
-2 1 13 19856.5 1140.58 29
-2 1 13 20267.1 1218.15 30
-2 1 13 19295.1 1116.2 18
-2 1 12 756.09 356.724 15
-2 1 12 64.0112 221.504 29
-2 1 12 403.687 306.822 30
-2 1 12 166.15 114.477 9
-2 1 12 288.029 225.469 18
-2 1 12 312.762 159.963 32
-2 1 11 17137.2 1041.14 30
-2 1 11 15982.9 833.575 32
-2 1 11 15040.8 1068.3 12
-2 1 11 14832.1 1028.11 15
-2 1 11 14482.5 782.83 9
-2 1 11 15733.2 975.693 18
-2 1 10 4376.53 351.369 32
-2 1 10 5168.16 504.838 30
-2 1 10 3839.94 530.148 13
-2 1 10 4050.23 536.053 12
-2 1 10 3873.2 303.485 9
-2 1 10 4663.71 466.075 18
-2 1 10 3844.95 503.219 15
-2 1 9 60763.3 2907.02 15
-2 1 9 62633.4 2822.21 8
-2 1 9 63009.3 2900.45 30
-2 1 9 62240.6 2971.77 13
-2 1 9 62305.9 2770.14 10
-2 1 9 58066.9 2965.82 12
-2 1 9 61562.1 2724.05 32
-2 1 9 63364.1 2880.44 18
-2 1 8 3289.99 271.842 32
-2 1 8 3777.25 466.453 26
-2 1 8 4147.36 458.731 12
-2 1 8 3715.72 363.588 29
-2 1 8 3246.51 416.299 13
-2 1 8 3003.99 384.555 15
-2 1 8 4119.96 404.475 30
-2 1 8 3632.06 373.018 18
-2 1 7 65128.9 3171.72 26
-2 1 6 54519.3 2679.44 26
-2 1 5 163923 7261.88 25
-2 1 5 181901 7455.98 26
-2 1 5 176046 7676.75 31
2 -1 -5 167359 7192.25 1
-2 1 4 1163.8 207.073 25
-2 1 4 1090.81 274.563 26
2 -1 -4 1075.38 163.836 1
-2 1 4 842.751 311.672 31
-2 1 3 18106.5 1032.07 26
-2 1 3 17089.8 941.325 25
-2 1 3 16748 1081.95 31
-2 1 2 6922.06 557.696 31
-2 1 1 7836.84 560.275 26
-2 1 1 7608.05 530.897 31
-2 1 0 55012.8 2526.52 26
-2 1 -1 999999 41564.1 26
-2 1 -2 926780 38518.3 26
-2 1 -3 7475.44 479.089 26
-2 1 -3 7498.77 512.956 25
-2 1 -4 311.827 121.449 26
-2 1 -4 330.12 144.417 25
-2 1 -5 107156 4686.91 25
2 -1 5 108135 4648.39 1
2 -1 6 13530 749.591 1
2 -1 6 17325.7 1051.38 23
2 -1 7 226621 9935.15 23
2 -1 8 6980.43 466.04 37
2 -1 8 6323.65 418.152 9
2 -1 8 6948.64 718.899 23
2 -1 8 6372.57 410.657 32
2 -1 9 11843.7 626.798 32
2 -1 9 10210.7 966.222 23
2 -1 9 9850.89 567.372 5
2 -1 9 11266.7 621.488 11
2 -1 9 10479.6 774.969 21
2 -1 9 11870.5 645.918 9
2 -1 9 11144 687.499 37
2 -1 10 -33.8123 168.447 37
2 -1 10 212.01 121.778 3
2 -1 10 50.7621 224.493 23
2 -1 10 282.377 164.623 32
2 -1 10 387.911 171.923 11
2 -1 10 121.595 252.197 21
2 -1 10 217.014 162.588 9
2 -1 11 3936.39 660.231 23
2 -1 11 5876.98 428.617 11
2 -1 11 5236.58 564.505 21
2 -1 11 5683.13 439.029 9
2 -1 11 4584.4 460.896 37
2 -1 11 5983.15 437.611 32
2 -1 12 3407.47 379.491 33
2 -1 12 3520.29 345.869 32
2 -1 12 3442.27 450.354 30
2 -1 12 2992.43 569.081 23
2 -1 12 2979.73 433.333 21
2 -1 12 3937.55 367.848 9
2 -1 12 3075.13 369.389 37
2 -1 13 25.9092 162.007 32
2 -1 13 22.5859 241.638 30
2 -1 13 282.76 205.177 33
2 -1 13 94.3769 234.887 21
2 -1 14 716.101 272.164 30
2 -1 14 653.954 199.888 33
2 -1 14 953.476 198.853 32
2 -1 15 1693.17 224.236 33
2 -1 15 1584.54 283.547 30
2 -1 16 3882.28 350.569 30
-2 0 16 329.631 200.781 30
-2 0 15 228.382 203.97 29
-2 0 15 -79.7001 223.322 30
-2 0 14 738.34 270.306 29
-2 0 14 1170.2 329.94 30
-2 0 13 376.02 255.577 29
-2 0 13 197.703 139.1 9
-2 0 13 164.057 183.154 18
-2 0 13 204.619 290.082 30
-2 0 12 19627.6 1244.61 15
-2 0 12 18891.5 1004.29 32
-2 0 12 20269.8 1205.49 30
-2 0 12 18414.2 978.496 9
-2 0 12 19307 1108.8 18
-2 0 11 6709.35 661.305 15
-2 0 11 7523.47 630.387 30
-2 0 11 8101.82 499.467 32
-2 0 11 6687.83 710.198 13
-2 0 11 7473.21 681.542 12
-2 0 11 7770.67 558.755 10
-2 0 11 6824.56 467.116 9
-2 0 11 7011.26 573.26 18
-2 0 11 8483.19 620.734 8
-2 0 10 12470.9 935.073 15
-2 0 10 15877.3 788.03 32
-2 0 10 14933.2 1013.24 13
-2 0 10 15369.6 933.236 30
-2 0 10 15571.3 901.992 8
-2 0 10 13738.6 970.023 12
-2 0 10 15606.8 859.586 10
-2 0 10 13133.5 750.444 9
-2 0 10 14875.3 883.217 18
-2 0 9 20087.2 997.329 32
-2 0 9 20559.9 1128.16 30
-2 0 9 21422.8 1224.88 13
-2 0 9 19189.1 1180.36 12
-2 0 9 20435.8 1074.36 10
-2 0 9 19885.7 1105.26 8
-2 0 9 20922.8 1104.91 18
-2 0 9 20936.7 1053.48 27
-2 0 8 419.909 205.404 30
-2 0 8 553.066 254.132 13
-2 0 8 373.964 192.818 26
-2 0 8 466.796 157.612 27
-2 0 7 2238.85 353.661 26
2 0 -6 1670.25 208.16 1
2 0 -5 5573.9 390.742 1
-2 0 5 5567.06 475.488 24
-2 0 4 3870.97 387.778 24
2 0 -4 4044.52 318.292 1
2 0 -3 79210.5 3481.07 1
-2 0 3 79983.9 3555.36 24
2 0 -2 117619 5053.06 1
-2 0 1 115100 5108.35 24
2 0 -1 120802 5076.91 1
-2 0 0 19294.6 985.319 24
2 0 0 18586.4 961.289 1
2 0 1 93049.5 4148.95 1
-2 0 -1 98821.7 4156.13 24
-2 0 -2 345745 14727.3 24
2 0 2 359930 14758.6 1
2 0 3 639.306 145.77 1
2 0 4 26754.5 1286.39 31
2 0 4 24813.3 1185.99 1
-2 0 -4 22719.6 1097.42 26
2 0 5 4048.26 323.004 1
2 0 5 4282.38 450.789 31
2 0 6 778.592 253.204 23
2 0 6 508.582 231.869 31
2 0 6 332.274 106.574 1
2 0 7 5083.36 597.075 31
2 0 7 4932.77 573.375 23
2 0 8 19498.6 884.808 3
2 0 8 15690.4 1197.44 23
2 0 8 17829.9 937.598 37
2 0 8 17830.4 878.39 11
2 0 8 13629.6 1191.25 31
2 0 8 16174.8 1058.8 21
2 0 8 16912.2 882.165 9
2 0 9 1590.24 211.652 3
2 0 9 1440.79 244.022 37
2 0 9 1478.58 365.585 23
2 0 9 1502.64 219.19 11
2 0 9 1704.89 376.404 21
2 0 9 1850.54 233.978 9
2 0 10 3977.31 347.294 32
2 0 10 4471.47 365.664 3
2 0 10 3700.22 501.545 21
2 0 10 4092.25 391.975 37
2 0 11 -85.5931 171.629 37
2 0 11 -13.3365 159.931 32
2 0 11 -280.092 284.648 21
2 0 12 5168.78 402.215 32
2 0 12 4010.46 534.214 21
2 0 12 4677.2 412.224 33
2 0 12 3522.3 328.602 19
2 0 13 308.341 177.618 33
2 0 13 491.86 195.282 32
2 0 14 97.8268 147.018 32
2 0 15 316.629 139.467 32
-2 -1 16 397.844 190.339 30
-2 -1 16 366.199 186.823 29
-2 -1 15 75.7514 203.888 30
-2 -1 15 208.399 216.212 29
-2 -1 14 883.515 290.636 30
-2 -1 14 918.68 181.541 9
-2 -1 13 1556.98 334.425 30
-2 -1 13 1400.12 277.953 10
-2 -1 13 1324.52 221.513 9
-2 -1 12 2207.01 376.724 30
-2 -1 12 2343.25 228.963 11
-2 -1 12 2534.1 345.222 10
-2 -1 12 2212.98 271.884 9
-2 -1 12 2196.84 290.173 18
-2 -1 11 19451.5 1172.56 15
-2 -1 11 20453.8 1121.85 8
-2 -1 11 19453.1 1101.2 30
-2 -1 11 20223.4 1170.38 12
-2 -1 11 20428.5 1041.39 27
-2 -1 11 16570 900.923 11
-2 -1 11 19570.1 1071.32 10
-2 -1 11 17532.9 1003.54 18
-2 -1 10 15656.5 952.758 30
-2 -1 10 15318.2 991.259 12
-2 -1 10 16257 1026.38 15
-2 -1 10 18792.8 969.878 10
-2 -1 10 14903.3 885.946 18
-2 -1 10 16604.7 901.565 27
-2 -1 10 16830.9 978.499 8
-2 -1 9 821.214 308.038 15
-2 -1 9 1566.06 262.932 30
-2 -1 9 1633.16 231.152 27
-2 -1 9 1408.41 273.904 8
-2 -1 9 1475.82 196.086 32
-2 -1 9 1441.23 291.091 12
-2 -1 9 1589.01 250.708 10
-2 -1 9 1421.63 297.098 26
-2 -1 9 1594.67 337.252 13
-2 -1 8 5673.04 399.425 27
2 1 -7 8903.07 610.125 1
-2 -1 7 10368.8 720.381 24
-2 -1 6 1447.75 279.773 24
2 1 -6 1679.12 244.68 1
-2 -1 5 19174.7 1103.08 24
2 1 -5 19109.1 1027.48 1
2 1 -4 62233.8 2820.16 1
-2 -1 3 39873.8 1929.24 35
2 1 -3 40222.2 1897.32 1
2 1 -2 27565.1 1372.29 1
-2 -1 1 4276.64 395.753 35
2 1 -1 3944.13 357.363 1
-2 -1 0 363674 15326.3 35
-2 -1 -1 12984.6 785.282 35
2 1 1 12518.2 739.216 1
2 1 2 16767.8 923.688 1
2 1 3 7220.64 510.111 1
-2 -1 -4 33440.6 1584.62 24
2 1 4 36605.1 1691.66 1
2 1 5 437.68 143.54 1
2 1 5 697.972 288.576 31
2 1 6 1245.64 342.448 31
2 1 6 963.554 266.373 23
2 1 7 9286.32 507.819 3
2 1 7 8260.66 735.436 23
2 1 7 7728.39 473.689 11
2 1 7 7381.51 634.656 21
2 1 7 8324.44 513.688 37
2 1 8 33366.5 1637.55 37
2 1 8 29631.3 1900.66 23
2 1 8 33844.7 1595.15 11
2 1 8 30168.2 1781.83 21
2 1 8 26752.6 2025.27 31
2 1 9 13560 831.916 37
2 1 9 17077.1 845.439 3
2 1 10 16193 951.578 30
2 1 10 14723.4 842.31 37
2 1 10 14256.8 852.133 20
2 1 11 3623.66 353.547 33
2 1 11 3923.06 356.109 32
2 1 11 3814.57 444.901 30
2 1 11 2834.99 320.038 20
2 1 11 2906.86 319.005 19
2 1 12 9078.3 677.492 30
2 1 12 9104.14 568.9 33
2 1 12 10423.4 600.398 32
2 1 12 9129.64 765.193 21
2 1 13 19.1741 218.442 30
2 1 13 73.4683 160.435 32
2 1 14 6827.18 517.98 30
2 1 14 5510.19 484.897 18
2 1 15 184.387 106.978 32
2 1 15 -10.7678 139.944 30
2 1 15 -28.5356 127.153 18
-2 -2 17 -114.997 133.069 29
-2 -2 16 3511.34 358.436 29
-2 -2 15 700.826 221.023 30
-2 -2 15 667.208 172.922 9
-2 -2 14 12708.1 854.848 30
-2 -2 14 14193.3 786.193 9
-2 -2 13 318.093 223.19 30
-2 -2 13 292.587 133.516 11
-2 -2 13 405.563 228.892 10
-2 -2 12 352.881 212.093 30
-2 -2 12 432.064 248.607 8
-2 -2 12 288.468 220.13 10
-2 -2 12 461.911 228.774 27
-2 -2 11 -18.0527 192.043 30
2 2 -11 180.517 213.346 16
-2 -2 11 160.308 191.368 27
-2 -2 11 79.5293 196.616 10
-2 -2 10 18074.1 1144.23 15
-2 -2 10 20454.8 1046.34 27
-2 -2 10 19831.3 1093.1 10
2 2 -10 18304.4 1363.93 16
-2 -2 9 13033.3 875.12 15
-2 -2 9 13169 833.775 8
-2 -2 9 14532.2 778.937 27
-2 -2 9 14049.2 973.66 24
-2 -2 8 12837.7 799.65 15
-2 -2 8 12840.3 703.892 27
-2 -2 8 14294 943.729 24
-2 -2 8 11944.4 751.722 8
-2 -2 7 68506.1 3160.15 24
2 2 -7 63063.7 3060.76 1
-2 -2 6 18174.5 1092.67 35
2 2 -6 18785.4 1084.4 1
-2 -2 5 125079 5532.63 35
2 2 -5 124048 5491.48 1
-2 -2 4 79984.8 3749.7 35
2 2 -4 83244.7 3709.4 1
-2 -2 3 184262 8278.49 35
2 2 -3 197999 8258.47 1
2 2 -2 80610.2 3660.95 1
-2 -2 1 242476 10417 35
-2 -2 0 45603.8 2293.39 35
2 2 0 47315.7 2245.87 1
-2 -2 -1 79363.6 3715.16 35
2 2 1 81377.3 3663.35 1
2 2 2 880.349 221.76 1
-2 -2 -2 1661.06 303.034 35
2 2 3 33123.7 1704.68 1
-2 -2 -3 33566.6 1752.48 35
2 2 4 16513.1 993.267 1
2 2 5 54599.4 2937.82 31
2 2 6 5557.18 568.029 23
2 2 6 4577.4 698.479 31
2 2 6 5575 548.379 21
2 2 6 6921.95 437.026 3
2 2 7 96183.7 5588.42 31
2 2 7 107666 5213.14 21
2 2 8 2651.77 596.921 31
2 2 8 3994.88 505.123 21
2 2 8 3824.44 394.654 30
2 2 9 56740.2 2648.03 30
2 2 9 58767.6 2813.64 21
2 2 9 54552 2618.94 20
2 2 10 1534.34 222.38 33
2 2 10 1622.38 277.659 20
2 2 10 1837.55 317.017 30
2 2 10 895.55 368.733 21
2 2 10 942.304 232.428 19
2 2 11 21970.6 1077.78 32
2 2 11 23012.7 1313.62 21
2 2 11 18263 1055.3 20
2 2 11 20388 1060.3 19
2 2 11 19799.1 1141.37 30
2 2 12 3396.22 318.587 32
2 2 12 2456 344.351 30
2 2 12 2448.43 268.29 19
2 2 13 3575.05 363.821 30
2 2 13 4336.1 339.193 32
2 2 14 79.8505 113.162 32
-2 -3 17 772.339 173.778 29
-2 -3 16 228.603 123.117 9
-2 -3 15 2271.86 256.416 9
-2 -3 14 49.312 219.69 27
-2 -3 13 4865.82 458.888 27
-2 -3 12 16661.1 937.9 27
-2 -3 12 18193.9 1026.95 8
-2 -3 11 329.072 200.191 27
-2 -3 11 362.357 242.358 8
2 3 -11 468.422 301.881 16
-2 -3 11 101.978 206.845 10
-2 -3 10 19115.5 1104.47 15
-2 -3 10 17860.1 967.155 27
-2 -3 10 17873.4 1027.66 8
-2 -3 10 14529.7 1142.12 24
2 3 -10 16430.4 1330.62 16
-2 -3 9 10340.3 751.561 15
-2 -3 9 10197.5 873.828 24
-2 -3 9 11612.3 666.688 27
-2 -3 9 10387.8 701.989 8
-2 -3 8 41531.1 1986.59 8
-2 -3 8 41888.6 2016.31 15
-2 -3 7 60690.3 3001.25 35
-2 -3 6 155418 6662.99 35
2 3 -6 141501 6587.51 1
2 3 -5 12517.9 899.743 1
-2 -3 5 13060.4 944.564 35
2 3 -4 104617 4693.29 1
-2 -3 4 99811.9 4723.97 35
2 3 -3 78429.6 3681.41 1
2 3 -2 35264.6 1861.32 1
-2 -3 2 34769.5 1921.72 35
-2 -3 1 3443.45 461.338 35
2 3 0 58091 2834.66 1
-2 -3 0 57994.6 2908.09 35
-2 -3 -1 5250.06 568.038 35
2 3 1 4958.51 515.973 1
2 3 2 79611.2 3831.96 1
-2 -3 -2 83809.5 3931.85 35
-2 -3 -3 30028 1741.75 35
2 3 4 166658 7197.86 21
2 3 5 1489.75 307.758 21
2 3 6 55671 2584.15 30
2 3 6 61489.2 2764.24 21
2 3 6 52738.7 3263.8 31
2 3 7 6164.7 917.841 31
2 3 7 6872.73 529.842 30
2 3 7 8537.14 684.03 21
2 3 8 29644.5 2307.25 31
2 3 8 31020 1635.33 30
2 3 8 33890.2 1697.68 20
2 3 8 33692.5 1633.88 19
2 3 9 2777.52 350.995 30
2 3 9 3045.81 482.273 21
2 3 9 3398.48 393.031 20
2 3 9 3134.81 335.698 19
2 3 10 5107.62 449.523 20
2 3 10 5452.56 431.245 19
2 3 11 2345.54 280.696 32
2 3 11 1954.01 268.38 20
2 3 11 1900.91 246.327 19
2 3 12 132.917 143.425 32
2 3 12 -128.997 194.256 18
2 3 13 587.033 137.25 32
2 3 13 367.193 164.405 18
-2 -4 16 7.98808 112.05 9
-2 -4 15 494.753 201.633 27
-2 -4 15 299.481 154.473 9
-2 -4 14 1116.33 263.12 27
-2 -4 14 848.87 246.04 10
-2 -4 13 2119.39 328.895 27
-2 -4 13 1951.16 328.65 10
-2 -4 12 2960.04 372.18 10
-2 -4 12 2762.6 360.433 27
-2 -4 12 2153.5 223.498 4
-2 -4 12 2484.49 377.894 8
2 4 -12 2328.27 511.892 16
2 4 -11 27361.4 1929.86 16
-2 -4 11 30133.3 1475.41 27
-2 -4 11 29270.7 1510.52 10
-2 -4 11 27421.4 1342.58 4
-2 -4 11 30096.1 1528.07 8
-2 -4 10 9402.84 624.264 27
2 4 -10 9579.25 1003.82 16
-2 -4 10 8554.42 843.506 24
-2 -4 10 8704.25 648.888 8
-2 -4 9 1956 297.092 8
-2 -4 9 2214.13 234.249 7
-2 -4 8 28037.9 1438.64 8
-2 -4 8 28816.2 1354.02 7
-2 -4 8 28772.8 1759.4 35
-2 -4 7 3658.98 368.81 8
2 4 -7 4637.35 319.234 2
-2 -4 7 5202.66 347.497 7
-2 -4 7 4280.21 587.113 35
-2 -4 6 8830.28 515.595 7
2 4 -6 8776.74 493.64 2
-2 -4 6 8431.66 835.34 35
-2 -4 5 25890.2 1646.98 35
2 4 -4 1227.51 324.459 1
-2 -4 4 1698.51 398.251 35
2 4 -3 10019.6 851.69 1
-2 -4 2 1925.56 448.039 35
2 4 -1 49785.7 2559.68 1
-2 -4 1 45108.9 2582.63 35
-2 -4 0 1936.46 435.743 35
-2 -4 -1 43396.8 2445.36 35
2 4 1 42673.3 1907.11 2
2 4 2 16001.1 797.167 2
-2 -4 -2 16148.3 1246.91 35
2 4 3 33733.3 1538.4 2
-2 -4 -3 35393.2 2078.57 35
2 4 4 287.256 206.439 21
2 4 5 2167.63 348.11 21
2 4 5 1718.47 259.818 19
2 4 5 1244.47 516.899 31
2 4 6 13545.4 893.879 21
2 4 6 13480.4 783.506 19
2 4 7 2406.31 409.047 21
2 4 7 2955.72 330.06 19
2 4 7 1891.18 600.628 31
2 4 8 250.54 220.969 20
2 4 9 240.754 203.198 20
2 4 9 28.0555 167.424 19
2 4 10 2814.45 306.355 20
2 4 10 3001.56 294.943 19
2 4 11 1685.61 212.36 20
2 4 11 2089.08 214.64 19
2 4 11 1484.57 245.032 18
2 4 12 17.617 123.12 18
-2 -5 16 302.922 118.796 9
-2 -5 15 256.101 165.926 27
-2 -5 14 181.647 174.428 10
-2 -5 14 155.468 193.395 27
-2 -5 13 3917.29 403.852 27
-2 -5 13 3764.79 391.677 10
-2 -5 12 59.0426 114.487 4
-2 -5 12 -165.876 200.728 10
-2 -5 12 66.9749 206.501 27
-2 -5 11 404.989 225.96 27
2 5 -11 118.887 253.571 16
-2 -5 11 264.697 209.986 10
-2 -5 11 537.147 224.777 8
-2 -5 10 2411.46 332.139 8
-2 -5 10 3151.89 349.262 27
-2 -5 10 2344.95 482.071 24
-2 -5 10 2614.18 277.525 7
2 5 -10 1985.17 484.758 16
2 5 -9 1555.26 439.607 16
-2 -5 9 1397 260.096 8
-2 -5 9 1384.64 211.144 7
-2 -5 9 2286.39 455.393 35
2 5 -8 286.772 130.104 2
-2 -5 8 548.191 294.594 35
-2 -5 8 278.973 143.065 7
-2 -5 8 226.153 166.785 8
-2 -5 7 1073.94 390.996 35
-2 -5 7 1247.16 198.926 7
2 5 -7 1639.88 202.289 2
2 5 -7 1178.87 397.649 16
-2 -5 6 1287.9 396.467 35
2 5 -6 1008.06 168.33 2
-2 -5 6 873.603 171.629 7
2 5 -6 1100.65 353.425 16
-2 -5 5 826.078 363.569 35
2 5 -5 1126.8 172.458 2
2 5 -5 1106.15 343.767 16
2 5 -4 5426.85 371.571 2
2 5 -4 4408.73 581.21 16
2 5 -3 36903 1696.64 2
2 5 -3 36921.1 2082.34 16
-2 -5 3 37387.5 2290.54 35
-2 -5 2 1283.74 423.997 35
2 5 -2 1709.59 333.457 16
2 5 -1 30415.4 1713.85 16
2 5 -1 30458.8 1436.21 2
-2 -5 1 32804.3 2075.94 35
2 5 0 6385.99 403.56 2
2 5 0 5593.27 396.03 19
-2 -5 0 5725.28 792.269 35
2 5 1 24962.2 1160.86 2
2 5 1 22462 1168.11 19
-2 -5 -1 25646.7 1789.05 35
2 5 2 6543.57 485.548 19
2 5 2 8077.7 465.266 2
-2 -5 -2 7379.33 893.713 35
2 5 3 384.528 172.727 19
-2 -5 -3 269.826 285.72 35
2 5 3 536.93 130.313 2
2 5 4 639.217 236.179 20
2 5 4 886.365 210.576 19
2 5 5 2545.47 701.384 31
2 5 5 2433.46 343.459 20
2 5 5 1965.6 281.878 19
2 5 6 761.973 255.372 20
2 5 6 703.128 219.947 19
2 5 7 2216.66 327.604 20
2 5 7 2193.27 287.472 19
2 5 7 1248.99 268.401 18
2 5 8 -114.442 172.578 19
2 5 8 137.719 168.604 18
2 5 9 1823.17 246.113 20
2 5 9 1183.69 218.212 18
2 5 10 397.913 142.206 20
2 5 10 200.732 121.236 18
2 5 11 435.125 101.521 32
-2 -6 15 1623.08 208.144 27
-2 -6 14 114.318 158.078 27
-2 -6 14 11.3985 132.632 10
-2 -6 13 4321.63 374.825 27
-2 -6 13 3578.92 342.982 10
-2 -6 12 379.11 181.182 10
-2 -6 12 235.596 189.203 27
-2 -6 12 177.586 118.292 4
-2 -6 11 342.13 198.383 27
-2 -6 11 355.065 185.406 10
-2 -6 10 49.0686 132.033 7
-2 -6 10 33.1949 159.294 10
2 6 -10 58.9436 241.211 16
-2 -6 9 2133.39 486.632 35
2 6 -9 3053.48 270.375 2
-2 -6 9 2848.12 292.107 7
-2 -6 8 3939.23 646.006 35
2 6 -8 4334.29 342.876 2
2 6 -8 4579.9 688.852 16
-2 -6 8 4531.64 373.049 7
2 6 -7 7642.08 490.89 2
2 6 -7 7688.93 885.338 16
-2 -6 7 6825.84 879.569 35
-2 -6 7 8079.54 522.188 7
-2 -6 6 27455.1 1321.57 7
2 6 -6 26173.8 1286.22 2
2 6 -6 26157.5 1780.11 16
-2 -6 6 25007.3 1865.13 35
-2 -6 5 13292.2 759.339 7
2 6 -5 15517.4 1199.65 16
2 6 -5 13467.2 739.04 2
2 6 -4 43534.5 1980.82 2
2 6 -4 41478.2 2417.79 16
2 6 -3 18920.2 1345.06 16
-2 -6 3 19927.9 1611.94 35
2 6 -2 8466.89 531.14 2
-2 -6 2 8686.06 1030.29 35
2 6 -1 54466.3 2453.62 2
-2 -6 1 55537.9 3245.54 35
2 6 0 7914.71 489.312 2
2 6 0 6496.9 505.922 20
2 6 0 7384.58 471.114 19
-2 -6 0 7656.98 973.969 35
2 6 1 27956.3 1273.89 2
2 6 1 24495.9 1323.52 20
2 6 1 25784.3 1276.48 19
-2 -6 -1 25218.4 1921.89 35
2 6 2 12559.1 684.737 2
2 6 2 12781.6 778.97 20
2 6 2 12801.8 725.186 19
-2 -6 -2 11252.9 1179.44 35
2 6 3 45.6824 110.183 2
2 6 3 276.542 204.236 20
2 6 3 202.344 166.445 19
2 6 4 276.263 204.438 20
2 6 4 380.854 178.739 19
2 6 5 344.734 203.66 20
2 6 5 196.629 167.832 19
2 6 6 23695.1 1249.32 20
2 6 6 25261 1218.12 19
2 6 7 -38.1513 165.262 20
2 6 7 -62.5233 143.041 19
2 6 8 12591.4 679.041 20
2 6 9 1016 134.116 32
-2 -7 15 97.5382 91.277 27
-2 -7 15 83.1181 78.378 9
-2 -7 14 1530.19 194.562 27
-2 -7 13 295.313 151.711 27
-2 -7 13 58.2168 101.292 10
-2 -7 12 878.98 197.177 27
-2 -7 12 511.198 144.504 10
-2 -7 11 1029.29 216.494 27
-2 -7 11 565.805 165.421 10
2 7 -10 4058.91 294.055 2
-2 -7 10 4310.02 333.531 7
-2 -7 10 5062.06 387.934 27
2 7 -9 7352.47 473.358 2
-2 -7 9 8407.14 515.289 7
2 7 -8 11122.5 646.473 2
-2 -7 8 11780.6 679.164 7
2 7 -7 16076.4 848.155 2
-2 -7 7 15690.1 869.325 7
-2 -7 6 33589.9 1587.21 7
2 7 -6 33905.8 1566.43 2
2 7 -6 28572.9 2002.91 16
-2 -7 6 29912.6 2172.75 35
2 7 -5 7425.91 485.224 2
2 7 -5 6392.26 752.516 16
-2 -7 5 6176.98 876.686 35
2 7 -4 33948.8 1579.71 2
-2 -7 4 29020.6 2188.65 35
-2 -7 3 7702.06 983.657 35
2 7 -2 17749.2 931.209 2
-2 -7 2 17339.3 1560.61 35
-2 -7 1 1468.92 474.825 35
2 7 -1 856.701 185.73 2
2 7 0 4736.62 363.662 2
2 7 0 4755.91 377.156 20
2 7 1 7793.93 470.767 2
2 7 1 6859.72 492.55 20
-2 -7 -2 378.313 144.172 36
2 7 2 238.282 160.009 20
2 7 3 21948.8 1114.02 20
2 7 4 95.5303 157.761 20
2 7 5 24466.2 1180.95 20
2 7 6 3395.64 269.981 20
2 7 7 8887.81 445.21 17
2 7 7 8775.36 459.94 20
-2 -8 13 321.262 100.687 27
-2 -8 12 982.251 151.59 27
-2 -8 11 4135.03 299.625 27
-2 -8 11 3785.8 263.581 4
2 8 -10 1086.03 141.058 2
-2 -8 10 1268.44 184.351 27
2 8 -9 7332.86 443.247 2
-2 -8 9 8211.65 480.968 27
-2 -8 9 7711.52 467.799 7
-2 -8 8 858.837 174.111 7
2 8 -8 504.073 144.721 2
-2 -8 8 869.296 162.472 36
2 8 -7 10356.5 593.371 2
-2 -8 7 10500.6 607.984 7
2 8 -6 246.638 149.694 2
2 8 -5 5529.04 397.605 2
-2 -8 4 936.274 205.284 7
-2 -8 3 353.029 178.119 7
2 8 -3 463.728 159.019 2
-2 -8 2 2215.6 266.131 7
2 8 -2 2307.39 238.231 2
-2 -8 1 426.607 162.376 7
2 8 -1 425.878 139.935 2
-2 -8 1 204.174 146.926 36
-2 -8 0 11558.8 628.723 7
2 8 0 9817.85 566.425 2
-2 -8 0 11264 595.191 36
-2 -8 -1 3220.5 273.894 7
-2 -8 -1 2589.65 221.012 36
-2 -8 -2 7171.55 430.123 7
2 8 3 942.708 121.082 20
2 8 3 952.067 109.43 17
-2 -8 -4 2007.43 146.016 7
-2 -9 10 107.082 71.1551 4
-2 -9 9 665.746 91.2711 6
-2 -9 8 -45.4464 85.7664 7
2 9 -7 13.4361 93.5699 2
-2 -9 7 37.9769 93.0933 36
2 9 -6 1821.71 183.495 2
-2 -9 5 7.77285 99.7418 7
2 9 -5 -29.6923 100.364 2
-2 -9 5 21.6448 104.384 36
-2 -9 4 217.085 110.508 7
-2 -9 4 122.06 112.422 36
-2 -9 3 314.423 114.471 7
-2 -9 3 460.699 121.142 36
2 9 -3 272.215 107.883 2
-2 -9 2 430.103 107.753 36
-2 -9 2 417.008 115.397 7
-2 -9 1 799.623 125.132 7
-2 -9 1 740.619 103.221 36
-2 -9 0 1986.98 162.248 7
-3 10 -1 415.702 97.105 14
-3 10 -2 13.6118 83.9391 14
-3 10 -3 1988.25 182.038 14
-3 10 -4 133.101 86.2432 14
3 -10 4 105.619 48.3439 6
-3 10 -5 2567.63 193.296 14
3 -10 5 2349.07 162.753 6
-3 10 -5 2467.39 280.212 13
-3 10 -6 158.622 181.184 13
3 -10 6 377.916 80.6415 6
-3 10 -6 359.87 80.042 14
3 -10 7 1861.94 147.964 6
3 -10 8 452.351 83.5495 6
3 -10 9 1337.17 112.185 6
-3 9 2 26.1941 104.175 14
-3 9 1 559.633 149.063 14
-3 9 1 585.66 244.023 13
-3 9 0 -18.8111 216.588 13
-3 9 -1 583.03 159.065 14
-3 9 -1 693.334 276.862 13
-3 9 -2 8100.23 516.156 14
-3 9 -2 8067.78 647.721 13
-3 9 -3 4103.36 330.02 14
3 -9 3 3728.54 262.637 6
3 -9 4 82.3108 95.6899 6
-3 9 -4 113.474 129.326 14
-3 9 -5 4950.79 348.367 14
3 -9 5 4185.33 297.08 6
3 -9 6 498.501 109.721 4
-3 9 -6 512.195 138.223 14
3 -9 6 676.026 130.693 6
3 -9 7 8560.76 438.603 6
3 -9 7 6396.73 394.605 4
3 -9 8 26.1453 91.0611 4
3 -9 8 88.1392 96.2538 6
3 -9 9 61.1653 85.7213 6
3 -9 9 -18.7268 82.7755 4
3 -9 10 535.163 105.443 4
3 -9 11 606.86 95.483 6
3 -9 11 462.971 93.4734 4
3 -9 12 79.6786 51.2673 6
-3 8 5 429.711 121.734 17
-3 8 5 491.45 235.336 13
-3 8 4 663.64 155.087 14
-3 8 4 598.036 143.734 17
-3 8 3 135.849 266.364 13
-3 8 3 246.51 133.874 17
-3 8 3 359.585 154.043 14
-3 8 2 1650.68 220.012 17
-3 8 2 1718.84 243.73 14
-3 8 2 2335.97 413.249 13
-3 8 1 291.381 295.394 13
-3 8 1 249.846 145.09 17
-3 8 0 10453 643.781 14
-3 8 0 10950 833.65 13
-3 8 0 9135.94 583.609 17
-3 8 -1 7547 552.108 14
-3 8 -1 8419.28 522.741 17
-3 8 -2 24906.7 1277.1 14
3 -8 2 23323.4 1171.13 6
-3 8 -3 2584.75 297.932 14
3 -8 3 2367.51 231.307 6
-3 8 -4 7208.96 508.024 14
3 -8 4 7629.47 461.117 6
-3 8 -5 5309.7 395.917 14
3 -8 5 5468.42 359.359 6
-3 8 -6 344.387 141.226 14
3 -8 6 150.701 121.449 6
3 -8 6 259.905 120.538 4
3 -8 7 12969.8 659.987 6
3 -8 7 10891.2 629.738 4
3 -8 8 13653.1 708.928 6
3 -8 8 12629.1 690.797 4
3 -8 9 574.229 149.835 4
3 -8 10 349.057 131.571 4
3 -8 11 139.223 114.158 4
3 -8 11 97.1708 101.942 6
3 -8 12 1251.02 161.047 4
3 -8 12 1510.24 150.529 6
3 -8 13 120.825 78.389 11
-3 7 8 3746.29 261.129 17
-3 7 7 -18.0745 109.395 17
-3 7 7 -19.6946 246.215 13
-3 7 6 3286.52 295.474 17
-3 7 6 3646.03 476.228 13
-3 7 5 394.532 317.174 13
-3 7 5 972.985 187.768 14
-3 7 4 4117.77 358.799 17
-3 7 4 4195.06 374.985 14
-3 7 4 4920.76 571.717 13
-3 7 3 42875.8 1999.8 17
-3 7 3 42259.7 2024.45 14
-3 7 3 44074.8 2253.55 13
3 -7 -2 11103.3 1149.56 34
-3 7 2 12916.5 784.355 14
-3 7 2 12900.6 978.137 13
-3 7 2 13698.8 764.233 17
3 -7 -1 8790.9 1037.19 34
-3 7 1 8225.51 669.852 15
-3 7 1 9897.33 614.855 17
3 -7 0 57905.4 3347.88 34
-3 7 0 54634.7 2603.63 14
-3 7 0 58379.2 2581.79 17
3 -7 1 8799.41 1038.87 34
3 -7 1 8139.02 483.62 6
-3 7 -1 8319.83 571.175 14
-3 7 -1 8321.48 1006.39 22
-3 7 -1 9137.39 565.848 17
3 -7 2 11121.6 1169.3 34
3 -7 2 9463.5 550.588 6
-3 7 -2 10349 613.664 17
3 -7 3 12025.2 1244.17 34
3 -7 3 11499.1 643.716 6
-3 7 -3 12257.4 691.582 17
-3 7 -3 13068.5 1266.51 22
3 -7 4 19450.9 973.413 6
-3 7 -4 20377.7 1637.95 22
3 -7 5 8786.21 1023.3 34
3 -7 5 7457.02 472.271 6
-3 7 -5 7925.38 985.883 22
-3 7 -5 7582.1 511.743 14
3 -7 6 380.723 318.079 34
-3 7 -6 193.664 132.231 14
3 -7 6 86.0281 122.664 6
3 -7 6 146.219 121.674 4
3 -7 7 7268.87 455.27 6
3 -7 7 6449.46 440.839 4
3 -7 8 3981.59 634.181 34
3 -7 8 3952.33 313.543 6
3 -7 8 2945.35 293.452 4
3 -7 9 10968 634.229 4
3 -7 10 1789.87 217.872 6
3 -7 10 1825.46 231.238 4
3 -7 11 14862.6 763.852 6
3 -7 11 14662.5 785.03 4
3 -7 12 -88.3965 132.822 4
3 -7 12 -48.4044 99.9849 6
3 -7 13 1161.85 171.486 4
3 -7 14 2406.95 197.696 11
3 -7 15 996.955 104.885 11
-3 6 10 275.012 222.071 13
-3 6 9 2397.66 391.135 13
-3 6 9 2674.35 230.132 17
-3 6 8 1334.04 190.685 17
-3 6 8 1278.24 373.348 13
-3 6 8 1207.94 313.562 12
-3 6 8 1101.13 241.572 18
-3 6 7 17109 907.076 17
-3 6 7 17795.2 1147.93 13
-3 6 7 16228.3 1093.15 12
-3 6 7 17850.1 988.22 18
-3 6 6 8140.57 541.886 17
-3 6 6 8674.83 777.385 13
-3 6 6 8588.98 544.771 14
-3 6 6 8288.03 747.143 12
-3 6 6 8110.23 596.475 18
-3 6 5 4101.66 454.408 15
-3 6 5 5229.02 614.451 13
-3 6 5 4803.61 444.047 18
-3 6 5 4013.72 841.952 31
-3 6 5 5045.15 400.567 17
-3 6 5 5143.12 409.367 14
-3 6 4 10398.1 1293.68 31
-3 6 4 13765.2 773.228 14
-3 6 4 13190.4 971.897 13
-3 6 4 11512.7 830.322 15
-3 6 4 13012 794.076 18
-3 6 3 61508.7 2729.83 14
3 -6 -3 60607.1 3306.78 34
-3 6 3 51313.1 3441.53 31
-3 6 3 56036.6 2811.03 15
-3 6 3 63742.2 2982.69 13
-3 6 3 59708.7 2696.94 17
-3 6 2 2088.44 549.821 31
-3 6 2 2997.61 407.938 15
-3 6 2 2481.54 294.1 14
3 -6 -2 2598.55 560.329 34
-3 6 2 2644.4 290.355 17
-3 6 1 28296.8 1338.7 17
3 -6 -1 27839.8 1927.16 34
-3 6 0 1398.54 219.39 17
3 -6 0 1796.85 483.439 34
-3 6 0 880.483 383.556 31
-3 6 0 2033.82 484.069 22
3 -6 1 5647.08 796.037 34
-3 6 -1 5943.93 425.198 17
3 -6 1 5536.54 359.771 6
-3 6 -1 5247.52 749.739 22
3 -6 2 1504.14 173.435 6
-3 6 -2 1944.06 239.039 17
-3 6 -3 5921.37 414.497 17
-3 6 -3 5024.45 769.501 22
3 -6 3 5674.03 368.867 6
3 -6 4 43668.9 2029.46 6
-3 6 -4 48282 2766.55 22
3 -6 5 5913.1 796.429 34
-3 6 -5 4695.98 374.477 14
-3 6 -5 5179.09 766.396 22
3 -6 5 5203.39 357.603 6
3 -6 6 17174.3 1355.14 34
3 -6 6 15386.8 782.509 6
3 -6 6 14602.8 1194.45 23
3 -6 6 13803.7 767.483 4
3 -6 7 16573 840.672 6
3 -6 7 16829.2 1373.69 34
3 -6 7 14523.3 1262.67 23
3 -6 7 15549.3 833.836 4
3 -6 8 11110 1102.53 34
3 -6 8 13231.3 1215.21 23
3 -6 8 13753.7 739.499 4
3 -6 9 21666.5 1034.8 6
3 -6 9 20124.2 1043.47 4
3 -6 10 365.215 141.132 6
3 -6 10 61.6401 241.69 23
3 -6 10 140.097 158.085 4
3 -6 11 719.091 169.417 33
3 -6 11 1049.29 175.514 6
3 -6 11 1308.71 223.619 4
3 -6 12 21.9584 121.003 33
3 -6 12 83.9309 106.272 6
3 -6 12 94.8938 140.846 4
3 -6 13 105.491 132.777 4
3 -6 13 280.035 98.2418 9
3 -6 14 111.37 122.25 11
3 -6 15 94.6264 101.798 11
3 -6 16 473.501 78.7508 11
-3 5 11 2426.19 402.833 13
-3 5 11 2373.12 312.449 18
-3 5 10 3268.83 427.034 12
-3 5 10 3706.19 380.382 18
-3 5 10 2999.86 464.668 13
-3 5 9 541.701 243.905 18
-3 5 9 397.839 352.739 13
-3 5 9 318.322 312.19 12
-3 5 9 590.827 154.336 17
-3 5 8 4975.66 609.077 13
-3 5 8 5172.6 394.183 17
-3 5 8 5305.17 631.678 12
-3 5 8 5561.66 497.003 18
-3 5 7 6624.14 702.163 12
-3 5 7 6365.85 1088.43 31
-3 5 7 7340.48 730.462 13
-3 5 7 7002.61 612.782 15
-3 5 7 7539.01 594.986 18
-3 5 7 6858.21 481.138 17
-3 5 6 30394.3 2496.07 31
-3 5 6 33966.5 1648.77 14
-3 5 6 34528.8 1800.95 15
-3 5 6 34713.6 1652.81 17
-3 5 6 36217 1771.38 18
-3 5 5 662.187 437.382 31
-3 5 5 140.83 148.16 14
-3 5 5 213.061 256.475 15
-3 5 5 497.511 221.973 18
-3 5 5 148.754 144.959 17
3 -5 -4 848.684 326.728 34
-3 5 4 892.448 431.874 31
-3 5 4 722.642 291.016 15
-3 5 4 863.84 193.851 14
-3 5 4 859.805 234.321 18
-3 5 4 934.094 193.671 17
3 -5 -3 643.858 315.657 34
-3 5 3 66.0605 302.85 31
-3 5 3 384.566 261.173 15
-3 5 3 540.622 154.35 14
-3 5 3 521.719 201.16 18
-3 5 2 577.552 354.631 31
-3 5 2 181.885 132.344 14
-3 5 2 144.525 165.631 18
-3 5 2 270.959 136.796 17
-3 5 1 3168.45 291.267 17
-3 5 1 2505.89 504.536 31
-3 5 1 3425.36 558.368 22
-3 5 0 32816.6 1997.33 22
-3 5 0 32289.3 1484.63 17
-3 5 -1 25895.3 1680.97 31
-3 5 -1 31187.2 1395.27 17
3 -5 1 28150.5 1309.32 6
-3 5 -2 177.001 121.978 17
3 -5 2 119.221 83.6318 6
-3 5 -2 -97.5673 299.477 22
3 -5 3 9417.41 769.395 23
3 -5 3 9924.7 541.06 6
-3 5 -3 11764.2 1034.92 22
-3 5 -3 10274.2 586.857 17
3 -5 4 87590.2 3771.25 6
3 -5 4 86686.1 4178.42 23
-3 5 -4 90758.3 4465.4 22
3 -5 5 309.076 108.219 6
3 -5 5 657.734 262.888 23
-3 5 -5 104.243 238.832 22
3 -5 6 19738.8 964.433 6
3 -5 6 20338.1 1411.88 23
3 -5 6 19177.3 965.46 4
3 -5 7 13812.9 1126.47 34
3 -5 7 11500.7 1059.24 23
3 -5 7 12711.1 691.228 4
3 -5 7 12478.4 710.916 37
3 -5 8 19101.4 1432.61 34
3 -5 8 22309.3 1046.67 6
3 -5 8 22513.2 1096.66 37
3 -5 8 20126.7 1532.76 23
3 -5 8 18947.8 1041.28 4
3 -5 9 2963.84 294.237 33
3 -5 9 3589.52 291.327 6
3 -5 9 2687.73 553.35 23
3 -5 9 3344.43 314.198 4
3 -5 9 2303.29 295.619 37
3 -5 10 227.965 147.033 33
3 -5 10 33.4111 117.835 6
3 -5 10 625.86 369.713 23
3 -5 10 192.964 122.505 9
3 -5 10 119.72 154.088 4
3 -5 10 143.136 153.905 37
3 -5 11 362.64 172.511 33
3 -5 11 442.978 185.341 37
3 -5 11 302.942 128.471 6
3 -5 11 64.6145 264.731 23
3 -5 11 363.251 126.604 5
3 -5 11 315.278 141.603 9
3 -5 11 256.99 166.558 4
3 -5 12 1076.49 210.494 33
3 -5 12 1014.26 164.587 6
3 -5 12 789.865 164.067 9
3 -5 12 944.021 206.824 4
3 -5 13 90.0525 145.783 33
3 -5 13 -22.5698 150.839 11
3 -5 13 85.0744 119.77 9
3 -5 14 1313.53 215.653 30
3 -5 14 1575.41 213.178 11
3 -5 14 1547.84 217.153 33
3 -5 14 1473.59 185.775 9
3 -5 15 1462.79 181.288 11
3 -5 16 95.2595 87.3338 11
-3 4 12 4566.87 559.541 13
-3 4 12 5739.75 497.163 18
-3 4 11 1026.19 380.851 13
-3 4 11 1643.35 369.145 12
-3 4 11 1839.65 323.238 18
-3 4 11 1208.78 330.422 30
-3 4 10 1747.12 329.604 15
-3 4 10 1519.5 374.02 30
-3 4 10 1698.91 438.842 12
-3 4 10 1683.08 333.623 18
-3 4 9 882.307 175.068 17
-3 4 9 801.105 320.957 30
-3 4 9 1114.91 423.531 12
-3 4 9 1390.8 317.645 18
-3 4 9 765.135 305.39 15
-3 4 8 21587.9 1390.8 30
-3 4 8 26124.3 1561.77 12
-3 4 8 24994.2 1222.48 17
-3 4 8 21262.1 2086.84 31
-3 4 8 27525.8 1410.67 18
-3 4 8 24483.1 1410.28 15
-3 4 7 10521.8 806.345 15
-3 4 7 11127.5 1375.68 31
-3 4 7 11862 666.833 17
-3 4 7 11531.5 791.345 18
-3 4 7 10562.9 816.231 30
-3 4 6 18480.6 1130.45 15
-3 4 6 18782.9 1142.59 30
-3 4 6 18203.8 964.063 14
-3 4 6 19648.9 1205.48 13
-3 4 6 17145.3 1667.13 31
-3 4 6 19493 1103.14 18
-3 4 6 19088.6 975.514 17
-3 4 5 349.849 138.797 14
-3 4 5 141.544 364.654 31
-3 4 5 477.483 262.126 15
-3 4 5 281.008 258.175 13
-3 4 5 329.668 181.867 20
-3 4 5 385.049 248.478 30
-3 4 5 209.252 205.152 18
-3 4 5 306.957 135.142 17
-3 4 4 1043.55 418.265 31
-3 4 4 888.525 172.236 14
-3 4 4 942.344 279.696 15
-3 4 4 739.332 264.415 30
-3 4 4 659.549 305.875 13
-3 4 4 934.282 205.9 20
-3 4 4 1089.7 240.605 18
-3 4 4 948.017 169.688 17
-3 4 3 -105.468 298.78 31
-3 4 3 87.2218 226.068 13
-3 4 3 230.614 116.825 14
-3 4 3 81.3041 163.044 18
-3 4 3 43.223 112.086 17
-3 4 2 5158.81 696.325 31
-3 4 2 5801.6 388.322 14
-3 4 1 14706.6 1115.96 31
-3 4 0 23592.4 1452.92 31
-3 4 0 25426.1 1577.95 22
-3 4 -1 41775.1 2204.68 31
3 -4 1 46758.8 2165.75 23
3 -4 2 64432.2 3078.43 23
-3 4 -2 66522.9 3336.71 22
3 -4 3 52442.4 2629.77 23
-3 4 -3 54162.6 2834.59 22
3 -4 4 33073.7 1843.44 23
3 -4 5 22047 1048.4 6
3 -4 5 23551.8 1439.11 23
3 -4 6 58830.6 2569.6 37
3 -4 6 56178 2987.44 23
3 -4 6 57182 2535.69 4
3 -4 7 63.6824 97.3539 6
3 -4 7 89.6355 242.629 23
3 -4 7 -12.2295 114.698 37
3 -4 7 150.626 121.002 4
3 -4 8 32315.5 2013.93 34
3 -4 8 37074 1756.14 37
3 -4 8 37086.1 1690.34 6
3 -4 8 34142.4 2193.6 23
3 -4 8 38827.9 1720.93 4
3 -4 9 7032.71 444.534 6
3 -4 9 6296.29 824.334 23
3 -4 9 8111.49 493.34 4
3 -4 9 5849.95 430.169 9
3 -4 9 7506.03 518.911 37
3 -4 10 1601.61 262.396 37
3 -4 10 1253.32 190.153 6
3 -4 10 728.08 355.387 23
3 -4 10 1381.46 193.835 5
3 -4 10 1311.35 204.231 9
3 -4 10 1422.87 230.444 4
3 -4 11 105.731 113.788 6
3 -4 11 -56.9347 111.532 5
3 -4 11 -95.4904 147.211 9
3 -4 11 -35.3776 167.165 37
3 -4 11 68.9955 158.042 4
3 -4 12 462.299 192.211 33
3 -4 12 346.368 122.02 6
3 -4 12 193.958 296.068 23
3 -4 12 299.728 173.269 11
3 -4 12 220.11 108.461 5
3 -4 12 323.31 163.629 9
3 -4 12 408.342 214.259 37
3 -4 13 7030.23 492.17 33
3 -4 13 6858.68 472.6 11
3 -4 13 5957.55 434.64 9
3 -4 14 207.517 165.78 33
3 -4 14 -90.8347 174.363 30
3 -4 14 223.546 157.121 11
3 -4 15 2826.93 273.671 33
3 -4 15 2582.56 284.968 30
3 -4 15 3464.32 271.387 11
3 -4 16 339.689 114.451 30
-3 3 13 9200.02 608.177 18
-3 3 12 5622.79 533.299 15
-3 3 12 5530.33 500.612 18
-3 3 11 16911.1 1080.81 15
-3 3 10 3613.7 551.754 13
-3 3 10 3054.36 464.392 15
-3 3 9 6624.75 624.451 15
-3 3 9 5712.64 532.896 29
-3 3 9 6583.29 663.738 13
-3 3 9 5548.65 395.361 17
-3 3 8 10104.3 742.915 15
-3 3 8 9163.05 663.458 29
-3 3 8 8123.79 737.509 13
-3 3 8 8058.81 518.396 17
-3 3 8 8921.74 678.132 18
-3 3 7 24348.8 1375.77 15
-3 3 7 25011.7 1992.49 31
-3 3 7 23335.4 1310.1 29
-3 3 7 25548.5 1431.67 13
-3 3 7 26639.5 1362.86 18
-3 3 7 23739.2 1181.79 17
-3 3 6 135.981 368.085 31
-3 3 6 285.309 264.429 15
-3 3 6 68.7886 199.096 29
-3 3 6 -99.7664 270.074 26
-3 3 6 69.9616 228.879 13
-3 3 6 114.032 108.94 14
-3 3 6 18.9298 191.111 18
-3 3 6 183.652 111.864 17
-3 3 5 30103.5 2042.06 31
-3 3 5 28950.9 1557.08 30
-3 3 5 29247.9 1488.34 29
-3 3 5 29668.4 1898.68 26
-3 3 5 32133.2 1588.27 15
-3 3 5 30626.8 1579.53 13
-3 3 5 29684.1 1406.39 17
-3 3 5 32312.6 1539.39 18
-3 3 5 29847.9 1408.79 14
-3 3 4 19277.2 1100.38 30
-3 3 4 20965.9 1433.34 26
-3 3 4 19039.4 1447.4 31
-3 3 3 90120 4526.6 31
-3 3 3 98028.6 4573.44 26
-3 3 2 14190.4 1045.05 31
-3 3 1 139267 6331.63 31
-3 3 1 146390 6496.71 26
-3 3 0 16644.9 1010.71 31
-3 3 0 17560.7 1181.58 26
-3 3 -1 262207 11252.2 31
-3 3 -1 279275 11609.4 26
-3 3 -2 3758.54 482.514 26
-3 3 -3 120155 5470.04 26
3 -3 4 25094.3 1467.05 23
3 -3 5 78088.8 3757.05 23
3 -3 6 559.033 293.393 23
3 -3 6 716.658 156.8 37
3 -3 7 32894.2 1514.51 6
3 -3 7 33421.3 1986.35 23
3 -3 7 34176.8 1538.87 4
3 -3 7 32791.7 1577.37 37
3 -3 8 12600 668.454 6
3 -3 8 13315.8 1106.52 23
3 -3 8 13254.5 702.772 4
3 -3 8 11557.8 669.599 9
3 -3 8 14143.2 758.705 37
3 -3 9 12227.3 670.5 32
3 -3 9 12362.4 753.219 37
3 -3 9 12265.7 662.187 6
3 -3 9 12404 661.511 5
3 -3 9 12847.6 709.138 4
3 -3 9 12422.6 686.63 9
3 -3 10 20746.6 1055.54 32
3 -3 10 21503.6 1048.33 6
3 -3 10 20082.1 1194.81 21
3 -3 10 19831.5 1591.05 23
3 -3 10 20991.3 1039.55 5
3 -3 10 21877.6 1101.25 4
3 -3 10 22135.2 1082.75 9
3 -3 10 22756.6 1177.15 37
3 -3 11 3836.62 296.463 6
3 -3 11 3128.51 623.303 23
3 -3 11 3488.68 289.62 5
3 -3 11 3933.83 359.157 11
3 -3 11 3080.59 395.658 21
3 -3 11 3634.96 333.473 9
3 -3 11 3861.37 401.349 37
3 -3 12 4741.69 339.631 6
3 -3 12 4355.28 731.663 23
3 -3 12 5811.32 431.848 11
3 -3 12 5482.36 413.364 9
3 -3 12 4872.89 339.019 5
3 -3 12 4752.17 451.59 37
3 -3 13 5446.69 456.072 33
3 -3 13 6478.3 450.179 11
3 -3 13 5283.29 422.542 9
3 -3 14 5480.43 435.73 33
3 -3 14 6043.96 420.859 11
3 -3 14 5162.85 472.106 30
3 -3 15 1815.02 233.405 33
3 -3 15 1417.44 257.814 30
3 -3 15 2149.24 229.036 11
3 -3 16 599.102 161.391 30
-3 2 14 8362.11 616.526 30
-3 2 14 6985.32 500.827 18
-3 2 13 7929.54 681.02 15
-3 2 13 7103.75 595.102 18
-3 2 12 4621.55 569.284 15
-3 2 12 5622.82 593.915 30
-3 2 12 4783.75 652.575 13
-3 2 12 4739.8 589.667 12
-3 2 12 5372.89 506.736 18
-3 2 11 2150.68 448.759 15
-3 2 11 3282.59 476.525 30
-3 2 11 2411.04 373.442 29
-3 2 11 2367.65 507.87 13
-3 2 11 2490.05 492.452 12
-3 2 11 3044.87 401.159 18
-3 2 10 2827.85 451.452 15
-3 2 10 3131.71 470.089 30
-3 2 10 2228.92 368.408 29
-3 2 10 2294.38 469.093 12
-3 2 10 3013.42 506.257 13
-3 2 10 3659.11 432.695 18
-3 2 9 795.249 332.163 15
-3 2 9 1106.57 367.066 13
-3 2 9 924.373 318.331 30
-3 2 9 747.839 267.843 29
-3 2 9 647.128 383.596 12
-3 2 9 636.316 249.376 18
-3 2 8 47680.5 2304.25 30
-3 2 8 48793.4 2231.41 29
-3 2 8 49603.7 2350.01 13
-3 2 8 43122 2082.56 28
-3 2 8 47334.8 2304.77 15
-3 2 8 45638 2369.36 12
-3 2 8 41041.7 2534.64 26
-3 2 8 49350.8 2265.71 18
-3 2 7 171.841 243.448 15
-3 2 7 128.052 239.241 30
-3 2 7 194.101 177.288 29
-3 2 7 70.2816 115.133 28
-3 2 7 88.8584 227.333 13
-3 2 7 220.984 239.321 26
-3 2 7 243.04 197.614 18
-3 2 6 102306 4637.32 15
-3 2 6 106598 5269.89 31
-3 2 6 101438 4639.7 30
-3 2 6 108123 4569.36 29
-3 2 6 104145 4482.22 28
-3 2 6 103872 4644.6 13
-3 2 6 108407 5019.81 26
-3 2 5 30101.8 1742.58 26
-3 2 5 26401.8 1808.1 31
3 -2 -5 26448.5 1415.23 1
-3 2 4 160965 7048.01 26
-3 2 4 157530 6885.46 25
-3 2 4 146960 7095.97 31
-3 2 3 14102.7 1068.25 31
-3 2 3 14794.3 1067.47 26
-3 2 3 16145.4 1007.92 25
-3 2 2 250409 10938.8 31
-3 2 2 255819 10897.9 25
-3 2 1 561.317 289.972 26
-3 2 1 568.82 253.059 25
-3 2 0 87590.7 4058.57 26
-3 2 -1 249.439 216.731 26
-3 2 -1 208.016 189.391 25
-3 2 -2 82647.6 3888.07 26
-3 2 -2 86708.7 3896.52 25
-3 2 -3 43866.2 2212.12 26
-3 2 -3 46000.8 2241.93 25
-3 2 -4 23494.5 1349.51 26
-3 2 -4 27208 1430.37 25
-3 2 -5 27234.8 1504.49 25
3 -2 6 83508.4 4053.91 23
3 -2 6 86575.2 3664.52 37
3 -2 6 79923.7 3805.51 1
3 -2 7 17276.3 855.568 6
3 -2 7 16558.9 1003.1 1
3 -2 7 18206.5 884.305 4
3 -2 7 17310.4 870.161 9
3 -2 7 19288.5 947.134 37
3 -2 8 63058.1 2639.04 6
3 -2 8 68347 3276.38 23
3 -2 8 65683.7 2642.76 5
3 -2 8 64945.2 2672.09 9
3 -2 8 69546.1 2761.79 37
3 -2 9 4342.38 325.845 32
3 -2 9 3678.88 282.063 6
3 -2 9 3393.16 589.032 23
3 -2 9 3512.54 316.07 11
3 -2 9 3848.65 297.458 5
3 -2 9 3374.43 314.146 9
3 -2 10 9711.2 545.761 6
3 -2 10 6579.97 902.156 23
3 -2 10 9509.89 573.231 32
3 -2 10 9763.03 551.385 5
3 -2 10 10862.3 609.382 11
3 -2 10 7645.69 701.886 21
3 -2 10 9981.06 602.789 9
3 -2 11 64.7103 98.9427 6
3 -2 11 -60.4284 247.302 23
3 -2 11 131.597 167.463 11
3 -2 11 -24.4306 244.905 21
3 -2 11 164.221 171.117 9
3 -2 11 94.3875 187.931 37
3 -2 11 94.1868 145.903 32
3 -2 12 2045.88 234.119 3
3 -2 12 1891.21 248.186 32
3 -2 12 1702.88 466.44 23
3 -2 12 2276.13 291.66 11
3 -2 12 1553.23 338.276 21
3 -2 12 1443.65 283.739 37
3 -2 13 3419.43 316.642 32
3 -2 13 3595.6 431.82 30
3 -2 13 4103.79 355.575 11
3 -2 13 3286.5 407.699 21
3 -2 13 3433.97 378.869 37
3 -2 14 162.876 211.741 30
3 -2 15 138.188 134.231 33
3 -2 15 199.601 192.875 30
3 -2 16 211.612 139.436 30
-3 1 15 -16.2156 200.903 30
-3 1 14 15193.4 783.172 15
-3 1 14 1410.52 363.698 30
-3 1 13 3578.28 510.56 15
-3 1 13 2493.29 433.788 30
-3 1 13 2257.93 382.488 29
-3 1 13 2619.93 351.329 18
-3 1 12 1639.75 417.61 15
-3 1 12 1602.34 401.798 30
-3 1 12 1667.99 334.262 29
-3 1 12 1184.36 428.866 13
-3 1 12 2001.81 406.769 12
-3 1 12 1991.97 336.726 18
-3 1 11 3710.47 553.723 15
-3 1 11 4978.44 568.816 30
-3 1 11 4590.78 474.13 29
-3 1 11 4458.93 573.807 12
-3 1 11 4301.55 458.391 18
-3 1 11 4518.75 437.231 8
-3 1 11 4358.5 607.812 13
-3 1 10 151.401 128.129 28
-3 1 10 184.027 194.689 8
-3 1 10 156.349 288.932 15
-3 1 10 280.964 264.948 30
-3 1 10 140.523 214.966 29
-3 1 10 173.307 341.351 13
-3 1 10 -30.6736 318.109 12
-3 1 10 393.794 153.338 10
-3 1 10 581.949 234.417 18
-3 1 9 40126.5 1983.88 30
-3 1 9 39974 2026.7 13
-3 1 9 37257.7 1773.31 28
-3 1 9 38299.8 1894.71 29
-3 1 9 36865.2 2023.5 12
-3 1 9 37852.9 1808.6 10
-3 1 9 42346.5 1939.63 18
-3 1 9 38383.5 1883.3 8
-3 1 8 296.855 234.046 30
-3 1 8 318.131 198.456 29
-3 1 8 504.85 151.512 28
-3 1 8 316.666 262.167 13
-3 1 8 368.257 246.855 26
-3 1 8 204.263 258.077 12
-3 1 8 330.503 147.411 10
-3 1 8 306.585 198.053 18
-3 1 8 235.268 173.619 8
-3 1 7 48226.1 2454.47 30
-3 1 7 53419.3 2405.65 29
-3 1 7 53138.3 2329.31 28
-3 1 7 51061.7 2485.36 13
-3 1 7 53025.7 2791.77 26
-3 1 7 54794.9 2447.96 18
3 -1 -6 65384.3 2974.75 1
-3 1 6 67800.6 3290.02 26
-3 1 6 63089.3 3051.47 25
-3 1 5 56095.9 2795.29 26
-3 1 5 53078.8 2610.26 25
3 -1 -5 54766.3 2538.87 1
-3 1 4 7757.66 675.771 26
-3 1 4 6287.54 544.93 25
3 -1 -4 6322.4 497.295 1
3 -1 -3 13426.5 812.795 1
3 -1 -2 2594.29 297.467 1
3 -1 -1 37903.6 1850.66 1
3 -1 0 13213.8 804.614 1
-3 1 -1 165903 7238.14 26
3 -1 2 21941.9 1211.71 1
-3 1 -2 23022.9 1256.32 26
-3 1 -3 104210 4636.11 26
3 -1 3 104487 4628.95 1
-3 1 -4 3001.47 325.479 26
-3 1 -4 3350.15 380.086 25
3 -1 4 2910.54 330.873 1
-3 1 -5 69760.8 3112.4 25
3 -1 5 63861.9 3050.4 1
3 -1 6 12868.9 829.609 1
-3 1 -6 13658.9 878.539 25
3 -1 6 15285.4 774.285 37
3 -1 7 7245.57 423.999 6
3 -1 7 7853.35 506.429 37
3 -1 7 7591.36 760.463 23
3 -1 7 7744.49 448.693 11
3 -1 7 7139.3 429.462 5
3 -1 7 7378.73 453.766 9
3 -1 8 20821.9 1009.38 32
3 -1 8 20396.2 988.83 6
3 -1 8 21115 1462.6 23
3 -1 8 20819.6 1091.51 37
3 -1 8 20739.8 1014.92 11
3 -1 8 19566.9 989.206 5
3 -1 8 21514.4 1034.22 9
3 -1 9 4947.69 344.107 6
3 -1 9 5653.24 389.926 32
3 -1 9 4892.33 695.382 23
3 -1 9 5061 358.527 5
3 -1 9 5198.11 391.042 11
3 -1 9 4691.93 547.578 21
3 -1 9 5592.03 404.287 9
3 -1 9 5680.6 460.244 37
3 -1 10 143.275 147.294 32
3 -1 10 118.49 144.153 3
3 -1 10 91.2378 94.6416 6
3 -1 10 332.834 270.206 23
3 -1 10 -25.0392 158.637 11
3 -1 10 -27.7894 272.707 21
3 -1 10 36.292 168.822 37
3 -1 11 670.61 199.565 32
3 -1 11 1374.41 224.572 3
3 -1 11 962.743 375.244 23
3 -1 11 1385.09 236.594 11
3 -1 11 1118.8 344.163 21
3 -1 11 1188.55 263.529 37
3 -1 12 390.511 173.908 32
3 -1 12 497.357 193.315 11
3 -1 12 483.972 292.279 21
3 -1 12 391.678 202.511 37
3 -1 13 187.125 149.527 32
3 -1 13 105.963 178.931 33
3 -1 13 155.267 241.655 21
3 -1 14 1355.77 196.558 32
3 -1 14 1882.14 301.551 30
3 -1 14 1569.16 236.546 33
3 -1 15 561.433 139.29 33
3 -1 15 422.435 196.555 30
3 -1 16 96.3566 119.296 30
-3 0 15 1199.67 266.426 30
-3 0 14 1236.83 319.35 30
-3 0 14 1056.44 294.673 29
-3 0 13 4722.47 498.303 29
-3 0 13 4605.96 440.375 18
-3 0 12 2622.77 431.237 30
-3 0 12 2680.74 396.861 29
-3 0 12 2186.09 304.832 10
-3 0 12 2374.85 325.975 18
-3 0 12 2655.11 372.661 8
-3 0 11 2881.62 433.637 30
-3 0 11 2930.83 385.742 29
-3 0 11 3607.97 539.188 13
-3 0 11 2837.99 280.136 28
-3 0 11 2943.1 457.7 12
-3 0 11 2806.91 331.299 10
-3 0 11 2334.21 241.948 9
-3 0 11 3081.6 364.694 18
-3 0 11 2449.2 368.235 8
-3 0 10 422.486 293.628 15
-3 0 10 116.496 256.778 30
-3 0 10 82.2822 307.421 13
-3 0 10 193.905 143.97 28
-3 0 10 -325.125 301.991 12
-3 0 10 281.687 181.604 10
-3 0 10 178.733 192.434 18
-3 0 10 41.4029 198.746 8
-3 0 9 12514.6 839.657 15
-3 0 9 11022.9 772.499 8
-3 0 9 12103.5 820.462 30
-3 0 9 11062.4 981.619 26
-3 0 9 12106.5 851.441 12
-3 0 9 12802.8 870.504 13
-3 0 9 12920 751.523 10
-3 0 9 12503.9 762.703 18
-3 0 8 39.8673 227.118 15
-3 0 8 -114.663 206.942 30
-3 0 8 23.8544 144.429 27
-3 0 8 63.2481 217.151 13
-3 0 8 192.796 203.743 26
-3 0 8 -21.8439 204.852 12
-3 0 8 464.085 173.408 18
-3 0 7 49649 2259.48 27
-3 0 7 52478.1 2446.57 25
-3 0 7 50342.1 2375.07 15
3 0 -6 19653.3 1097.66 1
3 0 -5 15988 935.414 1
3 0 -4 5995.51 486.124 1
-3 0 4 6426.52 566.241 24
3 0 -3 808.452 200.751 1
-3 0 2 2143.55 331.043 24
3 0 -2 2384.34 303.157 1
-3 0 1 4045.25 415.374 24
3 0 -1 4026.15 382.74 1
-3 0 0 10794.4 722.164 24
-3 0 -1 36099.5 1785.63 24
3 0 1 35624 1775.98 1
3 0 2 78368.7 3601.66 1
-3 0 -2 81029.6 3593.33 24
3 0 3 83702.5 3777.46 1
-3 0 -4 161.798 126.895 26
3 0 4 383.372 163.596 1
3 0 5 116807 5152.17 1
3 0 6 895.922 146.742 11
3 0 6 783.601 133.794 5
3 0 6 942.653 179.38 37
3 0 6 710.33 181.999 1
3 0 7 16396.8 836.624 37
3 0 7 14436.5 736.782 6
3 0 7 15455.6 1158.84 23
3 0 7 13637.3 735.366 5
3 0 7 14860.5 759.417 11
3 0 8 1797.26 231.138 3
3 0 8 1465.93 176.743 6
3 0 8 1753.41 413.463 23
3 0 8 1713.78 222.244 11
3 0 8 1680.87 248.696 37
3 0 9 12171.4 693.881 6
3 0 9 12190.9 1125.9 23
3 0 9 14290.7 758.332 11
3 0 9 12132.1 939.712 21
3 0 9 13876.7 818.625 37
3 0 10 1039.23 229.182 3
3 0 10 565.993 182.007 32
3 0 10 661.041 206.421 37
3 0 10 357.826 264.735 23
3 0 10 1007.65 371.59 21
3 0 11 691.239 188.543 32
3 0 11 996.977 233.759 37
3 0 11 887.648 205.809 3
3 0 11 1033.89 367.096 21
3 0 12 2220.16 405.711 21
3 0 12 1059.98 219.539 32
3 0 12 1455 322.168 30
3 0 12 1759.59 251.092 37
3 0 13 -12.785 146.475 33
3 0 13 110.528 214.352 30
3 0 13 160.306 145.093 32
3 0 13 200.054 254.607 21
3 0 14 4681.7 336.338 32
3 0 14 5222.47 430.295 30
3 0 15 287.509 152.93 30
-3 -1 16 765.821 206.714 29
-3 -1 15 442.566 225.459 29
-3 -1 15 297.455 189.797 30
-3 -1 14 3957.2 460.133 30
-3 -1 14 3779.81 458.667 29
-3 -1 13 1517.04 324.609 30
-3 -1 13 1684.15 328.451 29
-3 -1 13 1292.98 276.019 10
-3 -1 13 1111.87 189.489 9
-3 -1 12 7518.97 720.22 15
-3 -1 12 6477.45 616.707 30
-3 -1 12 6600.46 486.617 28
-3 -1 12 7211.01 580.305 10
-3 -1 12 7099.08 625.927 8
-3 -1 11 19464.9 1203.81 15
-3 -1 11 17785.8 1112.15 30
-3 -1 11 19125.3 1048.62 27
-3 -1 11 18065.4 1130.18 12
-3 -1 11 19837.5 1093.32 10
-3 -1 11 20220.1 1150.27 8
-3 -1 10 24680.6 1401.38 15
-3 -1 10 23281.5 1319.97 30
-3 -1 10 24011.6 1250.4 27
-3 -1 10 22585.4 1340.06 12
-3 -1 10 25660.2 1317.47 10
-3 -1 10 24103.2 1237.2 18
-3 -1 10 27010.7 1377.05 8
-3 -1 9 14309.5 909.082 15
-3 -1 9 13241.1 859.936 30
-3 -1 9 15081.1 964.697 13
-3 -1 9 14743.7 797.338 27
-3 -1 9 13374 882.911 12
-3 -1 9 13446.9 867.746 8
-3 -1 8 6314.58 537.637 15
-3 -1 8 6362.76 506.47 30
-3 -1 8 6226.09 559.854 13
-3 -1 8 5970.48 431.324 27
-3 -1 7 24454.7 1236.37 27
3 1 -7 27308.5 1439.13 1
-3 -1 6 77270.4 3597.95 24
3 1 -6 72835.4 3447.3 1
-3 -1 5 21293.1 1287.7 24
3 1 -5 21099.8 1205.97 1
3 1 -4 31547.1 1646.37 1
3 1 -3 335.154 194.08 1
-3 -1 3 587.69 247.787 24
3 1 -2 107578 4837.09 1
-3 -1 2 109195 4885.24 24
3 1 -1 13257 856.266 1
-3 -1 1 13671.3 880.159 24
-3 -1 0 186400 8068.01 24
3 1 1 10502.7 742.571 1
-3 -1 -1 11468 749.897 24
-3 -1 -2 251551 10697.3 24
3 1 2 249628 10737.1 1
-3 -1 -3 23361.6 1272.37 24
3 1 3 25200.9 1347.75 1
3 1 4 101839 4589.25 1
3 1 5 5381.1 595.827 31
3 1 5 6772.74 553.271 1
3 1 6 16629.3 795.404 3
3 1 6 15005.4 803.615 37
3 1 7 1166.45 333.508 23
3 1 7 1291.2 221.677 3
3 1 7 1025.52 201.501 37
3 1 8 10624.4 1037.52 23
3 1 8 12540.2 955.339 21
3 1 8 12831.7 778.44 37
3 1 9 17514.6 1016.28 37
3 1 9 17562.1 1215.82 21
3 1 10 14579.9 869.637 30
3 1 10 12818.3 767.179 37
3 1 10 15796.9 786.947 3
3 1 11 8394.45 532.647 32
3 1 11 7014.23 589.108 30
3 1 12 4434.68 349.927 32
3 1 12 3512.41 393.251 30
3 1 12 3257.82 311.657 19
3 1 13 752.012 172.827 32
3 1 13 991.603 226.565 30
3 1 14 9135.92 422.658 32
3 1 14 4685.84 424.804 18
-3 -2 17 420.178 128.216 29
-3 -2 16 1491.18 243.946 29
-3 -2 15 1856.64 304.134 29
-3 -2 14 7838.64 568.519 29
-3 -2 14 6829.96 528.771 10
-3 -2 13 9777.94 739.796 10
-3 -2 13 9579.65 779.47 8
-3 -2 12 15800.1 1036.61 15
-3 -2 12 13789.5 872.093 27
-3 -2 12 15674.8 940.557 10
-3 -2 12 15158.7 969.316 8
-3 -2 11 6288.22 633.298 15
-3 -2 11 6187.98 504.861 27
3 2 -11 4803.32 669.497 16
-3 -2 10 5932.74 589.292 15
-3 -2 10 6287.81 483.736 27
-3 -2 9 8554.06 690.138 15
-3 -2 9 8497.7 568.996 27
-3 -2 9 9162.27 863.838 24
-3 -2 9 9484.16 664.133 8
-3 -2 8 8830.08 546.655 27
-3 -2 8 8933.66 820.973 24
-3 -2 8 8468.92 654.234 15
-3 -2 7 59545.7 2782.2 27
3 2 -7 66515.6 3101.16 1
-3 -2 6 28521.3 1669.23 24
3 2 -6 27740.6 1572.26 1
-3 -2 5 175064 7650.11 24
3 2 -5 168727 7535.46 1
3 2 -4 3691.82 425.179 1
3 2 -3 82969.9 3864.78 1
3 2 -2 55362.6 2715.66 1
-3 -2 1 102221 4748.49 35
3 2 0 29776.6 1650.94 1
3 2 1 51277.7 2553.11 1
3 2 2 1175.32 278.247 1
-3 -2 -3 99333 4591.4 24
3 2 3 105092 4687.83 1
3 2 4 13938.7 722.984 3
3 2 4 9889.91 837.491 1
3 2 5 17393.1 863.635 37
3 2 5 16336.4 1078.24 1
3 2 6 3195.19 504.04 23
3 2 6 4127.14 496.833 21
3 2 6 4073.83 342.171 37
3 2 7 21690.1 1294.76 21
3 2 7 24536.6 1130.5 3
3 2 8 3168.6 368.596 30
3 2 8 3292.84 492.403 21
3 2 8 4143.28 382.227 3
3 2 9 62838.6 2951.47 30
3 2 9 67125.5 3148.58 21
3 2 10 2259.23 430.583 21
3 2 10 2184.9 312.124 30
3 2 10 2329.56 313.439 20
3 2 10 2218.83 288.515 19
3 2 11 1554.49 235.431 32
3 2 11 1324.94 358.783 21
3 2 11 1382.81 230.111 19
3 2 12 367.289 159.231 32
3 2 12 360.879 140.475 19
3 2 13 1256.49 169.525 32
3 2 13 622.679 193.294 18
-3 -3 17 580.487 133.166 29
-3 -3 16 59.3536 161.128 29
-3 -3 15 2236.97 307.041 29
-3 -3 15 2453.07 300.044 10
-3 -3 14 638.132 222.878 10
-3 -3 13 614.124 235.737 27
-3 -3 13 561.056 274.453 8
-3 -3 12 3297.61 378.429 27
3 3 -12 2498.79 494.328 16
3 3 -11 2654.49 528.829 16
-3 -3 11 3120.3 366.395 27
-3 -3 11 2923.13 401.478 8
-3 -3 10 25296.4 1384.08 8
-3 -3 10 26562.4 1426.9 15
-3 -3 10 25671.6 1299 27
-3 -3 10 22818.6 1629.07 24
-3 -3 9 3750.86 463.132 15
-3 -3 9 4486.12 442.789 8
-3 -3 9 4016.65 369.757 27
-3 -3 9 3737.24 577.356 24
-3 -3 8 14763.7 950.556 15
3 3 -8 16212.2 1174.63 1
-3 -3 8 17031 881.091 27
-3 -3 8 18663 1313.95 24
-3 -3 8 16058.5 803.607 36
-3 -3 7 30216.3 1455.16 27
3 3 -7 32813.4 1830.5 1
-3 -3 7 33472 1934.79 24
3 3 -7 30247.4 1406.48 2
-3 -3 7 30785.3 1411.45 36
-3 -3 6 38425.2 1765.82 36
3 3 -6 39403 2169.84 1
3 3 -6 40153 1764.37 2
3 3 -5 62514.9 2980.53 1
-3 -3 5 65572.5 3081.19 35
-3 -3 5 55776.3 2534.85 36
3 3 -4 4871 553.061 1
-3 -3 4 4279.45 584.356 35
3 3 -3 3225.09 447.718 1
-3 -3 2 431.33 282.997 35
3 3 -2 839.029 275.943 1
-3 -3 1 39.676 229.615 35
-3 -3 0 32581.2 1994.91 35
3 3 0 35472.3 1945.18 1
-3 -3 -1 42534.8 2286.18 35
3 3 1 41550.2 2173.43 1
-3 -3 -1 37665.2 1752.63 36
3 3 2 21803 1383.66 1
3 3 2 20928.8 1015.39 2
-3 -3 -2 19855.5 1020.17 36
3 3 2 23868.9 1080.8 3
-3 -3 -3 6076.25 401.095 36
3 3 3 7294.42 707.33 1
3 3 3 6263.44 393.921 2
3 3 3 7227.5 467.003 3
3 3 4 65356.3 3061.02 21
3 3 5 187.156 285.762 31
3 3 5 474.579 270.679 21
3 3 6 14512.7 973.69 21
3 3 7 -26.3489 256.671 21
3 3 8 524.439 305.844 21
3 3 9 2986.97 448.744 21
3 3 9 2645.3 348.665 20
3 3 9 2585.59 315.902 19
3 3 10 9023.07 592.082 20
3 3 10 8954.95 569.451 19
3 3 11 69.4149 139.676 32
3 3 11 159.585 128.082 19
3 3 12 860.968 156.616 32
3 3 12 456.838 174.534 18
-3 -4 16 323.445 147.813 29
-3 -4 15 160.995 119.881 9
-3 -4 14 41.3323 186.317 27
-3 -4 14 143.896 179.218 10
-3 -4 13 589.357 220.898 27
-3 -4 13 609.574 251.338 10
-3 -4 13 902.935 266.889 8
-3 -4 12 4036.74 404.465 27
-3 -4 12 3871.18 419.098 10
-3 -4 12 3613 429.148 8
3 4 -11 1847.82 456.41 16
-3 -4 11 1796.61 298.855 27
-3 -4 11 2525.48 370.334 8
-3 -4 10 7733.03 560.95 27
-3 -4 10 6603.08 815.132 24
-3 -4 10 8153.16 627.061 8
3 4 -10 8146.21 915.151 16
-3 -4 9 1246.67 177.341 7
-3 -4 9 1568.96 258.784 27
-3 -4 9 1119.67 266.121 8
-3 -4 9 1015.23 392.15 24
-3 -4 9 1278.17 180.049 36
-3 -4 8 18965.3 934.721 36
-3 -4 8 17510.2 976.704 27
-3 -4 8 19966.2 1458.69 24
3 4 -8 19054.8 921.225 2
-3 -4 8 18313.1 931.675 7
-3 -4 8 18421.9 1055.98 8
3 4 -7 7260.96 437.388 2
-3 -4 7 6629.49 442.501 36
-3 -4 7 6716.71 439.72 7
-3 -4 6 3796.92 600.787 35
-3 -4 6 4098.64 318.9 7
3 4 -6 3128.7 539.057 1
3 4 -6 3768.17 303.433 2
3 4 -5 14068.3 1107.41 1
3 4 -5 12770.4 696.047 2
-3 -4 5 13958.3 1163.08 35
-3 -4 4 49.307 279.355 35
3 4 -4 116.242 110.988 2
3 4 -4 -43.6337 212.544 1
3 4 -3 2081.2 437.376 1
3 4 -3 2126.95 227.79 2
-3 -4 2 1203.83 396.175 35
-3 -4 1 1428.83 454.062 35
3 4 -1 1243.92 181.271 2
3 4 -1 1182.72 354.753 1
-3 -4 0 417.066 337.514 35
3 4 0 252.673 125.775 2
3 4 0 352.607 303.821 1
-3 -4 -1 10720 1030.9 35
3 4 1 8974.35 897.33 1
3 4 1 9621.85 554.01 2
3 4 2 15252.6 798.158 2
-3 -4 -2 15921.6 829.415 36
-3 -4 -3 12524.3 681.438 36
3 4 3 12014.7 651.176 2
3 4 4 16588.2 1002.54 21
3 4 5 3304.11 706.882 31
3 4 5 5151.67 503.191 21
3 4 6 15190.2 977.909 21
3 4 6 16084.2 892.57 19
3 4 7 270.47 253.247 21
3 4 7 566.798 215.849 19
3 4 8 -69.447 195.649 20
3 4 8 110.636 176.71 19
3 4 9 188.219 183.576 20
3 4 10 1199.54 189.56 32
3 4 10 1108.36 195.255 20
3 4 10 1308.44 189.143 19
3 4 11 87.2273 108.099 32
3 4 11 -12.5012 96.5553 19
3 4 11 -41.034 110.96 18
-3 -5 16 303.692 115.439 29
-3 -5 15 196.267 140.431 10
-3 -5 14 713.295 191.386 27
-3 -5 14 652.262 192.087 10
-3 -5 13 1679.06 266.388 27
-3 -5 13 1931.49 287.746 10
-3 -5 12 5154.91 434.154 27
-3 -5 12 5188.1 462.214 10
-3 -5 12 5441.95 470.662 8
-3 -5 11 4332.71 394.271 27
-3 -5 11 3628.08 406.138 10
-3 -5 11 3594.49 404.229 8
-3 -5 10 6583.7 490.297 27
-3 -5 10 6117.88 782.508 24
-3 -5 10 6587.16 527.921 8
3 5 -10 5192.21 756.757 16
3 5 -9 514.141 150.111 2
3 5 -9 680.432 315.341 16
-3 -5 9 716.622 167.937 7
-3 -5 9 512.476 210.035 27
-3 -5 9 1043.82 379.382 24
-3 -5 9 844.905 167.524 36
-3 -5 9 535.439 227.233 8
-3 -5 8 37818.4 1964.95 8
-3 -5 8 42763.9 1937.04 27
3 5 -8 42346.8 1880.25 2
-3 -5 8 41104.2 1890.79 36
-3 -5 8 41048.9 1896 7
-3 -5 7 1511.63 221.93 7
3 5 -7 691.789 336.703 16
3 5 -7 1420.7 202.399 2
-3 -5 7 1068.83 234.258 8
-3 -5 7 1312.1 444.977 35
-3 -5 7 1230.84 205.487 36
-3 -5 6 14869.7 808.01 7
3 5 -6 15296.5 799.523 2
-3 -5 6 13079.3 1267.33 35
-3 -5 5 4732.05 741.962 35
3 5 -5 5389.98 384.475 2
3 5 -4 90.9878 127.514 2
3 5 -3 56.9697 131.225 2
-3 -5 3 181.748 311.963 35
3 5 -2 9618.09 858.076 16
-3 -5 2 10899.4 1121.24 35
3 5 -1 34573 1616.42 2
-3 -5 1 33642 2278.09 35
-3 -5 0 823.933 425.193 35
3 5 0 1071.18 187.868 2
3 5 0 798.99 167.868 19
-3 -5 -1 62025.9 3378.15 35
3 5 1 60990.3 2566.5 2
3 5 1 52020.9 2553.49 19
-3 -5 -1 59067.2 2601.44 36
3 5 2 6816.8 435.253 2
3 5 2 6750.05 471.013 19
-3 -5 -2 6579.34 465.432 36
3 5 3 25244.1 1200.39 2
3 5 3 26210.9 1279.3 19
-3 -5 -3 24632 1227.96 36
3 5 4 6963.15 1062.02 31
3 5 4 10497 630.596 19
3 5 5 4085.51 426.664 20
3 5 5 4136.97 378.49 19
3 5 6 6293.39 512 20
3 5 6 6186.73 461.232 19
3 5 7 3635.61 351.205 20
3 5 7 3406.88 303.447 19
3 5 8 1033.46 188.065 19
3 5 8 419.673 144.581 18
3 5 9 3527.3 292.571 20
3 5 9 4033.35 286.14 19
3 5 10 1709.69 148.863 32
3 5 10 1283.96 139.137 20
-3 -6 15 1420.05 146.031 9
-3 -6 14 592.99 157.084 27
-3 -6 14 711.903 155.681 10
-3 -6 13 6148.99 420.003 27
-3 -6 13 6027.94 427.054 10
-3 -6 12 -70.644 152.36 27
-3 -6 12 55.291 156.619 10
-3 -6 11 12081.9 679.493 27
-3 -6 11 10724.5 694.746 10
-3 -6 10 777.311 158.07 7
-3 -6 10 986.366 209.323 27
-3 -6 10 1003.08 210.824 8
3 6 -10 661.954 136.305 2
-3 -6 9 8486.24 507.914 36
-3 -6 9 7812.81 536.581 27
3 6 -9 8421.44 495.147 2
-3 -6 9 8266.02 512.746 7
3 6 -8 1539.14 215.096 2
-3 -6 8 1644.06 224.197 7
-3 -6 8 1702.17 250.6 27
-3 -6 8 1927.24 243.577 36
3 6 -8 1481.72 415.803 16
-3 -6 7 4856.21 740.955 35
3 6 -7 4464.22 352.331 2
-3 -6 7 4992.22 387.51 36
-3 -6 7 4384.54 364.195 7
3 6 -7 3541.84 616.788 16
-3 -6 6 758.714 399.248 35
-3 -6 6 1291.17 225.127 7
3 6 -6 1675.73 226.245 2
3 6 -6 1276.5 376.102 16
-3 -6 5 24203.7 1231.06 7
3 6 -5 25651.4 1221.39 2
3 6 -5 23822.5 1669.44 16
-3 -6 5 20455 1765.99 35
3 6 -4 54146.1 2389.1 2
3 6 -4 47975.2 2805.09 16
-3 -6 3 1624.2 510.044 35
3 6 -2 20317 1036.35 2
-3 -6 2 19510.3 1671.97 35
-3 -6 1 24496.2 1973.77 35
3 6 -1 27887.6 1332.61 2
3 6 0 5025.4 367.161 2
-3 -6 0 5302.11 408.322 36
3 6 1 13566.4 711.976 2
3 6 1 12406.1 766.547 20
3 6 1 12097 698.637 19
-3 -6 -1 13824.4 751.13 36
3 6 2 25929.2 1217.42 2
3 6 2 24498.2 1309.12 20
3 6 2 25099 1245.04 19
-3 -6 -2 26692.9 1254.85 36
3 6 3 79.1699 182.318 20
3 6 3 23.3541 140.682 19
3 6 4 6536.17 495.601 20
3 6 4 6646.96 448.052 19
3 6 5 82.0891 175.569 20
3 6 5 10.513 131.437 19
3 6 6 12608.4 721.385 20
3 6 6 13637.8 697.249 19
3 6 7 696.924 163.451 20
3 6 7 834.336 149.395 19
3 6 8 10102.9 517.25 20
-3 -7 13 17.9465 90.8057 27
-3 -7 13 92.8928 83.1241 10
-3 -7 12 1402.66 176.337 27
-3 -7 12 1526.03 177.38 10
-3 -7 11 542.809 147.254 27
-3 -7 11 656.88 149.473 10
3 7 -10 1310.36 155.613 2
-3 -7 10 1316.62 194.357 27
-3 -7 10 1232.02 193.543 10
-3 -7 9 4267.6 341.756 27
-3 -7 9 4075.61 355.993 10
-3 -7 9 4893.53 343.275 7
3 7 -8 10127.5 571.119 2
-3 -7 8 9937.03 574.331 36
-3 -7 8 9716.52 573.345 7
3 7 -7 1861.1 228.38 2
-3 -7 7 1700.8 231.546 36
-3 -7 7 2099.15 246.164 7
-3 -7 6 7314.65 491.045 7
3 7 -6 7727.26 484.294 2
-3 -7 6 6973.23 485.962 36
-3 -7 5 2666.25 285.607 7
3 7 -5 2326.06 260.518 2
-3 -7 4 10030.9 624.388 7
3 7 -4 10815.7 618.691 2
-3 -7 4 9938.23 628.329 36
-3 -7 3 4118.06 362.16 36
-3 -7 2 556.593 184.411 36
3 7 -2 541.45 162.594 2
-3 -7 1 1321.07 218.031 36
3 7 -1 1352.29 203.721 2
3 7 0 173.931 121.163 2
-3 -7 0 310.793 153.197 36
3 7 1 8239.04 531.049 20
-3 -7 -1 10208.8 546.998 36
3 7 2 20.6444 122.546 20
3 7 3 14273.3 745.588 20
3 7 4 274.9 125.763 20
3 7 5 7155.5 402.57 20
3 8 -10 138.844 67.9504 2
3 8 -9 2609.72 208.614 2
-3 -8 8 167.492 104.219 7
3 8 -8 87.5362 99.8676 2
-3 -8 8 98.7597 103.859 36
-3 -8 7 973.642 160.887 7
3 8 -7 690.568 149.514 2
-3 -8 7 743.339 151.164 36
-3 -8 6 1386.74 193.395 36
3 8 -6 1059.05 174.265 2
-3 -8 6 1429.7 186.349 7
-3 -8 5 104.939 122.005 7
3 8 -5 143.499 123.66 2
-3 -8 4 117.377 129.226 7
-3 -8 4 37.3469 131.47 36
3 8 -3 833.402 160.383 2
-3 -8 3 1342.91 191.496 36
3 8 -2 798.407 146.797 2
-3 -8 2 976.35 166.179 36
-3 -8 1 660.814 149.305 7
3 8 -1 486.955 119.986 2
-3 -8 1 625.584 142.217 36
-3 -8 0 156.943 118.046 7
-3 -8 0 130.931 93.7131 36
-3 -8 -1 -7.1402 94.679 7
-3 -8 -2 6233.4 353 7
3 9 -7 3398.11 208.494 2
-3 -9 7 3385.61 205.227 7
-3 -9 7 3148.77 205.508 36
-3 -9 6 622.973 94.854 7
3 9 -6 633.01 99.3839 2
-3 -9 5 235.613 82.8883 7
3 9 -5 434.738 89.409 2
-3 -9 5 318.175 86.4946 36
3 9 -4 83.1922 74.0257 2
-3 -9 4 162.821 78.3169 36
-3 -9 3 51.5567 65.6228 36
-3 -9 2 440.912 77.7328 7
-4 10 -2 523.981 161.929 13
-4 10 -3 -117.862 144.95 13
-4 10 -4 11.2416 154.295 13
-4 10 -5 485.958 176.234 13
-4 10 -6 851.412 188.825 13
-4 9 3 750.781 193.301 13
-4 9 2 3254.99 349.178 13
-4 9 1 278.705 212.462 13
-4 9 0 611.686 152.73 14
-4 9 0 530.218 254.889 13
-4 9 -1 8336.18 511.13 14
-4 9 -1 8573.64 642.7 13
-4 9 -2 127.869 127.859 14
-4 9 -3 2604.33 243.141 14
4 -9 3 1997.55 165.858 6
-4 9 -4 9.91162 111.096 14
4 -9 4 68.2195 74.7405 6
-4 9 -5 5012.13 339.31 14
4 -9 5 4812.33 303.484 6
4 -9 6 2922.1 220.989 6
4 -9 7 5820.35 344.418 6
4 -9 8 352.086 101.519 6
4 -9 9 772.363 115.35 6
4 -9 10 409.837 87.3836 6
-4 8 6 1513.89 241.88 13
-4 8 5 8124.4 590.34 13
-4 8 4 193.94 257.301 13
-4 8 4 206.083 116.845 17
-4 8 3 3977.03 331.627 14
-4 8 3 3760.27 465.811 13
-4 8 3 3751.87 302.31 17
-4 8 2 6462.35 455.949 14
-4 8 2 6279.16 422.5 17
-4 8 1 497.369 151.879 17
-4 8 0 5366.53 429.703 14
-4 8 -1 11503 700.141 14
-4 8 -2 39857.4 1712.6 14
4 -8 2 32774.5 1563.73 6
-4 8 -3 12362.5 723.486 14
4 -8 3 12180.4 641.517 6
-4 8 -4 8233.22 515.921 14
4 -8 4 7040.49 439.385 6
-4 8 -5 6801.95 483.775 14
4 -8 5 8315.86 466.683 6
-4 8 -6 764.727 156.756 14
4 -8 6 708.464 147.58 6
4 -8 7 10068.1 518.199 6
4 -8 7 7613.61 460.711 4
4 -8 8 141.787 92.4386 4
4 -8 8 328.186 121.597 6
4 -8 9 253.644 106.417 4
4 -8 9 258.34 121.43 6
4 -8 10 2522.3 212.008 4
4 -8 11 381.763 103.474 6
4 -8 12 2688.93 192.136 6
-4 7 8 928.407 247.499 13
-4 7 7 75.5164 239.159 13
-4 7 7 -7.55028 94.3905 17
-4 7 6 2709.12 426.224 13
-4 7 6 2689.87 248.682 17
-4 7 5 7239.93 613.105 12
-4 7 5 6780.49 452.554 17
-4 7 4 9854.93 623.47 14
-4 7 3 25644 1306.48 17
-4 7 3 27698.3 1358.69 14
-4 7 2 9460.95 741.292 15
-4 7 2 10707.4 645.208 17
4 -7 -1 4717.87 736.787 34
-4 7 1 4272.9 509.359 15
-4 7 1 4498.18 384.252 17
-4 7 1 5017.51 428.734 14
-4 7 1 5065.29 626.159 13
4 -7 0 34743.9 2334.84 34
-4 7 0 33013.1 1668.85 14
-4 7 0 35176.2 1655.54 17
4 -7 1 15136.1 1396.5 34
-4 7 -1 14824 818.007 17
-4 7 -1 13308.7 820.355 14
4 -7 2 34547.8 2311.54 34
-4 7 -2 32026.2 1575.93 14
4 -7 2 31731.8 1478.71 6
4 -7 3 138.484 337.383 34
4 -7 3 274.94 122.574 6
-4 7 -3 180.3 147.738 14
4 -7 4 6769 918.481 34
-4 7 -4 5606 444.096 14
4 -7 4 6123.09 399.26 6
4 -7 5 400.242 334.406 34
-4 7 -5 246.697 145.904 14
4 -7 5 115.018 114.793 6
4 -7 6 191.338 281.923 34
4 -7 6 31.8977 123.109 6
4 -7 6 100.087 104.815 4
4 -7 7 1337.66 192.368 6
4 -7 7 975.654 166.443 4
4 -7 8 211.695 136.556 6
4 -7 8 117.944 120.278 4
4 -7 9 5183.95 363.848 4
4 -7 10 18.9179 115.585 4
4 -7 11 9129.82 495.842 6
4 -7 11 7768.24 455.079 11
4 -7 11 9537.74 481.955 5
4 -7 11 8026.1 486.944 4
4 -7 12 689.669 127.824 6
4 -7 12 530.732 109.63 11
4 -7 13 1034.06 115.417 11
-4 6 10 224.798 210.797 13
-4 6 9 -121.306 211.813 12
-4 6 8 3679.99 456.502 12
-4 6 8 3764.32 283.858 17
-4 6 7 7799.37 481.859 17
-4 6 7 7020.78 669.117 12
-4 6 6 5384.33 626.716 12
-4 6 6 6477.56 440.915 17
-4 6 5 11896.3 842.697 15
-4 6 5 12985.8 977.734 13
-4 6 5 12093.5 712.491 17
-4 6 4 -25.2449 273.361 15
-4 6 4 288.515 164.046 14
-4 6 4 379.063 369.433 13
-4 6 4 -13.8908 142.186 17
4 -6 -3 23656.1 1795.75 34
-4 6 3 26453.5 1503.96 15
-4 6 3 27574.4 1372.41 14
-4 6 3 26721.8 1602.32 13
4 -6 -2 417.541 315.377 34
-4 6 2 457.337 303.424 15
-4 6 2 -62.7425 335.822 13
-4 6 2 330.158 170.051 17
4 -6 -1 10776.3 1125.24 34
-4 6 1 9960.86 669.414 14
-4 6 1 11348.5 673.94 17
-4 6 0 7320.67 533.727 14
-4 6 0 8066.96 536.298 17
-4 6 -1 6476.11 481.143 14
4 -6 1 6278.41 396.112 6
-4 6 -1 7074.51 494.16 17
-4 6 -2 175.932 139.757 14
4 -6 2 128.853 98.0322 6
-4 6 -3 984.702 200.396 14
4 -6 3 1313.4 172.309 6
-4 6 -4 499.016 159.531 14
4 -6 4 584.476 134.485 6
-4 6 -5 1231.06 202.451 14
4 -6 5 1235.24 180.045 6
4 -6 6 1938.07 489.73 34
4 -6 6 1704.53 212.149 6
4 -6 6 1949.64 432.102 23
4 -6 6 1415.91 190.315 4
4 -6 7 459.481 318.79 34
4 -6 7 391.787 149.037 6
4 -6 7 371.696 266.789 23
4 -6 7 538.01 143.329 4
4 -6 8 105.416 224.759 34
4 -6 8 341.854 153.277 6
4 -6 8 681.086 342.047 23
4 -6 8 200.253 133.177 4
4 -6 9 2824.06 566.906 23
4 -6 9 3294.43 300.182 4
4 -6 9 3110.91 307.834 37
4 -6 10 4090.57 326.542 6
4 -6 10 3730.55 322.032 4
4 -6 10 3644.52 341.605 37
4 -6 11 5735.34 377.282 6
4 -6 11 4502.41 343.498 11
4 -6 11 5738.83 361.744 5
4 -6 11 5248.77 385.593 4
4 -6 12 170.338 112.081 33
4 -6 12 -25.8663 103.871 6
4 -6 12 -71.7184 112.175 11
4 -6 13 92.8258 103.684 11
4 -6 14 568.687 104.157 11
-4 5 11 2636.93 317.745 12
-4 5 10 2174.7 375.021 12
-4 5 9 -134.379 326.869 13
-4 5 9 84.5586 310.567 12
-4 5 8 290.71 270.694 15
-4 5 8 88.7951 351.392 13
-4 5 8 418.2 360.516 12
-4 5 8 -32.5149 112.365 17
-4 5 7 15639.3 1033.28 15
-4 5 7 18006.3 1166.5 13
-4 5 7 16936.2 1179.38 12
-4 5 7 17583.6 1013.18 18
-4 5 7 15394.5 861.38 17
-4 5 6 11047.1 843.929 15
-4 5 6 10990.6 669.876 17
-4 5 6 12324.9 947.895 13
-4 5 6 12427.5 799.495 18
-4 5 5 26832.9 1506.39 15
-4 5 5 26836.1 1328.76 14
-4 5 5 27673.6 1576.93 13
-4 5 5 26361.7 1298.11 17
4 -5 -4 350.885 284.517 34
-4 5 4 205.753 292.636 31
-4 5 4 627.769 319.662 15
-4 5 4 230.364 168.169 14
-4 5 4 1143.58 386.567 13
-4 5 4 516.702 162.369 17
-4 5 3 3934.37 695.491 31
-4 5 3 5441.6 431.412 14
-4 5 3 5590.96 613.076 13
-4 5 3 5340.94 411.9 17
-4 5 3 6072.38 593.615 15
-4 5 2 250.806 301.889 13
-4 5 1 37538.4 1818.4 14
-4 5 1 39395.7 1819.58 17
-4 5 0 926.315 186.627 14
-4 5 0 1077.32 208.332 17
4 -5 1 4706.69 313.776 6
-4 5 -1 4082 364.042 17
-4 5 -2 9703.52 602.481 14
4 -5 2 10232.8 547.089 6
-4 5 -3 7602.65 504.41 14
4 -5 3 8401.4 466.798 6
-4 5 -4 11761.3 666.574 14
4 -5 4 11710 626.378 6
4 -5 4 10146.9 918.222 23
4 -5 5 3446.47 277.545 6
4 -5 5 2676.79 478.85 23
4 -5 5 3036.7 255.963 4
4 -5 6 7567.55 467.192 6
4 -5 6 6322.05 767.323 23
4 -5 6 6942.11 448.788 4
4 -5 6 7867.99 497.326 37
4 -5 7 9618.25 556.687 6
4 -5 7 7808.89 892.265 23
4 -5 7 9134.32 545.053 4
4 -5 7 8975.92 575.068 37
4 -5 8 3416.45 559.478 34
4 -5 8 3132.65 579.549 23
4 -5 8 3012.38 294.544 4
4 -5 8 3868.01 352.021 37
4 -5 9 15439.1 788.693 6
4 -5 9 12427.8 1225.66 23
4 -5 9 13582.2 781.876 4
4 -5 9 14170.8 826.632 37
4 -5 10 8658.53 556.23 33
4 -5 10 10226.7 566.379 6
4 -5 10 9039.7 563.205 4
4 -5 10 8868.69 602.329 37
4 -5 11 221.726 155.451 33
4 -5 11 326.531 136.161 6
4 -5 11 281.699 142.801 11
4 -5 11 471.341 145.534 5
4 -5 11 361.33 171.65 37
4 -5 12 587.761 169.719 33
4 -5 12 387.815 126.313 6
4 -5 12 512.975 152.398 11
4 -5 12 352.333 172.689 37
4 -5 13 96.6105 128.191 33
4 -5 13 176.587 128.874 11
4 -5 14 25.7902 103.143 33
4 -5 14 214.981 133.686 30
4 -5 14 99.5638 106.147 11
-4 4 12 4296.8 465.387 13
-4 4 11 2213.59 436.698 13
-4 4 10 21992.7 1284.04 15
-4 4 10 23230.1 1409.9 13
-4 4 10 24080.3 1277.67 18
-4 4 9 2530.5 410.385 15
-4 4 9 2162.57 461.635 13
-4 4 9 2855.65 392.653 18
-4 4 8 34140 1818.1 15
-4 4 8 35195.9 1896.41 13
-4 4 8 34579 1758.23 18
-4 4 8 32345.8 1562.36 17
-4 4 7 3338.2 477.158 15
-4 4 7 2682.33 497.226 13
-4 4 7 2999.41 402.733 18
-4 4 7 2685.41 279.409 17
-4 4 6 62795 2922.1 15
-4 4 6 60854.3 2937.93 13
-4 4 6 61234.5 2828.05 18
-4 4 6 56566.1 2653.57 17
-4 4 5 4398.37 524.188 15
-4 4 5 4645.99 542.677 13
-4 4 5 3957.75 434.005 18
-4 4 5 4226.66 348.015 17
-4 4 4 19256.7 1196.45 15
-4 4 4 16217.7 1507.54 31
-4 4 4 20532 1037.14 14
-4 4 4 21313.7 1225.41 13
-4 4 4 20472.6 1134.8 18
-4 4 4 19056.1 1005.95 17
-4 4 3 105.376 271.802 31
-4 4 3 337.74 149.696 14
-4 4 3 549.09 322.735 26
-4 4 3 458.895 260.458 13
-4 4 3 503.27 148.709 17
-4 4 2 14456.6 1207.01 31
-4 4 2 15743.2 1002 13
-4 4 2 16349.8 850.191 17
-4 4 1 18347.9 950.989 14
-4 4 1 18567.3 1463.52 26
-4 4 0 40321.9 1858.71 14
-4 4 0 43347.1 2469.24 26
-4 4 0 39740.9 1861.73 17
-4 4 -1 21550 1057.19 14
-4 4 -1 21562.6 1544.92 26
4 -4 1 19834 1246.47 23
-4 4 -2 98737.1 4415.13 14
4 -4 2 104015 4363.62 6
4 -4 2 107373 4774.4 23
-4 4 -3 29781.6 1410.32 14
4 -4 3 29568.2 1365.03 6
4 -4 3 31613.2 1770.63 23
4 -4 4 65085.5 2873.77 6
4 -4 4 66437.4 3343.94 23
4 -4 4 67091.8 2905.03 37
4 -4 5 3015.74 253.801 6
4 -4 5 2930.5 489.311 23
4 -4 5 2823.15 245.015 4
4 -4 5 3279.74 285.748 37
4 -4 6 68452.4 2940.09 6
4 -4 6 62502.9 3443.55 23
4 -4 6 64470.5 2920.61 4
4 -4 6 69605.3 2986.39 37
4 -4 7 514.636 279.089 23
4 -4 7 276.078 128.999 4
4 -4 7 590.79 171.888 37
4 -4 8 527.918 151.411 6
4 -4 8 501.006 316.266 23
4 -4 8 688.837 172.247 4
4 -4 8 540.386 189.28 37
4 -4 9 1784.09 222.972 6
4 -4 9 1131.17 390.348 23
4 -4 9 1419.98 223.702 4
4 -4 9 1493.69 260.373 37
4 -4 10 641.714 159.745 6
4 -4 10 185.929 274.395 23
4 -4 10 283.601 151.853 11
4 -4 10 441.223 159.317 5
4 -4 10 209.275 183.797 37
4 -4 11 11386.8 644.152 6
4 -4 11 11195.2 651.088 11
4 -4 11 12250.7 647.118 5
4 -4 11 10672.1 723.744 37
4 -4 12 1317.27 238.498 33
4 -4 12 1309.96 185.802 6
4 -4 12 1963.21 204.6 5
4 -4 12 1558.43 224.469 11
4 -4 12 1432.36 256.908 37
4 -4 13 16567.7 912.742 33
4 -4 13 18404.4 885.769 11
4 -4 13 16915 950.456 37
4 -4 14 562.955 158.458 33
4 -4 14 896.613 203.576 30
4 -4 14 566.141 146.076 11
4 -4 15 670.087 134.646 33
4 -4 15 718.532 156.631 30
-4 3 13 38533.1 1893.26 12
-4 3 12 2282.8 387.769 15
-4 3 12 2870.18 460.729 13
-4 3 12 2444.76 435.152 12
-4 3 11 27889.2 1564.47 15
-4 3 11 28376.5 1636.71 13
-4 3 11 28227.5 1639.97 12
-4 3 11 29460.5 1507.75 18
-4 3 10 2588.52 448.59 15
-4 3 10 2675.08 481.287 13
-4 3 10 2917.24 520.516 12
-4 3 10 2660.83 470.603 30
-4 3 9 24053.4 1441.76 15
-4 3 9 23941.2 1435.56 30
-4 3 9 24380.3 1489.81 13
-4 3 9 25814.4 1553.39 12
-4 3 8 17921.6 932.42 17
-4 3 8 20563.5 1226.16 30
-4 3 8 19533.7 1207.36 15
-4 3 8 19898.1 1233.46 13
-4 3 7 8499.75 712.905 15
-4 3 7 9004.29 728.151 30
-4 3 7 8051.38 719.904 13
-4 3 7 6995.87 915.765 26
-4 3 7 8702.73 657.541 18
-4 3 7 7557.01 484.509 17
-4 3 6 256.27 285.609 15
-4 3 6 -26.006 271.333 30
-4 3 6 -59.7212 282.207 26
-4 3 6 201.753 276.287 13
-4 3 6 63.5816 200.31 18
-4 3 6 73.2914 108.571 17
-4 3 5 33223.6 1737.14 13
-4 3 5 33069.1 2153.01 26
-4 3 5 35873.2 1715.53 18
-4 3 5 31455.7 1537.13 17
4 -3 -5 34958.2 1836.71 1
4 -3 -4 17560 1115.62 1
-4 3 4 16432.6 999.053 13
-4 3 4 15663.4 1328.1 26
-4 3 4 17877.6 987.242 18
-4 3 4 15405.7 834.468 17
-4 3 3 16891.3 914.207 14
-4 3 3 18501.7 1054.95 13
-4 3 3 20729.9 1461.81 26
-4 3 3 18617.5 916.041 17
-4 3 2 42034.2 1913.4 14
-4 3 1 243814 10854.1 26
-4 3 1 243707 10734.4 25
-4 3 0 3378.84 532.887 26
-4 3 -1 158300 7207.82 26
-4 3 -1 157114 7169.18 25
-4 3 -2 318.044 235.164 26
-4 3 -2 301.196 259.648 25
-4 3 -3 58779.4 3117.95 26
-4 3 -3 63910.2 3150.81 25
4 -3 4 1322.57 155.489 6
4 -3 4 1102.7 169.798 37
4 -3 5 4492.6 304.207 6
4 -3 5 3991.72 563.735 23
4 -3 5 4120.27 291.453 4
4 -3 5 3847.94 322.761 37
4 -3 6 2994.88 512.956 23
4 -3 6 2481.55 402.394 1
4 -3 6 2449.78 240.594 4
4 -3 6 3442.45 303.367 37
4 -3 7 4782.12 339.243 6
4 -3 7 4952.51 684.058 23
4 -3 7 4435.51 324.573 11
4 -3 7 4613.65 346.367 4
4 -3 7 3655.56 482.112 1
4 -3 7 4562.03 380.737 37
4 -3 8 18997.7 956.365 6
4 -3 8 16937.5 1409.81 23
4 -3 8 18806.2 943.045 11
4 -3 8 18695.6 958.834 5
4 -3 8 19710.2 1037.43 37
4 -3 9 1733.13 225.108 6
4 -3 9 1675.71 226.398 11
4 -3 9 2143.32 232.77 5
4 -3 9 1207.35 244.442 37
4 -3 10 32303.9 1544.62 6
4 -3 10 29936.3 2139.46 23
4 -3 10 33277.8 1557.52 11
4 -3 10 33921.4 1550.74 5
4 -3 10 32540.7 1725.45 21
4 -3 10 32738.3 1656.26 37
4 -3 11 2432.76 239.723 6
4 -3 11 1307 436.993 23
4 -3 11 2055.6 236.699 5
4 -3 11 2022.28 260.62 11
4 -3 11 1620.64 334.053 21
4 -3 11 2147.46 313.656 37
4 -3 12 6725.28 439.172 6
4 -3 12 8291.94 503.048 11
4 -3 12 7833.94 574.544 37
4 -3 13 10956.7 701.247 33
4 -3 13 13315.3 683.222 11
4 -3 14 3722.46 315.313 33
4 -3 14 3098.45 344.518 30
4 -3 15 348.846 122.411 33
4 -3 15 327.187 152.471 30
-4 2 14 16510.2 923.536 15
-4 2 13 5002.96 580.203 15
-4 2 13 16528.5 848.246 12
-4 2 12 4432.13 544.944 15
-4 2 12 4485.12 568.114 13
-4 2 12 4137.58 528.766 12
-4 2 11 26.8695 349.153 15
-4 2 11 82.4231 292.102 30
-4 2 11 -233.841 246.055 29
-4 2 11 59.5022 329.691 13
-4 2 11 94.2571 331.971 12
-4 2 11 -41.6626 217.338 18
-4 2 10 616.403 357.123 15
-4 2 10 710.943 343.26 30
-4 2 10 345.687 243.08 29
-4 2 10 450.778 353.875 13
-4 2 10 266.251 352.302 12
-4 2 10 753.566 269.145 18
-4 2 9 1633.04 393.78 30
-4 2 9 1981.39 336.237 29
-4 2 9 1824.67 253.604 28
-4 2 9 2022.18 442.134 13
-4 2 9 2457.2 477.9 12
-4 2 9 2432.53 359.366 18
-4 2 8 4464.46 537.258 30
-4 2 8 4242.73 438.705 29
-4 2 8 4145.76 538.037 13
-4 2 8 4742.58 382.606 28
-4 2 8 4320.65 671.301 26
-4 2 8 5037.46 488.375 18
-4 2 8 3955.39 395.367 8
-4 2 7 2765.67 439.122 30
-4 2 7 3341.64 379.858 29
-4 2 7 3983.24 339.081 28
-4 2 7 3580.83 451.459 13
-4 2 7 4087.85 649.606 26
-4 2 7 3648 408.396 18
-4 2 6 16977.9 1026.91 15
-4 2 6 15869.2 805.546 17
-4 2 6 16832.3 1042.14 30
-4 2 6 15988.7 913.516 29
-4 2 6 16621.5 874.346 28
-4 2 6 15646.3 985.833 13
-4 2 6 19645 1430.35 26
4 -2 -6 15214.4 1015.28 1
-4 2 6 16720.9 978.896 18
4 -2 -5 212.131 156.777 1
-4 2 5 251.804 236.566 15
-4 2 5 41.9696 156.067 29
-4 2 5 145.691 140.284 28
-4 2 5 395.411 314.502 26
-4 2 5 188.237 208.715 13
-4 2 5 250.57 207.275 25
-4 2 4 93833.7 4253.86 15
-4 2 4 92314.1 4108.27 28
-4 2 4 105478 4755.11 26
-4 2 4 98783.5 4536.22 25
4 -2 -4 97081 4383.55 1
4 -2 -3 7067.52 614.915 1
-4 2 3 6887.7 685.669 25
4 -2 -2 36531.4 1925.51 1
-4 2 2 38515.5 2139.89 26
-4 2 2 34946.5 1996.5 25
-4 2 1 2027.86 419.435 26
4 -2 -1 2343.28 341.66 1
-4 2 0 20094.4 1323.84 26
-4 2 0 19130.7 1269.01 25
-4 2 -1 139008 6326.14 26
-4 2 -1 139744 6298.65 25
4 -2 2 120359 5357.13 1
-4 2 -2 118804 5436.9 26
-4 2 -2 115085 5421.81 25
4 -2 3 75587.1 3592.44 1
-4 2 -3 72463.6 3612.85 26
-4 2 -3 78324.5 3666.06 25
4 -2 4 52312.3 2392.06 6
-4 2 -4 52507.7 2721.65 26
-4 2 -4 57608.9 2822.04 25
4 -2 4 57789.6 2745.38 1
4 -2 4 57407.2 2451.23 37
4 -2 5 728.829 227.208 1
4 -2 5 537.248 155.868 37
-4 2 -5 639.663 267.954 25
4 -2 6 23623.7 1103.85 6
4 -2 6 23566.5 1562.43 23
4 -2 6 23332.5 1376.41 1
4 -2 6 21683.4 1072.25 11
4 -2 6 24342.5 1176.66 37
4 -2 7 1031.86 161.952 6
4 -2 7 1278.25 175.169 11
4 -2 7 1096.15 174.717 5
4 -2 7 1211.79 221.443 37
4 -2 7 1044.61 251.512 1
4 -2 8 15177.3 752.414 6
4 -2 8 13394 729.463 11
4 -2 8 13174.1 739.62 5
4 -2 8 14783.6 829.47 37
4 -2 9 24145.7 1233.09 6
4 -2 9 26192.8 1845.65 23
4 -2 9 26250.5 1254.98 11
4 -2 9 27167.5 1259.36 5
4 -2 10 8150.77 522.44 32
4 -2 10 9774.01 549.182 6
4 -2 10 9063.61 550.705 5
4 -2 10 9558.98 575.234 11
4 -2 10 9648.75 772.972 21
4 -2 11 29.2724 121.467 32
4 -2 11 126.38 165.594 3
4 -2 11 50.952 111.015 6
4 -2 11 146.754 159.59 11
4 -2 11 -102.403 263.657 21
4 -2 11 111.468 174.211 37
4 -2 12 10104.4 564.046 3
4 -2 12 7492.16 490.891 32
4 -2 12 10125.9 560.575 11
4 -2 12 7126.68 639.099 21
4 -2 12 8510.99 615.783 37
4 -2 13 176.175 158.168 37
4 -2 14 171.331 194.636 30
4 -2 15 330.858 115.473 33
4 -2 15 380.808 149.5 30
-4 1 14 5721.27 547.283 15
-4 1 13 941.565 292.805 29
-4 1 13 15285.9 747.75 12
-4 1 12 184.323 240.444 29
-4 1 12 795.665 294.262 12
-4 1 12 765.202 318.161 30
-4 1 11 135.714 293.899 30
-4 1 11 21.1285 210.352 29
-4 1 11 180.215 149.589 28
-4 1 11 -29.3653 321.721 13
-4 1 11 145.431 189.707 8
-4 1 11 269.48 302.236 12
-4 1 11 -19.6927 196.064 18
-4 1 10 137.045 293.196 15
-4 1 10 -81.7826 291.61 30
-4 1 10 -41.2232 228.407 29
-4 1 10 -91.5065 158.236 28
-4 1 10 -28.6948 308.815 13
-4 1 10 580.338 326.731 12
-4 1 10 81.9668 208.233 18
-4 1 10 -78.6018 187.148 8
-4 1 9 1288.3 269.726 8
-4 1 9 1784.39 387.8 15
-4 1 9 1453.92 362.082 30
-4 1 9 1229 286.419 29
-4 1 9 1832.45 246.168 28
-4 1 9 1626.19 401.282 13
-4 1 9 1223.08 392.793 26
-4 1 9 1678.31 386.662 12
-4 1 9 2257.7 328.131 18
-4 1 8 8455.36 707.25 15
-4 1 8 8950.54 624.409 29
-4 1 8 9076.41 727.169 30
-4 1 8 8724.93 570.922 28
-4 1 8 9197.14 720.016 13
-4 1 8 9128.23 958.142 26
-4 1 8 9519.33 763.649 12
-4 1 8 10011.7 673.403 18
-4 1 7 67.0738 227.199 15
-4 1 7 94.5809 260.532 30
-4 1 7 61.0935 166.343 29
-4 1 7 23.8747 150.564 28
-4 1 7 -63.4346 217.756 13
-4 1 7 -151.156 272.754 26
-4 1 7 158.635 159.011 25
-4 1 7 -37.3526 185.9 18
-4 1 6 5364.78 500.843 15
-4 1 6 4786.19 520.358 30
4 -1 -6 5735.89 538.922 1
-4 1 6 5209.08 424.701 29
-4 1 6 6466.21 418.143 28
-4 1 6 5808.58 501.938 13
-4 1 6 5643.1 722.734 26
-4 1 6 5841.29 615.002 25
-4 1 6 6617.93 504.124 18
-4 1 5 183.078 196.107 15
-4 1 5 277.7 144.123 28
-4 1 5 312.997 303.6 26
-4 1 5 258.632 205.914 25
4 -1 -5 229.525 168.048 1
-4 1 4 42761.3 2423.48 26
-4 1 4 41983.4 2264.99 25
4 -1 -4 43790.1 2184.25 1
4 -1 -3 1646.99 292.001 1
-4 1 2 6002.01 659.312 26
4 -1 -2 5974.3 549.071 1
-4 1 1 2452.57 436.269 26
4 -1 -1 2154.56 337.124 1
-4 1 0 7709.92 713.404 26
4 -1 0 6167.36 571.763 1
-4 1 -1 74624.4 3594.22 26
-4 1 -2 79337.3 3662.29 26
4 -1 2 73841.5 3574.75 1
-4 1 -3 61289.4 2901.92 26
4 -1 3 56776.1 2862.92 1
4 -1 4 13394.4 675.664 6
-4 1 -4 13309.3 904.397 26
-4 1 -4 15081.5 1003.32 25
4 -1 4 13459.6 926.954 1
4 -1 4 12490.4 664.751 5
4 -1 4 13874.1 732.486 37
4 -1 5 7887.91 665.107 1
-4 1 -5 9264.07 749.964 25
4 -1 5 7816.56 457.473 5
4 -1 6 2587.18 229.297 6
-4 1 -6 2402.95 383.583 25
4 -1 6 2025.06 330.692 1
4 -1 6 2516.47 225.28 11
4 -1 7 15094.1 779.607 6
4 -1 7 13639.1 1196.74 23
4 -1 7 14590.9 768.83 11
4 -1 7 14722.9 779.259 5
4 -1 7 16344.1 876.791 37
4 -1 8 49472.8 2191.26 6
4 -1 8 45742 2160.37 32
4 -1 8 49834.5 2818.65 23
4 -1 8 51074.5 2198.5 11
4 -1 8 45440.5 2182.11 5
4 -1 8 54728.4 2329.12 37
4 -1 9 5604.87 411.809 32
4 -1 9 6943.19 431.016 6
4 -1 9 6990.34 525.005 37
4 -1 9 5696.8 785.291 23
4 -1 9 6022.53 439.085 11
4 -1 10 2187.33 271.563 3
4 -1 10 1803.5 232.183 32
4 -1 10 1752.8 211.682 6
4 -1 10 1563.4 439.746 23
4 -1 10 2210.88 450.189 21
4 -1 10 2155.17 313.938 37
4 -1 11 594.044 162.787 32
4 -1 11 910.761 222.759 3
4 -1 11 732.888 318.342 21
4 -1 11 284.292 188.111 37
4 -1 12 2526.04 246.116 32
4 -1 12 2174.7 394.976 21
4 -1 12 2486.18 309.68 37
4 -1 13 448.554 174.752 33
4 -1 13 383.558 125.843 32
4 -1 13 164.847 205.671 30
4 -1 13 296.057 221.228 21
4 -1 14 63.7831 117.948 33
4 -1 14 88.9347 173.109 30
4 -1 15 -16.0267 116.708 30
-4 0 15 191.225 168.555 29
-4 0 14 9319.67 621.177 15
-4 0 14 1563.33 300.138 29
-4 0 13 2962.26 472.322 15
-4 0 13 1566.85 320.278 29
-4 0 12 52.2266 377.321 15
-4 0 12 882.029 297.678 30
-4 0 12 204.375 226.49 29
-4 0 12 661.701 250.731 8
-4 0 12 466.117 170.329 10
-4 0 11 3307.62 504.223 15
-4 0 11 3277.26 458.679 30
-4 0 11 3534.69 416.526 29
-4 0 11 3437.53 336.929 28
-4 0 11 2505.34 424.53 12
-4 0 11 3700.02 362.732 10
-4 0 11 3406.86 419.747 8
-4 0 10 12127.7 810.388 8
-4 0 10 11391.2 853.257 15
-4 0 10 9857.38 790.943 30
-4 0 10 12194 769.778 29
-4 0 10 11523.7 867.798 13
-4 0 10 11870.9 685.778 28
-4 0 10 10695.1 829.337 12
-4 0 10 10651.3 709.309 10
-4 0 9 44262.7 2206.67 15
-4 0 9 42582.6 2184.54 30
-4 0 9 45336.4 2114 29
-4 0 9 42883.6 2210.17 13
-4 0 9 47708.6 2056.84 28
-4 0 9 39340.1 2529.8 26
-4 0 9 41304.9 2193.58 12
-4 0 9 42678.8 2160.47 8
-4 0 8 5765.06 537.012 15
-4 0 8 5415.68 532.18 30
-4 0 8 5655.55 461.056 29
-4 0 8 5039.03 513.832 13
-4 0 8 6265.77 780.079 26
-4 0 8 5631.83 540.646 12
-4 0 7 15042.5 918.444 15
-4 0 7 13983.2 916.308 30
-4 0 7 13534.1 892.429 13
-4 0 7 14769.9 1051.14 25
4 0 -7 14462.1 973.428 1
-4 0 6 52662.4 2522.1 15
4 0 -6 55922.1 2675.77 1
4 0 -5 35995.2 1903.68 1
4 0 -4 15889.8 1029.26 1
4 0 -3 17870.2 1130.58 1
-4 0 3 18961.8 1235.23 24
-4 0 2 1312.6 325.949 24
4 0 -2 1202.59 274.123 1
4 0 -1 9355.31 733.309 1
-4 0 1 9803.27 777.423 24
-4 0 0 6292.53 603.921 24
4 0 1 173317 7628.85 1
4 0 2 10996.9 816.432 1
4 0 3 74632.4 3628.83 1
4 0 3 77962 3371.2 37
4 0 4 1056.72 270.17 1
4 0 4 772.558 145.601 5
4 0 4 932.049 178.179 37
4 0 5 78664.2 3489.73 6
4 0 5 78660.6 3482.33 5
4 0 5 87013.5 3575.38 37
4 0 5 80991.3 3804.1 1
4 0 6 6662.5 431.452 6
4 0 6 5946.01 584.609 1
4 0 7 48961.4 2258.22 6
4 0 7 50852 2846.41 23
4 0 7 52838.9 2368.17 37
4 0 8 6291.96 442.268 3
4 0 8 5096.38 458.851 37
4 0 8 5464.63 385.942 6
4 0 8 5056.65 716.373 23
4 0 9 9786.73 611.391 3
4 0 9 7847.68 520.954 32
4 0 9 7307.17 880.792 23
4 0 9 9601.04 628.556 37
4 0 10 6069.78 448.913 32
4 0 10 7206.43 536.019 37
4 0 11 2017.64 244.574 32
4 0 11 2479.69 441.375 21
4 0 11 1928.7 281.878 37
4 0 12 4816.97 344.989 32
4 0 12 4578.44 429.582 30
4 0 12 4903.97 516.574 21
4 0 13 963.383 148.532 32
4 0 13 992.271 220.966 30
4 0 13 1024.97 264.327 21
-4 -1 15 2230.94 282.353 29
-4 -1 14 25658.1 1024.2 15
-4 -1 14 7195.03 647.682 29
-4 -1 13 9505.49 719.296 15
-4 -1 13 6575.98 570.154 29
-4 -1 13 6959.22 529.092 10
-4 -1 13 8679.71 625.93 8
-4 -1 12 23992.9 1436.94 15
-4 -1 12 24705.9 1343.5 29
-4 -1 12 25495.2 1250.15 28
-4 -1 12 23953.6 1303.37 10
-4 -1 12 26743 1400.22 8
-4 -1 11 9336.17 766.023 15
-4 -1 11 7229.37 646.007 30
-4 -1 11 10037.7 675.451 29
-4 -1 11 8436.66 662 12
-4 -1 11 9802.18 664.911 10
-4 -1 11 9358.59 720.077 8
-4 -1 10 1215.07 363.576 15
-4 -1 10 1509.6 318.209 30
-4 -1 10 1558.06 340.937 8
-4 -1 10 1366.11 411.257 26
-4 -1 9 53685.9 2591.99 15
-4 -1 9 53472.5 3034.46 26
-4 -1 8 20708.9 1116.59 15
-4 -1 8 17018.2 943.266 27
-4 -1 7 20197.6 1078.1 15
-4 -1 7 15905.5 914.571 27
4 1 -7 17478.2 1168.36 1
-4 -1 7 19770 888.585 36
-4 -1 6 10054.8 720.093 15
-4 -1 6 12830 1032.88 24
-4 -1 6 12312 618.809 36
4 1 -6 12922.7 916.166 1
-4 -1 5 4329.31 303.31 36
-4 -1 5 5231.22 636.63 24
4 1 -5 5522.9 558.942 1
4 1 -4 15173.1 1032.94 1
-4 -1 3 5024.88 582.812 24
4 1 -3 3975.13 487.928 1
-4 -1 2 196456 8916.29 24
4 1 -2 208008 8895.82 1
-4 -1 1 4075.53 531.996 24
4 1 -1 4599.22 509.976 1
-4 -1 0 246975 10730.4 24
-4 -1 -1 5926.65 588.709 24
4 1 1 5297.77 561.783 1
4 1 2 122643 5309.59 6
-4 -1 -2 125146 5647.84 24
-4 -1 -2 125833 5305.14 36
4 1 2 132545 5721.89 1
4 1 3 3206.71 265.09 3
4 1 3 2575.41 401.626 1
-4 -1 -3 2162.83 347.472 24
4 1 3 2613.75 262.706 37
-4 -1 -3 2429.41 223.801 36
4 1 4 34235.5 1741.39 6
4 1 4 39219.2 1815.89 37
4 1 4 37373.5 2071.4 1
-4 -1 -4 37892.7 1729.24 36
4 1 5 179.433 152.99 3
4 1 5 92.9896 159.741 1
4 1 5 194.353 140.269 37
4 1 6 18909.7 1017 37
4 1 7 3821.91 630.21 23
4 1 7 4497.71 406.381 37
4 1 8 23550.9 1509.6 21
4 1 8 24757.3 1310.44 37
4 1 9 1969.8 441.752 21
4 1 9 2666.69 304.517 37
4 1 10 4455.23 346.617 32
4 1 10 4037.3 412.787 30
4 1 10 3842.58 529.615 21
4 1 11 13628.8 720.839 32
4 1 11 12625.8 785.784 30
4 1 11 14519 934.935 21
4 1 12 7025.75 423.966 32
4 1 13 836.251 124.471 32
-4 -2 16 983.111 169.517 29
-4 -2 15 766.268 207.124 29
-4 -2 14 6128.06 489.535 29
-4 -2 14 5885.19 448.332 10
-4 -2 13 1233.84 275.818 29
-4 -2 13 1048.31 209.91 28
-4 -2 13 1073.4 268.559 10
-4 -2 13 1450.67 312.628 8
-4 -2 12 18054.6 1115.9 15
-4 -2 12 17460.1 1033.7 10
-4 -2 11 4178.58 535.341 15
-4 -2 11 4875.43 480.008 10
-4 -2 10 -370.107 363.585 15
-4 -2 10 -59.8593 175.1 27
-4 -2 9 -282.464 331.719 15
-4 -2 9 329.727 171.809 27
-4 -2 8 19.8545 258.053 15
-4 -2 8 122.62 140.547 27
-4 -2 8 346.981 268.39 24
-4 -2 7 7482.8 599.879 15
-4 -2 7 7340.88 494.984 27
-4 -2 7 8730.13 906.959 24
4 2 -7 8271.79 759.226 1
4 2 -7 8640.34 475.85 2
-4 -2 7 8501.62 481.144 36
-4 -2 6 1509.34 186.488 36
4 2 -6 1245.1 165.451 2
-4 -2 6 1773.36 429.937 24
4 2 -6 1038.54 295.282 1
4 2 -5 96738.5 4570.04 1
-4 -2 5 96364.7 4139.37 36
-4 -2 4 4654.25 628.231 24
4 2 -4 4317.01 541.487 1
-4 -2 4 4849.36 331.958 36
-4 -2 3 50941.9 2311.24 36
-4 -2 3 55321.9 2805.42 24
4 2 -3 56817.6 2757.19 1
-4 -2 2 1662.4 370.189 24
4 2 -2 1343.19 318.383 1
-4 -2 1 65220.5 3287.66 24
-4 -2 1 65684 2860.91 36
-4 -2 0 18173.9 1227.59 24
4 2 0 19453.1 1259.96 1
-4 -2 0 17393.8 880.898 36
-4 -2 -1 28466.4 1754.15 24
4 2 1 31764.9 1822.03 1
-4 -2 -1 27582 1407.1 36
-4 -2 -2 12070.8 944.863 24
4 2 2 12373.5 987.492 1
4 2 2 12193.6 665.962 2
4 2 2 12228.1 707.299 37
-4 -2 -2 12170.2 669.001 36
4 2 3 9382.18 858.797 1
4 2 3 9523.14 559.272 2
4 2 3 10778.3 623.177 37
-4 -2 -3 9792.64 568.986 36
4 2 4 7243.76 724.011 1
4 2 4 6434.1 429.086 2
4 2 4 7511.98 497.73 37
4 2 5 11720.5 722.068 37
4 2 5 14307 788.912 3
4 2 6 13966.9 973.5 21
4 2 6 13529.6 774.728 37
4 2 7 12217.6 935.662 21
4 2 7 11587.1 714.602 37
4 2 8 28.1285 283.902 21
4 2 9 12540.4 910.571 21
4 2 10 778.065 178.061 32
4 2 10 690.33 300.291 21
4 2 10 463.859 194.908 20
4 2 10 740.547 194.169 19
4 2 11 8225.09 473.766 32
4 2 11 8449.62 618.722 21
4 2 11 7309.46 476.133 19
4 2 12 194.406 106.886 32
-4 -3 16 222.401 112.068 29
-4 -3 15 242.786 161.071 29
-4 -3 15 10.6991 131.414 10
-4 -3 14 1062.76 238.781 29
-4 -3 14 1103.94 234.668 10
-4 -3 13 34.9355 178.743 10
-4 -3 13 193.816 230.128 8
-4 -3 12 103.832 187.912 27
-4 -3 12 119.063 209.673 10
-4 -3 12 -128.749 232.327 8
4 3 -11 787.758 314.011 16
-4 -3 11 740.492 218.262 27
-4 -3 11 1422.46 330.295 8
-4 -3 10 481.928 195.223 27
-4 -3 10 468.347 308.359 24
-4 -3 10 458.183 263.545 8
-4 -3 9 3194.35 410.54 15
-4 -3 9 2977.53 317.407 27
-4 -3 9 3155.25 581.822 24
-4 -3 9 3198.18 416.581 8
4 3 -8 313.208 121.886 2
4 3 -8 293.137 232.399 1
-4 -3 8 295.91 154.697 27
-4 -3 8 271.739 287.413 24
-4 -3 8 355.201 130.951 36
4 3 -7 2831.23 503.673 1
-4 -3 7 3019.45 558.992 24
4 3 -7 3088.84 264.172 2
-4 -3 7 2821.55 269.606 36
4 3 -6 6453.26 717.226 1
-4 -3 6 6587.57 788.297 24
4 3 -6 5783.54 397.056 2
-4 -3 6 6148.3 416.878 36
4 3 -5 10291.4 926.793 1
4 3 -5 10898.9 571.991 2
-4 -3 5 8563 551.729 36
-4 -3 4 5048.51 686.005 24
4 3 -4 5083.95 643.445 1
4 3 -4 5959.99 385.748 2
-4 -3 4 5031.2 377.285 36
-4 -3 3 3923.3 591.964 24
4 3 -3 4222.14 589.08 1
4 3 -3 4220.18 322.765 2
4 3 -2 238.08 125.804 2
-4 -3 2 175.004 231.207 24
4 3 -2 214.025 247.787 1
-4 -3 2 30.9961 119.73 36
-4 -3 1 16420.1 1277.38 24
4 3 -1 18445.9 902.059 2
-4 -3 1 17276 902.6 36
4 3 0 90.0838 113.493 2
-4 -3 0 -83.3305 246.131 24
4 3 0 86.8649 211.585 1
-4 -3 0 212.087 132.049 36
4 3 1 230.281 118.442 2
-4 -3 -1 80.8175 223.983 24
4 3 1 43.7682 213.27 1
4 3 1 70.4093 116.977 37
-4 -3 -1 247.204 144.9 36
4 3 2 19.8661 118.534 2
4 3 2 176.118 226.728 1
4 3 2 94.1251 112.084 37
-4 -3 -2 32.4344 135.185 36
4 3 3 723.03 151.859 2
4 3 3 521.363 268.337 1
-4 -3 -3 794.911 171.962 36
4 3 4 10308.2 946.334 1
4 3 4 11053.8 597.621 2
4 3 4 11111.8 805.378 21
4 3 5 -25.3001 246.455 21
4 3 6 6534.11 613.918 21
4 3 7 18854.2 1153.55 21
4 3 8 2725.33 421.65 21
4 3 8 3389.12 341.913 19
4 3 9 9294.44 667.833 21
4 3 9 8139.88 563.862 20
4 3 10 1477.41 194.238 32
4 3 10 1708.81 224.834 20
4 3 10 1689.03 215.823 19
4 3 11 563.569 121.079 32
4 3 11 505.765 125.071 19
4 3 11 176.851 139.471 18
-4 -4 15 473.075 145.9 29
-4 -4 14 36.4029 150.345 29
-4 -4 13 2226.31 320.222 8
-4 -4 12 263.549 168.699 27
-4 -4 12 183.824 221.695 10
-4 -4 12 303.906 225.736 8
-4 -4 11 1086.2 228.25 27
-4 -4 11 1240.21 285.071 8
4 4 -10 719.452 321.569 16
-4 -4 10 792.734 206.254 27
-4 -4 10 651.085 340.374 24
-4 -4 10 568.178 250.253 8
-4 -4 9 4807.96 399.657 27
-4 -4 9 4827.71 734.315 24
4 4 -9 4836.83 337.699 2
-4 -4 9 5168.15 484.92 8
-4 -4 9 5023.83 357.281 36
-4 -4 8 6199.77 833.168 24
4 4 -8 5224.24 373.461 2
-4 -4 8 5160.21 494.469 8
-4 -4 8 5592.37 393.749 36
4 4 -7 7181.01 842.645 1
-4 -4 7 9121.94 986.184 24
4 4 -7 8700.74 518.053 2
-4 -4 7 8350.16 527.398 36
-4 -4 6 8505.17 531.764 7
4 4 -6 8827.51 937.813 1
4 4 -6 9396.32 551.254 2
-4 -4 6 9401.23 564.658 36
4 4 -5 10325.2 1044.18 1
-4 -4 5 11054.6 1114.43 24
4 4 -5 11549.3 641.648 2
-4 -4 5 10816.1 646.794 36
4 4 -4 7885.94 881.164 1
4 4 -4 8020.18 510.955 2
4 4 -3 18079.7 1430.57 1
4 4 -3 19788.9 998.003 2
-4 -4 2 907.091 193.028 36
4 4 -1 817.363 182.829 2
4 4 -1 675.811 332.582 1
-4 -4 1 966.885 203.334 36
4 4 0 24110.7 1703.64 1
-4 -4 0 23321.8 1668.81 24
4 4 0 24291.8 1201.63 2
-4 -4 0 25067.4 1224.5 36
4 4 1 211.042 142.291 2
4 4 1 205.005 270.945 1
-4 -4 -1 94.0444 242.336 24
-4 -4 -1 374.902 161.358 36
-4 -4 -2 40823.4 1864.85 36
4 4 2 39383.2 1832.89 2
4 4 3 214.66 119.479 2
-4 -4 -3 148.205 143.367 36
4 4 4 35716.6 1798.51 21
4 4 5 443.804 240.759 21
4 4 5 715.993 209.262 19
4 4 6 23599.7 1301.24 21
4 4 6 24696.5 1235.65 19
4 4 7 5867.08 509.499 21
4 4 7 6502.98 458.374 19
4 4 8 10262.4 654.627 20
4 4 8 11572.2 638.506 19
4 4 9 1907.53 194.477 32
4 4 9 1641.2 217.378 20
4 4 9 1609.25 195.967 19
4 4 10 666.38 115.898 32
4 4 10 656.247 118.055 20
-4 -5 15 210.69 107.563 10
-4 -5 14 1051.63 174.614 29
-4 -5 14 2171.4 228.614 10
-4 -5 13 517.114 191.935 10
-4 -5 12 8812.97 577.29 10
-4 -5 12 9457.53 583.869 8
-4 -5 11 5418.01 412.532 27
-4 -5 11 6333.15 492.456 8
-4 -5 10 9796.16 615.406 27
-4 -5 10 12070.1 721.635 8
4 5 -9 230.748 129.234 2
-4 -5 9 215.254 196.654 8
-4 -5 9 128.973 125.363 36
-4 -5 8 13972.9 1283.48 24
4 5 -8 13714.9 720.715 2
-4 -5 8 13101.1 817.462 8
-4 -5 8 13879.5 740.565 36
4 5 -8 10667 1115.15 16
-4 -5 7 1315.04 201.66 7
-4 -5 7 1856.53 515.001 24
4 5 -7 1921.29 227.999 2
-4 -5 7 1962.03 293.832 8
-4 -5 7 1861.65 244.18 36
-4 -5 6 9609.5 583.346 7
4 5 -6 10786.8 601.151 2
-4 -5 6 10581.4 612.059 36
-4 -5 5 14734.9 783.53 7
4 5 -5 13598.9 769.258 2
-4 -5 5 13811.8 792.647 36
4 5 -4 679.892 187.974 2
4 5 -3 30086.5 1492.13 2
-4 -5 3 32696.5 1529.18 36
-4 -5 2 639.984 207.682 36
4 5 -1 35739.2 1697.85 2
-4 -5 1 36668.9 1727.13 36
-4 -5 0 9584.59 1032.26 24
4 5 0 11828.1 658.86 2
-4 -5 0 11118.9 680.38 36
4 5 1 65341.7 2734.54 2
4 5 1 56060.4 2705.38 19
-4 -5 -1 64026.5 2766.91 36
4 5 2 14188.4 731.601 2
4 5 2 12836.8 744.696 19
-4 -5 -2 14185.3 765.742 36
4 5 3 44177.2 2002.68 19
-4 -5 -3 42812.8 1962.94 36
4 5 4 2015.78 250.294 19
4 5 5 2937.5 331.772 20
4 5 5 3218.16 302.324 19
4 5 6 4034.69 366.734 20
4 5 6 4212.31 324.27 19
4 5 7 9891.46 575.016 20
4 5 7 9326.06 530.254 19
4 5 8 12.8854 94.4476 19
-4 -6 14 72.6094 80.6066 10
-4 -6 13 4049.5 303.849 10
-4 -6 12 262.011 137.516 10
-4 -6 11 2197.7 267.645 10
4 6 -10 177.649 92.5834 2
4 6 -9 1923 199.679 2
4 6 -8 2250.93 235.256 2
-4 -6 8 2636.12 257.68 36
4 6 -7 306.967 148.564 2
-4 -6 7 313.785 130.289 7
-4 -6 7 374.553 170.132 36
-4 -6 6 11746.1 672.435 7
4 6 -6 12415.2 683.536 2
-4 -6 6 12260.1 698.158 36
-4 -6 5 1719.65 231.548 7
4 6 -5 2052.23 247.389 2
-4 -6 4 29409.3 1421.34 7
4 6 -4 29423.8 1412.93 2
-4 -6 4 29225.4 1437.45 36
-4 -6 3 16204.4 888.426 36
4 6 -2 17317 911.908 2
-4 -6 2 17724.2 941.201 36
4 6 -1 953.682 186.805 2
-4 -6 1 869.763 207.324 36
4 6 0 19636.6 952.054 2
-4 -6 0 21806 1003.52 36
4 6 1 15091.6 756.031 2
-4 -6 -1 16357.2 798.084 36
4 6 2 3369.36 328.004 20
4 6 2 3012.98 256.227 19
-4 -6 -2 3166.08 273.406 36
4 6 3 1557.75 236.916 20
4 6 3 1533.62 187.18 19
4 6 4 3079.84 286.226 20
4 6 4 2693.31 235.131 19
4 6 5 203.198 129.235 20
4 6 5 111.175 97.5942 19
4 6 6 2167.5 199.354 20
-4 -7 11 -39.7017 83.1071 10
-4 -7 10 40.3864 98.7072 10
4 7 -10 26.6618 64.9416 2
4 7 -9 265.452 99.3509 2
-4 -7 9 550.895 135.871 10
4 7 -8 68.8346 100.228 2
-4 -7 8 39.1326 112.878 36
4 7 -7 3729.58 287.86 2
-4 -7 7 4026 304.994 36
4 7 -6 2525.19 246.968 2
-4 -7 6 3238.31 273.452 36
-4 -7 6 2619.77 246.594 7
-4 -7 5 1731.86 208.231 7
4 7 -5 1614.76 210.63 2
-4 -7 4 4860.64 365.27 7
-4 -7 4 5926.36 392.909 36
-4 -7 3 719.163 168.904 7
-4 -7 3 968.778 183.431 36
4 7 -3 741.086 162.9 2
-4 -7 2 3889 315.756 7
4 7 -2 3343.72 283.464 2
-4 -7 2 3917.69 312.235 36
4 7 -1 1314.86 170.855 2
-4 -7 1 1336.03 196.339 36
-4 -7 0 175.325 118.18 36
-4 -7 -1 203.067 98.3742 36
4 7 2 167.082 88.537 20
4 8 -8 1694.33 143.929 2
4 8 -7 626.702 110.242 2
-4 -8 7 876.309 117.701 36
4 8 -6 2398.86 193.307 2
-4 -8 5 1206.73 146.066 36
4 8 -5 830.15 133.195 2
-4 -8 5 1076.89 129.957 7
-4 -8 4 2179.95 191.863 36
-4 -8 4 1997.04 182.546 7
-4 -8 3 36.6715 89.6145 7
4 8 -3 -17.083 81.5752 2
-4 -8 3 130.393 94.9884 36
-4 -8 2 2785.99 204.995 7
4 8 -2 2273.97 184.61 2
-4 -8 2 2887.09 202.537 36
-4 -8 1 562.576 101.364 7
-5 9 0 3652.71 378.097 13
-5 9 -1 506.619 237.366 13
-5 9 -2 720.051 253.886 13
-5 9 -3 6558.28 532.793 13
-5 9 -4 904.4 264.954 13
5 -9 5 3064.14 205.834 6
-5 9 -5 3996.8 396.987 13
5 -9 6 45.2035 67.152 6
5 -9 7 2248.48 170.392 6
5 -9 8 2376.32 171.742 6
5 -9 9 10081.9 481.192 6
5 -9 9 9920.87 475.593 5
5 -9 10 105.789 47.8007 6
-5 8 4 -48.7034 210.963 13
-5 8 3 3626.04 433.497 13
-5 8 2 3602.33 450.827 13
-5 8 1 22.9429 279.035 13
-5 8 0 2320.49 428.574 13
-5 8 -1 4904.14 486.612 15
-5 8 -1 5387.7 576.704 13
-5 8 -2 8396.86 550.767 14
-5 8 -2 9452.34 740.515 13
5 -8 3 3136.91 236.965 6
5 -8 4 2923.99 234.351 6
5 -8 5 2070.67 199.248 6
5 -8 6 5832.09 365.16 6
5 -8 7 -15.6769 96.2296 6
5 -8 8 528.534 124.724 6
5 -8 9 3011.58 229.225 6
5 -8 10 1615.53 153.952 6
5 -8 10 1336.37 144.68 5
5 -8 12 1552.7 116.735 6
-5 7 7 506.992 231.942 13
-5 7 6 -307.638 265.922 13
-5 7 6 17.7062 214.417 12
-5 7 5 6502.3 598.387 13
-5 7 5 5655.84 542.635 12
-5 7 4 2026.6 422.168 13
-5 7 3 466.431 255.667 15
-5 7 3 26.9657 312.317 13
-5 7 2 5219.95 536.449 15
-5 7 2 5105.87 602.843 13
-5 7 1 4905.17 552.889 15
-5 7 1 4263.98 399.674 14
-5 7 1 4823.4 584.586 13
-5 7 0 7055.47 518.66 14
-5 7 0 6272.05 685.426 13
-5 7 -1 61.9448 173.568 14
-5 7 -2 5550.48 445.412 14
5 -7 2 5783.6 361.083 6
-5 7 -3 161.158 157.169 14
5 -7 3 362.557 121.877 6
5 -7 4 3331.08 275.212 6
5 -7 5 149.614 110.703 6
5 -7 6 130.666 122.939 6
5 -7 7 437.521 136.667 6
5 -7 8 115.221 118.514 6
5 -7 9 3684.93 289.073 6
5 -7 10 1742.27 184.358 5
5 -7 11 1355.1 159.951 6
5 -7 11 1440.74 154.606 5
5 -7 12 987.876 121.074 6
-5 6 9 1562 284.653 13
-5 6 9 1254.63 242.018 12
-5 6 8 100.086 266.535 13
-5 6 8 160.461 244.005 12
-5 6 7 896.319 335.183 13
-5 6 7 323.662 289.116 12
-5 6 6 588.657 270.638 15
-5 6 6 952.071 359.079 13
-5 6 6 1004.77 352.329 12
-5 6 5 14797.3 978.595 15
-5 6 5 15154.7 1050.04 13
-5 6 4 1508.71 377.9 15
-5 6 4 1552.01 424.853 13
-5 6 3 5275.79 607.332 15
-5 6 3 6944.31 689.32 13
-5 6 2 25685.5 1474.89 15
-5 6 2 23075.6 1476.37 13
-5 6 1 3433.69 366.255 14
-5 6 1 3317.15 530.743 13
-5 6 0 34119.6 1679.75 14
-5 6 -1 4214.86 396.812 14
-5 6 -2 125.657 150.836 14
5 -6 2 133.306 102.618 6
-5 6 -3 1780.79 260.417 14
5 -6 3 2208.4 224.325 6
5 -6 4 8758.37 524.227 6
5 -6 5 434.484 141.12 6
5 -6 6 8620.46 528.988 6
5 -6 7 8370.43 519.602 6
5 -6 8 22.1249 130.025 6
5 -6 8 -12.1395 125.015 37
5 -6 9 18024 936.172 37
5 -6 10 250.018 130.551 5
5 -6 10 115.602 118.487 37
5 -6 11 7925.22 465.566 6
5 -6 11 8074.04 460.164 5
5 -6 12 936.377 135.207 6
-5 5 10 18.361 232.596 13
-5 5 9 104.27 218.367 15
-5 5 9 341.509 288.521 13
-5 5 8 759.265 296.464 15
-5 5 8 967.588 367.166 13
-5 5 7 14139.1 991.036 15
-5 5 7 16617.9 1081.96 13
-5 5 6 1185.43 372.305 15
-5 5 6 1425.8 406.68 13
-5 5 5 52193.9 2508.2 15
-5 5 5 52198.2 2524.3 13
-5 5 5 45854.2 2211.03 17
-5 5 4 20538.8 1244.7 15
-5 5 4 20255 1244.94 13
-5 5 4 17071.4 965.65 17
-5 5 3 53833.4 2632.64 15
5 -5 -3 57732.2 2927.63 1
-5 5 3 50693.6 2598.68 13
-5 5 3 49163.5 2351.59 17
-5 5 2 7331.21 698.971 13
-5 5 1 27294.4 1395.35 14
-5 5 1 27960.6 1582.85 13
-5 5 0 2024.86 272.091 14
-5 5 -1 9907.68 640.91 14
5 -5 1 10216.8 556.8 6
5 -5 2 8310.56 486.213 6
5 -5 3 1323.72 178.556 6
5 -5 4 36284 1659.32 6
5 -5 4 34066 2109.25 23
5 -5 5 6893.6 435.261 6
5 -5 5 5972.99 744.221 23
5 -5 5 5798.21 431.882 37
5 -5 6 20610.4 1025.62 6
5 -5 6 18576.3 1476.06 23
5 -5 6 20207.9 1051.82 37
5 -5 7 5614.92 690.277 1
5 -5 7 6455.08 431.367 6
5 -5 7 4848.99 726.939 23
5 -5 7 5823.7 445.866 37
5 -5 8 17325.5 880.801 6
5 -5 8 16826.6 918.611 37
5 -5 9 29492.3 1318.54 5
5 -5 9 24092.9 1333.27 37
5 -5 10 15320.6 813.122 6
5 -5 10 15919.8 810.924 5
5 -5 10 14811.6 856.106 37
5 -5 11 2545.46 269.173 33
5 -5 11 3083.86 264.737 6
5 -5 11 2768.59 307.918 37
5 -5 12 311.287 124.042 33
5 -5 12 207.607 105.154 6
5 -5 12 284.069 152.258 37
5 -5 13 252.631 107.29 33
5 -5 14 517.106 117.604 30
-5 4 12 11421.4 682.994 12
-5 4 11 -246.036 236.865 15
-5 4 11 -19.491 252.243 13
-5 4 11 243.214 266.629 12
-5 4 10 18305.7 1087.44 15
-5 4 10 18835.6 1150.07 13
-5 4 10 19440.7 1183.93 12
-5 4 9 1043.01 347.679 15
-5 4 9 1588.39 400.302 13
-5 4 9 1916.37 471.292 12
-5 4 8 17711 1181.83 15
-5 4 8 20084.6 1248.47 13
-5 4 8 20407.4 1309.3 12
-5 4 7 1360.63 404.846 15
-5 4 7 1576.24 406.669 13
-5 4 6 43838.6 2280.66 15
-5 4 6 43409 2264.65 13
-5 4 5 392.108 322.881 13
-5 4 4 29671.8 1622.95 13
-5 4 4 26256.2 2085.11 26
5 -4 -4 29951.6 1819.09 1
-5 4 3 2345.49 408.319 13
5 -4 -3 2727.46 476.195 1
5 -4 -2 25343.2 1589.86 1
-5 4 2 21955.2 1305.21 13
-5 4 2 20549.8 1728.27 26
-5 4 1 1601.01 507.73 26
-5 4 1 1276.61 320.038 13
-5 4 0 10527.1 1119.35 26
5 -4 1 20987.7 999.273 6
-5 4 -1 21864 1659.91 26
5 -4 1 19794.3 1349.17 23
5 -4 2 25765.3 1184.27 6
-5 4 -2 23133.3 1773.51 26
5 -4 2 23618.5 1574.5 23
5 -4 2 24865.2 1210.69 37
5 -4 3 52576.7 2335.06 6
5 -4 3 49181.6 2796.33 23
5 -4 3 53635.8 2375.26 37
5 -4 4 75893.6 3195.34 6
5 -4 4 68080.4 3702.26 23
5 -4 4 70978.4 3225.96 37
5 -4 5 8328.37 859.376 1
5 -4 5 8175.89 511.15 6
5 -4 5 8021.82 884.277 23
5 -4 5 8912.12 557.972 37
5 -4 6 12821 697.608 6
5 -4 6 11902.4 1120.6 23
5 -4 6 12186.5 734.81 37
5 -4 6 12203.7 1052.16 1
5 -4 7 9481.08 560.661 6
5 -4 7 8349.88 943.729 23
5 -4 7 7121.26 779.39 1
5 -4 7 8992.03 599.034 37
5 -4 8 20728.8 1652.16 23
5 -4 8 23123.8 1198.63 37
5 -4 9 1970.46 241.207 6
5 -4 9 1926.07 484.013 23
5 -4 9 2069.5 250.838 5
5 -4 9 1939.51 290.127 37
5 -4 10 3975.3 326.239 6
5 -4 10 3591.3 288.264 11
5 -4 10 4023.92 325.479 5
5 -4 10 3236.77 367.68 37
5 -4 11 3924.18 308.207 6
5 -4 11 3210.59 273.559 11
5 -4 11 4030.46 311.312 5
5 -4 11 3918.79 374.4 37
5 -4 12 23.0671 129.253 33
5 -4 12 8.40203 102.187 6
5 -4 12 -13.6386 140.454 37
5 -4 13 1566.08 200.28 33
5 -4 13 1578.13 216.309 37
5 -4 14 402.228 113.282 33
5 -4 14 87.8007 129.595 30
-5 3 13 5389.53 405.535 15
-5 3 12 200.036 254.545 15
-5 3 12 828.111 267.075 12
-5 3 11 8111.65 651.058 15
-5 3 11 6891.4 641.354 13
-5 3 11 6223.6 624.365 12
-5 3 10 2815.47 446.942 15
-5 3 10 2175.94 433.611 13
-5 3 10 2341.16 459.684 12
-5 3 9 1939.46 426.558 13
-5 3 9 2745.41 497.027 12
-5 3 8 367.262 297.01 13
-5 3 7 3850.47 503.451 13
-5 3 7 3444.43 678.639 26
-5 3 6 916.32 377.298 15
-5 3 6 362.46 300.442 13
-5 3 6 416.555 348.624 26
-5 3 5 16734.2 1083.33 15
-5 3 5 15382.5 1010.6 13
-5 3 5 16446 1470.84 26
5 -3 -5 15660.6 1147.79 1
-5 3 4 13586 936.01 15
-5 3 4 12857.7 862.47 13
-5 3 4 13802.6 1303.74 26
5 -3 -4 11512 983.04 1
-5 3 3 17454.1 1064.81 15
-5 3 3 14829 955.466 13
5 -3 -3 15702.2 1168.97 1
5 -3 -2 358.436 230.814 1
-5 3 2 607.527 373.117 26
-5 3 2 287.909 204.44 13
-5 3 2 50.2013 290.786 25
5 -3 -1 44312.9 2439.55 1
-5 3 1 44721.2 2681.07 26
-5 3 1 44113.3 2576.93 25
5 -3 0 13427.8 1052.8 1
-5 3 0 13747.5 1226.17 26
5 -3 0 13317.2 716.087 37
5 -3 1 32711.1 1487.87 6
-5 3 -1 34215.3 2134.31 26
-5 3 -1 33753.9 2079.83 25
5 -3 1 32515.2 1536.19 37
5 -3 2 688.591 291.371 1
-5 3 -2 153.873 271.308 26
-5 3 -2 393.694 290.987 25
5 -3 2 245.029 102.699 6
5 -3 2 439.014 137.833 37
5 -3 3 56145.8 2861.76 1
5 -3 3 52946.8 2363.75 6
-5 3 -3 52465.8 2930.6 26
-5 3 -3 54705.8 2971.83 25
5 -3 3 52941.9 2407.21 37
-5 3 -4 507.51 283.838 26
5 -3 4 333.946 126.407 6
5 -3 4 371.35 239.541 1
5 -3 4 726.844 172.069 37
5 -3 5 17562.6 888.857 6
5 -3 5 17862.8 1362.14 23
5 -3 5 15308.6 1208.76 1
5 -3 5 17621.7 943.719 37
5 -3 6 6469.86 433.402 6
5 -3 6 6652.52 821.592 23
5 -3 6 6228.39 685.137 1
5 -3 6 6469.7 434.826 5
5 -3 6 5651.59 460.868 37
5 -3 7 186.132 201.673 1
5 -3 7 286.769 262.517 23
5 -3 7 148.802 177.035 37
5 -3 8 6207.94 492.113 37
5 -3 8 6127.36 429.359 6
5 -3 8 4734.92 743.077 23
5 -3 9 4650.44 433.422 37
5 -3 9 5024.81 383.939 6
5 -3 9 4559.74 345.624 11
5 -3 9 5162.11 388.458 5
5 -3 10 4544.54 354.107 6
5 -3 10 4439.04 333.369 11
5 -3 10 4478.33 355.831 5
5 -3 10 4425.68 503.953 21
5 -3 10 4531.81 431.794 37
5 -3 11 2005.54 223.616 6
5 -3 11 1708.46 324.525 21
5 -3 11 2103.43 289.582 37
5 -3 12 1356.34 198.566 3
5 -3 12 1305.06 236.336 37
5 -3 13 2846.79 271.169 33
5 -3 14 1018.89 147.823 33
5 -3 14 702.284 165.556 30
-5 2 13 2016.13 415.193 15
-5 2 13 27434.4 855.799 12
-5 2 12 862.67 267.149 12
-5 2 11 474.452 316.687 13
-5 2 11 266.799 292.658 12
-5 2 10 2398.94 440.751 15
-5 2 10 2277.92 439.469 13
-5 2 10 2107.73 438.379 12
-5 2 9 -28.0934 321.755 15
-5 2 9 189.497 311.691 13
-5 2 9 -95.3149 314.012 12
-5 2 8 253.325 310.15 15
-5 2 8 57.4981 205.041 29
-5 2 8 -15.0551 181.391 28
-5 2 8 -52.3842 280.194 13
-5 2 8 195.828 278.039 26
-5 2 8 128.064 175.599 8
-5 2 7 3641.82 488.423 15
-5 2 7 2960.26 354.967 29
-5 2 7 3630.04 359.931 28
-5 2 7 2630.7 430.164 13
-5 2 7 3514.24 677.881 26
-5 2 6 1304.63 351.052 15
-5 2 6 1637.8 259.592 28
-5 2 6 1580.69 331.731 13
-5 2 6 1492 482.226 26
5 -2 -6 1135.96 298.67 1
5 -2 -5 1543.84 333.467 1
-5 2 5 1058.93 309.934 15
-5 2 5 1806.12 491.044 26
-5 2 5 1206.03 280.213 13
-5 2 5 1343.97 371.264 25
-5 2 4 53052.2 2587.74 15
-5 2 4 54091.3 2933.92 25
5 -2 -4 53935 2775.34 1
-5 2 3 3387.79 422.865 15
-5 2 3 2527.66 284.291 28
-5 2 3 2811.85 567.23 26
-5 2 3 2469.69 487.416 25
5 -2 -3 2491.27 418 1
-5 2 3 2825.42 252.663 36
-5 2 2 19461.4 1016.29 28
-5 2 2 21179.7 1536.51 26
-5 2 2 22042.7 1461.87 25
5 -2 -2 21069.9 1340.57 1
-5 2 2 18823 960.699 36
-5 2 1 44739.9 2113.42 28
-5 2 1 50216.9 2731.79 26
5 -2 -1 49302.3 2508.44 1
5 -2 0 1117.68 142.349 6
5 -2 0 1502.79 339.544 1
-5 2 0 1370.66 395.761 26
-5 2 0 1466.63 385.863 25
-5 2 0 1474.88 187.109 36
5 -2 1 47715.3 2157.3 6
-5 2 -1 54945.1 2811.03 26
-5 2 -1 53646.2 2759.19 25
5 -2 1 49166.1 2217.49 37
-5 2 -1 48822.2 2189.53 36
5 -2 2 6316.2 379.717 6
-5 2 -2 5470.81 697.807 26
-5 2 -2 5253.51 679.445 25
5 -2 2 6827.64 676.225 1
5 -2 2 6098.47 421.833 37
-5 2 -2 5547.89 379.797 36
5 -2 3 2220.6 219.959 6
-5 2 -3 2211.1 445.207 26
-5 2 -3 2834.59 516.168 25
5 -2 3 2268.95 215.383 5
5 -2 3 2252.47 404.886 1
-5 2 -3 2236.44 220.721 36
5 -2 3 2804.83 273.792 37
5 -2 4 2576.68 244.969 6
-5 2 -4 2440.6 499.105 25
5 -2 4 2229.92 403.847 1
5 -2 4 2804.33 253.448 5
5 -2 4 3109.11 300.974 37
5 -2 5 3415.98 292.172 6
5 -2 5 3332.39 497.119 1
-5 2 -5 2885.59 526.527 25
5 -2 5 4032.41 313.1 5
5 -2 5 3638.89 340.989 37
5 -2 6 218.455 289.464 23
5 -2 6 613.779 166.443 5
5 -2 6 850.056 273.652 1
5 -2 6 516.682 181.452 37
5 -2 7 333.587 154.679 6
5 -2 7 673.516 204.874 37
5 -2 8 15081.1 825.375 6
5 -2 8 14330.6 1319.02 23
5 -2 8 15926.2 914.43 37
5 -2 9 3570.69 313.975 6
5 -2 9 3289.06 598.664 23
5 -2 9 3669.14 327.673 5
5 -2 10 20050.4 992.099 6
5 -2 10 18256.6 1187.24 21
5 -2 11 1371.17 235.307 3
5 -2 11 1200.69 173.8 6
5 -2 11 1387.38 339.622 21
5 -2 11 1161.54 249.126 37
5 -2 12 2874.54 294.254 3
5 -2 12 2269.77 334.756 21
5 -2 12 2294.02 285.976 37
5 -2 13 3885.83 316.821 37
-5 1 13 11450 776.191 15
-5 1 12 -295.613 353.533 15
-5 1 12 152.007 192.81 29
-5 1 11 -178.271 390.151 15
-5 1 11 463.415 223.681 29
-5 1 11 366.14 181.289 28
-5 1 11 351.035 274.985 12
-5 1 10 375.442 328.055 15
-5 1 10 228.338 218.478 29
-5 1 10 257.187 179.293 28
-5 1 10 332.608 274.122 13
-5 1 10 605.777 305.524 12
-5 1 10 645.753 239.611 8
-5 1 9 54.027 299.602 15
-5 1 9 241.781 200.537 29
-5 1 9 421.365 206.151 28
-5 1 9 251.325 260.808 13
-5 1 9 249.929 304.573 26
-5 1 9 321.122 233.479 8
-5 1 9 509.433 312.081 12
-5 1 8 6240.11 602.476 15
-5 1 8 4470.63 441.985 29
-5 1 8 5319.77 542.824 13
-5 1 8 5609.13 445.719 28
-5 1 8 5051.28 771.404 26
-5 1 8 5355.65 581.687 12
-5 1 7 2046.86 401.324 15
-5 1 7 2168.14 296.185 29
-5 1 7 2602.35 303.438 28
-5 1 7 2195.13 354.796 13
-5 1 7 2648.17 575.032 26
-5 1 7 2092.28 424.199 25
5 -1 -6 34340.8 1934.13 1
-5 1 6 33732.4 1787.76 15
-5 1 6 37558.5 2327.15 26
-5 1 6 35247.2 2070.52 25
-5 1 6 34218.6 1571 36
-5 1 5 1841.19 342.065 15
-5 1 5 2200.6 279.929 28
-5 1 5 2567.16 553.42 26
-5 1 5 1934.37 442.496 25
5 -1 -5 1802.03 364.277 1
-5 1 5 2015.31 221.936 36
-5 1 4 113872 5059.35 15
5 -1 -4 122119 5332.7 1
-5 1 4 112385 4937.93 28
-5 1 4 126680 5517.92 25
-5 1 4 111662 4877.87 36
-5 1 3 3980.42 426.148 15
-5 1 3 3806.29 338.561 28
5 -1 -3 4062.71 522.837 1
-5 1 3 5594.58 730.697 26
-5 1 3 4760.62 621.82 25
-5 1 3 4052.17 307.233 36
-5 1 2 78338 3474.57 15
-5 1 2 75971.2 3368.02 28
-5 1 2 87893.7 4064.32 26
5 -1 -2 82863.2 3782.66 1
-5 1 2 73728.3 3327.97 36
-5 1 1 13382.3 743.011 28
-5 1 1 14315.4 1165.95 26
5 -1 -1 15390.5 1065.01 1
5 -1 0 23977.7 1124.49 6
-5 1 0 23261 1169.38 28
-5 1 0 24644.9 1157.72 36
5 -1 1 3483.92 259.305 6
-5 1 -1 3485.48 559.931 26
5 -1 1 3518.98 480.999 1
5 -1 1 3296.8 247.972 5
-5 1 -1 3541.55 278.47 36
5 -1 2 26746.8 1249.07 6
5 -1 2 28008 1655.77 1
-5 1 -2 28410.5 1729.27 26
-5 1 -2 31256 1790.09 25
5 -1 2 24665.6 1223.32 5
5 -1 2 27687.4 1316.04 37
-5 1 -2 27067 1257.74 36
5 -1 3 21136.5 1019.85 6
5 -1 3 22996.9 1415.16 1
-5 1 -3 22434.3 1433.3 26
-5 1 -3 20331 1453.64 25
5 -1 3 19750.5 996.94 5
5 -1 3 21853.4 1086.01 37
-5 1 -3 20450.2 1012.49 36
5 -1 4 24241.2 1143.48 6
5 -1 4 22216.5 1475.86 1
-5 1 -4 25825.4 1613.96 25
5 -1 4 22728.8 1129.14 5
5 -1 4 23826.6 1211.2 37
-5 1 -4 23410.1 1124.45 36
5 -1 5 11765.2 958.762 1
-5 1 -5 11522.2 1013.35 25
5 -1 5 11707.7 665.117 5
-5 1 -5 11969.5 635.911 36
5 -1 6 59564.4 2626.7 5
5 -1 6 56744.1 2974.7 1
5 -1 7 6280.54 431.281 6
5 -1 7 4807.21 754.118 23
5 -1 7 5868.9 487.346 37
5 -1 8 10755.5 633.476 6
5 -1 8 9575.36 1066.35 23
5 -1 8 11593.1 731.161 37
5 -1 9 6519.23 468.819 3
5 -1 9 5452.38 403.661 6
5 -1 9 5697.39 480.371 37
5 -1 10 24810.8 1568.84 21
5 -1 10 25783.4 1435.51 37
5 -1 11 1646.6 254.722 3
5 -1 11 1193.45 333.74 21
5 -1 11 1427.85 236.888 37
5 -1 12 3141.52 340.684 30
5 -1 12 3314.79 399.833 21
5 -1 12 3181.78 303.854 37
5 -1 13 59.4558 111.805 33
5 -1 13 97.1781 133.231 30
5 -1 13 212.672 181.041 21
-5 0 14 12960.8 811.184 15
-5 0 13 1376.02 348.109 15
-5 0 13 340.495 206.963 29
-5 0 12 508.981 230.186 29
-5 0 12 441.353 220.323 8
-5 0 11 4224.2 542.904 15
-5 0 11 3947.41 422.37 29
-5 0 11 4588.76 404.861 28
-5 0 11 4532.64 434.491 12
-5 0 11 4773.15 469.283 8
-5 0 10 1172.24 332.172 15
-5 0 10 831.841 239.302 29
-5 0 10 1002.23 235.822 28
-5 0 10 784.927 276.966 12
-5 0 10 980.218 218.439 10
-5 0 10 1143.96 299.963 8
-5 0 9 43358.5 2238.09 15
-5 0 9 42932.2 2112.54 29
-5 0 9 49409.2 2119.62 28
-5 0 9 45698.7 2766.65 26
-5 0 9 41005.3 2187.23 12
-5 0 8 913.72 309.994 15
-5 0 8 874.022 225.128 29
-5 0 8 1133.28 235.985 28
-5 0 8 1147.81 400.722 26
-5 0 7 41844.4 2056.75 15
-5 0 7 44429.4 2640.76 26
-5 0 7 38166.3 2293.74 25
5 0 -7 38676.5 2198.78 1
-5 0 7 41156 1837 36
-5 0 6 21722.3 1247.27 15
-5 0 6 22977.6 1165.39 28
-5 0 6 26273.4 1807.94 26
5 0 -6 21087.8 1415.32 1
-5 0 6 22802.2 1087.69 36
-5 0 5 58724.9 2867.32 15
-5 0 5 64788.2 2797.05 28
-5 0 5 61633.8 2724.51 36
5 0 -5 63479.7 3149.59 1
5 0 -4 2791.19 439.359 1
-5 0 4 2316.23 320.158 15
-5 0 4 2834.9 283.144 28
-5 0 4 2531.32 242.192 36
5 0 -3 81130.6 3690.1 1
-5 0 3 72263 3214.4 36
-5 0 3 74157.3 3254.98 28
5 0 -2 2989.5 454.734 1
-5 0 2 2299.97 250.143 28
-5 0 1 32320.1 1527.11 28
-5 0 1 32153.2 1509.74 36
-5 0 0 197.394 126.975 28
5 0 0 230.81 105.272 6
5 0 0 185.373 81.0315 5
-5 0 0 323.076 130.256 36
5 0 1 79206 3704.02 1
5 0 1 72567.5 3203.33 6
5 0 1 71834.1 3179.39 5
-5 0 -1 77040 3221.79 36
5 0 2 23599.1 1466.65 1
5 0 2 22030.1 1066.78 6
-5 0 -2 23014.1 1508.45 26
5 0 2 21002.4 1039.33 5
-5 0 -2 22475 1068.06 36
5 0 3 92792.5 4499.83 1
5 0 3 94238.4 4051.12 6
5 0 3 89925.6 4024.59 5
5 0 3 97797.1 4132.06 37
-5 0 -3 95144.8 4038.55 36
5 0 4 5211.32 378.016 6
5 0 4 6367.98 391.169 5
5 0 4 4869.2 426.222 37
5 0 4 4837.58 607.578 1
-5 0 -4 5019 361.646 36
-5 0 -5 86003.3 4343.01 25
5 0 5 83009.4 4254.98 1
5 0 5 93480.1 3973.8 37
5 0 6 361.977 186.637 3
5 0 6 363.807 152.977 6
5 0 6 327.821 184.013 37
5 0 7 14564.5 1408.5 23
5 0 7 21665.3 1107.73 37
5 0 8 171.817 262.202 23
5 0 8 262.464 186.273 37
5 0 9 19137.6 947.148 3
5 0 9 12857.8 856.269 37
5 0 10 1707.69 262.952 3
5 0 10 1738.84 254.291 37
5 0 11 1298.18 241.362 30
5 0 12 2063.36 225.762 33
5 0 12 2688.47 334.389 21
-5 -1 14 1967.08 247.893 29
-5 -1 13 2369.89 311.332 29
-5 -1 13 2762.44 345.833 8
-5 -1 12 6691.47 607.379 15
-5 -1 12 5917.98 497.182 29
-5 -1 12 6079.87 456.002 28
-5 -1 12 6843.59 494.641 10
-5 -1 12 7771.63 583.141 8
-5 -1 11 504.69 318.597 15
-5 -1 11 169.79 196.927 29
-5 -1 11 565.726 211.642 28
-5 -1 11 210.497 192.582 10
-5 -1 11 202.065 262.86 8
-5 -1 10 11898 897.605 15
-5 -1 10 11943.9 783.099 29
-5 -1 10 15188 811.08 28
-5 -1 10 10458.5 1140.76 26
-5 -1 10 14620.5 919.741 8
-5 -1 9 2113.94 429.745 15
-5 -1 9 3158.91 345.316 29
-5 -1 9 3287.3 643.265 26
-5 -1 8 12331.2 830.393 15
-5 -1 8 11857 636.648 36
-5 -1 7 7907 618.774 15
5 1 -7 7162.29 743.33 1
-5 -1 7 7682.47 467.096 36
-5 -1 6 15303.1 977.88 15
5 1 -6 15604.4 1201.03 1
5 1 -5 1317.84 355.11 1
-5 -1 5 1518.9 200.878 36
-5 -1 4 48953.3 2751.36 24
5 1 -4 51179.6 2655.61 1
-5 -1 4 48006.4 2180.04 36
-5 -1 3 5661.12 702.792 24
5 1 -3 5051.79 620.023 1
-5 -1 3 5291.82 377.087 36
-5 -1 2 29019.2 1868.19 24
5 1 -2 31420.6 1853.83 1
-5 -1 1 398.331 139.778 28
-5 -1 1 519.194 298.56 24
-5 -1 1 457.774 152.523 36
5 1 0 91225 3706.46 3
-5 -1 0 81671.8 4189.13 24
5 1 0 84583.2 4195.66 1
-5 -1 0 81125.6 3703.81 36
5 1 1 1641.25 206.781 3
5 1 1 1084.65 339.293 1
-5 -1 -1 1316.99 187.619 36
-5 -1 -2 72426.6 3304.13 36
5 1 2 70780.5 3763.82 1
5 1 2 73039.2 3376.06 37
5 1 3 6144.72 424.289 3
5 1 3 5127.21 647.027 1
5 1 3 5740.79 450.505 37
-5 -1 -3 5284.59 380.927 36
5 1 4 41430.3 1937.11 37
-5 -1 -4 37598.2 1824.69 36
5 1 5 4581.48 399.682 3
5 1 5 3546.37 285.866 2
5 1 5 3621.47 361.546 37
5 1 6 171.29 220.746 3
5 1 6 16.6434 162.147 37
5 1 7 435.131 280.532 23
5 1 7 372.481 176.078 37
5 1 8 273.329 134.682 32
5 1 8 145.249 309.145 21
5 1 8 464.664 164.766 37
5 1 9 2462.1 237.103 32
5 1 9 2491.35 436.471 21
5 1 10 5183.28 342.12 32
5 1 10 6853.02 579.984 21
5 1 11 8332.43 595.225 21
5 1 11 7374.43 454.599 19
-5 -2 14 257.388 154.206 29
-5 -2 13 90.5875 158.405 29
-5 -2 13 194.609 150.863 28
-5 -2 13 349.187 175.482 10
-5 -2 13 351.911 213.409 8
-5 -2 12 630.682 210.738 29
-5 -2 12 907.831 217.383 28
-5 -2 12 866.736 235.763 10
-5 -2 11 59.3016 296.294 15
-5 -2 11 92.3268 177.181 29
-5 -2 11 -19.1843 208.943 10
-5 -2 10 552.252 313.111 15
-5 -2 10 570.247 203.261 29
-5 -2 9 879.927 298.231 15
5 2 -8 846.246 149.338 2
-5 -2 8 712.353 153.436 36
5 2 -7 576.761 144.702 2
-5 -2 7 697.553 364.274 24
5 2 -7 643.391 292.217 1
-5 -2 7 670.463 164.812 36
5 2 -6 1365.52 377.255 1
5 2 -6 1575.01 200.993 2
-5 -2 6 1640.64 219.959 36
-5 -2 5 7045.2 839.521 24
5 2 -5 7527.59 792.869 1
5 2 -5 6793.02 442.425 2
-5 -2 5 6755.91 452.116 36
-5 -2 4 839.23 367.736 24
5 2 -4 404.777 261.923 1
-5 -2 4 815.188 175.594 36
-5 -2 3 56897.3 3158.53 24
5 2 -3 59286.3 3111.63 1
-5 -2 2 25215.4 1698.61 24
5 2 -2 25149.1 1655.97 1
-5 -2 2 24319 1199.34 36
-5 -2 1 614.922 327.316 24
-5 -2 1 799.997 180.296 36
-5 -2 0 36803 2259.53 24
5 2 0 37783.8 2282.69 1
-5 -2 0 37210.2 1805.34 36
5 2 0 42399 1822.86 3
5 2 1 1445.6 222.165 3
5 2 1 1266.63 200.788 2
-5 -2 -1 1320.7 375.221 24
5 2 1 1394.83 388.17 1
5 2 1 1235.51 226.735 37
-5 -2 -1 1209.49 206.456 36
5 2 2 6939.76 451.916 2
5 2 2 7145.93 505.344 37
-5 -2 -2 6660.07 454.305 36
5 2 2 8034.79 515.95 3
5 2 3 10200 975.097 1
5 2 3 11324 621.59 2
5 2 3 10107.6 670.246 37
-5 -2 -3 10407.7 625.458 36
5 2 3 12949.3 710.468 3
5 2 4 14195.5 777.491 2
5 2 4 15868.6 869.289 37
-5 -2 -4 15109.3 798.295 36
5 2 5 482.124 224.328 3
5 2 5 753.458 188.223 37
5 2 6 2965.26 463.306 21
5 2 6 3657.11 339.415 37
5 2 6 3826.14 374.929 3
5 2 7 -52.7805 282.306 21
5 2 8 1373.84 347.368 21
5 2 9 1095.3 158.067 32
5 2 9 1310.83 302.18 21
5 2 10 3500.85 364.576 21
5 2 10 3865 285.365 19
5 2 11 6479.02 370.576 19
-5 -3 14 1271.29 177.248 29
-5 -3 14 1772.02 215.56 10
-5 -3 13 10.5823 130.524 29
-5 -3 13 104.431 149.071 28
-5 -3 13 147.518 163.881 10
-5 -3 13 -92.122 196.191 8
-5 -3 12 2831.34 306.812 29
-5 -3 12 3977.75 390.057 10
-5 -3 12 3800.58 401.418 8
-5 -3 11 506.644 169.765 29
-5 -3 11 712.996 270.053 8
-5 -3 10 263.01 259.137 8
-5 -3 9 68.185 244.62 8
5 3 -8 175.611 114.535 2
-5 -3 8 243.714 322.036 24
-5 -3 8 357.718 147.401 36
-5 -3 7 10739.2 1158.29 24
5 3 -7 11690.1 641.184 2
-5 -3 7 12206.7 662.264 36
5 3 -6 687.575 165.603 2
5 3 -6 643.023 299.316 1
-5 -3 6 722.323 185.154 36
-5 -3 5 34951.7 2244.79 24
5 3 -5 35664.1 2156.92 1
5 3 -5 34890.1 1613.78 2
-5 -3 5 33215.1 1616.3 36
-5 -3 4 8669.27 954.758 24
5 3 -4 8712.69 901.334 1
5 3 -4 8351.43 518.18 2
-5 -3 4 7419.65 508.467 36
-5 -3 3 34051.3 2222.73 24
5 3 -3 34926.7 2203.57 1
5 3 -3 36294.5 1679.58 2
-5 -3 2 11797.2 689.07 36
-5 -3 2 11461.8 1111.67 24
-5 -3 1 27433.6 1874.69 24
5 3 -1 28727.8 1890.62 1
5 3 -1 29275 1379.46 2
-5 -3 1 27630 1376.21 36
-5 -3 0 25027.9 1246.77 36
-5 -3 0 23059.6 1689.95 24
5 3 0 23866.6 1729.28 1
5 3 0 25588.3 1240.39 2
5 3 0 25986.6 1280.72 37
5 3 1 13815.2 784.699 37
5 3 1 13086.4 1180.56 1
5 3 1 14102.3 757.911 2
-5 -3 -1 13439.3 767.11 36
5 3 2 3741.22 600.637 1
5 3 2 4699.52 353.979 2
5 3 2 3892.37 359.789 37
-5 -3 -2 4728.25 369.827 36
5 3 3 3546.74 581.022 1
5 3 3 4506.39 493.923 21
5 3 3 4421.46 335.972 2
5 3 3 4109.75 352.4 37
-5 -3 -3 4952.85 369.52 36
5 3 4 352.562 257.896 21
5 3 5 7861.74 645.847 21
5 3 6 430.091 245.623 21
5 3 7 9772.09 688.15 21
5 3 8 2119.24 207.182 32
5 3 8 2567.49 327.957 21
5 3 8 1960.31 271.985 20
5 3 8 2433.41 260.457 19
5 3 9 3937.05 259.43 32
5 3 9 3441.43 298.437 20
-5 -4 14 25.7175 103.077 28
-5 -4 14 152.694 116.91 10
-5 -4 13 597.834 162.074 28
-5 -4 13 645.413 187.784 8
-5 -4 12 928.741 227.785 8
-5 -4 11 2323.68 322.072 8
-5 -4 10 7107.35 561.438 8
5 4 -9 1683.36 189.946 2
-5 -4 9 1992.54 323.496 8
5 4 -8 10633.2 602.093 2
-5 -4 8 10258.2 734.177 8
-5 -4 8 11797.6 636.444 36
-5 -4 7 25339.7 1895.88 24
5 4 -7 25862.7 1252.94 2
-5 -4 7 26384.5 1271.96 36
5 4 -6 29402.5 2111.79 1
-5 -4 6 32289.6 2242.54 24
5 4 -6 35485.2 1626.15 2
-5 -4 6 35550.5 1641.68 36
5 4 -5 24036.5 1813.62 1
-5 -4 5 25727.1 1918.25 24
5 4 -5 27734.7 1331.35 2
-5 -4 5 28104.8 1348.44 36
5 4 -4 9733.32 1047.62 1
-5 -4 4 11101.5 1121.44 24
5 4 -4 11181.2 648.827 2
5 4 -3 1709.83 465.01 1
-5 -4 3 2630.88 559.447 24
5 4 -3 2285.22 269.785 2
-5 -4 3 1990.88 268.333 36
-5 -4 2 12925 1240.8 24
-5 -4 2 15288.1 832.314 36
5 4 -1 30159.7 2018.85 1
-5 -4 1 24916.9 1906.38 24
5 4 -1 30675 1438.64 2
5 4 -1 29342.8 1430.71 37
-5 -4 1 30304.6 1453.18 36
5 4 0 23054.8 1735 1
5 4 0 24817.5 1207.65 2
-5 -4 0 24235.9 1226.67 36
5 4 1 352.394 152.212 2
-5 -4 -1 461.418 186.156 36
5 4 2 23486.9 1166.38 2
-5 -4 -2 25037.6 1202.34 36
-5 -4 -3 344.289 151.11 36
5 4 4 22480.1 1122.6 19
5 4 5 236.568 158.319 19
5 4 6 9144.92 607.152 21
5 4 6 11205.2 597.509 19
5 4 7 1406.97 188.585 19
5 4 8 6184.7 347.226 32
5 4 8 5983.12 392.975 20
-5 -5 14 1150.11 132.95 10
-5 -5 13 712.729 151.965 10
-5 -5 12 1611.51 226.047 10
-5 -5 11 2447.89 293.151 10
-5 -5 11 2609.3 278.865 8
-5 -5 10 6589.64 478.9 8
5 5 -9 7990.06 457.25 2
-5 -5 9 8833.01 570.599 8
5 5 -8 7848.04 463.127 2
-5 -5 8 7831.56 549.767 8
-5 -5 8 7822.49 479.146 36
5 5 -7 2778.08 268.035 2
-5 -5 7 2914.73 324.262 8
-5 -5 7 2885.96 282.384 36
-5 -5 6 5978.91 415.995 36
5 5 -6 5821.2 398.576 2
-5 -5 6 4615.24 422.29 8
5 5 -5 2073.96 248.657 2
-5 -5 5 2607.65 280.64 36
-5 -5 4 15096.6 817.28 7
5 5 -4 16617.6 853.098 2
-5 -5 3 25904.5 1284.04 36
5 5 -2 6404.37 441.577 2
-5 -5 2 6117.78 456.804 36
5 5 -1 17557.8 906.863 2
-5 -5 1 17472.7 932.828 36
5 5 0 6458.16 429.156 2
-5 -5 0 6535.55 457.429 36
5 5 1 14472.9 756.286 2
-5 -5 -1 14899.8 788.693 36
5 5 2 8490.08 492.656 19
-5 -5 -2 8995.7 517.41 36
5 5 3 15605.9 779.619 19
5 5 4 -146.278 160.994 20
5 5 4 78.4928 116.551 19
5 5 5 990.452 191.732 20
5 5 5 1147.59 151.108 19
5 5 6 770.516 151.011 20
5 5 6 846.866 123.086 19
5 5 7 52.2133 72.4886 20
-5 -6 12 57.4067 93.0884 28
-5 -6 12 155.708 90.7914 10
-5 -6 11 1465.22 184.925 10
-5 -6 10 10.2928 126.942 10
5 6 -9 46.4788 78.5753 2
5 6 -8 217.177 109.214 2
5 6 -7 347.67 126.714 2
-5 -6 7 303.276 140.047 36
5 6 -6 1607.74 193.603 2
-5 -6 6 1494.3 204.44 36
5 6 -5 66.448 124.898 2
5 6 -4 2085.19 232.859 2
-5 -6 4 2639.16 264.359 36
-5 -6 3 1629.23 203.057 7
-5 -6 3 1840.18 230.143 36
5 6 -2 12162.9 675.278 2
-5 -6 2 13548.8 704.953 36
5 6 -1 6847.04 420.957 2
-5 -6 1 7053.67 446.051 36
5 6 0 74.5238 108.68 20
-5 -6 0 246.739 134.279 36
5 6 0 189.345 114.413 2
5 6 1 1844.51 222.645 20
-5 -6 -1 4163.39 261.037 36
5 6 2 438.247 129.37 20
5 6 3 225.885 105.531 20
5 6 4 188.714 82.0547 20
5 7 -8 423.443 87.1571 2
5 7 -7 93.9996 82.6498 2
-5 -7 7 11.3951 81.9078 36
-5 -7 6 940.218 138.307 36
5 7 -6 684.653 119.328 2
5 7 -5 1024.59 140.079 2
-5 -7 4 4016.96 283.363 36
5 7 -3 3306.03 235.098 2
-5 -7 3 3231.9 248.36 36
5 7 -2 751.075 122.048 2
-5 -7 2 961.669 140.579 36
-5 -7 1 3448.16 236.574 7
-5 -7 1 3766.83 241.415 36
-5 -7 0 971.688 121.782 7
-5 -7 -1 4615.3 260.882 7
-6 9 0 -17.7966 127.013 13
-6 9 -1 40.2196 143.529 13
-6 9 -2 1183.76 201.202 13
-6 9 -3 4607.52 362.299 13
-6 9 -4 670.83 172.91 13
-6 9 -5 5103.08 371.745 13
-6 9 -6 99.8079 117.814 13
6 -9 6 245.307 65.7664 5
6 -9 7 1747.41 126.328 5
-6 8 4 1037.15 186.937 13
-6 8 3 -51.3834 182.108 13
-6 8 2 284.727 215.68 13
-6 8 1 1027.21 263.819 13
-6 8 0 1932.1 294.733 15
-6 8 0 1982.94 333.262 13
-6 8 -1 1995.07 325.041 15
-6 8 -1 2716.52 368.806 13
-6 8 -2 2887.64 369.617 15
-6 8 -2 2354.05 354.582 13
-6 8 -3 822.13 267.367 13
6 -8 4 6238.51 343.959 6
-6 8 -4 6544.53 524.436 13
6 -8 5 9451.54 485.388 6
-6 8 -5 9701.93 647.958 13
6 -8 6 87.4224 74.8746 6
6 -8 7 3508.22 234.388 6
6 -8 8 341.717 88.0665 6
6 -8 9 699.558 98.3658 6
6 -8 10 31.7841 52.1191 6
6 -8 10 25.1697 52.4421 5
-6 7 6 63.8736 166.723 13
-6 7 6 116.677 170.574 12
-6 7 5 1601.63 297.488 13
-6 7 5 1858.85 304.518 12
-6 7 4 2092.34 303.595 15
-6 7 4 1976.14 336.641 13
-6 7 3 18.6788 231.422 15
-6 7 3 20.7197 250.805 13
-6 7 2 2161.29 371.155 15
-6 7 2 2360.33 387.986 13
-6 7 1 2829.06 426.845 15
-6 7 1 2607.85 424.041 13
-6 7 0 6550.61 605.94 15
-6 7 0 4963.42 553.155 13
-6 7 -1 1461.77 357.568 13
-6 7 -2 19259 1170.36 13
6 -7 3 5154.86 329.458 6
-6 7 -3 4613.19 510.652 13
6 -7 4 1622.72 183.464 6
6 -7 5 1643.46 184.812 6
6 -7 6 4376.87 308.059 6
6 -7 7 1947.93 197.526 6
6 -7 8 167.578 105.163 6
6 -7 9 443.461 109.669 6
6 -7 10 1143.28 132.816 6
6 -7 10 832.896 121.142 5
6 -7 11 607.672 91.8052 5
-6 6 8 553.672 200.213 13
-6 6 7 474.415 201.787 15
-6 6 7 236.598 231.606 13
-6 6 6 7573.01 584.857 15
-6 6 6 7821.23 619.943 13
-6 6 5 8314.62 664.663 15
-6 6 5 8894.74 702.361 13
-6 6 4 7462.64 649.106 15
-6 6 4 6062.77 612.221 13
-6 6 3 4470.78 539.083 15
-6 6 3 3429.8 481.689 13
-6 6 2 6286.21 657.706 15
-6 6 2 6711.51 640.422 13
-6 6 1 4612.76 540.64 13
-6 6 0 28778 1600 13
-6 6 -1 14878.9 1002.04 13
6 -6 2 30060.9 1393.08 6
-6 6 -2 30307.4 1645.71 13
6 -6 3 -38.4906 99.7589 6
6 -6 4 1541.48 191.037 6
6 -6 5 6239.28 413.716 6
6 -6 6 2870.2 266.109 6
6 -6 7 3691.88 300.216 6
6 -6 8 580.735 147.729 6
6 -6 9 7266.06 407.114 6
6 -6 9 5098.97 376.795 37
6 -6 10 3037.39 227.391 5
6 -6 10 1897.34 204.891 37
6 -6 11 9986.74 526.629 6
6 -6 11 10738.8 526.294 5
6 -6 12 55.7822 58.9397 6
-6 5 10 1368.06 194.308 12
-6 5 9 3507.12 349.886 15
-6 5 9 3759.23 387.436 13
-6 5 9 3195.99 389.518 12
-6 5 8 3953.25 421.558 15
-6 5 8 3476.65 424.627 13
-6 5 8 3827.31 471.378 12
-6 5 7 20473.6 1196.51 15
-6 5 7 19507.3 1190.59 13
-6 5 7 22689.1 1296.57 12
-6 5 6 1690.92 373.042 15
-6 5 6 1395.56 371.714 13
-6 5 5 43153.2 2203.61 13
-6 5 4 1928.17 417.183 13
-6 5 3 29094.1 1614.9 13
-6 5 2 935.743 397.938 15
-6 5 2 674.026 307.655 13
6 -5 -2 618.851 317.921 1
-6 5 1 21845.4 1323.1 13
6 -5 -1 25345.2 1721.59 1
6 -5 0 971.097 361.684 1
-6 5 0 520.879 298.785 13
6 -5 1 14806.1 1270.44 1
-6 5 -1 14161.7 946.083 13
6 -5 2 1943.18 209.574 6
6 -5 3 13260.4 1187.69 1
6 -5 3 13825.8 736.066 6
6 -5 4 5708.32 395.94 6
6 -5 4 5335.97 399.992 37
6 -5 4 6431.08 771.547 1
6 -5 5 203.232 132.781 6
6 -5 5 48.8266 191.349 1
6 -5 5 52.3028 124.61 37
6 -5 6 28536.6 1367.71 6
6 -5 6 28546.2 1396.61 37
6 -5 7 18440.6 910.944 6
6 -5 7 17470.8 902.159 5
6 -5 7 16038.4 918.772 37
6 -5 8 11263.4 636.802 6
6 -5 8 10941.2 660.16 37
6 -5 9 6180.75 437.987 37
6 -5 10 793.025 144.794 33
6 -5 10 862.566 157.276 6
6 -5 10 740.181 154 5
6 -5 10 782.448 178.697 37
6 -5 11 5396.66 329.973 6
6 -5 11 5869.28 334.032 5
6 -5 11 4962.2 353.439 37
6 -5 12 659.099 105.748 33
6 -5 12 775.763 111.936 6
-6 4 11 303.764 193.861 15
-6 4 11 886.622 186.164 12
-6 4 10 11513 730.225 15
-6 4 10 10072.7 695.207 13
-6 4 10 11775.8 751.439 12
-6 4 9 2905.72 407.862 15
-6 4 9 2863.28 393.573 13
-6 4 9 3105.49 447.723 12
-6 4 8 15252.8 981.617 13
-6 4 8 16026.3 1067.79 12
-6 4 7 -48.1732 280.239 13
-6 4 6 35307.1 1881.94 15
-6 4 6 33453.8 1809.7 13
-6 4 5 6105.96 648.133 15
-6 4 5 5581.19 574.823 13
-6 4 4 16157.5 1094.17 15
-6 4 4 15249.5 1003.12 13
-6 4 4 14813.8 1503.47 26
6 -4 -4 15330.4 1233.73 1
-6 4 3 458.988 358.659 15
-6 4 3 378.567 257.318 13
6 -4 -3 1073.14 341.765 1
6 -4 -2 403.524 291.906 1
-6 4 2 -212.858 346.41 15
-6 4 2 -155.145 342.869 26
-6 4 2 45.409 232.273 13
-6 4 1 455.252 382.444 26
6 -4 -1 1591.72 408.913 1
-6 4 0 7519.65 1014.07 26
6 -4 0 9498.52 948.322 1
6 -4 1 10974.1 600.922 6
-6 4 -1 9457.72 1154.03 26
6 -4 1 10987.3 640.177 37
6 -4 1 11197.3 1046.18 1
6 -4 2 18044.7 887.365 6
6 -4 2 15245.7 1274.04 23
6 -4 2 17138.6 917.605 37
6 -4 3 2551.87 278.746 37
6 -4 3 2768.89 261.498 6
6 -4 3 2186.15 480.901 1
6 -4 3 2237.28 470.797 23
6 -4 4 13557 716.343 6
6 -4 4 11965.2 1110.71 1
6 -4 4 13324.2 753.657 37
6 -4 5 10077.8 576.406 6
6 -4 5 7738.13 918.956 23
6 -4 5 8322.36 889.046 1
6 -4 5 8994.2 558.946 5
6 -4 5 9518.42 608.153 37
6 -4 6 20110.8 984.195 6
6 -4 6 13828.9 1371.23 23
6 -4 6 15430.7 1308.33 1
6 -4 6 20771.4 987.982 5
6 -4 6 18316.4 1014.39 37
6 -4 7 577.128 170.53 6
6 -4 7 607.929 190.03 5
6 -4 7 658.034 198.351 37
6 -4 8 11404.8 646.398 6
6 -4 8 10426.7 675.315 37
6 -4 9 59.3298 146.615 37
6 -4 10 590.679 153.096 6
6 -4 10 632.391 159.129 5
6 -4 10 516.96 174.76 37
6 -4 11 8.03048 98.5854 6
6 -4 11 11.6402 133.315 37
6 -4 12 684.617 132.841 33
6 -4 12 609.428 146.376 37
6 -4 13 42.7189 92.1501 30
-6 3 12 12467.2 685.809 12
-6 3 11 5889.58 496.519 12
-6 3 10 794.384 262.801 13
-6 3 10 695.294 289.473 12
-6 3 9 769.677 339.126 15
-6 3 9 724.87 283.66 13
-6 3 9 1051.04 343.12 12
-6 3 8 9228.97 762.347 15
-6 3 8 8234.35 696.376 13
-6 3 8 9324.5 780.553 12
-6 3 7 1271.18 393.47 15
-6 3 7 608.614 274.446 13
-6 3 6 8229.08 717.01 15
-6 3 6 6169.28 594.645 13
-6 3 6 6212.95 928.085 26
-6 3 5 2091.21 417.286 15
-6 3 5 1597.68 318.275 13
-6 3 5 1896.86 564.886 26
6 -3 -5 1987.95 406.896 1
-6 3 4 1322.14 386.651 15
6 -3 -4 1854.5 408.631 1
-6 3 3 2872.85 461.853 15
6 -3 -3 2255.17 470.422 1
-6 3 3 2896.25 653.768 26
-6 3 2 3819.34 511.576 15
-6 3 2 3465.98 706.891 26
6 -3 -2 4548.19 623.052 1
-6 3 1 4417.29 759.345 26
-6 3 1 4141.58 706.281 25
6 -3 -1 3537.34 576.631 1
6 -3 -1 4094.23 340.945 37
-6 3 0 1218.03 435.76 26
6 -3 0 1500.18 177.502 5
6 -3 0 1933.24 238.176 37
6 -3 0 1999.5 447.655 1
6 -3 1 15050.8 765.699 6
-6 3 -1 14397.6 1361.57 26
-6 3 -1 14655.2 1321.3 25
6 -3 1 15029.1 823.602 37
6 -3 1 14456.3 752.16 5
6 -3 2 47973.9 2118.28 6
-6 3 -2 42839.6 2783.23 26
-6 3 -2 47818.6 2823.55 25
6 -3 2 45377.4 2646.45 1
6 -3 2 47684.3 2108.58 5
6 -3 2 45963.5 2171.5 37
6 -3 3 45678.5 2037.36 6
-6 3 -3 40933.8 2642.82 26
6 -3 3 45550.7 2592.2 1
6 -3 3 46786.4 2033.03 5
6 -3 3 41842.9 2080.66 37
6 -3 4 96.6954 228.543 1
6 -3 4 183.697 130.953 6
6 -3 4 184.115 137.351 5
6 -3 4 123.872 154.26 37
6 -3 5 14587.7 792.78 6
6 -3 5 13188.9 1154.86 1
6 -3 5 12059.9 1208.03 23
6 -3 5 14967.4 788.974 5
6 -3 5 14811.7 851.014 37
6 -3 6 11620.7 681.039 6
6 -3 6 10360.5 978.111 1
6 -3 6 9447.59 1067.39 23
6 -3 6 11209.9 723.718 37
6 -3 7 6961.54 472.298 6
6 -3 7 6279.61 824.458 23
6 -3 7 7941.6 495.453 5
6 -3 7 6040.64 506.968 37
6 -3 8 1770.75 278.902 37
6 -3 9 2319.1 255.394 6
6 -3 9 2082.65 291.445 37
6 -3 10 492.506 145.445 6
6 -3 10 614.575 244.55 21
6 -3 10 727 204.631 37
6 -3 11 198.397 151.976 3
6 -3 11 72.3808 102.456 6
6 -3 11 173.645 146.612 37
6 -3 12 8.43198 110.943 33
6 -3 12 -115.933 127.62 37
6 -3 13 2490.97 198.588 33
-6 2 13 3431.85 325.094 15
-6 2 12 289.165 263.155 15
-6 2 12 10286 453.429 12
-6 2 11 8347.85 643.955 15
-6 2 11 7280.37 576.158 12
-6 2 10 2849.06 420.808 15
-6 2 10 1886.61 357.57 12
-6 2 9 4076.14 508.729 15
-6 2 9 3091.46 418.258 13
-6 2 9 3627.38 478.97 12
-6 2 8 7946.15 695.132 15
-6 2 8 6761.42 604.549 13
-6 2 8 7342.15 675.616 12
-6 2 7 2343.47 429.325 15
-6 2 7 1951.29 533.974 26
-6 2 6 868.277 330.198 15
-6 2 6 740.757 447.482 26
-6 2 5 19780.3 1186.88 15
6 -2 -5 18357.5 1339.07 1
-6 2 5 19020 1045.25 28
-6 2 5 18623.3 1655.96 26
-6 2 5 17155.8 1440.6 25
-6 2 4 666.585 300.33 15
-6 2 4 254.281 196.793 28
-6 2 4 625.155 361.963 25
6 -2 -4 442.305 272.065 1
-6 2 3 41393.5 2082.16 15
-6 2 3 39589.6 1931.79 28
6 -2 -3 41948.4 2358.67 1
-6 2 3 42494.5 2673.87 26
-6 2 3 39543.2 2473.19 25
-6 2 2 9732.61 752.034 15
-6 2 2 9873.35 1121.39 26
6 -2 -2 10443.6 966.16 1
-6 2 2 9447.39 1032.04 25
-6 2 2 10013 596.205 36
-6 2 1 41982.8 2674.97 26
6 -2 -1 43362.2 2460.11 1
6 -2 0 1124.31 369.014 1
-6 2 0 1309.35 437.372 26
6 -2 0 922.82 152.455 6
-6 2 0 1365.06 431.873 25
6 -2 0 711.231 181.404 37
-6 2 0 911.987 184.311 36
6 -2 1 43542.1 1978.52 6
-6 2 -1 47593.9 2730.87 26
-6 2 -1 46290.5 2671.31 25
6 -2 1 43923.1 1960.22 5
6 -2 1 43773.2 2052.97 37
-6 2 -1 43210.8 2008.76 36
6 -2 2 24353.2 1164.51 6
6 -2 2 23862 1631.21 1
-6 2 -2 20060.8 1658.83 26
-6 2 -2 23787.6 1733.66 25
6 -2 2 24273.2 1151.09 5
6 -2 2 23367.7 1224.63 37
-6 2 -2 24626.7 1188.47 36
6 -2 3 104297 4484.6 6
6 -2 3 103064 5045.19 1
-6 2 -3 104619 5201.13 25
6 -2 3 105708 4467.64 5
6 -2 3 100372 4547.59 37
6 -2 4 8805 544.725 6
6 -2 4 8665.25 876.179 1
-6 2 -4 8307.3 958.287 25
6 -2 4 9136.9 543.237 5
6 -2 4 8763 606.073 37
6 -2 5 2559.5 271.403 6
-6 2 -5 2562.73 533.569 25
6 -2 5 2524.75 267.782 5
6 -2 5 1939.98 432.409 1
6 -2 5 2767.35 318.237 37
6 -2 6 75.7448 142.291 6
6 -2 6 240.309 325.233 23
6 -2 6 23.9891 145.91 5
6 -2 6 87.8205 176.081 37
6 -2 7 4096.15 349.234 5
6 -2 7 3725.97 383.69 37
6 -2 8 5028.35 386.894 6
6 -2 8 5057.64 446.9 37
6 -2 9 10142.5 593.69 6
6 -2 10 20270.3 997.823 3
6 -2 10 17238.4 1099.29 21
6 -2 11 2586.8 269.661 3
6 -2 11 2035.55 246.537 37
6 -2 12 1598.57 187.056 33
6 -2 12 1227.81 192.531 30
6 -2 12 1342.72 177.241 37
-6 1 13 3223.58 340.818 15
-6 1 12 4359.5 443.124 15
-6 1 11 1091.86 343.565 15
-6 1 11 1371.16 246.921 12
-6 1 10 4784.13 504.833 15
-6 1 10 5109.65 409.782 28
-6 1 10 3606.89 440.249 12
-6 1 9 3725.17 471.161 15
-6 1 9 3641.66 363.394 28
-6 1 9 2847.83 405.837 12
-6 1 9 2780.83 372.733 8
-6 1 8 23630.4 1389.73 15
-6 1 8 26694.5 1301.49 28
-6 1 8 23060.5 1367.16 12
-6 1 7 1099.04 341.404 15
-6 1 7 1428.31 479.839 26
-6 1 6 33843.1 1731.88 15
-6 1 6 33849.9 1608.96 28
-6 1 6 33773.5 2310.24 26
-6 1 6 28889.2 2020.26 25
6 -1 -6 27780.8 1864.55 1
-6 1 5 2311.13 389.126 15
-6 1 5 2487.01 316.216 28
6 -1 -5 2847.25 480.001 1
-6 1 5 3052.49 572.151 25
-6 1 5 2855.78 274.591 36
6 -1 -4 98585.4 4681.22 1
-6 1 4 92057 4303.59 15
-6 1 4 95802 4210.43 28
-6 1 4 100275 5047.65 26
-6 1 4 95348.3 4820.27 25
-6 1 4 95704.3 4141.2 36
-6 1 3 3754.72 441.308 15
6 -1 -3 4129.2 590.529 1
-6 1 3 4446.52 394.713 28
-6 1 3 5623 829.042 26
-6 1 3 5320.96 737.588 25
-6 1 3 4638.16 351.334 36
-6 1 2 73546.6 3493.6 15
6 -1 -2 80333.7 3914.35 1
-6 1 2 75127 3411.08 28
-6 1 2 86476.4 4237.7 26
-6 1 2 79902.8 4065.2 25
-6 1 2 76945.4 3370.2 36
6 -1 -1 6573.38 750.479 1
-6 1 1 5801.06 456.208 28
-6 1 1 7992.23 922.371 26
-6 1 1 5852.16 775.131 25
6 -1 0 30730.4 1463.01 6
-6 1 0 34487.7 2166.95 26
-6 1 0 34176.8 2120.76 25
-6 1 0 31608.5 1503.66 36
6 -1 1 6676.89 429.21 6
6 -1 1 6151.84 742.156 1
-6 1 -1 7700.03 907.693 26
-6 1 -1 8428.05 912.118 25
6 -1 1 6660.33 409.117 5
6 -1 1 5990.32 476.566 37
-6 1 -1 7145.25 461.651 36
6 -1 2 24597.9 1621.41 1
6 -1 2 23668.7 1133.77 6
-6 1 -2 21251.1 1626.04 26
-6 1 -2 25943.1 1751.82 25
6 -1 2 21649.1 1098.18 5
6 -1 2 22678.4 1199.64 37
-6 1 -2 23580.8 1146.23 36
6 -1 3 208.314 136.179 6
-6 1 -3 110.733 269.744 25
6 -1 3 141.723 236.849 1
6 -1 3 194.448 126.959 5
6 -1 3 149.925 162.4 37
-6 1 -3 90.3246 136.82 36
6 -1 4 3498.37 310.467 6
6 -1 4 3353.56 552.568 1
-6 1 -4 2823.46 545.427 25
6 -1 4 3166.85 290.847 5
6 -1 4 2726.59 325.961 37
-6 1 -4 3500.38 299.039 36
6 -1 5 16133.4 857.743 6
6 -1 5 16349.5 848.402 5
6 -1 6 12986.1 1247.89 23
6 -1 7 29556.2 1505.75 6
6 -1 7 29434.5 1582.76 37
6 -1 8 20510.9 1118.2 37
6 -1 9 3698.8 485.724 21
6 -1 9 3141.89 329.333 37
6 -1 10 22118.5 1330.52 21
6 -1 10 22170 1212.39 37
6 -1 11 889.119 172.102 3
6 -1 11 825.706 252.343 21
6 -1 11 684.983 153.719 37
6 -1 12 1506.08 166.78 33
6 -1 12 1001.02 199.328 21
-6 0 13 7159.32 517.782 15
-6 0 12 629.794 274.366 15
-6 0 11 13305.7 874.278 15
-6 0 11 14353.3 785.368 28
-6 0 11 13966.8 836.812 8
-6 0 10 -63.7146 312.799 15
-6 0 10 501.47 203.793 28
-6 0 10 653.732 260.458 8
-6 0 9 10184.9 763.147 15
-6 0 9 11505.2 793.048 8
-6 0 8 13242 870.832 15
-6 0 8 11640.2 1257.59 26
-6 0 7 43671.1 2139.54 15
-6 0 7 45320.8 2066.6 28
-6 0 7 46190 2832.88 26
-6 0 7 43862.4 1951.43 36
6 0 -6 692.302 296.576 1
-6 0 6 1160.17 290.386 15
-6 0 6 1059.94 255.234 28
-6 0 6 1068.44 447.192 26
-6 0 6 909.509 354.349 25
-6 0 6 1069.61 190.89 36
-6 0 5 49840.3 2523.54 15
-6 0 5 56021.3 2488.92 28
-6 0 5 51564.8 3016.7 25
6 0 -5 53610.4 2904.85 1
-6 0 5 54978.5 2416.2 36
-6 0 4 22988.8 1188.54 28
-6 0 4 24545.4 1851.61 26
6 0 -4 21322.6 1541.35 1
-6 0 4 22997.8 1137.29 36
6 0 -3 1454.05 394.977 1
-6 0 3 1994.81 263.694 28
-6 0 3 1567.91 493.762 26
-6 0 3 1826.69 235.32 36
-6 0 2 7293.98 510.159 28
-6 0 2 7566.29 954.493 26
6 0 -2 6944.28 794.887 1
-6 0 1 10221.2 643.908 28
-6 0 1 10890.8 1126.56 26
-6 0 1 11153.7 637.372 36
6 0 -1 11807.9 1033.09 1
-6 0 0 2279.09 516.972 26
-6 0 0 2443.03 269.138 36
6 0 1 7566.28 463.916 3
-6 0 -1 5485.95 790.12 26
6 0 1 6450.52 786.492 1
-6 0 -1 6770.22 461.713 36
6 0 2 7548.84 466.227 3
6 0 2 6694.07 799.779 1
-6 0 -2 5964.09 443.78 36
-6 0 -3 21646.3 1653.79 25
6 0 3 19359.2 1525.28 1
6 0 3 22167.5 1208.95 37
-6 0 -3 21824.8 1124.37 36
-6 0 -4 11025.1 1113.65 25
6 0 4 10442 1040.71 1
6 0 4 12355.6 791.82 37
-6 0 -4 12800.2 708.934 36
6 0 5 23648.6 1306.37 37
-6 0 -5 23141.9 1195.96 36
6 0 6 3616.1 358.612 3
6 0 6 2026.37 307.609 37
6 0 7 32193.2 1461.85 3
6 0 7 25021.1 1410.82 37
6 0 8 673.62 344.796 21
6 0 8 391.375 182.3 37
6 0 9 4294.36 490.268 21
6 0 9 3526.43 330.308 37
-6 -1 13 -77.1187 140.806 8
-6 -1 12 4427.77 370.249 28
-6 -1 12 5062.6 432.069 8
-6 -1 11 5462.88 509.385 15
-6 -1 11 6019.68 446.036 28
-6 -1 11 5681.06 502.975 8
-6 -1 10 7779.79 647.576 15
-6 -1 10 11284.3 740.942 8
-6 -1 9 303.19 281.65 15
-6 -1 8 113.794 259.71 15
6 1 -8 466.133 125.404 2
-6 -1 8 140.311 203.05 28
-6 -1 7 11050.1 678.708 28
-6 -1 7 9501.3 1142.88 26
-6 -1 7 9944.67 1011.51 25
6 1 -7 9463.47 564.544 2
-6 -1 7 10834.4 596.866 36
-6 -1 6 1523.45 264.263 28
6 1 -6 1186 354.109 1
-6 -1 6 1436.47 210.532 36
-6 -1 5 4183.48 382.695 28
6 1 -5 3797.3 592.161 1
-6 -1 5 4305.69 347.037 36
-6 -1 4 7466.6 535.229 28
6 1 -4 7503.45 828.11 1
-6 -1 4 8368.05 520.768 36
6 1 -3 743.608 312.763 1
-6 -1 3 1185.27 232.981 28
-6 -1 3 1021.86 201.796 36
6 1 -2 653.712 315.259 1
-6 -1 2 565.399 181.431 28
-6 -1 1 242.075 163.954 36
-6 -1 0 4658.88 377.535 36
6 1 0 5394.61 388.127 3
6 1 1 1416.01 226.405 3
-6 -1 -1 1298.49 421.081 26
6 1 1 1799.5 270.398 37
6 1 1 1428.72 395.528 1
-6 -1 -1 1464.81 223.755 36
6 1 2 9106.29 979.533 1
6 1 2 11312.4 734.749 37
-6 -1 -2 11268.9 671.108 36
6 1 3 8228.6 517.568 2
6 1 3 8326.26 594.647 37
-6 -1 -3 8081.77 523.817 36
6 1 4 1637.35 388.389 1
6 1 4 2192.9 234.149 2
6 1 4 2179.05 299.867 37
-6 -1 -4 2445.07 257.058 36
6 1 5 184.92 189.381 3
6 1 5 232.099 165.25 37
6 1 6 1994.85 296.65 3
6 1 6 1715.83 257.081 37
6 1 7 776.967 218.138 3
6 1 7 256.46 312.831 21
6 1 7 554.913 176.775 37
6 1 8 222.174 270.367 21
6 1 9 1221.56 282.848 21
6 1 10 1574.6 246.008 21
6 1 10 1106.55 160.107 19
-6 -2 13 792.053 156.843 28
-6 -2 13 924.933 202.429 8
-6 -2 12 1759.34 228.402 28
-6 -2 11 2444.31 299.935 10
-6 -2 10 4643.24 408.732 28
-6 -2 10 4314.63 459.246 8
-6 -2 9 3557.79 368.272 28
6 2 -8 133.03 110.552 2
-6 -2 8 211.452 201.954 28
-6 -2 7 11086.2 696.695 28
6 2 -7 10849.6 609.853 2
-6 -2 7 11220.1 632.648 36
6 2 -6 564.649 164.047 2
-6 -2 6 864.231 227.433 28
6 2 -6 627.522 292.325 1
-6 -2 6 913.821 191.154 36
6 2 -5 445.936 165.603 2
-6 -2 5 217.761 192.36 28
6 2 -5 401.485 265.578 1
-6 -2 5 414.806 174.829 36
-6 -2 4 17070.6 972.756 28
6 2 -4 17068.4 1405.3 1
6 2 -4 19284.6 967.142 2
-6 -2 4 19019.2 971.301 36
6 2 -3 868.659 196.769 2
-6 -2 3 744.961 194.138 28
6 2 -3 893.91 341.895 1
6 2 -2 7402.58 871.432 1
6 2 -2 8811.67 533.254 2
-6 -2 2 7482.56 520.349 36
6 2 -1 2890.91 546.402 1
-6 -2 1 2932.75 300.253 36
-6 -2 0 27216.9 1348.93 36
6 2 0 23440.9 1797.94 1
6 2 0 28624.4 1347.72 2
6 2 0 27644.6 1405.09 37
6 2 1 2108.89 484.368 1
6 2 1 2554.5 270.683 2
6 2 1 2346.04 306.364 37
-6 -2 -1 2295.07 274.748 36
6 2 2 9148.11 561.352 2
6 2 2 8979.82 615.567 37
-6 -2 -2 9163.82 573.783 36
6 2 2 10993 615.016 3
6 2 3 4021.59 321.388 2
6 2 3 4069.84 375.546 37
-6 -2 -3 3837.34 329.735 36
6 2 4 8673.92 554.739 37
-6 -2 -4 7530.92 485.859 36
6 2 5 -47.8543 257.513 21
6 2 6 742.671 292.402 21
6 2 7 825.856 259.868 21
6 2 8 4438.19 413.875 21
6 2 9 853.236 202.425 21
6 2 9 1101.78 152.278 19
-6 -3 13 194.087 111.766 28
-6 -3 13 9.65895 121.375 8
-6 -3 12 5897.08 408.319 10
-6 -3 12 5630.19 426.489 8
-6 -3 11 1161.41 216.07 28
-6 -3 11 851.36 213.195 10
-6 -3 11 1262.63 253.302 8
-6 -3 10 5025.98 404.474 28
-6 -3 10 5391.73 474.688 8
-6 -3 9 1172.49 237.914 28
-6 -3 9 1031.1 273.857 8
6 3 -8 3063.49 252.68 2
6 3 -7 8677.48 520.665 2
-6 -3 7 9266.38 546.422 36
6 3 -6 4927.36 367.224 2
-6 -3 6 5121.9 388.255 36
-6 -3 5 18807.6 1585.44 24
6 3 -5 21298.2 1047.16 2
-6 -3 5 20283.9 1053.17 36
-6 -3 4 3537.38 342.599 28
-6 -3 4 3667.38 651.152 24
6 3 -4 3505.4 601.984 1
6 3 -4 4361.6 344.943 2
6 3 -3 42032.6 2644.96 1
-6 -3 3 39542.2 2660.14 24
6 3 -3 48128.6 2107.38 2
-6 -3 2 23792.5 1781.07 24
-6 -3 2 25327.9 1255.41 36
6 3 -1 14850.4 1354.89 1
6 3 -1 17971.6 933.236 2
6 3 -1 17856.3 971.203 37
-6 -3 1 17991.4 946.889 36
6 3 0 12657 686.839 2
6 3 0 11160.5 702.477 37
-6 -3 0 11613 689.824 36
6 3 1 5700.51 406.568 2
6 3 1 5824.98 437.351 37
-6 -3 -1 5738.41 426.049 36
6 3 2 980.26 179.063 2
6 3 2 984.878 249.641 21
-6 -3 -2 947.325 195.305 36
6 3 3 7021.3 573.548 21
-6 -3 -3 7887.8 476.425 36
6 3 4 569.531 230.955 21
6 3 5 5550.08 461.879 21
6 3 6 5668.52 441.356 21
6 3 6 6037.38 389.42 19
6 3 7 12064.1 634.297 21
6 3 7 12761.1 600.302 19
6 3 8 185.776 102.05 20
6 3 8 277.33 95.2828 19
-6 -4 13 757.891 116.402 10
-6 -4 12 345.974 128.491 28
-6 -4 12 187.517 126.541 10
-6 -4 12 201.034 127.207 8
-6 -4 11 1532.85 206.053 28
-6 -4 11 1480.06 220.695 8
-6 -4 10 9241.73 539.227 28
-6 -4 10 8322.19 561.439 8
6 4 -9 555.187 106.234 2
-6 -4 9 712.84 191.244 28
-6 -4 9 826.686 222.553 8
6 4 -8 4319.29 301.348 2
-6 -4 8 4836.65 421.367 8
6 4 -7 8357.33 480.761 2
-6 -4 7 7652.31 578.935 8
-6 -4 7 8245.95 494.484 36
6 4 -6 15652.1 823.087 2
-6 -4 6 16489.5 844.457 36
-6 -4 5 12842.2 739.065 28
6 4 -5 14265.8 745.071 2
-6 -4 5 13824.4 756.48 36
6 4 -4 19574.9 994.979 2
6 4 -3 9934.48 590.166 2
-6 -4 3 9486.34 593.562 36
-6 -4 2 719.611 191.826 36
6 4 -1 372.082 161.967 2
-6 -4 1 239.772 168.051 36
6 4 0 1226 191.139 2
-6 -4 0 1414.32 220.607 36
6 4 1 499.459 137.67 2
-6 -4 -1 359.596 158.583 36
6 4 2 9789.38 565.967 19
-6 -4 -2 12771.7 619.826 36
6 4 3 3189.71 252.416 19
6 4 4 24964.6 1151.89 19
6 4 5 938.6 183.855 20
6 4 5 1075.95 139.862 19
6 4 6 4122.61 307.132 20
6 4 6 5153.34 280.487 19
-6 -5 12 538.938 99.4952 10
-6 -5 11 958.24 140.614 28
-6 -5 11 964.109 153.378 10
-6 -5 10 1142.78 156.81 28
-6 -5 10 760.565 136.438 8
-6 -5 9 1187.29 171.076 28
6 5 -9 1038.1 115.259 2
-6 -5 9 1147.88 164.442 8
-6 -5 8 2843.27 249.257 28
6 5 -8 2846.74 213.982 2
-6 -5 8 2536.79 247.259 8
6 5 -7 197.05 108.81 2
-6 -5 7 228.622 130.019 28
-6 -5 7 296.144 122.212 36
6 5 -6 758.262 147.816 2
-6 -5 6 754.593 157.284 36
6 5 -5 26.303 113.934 2
6 5 -4 9.07552 114.968 2
-6 -5 3 1272.92 200.559 36
6 5 -2 17.7107 120.656 2
-6 -5 2 89.4015 137.362 36
6 5 -1 5370.37 345.091 2
-6 -5 1 5024.17 360.7 36
6 5 0 1444.87 173.222 2
-6 -5 0 1771.01 202.688 36
-6 -5 -1 2477.16 218.145 36
6 5 2 200.981 118.999 20
6 5 3 2053.81 197.376 20
6 5 4 1003.29 126.706 20
-6 -6 9 -11.7976 77.2823 10
6 6 -8 983.201 101.056 2
-6 -6 7 255.914 89.6219 36
6 6 -7 228.949 81.9876 2
6 6 -6 106.74 87.7549 2
-6 -6 6 203.838 100.594 36
6 6 -5 66.484 86.3132 2
6 6 -4 68.1192 90.5494 2
-6 -6 4 101.539 104.928 36
6 6 -3 874.642 130.188 2
-6 -6 3 805.485 135.419 36
-6 -6 2 149.239 102.61 36
6 6 -2 16.6748 81.5235 2
-6 -6 1 710.651 116.022 36
-7 8 0 251.776 149.512 15
-7 8 -1 409.057 171.614 15
-7 8 -2 725.004 204.21 15
-7 8 -3 3494.18 334.147 15
7 -8 4 -42.4786 55.8174 5
7 -8 5 3336.04 199.781 5
-7 8 -6 30.2341 149.209 15
7 -8 6 89.4937 56.1498 5
-7 8 -7 1358.35 182.132 15
-7 7 4 806.061 183.162 15
-7 7 4 543.973 194.018 12
-7 7 3 51.9241 174.842 15
-7 7 3 10.2537 136.505 13
-7 7 2 184.272 217 15
-7 7 2 118.962 160.949 13
-7 7 1 3336.69 383.985 15
-7 7 1 3219.98 332.571 13
-7 7 0 3001.8 325.646 13
-7 7 -1 4193.09 377.204 13
-7 7 -2 6458.37 486.851 13
7 -7 2 7062.4 382.73 5
7 -7 3 145.182 86.1653 5
7 -7 4 4623.86 290.546 5
7 -7 5 14469.2 715.43 6
7 -7 5 16080.8 732.785 5
7 -7 6 3355.58 229.86 6
7 -7 6 3670.16 240.137 5
7 -7 7 886.719 116.767 6
7 -7 7 1214.26 133.86 5
7 -7 8 18.1471 60.6331 6
7 -7 8 -13.8169 68.8188 5
7 -7 9 392.389 70.2569 6
7 -7 9 451.556 75.5265 5
-7 6 7 1696.1 222.387 12
-7 6 6 1622.51 248.503 15
-7 6 6 1955.65 292.736 12
-7 6 5 546.174 233.735 15
-7 6 5 458.77 178.69 13
-7 6 5 115.284 235.341 12
-7 6 4 5941.27 462.989 13
-7 6 3 14955.7 865.764 13
-7 6 2 4144.73 409.855 13
-7 6 1 2617.96 419.17 15
-7 6 1 1828.93 305.71 13
-7 6 0 22944.2 1334.25 15
-7 6 -1 449.906 340.836 15
7 -6 1 352.583 100.186 5
7 -6 2 13234 665.026 5
7 -6 3 5513.86 348.126 6
7 -6 3 5567.19 350.496 5
7 -6 4 4378.15 305.292 6
7 -6 4 4672.04 310.913 5
7 -6 5 689.177 136.3 6
7 -6 5 914.987 151.086 5
7 -6 6 626.663 131.355 6
7 -6 6 589.822 135.044 5
7 -6 7 1727.57 182.318 6
7 -6 7 1919.62 190.275 5
7 -6 8 99.1447 90.0588 6
7 -6 8 -25.627 96.0429 5
7 -6 9 1955.66 172.82 6
7 -6 9 2344.64 181.764 5
7 -6 10 658.445 93.2764 6
-7 5 8 2033.62 265.505 15
-7 5 8 1857.5 270.276 12
-7 5 7 1556.91 304.672 12
-7 5 6 507.142 201.091 13
-7 5 6 472.853 303.968 12
-7 5 5 16875.9 942.494 15
-7 5 5 11607.8 775.022 13
-7 5 4 940.651 349.741 15
-7 5 4 870.674 248.229 13
-7 5 3 22589.4 1331.34 15
-7 5 2 512.393 340.799 15
-7 5 1 8355.35 738.773 15
-7 5 0 2662.06 462.417 15
7 -5 1 363.78 116.267 5
7 -5 2 196.908 101.176 6
7 -5 2 329.101 113.27 5
7 -5 3 166.597 115.225 6
7 -5 3 -8.88533 111.613 5
7 -5 4 11409.9 618.074 6
7 -5 4 11697.7 617.794 5
7 -5 4 10401.9 617.721 37
7 -5 5 4531.96 337.195 6
7 -5 5 4928.75 340.565 5
7 -5 5 4582.17 347.645 37
7 -5 6 7389.76 452.206 6
7 -5 6 7790.99 458.358 5
7 -5 6 6989.52 460.311 37
7 -5 7 3512.31 280.757 6
7 -5 7 3933.1 289.676 5
7 -5 7 2957.21 280.89 37
7 -5 8 1723.97 184.468 6
7 -5 8 1437.53 180.016 5
7 -5 8 1160.03 173.84 37
7 -5 9 3916.99 269.46 6
7 -5 9 4164.16 271.089 5
7 -5 10 463.018 106.717 37
7 -5 11 3051.18 208.372 3
-7 4 9 593.415 215.657 15
-7 4 9 302.156 189.337 12
-7 4 8 10092.1 673.411 15
-7 4 8 9344.7 674.391 12
-7 4 7 5662.91 527.84 15
-7 4 7 4918.22 525.579 12
-7 4 6 23.1953 278.085 15
-7 4 5 6395.19 623.141 15
-7 4 4 1222.4 373.532 15
-7 4 3 3811.72 512.853 15
-7 4 2 1840.39 419.685 15
-7 4 1 3228.21 481.438 15
-7 4 0 137.713 306.958 15
7 -4 0 69.8188 110.014 37
7 -4 1 3934.21 291.258 5
7 -4 1 3792.64 326.115 37
7 -4 2 267.175 119.002 6
7 -4 2 172.726 117.029 5
7 -4 2 246.982 142.709 37
7 -4 3 2135.09 225.885 6
7 -4 3 2094.19 222.182 5
7 -4 3 1867.9 245.042 37
7 -4 4 20948.5 1059.71 6
7 -4 4 22125 1058.42 5
7 -4 4 21341.9 1102.44 37
7 -4 5 -53.8546 128.509 6
7 -4 5 90.7964 134.309 5
7 -4 5 95.7954 140.008 37
7 -4 6 12949.2 685.431 6
7 -4 6 12322.4 671.396 5
7 -4 6 11528.2 703.666 37
7 -4 7 2905.24 269.984 6
7 -4 7 3046.55 271.032 5
7 -4 7 2904.85 292.83 37
7 -4 8 4442.32 321.747 6
7 -4 8 4122.21 311.403 5
7 -4 8 4488.13 354.246 37
7 -4 9 3775.37 306.36 37
7 -4 10 501.818 129.941 37
7 -4 11 39.2535 90.3589 3
7 -4 11 43.1201 76.3385 37
-7 3 11 104.4 150.404 15
-7 3 10 2581.83 316.065 15
-7 3 10 1396.62 233.818 12
-7 3 9 698.363 257.668 15
-7 3 9 677.021 234.16 12
-7 3 8 13343.9 843.12 15
-7 3 8 12122.4 818.497 12
-7 3 7 2345.12 393.51 15
-7 3 7 2345.97 396.652 12
-7 3 6 15223.3 993.539 15
-7 3 5 12300.6 877.528 15
-7 3 4 8456.39 701.708 15
7 -3 -4 7520.54 484.81 37
-7 3 3 393.398 311.357 15
7 -3 -3 -48.3413 126.89 37
-7 3 2 130.429 277.386 15
-7 3 2 151.192 345.902 26
7 -3 -2 128.117 117.354 37
-7 3 1 332.943 299.567 15
-7 3 1 74.1625 327.859 26
7 -3 -1 104.165 253.751 1
7 -3 -1 147.532 126.908 37
-7 3 0 4215.21 495.414 15
-7 3 0 3667.81 710.464 26
7 -3 0 4369.73 361.483 37
7 -3 0 3313.04 573.948 1
7 -3 1 2973.95 269.257 6
-7 3 -1 2485.47 585.283 26
7 -3 1 3009.23 255.153 5
7 -3 1 3808.79 338.398 37
7 -3 2 11086.6 608.556 6
7 -3 2 9824.99 1011.39 1
7 -3 2 10327.5 583.676 5
7 -3 2 10344.6 651.11 37
7 -3 3 36361.3 1641.27 6
7 -3 3 34475.9 1614.37 5
7 -3 3 34280 1690.68 37
7 -3 4 18508 914.023 6
7 -3 4 17599.6 892.347 5
7 -3 4 15948.5 944.564 37
7 -3 5 7091.47 473.994 6
7 -3 5 7871.62 478.805 5
7 -3 5 7081.51 524.118 37
7 -3 6 21987.8 1082.37 6
7 -3 6 22502.8 1077.01 5
7 -3 6 20171.8 1122.68 37
7 -3 7 277.436 146.08 6
7 -3 7 89.0682 130.366 5
7 -3 7 156.055 159.139 37
7 -3 8 12390.8 649.728 6
7 -3 8 11016.6 682.459 37
7 -3 9 -96.0884 142.678 3
7 -3 9 81.8196 190.384 21
7 -3 9 45.8565 131.299 37
7 -3 10 371.67 134.412 37
7 -3 11 2223.76 178.242 33
7 -3 11 2520.55 195.679 3
-7 2 11 10087.4 611.865 15
-7 2 10 2436.39 344.286 15
-7 2 9 3222.6 384.813 15
-7 2 9 2629.05 316.03 12
-7 2 8 4904.74 484.944 15
-7 2 8 4342.34 440.154 12
-7 2 7 17920.9 1022.7 15
-7 2 7 14249.6 959.039 12
-7 2 6 7511.93 639.995 15
-7 2 5 2105.69 383.919 15
-7 2 4 259.651 263.275 15
7 -2 -3 14845.4 1292.85 1
-7 2 3 17085.3 1050.85 15
-7 2 3 19711.7 1652.24 26
-7 2 3 16469.5 1443.44 25
-7 2 2 7398.41 617.625 15
7 -2 -2 7413.23 836.477 1
-7 2 2 5676.09 883.68 26
-7 2 2 5815.51 862.767 25
7 -2 -2 7253.37 501.746 37
-7 2 1 28539.1 1548.67 15
7 -2 -1 31179.2 1967.48 1
-7 2 1 28430.6 2136.19 26
7 -2 -1 29284 1450.28 37
-7 2 0 6153.37 553.451 15
-7 2 0 5878.39 867.477 26
-7 2 0 5016.44 790.542 25
7 -2 0 6618.6 482.826 37
7 -2 1 34457.4 1576.42 6
7 -2 1 31463.7 2100.81 1
-7 2 -1 30769.8 2240.09 26
-7 2 -1 35506.7 2309.29 25
7 -2 1 33775.9 1536.06 5
7 -2 1 33318.4 1649.03 37
7 -2 2 676.422 158.351 6
-7 2 -2 633.973 382.885 25
7 -2 2 1034.8 357.476 1
7 -2 2 711.117 148.853 5
7 -2 2 514.166 191.843 37
7 -2 3 47852.4 2100.61 6
-7 2 -3 42494.6 2743.67 25
7 -2 3 46638.6 2068.08 5
7 -2 3 43209.2 2152.71 37
7 -2 4 3293.28 308.438 6
7 -2 4 4059.16 315.718 5
7 -2 4 3705.72 369.287 37
7 -2 5 16444.4 856.244 6
7 -2 5 15282.4 903.167 37
7 -2 6 214.368 173.19 3
7 -2 6 149.727 146.67 6
7 -2 6 109.936 163.971 37
7 -2 7 5194.61 385.415 3
7 -2 7 3859.5 370.033 37
7 -2 8 8347 503.029 3
7 -2 8 6552.89 491.324 37
7 -2 9 2520.13 259.413 3
7 -2 9 1101.91 273.883 21
7 -2 10 2978.89 308.801 21
7 -2 10 2705.79 241.566 37
7 -2 11 2331.58 182.94 33
-7 1 11 1671.29 264.497 15
-7 1 10 787.496 261.778 15
-7 1 9 138.315 267.137 15
-7 1 8 6797.61 556.178 15
-7 1 7 3014.06 398.695 15
-7 1 6 14415.3 924.807 15
-7 1 6 15906.1 887.588 28
-7 1 5 1582.19 314.56 15
-7 1 5 1752.71 290.02 28
-7 1 4 24056 1375.75 15
-7 1 4 24200.4 1963.41 26
-7 1 4 26785.1 1909.32 25
-7 1 4 28138.3 1295.11 36
7 -1 -3 455.928 268.019 1
-7 1 3 288.045 329.781 26
-7 1 3 245.766 281.478 25
-7 1 3 367.681 174.944 36
-7 1 2 28099.4 2043.07 26
-7 1 2 28954.3 1977.29 25
7 -1 -2 23346.9 1729.31 1
7 -1 -1 524.767 297.344 1
-7 1 1 136.521 267.494 26
-7 1 1 187.51 286.012 25
7 -1 -1 111.889 148.776 37
-7 1 1 25.0761 155.435 36
-7 1 0 12985.3 1291 26
-7 1 0 13115 1255.42 25
7 -1 0 13274.2 796.969 37
-7 1 0 13445.2 753.702 36
7 -1 1 766.222 163.638 3
7 -1 1 476.523 326.306 1
-7 1 -1 745.104 367.903 25
7 -1 1 483.027 199.882 37
-7 1 -1 906.99 196.888 36
7 -1 2 9385.05 530.588 3
-7 1 -2 7737.78 943.003 25
7 -1 2 7840.71 574.583 37
-7 1 -2 8148.97 531.451 36
7 -1 3 11618.7 636.21 3
7 -1 3 9288.08 666.871 37
7 -1 4 18048.8 870.335 3
7 -1 4 13165.7 873.582 37
7 -1 5 5891.45 441.144 3
7 -1 6 12786.4 739.752 3
7 -1 7 5603.01 408.628 3
7 -1 7 3770.52 366.384 37
7 -1 8 8985.95 613.41 37
7 -1 8 13866.5 677.948 3
7 -1 9 615.792 163.148 3
7 -1 9 292.735 130.021 37
7 -1 10 4171.31 344.118 21
-7 0 11 1039.07 232.995 15
-7 0 10 -149.774 268.169 15
-7 0 10 812.959 213.92 8
-7 0 9 869.536 276.843 15
-7 0 9 2469.74 327.419 8
-7 0 8 -392.432 302.432 15
-7 0 8 336.016 199.846 28
-7 0 7 10396.9 611.358 28
7 0 -7 7636.41 466.87 2
-7 0 6 8533.57 592.001 28
-7 0 6 8752.84 523.403 36
-7 0 5 1308.51 251.833 28
-7 0 5 1093.88 201.475 36
-7 0 4 3033.1 340.15 28
-7 0 4 2851.21 287.223 36
7 0 -3 461.959 298.54 1
-7 0 3 683.914 210.673 28
-7 0 3 559.91 406.13 26
-7 0 3 852.546 368.014 25
-7 0 3 871.99 196.919 36
7 0 -2 419.216 277.083 1
-7 0 2 136.466 290.855 26
-7 0 1 131.716 311.516 26
-7 0 1 246.096 291.062 25
7 0 -1 552.081 198.142 37
-7 0 1 300.47 161.963 36
7 0 0 797.054 338.901 1
-7 0 0 440.23 333.129 26
-7 0 0 615.247 349.401 25
7 0 0 577.972 210.1 37
-7 0 0 573.875 182.124 36
-7 0 -1 5353.49 786.022 25
-7 0 -1 6116.27 451.391 36
7 0 2 1137.91 215.985 3
-7 0 -2 1037.13 203.16 36
7 0 3 13929.4 864.754 37
-7 0 -3 13630.3 796.46 36
7 0 4 492.789 197.961 3
7 0 4 260.659 120.913 2
7 0 4 343.58 177.653 37
7 0 5 17866.6 1044.88 37
7 0 5 21967.7 1060.3 3
7 0 6 1901.94 257.36 37
7 0 6 2633.58 292.622 3
7 0 7 1823.93 372.633 21
7 0 7 2290.84 255.331 37
7 0 7 2750.17 281.085 3
7 0 8 2348.15 331.792 21
7 0 9 1095.2 220.198 21
-7 -1 12 144.704 104.2 8
-7 -1 11 749.399 187.924 8
-7 -1 10 65.4673 157.897 28
-7 -1 10 106.731 197.334 8
-7 -1 9 4813.29 388.867 28
-7 -1 9 4417.39 439.64 8
7 1 -8 223.445 96.9464 2
-7 -1 8 439.994 188.67 28
-7 -1 7 2291.7 288.292 28
7 1 -7 1419.65 181.309 2
-7 -1 6 7237.58 521.792 28
7 1 -6 7680.23 465.267 2
-7 -1 6 7640.33 480.185 36
-7 -1 5 8790.44 590.205 28
7 1 -5 9094.93 539.726 2
-7 -1 5 8815.52 547.916 36
-7 -1 4 8487.46 577.141 28
7 1 -4 9824.96 564.447 2
-7 -1 4 8581.11 553.364 36
-7 -1 3 13.6221 162.519 28
-7 -1 2 148.23 160.627 36
7 1 -1 268.829 186.911 37
-7 -1 1 507.021 173.009 36
7 1 0 2825.56 281.012 2
7 1 0 2555.17 315.965 37
-7 -1 0 2634.65 287.94 36
7 1 1 12769.3 690.55 2
7 1 1 11759.7 744.071 37
-7 -1 -1 11919.3 690.162 36
7 1 2 9167.97 547.391 2
7 1 2 8085.14 587.468 37
-7 -1 -2 9191.94 557.799 36
7 1 2 9560.56 559.134 3
7 1 3 12996.9 698.067 2
7 1 3 13517.1 786.124 37
-7 -1 -3 12160 702.858 36
7 1 3 14755.7 752.541 3
7 1 4 1086.35 210.289 3
7 1 4 728.444 200.476 37
-7 -1 -4 761.947 157.288 36
7 1 5 40219.8 1870.68 37
7 1 6 550.502 254.719 21
7 1 7 3869.47 386.759 21
7 1 8 1218.74 220.683 21
-7 -2 12 2031.86 207.239 8
-7 -2 11 4726.55 331.754 28
-7 -2 10 2989.65 282.105 28
-7 -2 10 3040.41 328.167 8
-7 -2 9 6181.81 433.819 28
-7 -2 9 6237.83 494.673 8
-7 -2 8 3264.58 307.381 28
7 2 -8 2576.32 211.975 2
-7 -2 7 8402.54 519.982 28
7 2 -7 7062.98 435.908 2
-7 -2 6 2568.14 304.154 28
7 2 -6 2849.68 258.358 2
-7 -2 6 3178.49 284.457 36
-7 -2 5 4532.28 385.656 28
7 2 -5 5136.67 362.354 2
-7 -2 5 4965.26 366.939 36
-7 -2 4 3078.53 316.994 28
7 2 -4 3942.87 318.961 2
-7 -2 4 3952.47 335.72 36
7 2 -3 380.359 172.007 2
7 2 -2 18697.7 925.932 2
7 2 -2 17142.1 967.643 37
-7 -2 2 16989.7 921.415 36
7 2 -1 1277.54 241.031 37
-7 -2 1 1319.73 227.826 36
7 2 0 36130 1644.02 2
7 2 0 34519.7 1697.92 37
-7 -2 0 34811.2 1649.74 36
7 2 1 547.721 164.526 2
7 2 1 441.497 177.179 37
-7 -2 -1 706.184 179.283 36
7 2 2 51468 2349.05 2
7 2 2 53557.5 2416.27 37
-7 -2 -2 54708.7 2373.48 36
7 2 3 1876.11 317.867 21
-7 -2 -3 2739.8 245.26 36
7 2 4 13312.6 803.018 21
7 2 5 1555.13 259.007 21
7 2 6 3669.29 318.834 21
7 2 7 60.1473 94.4232 20
7 2 7 32.2544 81.3438 19
-7 -3 11 1093.26 149.07 28
-7 -3 11 999.397 158.769 8
-7 -3 10 2990.77 253.989 28
-7 -3 10 3015.92 272.293 10
-7 -3 10 3665.5 306.994 8
-7 -3 9 1414.5 192.342 28
-7 -3 9 1097 218.505 8
7 3 -8 130.655 85.6017 2
-7 -3 8 147.028 139.545 28
-7 -3 8 158.181 179.061 8
-7 -3 7 4419.18 346.71 28
7 3 -7 4482.87 297.925 2
-7 -3 6 2436.86 259.8 28
7 3 -6 2668.67 233.214 2
-7 -3 6 2489.72 243.522 36
-7 -3 5 19128 994.947 28
7 3 -5 21146.2 999.125 2
-7 -3 5 20919.3 1009.99 36
7 3 -4 331.047 138.698 2
7 3 -3 24950.4 1175.66 2
7 3 -3 23757.6 1208.07 37
-7 -3 3 24178.4 1183.46 36
7 3 -2 1348.87 212.428 37
-7 -3 2 1499.47 216.093 36
7 3 -1 12819.8 670.972 2
-7 -3 1 11748.8 672.487 36
7 3 0 5736.33 382.393 2
-7 -3 0 6224.02 408.936 36
7 3 1 19646.7 974.498 2
-7 -3 -1 21401.2 1002.88 36
-7 -3 -2 904.168 154.317 36
7 3 3 2604.28 200.039 19
7 3 4 71.5971 78.8232 19
-7 -4 10 837.436 128.841 10
-7 -4 9 192.533 92.2704 28
-7 -4 9 174.66 115.832 8
-7 -4 8 5413.25 329.332 28
7 4 -8 4793.87 282.097 2
7 4 -7 435.415 99.0136 2
-7 -4 7 546.731 121.483 28
7 4 -6 1566.73 169.629 2
-7 -4 6 1753.21 216.72 8
-7 -4 6 1799.39 190.847 36
7 4 -5 3680.62 259.289 2
-7 -4 5 3861.17 273.853 36
7 4 -4 508.967 134.604 2
-7 -4 3 4211.19 310.101 36
7 4 -2 8268.15 476.139 2
-7 -4 2 9068.74 499.225 36
7 4 -1 1144.55 154.985 2
-7 -4 1 1025.62 165.742 36
7 4 0 263.747 97.4777 2
-7 -4 0 187.52 115.652 36
-7 -4 -1 46.6316 92.9128 36
7 4 3 58.9725 86.2035 20
7 5 -7 109.741 53.9107 2
7 5 -6 1748.94 146.447 2
-7 -5 6 2026.89 156.709 36
7 5 -5 2141.37 166.106 2
-7 -5 5 2134.55 176.588 36
7 5 -4 156.291 78.2433 2
-7 -5 4 220.98 95.5419 36
-7 -5 3 1317.81 142.391 36
7 5 -2 905.509 112.142 2
-7 -5 2 1071.34 126.472 36
-7 -5 1 69.0501 73.403 36
-8 7 1 -8.11562 113.434 15
-8 7 0 3703.2 298.159 15
-8 7 -1 2293.25 248.58 15
-8 7 -2 10936.2 615.224 15
-8 7 -3 4831.61 353.516 15
-8 7 -4 2351.4 228.475 15
-8 6 4 1049.6 182.335 15
-8 6 4 589.087 170.634 12
-8 6 3 6228.52 443.411 15
-8 6 2 1909.4 275.954 15
-8 6 1 8288.2 568.357 15
-8 6 0 7612 547.966 15
-8 6 -1 2075.96 307.428 15
-8 6 -2 14605.2 842.648 15
-8 6 -3 167.623 196.06 15
-8 6 -4 3345.99 335.371 15
8 -6 4 3357.46 208.683 5
-8 6 -5 -21.6488 149.665 15
8 -6 5 -3.99031 62.8894 5
8 -6 6 188.359 67.333 5
-8 5 6 1129.69 188.914 15
-8 5 5 2401.29 282.824 15
-8 5 5 1928.49 274.8 12
-8 5 4 715.643 234.623 15
-8 5 3 9292.98 636.188 15
-8 5 2 69.6118 236.21 15
-8 5 1 2687.67 364.842 15
-8 5 0 1474.45 304.881 15
-8 5 -1 7438.4 582.465 15
-8 5 -2 2811.63 361.666 15
-8 5 -3 429.406 220.764 15
8 -5 3 89.5689 82.0393 5
-8 5 -4 736.939 226.862 15
8 -5 4 781.21 117.404 5
-8 5 -5 344.167 174.714 15
8 -5 5 111.255 87.5691 6
8 -5 5 229.639 90.2984 5
8 -5 7 86.8306 84.6397 3
8 -5 8 253.02 81.1731 3
-8 4 7 716.327 178.384 15
-8 4 6 1531.88 259.168 15
-8 4 6 1411.87 238.854 12
-8 4 5 4540.59 421.404 15
-8 4 5 4582.05 427.659 12
-8 4 4 533.713 258.997 15
-8 4 3 9829.55 688.518 15
-8 4 2 1624.61 326.486 15
-8 4 1 3954.57 430.223 15
-8 4 0 56.1061 231.72 15
-8 4 -1 4657.33 454.291 15
8 -4 1 4830.21 336.811 37
-8 4 -2 1761.39 298.096 15
8 -4 2 1455.49 188.537 37
-8 4 -3 7945.3 571.005 15
8 -4 3 8348.2 447.965 5
8 -4 3 8479.72 494.412 37
8 -4 4 11097 607.214 37
8 -4 5 429.448 131.622 37
8 -4 6 1554.54 180.457 3
8 -4 6 1449 178.255 37
8 -4 7 16015.2 700.098 3
8 -4 7 12170.1 683.579 37
8 -4 8 6600.92 332.137 3
8 -4 8 4394.61 301.313 37
-8 3 8 9189 553.968 15
-8 3 7 3500.42 336.754 15
-8 3 6 8794.09 594.004 15
-8 3 5 291.439 222.466 15
-8 3 5 217.722 194.692 12
-8 3 4 6251.64 511.959 15
-8 3 3 -141.792 212.501 15
8 -3 -3 100.319 101.661 37
-8 3 2 12146.4 784.17 15
8 -3 -2 12580.6 674.366 37
-8 3 1 6660.13 547.061 15
8 -3 -1 7618.96 467.887 37
-8 3 0 4304.59 421.812 15
8 -3 0 4648.56 351.035 37
8 -3 1 11630.2 661.048 37
8 -3 2 20498.9 1040.04 37
8 -3 3 515.576 126.842 3
8 -3 3 130.025 139.655 37
8 -3 4 65094.9 2604.12 3
8 -3 4 52613.2 2621.41 37
8 -3 5 20792.3 920.292 3
8 -3 5 16193.7 921.559 37
8 -3 6 2065.42 211.97 3
8 -3 6 1523.82 197.075 37
8 -3 7 1505.94 181.46 3
8 -3 7 1420.62 176.9 37
8 -3 8 4809.38 385.354 21
8 -3 8 5184.83 342.59 37
-8 2 8 2621.24 294.895 15
-8 2 7 1814.61 251.513 15
-8 2 6 917.384 223.807 15
8 -2 -6 483.714 109.26 2
8 -2 -6 985.367 146.648 37
-8 2 5 1368.6 257.728 15
8 -2 -5 1840.98 202.606 37
-8 2 4 2528.73 313.096 15
8 -2 -4 2787.25 265.866 37
8 -2 -3 17193.9 893.776 37
8 -2 -2 8546.78 537.864 37
8 -2 -1 39511.3 1845.46 37
8 -2 0 1417.7 228.686 37
8 -2 1 27654.8 1357.74 37
8 -2 2 157.179 146.115 37
8 -2 3 23712.1 1041.5 3
8 -2 3 18413.5 1063.88 37
8 -2 4 2958.11 242.353 3
8 -2 4 1684.74 245.986 37
8 -2 5 5931.01 377.301 3
8 -2 5 4491.93 369.823 37
8 -2 6 381.263 151.024 3
8 -2 6 411.784 140.681 37
8 -2 7 1259.24 181.319 37
8 -2 7 2149.59 198.044 3
8 -2 8 410.451 110.485 3
8 -2 8 497.594 167.536 21
8 -1 -8 137.073 91.7725 37
8 -1 -7 359.027 120.659 37
8 -1 -6 3856.49 286.367 2
8 -1 -6 6620.82 380.378 37
8 -1 -5 5541.57 396.766 37
8 -1 -4 9637.09 583.867 37
8 -1 -3 178.742 139.244 37
8 -1 -2 17138.5 921.825 37
8 -1 -1 8987.12 575.676 37
8 -1 0 10947.2 664.286 37
8 -1 1 4111.14 357.482 37
8 -1 2 148.582 147.237 37
8 -1 3 4042.52 353.565 37
8 -1 3 4578.33 325.845 3
8 -1 4 -113.613 133.895 3
8 -1 5 259.718 128.726 3
8 -1 6 89.8087 111.913 3
8 -1 6 123.31 122.821 37
8 -1 7 455.142 203.354 21
8 -1 7 418.663 113.44 37
8 -1 8 1733.87 193.703 21
8 0 -9 351.478 100.632 37
-8 0 8 907.046 202.054 8
8 0 -7 236.09 81.9246 2
8 0 -6 2816.97 221.976 2
8 0 -5 1374.49 172.059 2
8 0 -5 1018.48 198.376 37
8 0 -4 15441.2 782.519 2
8 0 -4 15075.3 831.74 37
8 0 -3 1475.85 200.403 2
8 0 -3 1557.54 235.642 37
8 0 -2 6170.54 409.947 2
8 0 -2 5984.52 447.068 37
8 0 -1 4227.31 363.073 37
-8 0 1 3760.24 320.476 36
8 0 0 12544.4 680.648 2
8 0 0 12622.9 733.493 37
8 0 1 2787.53 253.636 2
8 0 2 1726.93 192.105 2
8 0 3 168.072 133.968 37
8 0 4 1037.61 182.04 37
8 0 5 3460.72 373.666 21
8 0 5 3930.24 295.129 37
8 0 6 1562.02 245.828 21
8 0 7 1043.17 160.243 21
-8 -1 9 8080.94 483.509 8
8 1 -7 2159.21 169.448 2
8 1 -6 5443.26 327.943 2
8 1 -5 11500.9 614.505 2
8 1 -5 11245.8 667.292 37
-8 -1 5 13040.4 638.798 36
8 1 -4 6488.29 405.39 2
8 1 -4 6225.53 443.928 37
-8 -1 4 7228.22 427.388 36
8 1 -3 8006.65 472.223 2
8 1 -2 54.3733 122.715 2
-8 -1 2 321.649 145.868 36
8 1 -1 6249.83 445.519 37
-8 -1 1 6239.47 408.88 36
8 1 0 519.192 139.021 2
8 1 0 461.741 155.606 37
-8 -1 0 693.597 162.595 36
8 1 1 12894.3 680.524 2
8 1 1 13250.7 731.822 37
-8 -1 -1 14190.4 702.504 36
8 1 2 851.452 169.069 37
8 1 3 10782.4 668.585 21
8 1 3 11522.7 612.269 37
8 1 4 33.5421 147.673 21
8 1 5 11625 620.26 21
8 2 -9 2470.9 198.775 37
-8 -2 9 3665.83 252.52 8
-8 -2 8 2489.06 245.867 8
8 2 -7 1726.87 144.548 2
-8 -2 7 3013.56 274.257 8
8 2 -6 1216.79 137.203 2
8 2 -5 224.604 108.004 2
8 2 -5 396.557 131.861 37
-8 -2 5 318.308 118.237 36
8 2 -4 9312.82 522.885 2
8 2 -4 10518.5 577.518 37
-8 -2 4 10249.7 539.891 36
8 2 -3 417.066 126.413 2
8 2 -3 224.79 123.202 37
8 2 -2 12621.8 685.596 37
-8 -2 2 12792.5 660.745 36
8 2 -1 96.5154 109.769 2
8 2 -1 115.827 115.374 37
-8 -2 1 348.965 130.012 36
8 2 0 17070 867.322 2
-8 -2 0 20198.3 897.402 36
-8 -2 -1 716.288 131.175 36
-8 -3 7 93.4612 89.304 8
8 3 -6 36.4363 62.7643 2
-8 -3 6 113.875 106.136 8
8 3 -5 5647.43 312.079 2
-8 -3 5 6300.69 328.18 36
8 3 -4 573.169 105.877 2
8 3 -3 6821.98 378.191 2
-8 -3 3 7197.05 392.659 36
-8 -3 2 114.625 96.7862 36
8 3 -1 3317.87 224.562 2
-8 -3 1 3865.33 247.345 36
-8 -3 0 2204.54 175.673 36
9 -3 0 836.527 116.268 37
9 -3 1 2194.42 181.491 37
9 -3 2 1566.61 150.532 37
9 -3 3 1661.97 152.439 37
9 -2 -4 127.171 72.5283 2
9 -2 -3 707.932 117.029 2
9 -2 -3 1205.33 131.32 37
9 -2 -2 280.668 101.271 2
9 -2 -2 410.203 102.11 37
9 -2 -1 1865.25 180.656 37
9 -2 0 834.365 135.578 37
9 -2 1 1589.34 165.843 2
9 -2 1 3582.19 231.543 37
9 -2 2 -9.91281 76.1297 2
9 -2 2 106.801 90.9904 37
9 -2 3 7156.16 401.008 37
9 -2 4 1868.31 159.161 37
9 -1 -4 551.099 100.094 2
9 -1 -4 1116.11 135.647 37
9 -1 -3 1504.32 160.971 2
9 -1 -3 3170.03 216.733 37
9 -1 -2 731.207 122.853 2
9 -1 -2 914.437 141.727 37
9 -1 -1 2387.52 201.998 2
9 -1 -1 3457.42 244.044 37
9 -1 0 62.5341 95.9959 37
9 -1 1 4113.25 289.175 2
9 -1 1 8613.33 383.882 37
9 -1 2 98.2294 89.7443 37
9 -1 3 2736.33 207.213 37
9 0 -5 1819.23 158.663 37
9 0 -4 5272.73 329.226 2
9 0 -4 9331.04 403.733 37
9 0 -3 476.242 97.6941 2
9 0 -3 584.262 118.167 37
9 0 -2 8434.04 476.22 2
9 0 -2 11821.9 534.91 37
9 0 -1 694.567 128.564 37
9 0 0 1970.35 159.315 2
9 0 2 1815.04 157.515 37
9 1 -3 2954.25 185.026 2
9 1 -2 315.425 76.6071 2
9 1 -2 462.114 92.1382 37
9 1 -1 1220.27 110.192 2
loop_
_geom_angle_atom_site_label_1
_geom_angle_atom_site_label_2
_geom_angle_atom_site_label_3
_geom_angle
_geom_angle_site_symmetry_1
_geom_angle_site_symmetry_3
_geom_angle_publ_flag
Cl2 Zn1 Cl1 114.24(5) . . ?
N3 Zn1 Cl1 110.43(12) . . ?
N3 Zn1 Cl2 110.93(12) . . ?
N3 Zn1 N4 103.71(16) . . ?
N4 Zn1 Cl1 107.26(12) . . ?
N4 Zn1 Cl2 109.68(12) . . ?
C14 N1 H1 123.9 . . ?
N2 N1 H1 123.9 . . ?
N2 N1 C14 112.1(4) . . ?
C8 N3 Zn1 133.8(3) . . ?
N2 N3 Zn1 116.4(4) . . ?
N2 N3 C8 109.5(4) . . ?
N3 C8 C14 107.5(4) . . ?
N3 C8 C9 131.1(5) . . ?
C14 C8 C9 121.4(5) . . ?
N1 C14 C8 103.7(5) . . ?
N1 C14 C13 135.1(5) . . ?
C8 C14 C13 121.2(5) . . ?
C7 N4 Zn1 130.3(3) . . ?
N5 N4 Zn1 118.8(3) . . ?
N5 N4 C7 110.3(4) . . ?
N5 N6 H6 123.4 . . ?
N5 N6 C1 113.3(4) . . ?
C1 N6 H6 123.4 . . ?
N3 N2 N1 107.0(4) . . ?
C8 C9 H9 121.2 . . ?
C10 C9 C8 117.6(5) . . ?
C10 C9 H9 121.2 . . ?
N4 C7 C6 131.4(5) . . ?
N4 C7 C1 108.8(5) . . ?
C1 C7 C6 119.8(5) . . ?
C1 C2 H2 122.4 . . ?
C3 C2 H2 122.4 . . ?
C3 C2 C1 115.2(6) . . ?
C13 C12 H12 118.5 . . ?
C13 C12 C10 123.1(5) . . ?
C10 C12 H12 118.5 . . ?
C7 C6 H6A 120.1 . . ?
C5 C6 C7 119.8(6) . . ?
C5 C6 H6A 120.1 . . ?
C14 C13 H13 121.7 . . ?
C12 C13 C14 116.6(5) . . ?
C12 C13 H13 121.7 . . ?
N4 N5 N6 104.7(4) . . ?
N6 C1 C7 102.9(5) . . ?
N6 C1 C2 137.6(6) . . ?
C7 C1 C2 119.5(6) . . ?
C2 C3 C4 116.3(6) . . ?
C5 C3 C2 125.4(7) . . ?
C5 C3 C4 118.3(6) . . ?
C9 C10 C12 120.1(5) . . ?
C9 C10 C11 120.7(6) . . ?
C12 C10 C11 119.2(5) . . ?
C6 C5 H5 119.8 . . ?
C3 C5 C6 120.4(7) . . ?
C3 C5 H5 119.8 . . ?
C10 C11 H11A 109.5 . . ?
C10 C11 H11B 109.5 . . ?
C10 C11 H11C 109.5 . . ?
H11A C11 H11B 109.5 . . ?
H11A C11 H11C 109.5 . . ?
H11B C11 H11C 109.5 . . ?
C3 C4 H4A 109.5 . . ?
C3 C4 H4B 109.5 . . ?
C3 C4 H4C 109.5 . . ?
H4A C4 H4B 109.5 . . ?
H4A C4 H4C 109.5 . . ?
H4B C4 H4C 109.5 . . ?
loop_
_geom_bond_atom_site_label_1
_geom_bond_atom_site_label_2
_geom_bond_distance
_geom_bond_site_symmetry_2
_geom_bond_publ_flag
Zn1 Cl1 2.2404(12) . ?
Zn1 Cl2 2.2351(13) . ?
Zn1 N3 2.013(4) . ?
Zn1 N4 2.023(4) . ?
N1 H1 0.8600 . ?
N1 C14 1.361(7) . ?
N1 N2 1.329(7) . ?
N3 C8 1.375(7) . ?
N3 N2 1.311(6) . ?
C8 C14 1.385(7) . ?
C8 C9 1.404(7) . ?
C14 C13 1.404(9) . ?
N4 C7 1.367(7) . ?
N4 N5 1.317(6) . ?
N6 H6 0.8600 . ?
N6 N5 1.352(6) . ?
N6 C1 1.362(8) . ?
C9 H9 0.9300 . ?
C9 C10 1.370(8) . ?
C7 C6 1.426(9) . ?
C7 C1 1.367(8) . ?
C2 H2 0.9300 . ?
C2 C1 1.483(9) . ?
C2 C3 1.361(10) . ?
C12 H12 0.9300 . ?
C12 C13 1.359(9) . ?
C12 C10 1.414(9) . ?
C6 H6A 0.9300 . ?
C6 C5 1.351(9) . ?
C13 H13 0.9300 . ?
C3 C5 1.334(10) . ?
C3 C4 1.555(10) . ?
C10 C11 1.512(9) . ?
C5 H5 0.9300 . ?
C11 H11A 0.9600 . ?
C11 H11B 0.9600 . ?
C11 H11C 0.9600 . ?
C4 H4A 0.9600 . ?
C4 H4B 0.9600 . ?
C4 H4C 0.9600 . ?
loop_
_geom_torsion_atom_site_label_1
_geom_torsion_atom_site_label_2
_geom_torsion_atom_site_label_3
_geom_torsion_atom_site_label_4
_geom_torsion
_geom_torsion_site_symmetry_1
_geom_torsion_site_symmetry_2
_geom_torsion_site_symmetry_3
_geom_torsion_site_symmetry_4
_geom_torsion_publ_flag
Zn1 N3 C8 C14 172.6(3) . . . . ?
Zn1 N3 C8 C9 -7.6(8) . . . . ?
Zn1 N3 N2 N1 -174.5(3) . . . . ?
Zn1 N4 C7 C6 7.6(8) . . . . ?
Zn1 N4 C7 C1 -171.4(3) . . . . ?
Zn1 N4 N5 N6 172.5(3) . . . . ?
N1 C14 C13 C12 179.4(5) . . . . ?
N3 C8 C14 N1 1.1(5) . . . . ?
N3 C8 C14 C13 -179.2(4) . . . . ?
N3 C8 C9 C10 179.4(5) . . . . ?
C8 N3 N2 N1 0.3(5) . . . . ?
C8 C14 C13 C12 -0.2(7) . . . . ?
C8 C9 C10 C12 0.1(7) . . . . ?
C8 C9 C10 C11 -179.5(5) . . . . ?
C14 N1 N2 N3 0.4(5) . . . . ?
C14 C8 C9 C10 -0.9(7) . . . . ?
N4 C7 C6 C5 -179.2(5) . . . . ?
N4 C7 C1 N6 0.2(5) . . . . ?
N4 C7 C1 C2 178.5(4) . . . . ?
N2 N1 C14 C8 -1.0(5) . . . . ?
N2 N1 C14 C13 179.4(5) . . . . ?
N2 N3 C8 C14 -0.9(5) . . . . ?
N2 N3 C8 C9 178.9(5) . . . . ?
C9 C8 C14 N1 -178.7(4) . . . . ?
C9 C8 C14 C13 1.0(7) . . . . ?
C7 N4 N5 N6 0.1(5) . . . . ?
C7 C6 C5 C3 0.8(9) . . . . ?
C2 C3 C5 C6 -0.5(9) . . . . ?
C6 C7 C1 N6 -179.0(4) . . . . ?
C6 C7 C1 C2 -0.6(7) . . . . ?
C13 C12 C10 C9 0.7(8) . . . . ?
C13 C12 C10 C11 -179.7(5) . . . . ?
N5 N4 C7 C6 178.9(5) . . . . ?
N5 N4 C7 C1 -0.2(6) . . . . ?
N5 N6 C1 C7 -0.1(5) . . . . ?
N5 N6 C1 C2 -178.0(5) . . . . ?
C1 N6 N5 N4 0.0(5) . . . . ?
C1 C7 C6 C5 -0.2(8) . . . . ?
C1 C2 C3 C5 -0.4(8) . . . . ?
C1 C2 C3 C4 -179.1(5) . . . . ?
C3 C2 C1 N6 178.6(6) . . . . ?
C3 C2 C1 C7 0.9(7) . . . . ?
C10 C12 C13 C14 -0.6(8) . . . . ?
C4 C3 C5 C6 178.2(5) . . . . ?
