#------------------------------------------------------------------------------
#$Date: 2022-07-28 01:06:24 +0300 (Thu, 28 Jul 2022) $
#$Revision: 276967 $
#$URL: file:///home/coder/svn-repositories/cod/cif/1/56/73/1567392.cif $
#------------------------------------------------------------------------------
#
# This file is available in the Crystallography Open Database (COD),
# http://www.crystallography.net/
#
# All data on this site have been placed in the public domain by the
# contributors.
#
data_1567392
loop_
_publ_author_name
'Hu, Yilei'
'Jiang, Xingxing'
'Wu, Tianhui'
'Xue, Yanyan'
'Wu, Chao'
'Huang, Zhipeng'
'Lin, Zheshuai'
'Xu, Jun'
'Humphrey, Mark G.'
'Zhang, Chi'
_publ_section_title
;
 Wide Bandgaps and Strong SHG Responses of Hetero-Oxyfluorides by
 Dual-Fluorination-Directed Bandgap Engineering
;
_journal_name_full               'Chemical Science'
_journal_paper_doi               10.1039/D2SC02137D
_journal_year                    2022
_chemical_formula_sum            'F5 I O4 Rb2 W'
_chemical_formula_weight         640.69
_space_group_crystal_system      orthorhombic
_space_group_IT_number           36
_space_group_name_Hall           'C 2c -2'
_space_group_name_H-M_alt        'C m c 21'
_audit_creation_method           SHELXL-2017/1
_audit_update_record
;
2022-04-11 deposited with the CCDC.	2022-07-26 downloaded from the CCDC.
;
_cell_angle_alpha                90
_cell_angle_beta                 90
_cell_angle_gamma                90
_cell_formula_units_Z            4
_cell_length_a                   11.726(2)
_cell_length_b                   10.188(2)
_cell_length_c                   7.6661(16)
_cell_measurement_reflns_used    3604
_cell_measurement_temperature    296(2)
_cell_measurement_theta_max      24.978
_cell_measurement_theta_min      2.648
_cell_volume                     915.8(3)
_computing_structure_refinement  'SHELXL-2017/1 (Sheldrick, 2017)'
_diffrn_ambient_temperature      296(2)
_diffrn_measured_fraction_theta_full 0.985
_diffrn_measured_fraction_theta_max 0.985
_diffrn_measurement_device_type  'CCD area detector'
_diffrn_measurement_method       multi-scan
_diffrn_radiation_type           MoK\a
_diffrn_radiation_wavelength     0.71073
_diffrn_reflns_av_R_equivalents  0.0563
_diffrn_reflns_av_unetI/netI     0.0501
_diffrn_reflns_Laue_measured_fraction_full 0.985
_diffrn_reflns_Laue_measured_fraction_max 0.985
_diffrn_reflns_limit_h_max       13
_diffrn_reflns_limit_h_min       -13
_diffrn_reflns_limit_k_max       12
_diffrn_reflns_limit_k_min       -12
_diffrn_reflns_limit_l_max       9
_diffrn_reflns_limit_l_min       -9
_diffrn_reflns_number            3604
_diffrn_reflns_point_group_measured_fraction_full 0.992
_diffrn_reflns_point_group_measured_fraction_max 0.992
_diffrn_reflns_theta_full        24.978
_diffrn_reflns_theta_max         24.978
_diffrn_reflns_theta_min         2.648
_exptl_absorpt_coefficient_mu    26.607
_exptl_absorpt_correction_type   multi-scan
_exptl_crystal_colour            colorless
_exptl_crystal_density_diffrn    4.647
_exptl_crystal_description       plate
_exptl_crystal_F_000             1112
_exptl_crystal_size_max          0.3
_exptl_crystal_size_mid          0.2
_exptl_crystal_size_min          0.1
_exptl_transmission_factor_max   0.8014
_exptl_transmission_factor_min   0.4566
_refine_diff_density_max         4.248
_refine_diff_density_min         -5.754
_refine_diff_density_rms         0.630
_refine_ls_abs_structure_details
;
 Refined as an inversion twin.
;
_refine_ls_abs_structure_Flack   0.32(10)
_refine_ls_extinction_method     none
_refine_ls_goodness_of_fit_ref   1.020
_refine_ls_hydrogen_treatment    undef
_refine_ls_matrix_type           full
_refine_ls_number_parameters     71
_refine_ls_number_reflns         821
_refine_ls_number_restraints     37
_refine_ls_restrained_S_all      0.995
_refine_ls_R_factor_all          0.0774
_refine_ls_R_factor_gt           0.0773
_refine_ls_shift/su_max          0.000
_refine_ls_shift/su_mean         0.000
_refine_ls_structure_factor_coef Fsqd
_refine_ls_weighting_details
'w=1/[\s^2^(Fo^2^)+(0.0002P)^2^+550.2583P] where P=(Fo^2^+2Fc^2^)/3'
_refine_ls_weighting_scheme      calc
_refine_ls_wR_factor_gt          0.1834
_refine_ls_wR_factor_ref         0.1834
_reflns_Friedel_coverage         0.856
_reflns_Friedel_fraction_full    1.000
_reflns_Friedel_fraction_max     1.000
_reflns_number_gt                816
_reflns_number_total             821
_reflns_threshold_expression     'I > 2\s(I)'
_cod_data_source_file            d2sc02137d2.cif
_cod_data_source_block           1
_cod_database_code               1567392
_shelx_shelxl_version_number     2017/1
_shelx_space_group_comment
;
The symmetry employed for this shelxl refinement is uniquely defined
by the following loop, which should always be used as a source of
symmetry information in preference to the above space-group names.
They are only intended as comments.
;
_shelx_res_file
;
TITL 1 in Cmc21
    1.res
    created by SHELXL-2017/1 at 12:45:23 on 11-Apr-2022
CELL  0.71073   11.7260   10.1880    7.6661    90.000    90.000    90.000
ZERR        4    0.0020    0.0020    0.0016     0.000     0.000     0.000
LATT -7
SYMM             - X ,            - Y ,    0.50000 + Z
SYMM             - X ,              Y ,              Z
SYMM               X ,            - Y ,    0.50000 + Z
SFAC F  I  O  Rb W
UNIT 20  4  16  8  4
OMIT 1 3 0
OMIT 7 5 0
OMIT 9 1 0
OMIT 11 1 0
OMIT 5 3 -3
OMIT 6 8 0
OMIT 3 7 0
LIST 4 ! automatically inserted. Change 6 to 4 for CHECKCIF!!
L.S. 50
ACTA
FMAP 2
PLAN 20
omit -3 50
TWIN
CONF
EADP I1a I1b
ISOR  0.001 F1 O1 O2 O3 F2 F3
TEMP   23
WGHT    0.000200  550.258301
BASF   0.31509
FVAR       0.06376
W1    5    0.000000    0.161604    0.435472    10.50000    0.03951    0.02094 =
         0.01647    0.00766    0.00000    0.00000
I1A   2    0.000000    0.476624    0.163772    10.45000    0.00517    0.02768 =
         0.00977   -0.00397    0.00000    0.00000
I1B   2   -0.044194    0.529561    0.201257    10.05000    0.00517    0.02768 =
         0.00977   -0.00397    0.00000    0.00000
F1    1    0.164615    0.467578    0.163414    11.00000    0.07599    0.07616 =
         0.07603    0.00012    0.00000   -0.00026
F2    1    0.108141    0.235575    0.605320    11.00000    0.04531    0.04552 =
         0.04536    0.00004   -0.00003    0.00001
O3    3    0.118222    0.158862    0.285804    11.00000    0.04279    0.04288 =
         0.04262   -0.00008    0.00009   -0.00003
O1    3    0.000000    0.355465    0.006382    10.50000    0.06794    0.06788 =
         0.06787    0.00000    0.00000    0.00000
O2    3    0.000000    0.376038    0.363854    10.50000    0.02091    0.02081 =
         0.02083   -0.00001    0.00000    0.00000
F3    1    0.000000    0.006285    0.506077    10.50000    0.07768    0.07764 =
         0.07769   -0.00001    0.00000    0.00000
RB1   4    0.306126    0.336791    0.432261    11.00000    0.02492    0.07392 =
         0.02617   -0.00010   -0.00284   -0.01369
HKLF 4 1 0.0000 1.0000 0.0000 1.0000 0.0000 0.0000 0.0000 0.0000 -1.0000




REM  1 in Cmc21
REM R1 =  0.0773 for     816 Fo > 4sig(Fo)  and  0.0774 for all     821 data
REM     71 parameters refined using     37 restraints

END

WGHT      0.0000    289.2903

REM Highest difference peak  4.248,  deepest hole -5.754,  1-sigma level  0.630
Q1    1   0.0000  0.1174  0.1634  10.50000  0.05    4.25
Q2    1   0.0000  0.4415  0.4356  10.50000  0.05    3.17
Q3    1   0.2018  0.1482  0.1673  11.00000  0.05    2.65
Q4    1   0.1486  0.5238  0.1816  11.00000  0.05    2.53
Q5    1   0.0577  0.2261  0.1631  11.00000  0.05    2.50
Q6    1   0.0000  0.3840  0.1690  10.50000  0.05    2.41
Q7    1   0.0000  0.1754  0.0024  10.50000  0.05    2.22
Q8    1   0.0000  0.4723  0.3609  10.50000  0.05    2.11
Q9    1   0.0520  0.1916  0.6545  11.00000  0.05    2.09
Q10   1   0.2195  0.1936  0.3923  11.00000  0.05    1.88
Q11   1   0.1175  0.1258  0.5949  11.00000  0.05    1.83
Q12   1   0.1189  0.2302  0.4368  11.00000  0.05    1.82
Q13   1   0.0000  0.2500  0.6506  10.50000  0.05    1.81
Q14   1   0.0000  0.0747  0.4456  10.50000  0.05    1.80
Q15   1   0.0742  0.4757 -0.0520  11.00000  0.05    1.76
Q16   1  -0.0495  0.6172  0.1856  11.00000  0.05    1.74
Q17   1  -0.0998  0.5526  0.3037  11.00000  0.05    1.72
Q18   1   0.0909  0.2264  0.2815  11.00000  0.05    1.66
Q19   1   0.1555  0.0479  0.1751  11.00000  0.05    1.65
Q20   1   0.0372  0.3697 -0.1385  11.00000  0.05    1.51
;
_shelx_res_checksum              78231
_shelx_hkl_file
;
   2   0   0   12.96    1.57
  -2   0   0   15.36    1.56
  -4   0   0   38.63    3.84
   4   0   0   44.45    3.93
   8   0   0    5.97    1.82
  -8   0   0    4.49    1.71
  10   0   0   78.28    7.42
 -10   0   0   73.90    7.27
 -12   0   0   24.34    3.81
  12   0   0   19.29    3.83
   1  -1   0    2.66    0.43
   1  -1   0    1.77    0.66
  -1  -1   0    1.78    0.33
   1   1   0    2.16    0.44
   1   1   0    1.77    0.34
  -3   1   0  723.68   55.08
   3   1   0  785.36   54.90
   3  -1   0  743.24   55.42
  -3  -1   0  761.24   54.92
   5  -1   0   22.74    1.88
  -5   1   0   21.96    3.15
   5  -1   0   20.95    2.88
  -5  -1   0   19.86    2.91
   5   1   0   25.07    2.65
  -7   1   0   21.95    3.10
  -7  -1   0   19.52    2.84
  -9   1   0   76.13    7.51
   9  -1   0   79.21    7.52
 -11  -1   0   20.01    3.44
  11   1   0   13.22    3.01
 -11   1   0   21.47    3.69
   0   2   0  359.10   27.99
   0  -2   0  408.80   28.03
   0  -2   0  386.53   27.97
   2   2   0   74.89    5.39
  -2   2   0   67.48    5.85
   2   2   0   72.12    5.37
  -2  -2   0   65.76    5.35
   2  -2   0   80.63    5.96
   4  -2   0    9.89    1.10
   4  -2   0   10.50    1.99
  -4   2   0   11.95    2.08
  -4  -2   0   12.19    1.00
   4   2   0    9.42    0.98
   4   2   0    8.53    1.38
   6  -2   0  116.66    9.69
   6  -2   0  115.04    8.49
   6  -2   0  109.21    8.55
  -8   2   0   23.92    3.76
  -8  -2   0   19.57    2.91
 -10  -2   0   24.29    3.32
 -10   2   0   29.49    4.80
  10   2   0   23.79    3.22
  10  -2   0   16.74    3.98
 -12   2   0    6.12    2.40
  12  -2   0    4.17    2.44
  -1   3   0   61.17    4.63
  -1   3   0   59.65    4.86
   1  -3   0   56.50    4.65
   1  -3   0   51.43    4.74
   1   3   0   66.38    4.64
   3  -3   0   25.93    2.15
   3   3   0   23.62    1.95
  -3   3   0   22.72    2.89
  -3  -3   0   24.79    1.95
   3   3   0   22.94    2.01
  -3  -3   0   20.66    1.94
  -3   3   0   25.59    2.09
  -5  -3   0   17.15    1.60
  -5  -3   0   16.49    1.97
  -5   3   0   15.56    2.79
   5   3   0   22.86    2.73
   5   3   0   20.24    1.68
   7  -3   0   17.40    2.87
   7   3   0   12.73    1.98
   7  -3   0   14.45    1.67
  -7  -3   0   12.18    2.00
   9  -3   0   27.97    2.97
  -9  -3   0   32.03    3.43
   9   3   0   33.21    3.50
   9  -3   0   33.65    4.51
 -11   3   0   15.21    3.74
 -11  -3   0   17.65    2.73
  11   3   0   15.31    3.47
   0  -4   0  565.76   38.97
   0   4   0  516.48   38.91
   0   4   0  480.96   38.86
   0  -4   0  568.80   38.84
  -2   4   0   33.05    2.89
   2  -4   0   29.65    3.19
  -2  -4   0   36.92    2.83
   2   4   0   34.29    2.85
   2  -4   0   31.60    2.92
  -2   4   0   33.29    3.32
  -4   4   0   37.58    4.10
  -4  -4   0   32.61    2.77
   4   4   0   33.44    2.86
   6  -4   0  285.41   19.76
   6   4   0  275.21   19.63
   6   4   0  254.19   19.70
  -6  -4   0  265.62   19.62
  -6  -4   0  245.76   19.43
   8  -4   0    9.49    1.59
   8  -4   0    6.76    2.19
   8   4   0   11.47    1.75
  -8   4   0    5.57    2.09
 -10  -4   0   24.04    3.09
  10  -4   0   34.37    3.18
  10   4   0   29.18    3.23
 -12   4   0    5.59    2.72
  12  -4   0    8.67    2.98
  12   4   0    8.26    1.97
  -1   5   0   12.25    1.51
  -1   5   0   13.01    1.85
  -1  -5   0   10.68    1.46
   1   5   0   13.94    1.58
  -1  -5   0   11.69    1.15
   3  -5   0  668.52   50.58
  -3   5   0  637.90   50.99
  -3  -5   0  746.28   50.42
   3  -5   0  713.75   51.03
  -3   5   0  711.00   50.51
   3   5   0  674.08   50.45
   5   5   0    6.52    1.11
   5  -5   0    6.01    1.25
  -5   5   0    5.04    1.67
   5  -5   0    4.53    1.48
   7  -5   0   51.09    4.10
   7   5   0   42.47    3.74
  -7  -5   0   41.62    3.65
  -7  -5   0   40.02    3.58
   7   5   0   45.10    3.66
   9  -5   0   89.01    8.35
   9   5   0  112.28    8.27
  -9  -5   0  110.87    8.26
  11   5   0   11.23    1.87
  11  -5   0    6.86    2.59
 -11   5   0    7.56    2.78
   0  -6   0  908.43   63.35
   0  -6   0  973.82   63.14
   0   6   0  785.21   63.15
   0   6   0  801.73   63.20
  -2  -6   0   22.79    2.59
  -2   6   0   29.98    3.25
   2   6   0   30.45    2.75
  -2   6   0   28.05    2.71
  -4   6   0    9.83    2.39
  -4  -6   0   11.15    1.49
   4   6   0   13.99    1.71
  -4   6   0   14.92    1.73
   6  -6   0  237.26   18.90
  -6   6   0  228.02   19.70
   6  -6   0  263.64   19.90
   6   6   0  271.64   18.76
  -8  -6   0   15.20    1.78
  -8  -6   0   16.68    1.73
   8   6   0   15.76    1.69
   8  -6   0   19.40    2.42
   8   6   0   16.55    2.05
  10   6   0   25.08    2.60
  10  -6   0   26.72    3.14
  10  -6   0   23.75    2.68
  10  -6   0   33.98    4.94
 -10  -6   0   26.10    2.57
   1   7   0   55.95    4.64
   1   7   0   54.75    4.20
   1  -7   0   42.16    4.53
  -1   7   0   61.65    4.72
  -3   7   0  117.93    9.11
  -3   7   0  114.38    8.52
   3  -7   0   97.27    8.76
   3  -7   0   94.86    8.51
   3   7   0  109.21    8.47
   5   7   0   53.28    4.58
  -5   7   0   50.03    4.50
   7  -7   0   10.81    2.65
   7   7   0    6.16    1.36
   7  -7   0    9.02    1.86
  -7   7   0    3.06    1.99
  -9  -7   0   39.69    3.33
  -9   7   0   36.76    5.05
   9   7   0   32.75    3.53
  11  -7   0    8.09    3.13
  11   7   0   11.83    1.57
  11  -7   0   11.13    1.94
  11  -7   0   17.05    2.54
 -11   7   0    6.99    3.08
   0   8   0   99.06    8.19
   0   8   0   96.53    8.37
   0  -8   0  108.58    8.55
   0  -8   0  116.84    8.27
  -2   8   0   44.05    4.21
   2   8   0   50.70    4.26
  -2   8   0   43.96    4.64
  -4   8   0   29.52    2.99
  -4   8   0   34.20    3.95
   4   8   0   29.19    2.96
   4  -8   0   23.44    3.37
   4  -8   0   22.32    2.96
   6   8   0   26.12    2.95
  -6  -8   0   32.48    2.85
  -6   8   0   23.42    3.93
   6  -8   0   25.79    3.83
   6  -8   0   25.40    3.17
   8  -8   0   19.59    2.71
   8   8   0   13.92    2.25
  10  -8   0   21.16    3.11
  10  -8   0   29.90    5.02
  -1  -9   0   40.21    3.91
   1   9   0   37.08    3.76
  -1   9   0   38.02    3.81
  -1  -9   0   40.97    3.31
   1  -9   0   42.21    3.97
   1   9   0   35.54    3.23
  -1   9   0   42.62    3.95
  -3   9   0  134.73   11.44
   3   9   0  131.15   10.98
   3  -9   0  157.31   11.49
  -3  -9   0  139.86   11.02
  -3   9   0  131.61   11.00
   3  -9   0  145.52   11.23
  -5  -9   0    5.90    1.41
  -5   9   0    8.25    2.23
   5   9   0    8.26    1.80
   5  -9   0   12.28    2.09
  -5   9   0    8.79    1.78
  -7  -9   0   10.87    1.90
   7   9   0   19.36    2.46
  -7   9   0   15.19    3.40
  -9   9   0   19.71    3.99
   9  -9   0   12.13    3.74
   9   9   0   18.41    2.57
   0 -10   0  455.67   32.40
   0  10   0  398.65   32.09
   0 -10   0  477.52   31.86
   0  10   0  395.78   31.73
   2 -10   0   10.26    2.07
   2 -10   0   11.27    2.18
  -2  10   0   16.75    2.26
   2  10   0   13.42    2.10
  -4  10   0   22.43    2.93
   4  10   0   26.05    3.00
  -4  10   0   30.72    4.20
   6 -10   0  103.44    9.84
  -6  10   0  120.08   10.05
   6  10   0  110.60    9.12
   8  10   0    4.07    1.42
  -8  10   0    1.24    1.97
  -8 -10   0    3.27    1.16
   8 -10   0    5.96    1.94
   8 -10   0    3.79    2.38
   1  11   0   24.51    3.39
  -1 -11   0   15.41    1.92
   1 -11   0   20.68    2.49
  -1  11   0   18.99    2.81
  -1 -11   0   20.21    2.73
  -3  11   0  177.85   13.70
  -3  11   0  183.88   13.90
   3  11   0  158.56   14.20
  -5 -11   0   10.49    2.09
  -5  11   0   11.64    3.69
  -5  11   0   11.53    2.17
   5  11   0    9.84    2.29
   7 -11   0   12.17    3.03
  -7 -11   0    6.70    1.68
  -7  11   0    5.08    2.24
   7  11   0    6.57    1.60
   0  12   0   41.93    4.37
   0  12   0   39.93    3.75
   0 -12   0   49.12    3.97
  -2  12   0   23.89    3.20
  -2  12   0   24.38    3.14
   2  12   0   30.74    3.31
   2 -12   0   27.91    3.74
  -4  12   0   12.20    2.29
  -4 -12   0   14.52    2.32
   4 -12   0    7.95    2.06
   4  12   0   10.00    2.15
  -4  12   0   12.94    2.60
   6 -12   0   22.87    3.47
   6  12   0   24.61    3.16
  -1  13   0   32.15    3.63
   1  13   0   27.12    3.47
  -1  13   0   30.34    3.14
  -3  13   0    6.26    1.77
  -3 -13   0    9.49    2.06
  -3  13   0    5.90    1.77
   3  13   0    5.37    1.70
   3 -13   0    4.55    1.82
   3 -13   0    2.92    1.51
  -5  13   0    9.77    2.41
  -5  13   0    9.49    2.14
   0 -14   0   22.05    2.33
   0 -14   0   25.16    3.32
   0  14   0   19.21    2.18
   0  14   0   21.47    3.09
  -2 -14   0    3.93    1.72
   2  14   0   10.49    2.13
  -2  14   0    6.01    1.83
  -2  14   0    7.02    1.53
   4 -14   0    8.23    2.16
   4  14   0   11.55    2.34
  -4 -14   0    7.07    1.98
  -4  14   0    7.24    1.98
  -4  14   0    8.79    2.24
   0   0  -1    1.45    0.33
   2   0   1   35.17    2.87
  -2   0   1   37.98    3.02
  -2   0  -1   35.09    2.86
  -2   0  -1   37.84    3.05
   2   0   1   38.46    3.10
   2   0  -1   38.36    3.00
  -4   0  -1   41.42    3.09
   4   0  -1   31.57    3.28
  -4   0  -1   34.68    3.37
  -4   0   1   43.08    3.49
   4   0   1   32.47    3.66
   6   0  -1   45.33    4.60
  -6   0  -1   54.88    4.72
   6   0   1   40.49    4.94
  -6   0   1   53.04    4.85
   6   0   1   54.34    4.04
   8   0  -1   57.35    5.63
  -8   0   1   54.53    5.83
   8   0   1   54.22    4.64
  -8   0  -1   67.62    5.76
   8   0   1   60.88    6.12
 -10   0   1   11.85    2.96
  10   0  -1   13.64    2.94
  10   0   1   15.62    3.11
  12   0   1   10.85    2.84
 -12   0  -1   16.41    3.12
  12   0  -1   16.73    3.41
  -1   1   1  160.27   11.41
   1  -1   1  159.73   11.44
   1   1  -1  154.41   11.34
  -1  -1  -1  145.07   11.31
  -1   1   1  151.99   11.28
   1  -1  -1  150.31   11.28
   1   1   1  160.66   11.38
   1   1   1  149.79   11.31
  -1  -1   1  155.52   11.34
  -1   1  -1  160.61   11.45
   3   1  -1   36.92    3.26
  -3   1   1   37.18    3.49
   3  -1   1   45.16    3.21
  -3  -1  -1   45.79    3.18
  -3  -1  -1   39.34    3.32
   3   1   1   43.47    3.17
   3  -1  -1   38.36    3.52
  -3   1  -1   37.17    3.56
  -3  -1   1   40.02    3.37
   5   1  -1  130.28    9.76
  -5  -1  -1  107.51    9.31
  -5   1   1  122.13   10.08
  -5  -1  -1  145.92   10.31
   5  -1   1  120.00    9.37
  -5   1  -1  144.26   10.27
  -5  -1   1  105.95   10.18
   5   1   1  132.11   10.25
   7  -1   1   65.21    4.57
  -7  -1  -1   50.32    5.07
  -7   1   1   61.79    5.70
   7  -1   1   54.03    5.80
   7   1   1   52.73    5.52
  -7  -1   1   60.43    5.52
   7  -1  -1   48.89    5.35
  -7   1  -1   57.44    5.49
   7   1   1   57.65    4.48
   9  -1   1   24.23    2.22
   9  -1   1   21.95    4.28
  -9  -1  -1   28.99    3.27
  -9   1   1   16.40    3.50
   9   1  -1   21.82    3.13
   9   1   1   21.96    2.16
   9  -1  -1   23.68    3.85
   9   1   1   20.29    3.44
 -11  -1  -1   58.00    6.11
  11  -1   1   46.38    6.21
  11   1  -1   44.85    5.01
 -11   1  -1   50.32    5.39
  11   1   1   39.73    5.11
   0  -2  -1    6.39    0.75
   0  -2  -1    6.61    0.76
   0  -2   1    7.50    0.78
   0  -2   1    7.17    0.79
   0   2   1    5.89    0.72
   0   2  -1    7.28    0.83
   0   2   1    7.99    0.78
   2   2  -1  586.22   42.62
  -2   2   1  627.95   42.92
   2   2  -1  573.80   42.60
  -2  -2  -1  559.51   42.64
  -2   2   1  562.11   42.69
   2   2   1  594.07   42.67
   2   2   1  557.43   42.64
   2  -2  -1  616.85   42.70
  -2  -2   1  584.12   42.64
  -2   2  -1  646.53   43.04
  -2  -2   1  559.73   42.64
  -4   2   1  337.62   23.65
  -4  -2  -1  332.64   23.17
  -4  -2  -1  303.03   22.99
   4   2  -1  292.88   23.11
  -4   2   1  335.36   22.95
  -4  -2   1  314.79   23.28
   4   2   1  320.61   23.02
   4   2   1  281.27   24.08
  -6   2   1   23.45    3.12
   6  -2   1   26.17    3.53
   6  -2   1   23.86    2.14
  -6  -2  -1   22.63    2.49
   6   2  -1   21.33    2.41
  -6  -2  -1   22.74    2.07
  -6  -2   1   23.91    2.81
  -6   2  -1   25.69    3.23
   6   2   1   22.14    2.92
   6  -2  -1   24.48    3.17
   6   2   1   22.44    2.29
  -8   2   1  178.25   15.23
  -8  -2  -1  189.16   13.89
   8  -2   1  186.81   15.51
   8  -2   1  178.08   13.93
  -8  -2  -1  193.01   14.47
   8  -2   1  182.44   14.02
   8   2  -1  188.87   14.47
   8   2   1  170.22   13.88
   8  -2  -1  205.15   15.37
   8   2   1  179.83   14.81
  -8   2  -1  208.58   15.27
  10   2  -1   31.14    4.00
 -10  -2  -1   40.71    4.20
  10  -2   1   45.54    3.50
  10  -2   1   40.24    3.61
  10   2   1   34.62    4.37
  10  -2  -1   47.51    7.31
 -10   2  -1   38.98    4.86
  12  -2   1    8.86    2.78
 -12   2   1    7.01    2.59
  12  -2  -1   11.35    2.93
 -12  -2   1   10.29    2.50
 -12   2  -1   14.44    3.42
   1   3  -1  503.90   36.27
  -1   3   1  469.28   36.25
  -1  -3  -1  514.36   36.29
   1  -3   1  485.56   36.27
  -1   3   1  476.72   36.31
   1  -3   1  470.19   36.43
   1   3   1  474.94   36.20
   1  -3  -1  531.56   36.39
  -1  -3   1  538.53   36.29
  -1   3  -1  525.38   36.43
  -1  -3   1  497.01   36.12
   1   3   1  508.07   36.13
   1  -3  -1  479.98   36.33
   3  -3   1   14.61    1.41
  -3  -3  -1   13.77    1.26
   3   3  -1   11.70    1.32
  -3  -3  -1   11.50    1.24
  -3   3   1   14.32    1.91
   3   3  -1   12.23    1.16
  -3   3   1   14.79    1.40
  -3  -3   1   10.71    1.23
   3  -3  -1   17.09    2.04
   3   3   1   14.95    1.45
   3   3   1   12.94    1.29
  -3   3  -1   15.20    2.14
  -5  -3  -1  350.52   24.93
   5  -3   1  342.19   26.11
  -5   3   1  384.79   26.21
   5   3  -1  350.11   24.99
   5  -3   1  318.64   25.00
  -5  -3  -1  364.72   25.05
   5   3   1  342.68   25.39
   5   3   1  347.86   25.00
   5  -3  -1  310.77   25.72
  -5   3  -1  326.62   25.84
   5  -3  -1  297.19   25.03
  -5  -3   1  353.23   25.28
  -7  -3  -1  118.33    8.74
  -7   3   1  106.20    9.87
   7   3  -1  123.13    9.03
  -7  -3  -1  126.77    9.07
   7  -3   1  103.70   10.05
   7  -3   1  108.93    8.77
   7  -3   1  109.02    8.85
  -7   3  -1  119.76    9.98
   7   3   1  121.24    8.76
   7   3   1  112.81    9.37
   9  -3   1   22.37    3.83
   9  -3   1   21.51    2.25
  -9  -3  -1   20.97    2.06
   9  -3   1   20.36    2.09
   9   3  -1   16.79    2.44
  -9  -3  -1   20.01    2.51
   9   3   1   19.54    2.84
   9  -3  -1   22.11    3.66
   9   3   1   17.68    2.00
  -9   3  -1   21.71    3.63
 -11  -3  -1   62.95    5.40
  11  -3   1   50.76    6.60
 -11  -3   1   65.07    5.88
 -11   3  -1   54.04    6.38
  11   3   1   60.76    6.38
  11  -3  -1   48.26    6.56
   0   4   1    9.11    1.07
   0  -4  -1    8.47    1.11
   0   4  -1    8.91    1.14
   0  -4   1    8.08    1.10
   0  -4  -1    7.75    1.01
   0   4   1    8.58    1.10
   0   4  -1    8.39    1.04
   2   4  -1   95.56    7.42
  -2   4   1   89.36    7.42
   2  -4   1   92.81    7.85
  -2   4   1   95.56    7.62
   2  -4   1   93.40    7.40
  -2  -4  -1  110.49    7.39
   2  -4  -1  100.28    7.70
   2  -4  -1   94.08    7.48
  -2   4  -1   99.10    7.76
  -2  -4   1   96.07    7.12
  -2  -4   1  104.53    7.44
   2   4   1   96.55    7.13
   2   4   1   90.88    7.17
   2   4   1   95.47    7.49
   4  -4   1   72.78    7.01
   4   4  -1   77.87    5.88
   4   4  -1   70.57    6.09
  -4  -4  -1   81.48    6.04
   4  -4   1   76.14    6.17
  -4   4   1   91.39    7.16
   4   4   1   81.00    6.08
   4   4   1   78.13    6.23
  -4   4  -1   80.72    7.05
   6  -4   1   27.80    2.49
  -6   4   1   24.27    3.44
  -6  -4  -1   25.92    2.34
   6   4  -1   24.96    2.26
  -6  -4  -1   22.55    2.22
   6  -4  -1   30.55    3.59
  -6  -4   1   20.33    2.59
  -6   4  -1   26.35    3.70
   6   4   1   25.45    2.72
   6   4   1   23.20    2.27
   8  -4   1   84.20    8.48
   8  -4   1   76.87    6.84
  -8  -4  -1   95.82    6.85
   8   4  -1   94.50    7.02
  -8   4   1   79.16    8.21
  -8  -4  -1   99.04    7.09
   8  -4   1   79.19    6.99
   8   4   1   94.33    7.35
  -8   4  -1  102.74    8.59
   8   4   1   84.20    6.81
   8  -4  -1   71.62    8.07
 -10  -4  -1   31.56    2.98
  10  -4   1   30.35    3.06
  10  -4   1   29.13    3.33
  10   4  -1   35.24    3.43
 -10  -4  -1   37.88    3.43
  10   4   1   37.10    3.80
 -10   4  -1   32.59    4.56
 -12  -4  -1   12.37    1.99
  12  -4   1    9.74    3.04
  12   4  -1    8.82    1.96
 -12  -4   1    6.26    1.86
  12   4   1    9.16    2.19
  12  -4  -1    9.16    2.95
 -12   4  -1    7.44    2.78
   1   5  -1   16.38    1.82
  -1  -5  -1   12.90    1.69
  -1   5   1   17.90    1.91
   1   5  -1   18.21    1.56
   1  -5   1   19.80    1.84
  -1   5   1   17.01    1.84
  -1   5  -1   14.89    1.92
  -1  -5   1   14.10    1.82
   1  -5  -1   19.85    1.93
   1   5   1   16.36    1.75
   1   5   1   17.74    1.56
  -1   5  -1   17.97    1.85
  -3   5   1   19.95    2.00
  -3   5   1   19.97    2.49
  -3  -5  -1   15.52    1.80
  -3   5  -1   22.81    2.87
   3   5   1   19.43    1.89
  -5  -5  -1   43.10    3.41
  -5   5   1   40.35    3.49
   5   5  -1   40.99    3.14
  -5   5   1   35.40    4.25
   5  -5   1   39.91    3.59
   5  -5   1   47.49    5.21
   5   5   1   34.92    3.39
   5   5   1   36.82    3.43
  -5  -5   1   42.05    3.34
  -5   5  -1   45.17    4.63
   5  -5  -1   42.55    3.73
   5  -5  -1   41.92    4.38
   7  -5   1   22.33    3.77
   7  -5   1   22.78    2.41
  -7   5   1   25.82    3.83
  -7  -5  -1   22.75    2.15
  -7  -5  -1   22.25    2.15
   7   5  -1   20.35    2.00
   7   5   1   21.11    2.18
   7  -5  -1   17.87    2.38
   7   5   1   19.32    2.27
   7  -5  -1   19.82    3.43
  -7   5  -1   21.98    3.86
  -9  -5  -1   28.09    2.53
  -9  -5  -1   27.43    2.65
   9  -5   1   26.53    2.62
   9   5  -1   23.46    2.56
   9  -5   1   25.34    2.80
   9   5   1   22.44    2.51
  -9   5  -1   26.57    4.26
   9   5   1   23.92    2.86
  -9  -5   1   27.14    2.91
  11  -5   1   13.35    1.97
  11   5  -1   18.77    2.24
  11  -5   1   13.14    2.85
  11  -5   1   12.63    3.78
 -11  -5   1   18.67    2.41
  11   5   1   18.09    2.43
  11  -5  -1   12.62    3.70
 -11   5  -1   16.30    3.73
   0  -6  -1   20.29    2.18
   0   6  -1   16.65    1.94
   0   6   1   21.46    2.08
   0  -6   1   20.52    2.20
   0   6   1   21.06    2.16
   0   6  -1   20.46    2.19
   0  -6  -1   19.37    2.00
  -2  -6  -1   40.07    3.99
   2   6  -1   49.98    4.16
   2  -6   1   56.15    4.23
  -2   6   1   45.40    4.11
  -2   6   1   43.89    4.34
   2   6   1   44.19    4.02
  -2   6  -1   51.03    4.72
  -2   6  -1   54.80    4.21
  -4  -6  -1   26.61    2.46
  -4   6   1   27.18    3.24
   4  -6   1   26.53    2.61
   4   6  -1   21.04    2.49
  -4   6   1   26.10    2.60
   4  -6   1   25.84    3.38
   4  -6  -1   22.25    2.65
  -4   6  -1   24.37    3.34
   4   6   1   27.42    2.51
  -4  -6   1   29.65    2.49
   4  -6  -1   23.70    3.14
  -6   6   1   33.00    4.20
   6  -6   1   33.37    3.15
   6   6  -1   28.50    2.99
  -6   6   1   34.80    3.01
  -6  -6  -1   30.06    2.83
   6  -6   1   39.12    4.42
  -6  -6   1   27.42    2.71
   6   6   1   27.49    2.89
  -6   6  -1   32.35    4.30
   8  -6   1   61.20    4.94
   8   6  -1   55.31    4.31
  -8  -6  -1   54.90    4.51
  -8  -6  -1   58.62    4.54
  -8   6  -1   43.44    6.77
   8   6   1   49.43    4.56
  -8  -6   1   49.02    4.42
   8   6   1   54.10    4.46
 -10  -6  -1   16.74    1.93
  10  -6   1   16.80    2.06
 -10  -6  -1   18.68    2.00
  10   6  -1   12.66    1.82
  10  -6   1   14.00    2.46
  10  -6  -1   13.05    2.39
 -10   6  -1   11.77    3.14
  10   6   1   14.13    2.03
  10   6   1   15.64    2.04
  -1   7   1  212.06   16.20
   1   7  -1  212.31   16.19
   1  -7   1  194.70   16.22
   1  -7   1  193.23   16.18
  -1  -7  -1  249.17   16.28
  -1   7   1  218.86   16.17
  -1  -7  -1  230.93   15.80
   1  -7  -1  204.50   16.24
   1  -7  -1  215.41   16.13
  -1   7  -1  208.82   16.17
   1   7   1  203.84   15.86
  -1   7  -1  222.57   16.16
   1   7   1  212.09   16.15
   3  -7   1   32.53    3.37
   3   7  -1   27.37    2.70
   3  -7   1   28.43    2.77
  -3   7   1   22.54    3.05
  -3   7   1   24.64    2.63
  -3  -7  -1   23.10    2.54
  -3   7  -1   25.20    3.19
  -3   7  -1   28.30    2.76
  -3  -7   1   21.84    2.55
   3   7   1   24.83    2.56
  -5   7   1  160.37   12.96
   5   7  -1  179.59   13.06
   5  -7   1  190.97   13.22
  -5   7   1  165.17   13.73
  -5  -7  -1  164.76   12.88
   5   7   1  161.59   12.93
  -5   7  -1  165.96   13.76
   7  -7   1   48.35    4.49
   7  -7   1   43.11    5.56
   7   7  -1   45.82    4.32
  -7  -7  -1   57.54    4.25
  -7   7   1   42.27    5.39
  -7   7  -1   56.28    5.79
   7   7   1   51.23    4.35
   7  -7  -1   40.88    5.39
   7  -7  -1   47.33    4.60
   9  -7   1   19.51    4.01
  -9  -7  -1   14.41    1.98
   9  -7   1   19.48    2.55
   9   7   1   14.67    2.10
   9  -7  -1   16.87    3.77
  11  -7   1   30.18    3.15
  11  -7   1   30.50    5.21
  11  -7  -1   34.01    3.08
  11   7   1   24.03    3.06
  11   7   1   29.69    2.84
 -11  -7   1   32.70    2.82
  11  -7  -1   29.48    5.26
   0  -8  -1   31.51    3.18
   0  -8  -1   33.04    2.88
   0   8   1   28.57    3.04
   0   8  -1   27.90    2.77
   0   8   1   30.59    3.04
   0  -8   1   28.69    3.08
   0   8  -1   30.58    3.14
   0  -8   1   31.14    3.00
   2   8  -1  245.30   19.23
  -2   8   1  234.86   19.37
   2  -8   1  270.61   19.55
  -2  -8  -1  255.11   19.23
   2  -8   1  262.48   19.37
  -2   8   1  238.35   19.16
   2  -8  -1  297.16   19.54
  -2   8  -1  241.96   19.23
  -2   8  -1  253.09   19.34
   2   8   1  239.21   19.17
  -2  -8   1  268.30   19.30
   4  -8   1  137.95   11.76
  -4   8   1  162.37   11.76
   4  -8   1  127.87   12.17
  -4   8   1  169.72   12.43
   4   8  -1  147.68   11.70
  -4   8  -1  170.78   12.41
   4  -8  -1  132.90   11.79
   4   8   1  153.92   11.67
   6   8  -1   20.72    2.42
  -6   8   1   21.13    2.41
  -6   8   1   16.65    3.28
  -6  -8  -1   17.89    2.23
  -6   8  -1   21.78    3.56
  -6  -8   1   17.04    2.15
   6   8   1   21.10    2.40
   8   8  -1   75.31    6.33
   8  -8   1   66.08    7.58
   8  -8   1   79.06    6.67
   8  -8  -1   76.13    7.01
  -8   8  -1   83.44    7.65
   8  -8  -1   63.02    7.49
   8   8   1   76.39    6.34
  10   8   1   22.06    2.69
  10  -8  -1   16.97    2.99
 -10   8  -1   23.57    4.21
  -1   9   1   76.81    5.84
   1   9  -1   61.61    5.24
   1   9  -1   71.82    5.89
   1  -9   1   57.02    5.78
   1  -9  -1   60.12    5.85
   1   9   1   68.29    5.81
   1   9   1   60.92    5.44
  -1   9  -1   79.21    5.97
   1  -9  -1   59.57    5.62
  -1   9  -1   78.73    5.76
  -3   9   1   26.93    2.97
  -3  -9  -1   25.03    2.91
   3   9  -1   32.23    3.15
  -3   9   1   24.99    3.46
   3  -9   1   34.71    3.62
  -3  -9   1   25.28    2.95
  -3   9  -1   23.99    2.98
  -3   9  -1   29.82    3.51
   3   9   1   26.71    2.99
   5  -9   1   33.02    5.47
  -5   9   1   41.93    4.06
   5  -9   1   40.85    4.23
  -5  -9  -1   49.58    4.27
   5   9  -1   42.01    4.12
  -5   9   1   34.66    4.68
   5  -9  -1   35.83    5.03
   5  -9  -1   46.89    5.18
  -5  -9   1   48.22    4.00
   5   9   1   39.09    4.02
  -5   9  -1   46.47    4.96
  -7   9   1   40.49    5.24
  -7  -9  -1   54.01    4.32
   7   9  -1   45.18    4.41
   7  -9   1   41.80    5.42
   7  -9  -1   41.13    5.39
  -7   9  -1   50.41    5.46
   7  -9  -1   43.82    4.65
   7   9   1   46.68    4.41
   9  -9   1   20.59    5.89
  -9  -9  -1    8.54    1.73
  -9  -9   1    9.10    1.62
  -9   9  -1    6.74    2.46
   9  -9  -1   17.54    5.47
   0 -10   1   36.29    3.40
   0  10  -1   32.55    3.65
   0  10   1   39.88    3.68
   0 -10  -1   34.58    3.70
   0  10   1   30.07    3.48
   0 -10  -1   36.67    3.30
   0 -10   1   34.10    3.70
   2 -10   1    4.67    1.95
   2  10  -1    6.35    1.61
  -2  10   1    4.91    1.78
  -2 -10  -1    6.58    1.63
   2 -10   1    7.35    1.69
  -2  10   1    6.06    1.41
   2 -10  -1    5.60    1.46
  -2  10  -1    5.24    1.68
   2 -10  -1    6.52    1.76
  -2 -10   1    5.26    1.82
  -2  10  -1    5.31    1.46
   2  10   1    5.27    1.49
   4  10  -1   18.81    2.56
  -4  10   1   18.17    3.53
   4 -10   1   19.99    2.76
   4 -10   1   21.61    3.17
  -4 -10  -1   15.11    2.43
  -4  10   1   18.95    2.58
   4 -10  -1   22.00    3.13
   4 -10  -1   22.76    2.84
   4  10   1   19.47    2.59
  -4  10  -1   20.67    3.56
  -4 -10   1   19.93    3.20
  -6  10   1   13.54    2.50
  -6 -10  -1   18.03    2.47
  -6  10   1   14.47    3.30
   6  10   1   22.69    2.69
  -6  10  -1   19.87    3.52
  -6 -10   1   15.13    2.51
   8  10  -1    8.40    1.95
   8 -10   1   11.25    2.42
  -8 -10  -1   12.89    1.99
  -8 -10   1   12.39    1.92
   8 -10  -1   10.68    2.89
  -8  10  -1    9.64    2.66
   8  10   1   10.50    2.16
  -1 -11  -1   12.13    2.01
   1  11  -1   11.06    2.54
   1 -11   1    7.64    1.69
  -1  11   1    9.08    1.90
   1  11   1    6.91    1.98
  -1  11  -1    7.19    1.58
   1 -11  -1    8.06    1.74
  -1  11  -1    8.81    2.01
   1  11   1    7.81    1.82
   3  11  -1   22.64    2.86
  -3 -11  -1   19.25    2.74
  -3  11   1   20.90    3.32
  -3  11   1   16.82    2.50
  -3  11  -1   17.74    2.67
   3  11   1   18.97    2.64
  -3  11  -1   19.75    3.07
  -3 -11   1   17.90    2.61
   5  11  -1   16.67    2.71
   5 -11   1   19.31    3.23
  -5  11   1   13.14    2.40
  -5 -11  -1   11.80    2.19
  -5  11  -1    9.38    2.85
  -5 -11   1    9.82    2.13
   5 -11  -1   16.80    2.76
   5  11   1   15.56    2.47
  -7 -11  -1    9.41    1.91
   7 -11   1    2.01    2.24
  -7  11   1    4.62    2.20
   7  11  -1    4.57    2.19
   7 -11  -1    5.39    1.93
  -7 -11   1    8.66    1.84
   7  11   1    8.47    1.91
  -7  11  -1    5.56    2.18
   7 -11  -1    3.94    2.29
   0  12   1   14.19    2.37
   0 -12   1   18.19    2.19
   0  12  -1   15.90    2.57
   0 -12  -1   17.39    2.08
   0 -12   1   15.15    2.52
   0  12  -1   15.34    1.93
   0  12   1   16.04    2.25
  -2  12   1   44.32    4.43
   2  12  -1   50.18    4.63
  -2  12   1   41.72    4.54
  -2 -12  -1   47.04    4.66
   2  12   1   42.28    4.34
  -2  12  -1   46.23    4.54
  -2  12  -1   41.77    4.16
  -2 -12   1   40.04    4.47
   4 -12   1   25.09    3.36
   4  12  -1   22.47    3.12
  -4  12   1   26.23    3.11
  -4  12   1   27.21    3.72
   4 -12  -1   19.18    3.26
  -4  12  -1   26.66    3.55
   4  12   1   26.13    3.17
   4 -12  -1   22.71    3.31
   6 -12   1   12.88    2.94
  -6 -12  -1    8.83    2.09
  -6  12   1    6.84    2.31
  -6  12   1    7.32    1.85
  -6  12  -1    6.72    2.09
  -6 -12   1    9.32    1.97
   1 -13   1   46.42    5.04
  -1  13   1   56.27    4.94
  -1  13   1   58.65    4.78
   1  13  -1   50.88    4.97
   1 -13   1   42.19    4.47
  -1  13  -1   50.19    4.38
   1 -13  -1   43.78    4.98
   1 -13  -1   43.34    4.42
   1  13   1   44.66    4.72
  -1  13  -1   55.98    5.03
  -3  13   1   10.12    2.32
  -3 -13  -1    5.39    1.88
   3  13  -1    9.51    2.16
   3 -13   1   15.22    2.88
  -3  13   1   10.59    2.23
  -3 -13   1    6.75    1.89
  -3  13  -1    8.62    2.03
   3  13   1    7.20    1.75
  -3  13  -1    8.87    2.10
   3 -13  -1   14.19    2.71
   5  13  -1   42.00    4.47
  -5  13   1   38.06    5.12
   5 -13   1   34.06    4.77
  -5  13   1   37.41    4.27
  -5 -13  -1   47.27    5.38
   5 -13   1   48.63    4.88
   5  13   1   42.42    4.40
   5 -13  -1   37.20    4.88
  -5 -13   1   47.92    4.55
   5 -13  -1   49.66    5.37
  -5  13  -1   35.14    4.64
   0 -14   1   13.81    2.76
   0 -14  -1   13.96    1.90
   0  14   1   13.21    2.40
   0 -14   1   14.22    1.89
   0  14   1   12.06    1.79
   0 -14  -1   17.15    2.92
   0  14  -1   12.06    2.45
  -2 -14  -1   16.66    2.91
   2  14  -1   14.21    2.61
  -2  14   1   11.79    2.45
   2 -14   1   10.78    2.42
  -2  14   1   11.09    2.23
   2 -14   1   17.28    2.92
  -2 -14   1   13.55    2.60
  -2  14  -1   10.26    1.95
  -2  14  -1   12.91    2.56
   2  14   1   11.94    2.43
   2 -14  -1   18.15    2.98
   4  14  -1   19.09    2.83
  -4  14   1   20.79    2.91
   4 -14   1   12.95    2.90
  -4  14   1   17.88    3.58
   4 -14   1   14.91    3.83
   4 -14  -1   12.88    2.92
   4 -14  -1   20.34    3.27
   4  14   1   17.62    2.73
  -4  14  -1   15.31    2.77
   0   0  -2  329.29   23.06
   0   0   2  303.80   23.04
   2   0  -2  537.28   39.46
  -2   0  -2  569.81   39.78
  -2   0   2  554.93   39.72
  -2   0  -2  530.21   39.60
   2   0  -2  536.33   39.69
   2   0   2  561.99   39.77
   2   0   2  523.06   39.60
  -4   0  -2  658.21   47.59
  -4   0   2  672.74   47.60
   4   0  -2  647.76   47.51
   4   0   2  614.64   47.29
   4   0   2  712.43   47.80
  -4   0  -2  596.70   47.25
   6   0   2  204.28   15.53
   6   0  -2  212.36   15.98
  -6   0  -2  210.72   16.01
   6   0   2  196.23   16.48
  -6   0   2  221.81   16.22
  -8   0   2   27.65    3.57
   8   0   2   31.03    4.41
   8   0  -2   23.60    3.14
  -8   0  -2   23.57    3.12
   8   0   2   25.46    2.49
 -10   0  -2   45.06    4.71
  10   0   2   41.51    3.86
  10   0  -2   54.18    5.10
 -10   0   2   37.78    5.19
  10   0   2   47.40    5.62
  12   0   2   40.67    5.61
  12   0   2   44.82    3.93
  12   0  -2   39.58    5.13
 -12   0  -2   50.90    4.99
  -1  -1  -2  479.52   36.53
   1  -1   2  489.35   36.31
  -1   1   2  513.00   36.42
  -1   1   2  500.56   36.23
  -1  -1   2  504.17   36.24
  -1  -1   2  511.77   36.40
   1  -1  -2  497.91   36.24
  -3  -1  -2   59.84    4.70
   3  -1   2   53.41    4.71
   3   1  -2   63.54    4.79
  -3  -1  -2   66.67    4.89
   3  -1   2   59.88    5.03
   3   1   2   61.79    4.92
   3  -1  -2   52.27    4.87
  -3  -1   2   69.41    4.89
   3   1   2   59.56    4.71
  -5  -1  -2  168.85   12.48
  -5   1   2  157.92   12.94
   5   1  -2  183.14   12.74
   5  -1   2  160.22   12.49
   5  -1   2  148.36   13.31
  -5  -1  -2  175.46   12.78
   5  -1  -2  157.47   12.88
  -5  -1   2  191.40   12.96
  -5   1  -2  161.73   12.97
   5   1   2  167.91   12.49
   7  -1   2  113.56    9.69
   7  -1   2  139.65   11.22
  -7   1   2  112.19   10.47
  -7  -1  -2  112.31    9.65
  -7  -1  -2  133.92   10.20
   7   1  -2  148.07   10.25
  -7   1  -2  132.37   10.48
   7   1   2  123.22    9.70
   7  -1  -2  136.56   10.53
  -7  -1   2  127.72   10.48
   7   1   2  132.21   10.88
  -9   1   2   60.73    7.01
  -9  -1  -2   73.84    6.48
   9  -1   2   69.06    5.87
   9   1  -2   80.79    6.60
   9  -1   2   76.85    7.78
   9   1   2   79.21    7.47
  -9   1  -2   73.34    6.85
   9  -1  -2   63.82    6.84
   9   1   2   81.49    5.91
  11  -1   2    6.37    1.35
  11  -1   2    6.55    2.69
 -11  -1  -2    8.80    2.10
  11  -1  -2    3.72    2.09
 -11   1  -2    7.05    1.94
   0  -2  -2   20.91    1.68
   0  -2   2   17.55    1.71
   0   2   2   17.69    1.67
   0   2   2   18.57    1.57
   0  -2  -2   15.36    1.89
   2  -2   2   88.29    6.72
  -2   2   2   78.39    6.36
  -2   2   2   87.22    6.66
  -2  -2  -2   88.34    6.47
   2  -2  -2   79.67    6.37
  -2   2  -2   84.26    6.71
   2  -2  -2   79.07    6.63
   2   2   2   88.04    6.63
  -2  -2   2   90.53    6.54
   2   2   2   85.65    6.46
  -2  -2   2   89.47    6.35
  -4   2   2  145.81   10.41
   4  -2   2  125.83   10.76
  -4  -2  -2  139.42   10.08
   4  -2   2  124.65    9.94
   4   2  -2  132.43    9.98
  -4  -2  -2  114.38    9.88
  -4   2  -2  136.91   10.61
   4   2   2  143.59   10.32
  -4  -2   2  133.60   10.12
   4  -2  -2  148.22   10.44
   4   2   2  115.30    9.88
   6   2  -2   22.24    2.18
  -6   2   2   19.48    3.02
   6  -2   2   16.63    1.94
  -6  -2  -2   21.83    2.23
  -6  -2  -2   19.05    1.90
   6  -2   2   18.55    3.26
   6  -2  -2   16.53    2.61
   6   2   2   18.64    1.90
  -6   2  -2   19.53    2.79
  -6  -2   2   21.47    2.47
   6   2   2   15.76    2.76
   8  -2   2   15.76    1.92
  -8  -2  -2   17.08    2.30
  -8  -2  -2   16.40    1.85
   8   2  -2   16.39    2.22
   8  -2   2   19.82    3.73
   8   2   2   17.58    3.43
   8  -2  -2   12.98    2.68
  -8   2  -2   16.54    2.92
   8   2   2   17.76    1.89
  -8  -2   2   16.85    2.77
  10   2  -2   17.87    2.75
 -10  -2  -2   23.13    2.79
 -10  -2   2   21.57    3.53
 -10   2  -2   21.55    3.47
  12  -2   2   20.55    2.48
  12   2  -2   20.81    3.59
  12  -2   2   15.05    4.26
 -12  -2  -2   31.26    3.86
  12   2   2   26.12    3.84
  12   2   2   24.26    2.51
 -12   2  -2   27.22    3.90
  -1   3   2   84.82    6.33
  -1  -3  -2   72.62    6.31
   1  -3   2   93.64    6.55
  -1   3   2   92.15    6.49
   1   3   2   82.48    6.35
  -1   3  -2   90.78    6.58
   1  -3  -2   94.04    6.37
   1   3   2   77.55    6.35
  -1  -3   2   75.55    6.33
  -1  -3   2   73.54    6.30
   3  -3   2   21.93    2.60
  -3   3   2   21.44    2.31
  -3   3   2   19.93    1.94
  -3  -3  -2   23.22    1.97
  -3  -3   2   23.06    1.91
   3   3   2   20.35    1.94
   3   3   2   17.90    2.63
  -3  -3   2   21.31    1.97
   3  -3  -2   22.14    1.93
  -3   3  -2   22.91    2.52
  -5  -3  -2   58.85    4.25
   5  -3   2   54.11    4.30
   5   3  -2   54.63    4.23
  -5  -3  -2   47.70    4.79
   5  -3   2   44.28    5.14
  -5   3   2   63.43    5.45
   5   3   2   57.05    4.27
  -5   3  -2   51.20    4.97
   5  -3  -2   43.20    4.76
   5   3   2   45.50    4.61
   7   3  -2   52.52    4.80
  -7   3   2   60.92    6.21
  -7  -3  -2   52.70    4.87
   7  -3  -2   60.79    5.83
   7   3   2   66.30    5.92
   9  -3   2   14.16    1.82
   9  -3   2   13.61    1.92
   9  -3   2   17.66    3.82
  -9   3   2   12.44    3.67
   9   3  -2   12.01    2.00
  -9  -3  -2   16.10    2.18
  -9  -3  -2   14.95    1.78
  -9  -3   2   15.05    2.92
   9   3   2   18.55    2.98
   9  -3  -2   14.76    3.16
   9   3   2   12.99    1.78
 -11  -3  -2    7.22    1.72
  11   3  -2    3.41    1.43
  11  -3   2    5.97    1.85
  11  -3   2    3.85    2.59
 -11   3   2    1.08    1.99
  11  -3   2    5.35    1.33
  11   3   2    4.80    1.28
 -11   3  -2    4.46    2.18
  11  -3  -2    4.32    2.36
  11   3   2    2.92    1.57
   0  -4   2  158.58   11.88
   0  -4   2  162.82   11.89
   0   4   2  156.75   11.85
   0   4  -2  157.24   11.94
   0  -4  -2  164.78   11.92
   0  -4  -2  159.76   11.87
   0   4   2  153.33   11.84
   2  -4   2  259.26   18.21
  -2   4   2  255.72   18.11
   2  -4   2  226.21   17.84
  -2  -4  -2  241.38   17.80
  -2   4   2  242.88   18.02
   2  -4  -2  225.62   18.03
  -2  -4   2  249.96   17.78
  -2  -4   2  260.10   17.82
   2   4   2  236.18   17.81
  -2   4  -2  236.69   18.10
   2  -4  -2  224.98   17.82
   2   4   2  236.69   17.71
  -4   4   2  226.04   15.68
  -4  -4  -2  181.13   15.07
   4  -4   2  184.35   16.00
   4  -4   2  212.13   15.25
  -4  -4   2  178.86   15.09
  -4   4  -2  213.93   15.84
   4  -4  -2  235.99   15.23
   4   4   2  189.85   15.11
   4   4   2  210.76   15.24
   6  -4   2   75.39    6.12
  -6   4   2   68.22    5.98
  -6   4   2   71.84    6.82
  -6  -4  -2   80.80    6.06
  -6  -4  -2   74.19    5.97
   6  -4   2   78.98    6.09
   6   4  -2   76.46    5.94
   6  -4  -2   91.43    7.18
   6   4   2   65.40    5.95
   6   4   2   81.44    6.65
  -6   4  -2   71.64    6.94
   8  -4   2   11.70    1.79
  -8  -4  -2   13.40    1.82
  -8  -4  -2   12.54    1.59
   8  -4   2   11.44    1.68
   8   4  -2   11.54    1.65
   8  -4  -2    8.50    2.45
  -8  -4   2   14.69    2.42
   8   4   2   11.83    1.63
  -8   4  -2   11.77    2.78
   8   4   2   11.29    2.49
 -10  -4  -2   28.02    2.84
 -10   4   2   23.85    4.38
 -10  -4  -2   32.58    3.16
  10  -4   2   39.62    5.18
  10  -4   2   23.05    3.32
  10   4  -2   31.95    3.13
  10   4   2   27.47    2.85
  10  -4  -2   39.48    5.00
 -10   4  -2   23.06    4.07
  12   4  -2   26.04    3.18
  12  -4   2   31.33    3.11
  12  -4   2   28.93    3.26
  12  -4   2   35.14    5.39
 -12  -4   2   34.80    4.64
  12   4   2   27.49    3.63
  12  -4  -2   23.96    4.84
 -12   4  -2   29.72    4.64
  12   4   2   23.45    2.78
  -1  -5  -2  478.53   37.89
   1  -5   2  538.20   37.99
   1   5  -2  502.75   37.95
   1  -5   2  598.45   38.20
  -1   5   2  525.28   38.07
  -1   5   2  508.05   37.93
   1   5   2  505.91   37.92
  -1  -5   2  461.69   37.88
  -1   5  -2  477.76   38.24
   1  -5  -2  555.76   38.08
   1   5   2  500.80   37.78
   1  -5  -2  573.10   38.03
  -3   5   2  168.13   13.16
   3  -5   2  173.50   12.92
  -3  -5  -2  175.95   12.83
  -3   5   2  167.86   12.91
   3   5  -2  170.52   13.02
   3   5   2  160.37   12.62
   3  -5  -2  187.24   12.98
  -3  -5   2  173.75   12.88
  -3  -5   2  160.15   12.64
   3  -5  -2  192.80   13.36
   3   5   2  165.45   12.81
   3   5   2  164.53   12.74
  -3   5  -2  164.72   13.31
   5  -5   2  159.30   12.69
  -5  -5  -2  187.37   12.62
  -5   5   2  161.47   12.59
   5   5  -2  175.54   12.54
  -5   5   2  163.34   13.25
   5  -5  -2  139.70   12.63
   5   5   2  177.91   12.62
  -5   5  -2  174.86   13.51
   5   5   2  162.88   12.74
  -7   5   2  113.56   10.47
   7   5  -2  123.52    9.36
  -7  -5  -2  122.81    9.48
   7  -5   2  124.82    9.69
   7  -5  -2  132.18   11.04
   7   5   2  137.44   10.03
   7   5   2  119.69    9.49
  -7   5  -2  103.37   10.44
  -7  -5   2  129.70    9.81
   7  -5  -2  123.38    9.65
  -9  -5  -2   78.02    5.85
   9   5  -2   65.71    5.66
  -9  -5  -2   75.26    5.74
   9  -5   2   75.09    6.57
   9  -5   2   67.25    5.75
   9   5   2   64.87    6.12
  -9   5  -2   65.95    7.07
   9   5   2   62.62    5.66
  11  -5   2    3.63    1.29
  11  -5   2    4.56    1.42
 -11   5   2    0.88    1.89
  11  -5   2    8.07    3.17
 -11  -5  -2    7.94    1.61
 -11  -5  -2    5.61    1.82
  11   5  -2    6.00    1.40
 -11   5  -2    5.35    2.46
  11   5   2    4.67    1.51
  11   5   2    3.73    1.24
  11  -5  -2    6.48    3.19
   0  -6   2  101.95    7.76
   0   6   2  101.26    7.68
   0   6  -2  106.71    7.82
   0  -6   2   92.17    7.68
   0   6  -2   90.37    7.63
   0  -6  -2  105.64    7.78
   0  -6  -2   97.53    7.64
   0   6   2   92.68    7.66
   2   6  -2  285.43   21.51
  -2   6   2  289.67   21.64
  -2  -6  -2  330.46   21.55
   2  -6   2  267.16   21.49
  -2   6   2  282.81   21.53
  -2   6  -2  285.33   21.71
   2  -6  -2  254.46   21.51
   2   6   2  301.67   21.48
   2   6   2  302.36   21.22
  -2  -6   2  323.49   21.25
   2  -6  -2  259.21   21.63
  -4   6   2  210.41   16.32
   4   6  -2  211.03   16.30
   4  -6   2  227.82   16.45
  -4  -6  -2  208.04   16.23
  -4   6   2  216.54   16.79
   4  -6  -2  217.51   16.47
  -4  -6   2  230.92   16.05
  -4   6  -2  200.69   16.86
   4   6   2  210.47   16.26
   4  -6  -2  241.31   17.02
  -4  -6   2  223.06   16.29
   4   6   2  215.36   16.10
   4   6   2  214.29   15.98
   6  -6   2   60.01    5.40
  -6   6   2   62.64    5.24
  -6   6   2   55.22    6.03
   6  -6   2   54.87    6.55
   6   6  -2   65.02    5.22
   6  -6  -2   58.67    5.46
  -6   6  -2   71.45    6.54
   6   6   2   66.80    5.27
   6   6   2   73.39    5.50
  -8  -6  -2   34.64    3.07
   8   6  -2   30.50    2.79
   8  -6   2   36.10    4.22
  -8   6   2   28.42    4.29
   8  -6   2   28.32    3.19
   8   6   2   34.20    3.27
   8  -6  -2   24.15    3.13
  -8   6  -2   32.23    4.56
   8   6   2   32.54    3.07
 -10  -6  -2   25.86    3.11
  10   6  -2   27.34    2.70
  10  -6   2   30.06    4.84
  10  -6   2   29.35    3.96
  10  -6   2   19.38    3.03
  10  -6  -2   27.45    4.69
  10   6   2   31.94    3.10
  10   6   2   26.07    2.84
 -10   6  -2   21.86    4.40
   1   7  -2  114.79    8.30
  -1   7   2  108.83    8.23
   1  -7   2  102.96    8.46
  -1   7   2  116.16    8.25
  -1  -7  -2   86.81    7.90
  -1  -7  -2   97.72    8.19
   1   7   2  109.32    8.18
  -1  -7   2   86.45    8.13
   1   7   2  118.99    8.00
  -1   7  -2   94.12    8.14
  -3   7   2   15.71    1.97
   3  -7   2   19.18    2.10
  -3  -7  -2   12.71    1.83
  -3   7   2   16.57    2.35
   3   7  -2   17.73    2.09
   3   7   2   16.14    1.52
  -3   7  -2   12.90    2.47
   3   7   2   15.78    1.88
   3   7   2   15.69    1.66
   5  -7   2   51.85    6.08
  -5   7   2   61.36    5.76
   5  -7   2   54.51    5.09
   5   7  -2   53.10    4.98
  -5   7   2   61.36    5.03
   5  -7  -2   48.60    5.12
  -5   7  -2   68.66    6.09
   5   7   2   68.51    5.07
   7  -7   2   33.14    3.35
  -7   7   2   31.59    6.40
  -7  -7  -2   27.65    3.00
  -7   7   2   30.29    3.06
   7  -7  -2   31.49    3.41
   7  -7  -2   35.22    4.47
   7   7   2   32.05    3.15
  -9   7   2    9.35    2.64
   9  -7   2    7.83    2.69
   9  -7   2    9.05    2.56
   9  -7  -2   11.88    2.12
 -11  -7  -2   12.69    2.02
  11  -7   2   19.43    4.96
  11  -7   2   14.14    2.21
  11  -7   2   14.66    2.73
 -11   7  -2    7.43    3.85
 -11  -7   2    9.87    1.82
  11   7   2   11.74    2.27
  11   7   2   15.19    1.95
   0   8  -2   23.49    2.59
   0  -8  -2   28.69    2.64
   0  -8  -2   29.31    2.92
   0  -8   2   27.11    2.88
   0   8  -2   26.08    2.86
   0   8   2   26.86    2.66
   0  -8   2   26.61    2.95
   0   8   2   25.35    2.76
   2   8  -2   30.40    3.28
   2  -8   2   29.50    3.25
  -2   8   2   37.09    3.35
  -2   8   2   34.18    3.47
   2  -8   2   28.16    3.65
   2   8   2   33.04    3.20
   2  -8  -2   27.56    3.29
  -2  -8   2   34.75    3.05
   2   8   2   37.42    2.87
  -2   8  -2   37.23    3.49
   2  -8  -2   28.58    3.34
  -4   8   2   45.86    4.66
  -4  -8  -2   35.71    3.95
  -4   8   2   46.63    4.13
   4   8  -2   49.29    4.23
  -4   8  -2   42.48    4.65
   4   8   2   48.65    4.13
  -6   8   2   -0.18    1.58
   6  -8   2    0.64    0.96
  -6   8   2    0.29    0.91
   6  -8   2    4.75    2.10
   6   8  -2    0.97    1.08
   6  -8  -2    0.60    1.34
   6  -8  -2    0.11    1.08
   6   8   2    0.45    0.88
  -6   8  -2    1.28    2.11
  -6  -8   2    0.22    0.71
  -8  -8  -2   15.04    2.04
   8  -8   2   11.21    2.97
  -8   8   2    9.36    2.68
   8   8   2   15.72    2.14
   8  -8  -2   12.81    2.34
   8  -8  -2   15.01    3.57
  -8   8  -2   14.03    3.40
  10  -8   2    7.12    1.79
  10  -8   2    9.66    2.22
 -10   8   2    3.98    2.45
  10   8   2    9.17    1.93
  10  -8  -2    8.97    2.21
  -1   9   2   73.32    6.09
  -1   9   2   75.96    6.14
  -1  -9  -2   62.85    6.07
  -1  -9   2   59.69    5.99
  -1  -9   2   61.02    5.81
  -1   9  -2   73.93    5.96
  -1   9  -2   80.96    6.28
   1   9   2   81.46    6.16
  -3   9   2    7.64    1.62
  -3   9   2    9.15    2.20
  -3  -9  -2    5.80    1.55
   3  -9   2    9.16    2.18
   3   9  -2    9.16    1.86
  -3   9  -2    5.89    1.97
   3  -9  -2   12.18    2.02
   3   9   2    8.64    1.65
  -3  -9   2    7.80    1.64
   5   9  -2   32.74    3.51
  -5   9   2   35.30    4.27
   5  -9   2   28.82    3.49
  -5   9   2   36.86    3.50
   5  -9   2   28.43    4.38
  -5   9  -2   35.90    4.46
   5   9   2   32.34    3.38
   5  -9  -2   32.38    4.07
  -7  -9  -2   23.74    2.77
  -7   9   2   25.99    3.83
  -7   9   2   29.15    2.93
  -7   9  -2   23.78    3.83
  -7  -9   2   19.53    2.53
   9  -9   2   19.95    2.97
   9  -9   2   16.64    3.99
  -9  -9  -2   13.40    2.17
   9   9   2   13.22    2.29
  -9   9  -2    9.75    3.01
   9  -9  -2   19.49    3.94
   0  10  -2   72.49    5.92
   0  10  -2   73.08    6.35
   0  10   2   61.87    6.13
   0  10   2   67.20    6.07
   0 -10   2   74.99    6.37
   0 -10   2   69.63    6.15
   0 -10  -2   84.20    6.05
   2 -10   2   75.74    7.60
  -2  10   2   99.67    7.56
   2  10  -2   93.57    7.65
  -2  10   2  100.39    7.79
  -2  10  -2  101.07    7.55
   2  10   2   90.85    7.02
   2  10   2   86.01    7.50
   2 -10  -2   80.91    7.59
   2 -10  -2   78.85    7.47
  -4  10   2   98.81    8.88
   4 -10   2   96.08   10.11
  -4 -10  -2  100.58    8.44
   4  10  -2  109.68    8.57
  -4  10   2  103.33    8.40
   4  10   2  117.89    9.62
  -4  10  -2   89.62    8.65
   6 -10   2   51.58    4.75
  -6  10   2   43.32    4.51
  -6 -10  -2   49.70    4.35
   6 -10   2   39.82    5.26
  -6  10   2   35.87    4.97
   6  10  -2   45.72    4.49
  -6 -10   2   41.44    4.65
   6  10   2   44.53    4.37
   6 -10  -2   50.01    5.33
  -6  10  -2   39.86    4.98
   6 -10  -2   44.00    5.09
   8  10  -2   15.21    2.61
   8 -10   2   19.12    3.06
  -8 -10  -2   18.66    2.63
  -8 -10   2   22.65    2.54
   8  10   2   17.68    2.68
  -8  10  -2   20.86    3.68
   1 -11   2  113.03    8.29
  -1  11   2   88.78    7.88
  -1  11   2   96.78    8.01
   1  11  -2   83.40    8.42
   1  11   2  111.62    7.73
  -1  11  -2   95.98    7.69
  -1 -11   2   82.42    7.92
  -1  11  -2   91.82    8.08
  -1 -11   2   84.24    7.44
   1  11   2   98.45    8.03
  -3  11   2   23.99    3.26
   3 -11   2   19.53    3.11
   3  11  -2   19.58    3.15
  -3  11   2   22.40    2.80
   3  11   2   22.27    2.85
  -3  11  -2   24.34    2.94
   3 -11  -2   20.80    3.22
   5 -11   2   43.40    5.02
   5  11  -2   59.16    5.14
  -5  11   2   55.73    5.65
   5 -11  -2   39.97    4.88
   5  11   2   54.14    4.99
   7 -11   2   29.83    4.77
  -7  11   2   27.02    3.27
   7  11  -2   32.07    3.57
   7 -11   2   26.78    3.77
  -7 -11  -2   28.01    3.34
  -7  11  -2   24.27    4.00
  -7 -11   2   28.97    3.19
   7 -11  -2   34.34    3.91
   7  11   2   27.86    3.39
   7 -11  -2   30.35    4.53
   0 -12   2    7.00    1.87
   0  12   2    7.22    1.81
   0  12   2    8.49    1.81
   0 -12   2   10.10    1.86
   0  12  -2    9.42    2.11
   0 -12  -2    9.81    1.70
   2  12  -2   43.52    4.42
  -2  12   2   46.70    4.24
  -2  12   2   47.65    4.57
   2 -12   2   31.02    4.14
   2 -12  -2   36.38    4.38
   2  12   2   41.37    4.30
  -4 -12  -2   19.80    3.10
   4 -12   2   28.45    3.66
   4 -12   2   26.86    3.53
   4  12  -2   23.42    3.18
  -4  12   2   20.71    2.91
  -4 -12   2   17.28    2.68
   4  12   2   22.12    2.98
   6 -12   2    5.32    2.21
   6 -12   2    6.72    2.39
  -6 -12  -2    6.72    1.92
   6  12  -2    4.66    1.72
  -6  12   2    3.59    1.98
  -6  12   2    3.96    1.52
  -6 -12   2    4.95    1.50
  -6  12  -2    4.53    1.81
   6 -12  -2    6.48    1.96
   6  12   2    5.46    1.63
   6 -12  -2    6.40    2.37
  -1  13   2   19.80    2.85
  -1 -13  -2   16.36    3.10
  -1  13   2   24.14    3.23
   1  13  -2   24.97    3.23
   1  13   2   24.26    3.01
  -1 -13   2   16.16    3.03
   1  13   2   26.62    2.67
  -1  13  -2   22.28    2.61
  -3  13   2   10.48    2.47
  -3  13   2   12.71    2.30
   3  13  -2   11.53    2.53
   3 -13   2   14.48    2.69
  -3 -13  -2   18.85    4.60
   3 -13   2    9.39    2.66
   3  13   2    9.11    2.11
  -3  13  -2   11.59    2.12
  -3 -13   2   12.81    2.60
   3 -13  -2   11.80    2.47
   3 -13  -2   17.73    3.51
  -5  13   2   21.26    3.89
   5  13  -2   20.95    3.13
   5 -13   2   17.03    3.21
  -5  13   2   19.86    2.87
  -5 -13  -2   25.59    3.36
   5 -13   2   18.20    3.62
   5 -13  -2   17.28    3.42
   5  13   2   22.71    3.10
   5 -13  -2   20.28    3.34
  -5  13  -2   16.77    3.01
   0 -14   2    0.80    1.49
   0  14   2   -1.10    1.33
   0  14   2   -0.05    1.14
   0 -14  -2    2.08    1.75
   0 -14   2    0.69    0.90
   0  14  -2    0.62    1.40
   0 -14  -2    0.08    0.95
  -2  14   2   21.21    2.84
   2 -14   2   14.53    2.73
   2  14  -2   20.48    2.99
   2 -14   2   12.96    2.91
   2  14   2   19.53    2.75
  -2  14  -2   21.96    2.57
   2 -14  -2   14.90    3.08
   0   0   3    1.36    0.45
   0   0  -3    0.34    0.35
   2   0  -3    7.73    1.21
  -2   0   3    8.85    1.23
   2   0  -3    9.47    0.95
  -2   0   3    8.43    0.88
   2   0   3    8.29    1.08
  -2   0  -3    9.32    1.10
   2   0   3    7.07    1.26
   4   0  -3   27.84    2.83
   4   0   3   36.82    2.79
   4   0   3   27.39    3.09
  -4   0  -3   31.99    3.02
  -4   0   3   27.57    2.89
  -6   0  -3   44.58    3.87
  -6   0  -3   47.04    4.33
   6   0   3   43.54    4.78
  -6   0   3   48.90    4.39
   6   0  -3   42.20    4.16
   6   0   3   45.54    3.88
   8   0   3   30.37    4.61
   8   0  -3   22.76    2.90
  -8   0  -3   19.06    2.97
  -8   0   3   21.49    3.24
   8   0   3   23.09    2.42
 -10   0  -3   34.78    3.89
  10   0  -3   37.91    5.05
  10   0   3   31.18    3.25
  12   0   3    9.64    3.20
 -12   0   3    3.98    2.69
  12   0  -3    8.93    2.46
 -12   0  -3   10.72    2.38
  12   0   3    9.63    2.03
  -1   1   3   27.58    2.30
  -1   1   3   33.74    2.78
   1  -1   3   26.34    2.55
  -1  -1  -3   27.46    2.39
  -1  -1   3   28.46    2.85
  -1   1  -3   28.52    2.44
  -1  -1   3   28.03    2.32
   1  -1  -3   25.29    2.30
   1  -1  -3   29.01    2.65
   1   1   3   26.60    2.41
  -3  -1  -3   24.55    2.26
   3  -1   3   21.36    2.70
   3   1  -3   24.19    2.35
   3  -1   3   26.28    2.32
   3   1   3   22.16    2.57
   3  -1  -3   25.82    2.07
  -3  -1   3   27.14    2.47
   3   1   3   25.76    2.29
   3  -1  -3   27.58    2.52
  -3   1  -3   26.18    2.68
  -5  -1  -3   73.57    6.14
   5  -1   3   87.34    6.68
  -5   1   3   87.59    6.43
   5   1  -3   66.10    5.97
   5  -1   3   76.29    5.92
  -5  -1  -3   61.67    5.79
   5   1   3   69.39    5.85
  -5  -1   3   63.04    6.10
   5  -1  -3   83.73    6.32
   5   1   3   79.76    6.43
  -5   1  -3   72.25    6.31
  -7  -1  -3   98.46    7.61
  -7   1   3   95.44    7.94
  -7  -1  -3  106.12    7.23
   7  -1   3   98.70    7.23
   7  -1   3   76.81    8.54
   7   1  -3   80.95    7.37
  -7   1  -3   94.56    7.82
   7   1   3   87.22    7.13
  -7  -1   3   75.73    7.57
   7  -1  -3   94.52    7.78
   7   1   3   84.13    8.48
   9  -1   3   20.33    2.31
   9   1  -3   20.12    3.65
  -9  -1  -3   21.42    2.76
  -9   1   3   16.78    3.25
   9  -1   3   24.23    4.78
   9   1   3   20.99    2.30
  -9   1  -3   19.43    2.95
  -9  -1   3   16.14    3.07
   9  -1  -3   19.96    3.07
  11  -1   3   22.22    4.55
  11  -1   3   20.45    2.32
 -11  -1  -3   17.64    2.79
 -11   1   3   19.15    3.93
  11   1   3   18.85    2.29
  11   1   3   23.10    4.34
  11  -1  -3   20.69    3.55
 -11  -1   3   12.68    3.27
 -11   1  -3   15.53    2.98
   0  -2  -3    1.65    0.55
   0  -2   3    2.09    0.59
   0   2   3    2.31    0.86
   0   2   3    1.63    0.59
   0  -2   3    1.77    0.66
  -2   2   3  373.36   27.41
  -2   2   3  394.30   27.74
   2  -2   3  366.77   27.54
  -2  -2  -3  361.49   27.51
   2  -2   3  399.26   27.79
  -2  -2   3  369.06   27.38
   2   2   3  337.96   27.48
   2  -2  -3  394.40   27.75
  -2   2  -3  396.62   27.84
   2   2   3  375.10   27.71
   2  -2  -3  367.24   27.40
  -4   2   3  304.43   22.26
   4   2  -3  295.59   21.94
   4  -2   3  315.43   22.45
   4  -2   3  297.77   21.95
  -4  -2  -3  298.79   21.91
   4   2   3  273.67   21.87
   4   2   3  291.93   22.17
  -4  -2   3  286.62   22.04
  -4   2  -3  309.14   22.38
  -6  -2  -3   34.36    3.10
  -6   2   3   35.91    3.74
  -6  -2  -3   39.04    3.43
   6  -2   3   33.73    3.14
   6   2  -3   33.65    3.21
   6   2   3   31.21    3.05
   6   2   3   33.67    3.97
  -6  -2   3   30.67    3.44
  -6   2  -3   36.75    3.80
   6  -2  -3   36.57    3.73
  -8   2   3   97.99    8.57
   8   2  -3   94.11    7.81
  -8  -2  -3   89.32    7.50
   8  -2   3  101.77    7.63
  -8  -2  -3   94.96    7.89
   8  -2  -3  104.32    8.52
   8   2   3   90.43    7.51
   8   2   3  108.71    9.09
  -8   2  -3   90.17    8.32
  -8  -2   3   86.72    8.18
  10   2  -3   45.47    4.88
 -10  -2  -3   58.89    5.12
  10  -2   3   52.14    6.54
 -10   2   3   45.53    5.78
  10  -2   3   55.96    4.64
  10   2   3   53.77    4.63
 -10  -2   3   52.68    5.71
 -10   2  -3   61.10    5.69
  10  -2  -3   47.37    5.63
  10   2   3   49.11    5.98
  12   2  -3   13.72    2.74
  12  -2   3   10.82    3.50
 -12  -2  -3   15.90    2.78
  12  -2   3   11.65    1.95
 -12  -2   3    5.59    3.17
  12  -2  -3   12.49    3.14
 -12   2  -3   13.38    2.86
  12   2   3   10.78    3.01
  -1  -3  -3  514.67   37.38
  -1   3   3  529.29   37.56
  -1   3   3  499.55   37.34
   1  -3   3  519.93   37.57
   1   3   3  523.35   37.40
   1  -3  -3  508.36   37.57
   1  -3  -3  482.24   37.32
   1   3   3  522.79   37.53
   3  -3   3   15.21    2.02
  -3   3   3   14.50    1.83
   3  -3   3   13.06    1.60
  -3   3   3   13.90    1.40
   3   3   3   12.83    1.50
  -3   3  -3   13.20    1.97
   3  -3  -3   14.01    1.38
   3  -3  -3   15.78    1.90
  -3  -3   3   10.89    1.29
  -3  -3   3   13.29    1.73
   3   3   3   14.61    1.74
  -5   3   3  233.72   18.00
   5  -3   3  199.63   18.18
  -5  -3  -3  233.58   17.48
   5  -3   3  230.11   17.52
   5   3  -3  231.93   17.48
  -5   3  -3  243.02   18.14
   5  -3  -3  231.63   18.02
  -5  -3   3  256.15   17.74
   5   3   3  241.19   17.50
   5   3   3  246.31   17.85
   7  -3   3  129.45   13.11
   7  -3   3  141.91   11.34
  -7  -3  -3  163.61   11.37
  -7  -3  -3  160.90   11.56
   7   3  -3  150.20   11.40
  -7   3  -3  138.16   12.08
   7   3   3  146.47   11.33
  -9   3   3   21.00    3.61
  -9  -3  -3   25.50    2.60
   9   3  -3   25.03    2.78
  -9  -3  -3   26.19    2.91
   9  -3   3   24.63    2.67
  -9  -3   3   22.07    3.37
   9   3   3   24.96    2.64
  -9   3  -3   20.48    3.48
   9   3   3   33.92    4.53
 -11  -3  -3   34.99    4.26
  11  -3   3   37.93    4.28
  11   3  -3   36.14    3.83
  11  -3   3   34.31    4.18
  11  -3   3   40.07    5.68
  11  -3  -3   25.76    4.51
 -11   3  -3   37.65    4.61
  11   3   3   37.14    3.48
  11   3   3   33.81    4.89
   0  -4  -3   24.09    2.39
   0  -4  -3   20.97    2.14
   0   4   3   25.72    2.19
   0   4   3   25.82    2.30
   0  -4   3   21.20    2.29
   0  -4   3   24.33    2.21
  -2   4   3  121.70    9.57
  -2  -4  -3  115.74    9.34
   2  -4   3  125.48    9.68
  -2   4   3  117.08    9.32
   2  -4  -3  126.58    9.67
  -2  -4   3  132.60    9.58
   2   4   3  120.86    9.37
   2  -4  -3  121.56    9.34
   2   4   3  121.70    9.41
  -2   4  -3  131.94    9.78
  -2  -4   3  123.09    9.30
   4  -4   3  129.05   10.64
  -4   4   3  130.12    9.92
  -4   4   3  121.75   10.29
   4  -4  -3  128.67    9.84
   4   4   3  127.82   10.10
   4  -4  -3  127.04   10.44
   4   4   3  148.62   10.02
   6   4  -3   28.67    2.69
  -6   4   3   27.11    2.63
  -6   4   3   32.30    3.55
   6  -4   3   31.96    2.87
   6  -4   3   27.86    3.96
  -6  -4  -3   28.65    2.73
   6   4   3   28.32    2.74
  -6  -4   3   22.53    2.89
  -6   4  -3   28.31    3.64
   6   4   3   31.84    3.63
   8  -4   3   30.98    5.17
  -8  -4  -3   42.57    3.70
   8  -4   3   29.88    3.71
  -8  -4  -3   38.40    3.51
   8   4  -3   42.65    3.57
   8  -4   3   35.05    3.52
   8   4   3   40.72    3.55
 -10  -4  -3   48.48    4.12
  10  -4   3   36.08    4.26
  10   4  -3   44.32    4.16
 -10  -4  -3   50.30    4.35
  10  -4   3   38.77    4.14
  10  -4   3   40.14    6.15
  10   4   3   43.54    4.07
  10   4   3   39.24    5.05
 -10   4  -3   43.45    5.23
 -10  -4   3   54.62    5.14
  -1  -5  -3   33.99    2.79
  -1   5   3   29.92    2.72
   1  -5   3   30.56    2.94
   1  -5   3   26.12    2.72
  -1   5   3   28.35    2.81
  -1   5  -3   31.48    3.03
   1  -5  -3   28.54    2.74
   1   5   3   32.97    2.75
   1  -5  -3   26.19    2.86
  -1  -5   3   30.59    2.72
   1   5   3   29.47    2.69
  -1  -5   3   34.99    2.78
   3  -5   3   31.15    3.26
  -3   5   3   29.59    2.64
   3  -5   3   32.45    2.78
  -3  -5  -3   22.81    2.53
  -3   5   3   33.23    3.07
  -3  -5   3   24.07    2.56
   3  -5  -3   34.76    3.17
  -3  -5   3   23.80    2.51
   3   5   3   31.15    2.79
   3   5   3   25.44    2.57
   3   5   3   27.86    2.54
  -3   5  -3   25.72    3.07
   5  -5   3    9.23    2.32
  -5   5   3   11.23    2.12
  -5  -5  -3   13.77    1.69
   5  -5   3   13.48    1.82
  -5   5   3   14.24    1.72
   5  -5  -3   13.40    2.36
  -5   5  -3   12.80    2.47
   5   5   3   14.20    1.73
  -5  -5   3   14.70    1.78
   5  -5  -3   13.91    1.72
   5   5   3   12.31    1.96
  -7   5   3   32.24    3.24
   7   5  -3   42.05    3.43
   7  -5   3   38.09    3.77
   7  -5   3   37.63    3.58
  -7   5  -3   39.90    4.62
   7  -5  -3   37.18    3.39
   7   5   3   36.79    3.52
   7   5   3   32.98    4.31
  -7  -5   3   46.05    3.90
   9  -5   3   25.26    2.76
  -9   5   3   18.01    3.54
   9   5  -3   20.60    2.42
   9  -5   3   26.54    2.72
  -9  -5  -3   21.63    2.44
   9   5   3   22.22    2.49
  -9  -5   3   17.02    2.94
   9  -5  -3   23.39    4.04
  -9   5  -3   15.15    3.41
  11  -5   3   11.19    3.34
  11   5  -3    8.46    1.92
 -11  -5  -3    9.60    1.88
  11  -5   3    9.08    2.00
  11  -5   3    9.42    1.91
  11   5   3   12.88    2.81
 -11   5  -3    6.49    2.28
  11   5   3   11.35    1.89
   0  -6  -3   25.88    2.67
   0  -6  -3   26.02    2.70
   0   6   3   29.50    2.64
   0   6   3   27.65    2.62
   0  -6   3   28.78    2.70
   0  -6   3   26.75    2.63
  -2   6   3   30.56    2.73
  -2   6   3   33.71    3.00
  -2  -6  -3   24.10    2.62
  -2  -6   3   26.62    2.81
  -2   6  -3   26.47    3.01
   2   6   3   28.91    2.55
   2   6   3   27.14    2.64
  -2  -6   3   26.21    2.52
   4  -6   3   53.75    4.68
  -4  -6  -3   61.86    4.62
  -4   6   3   49.67    4.93
  -4   6   3   50.07    4.58
  -4  -6   3   55.54    4.56
   4  -6  -3   53.44    5.17
   4   6   3   48.36    4.51
  -4  -6   3   53.97    4.43
  -4   6  -3   56.13    5.23
   4   6   3   51.16    4.35
   4  -6  -3   61.99    4.74
   4   6   3   50.62    4.52
  -6   6   3   25.69    3.60
  -6  -6  -3   27.43    2.91
  -6   6   3   29.53    2.90
   6  -6   3   37.50    3.83
   6   6   3   29.97    2.96
   6   6   3   37.12    3.81
  -6  -6   3   23.69    2.88
   6  -6  -3   37.61    4.05
  -8  -6  -3   16.54    2.27
  -8   6   3   17.67    3.36
   8  -6   3   23.03    2.64
   8  -6   3   20.61    2.61
   8   6   3   18.92    2.37
   8  -6  -3   22.66    2.40
  10  -6   3   20.16    2.85
  10   6  -3   22.02    2.36
  10  -6   3   23.03    2.69
  10   6   3   18.07    2.85
 -10   6  -3   27.56    4.06
 -10  -6   3   14.42    2.79
  10   6   3   16.72    2.54
  -1  -7  -3  189.17   12.96
  -1   7   3  155.37   12.76
   1  -7   3  159.44   12.82
  -1   7   3  172.36   12.86
   1  -7   3  168.73   13.05
  -1   7  -3  153.21   12.88
   1   7   3  173.96   12.67
   1  -7  -3  164.49   12.88
   1   7   3  160.88   12.77
   1  -7  -3  159.02   12.90
  -1  -7   3  173.59   12.82
  -1  -7   3  181.81   12.75
   3  -7   3   12.63    2.58
  -3   7   3   19.08    2.35
  -3   7   3   17.65    2.08
  -3  -7  -3   14.52    1.95
   3   7   3   15.58    1.76
   3   7   3   16.73    2.02
  -3   7  -3   13.29    2.36
  -3  -7   3   17.42    1.73
   3   7   3   19.20    2.01
  -3  -7   3   14.07    1.95
  -5   7   3   97.29    7.39
  -5  -7  -3   79.96    7.27
  -5   7   3   88.86    7.91
   5  -7   3   99.73    7.76
   5  -7  -3  104.28    7.61
   5   7   3   91.06    7.34
   5   7   3  101.85    7.38
  -5   7  -3   74.52    7.98
  -5  -7   3   85.76    7.09
   5   7   3   96.87    7.20
  -5  -7   3   82.71    7.19
  -5  -7   3   89.43    6.97
   7  -7   3   69.50    6.09
   7  -7   3   65.51    7.45
  -7   7   3   65.42    5.72
   7   7   3   65.57    5.81
  -7   7  -3   67.49    6.95
   7  -7  -3   75.66    6.02
   7   7   3   72.52    6.27
   9  -7   3   23.91    4.90
   9  -7   3   14.84    2.58
  -9  -7  -3   15.73    2.22
   9  -7   3   18.03    2.46
   9  -7  -3   18.36    2.39
   9  -7  -3   19.74    4.00
   9   7   3   17.90    2.57
   9   7   3   13.96    2.29
   0  -8   3    8.73    1.86
   0  -8  -3   11.07    1.73
   0  -8  -3   10.93    1.78
   0  -8   3   10.41    1.69
   0   8   3   10.95    1.73
   0   8   3   14.45    1.81
  -2   8   3  148.27   12.16
   2  -8   3  157.35   12.18
  -2   8   3  147.28   12.10
  -2  -8  -3  160.71   12.18
  -2   8  -3  139.52   12.20
  -2  -8   3  150.70   12.12
   2  -8  -3  169.29   12.33
   2   8   3  148.64   12.05
   2   8   3  160.60   11.81
   2  -8  -3  167.28   12.39
  -2  -8   3  168.35   11.88
  -4   8   3  125.13   10.09
  -4   8   3  115.88   10.41
  -4  -8  -3  147.82   10.17
   4  -8   3  123.17   10.21
   4  -8   3  117.30   10.95
  -4   8  -3  129.75   10.66
   4  -8  -3  115.47   10.55
  -4  -8   3  140.99    9.66
   4   8   3  115.09    9.77
   4   8   3  130.89   10.11
   4  -8  -3  123.41   10.25
   4   8   3  146.54    9.76
  -6   8   3   16.54    3.04
  -6   8   3   18.72    2.37
  -6  -8  -3   15.67    2.23
   6   8   3   21.07    2.42
  -6   8  -3   12.72    3.02
   6   8   3   21.01    1.89
  -8   8   3   45.58    4.03
   8  -8   3   45.64    4.57
  -8  -8  -3   47.33    4.20
   8  -8   3   39.90    5.82
  -8   8   3   32.91    4.99
   8   8   3   45.24    3.72
   8   8   3   47.47    4.25
   8   8   3   48.34    3.97
   8  -8  -3   38.85    4.22
  -8   8  -3   37.09    5.18
  10  -8   3   29.58    3.40
  10  -8   3   26.49    3.68
 -10   8  -3   32.81    5.55
  10   8   3   29.57    3.34
  -1   9   3   32.06    3.25
  -1   9   3   32.73    3.23
   1  -9   3   27.58    3.25
   1  -9  -3   25.74    3.13
   1   9   3   34.90    3.03
  -1   9  -3   31.87    3.28
   1   9   3   32.60    3.25
   1  -9  -3   28.77    3.34
  -3  -9  -3   13.03    2.17
  -3   9   3   19.72    2.31
  -3   9   3   16.91    2.52
  -3  -9   3   12.73    1.81
   3  -9  -3   16.87    2.39
  -3  -9   3   13.06    2.09
  -3  -9   3   11.86    1.58
   3   9   3   18.25    1.93
   3   9   3   18.31    2.21
  -3   9  -3   16.05    2.49
  -5   9   3   26.35    4.14
  -5  -9  -3   34.61    3.39
  -5   9   3   34.45    3.41
   5  -9   3   29.69    4.55
   5   9   3   38.46    3.99
   5  -9  -3   24.22    3.83
   5   9   3   37.07    2.75
  -5   9  -3   26.78    4.07
  -7   9   3   37.36    5.15
   7  -9   3   42.15    4.62
  -7   9   3   49.07    4.36
   7  -9  -3   44.73    4.63
  -7   9  -3   51.68    5.53
   7   9   3   47.76    4.44
   9  -9   3   19.64    4.56
   9  -9   3   13.65    2.72
   9  -9   3   11.61    2.47
   9   9   3   10.82    2.10
   9  -9  -3    8.52    2.06
   0 -10   3   20.05    2.97
   0 -10   3   20.58    2.74
   0 -10  -3   23.42    2.61
   0 -10  -3   26.30    3.76
   0  10   3   21.36    2.60
  -2  10   3    1.17    1.15
  -2  10   3    1.56    1.63
   2 -10   3    0.54    1.53
   2  10   3    1.67    1.10
  -2 -10   3    1.14    1.03
  -2  10  -3    0.29    0.99
   2 -10  -3    0.28    1.05
   2 -10  -3    0.83    1.24
  -2 -10   3   -0.38    1.07
   2  10   3    0.94    0.82
   4 -10   3   12.30    2.62
  -4  10   3   16.13    2.92
  -4  10   3   19.14    3.25
  -4 -10  -3   18.71    2.46
   4 -10   3   13.49    3.34
  -4 -10   3   18.85    2.54
  -4  10  -3   18.05    2.90
   4 -10  -3   18.21    3.01
   4 -10  -3   18.39    2.83
   4  10   3   17.87    2.45
  -6  10   3   17.82    2.46
  -6  10   3   17.38    3.28
  -6 -10  -3   13.80    2.34
  -6 -10   3   14.27    2.69
  -8  10   3    1.33    1.78
  -8 -10  -3    4.11    1.51
   8 -10   3    3.26    2.70
  -8  10   3    2.77    1.28
   8 -10   3    4.01    2.51
  -8 -10   3    3.83    1.16
   8  10   3    3.90    1.44
   8 -10  -3    1.84    2.03
  -8  10  -3    0.63    1.71
  -1  11   3    6.97    1.79
   1 -11   3    5.36    1.86
  -1  11   3    6.27    1.66
   1 -11   3    6.61    1.73
  -1  11  -3    6.33    1.54
  -1 -11   3    9.23    1.87
   1 -11  -3    6.28    1.75
   1  11   3    6.39    1.65
   1  11   3    6.75    1.61
  -1 -11   3    7.34    1.69
   1 -11  -3    5.27    1.53
  -3  11   3   23.59    2.78
  -3 -11  -3   16.80    2.90
   3 -11   3   25.24    3.62
  -3  11   3   23.09    3.21
   3 -11  -3   27.72    3.28
   3  11   3   22.70    2.87
  -3  11  -3   22.51    3.00
  -3 -11   3   17.68    2.73
   5 -11   3    7.49    1.99
  -5  11   3   10.15    1.97
  -5 -11  -3    4.05    1.60
  -5  11   3    8.38    2.36
   5  11   3    6.07    1.66
  -5 -11   3    5.64    1.54
   7 -11   3   12.76    2.83
  -7  11   3   12.65    2.38
   7 -11  -3   18.23    3.08
   7  11   3   13.84    2.47
  -7 -11   3   17.85    2.33
  -7  11  -3   13.18    3.15
   0 -12  -3   19.76    2.49
   0 -12   3   16.57    2.62
   0  12   3   17.21    2.58
   0  12   3   19.16    2.78
   0 -12   3   17.81    2.85
   0 -12  -3   17.52    2.84
  -2  12   3   29.54    3.66
   2 -12   3   39.06    5.58
  -2 -12  -3   32.11    4.00
   2 -12   3   41.69    4.26
  -2  12   3   33.20    4.01
   2  12   3   36.77    3.89
   2  12   3   40.18    3.48
  -2  12  -3   30.35    3.63
  -2 -12   3   29.60    3.76
  -4  12   3   34.57    3.88
   4 -12   3   35.06    5.16
  -4  12   3   35.06    4.50
   4  12   3   36.70    3.99
   4 -12  -3   42.05    4.52
  -4  12  -3   37.65    4.17
  -6 -12  -3    7.16    1.97
  -6  12   3    9.02    2.64
  -6  12   3   12.04    2.23
   6  12   3   13.93    2.44
  -6 -12   3   10.12    2.01
  -6  12  -3    8.62    2.16
   1 -13   3   47.91    5.22
   1 -13   3   63.52    6.56
  -1  13   3   59.45    5.51
  -1  13   3   58.42    5.47
   1 -13  -3   60.87    6.27
   1  13   3   56.78    5.14
   1  13   3   55.59    5.47
   1 -13  -3   54.14    5.19
  -3  13   3   11.83    2.31
  -3  13   3    9.61    2.43
   3 -13   3   14.27    2.93
   3 -13  -3    7.88    2.28
   3  13   3   12.29    2.35
  -3 -13   3   14.85    2.65
  -3  13  -3   12.84    2.34
  -5  13   3   17.19    3.86
  -5  13   3   25.82    3.30
   5 -13   3   24.30    4.07
  -5 -13  -3   24.12    3.40
  -5 -13   3   26.51    3.15
  -5  13  -3   21.17    3.27
   5  13   3   23.28    3.23
   5 -13  -3   27.52    3.66
   5 -13  -3   18.44    3.66
   0 -14   3   17.09    3.17
   0 -14   3   15.91    2.33
   0 -14  -3   29.81    5.68
   0  14   3   18.31    3.46
  -2  14   3    9.15    3.74
  -2  14   3   10.39    2.69
   2 -14   3   10.87    2.25
   2 -14  -3    7.44    3.36
  -2  14  -3    9.22    2.05
  -2 -14   3   12.16    2.60
   2  14   3   13.34    3.07
   2 -14  -3   10.87    2.34
   0   0   4 1000.00   72.86
  -2   0   4    6.12    1.26
   2   0   4    7.79    1.12
   2   0   4    5.87    1.33
  -2   0   4    7.34    0.93
   4   0   4   34.04    3.05
   4   0  -4   37.64    3.27
   4   0   4   32.04    3.40
  -4   0   4   30.18    3.23
  -6   0  -4  382.91   27.52
  -6   0   4  349.14   27.46
   6   0   4  393.00   27.86
   6   0   4  345.58   27.02
  -6   0  -4  360.39   27.03
   6   0  -4  363.77   27.33
  -8   0   4   11.63    2.40
  -8   0  -4   11.28    2.25
   8   0   4   12.05    3.87
   8   0  -4    7.90    1.96
   8   0   4    9.76    1.72
 -10   0  -4   33.34    3.95
 -10   0   4   25.32    4.15
  10   0   4   37.56    3.94
  10   0   4   42.44    6.37
  10   0  -4   34.67    4.22
  -1   1   4   20.22    2.40
   1  -1   4   21.41    1.95
   1  -1   4   15.09    2.05
  -1   1   4   19.52    1.79
   1   1   4   19.80    1.89
  -1  -1   4   16.56    2.09
  -1  -1   4   21.53    1.84
  -3   1   4  490.72   35.84
   3  -1   4  475.45   35.57
  -3   1   4  472.15   35.32
  -3  -1  -4  478.70   35.56
  -3  -1   4  489.00   35.31
   3  -1  -4  471.06   35.34
   3  -1  -4  473.12   35.75
  -3  -1   4  506.42   35.83
   3   1   4  504.03   35.89
   3   1   4  493.04   35.59
   5  -1   4   15.57    1.90
   5   1  -4   15.90    1.99
  -5   1   4   17.23    2.32
  -5  -1  -4   16.91    1.85
   5  -1   4   15.67    2.55
   5  -1  -4   19.85    2.30
  -5   1  -4   16.73    2.38
   5   1   4   14.19    1.84
   5   1   4   14.78    2.48
   7  -1   4   18.37    2.37
  -7  -1  -4   21.14    2.40
   7   1  -4   27.22    2.77
  -7   1   4   19.39    2.93
  -7  -1  -4   23.62    2.87
  -7  -1   4   26.22    3.08
   7  -1  -4   16.56    2.77
  -7   1  -4   23.37    3.06
   7   1   4   23.77    2.43
   7   1   4   20.39    3.91
   9  -1   4   71.26    6.26
  -9  -1  -4   75.48    6.82
   9   1  -4   75.62    6.69
   9   1   4   74.31    6.26
  -9  -1   4   82.24    7.23
   9   1   4   72.18    8.03
  -9   1  -4   75.13    6.96
  11   1  -4    6.38    1.98
 -11   1   4    4.34    2.27
  11  -1   4    9.76    1.86
  11  -1   4    9.04    3.68
 -11  -1  -4   10.85    2.29
  11   1   4    8.40    1.76
 -11   1  -4   11.19    2.49
  11  -1  -4    5.14    2.16
 -11  -1   4    6.85    2.29
  11   1   4   11.15    3.83
   0   2   4  121.10    9.05
   0   2   4  111.98    8.76
   0  -2   4  119.87    8.82
   0  -2  -4  113.23    8.78
   0  -2   4  112.66    8.99
  -2   2   4   41.99    3.24
   2  -2   4   42.37    3.71
  -2  -2  -4   36.47    3.35
  -2   2   4   46.00    3.72
   2  -2   4   41.09    3.45
  -2  -2   4   35.91    3.55
   2   2   4   34.40    3.32
   2  -2  -4   45.38    3.70
   2  -2  -4   39.79    3.25
   2   2   4   40.72    3.67
  -2  -2   4   33.33    3.22
  -4   2   4    9.57    1.15
   4  -2   4   13.18    1.58
   4  -2   4    9.73    1.91
  -4   2   4    9.63    1.78
  -4  -2  -4   12.15    1.47
   4   2   4   11.18    1.46
  -4   2  -4   11.04    1.95
   4   2   4    9.15    1.75
   4  -2  -4   11.82    1.21
  -4  -2   4   10.51    1.66
   4  -2  -4    9.63    1.73
  -6  -2  -4   70.83    5.82
   6  -2   4   71.08    6.93
   6  -2   4   66.67    5.84
  -6   2   4   60.44    6.24
   6   2  -4   76.72    5.99
   6  -2  -4   65.77    6.27
  -6   2  -4   77.93    6.56
   6   2   4   69.21    5.82
  -6  -2   4   82.21    6.34
   6   2   4   70.10    6.61
  -8   2   4   16.34    3.48
   8  -2   4   14.83    2.06
  -8  -2  -4   15.01    2.32
   8  -2   4   10.49    2.96
  -8  -2  -4   14.12    1.93
   8   2  -4   11.45    1.99
   8   2   4   12.85    1.87
   8  -2  -4   15.09    2.69
   8   2   4   18.01    3.68
  -8   2  -4   17.56    3.93
  10   2  -4    9.51    2.41
  10  -2   4   13.60    4.23
 -10   2   4    9.95    2.72
 -10  -2  -4   13.22    2.31
 -10   2  -4   13.72    2.91
 -10  -2   4   11.78    2.85
  10   2   4   15.03    2.22
  10  -2  -4   16.16    3.20
   1  -3   4   26.72    2.65
  -1  -3  -4   33.35    2.71
  -1   3   4   27.09    2.82
   1  -3   4   27.28    2.85
  -1   3   4   28.63    2.57
   1  -3  -4   29.95    2.97
  -1  -3   4   32.28    2.63
   1  -3  -4   29.37    2.62
   1   3   4   28.96    2.78
   1   3   4   32.26    2.70
  -3  -3  -4   91.95    7.77
   3  -3   4  101.26    7.88
  -3   3   4  103.11    7.66
  -3   3   4  104.89    8.13
   3  -3  -4  107.74    8.20
   3   3   4   96.98    7.79
  -3   3  -4  101.56    8.29
   3  -3  -4   94.54    7.62
  -3  -3   4  101.86    8.03
  -3  -3   4   96.27    7.58
  -3  -3   4  101.01    7.93
   3   3   4  105.31    8.13
  -5  -3  -4   17.34    2.06
   5  -3   4   21.27    2.91
   5  -3   4   17.48    2.17
  -5   3   4   21.13    2.65
  -5  -3   4   15.26    2.21
  -5   3  -4   22.19    2.85
   5   3   4   21.06    2.56
   5  -3  -4   23.37    2.70
   5   3   4   16.72    2.05
   5  -3  -4   18.43    1.79
   7   3  -4   10.17    1.73
   7  -3   4    5.84    2.44
   7  -3   4   10.69    1.72
  -7  -3  -4    9.36    1.60
  -7   3   4   12.87    2.36
  -7   3  -4    8.55    2.14
   7   3   4    9.54    1.64
   7   3   4   10.65    2.50
   9   3  -4   27.91    4.02
  -9  -3  -4   20.80    2.61
   9  -3   4   26.79    3.38
   9  -3   4   23.48    5.15
  -9   3   4   21.16    3.59
   9  -3  -4   20.91    3.59
  -9  -3   4   21.58    3.25
   9   3   4   21.81    2.69
   9   3   4   26.14    4.52
  -9   3  -4   21.54    3.48
  11  -3   4   10.83    2.05
  11  -3   4   15.99    4.53
 -11  -3  -4   10.13    2.12
  11   3   4    8.47    1.91
 -11  -3   4    8.47    2.73
 -11   3  -4    8.79    2.51
   0  -4   4  445.82   32.94
   0   4   4  466.55   33.12
   0  -4  -4  436.48   32.92
   0   4   4  449.39   32.94
   0  -4   4  448.06   33.10
  -2   4   4   14.84    1.70
   2  -4   4   14.88    2.04
   2  -4   4   18.37    1.95
  -2  -4  -4   20.62    1.91
  -2   4   4   13.70    1.95
   2   4   4   16.45    1.81
   2   4   4   14.55    1.84
  -2  -4   4   15.50    2.01
   2  -4  -4   17.23    2.15
  -2  -4   4   16.90    1.71
   2  -4  -4   19.28    1.80
  -4   4   4   26.83    2.31
   4  -4   4   23.47    2.46
  -4  -4  -4   18.40    2.26
   4   4   4   27.82    2.78
   4  -4  -4   24.08    2.21
   4   4   4   19.77    2.35
  -4   4  -4   23.70    2.99
   6  -4   4  170.68   12.26
  -6  -4  -4  151.04   12.10
  -6   4   4  159.37   12.76
   6   4   4  166.59   12.68
  -6  -4   4  142.72   12.28
   6  -4  -4  169.79   12.96
   6   4   4  157.77   12.16
  -6   4  -4  147.14   12.85
   8   4  -4    7.19    1.56
   8  -4   4    6.27    1.52
  -8  -4  -4    7.18    1.49
   8   4   4    7.55    2.69
  -8  -4   4    8.83    1.92
  -8   4  -4    6.60    2.25
   8   4   4    7.17    1.51
  10  -4   4   21.91    2.96
  10  -4   4   24.58    2.84
  10   4  -4   25.06    2.87
 -10  -4  -4   20.96    2.69
  10  -4   4   34.41    6.06
 -10   4   4   22.49    3.98
  10  -4  -4   27.64    4.46
 -10   4  -4   16.88    3.51
  10   4   4   32.46    4.97
  10   4   4   23.19    2.79
  -1  -5  -4   36.13    2.98
  -1   5   4   32.16    2.88
   1  -5   4   35.87    3.20
  -1   5   4   34.05    3.10
   1  -5   4   34.79    3.03
   1   5   4   28.79    2.86
  -1  -5   4   27.15    2.93
  -1  -5   4   27.52    2.82
   1   5   4   30.92    2.98
  -3  -5  -4  615.81   44.86
  -3   5   4  634.68   45.18
  -3   5   4  616.18   44.79
   3  -5   4  653.02   45.34
   3  -5  -4  572.17   45.20
  -3   5  -4  641.19   45.40
  -3  -5   4  623.39   45.01
   3   5   4  596.60   44.81
   3   5   4  623.07   44.88
   3  -5  -4  565.37   44.72
   3   5   4  587.64   45.01
  -3  -5   4  621.70   44.71
  -5  -5  -4   11.92    1.55
   5  -5   4    7.89    1.69
  -5   5   4    8.39    1.52
  -5   5   4    6.71    1.75
   5  -5   4    4.86    2.52
   5  -5  -4   11.12    1.47
   5   5   4    9.67    1.55
  -5   5  -4   13.29    2.41
  -5  -5   4   10.13    1.67
  -7  -5  -4   33.79    3.27
   7  -5   4   38.80    3.45
   7  -5   4   35.52    3.47
  -7   5   4   29.33    3.91
  -7   5  -4   27.69    4.12
  -7  -5   4   26.48    3.36
   7   5   4   33.76    3.30
   7   5   4   37.61    4.44
   9  -5   4   66.53    6.31
  -9  -5  -4   77.94    6.28
   9  -5   4   72.62    8.59
   9  -5   4   71.51    6.28
   9   5   4   85.08    7.68
  -9   5  -4   67.85    7.33
   9   5   4   72.03    6.24
  11  -5   4   20.88    7.13
  11  -5   4    6.79    1.91
 -11   5   4    2.08    2.97
  11  -5   4    7.52    1.85
 -11  -5  -4   11.78    2.20
  11   5   4    4.57    2.32
 -11  -5   4    5.92    2.63
  11   5   4    6.47    1.67
 -11   5  -4    2.06    2.27
   0   6   4  443.70   33.59
   0   6   4  466.20   33.70
   0  -6   4  468.89   33.66
   0  -6   4  459.19   33.71
   0  -6  -4  446.56   33.62
   2  -6   4   24.71    2.60
  -2  -6  -4   27.48    2.56
  -2   6   4   24.43    2.73
  -2   6   4   22.97    2.44
   2  -6   4   26.83    2.92
   2   6   4   23.85    2.49
   2   6   4   22.77    2.46
  -2  -6   4   23.22    2.42
  -2   6  -4   26.79    3.00
  -2  -6   4   23.01    2.44
   4  -6   4   11.77    2.05
  -4  -6  -4   10.12    1.57
  -4   6   4    8.28    1.53
  -4   6   4    8.76    1.95
  -4  -6   4    6.53    1.45
  -4   6  -4   10.08    2.25
  -4  -6   4    6.25    1.40
   4  -6  -4   12.20    1.65
   4  -6  -4   11.69    2.17
   4   6   4    9.66    1.44
   4   6   4    8.36    1.51
   4   6   4    8.56    1.70
   6  -6   4  125.85   13.16
   6  -6   4  151.21   12.07
   6  -6   4  151.64   12.03
  -6   6   4  160.82   11.84
   6   6   4  176.97   12.06
  -6   6  -4  157.92   14.09
   6   6   4  157.74   12.29
   6  -6  -4  147.05   11.77
  -8  -6  -4   11.90    1.92
   8  -6   4   13.45    2.19
   8  -6   4   14.10    2.27
  -8   6   4    9.38    2.39
   8  -6   4   12.57    3.72
  -8  -6   4   12.96    2.23
   8  -6  -4    9.43    2.74
   8   6   4   17.45    3.52
   8   6   4   13.20    2.04
 -10  -6  -4   20.74    2.63
  10  -6   4   13.28    2.68
  10  -6   4   19.50    2.56
  10  -6   4   27.94    5.36
  10   6   4   18.11    2.50
 -10  -6   4   15.84    2.96
 -10   6  -4   16.64    3.49
  10  -6  -4   11.16    3.56
  -1  -7  -4   41.94    3.40
  -1   7   4   32.18    3.23
   1  -7   4   32.12    3.46
   1  -7   4   29.61    3.25
  -1   7   4   33.17    3.36
   1  -7  -4   32.10    3.34
   1  -7  -4   28.24    3.39
   1   7   4   35.56    3.22
  -1  -7   4   38.81    3.33
  -1  -7   4   38.66    3.31
   1   7   4   35.85    3.28
  -3   7   4   79.13    6.83
  -3   7   4   72.29    6.48
   3  -7   4   73.31    7.10
  -3  -7  -4   90.22    6.92
   3  -7   4   80.71    6.88
  -3   7  -4   76.39    7.02
  -3  -7   4   81.81    6.38
   3  -7  -4   68.84    6.87
   3   7   4   82.48    6.40
   3   7   4   76.21    6.53
  -3  -7   4   89.04    6.55
  -3  -7   4   90.25    6.63
   3  -7  -4   73.97    6.57
   5  -7   4   30.93    3.11
   5  -7   4   18.68    4.01
  -5   7   4   28.04    2.91
  -5   7   4   31.26    3.45
   5   7   4   27.87    3.09
   5   7   4   25.65    2.84
  -5  -7   4   22.78    2.56
   5   7   4   28.21    2.64
   7  -7   4    5.60    2.92
   7  -7   4    2.67    1.23
   7  -7   4    1.64    1.16
  -7   7   4    3.22    1.11
  -7  -7  -4    2.16    1.07
  -7   7   4    3.58    1.77
   7   7   4    3.96    1.90
   7  -7  -4    5.67    2.07
  -7  -7   4    1.74    1.00
   7   7   4    4.49    1.11
   7  -7  -4    3.86    1.24
   7   7   4    2.74    1.20
  -7   7  -4    2.36    1.67
   9  -7   4   19.49    3.16
  -9  -7  -4   25.68    2.99
   9  -7   4   19.80    2.98
  -9   7  -4   27.11    4.07
   9   7   4   27.49    3.07
   9   7   4   31.00    3.92
   0  -8  -4   18.71    2.47
   0   8   4   18.98    2.33
   0   8   4   22.17    2.46
   0  -8   4   20.13    2.41
   0  -8   4   21.89    2.57
   2  -8   4   26.32    3.67
  -2   8   4   38.02    3.47
  -2   8   4   33.46    3.20
  -2   8  -4   24.55    3.37
  -2  -8   4   30.41    3.00
  -2  -8   4   24.08    3.01
   2   8   4   34.36    3.22
   2   8   4   35.61    3.02
   4  -8   4   15.03    3.45
  -4   8   4   18.03    2.42
  -4  -8  -4   21.20    2.46
  -4   8   4   16.92    2.69
   4   8   4   16.11    2.93
   4  -8  -4   17.57    2.52
  -4   8  -4   19.91    3.10
   4  -8  -4   15.42    2.87
  -4  -8   4   24.08    2.49
  -4  -8   4   21.75    2.14
   4   8   4   21.16    2.15
  -6   8   4   15.62    2.84
   6  -8   4   15.34    2.47
  -6   8   4   17.64    2.27
   6  -8   4   16.97    3.75
  -6  -8  -4   19.62    2.37
   6  -8  -4   12.66    2.93
  -6   8  -4   18.66    3.25
   6   8   4   16.21    1.89
  -6  -8   4   17.18    1.84
   6   8   4   19.32    2.36
   6   8   4   12.60    2.60
   6  -8  -4   13.72    2.27
   8  -8   4   10.22    3.53
   8  -8   4    8.83    2.05
  -8   8   4    6.84    1.46
  -8   8   4    4.65    2.06
   8  -8   4    8.44    1.99
  -8  -8  -4    7.29    1.77
   8   8   4   13.86    2.98
   8  -8  -4   10.55    2.08
   8   8   4    7.65    1.52
   8  -8  -4   10.53    3.11
   8   8   4    7.59    1.74
  -1   9   4   15.45    2.17
   1  -9   4   13.85    2.21
  -1   9   4   15.14    2.33
   1   9   4   17.06    2.14
  -1  -9   4   18.48    2.31
   1   9   4   19.84    3.16
   1  -9  -4   17.95    2.50
   1  -9  -4   18.10    2.51
  -1  -9   4   16.94    2.35
  -3   9   4   78.45    7.25
  -3   9   4   81.67    7.10
   3   9   4   75.75    6.84
  -3  -9   4   83.42    7.12
   3   9   4   89.17    6.77
   3   9   4   84.93    7.10
  -3  -9   4   88.18    6.79
  -3   9  -4   76.55    7.35
   3  -9  -4   89.16    7.32
  -3  -9   4   83.34    6.82
   3  -9  -4   97.02    7.67
  -5   9   4    6.59    1.99
  -5  -9  -4    5.06    1.42
  -5   9   4    5.38    1.46
   5  -9   4    4.55    2.42
   5  -9   4    5.31    1.66
   5  -9  -4    8.72    2.19
   5   9   4    5.29    1.37
   5   9   4    5.18    1.20
   5   9   4    4.73    1.30
   5  -9  -4    6.56    1.65
  -5  -9   4    3.14    1.14
  -5  -9   4    3.80    1.24
  -5   9  -4    4.26    1.79
  -7   9   4   11.69    2.79
  -7   9   4   12.29    2.17
   7  -9   4   16.70    2.73
   7  -9   4   18.70    4.17
  -7  -9  -4   10.91    2.28
   7  -9  -4   15.88    2.50
   7   9   4   16.03    1.78
   7   9   4   15.22    2.39
  -9  -9  -4   17.73    3.43
   9  -9   4   16.20    2.73
   9   9   4   17.09    2.56
   9  -9  -4   14.90    2.50
   0 -10   4  221.98   16.95
   0  10   4  228.48   16.78
   0  10   4  206.61   16.83
   2 -10   4    6.52    2.61
   2 -10   4    8.30    1.89
  -2  10   4   10.10    1.98
  -2  10   4   11.62    2.12
   2 -10  -4   12.29    2.68
   2  10   4   11.97    2.05
  -2  10  -4   10.91    2.17
  -2 -10   4   11.86    2.12
   2  10   4   11.55    1.82
  -2 -10   4   13.88    1.98
  -4  10   4   18.48    2.98
   4 -10   4   20.94    3.00
  -4 -10  -4   15.64    2.62
  -4  10   4   19.77    2.60
   4 -10   4   19.31    4.05
   4  10   4   22.74    2.31
   4  10   4   22.38    2.19
  -4 -10   4   17.39    2.17
  -4  10  -4   16.69    3.04
   4  10   4   19.74    2.66
  -6  10   4   90.92    7.38
   6 -10   4   82.38    7.78
   6 -10   4   72.84    8.78
   6  10   4   91.37    7.53
  -6  10  -4   92.51    8.20
  -8  10   4    1.45    2.04
  -8 -10  -4    4.28    1.69
   8 -10   4    4.83    1.86
   8 -10   4    4.70    2.17
  -8  10   4    4.09    1.50
   8 -10   4    8.07    3.26
  -8  10  -4    4.10    2.08
   8 -10  -4    3.58    2.44
   8 -10  -4    5.37    1.95
   8  10   4    4.05    1.49
  -1  11   4   11.29    2.27
  -1  11   4   12.29    2.27
   1 -11   4   16.25    2.58
  -1 -11  -4   16.30    2.62
   1 -11   4   13.22    2.77
  -1 -11   4    9.92    2.21
   1 -11  -4   16.57    2.71
   1  11   4   14.38    2.06
  -1 -11   4   13.63    2.36
   1 -11  -4   16.22    3.30
   1  11   4   13.23    2.28
  -3  11   4  122.78    9.91
   3 -11   4  107.03   10.52
   3 -11   4  125.47   10.20
  -3  11   4  126.21   10.52
   3  11   4  131.83    9.40
   3  11   4  108.53    9.35
   3 -11  -4  122.07   10.20
   3 -11  -4  110.48   10.10
   3  11   4  127.52    9.97
  -5 -11  -4    7.39    2.70
  -5  11   4    9.30    2.29
   5 -11   4    8.87    3.11
   5 -11   4    8.42    2.44
  -5  11   4   10.83    2.15
   5  11   4   12.52    2.25
  -5  11  -4   10.23    2.36
  -5 -11   4   10.35    2.04
   5 -11  -4    9.11    2.24
  -7  11   4    1.88    2.08
  -7 -11  -4    5.98    1.82
  -7  11   4    5.00    1.55
   7 -11   4   11.49    3.42
   7 -11   4    7.24    2.27
  -7 -11   4    4.02    1.35
  -7  11  -4    2.97    1.76
   7 -11  -4    5.95    2.01
   0 -12   4   40.49    4.34
   0 -12  -4   37.50    4.42
   0  12   4   37.16    3.86
   0  12   4   36.90    4.02
   0 -12   4   31.22    4.12
  -2  12   4   21.11    2.98
   2 -12   4   25.59    3.81
  -2  12   4   22.16    3.52
   2  12   4   21.05    3.07
   2  12   4   24.91    2.75
   2 -12  -4   27.66    3.57
   4 -12   4    8.77    2.22
  -4 -12  -4    8.48    1.97
   4 -12   4    4.97    2.54
  -4  12   4    9.72    2.09
  -4  12   4    7.90    2.22
   4 -12  -4    5.75    1.93
   4 -12  -4    6.95    2.09
  -4  12  -4   11.31    2.55
   4  12   4    9.31    2.04
  -1  13   4   21.54    2.86
   1 -13   4   15.54    3.06
  -1  13   4   19.27    2.94
   1  13   4   19.86    2.70
   1  13   4   18.41    2.81
  -1 -13   4   22.24    2.69
   1 -13  -4   14.73    3.05
   1 -13  -4   13.69    2.64
  -3  13   4    5.29    1.59
  -3 -13  -4    4.04    2.82
   3 -13   4    6.71    2.94
   3 -13   4    6.20    2.28
  -3  13   4    6.62    2.18
   3  13   4    4.15    2.33
   3 -13  -4    6.18    2.18
  -3  13  -4    5.78    1.68
  -3 -13   4    9.12    3.07
   3 -13  -4    2.94    1.64
   0   0   5    0.19    0.51
   0   0   5    0.37    0.54
   0   0  -5    0.56    0.58
   2   0   5   40.17    3.47
   2   0  -5   39.37    3.30
  -2   0   5   36.23    3.70
  -2   0  -5   44.43    3.50
  -2   0   5   38.10    3.24
   2   0   5   34.83    3.68
  -4   0  -5    0.79    0.73
  -4   0   5    0.90    0.46
   4   0  -5    0.89    1.06
   4   0   5    0.85    0.73
   4   0   5    0.96    0.95
  -4   0   5    0.42    0.75
   6   0  -5   20.56    2.92
  -6   0   5   18.02    2.72
   6   0   5   16.77    4.41
   6   0   5   21.39    2.38
   8   0  -5   48.35    5.42
   8   0   5   50.76    4.65
  -8   0  -5   52.89    5.15
  -8   0   5   47.04    5.30
 -10   0   5    1.77    1.69
 -10   0  -5    3.39    1.67
  10   0   5    4.17    1.35
  10   0   5    3.93    3.67
  -1   1   5   51.35    4.25
   1  -1   5   55.72    4.42
  -1   1   5   55.42    4.70
   1  -1   5   54.90    4.69
  -1  -1  -5   49.96    4.35
   1  -1  -5   51.72    4.30
  -1  -1   5   50.20    4.25
  -1  -1   5   52.09    4.68
   1   1   5   49.56    4.32
   1   1   5   53.27    4.64
  -3   1   5   13.00    1.41
   3  -1   5   10.93    1.93
  -3   1   5   11.38    1.94
   3  -1   5   14.24    1.80
  -3  -1  -5   14.35    1.73
   3  -1  -5   12.47    1.97
   3  -1  -5   15.73    1.57
   3   1   5   14.78    1.74
  -3  -1   5   11.25    1.91
  -3  -1   5   15.02    1.45
   3   1   5   10.10    1.92
   5  -1   5  116.80    9.18
   5  -1   5  112.32    8.53
  -5   1   5  109.86    8.92
  -5  -1  -5  105.59    8.44
   5   1  -5  105.31    8.63
   5   1   5  108.51    9.02
   5   1   5  101.15    8.44
   5  -1  -5  114.38    8.82
  -5  -1   5   89.63    8.69
   7  -1   5    7.41    2.34
   7  -1   5    9.91    1.71
  -7   1   5   11.15    2.35
   7   1  -5    8.02    1.84
  -7  -1  -5    7.78    1.66
   7   1   5    8.66    1.65
   7   1   5    7.79    2.80
   7  -1  -5    8.71    2.07
  -7   1  -5    9.32    2.26
  -7  -1   5    5.61    1.62
   9  -1   5   16.48    2.36
  -9  -1  -5   19.63    2.83
   9  -1   5   16.54    4.01
  -9   1   5   14.91    3.06
   9   1   5   16.87    2.32
  -9   1  -5   18.65    3.00
   9   1   5    8.01    4.17
  -9  -1   5   17.16    3.02
   9  -1  -5   13.72    2.79
 -11   1   5   40.70    5.30
 -11  -1  -5   42.31    4.50
  11  -1   5   42.03    4.01
  11   1  -5   35.94    4.51
  11   1   5   34.90    3.84
 -11   1  -5   40.28    4.70
 -11  -1   5   34.53    4.91
  11  -1  -5   38.98    4.90
   0  -2   5    3.80    1.05
   0  -2   5    3.14    0.90
   0  -2  -5    3.17    0.86
   0   2   5    3.22    0.97
   0   2   5    2.88    0.77
   2  -2   5  296.53   22.42
  -2  -2  -5  300.63   22.11
  -2   2   5  294.77   21.94
  -2   2   5  303.40   22.43
   2  -2   5  301.97   22.14
  -2  -2   5  293.58   22.43
  -2  -2   5  293.41   21.93
   2   2   5  293.34   22.39
   2   2   5  293.53   22.08
   2  -2  -5  305.90   21.99
  -4  -2  -5  110.65    9.01
  -4   2   5  117.26    8.74
   4  -2   5  119.25    9.11
   4  -2   5  118.39    9.51
  -4   2   5  117.52    9.42
   4  -2  -5  118.94    9.40
   4   2   5  113.90    9.42
  -4  -2   5  112.11    8.66
   4  -2  -5  116.03    8.76
  -4  -2   5  115.30    9.37
   4   2   5  110.23    9.00
   6   2  -5    6.50    1.75
   6  -2   5    8.72    1.65
  -6  -2  -5    9.43    1.61
   6  -2   5    7.01    2.03
  -6   2   5    8.87    2.08
  -6   2  -5   10.54    2.24
   6   2   5    8.31    1.58
   6   2   5    8.48    2.19
  -6  -2   5    8.78    1.89
   6  -2  -5   10.38    2.08
   8   2  -5  127.22   10.10
   8  -2   5  103.72   11.40
  -8  -2  -5  138.78    9.95
  -8   2   5  125.81   10.69
   8  -2   5  134.80    9.98
  -8  -2   5  108.56   10.33
   8   2   5  138.99   11.39
  -8   2  -5  127.28   10.71
   8   2   5  118.98    9.84
   8  -2  -5  116.10   10.82
  10  -2   5   12.50    4.66
  10  -2   5   10.90    1.95
 -10   2   5    5.78    2.34
  10   2  -5    6.69    1.83
  10   2   5    9.49    1.92
 -10  -2   5   11.16    2.69
  10   2   5   11.03    4.26
 -10   2  -5    8.79    2.55
  -1   3   5  232.27   17.38
   1  -3   5  227.80   17.36
  -1   3   5  220.39   16.98
   1  -3   5  225.54   17.11
  -1  -3  -5  232.42   17.10
   1   3   5  226.65   17.28
  -1  -3   5  226.96   17.01
   1   3   5  229.86   17.09
   1  -3  -5  213.14   16.99
  -1  -3   5  249.42   17.48
  -3   3   5    8.77    1.24
  -3   3   5   10.79    1.79
   3  -3   5   11.48    1.62
   3  -3   5    8.77    1.83
  -3  -3  -5    8.72    1.43
   3   3   5    9.64    1.45
   3   3   5    8.50    1.78
   3  -3  -5    9.53    1.29
  -3  -3   5    8.52    1.69
   3  -3  -5    8.77    1.79
  -3  -3   5   10.04    1.26
   5  -3   5  253.86   18.73
  -5  -3  -5  254.74   18.57
  -5   3   5  235.24   18.45
   5  -3   5  233.22   18.01
  -5   3   5  235.55   17.69
  -5  -3   5  239.42   18.28
   5  -3  -5  233.41   18.46
   5  -3  -5  226.12   17.60
   5   3   5  231.61   17.95
   5   3   5  233.01   18.42
  -5   3  -5  248.96   18.70
   7  -3   5   43.97    4.83
  -7   3   5   40.39    4.87
  -7  -3  -5   46.47    4.29
  -7  -3   5   56.15    4.93
  -7   3  -5   48.03    5.13
   7   3   5   48.74    6.64
   7   3   5   45.35    4.70
  -9   3   5    7.69    2.25
   9   3  -5   11.72    2.14
  -9  -3  -5   13.33    2.15
   9  -3   5   11.37    2.08
   9  -3   5   15.47    4.53
   9  -3  -5    8.73    2.49
  -9   3  -5    7.46    2.09
   9   3   5   11.68    2.08
   0   4   5    4.18    0.98
   0  -4   5    4.29    1.13
   0   4   5    4.95    1.20
   0  -4   5    3.97    1.01
   0  -4  -5    3.73    0.93
  -2   4   5   81.17    6.75
   2  -4   5   79.19    6.51
  -2  -4  -5   82.44    6.47
   2  -4   5   76.07    6.73
  -2   4   5   78.04    6.33
   2  -4  -5   78.63    6.35
   2  -4  -5   84.04    6.88
   2   4   5   78.97    6.56
   2   4   5   84.89    6.49
  -2  -4   5   77.49    6.75
  -2  -4   5   79.39    6.32
  -4   4   5   33.53    3.00
  -4  -4  -5   27.57    3.78
   4  -4   5   32.56    3.29
   4  -4   5   27.69    4.52
  -4   4   5   33.93    3.60
  -4  -4   5   40.88    2.95
   4  -4  -5   27.63    2.91
   4   4   5   32.39    3.55
   4   4   5   37.52    3.28
  -6  -4  -5   13.43    1.87
  -6   4   5   10.41    2.87
   6  -4   5   16.07    2.25
  -6   4  -5    9.76    2.73
  -6  -4   5   10.30    2.06
   6  -4  -5   14.16    1.54
   6   4   5   12.81    1.96
   6   4   5   13.43    2.70
   8  -4   5   60.53    5.78
   8  -4   5   57.19    7.60
  -8  -4  -5   75.07    5.88
  -8   4  -5   69.85    6.84
   8   4   5   69.99    5.88
   8   4   5   61.03    7.02
 -10  -4  -5   11.57    2.34
  10  -4   5   16.62    4.92
  10  -4   5   11.79    2.17
 -10  -4   5   16.11    2.90
  10  -4  -5    8.11    2.41
  10   4   5   12.67    2.12
 -10   4  -5    8.59    2.41
  -1   5   5    5.76    1.16
  -1  -5  -5    5.08    1.14
  -1   5   5    5.96    1.43
   1  -5   5    5.44    1.20
   1  -5   5    6.90    1.52
  -1  -5   5    6.07    1.22
   1   5   5    6.05    1.23
   1  -5  -5    5.85    1.20
   1   5   5    5.86    1.36
  -1  -5   5    5.57    1.34
  -1  -5   5    3.99    1.07
   3  -5   5   16.66    2.49
   3  -5   5   15.10    2.05
  -3   5   5   15.57    1.84
  -3   5   5   14.96    2.27
   3   5   5   15.40    2.23
   3   5   5   15.73    1.92
   3   5   5   14.69    1.98
  -3  -5   5   15.13    1.78
  -3  -5   5   13.86    1.74
   3  -5  -5   18.34    1.90
   3  -5  -5   19.19    2.49
  -3  -5   5   13.62    2.14
   5  -5   5   28.12    3.97
  -5   5   5   30.26    3.58
   5  -5   5   34.65    3.28
  -5  -5  -5   30.51    3.08
  -5   5   5   30.04    2.95
  -5   5  -5   29.82    3.88
   5  -5  -5   28.86    2.80
  -5  -5   5   31.96    2.72
  -5  -5   5   31.27    3.30
   5   5   5   27.52    3.39
   5   5   5   31.12    3.09
  -7  -5  -5    7.50    1.65
   7  -5   5   10.01    1.90
  -7   5   5    5.63    1.94
  -7  -5   5    9.82    1.92
  -7   5  -5    6.18    2.00
   7   5   5    6.94    2.21
   7   5   5    9.40    1.71
   9  -5   5   13.71    2.53
  -9  -5  -5   21.90    2.75
   9  -5   5   18.83    2.56
   9  -5   5   11.80    5.38
   9   5   5   15.11    3.96
  -9   5  -5   18.39    3.50
  -9  -5   5   16.49    2.79
   9   5   5   15.37    2.42
   0   6   5    7.98    1.40
   0   6   5    9.02    1.62
   0  -6   5    8.19    1.48
   0  -6  -5    8.02    1.46
   0  -6   5    8.94    1.66
   2  -6   5   45.17    4.11
   2  -6   5   43.04    3.78
  -2   6   5   42.38    3.95
  -2   6   5   41.48    3.61
  -2  -6  -5   38.63    3.64
   2  -6   5   37.79    4.42
  -2  -6   5   32.14    3.78
  -2  -6   5   33.98    3.47
   2   6   5   38.13    3.65
  -2  -6   5   36.30    3.60
   2  -6  -5   47.32    3.69
   2   6   5   34.26    3.55
   4  -6   5    5.32    1.44
   4  -6   5    4.79    1.79
  -4  -6  -5    3.31    1.12
  -4   6   5    2.88    1.24
  -4   6   5    3.51    1.06
  -4  -6   5    4.86    1.07
  -4  -6   5    6.35    1.38
   4   6   5    4.26    1.28
   4  -6  -5    3.18    1.22
   4   6   5    4.50    1.13
   4   6   5    4.12    1.09
  -4   6  -5    3.70    1.56
  -4  -6   5    5.79    1.16
   4  -6  -5    2.76    0.94
  -6  -6  -5   16.02    2.18
  -6   6   5   15.45    2.08
  -6   6   5   11.12    2.59
   6  -6   5   17.61    2.34
   6  -6   5   11.73    2.25
   6   6   5   14.89    2.12
   6  -6  -5   17.95    1.98
   6  -6  -5   10.14    2.50
   6   6   5   15.07    2.75
  -6  -6   5   14.64    2.27
   6   6   5   16.14    2.20
  -6   6  -5   17.54    3.21
   8  -6   5   47.48    4.44
  -8  -6  -5   41.88    4.21
   8  -6   5   46.95    4.48
   8  -6   5   49.35    6.91
   8  -6  -5   40.08    5.39
   8   6   5   53.37    5.90
  -8   6  -5   35.99    5.09
  -8  -6   5   34.98    4.26
   8   6   5   44.81    4.30
   1  -7   5   90.98    7.60
  -1  -7  -5   99.34    7.65
   1  -7   5   87.61    7.75
  -1   7   5   95.55    7.74
  -1   7   5   90.03    7.53
   1   7   5   92.73    7.54
  -1  -7   5   95.59    7.60
  -1  -7   5  102.40    7.61
   1   7   5   95.08    7.61
   1  -7  -5   82.27    7.97
  -3   7   5   11.41    2.18
   3  -7   5   12.86    2.56
   3  -7   5   12.56    2.61
  -3   7   5   12.01    1.84
  -3  -7   5    8.96    1.86
   3   7   5   11.19    1.96
   3  -7  -5   10.95    1.75
   3  -7  -5   12.75    2.37
  -3  -7   5   11.43    1.68
   3   7   5   14.50    2.58
   3   7   5   11.54    1.78
  -3  -7   5   11.57    1.75
  -5  -7  -5  116.27    9.31
  -5   7   5  110.01    9.74
   5  -7   5  126.40    9.53
  -5   7   5  113.70    9.25
  -5   7  -5  116.73   10.14
   5   7   5  121.29    9.18
  -5  -7   5  104.97    9.03
   5   7   5  117.63    9.33
  -5  -7   5   98.50    9.18
   5  -7  -5  133.15    9.26
   5   7   5  117.41    9.48
  -5  -7   5  109.23    9.05
   5  -7  -5  119.85   10.11
   7  -7   5   15.01    2.51
  -7  -7  -5   15.18    2.31
  -7   7   5   16.44    2.17
   7  -7   5   17.04    2.55
  -7   7   5   12.55    2.83
   7   7   5   14.77    3.04
  -7   7  -5   13.33    3.19
   7  -7  -5   13.33    1.98
   7   7   5   17.54    2.37
   7   7   5   16.78    2.24
   9  -7   5    8.55    4.43
  -9   7   5    4.20    2.35
   9  -7   5   10.34    2.33
  -9  -7  -5   14.03    3.50
   9  -7   5    8.34    2.05
  -9   7  -5    4.87    2.18
   9   7   5    6.90    1.72
   9  -7  -5    3.58    2.44
  -9  -7   5   10.34    2.13
   0  -8   5    9.68    1.91
   0   8   5   12.26    1.89
   0   8   5   12.26    1.93
   0  -8  -5    8.16    1.79
   0  -8   5   10.29    1.86
   2  -8   5  161.59   12.00
  -2   8   5  144.98   11.57
  -2   8   5  139.84   11.31
   2  -8   5  145.78   11.47
   2  -8  -5  156.55   11.45
   2  -8  -5  156.50   11.84
   2   8   5  143.44   11.21
   2   8   5  138.29   11.31
  -2  -8   5  133.08   11.84
  -2  -8   5  136.30   11.17
  -2  -8   5  130.47   11.37
  -4   8   5   67.90    5.88
  -4  -8  -5   78.90    6.03
  -4   8   5   66.36    6.28
   4  -8  -5   56.61    5.78
  -4   8  -5   66.72    6.57
   4   8   5   58.88    5.83
  -4  -8   5   71.63    5.64
   4   8   5   71.41    5.71
   4   8   5   67.58    5.88
  -6  -8  -5    6.05    1.61
   6  -8   5    4.73    2.69
   6  -8   5    9.12    2.15
  -6   8   5    7.10    2.15
  -6   8   5    9.23    1.84
   6  -8   5    7.51    1.87
   6   8   5    7.77    2.10
   6   8   5    8.83    1.61
   6  -8  -5    9.83    1.88
   6   8   5    9.54    1.92
  -6  -8   5    9.13    1.48
  -6  -8   5    7.49    1.77
   6  -8  -5   11.09    2.96
  -6   8  -5    5.95    2.24
  -8   8   5   61.16    5.49
   8  -8   5   63.87    5.96
   8  -8   5   57.95    6.03
   8  -8   5   49.82    7.87
  -8  -8   5   69.29    5.66
   8   8   5   60.15    5.73
  -8   8  -5   63.56    6.89
   8   8   5   62.98    5.38
   8   8   5   70.50    7.18
   1  -9   5   32.37    3.90
  -1  -9  -5   42.50    4.12
  -1   9   5   38.54    3.94
  -1   9   5   36.17    4.00
   1   9   5   39.40    3.86
   1   9   5   39.07    3.93
  -1  -9   5   45.96    4.05
  -1  -9   5   45.60    4.04
   3  -9   5   11.74    2.27
  -3   9   5   13.58    2.46
  -3   9   5   12.19    2.05
   3   9   5   13.16    1.94
   3   9   5   13.33    2.10
  -3  -9   5   10.99    2.11
   3  -9  -5   15.40    2.76
  -3  -9   5   11.16    2.00
   3   9   5   15.43    2.19
  -3  -9   5   16.18    1.93
  -5  -9  -5   47.28    4.18
  -5   9   5   31.07    4.19
   5  -9   5   39.92    4.22
  -5   9   5   37.78    3.87
   5   9   5   37.97    3.58
   5  -9  -5   29.07    4.50
  -5   9  -5   43.99    4.95
  -5  -9   5   42.25    3.51
   5   9   5   39.42    3.99
  -5  -9   5   37.79    3.94
   5   9   5   31.19    3.77
  -5  -9   5   41.93    3.71
   7  -9   5   17.19    3.04
  -7  -9  -5   20.89    2.95
   7  -9   5   11.10    4.19
   7  -9   5   18.18    3.03
  -7   9   5   22.42    2.75
  -7   9   5   18.22    3.38
   7   9   5   19.46    2.27
  -7   9  -5   17.30    3.55
   7  -9  -5   15.74    3.84
   7   9   5   18.89    3.98
   7   9   5   20.14    2.83
  -7  -9   5   23.28    2.16
   0 -10  -5   12.09    2.28
   0 -10   5   14.30    2.31
   0  10   5   13.68    2.18
   0  10   5   14.76    2.28
  -2  10   5    7.44    2.55
   2 -10   5   10.46    2.16
  -2 -10  -5    8.99    1.96
  -2  10   5    8.15    1.84
   2  10   5    8.89    1.89
  -2 -10   5    7.52    1.84
   2 -10  -5    9.67    2.01
  -2 -10   5    7.44    1.85
  -2 -10   5    7.71    1.72
   2 -10  -5   11.23    2.53
   2  10   5    8.29    1.76
  -4  10   5   13.05    2.20
   4 -10   5   13.14    2.51
  -4  10   5   10.06    2.46
   4 -10   5    6.76    2.81
   4  10   5   11.96    2.11
  -4  10  -5    9.38    2.31
   4  10   5   12.83    2.06
  -4 -10   5    8.17    1.73
   4  10   5   12.43    1.87
   4 -10  -5   12.97    2.53
   4 -10  -5   16.98    3.20
  -4 -10   5    9.21    1.80
  -4 -10   5   11.93    2.10
   6 -10   5    9.07    5.64
  -6  10   5   14.75    2.30
  -6  10   5    9.27    2.53
   6 -10   5   13.59    2.72
  -6 -10  -5   13.54    2.43
   6 -10   5   15.11    2.71
  -6  10  -5    9.96    2.77
   6  10   5   13.86    1.81
  -6 -10   5   13.92    2.03
   6 -10  -5   11.31    2.99
  -6 -10   5   13.43    1.72
  -6 -10   5    9.73    1.72
   6 -10  -5   11.68    2.56
   6  10   5   11.39    2.25
  -1  11   5    8.12    2.04
  -1 -11  -5    6.87    1.81
  -1  11   5    5.22    1.57
   1 -11   5    8.11    2.13
  -1 -11   5    9.19    2.08
   1  11   5    7.15    1.79
   1 -11  -5    6.18    1.90
   1  11   5    9.19    1.89
   3 -11   5    8.11    2.48
  -3  11   5   11.63    2.45
  -3  11   5   11.76    2.29
   3 -11   5    7.51    2.87
  -3 -11  -5    9.81    2.30
   3  11   5   14.13    2.00
  -3 -11   5   11.82    2.29
   3  11   5   12.45    1.95
   3  11   5   11.04    2.22
  -3 -11   5   13.14    1.96
   3 -11  -5   15.36    2.99
  -3 -11   5    8.84    1.89
   3 -11  -5    9.81    2.35
   5 -11   5   15.04    4.12
  -5 -11  -5   10.69    2.40
   5 -11   5   16.89    3.00
  -5  11   5   15.48    2.31
  -5  11   5    9.53    2.52
  -5 -11   5   10.47    1.98
   5 -11  -5   20.54    6.15
  -5 -11   5   11.20    2.16
   5  11   5   15.82    2.47
   5  11   5   14.82    1.92
   5 -11  -5   16.53    3.08
   5  11   5   10.15    2.07
  -5  11  -5   11.09    2.73
   0 -12  -5    3.88    1.67
   0 -12   5    2.04    1.90
   0 -12   5    2.44    1.93
   2 -12   5   36.06    5.02
  -2  12   5   37.99    4.13
  -2  12   5   34.23    3.91
  -2 -12  -5   33.33    4.21
  -2 -12   5   30.58    3.83
  -2 -12   5   26.81    3.43
   2  12   5   39.39    3.59
   2  12   5   36.22    3.88
  -4  12   5   11.86    2.33
  -4  12   5    9.73    2.52
   4 -12   5    6.47    3.24
   4  12   5   13.89    3.14
   4  12   5   10.93    1.86
   4 -12  -5    9.61    2.58
   4  12   5   13.39    1.86
   0   0   6  250.86   17.60
   0   0  -6  224.32   16.65
   0   0   6  192.59   16.54
  -2   0   6  231.45   17.94
   2   0   6  241.87   18.55
   2   0  -6  245.72   18.04
  -2   0   6  248.76   18.62
   2   0   6  241.69   18.18
  -2   0  -6  242.28   18.18
  -4   0   6  169.82   13.35
   4   0   6  170.99   13.40
  -4   0   6  163.71   12.49
   4   0   6  166.33   12.90
  -4   0  -6  165.22   13.04
   6   0  -6   83.06    7.28
   6   0   6   83.79    8.05
   6   0   6   83.73    6.99
   8   0   6   10.74    3.46
   8   0   6   17.53    2.38
   8   0  -6   15.03    2.78
  -8   0   6   15.82    2.90
  10   0   6   47.47    8.31
 -10   0   6   32.02    4.55
  10   0  -6   37.48    5.11
  10   0   6   32.47    3.62
  -1   1   6  178.62   13.95
   1  -1   6  183.09   14.08
  -1  -1  -6  185.33   14.11
  -1   1   6  192.77   14.51
  -1  -1   6  188.66   14.51
   1   1   6  182.26   14.05
  -1  -1   6  188.28   13.99
   1   1   6  186.61   14.40
   1  -1  -6  186.06   14.04
  -3   1   6   95.59    7.61
  -3   1   6   92.26    8.24
   3  -1   6   96.65    7.90
  -3  -1  -6   96.25    8.90
  -3  -1   6  100.54    7.60
  -3  -1   6  102.05    8.35
   3   1   6   92.76    8.26
   3  -1  -6  109.67    7.72
   3   1   6  100.18    7.90
  -5   1   6   44.26    4.82
   5  -1   6   46.61    4.51
   5  -1   6   47.05    4.93
  -5  -1   6   55.07    5.01
   5   1   6   51.21    5.06
   5  -1  -6   47.74    4.78
   5   1   6   51.92    4.53
   7  -1   6   78.07    7.23
  -7   1   6   59.12    6.38
   7  -1   6   65.04    5.85
  -7  -1  -6   61.17    5.78
  -7  -1   6   72.88    6.56
   7   1   6   66.62    5.83
   7  -1  -6   69.63    6.52
   9  -1   6   31.47    3.44
   9   1  -6   33.23    3.85
  -9   1   6   25.09    4.04
   9  -1   6   30.21    5.99
   9  -1  -6   25.95    3.96
   9   1   6   35.22    3.48
   9   1   6   25.27    5.77
   0  -2   6   22.47    2.96
   0   2   6   22.18    2.81
   0  -2   6   30.13    2.65
   0   2   6   27.86    2.56
   0  -2   6   23.01    2.82
   2  -2   6   47.79    4.43
  -2   2   6   48.08    4.24
  -2  -2  -6   52.52    4.48
  -2   2   6   47.49    4.73
   2  -2   6   52.03    4.94
   2  -2  -6   49.15    4.30
   2   2   6   49.74    4.65
   2   2   6   54.56    4.46
   2   2   6   51.04    4.79
  -2  -2   6   54.15    4.28
  -2  -2   6   54.28    4.90
   4  -2   6   40.91    3.98
  -4   2   6   43.83    3.62
   4   2   6   41.05    3.93
  -4  -2   6   44.54    4.41
  -4  -2   6   41.79    3.55
   4  -2  -6   41.61    3.65
   4  -2  -6   45.71    4.42
  -6  -2  -6   12.75    1.92
   6  -2   6   10.70    1.95
   6   2   6   10.16    2.38
  -6  -2   6   11.11    2.24
   6   2   6   13.13    1.95
   8  -2   6    7.69    3.39
   8  -2   6   13.18    2.15
  -8  -2  -6   13.23    2.24
  -8  -2   6   13.60    2.73
   8   2   6   11.56    2.06
   8   2   6    7.28    3.30
  10   2  -6   15.74    2.89
  10  -2   6   18.83    6.03
  10   2   6   22.31    6.26
 -10  -2   6   17.35    3.24
 -10   2  -6   13.63    3.11
  10  -2  -6    9.77    2.79
  10   2   6   15.50    2.35
  -1   3   6   43.02    3.81
   1  -3   6   45.75    4.25
   1  -3   6   45.71    3.97
  -1   3   6   49.45    4.34
  -1  -3  -6   40.35    3.88
   1   3   6   43.19    3.91
  -1  -3   6   41.92    4.28
   1   3   6   45.54    4.20
   1  -3  -6   44.16    3.88
  -1  -3   6   42.13    3.84
  -1  -3   6   43.34    4.11
  -3   3   6   11.07    2.09
  -3  -3  -6   16.97    1.91
   3  -3   6   12.26    2.18
  -3   3   6   11.95    1.58
   3  -3   6   13.09    1.94
   3   3   6   14.13    1.87
  -3  -3   6   15.03    1.66
   3   3   6   10.73    2.09
   3   3   6   12.44    1.96
   3  -3  -6   15.61    1.75
  -3  -3   6   11.78    2.16
   5  -3   6   11.47    1.86
  -5   3   6    9.85    1.42
  -5   3   6    8.74    2.11
  -5  -3  -6    6.93    1.48
   5  -3  -6   10.13    1.44
  -5  -3   6   12.11    2.18
   5   3   6   11.85    1.81
   5   3   6    9.80    2.25
   7  -3   6   30.74    3.30
   7  -3   6   26.21    4.75
  -7   3   6   31.99    3.95
  -7  -3  -6   25.20    3.17
   7   3   6   26.25    3.13
   7   3   6   30.49    4.60
   7  -3  -6   35.83    4.15
  -9   3   6    7.21    2.09
   9  -3   6    4.21    4.14
  -9  -3  -6   10.00    2.16
   9  -3   6    8.13    1.80
  -9   3  -6    9.04    2.65
   9   3   6    7.91    1.79
   9   3   6    5.12    3.70
   9  -3  -6    8.01    2.46
  -9  -3   6    7.87    2.07
   0  -4   6   18.66    2.15
   0   4   6   17.14    2.30
   0  -4   6   17.13    2.30
   0   4   6   17.64    2.01
   2  -4   6   59.45    5.77
  -2  -4  -6   64.91    5.49
  -2   4   6   65.09    5.82
  -2   4   6   61.88    5.30
   2  -4   6   63.47    5.53
   2  -4  -6   56.83    5.28
  -2  -4   6   74.20    6.03
  -2  -4   6   68.46    5.36
   2   4   6   65.99    5.65
   2   4   6   68.61    5.51
   4  -4   6   84.81    7.85
  -4   4   6   92.16    6.62
   4  -4   6   67.05    7.57
   4  -4  -6   82.46    6.53
   4   4   6   89.25    6.98
   4   4   6   94.51    7.66
  -4  -4   6   77.77    6.41
   4   4   6   73.83    7.50
  -4  -4   6   75.66    7.11
  -4  -4   6   78.50    6.41
  -6  -4  -6   36.94    3.40
  -6   4   6   28.04    3.78
   6  -4   6   34.13    3.45
  -6  -4   6   23.86    3.41
   6   4   6   28.86    3.79
   6   4   6   33.89    3.38
  -8  -4  -6   17.03    2.52
   8  -4   6   13.03    2.32
   8  -4   6    9.13    4.09
   8   4   6   13.55    2.29
  -8   4  -6   15.70    3.29
  -8  -4   6   18.58    2.93
  -1  -5  -6  145.44   12.39
  -1   5   6  162.31   12.40
   1  -5   6  176.65   13.01
   1  -5   6  166.73   12.54
  -1   5   6  171.60   12.81
   1  -5  -6  159.71   12.45
  -1  -5   6  150.83   12.56
  -1  -5   6  160.34   12.83
  -1  -5   6  157.08   12.39
   1   5   6  164.85   12.67
   1   5   6  163.44   12.46
  -3   5   6   95.58    7.60
   3  -5   6   95.95    8.24
   3  -5   6   97.53    8.94
  -3   5   6   96.63    8.30
   3  -5  -6  109.89    8.47
  -3  -5   6   91.07    7.52
   3  -5  -6  102.32    7.67
   3   5   6   85.29    7.99
   3   5   6   94.66    7.86
  -3  -5   6   87.74    8.09
  -3  -5   6   97.88    7.58
   5  -5   6   44.63    5.04
  -5  -5  -6   48.91    4.29
   5  -5   6   42.88    4.33
  -5   5   6   45.24    4.03
  -5   5   6   36.31    4.59
   5   5   6   46.48    5.25
   5   5   6   48.27    4.35
   5  -5  -6   38.63    3.85
  -5  -5   6   50.60    3.84
   5   5   6   46.50    4.26
  -7   5   6   55.95    6.12
  -7  -5  -6   61.94    5.55
   7  -5   6   69.68    5.71
   7   5   6   60.63    6.44
  -7  -5   6   59.71    5.93
  -7   5  -6   55.62    6.43
   7  -5  -6   64.79    6.57
   7   5   6   60.59    5.52
  -9  -5  -6   36.95    4.04
  -9   5   6   25.86    5.07
   9  -5   6   31.30    3.86
   9  -5   6   35.29    7.73
  -9   5  -6   44.58    6.75
  -9  -5   6   41.69    4.39
   9   5   6   38.69    7.18
   9   5   6   34.37    3.81
   0   6   6   30.33    3.39
   0   6   6   30.24    3.14
   0  -6   6   35.52    4.14
   0  -6   6   35.04    3.31
   0  -6   6   31.22    3.22
  -2  -6  -6  103.79    8.47
   2  -6   6   80.94    7.76
   2  -6   6   82.98    7.57
  -2   6   6   87.72    7.79
  -2   6   6   88.40    7.42
   2   6   6   94.57    7.66
  -2  -6   6  106.39    7.52
   2   6   6  101.00    7.68
  -2  -6   6   98.11    7.66
   2  -6  -6   78.71    7.41
  -2  -6   6   95.45    7.44
   4  -6   6   87.33    7.33
  -4   6   6   87.05    7.66
   4  -6   6   91.36    7.92
  -4   6   6   88.59    7.08
  -4  -6   6   82.35    6.86
   4   6   6   87.47    7.21
   4  -6  -6   85.67    7.86
  -4  -6   6   79.12    7.42
  -4  -6   6   86.89    7.17
   4  -6  -6   85.46    7.01
   4   6   6   90.42    7.70
  -4  -6   6   81.81    6.87
   4   6   6   88.33    7.24
  -6   6   6   37.59    3.48
   6  -6   6   35.30    3.79
  -6   6   6   28.02    4.03
   6  -6   6   26.98    4.88
   6  -6   6   36.63    3.84
   6   6   6   40.17    3.72
  -6   6  -6   44.23    4.90
   6  -6  -6   26.56    4.33
   6   6   6   31.57    4.03
   6   6   6   35.95    3.69
   6  -6  -6   33.52    3.23
  -8   6   6   18.85    3.53
   8  -6   6   13.88    4.56
   8  -6   6   17.82    2.88
   8  -6   6   18.75    2.77
   8   6   6   18.22    4.58
  -8   6  -6   25.22    3.97
   8   6   6   22.74    2.86
  -1   7   6   47.74    4.39
   1  -7   6   44.46    4.34
   1  -7   6   50.86    4.48
   1  -7   6   51.37    4.29
   1   7   6   42.78    4.21
   1   7   6   41.33    4.07
  -1  -7   6   39.63    4.05
  -1  -7   6   37.01    4.00
  -1  -7   6   35.55    5.13
   1  -7  -6   47.04    4.19
  -3   7   6   10.63    1.79
   3  -7   6   11.81    2.56
   3  -7   6   12.78    2.10
   3  -7   6   11.98    2.18
  -3   7   6    9.05    2.21
   3   7   6   11.53    1.94
  -3  -7   6   13.30    1.88
   3   7   6   12.19    1.91
   3   7   6    9.34    1.97
   3  -7  -6   16.26    2.65
  -3  -7   6   11.15    2.11
  -3  -7   6   10.81    1.72
  -3  -7   6   12.91    1.87
   5  -7   6   24.63    3.19
  -5  -7  -6   28.54    3.13
  -5   7   6   27.62    2.92
   5  -7   6   19.88    3.03
  -5   7   6   26.02    3.62
   5  -7  -6   20.30    2.74
  -5  -7   6   32.98    2.89
   5   7   6   28.17    2.97
   5  -7  -6   18.83    3.63
  -5  -7   6   30.41    3.30
   5   7   6   25.60    3.03
  -5  -7   6   28.67    2.70
   7  -7   6   15.13    2.64
  -7  -7  -6   13.52    3.61
   7  -7   6   14.34    2.69
  -7   7   6   19.20    3.24
  -7   7   6   19.15    2.31
   7  -7   6   11.04    4.05
   7   7   6   17.14    3.34
   7   7   6   18.90    2.49
  -7  -7   6   15.63    2.47
  -7   7  -6   15.29    3.34
   7  -7  -6   11.80    2.76
   7   7   6   17.23    2.53
   7  -7  -6   21.68    2.77
   0   8   6   15.93    2.43
   0  -8   6   17.59    2.38
   0   8   6   16.98    2.27
   0  -8   6   16.47    2.49
   0  -8   6   18.57    2.53
   0  -8  -6   21.45    2.53
   2  -8   6   26.22    3.46
  -2   8   6   32.24    3.37
  -2  -8  -6   37.13    3.67
  -2   8   6   30.25    3.66
   2  -8   6   28.78    3.80
   2  -8   6   28.84    3.45
   2   8   6   33.56    3.45
   2   8   6   34.03    3.43
  -2  -8   6   34.74    3.47
  -2  -8   6   39.09    3.48
   4  -8   6   20.00    2.83
   4  -8   6   24.08    2.94
   4  -8   6   13.11    3.03
  -4  -8  -6   12.54    2.48
  -4   8   6   16.75    2.37
  -4  -8   6   16.48    2.20
   4   8   6   19.64    2.53
   4   8   6   21.27    2.45
  -4  -8   6   16.58    2.29
   6  -8   6    7.17    1.91
  -6  -8  -6    6.00    1.82
  -6   8   6    1.83    1.47
   6  -8   6    4.15    1.63
   6  -8  -6    1.09    1.90
   6   8   6    3.86    1.29
   6   8   6    2.96    1.38
  -6  -8   6    5.57    1.43
  -6  -8   6    5.43    1.57
   6  -8  -6    5.37    1.40
  -6   8  -6    5.13    2.15
  -1   9   6   48.48    4.53
  -1  -9  -6   37.20    4.46
  -1   9   6   50.83    4.77
   1  -9   6   53.97    4.97
   1   9   6   49.52    4.58
   1   9   6   42.83    4.44
   1  -9  -6   56.20    4.79
  -1  -9   6   38.80    4.40
   3  -9   6   18.95    2.83
  -3   9   6   16.06    2.47
  -3  -9  -6   20.39    2.76
  -3   9   6   15.73    2.86
   3  -9   6   18.33    2.78
   3  -9   6   18.01    3.61
  -3  -9   6   21.70    2.72
   3  -9  -6   24.25    3.61
  -3  -9   6   16.55    2.38
   3   9   6   17.66    2.41
   3   9   6   18.53    2.57
  -3  -9   6   14.22    2.51
   3  -9  -6   23.98    2.82
  -5   9   6   17.07    3.14
   5  -9   6   15.67    2.89
  -5  -9  -6   19.64    2.76
  -5   9   6   17.83    2.61
   5  -9   6   18.84    2.98
   5   9   6   19.40    2.61
   5   9   6   19.11    3.00
   5  -9  -6   12.43    2.51
  -5  -9   6   18.50    2.42
   5   9   6   15.90    2.34
  -5  -9   6   20.42    2.28
   0 -10   6   49.16    5.17
   0 -10  -6   60.08    5.28
   0  10   6   53.69    5.08
   0  10   6   46.76    4.91
   0 -10   6   50.44    5.07
  -2  10   6   57.80    5.50
   2 -10   6   50.65    6.22
  -2  10   6   61.99    5.81
  -2 -10  -6   60.49    6.15
   2 -10  -6   48.60    5.56
   2  10   6   61.60    5.61
  -2 -10   6   65.02    5.56
   2  10   6   66.45    5.49
  -4  10   6   43.18    4.45
   4 -10   6   45.57    4.85
  -4  10   6   44.86    4.88
   4 -10   6   50.91    4.99
  -4 -10  -6   35.74    4.49
   4 -10  -6   47.10    4.77
  -4 -10   6   36.84    4.13
   4  10   6   48.21    4.83
   4  10   6   46.23    4.22
   4  10   6   45.03    4.51
  -4 -10   6   40.89    4.06
  -1 -11  -6   37.72    4.55
  -1  11   6   45.91    4.53
  -1  11   6   47.46    4.68
   1 -11   6   51.60    4.83
   1 -11  -6   50.86    4.95
  -1 -11   6   37.55    4.56
   1  11   6   43.30    4.56
  -1 -11   6   37.17    4.37
   1  11   6   46.14    4.51
  -1 -11   6   35.42    4.59
   3 -11   6   21.17    3.39
  -3  11   6   21.62    2.90
  -3 -11  -6   18.60    4.21
  -3  11   6   19.00    3.10
   3 -11   6   14.61    3.92
   3 -11  -6   20.12    3.54
   3 -11  -6   21.75    3.23
  -3 -11   6   24.46    3.09
   3  11   6   19.95    2.64
  -3 -11   6   20.30    2.77
   3  11   6   15.81    3.92
   0   0   7    0.58    0.82
   0   0   7    0.45    0.71
   2   0   7    4.72    1.45
  -2   0  -7    5.90    1.46
   2   0   7    5.27    1.31
  -2   0   7    6.18    1.90
  -2   0   7    5.46    1.16
  -4   0   7   28.37    2.75
  -4   0   7   28.09    3.55
   4   0   7   33.15    3.27
  -6   0   7   18.91    3.13
   6   0   7   19.51    3.50
   6   0   7   19.63    2.60
   8   0   7   -1.15    4.52
   8   0   7    4.12    1.36
  -8   0   7    4.77    2.01
   1  -1   7   53.08    4.99
   1  -1   7   48.98    4.49
  -1   1   7   50.08    4.34
  -1   1   7   48.92    4.91
  -1  -1  -7   52.25    4.50
   1   1   7   50.94    4.45
   1   1   7   51.37    4.84
   1   1   7   46.94    4.78
  -1  -1   7   54.59    4.42
   1  -1  -7   49.97    4.40
  -1  -1   7   49.14    4.92
  -3   1   7    8.68    2.00
   3  -1   7    7.86    1.58
  -3   1   7    7.60    1.30
  -3  -1   7    6.53    1.20
   3   1   7    9.11    2.00
   3   1   7    6.82    1.44
   3  -1  -7    6.93    1.38
   5  -1   7   20.56    2.99
   5  -1   7   15.80    2.34
  -5   1   7   20.54    2.89
  -5   1   7   18.27    1.86
   5   1   7   15.94    3.27
   5   1   7   14.94    2.24
  -5  -1   7   12.22    2.59
   7  -1   7   44.70    5.89
  -7   1   7   45.45    5.23
   7  -1   7   50.30    4.60
   7   1   7   48.11    5.87
   7  -1  -7   46.81    5.05
   7   1   7   50.54    4.57
  -7  -1   7   37.35    4.95
  -9   1   7   17.27    3.45
   9  -1   7   13.75    5.25
   9  -1   7   18.13    2.66
  -9  -1   7   16.11    3.31
   9   1   7   16.95    2.64
   9   1   7   13.57    5.38
   9  -1  -7   19.04    3.42
   0  -2   7    1.53    0.99
   0  -2  -7    1.49    0.90
   0   2   7    1.41    0.76
   0   2   7    0.89    0.89
   0  -2   7    1.94    0.88
   0  -2   7    1.54    1.11
  -2   2   7  121.22    9.80
  -2   2   7  113.52    8.91
  -2  -2  -7  112.69    9.12
   2  -2   7  116.03    9.28
   2   2   7  124.85   10.31
   2   2   7  108.13    9.43
   2  -2  -7  116.28    8.99
   2   2   7  111.02    9.51
  -2  -2   7  113.80    9.61
  -2  -2   7  105.92    8.86
  -4   2   7  108.88   10.10
  -4   2   7  118.42    9.34
   4  -2   7  124.01    9.77
  -4  -2   7  118.14    9.27
   4  -2  -7  130.22    9.43
   4   2   7  119.26    9.68
  -4  -2   7  130.08   10.47
  -6  -2  -7   19.35    2.63
   6  -2   7   19.75    3.71
  -6   2   7   20.26    3.16
   6  -2   7   19.46    2.59
   6   2   7   19.75    2.55
   6  -2  -7   19.40    3.20
   6   2   7   18.92    3.28
  -6  -2   7   15.61    2.90
  -8  -2  -7   19.43    2.87
   8  -2   7   23.83    2.96
  -8   2   7   24.81    3.75
   8  -2   7   16.58    4.47
   8   2   7   21.82    2.79
   8  -2  -7   24.22    3.67
  -8  -2   7   16.30    3.27
   8   2   7   26.56    5.19
  -1  -3  -7  130.94   10.51
   1  -3   7  130.70   10.51
  -1   3   7  129.93   11.41
   1  -3   7  131.21   10.84
  -1   3   7  123.23   10.34
   1  -3  -7  131.93   10.50
   1   3   7  135.87   10.53
   1   3   7  155.55   11.64
  -1  -3   7  130.90   10.75
  -1  -3   7  136.98   10.43
  -1  -3   7  139.19   11.06
   3  -3   7    9.10    1.73
  -3   3   7    7.15    1.36
  -3   3   7    8.65    1.98
  -3  -3   7    4.69    1.73
   3   3   7    7.37    1.77
   3   3   7    8.15    1.65
  -3  -3   7    6.58    1.25
   3  -3  -7    8.89    1.41
   3   3   7    8.01    1.95
  -5  -3  -7   48.72    5.21
  -5   3   7   64.02    4.97
   5  -3   7   61.06    5.43
  -5   3   7   55.15    5.85
   5   3   7   61.51    5.35
  -5  -3   7   67.09    5.99
  -5  -3   7   60.74    4.78
   5  -3  -7   55.09    4.91
   7  -3   7   78.47    6.89
   7  -3   7   57.14   10.23
  -7  -3  -7   92.21    7.62
   7   3   7   70.20    7.85
   7  -3  -7   76.57    8.69
  -7  -3   7   86.62    7.60
   7   3   7   80.60    6.89
   0  -4  -7    4.25    1.21
   0   4   7    4.15    1.13
   0  -4   7    3.84    1.21
   0   4   7    6.60    1.87
   0  -4   7    6.96    1.60
   0  -4   7    8.30    2.58
   2  -4   7   21.03    2.78
  -2   4   7   19.45    2.24
   2  -4   7   18.76    2.47
  -2   4   7   20.95    2.84
  -2  -4   7   20.49    2.30
   2   4   7   18.18    3.83
  -2  -4   7   24.14    3.02
   2   4   7   20.12    2.78
   2  -4  -7   18.70    2.28
   2   4   7   20.51    2.47
  -2  -4   7   21.94    2.63
  -4   4   7   40.47    3.95
   4  -4   7   42.49    4.36
   4  -4   7   38.88    4.77
  -4   4   7   38.89    4.68
   4  -4  -7   46.77    4.05
   4   4   7   48.96    4.54
   4   4   7   46.34    4.37
  -4  -4   7   55.48    6.58
  -4  -4   7   51.18    3.98
  -4  -4   7   47.65    3.96
  -6  -4  -7   13.61    2.40
   6  -4   7   16.12    3.33
   6  -4   7   17.59    2.53
  -6   4   7   19.57    2.14
  -6   4   7   17.05    3.08
   6  -4  -7   18.35    3.25
   6   4   7   14.38    2.98
   6   4   7   15.73    2.41
   8  -4   7    4.28    3.77
   8  -4   7    4.95    1.42
  -8  -4  -7    6.21    1.78
  -8   4   7    4.87    1.97
   8   4   7    6.92    1.67
   8  -4  -7    4.19    2.26
   1  -5   7    5.34    1.37
  -1   5   7    2.86    1.17
  -1   5   7    2.27    1.35
   1  -5   7    4.15    1.25
   1   5   7    3.20    1.06
   1   5   7    4.17    1.39
   1  -5  -7    4.53    1.21
  -1  -5   7    5.56    1.52
  -1  -5   7    4.86    1.90
  -1  -5   7    6.09    1.41
  -3  -5  -7    8.47    1.89
   3  -5   7   12.78    2.07
  -3   5   7   13.05    1.77
   3  -5   7   15.22    2.47
  -3   5   7   12.75    2.30
   3   5   7   11.51    2.07
   3   5   7   11.46    1.90
  -3  -5   7   11.00    1.66
  -3  -5   7   11.34    1.97
  -3  -5   7    9.75    1.63
   3  -5  -7   14.31    1.86
  -5   5   7    1.85    1.19
   5  -5   7    3.42    1.36
  -5   5   7    3.02    1.00
  -5  -5  -7    4.80    1.48
   5  -5   7    1.11    1.79
  -5  -5   7    1.54    1.24
   5  -5  -7    3.69    1.05
   5  -5  -7    3.42    1.93
   5   5   7    1.97    1.11
  -5  -5   7    3.52    0.90
  -5  -5   7    2.87    1.00
   5   5   7    3.20    1.19
   7  -5   7   20.96    4.85
   7  -5   7   24.68    3.01
   7  -5  -7   17.14    3.77
   7   5   7   24.53    3.00
   7   5   7   24.62    3.26
   7   5   7   20.38    3.97
   0  -6   7    9.53    1.82
   0   6   7   10.81    2.04
   0   6   7    9.62    1.71
   0  -6   7   10.79    2.00
  -2  -6  -7    8.41    1.77
   2  -6   7    9.44    1.92
   2  -6   7   10.80    2.13
  -2   6   7    8.65    1.57
  -2   6   7   11.20    2.10
  -2  -6   7    8.15    1.61
  -2  -6   7    9.17    1.83
   2   6   7    9.26    1.74
   2   6   7    8.55    1.91
  -4   6   7   19.19    3.26
  -4   6   7   25.61    2.83
   4  -6   7   27.22    3.16
   4  -6   7   21.32    3.69
  -4  -6  -7   29.82    3.16
   4  -6  -7   25.71    2.80
  -4  -6   7   28.51    2.70
   4   6   7   26.31    3.04
  -4  -6   7   28.28    3.04
   4   6   7   24.96    3.04
  -4  -6   7   26.28    2.71
   6  -6   7   13.05    3.84
  -6   6   7   19.22    2.26
   6  -6   7   18.11    2.67
  -6  -6  -7   12.73    2.36
  -6   6   7   15.92    3.08
   6   6   7   16.21    2.58
   6   6   7   14.25    3.44
   6   6   7   15.58    2.39
   6  -6  -7   13.42    2.00
   1  -7   7   76.48    6.57
   1  -7   7   68.12    6.64
  -1   7   7   70.11    6.34
  -1   7   7   70.25    6.69
  -1  -7  -7   81.91    6.61
   1  -7   7   74.22    6.59
  -1  -7   7   79.99    6.96
   1   7   7   74.18    6.45
  -1  -7   7   81.84    6.49
  -1  -7   7   76.77    6.58
   1  -7  -7   72.07    6.46
   1   7   7   78.62    6.71
  -1  -7   7   74.35    6.47
   3  -7   7   11.53    2.68
   3  -7   7   12.15    2.22
  -3   7   7   13.69    2.50
   3  -7   7   13.05    2.29
  -3   7   7   13.65    2.00
  -3  -7   7    8.64    1.76
   3   7   7   11.95    2.06
  -3  -7   7   11.30    1.96
  -3  -7   7    8.89    1.79
   3   7   7   12.60    2.18
   5  -7   7   29.43    3.54
   5  -7   7   28.25    3.43
  -5   7   7   29.52    3.92
   5  -7   7   28.42    5.41
  -5  -7  -7   23.00    3.20
  -5   7   7   31.95    3.12
   5   7   7   32.15    3.36
  -5  -7   7   24.77    2.99
   5  -7  -7   34.06    4.62
  -5  -7   7   20.38    3.50
  -5  -7   7   24.76    2.72
   5   7   7   27.33    3.23
  -5  -7   7   27.44    3.10
   0  -8   7   10.64    2.13
   0  -8  -7    9.91    2.16
   0   8   7   13.70    2.30
   0  -8   7   10.23    2.09
   0   8   7   11.65    2.04
   0  -8   7   11.35    2.27
  -2  -8  -7   64.33    5.99
   2  -8   7   73.12    6.18
   2  -8   7   66.92    6.39
   2  -8   7   64.62    6.00
  -2   8   7   65.02    6.21
  -2   8   7   65.92    5.84
   2  -8  -7   67.25    5.94
  -2  -8   7   60.85    5.75
   2   8   7   67.01    5.90
  -2  -8   7   62.36    5.73
  -2  -8   7   62.43    5.76
   2   8   7   70.50    6.04
  -2  -8   7   61.82    6.26
  -4  -8  -7   81.71    6.77
  -4   8   7   72.77    6.45
   4  -8   7   73.93    6.81
  -4   8   7   60.26    6.87
   4  -8   7   70.89    6.74
  -4  -8   7   83.80    7.14
  -4  -8   7   81.67    6.37
  -4  -8   7   78.22    6.45
   4   8   7   82.07    6.64
   4   8   7   72.86    6.58
   4  -8  -7   64.03    8.62
   4  -8  -7   64.38    6.38
   1  -9   7   23.33    3.29
  -1  -9  -7   31.45    3.65
   1  -9   7   20.75    3.48
  -1   9   7   27.31    3.24
  -1   9   7   25.25    3.37
   1  -9   7   23.65    3.56
   1  -9  -7   26.94    3.44
  -1  -9   7   32.79    3.81
   1   9   7   28.68    3.37
  -1  -9   7   33.16    3.44
  -1  -9   7   26.89    3.34
   1   9   7   29.21    3.25
  -1  -9   7   30.14    3.34
   3  -9   7   11.53    2.46
  -3   9   7   13.84    2.77
  -3   9   7   14.40    2.22
   3  -9   7   13.31    2.59
   3  -9   7   12.39    3.28
   3   9   7   12.51    2.26
   3  -9  -7   11.89    2.41
  -3  -9   7   12.63    1.99
   3   9   7   11.41    2.24
   0 -10   7   11.06    2.38
   0  10   7   13.46    2.52
   0 -10   7   11.50    2.54
   0  10   7   14.19    2.36
   0 -10   7   11.34    2.46
   2 -10   7    0.50    1.46
  -2  10   7    1.74    1.20
  -2 -10  -7    0.06    1.95
  -2  10   7    0.72    1.32
   2 -10   7    2.09    1.61
  -2 -10   7    1.41    1.22
  -2 -10   7   -0.16    1.24
   2  10   7    0.99    1.82
  -2 -10   7    0.49    1.20
   2 -10  -7   -0.01    1.16
  -2 -10   7   -1.07    1.03
   2  10   7    0.85    1.11
   0   0   8  243.56   18.79
   0   0   8  237.13   18.16
   2   0   8   21.30    2.39
   2   0   8   14.35    2.53
  -2   0   8   14.78    2.69
  -2   0   8   18.69    2.09
   2   0   8   16.33    2.73
  -4   0   8   19.45    2.15
   4   0   8   21.13    2.66
  -4   0   8   18.87    3.14
   4   0   8   22.53    3.21
   6   0   8  118.86    9.57
  -6   0   8  110.91   10.30
   6   0   8  116.55   11.56
  -1   1   8   12.26    2.38
  -1   1   8   10.89    2.30
  -1  -1  -8   16.37    2.63
   1  -1   8   15.59    2.04
   1  -1   8   10.95    2.22
   1   1   8   10.62    2.28
  -1  -1   8   13.30    2.42
   1   1   8   10.24    2.13
  -1  -1   8   14.33    1.92
  -3   1   8  151.56   12.85
   3  -1   8  152.91   12.71
   3  -1   8  152.58   12.27
  -3   1   8  150.62   11.94
  -3  -1  -8  153.90   12.27
   3   1   8  155.47   12.60
  -3  -1   8  165.34   13.00
   3   1   8  159.21   12.27
  -3  -1   8  153.66   11.91
   3   1   8  162.67   12.79
  -5   1   8    8.81    1.45
   5  -1   8   11.33    2.57
  -5   1   8    8.92    2.41
   5  -1   8   10.12    2.04
  -5  -1  -8   16.01    2.94
   5   1   8   10.49    1.98
   5   1   8   12.84    2.68
   7  -1   8    8.90    3.53
  -7   1   8    8.39    2.64
   7  -1   8   13.46    2.30
   7   1   8    8.83    3.40
   7   1   8   11.76    2.29
  -7  -1   8   11.53    2.75
   0  -2   8   30.08    3.13
   0   2   8   30.36    3.59
   0  -2   8   32.92    3.71
   0   2   8   31.31    3.14
   0  -2   8   27.99    3.46
   2  -2   8   16.08    2.65
  -2   2   8   15.52    2.05
   2  -2   8   20.53    2.44
  -2  -2  -8   18.76    2.42
  -2   2   8   16.03    2.70
   2   2   8   16.54    2.61
  -2  -2   8   17.55    2.11
  -2  -2   8   13.37    2.60
   2  -2  -8   20.32    2.24
   2   2   8   15.38    2.71
   2   2   8   18.19    2.31
  -4   2   8    6.60    1.32
   4  -2   8    9.34    2.25
   4  -2   8   11.06    2.20
  -4  -2   8    7.11    2.12
   4   2   8    7.96    2.12
   4   2   8    6.05    1.75
   4   2   8    8.72    1.78
  -4  -2   8    7.87    1.32
   6  -2   8   23.48    3.06
  -6  -2  -8   26.70    3.23
   6  -2   8   21.13    4.25
   6   2   8   25.42    4.29
  -6  -2   8   30.61    3.99
   6   2   8   22.71    2.96
  -1   3   8   13.00    1.86
   1  -3   8   13.88    2.41
  -1   3   8   12.25    2.41
   1  -3   8   11.13    2.31
   1  -3   8   14.24    2.16
  -1  -3  -8   16.88    2.18
   1   3   8   11.98    2.28
   1   3   8   16.77    2.14
  -1  -3   8   14.21    2.38
  -1  -3   8   11.29    2.40
  -1  -3   8   17.82    2.21
  -3  -3  -8   31.85    3.54
   3  -3   8   35.73    4.05
   3  -3   8   31.55    3.53
  -3   3   8   32.35    3.21
  -3   3   8   33.76    4.02
   3   3   8   34.48    3.54
   3  -3  -8   31.14    3.27
   3   3   8   35.27    3.80
  -3  -3   8   33.05    3.19
  -3  -3   8   32.24    4.06
   3   3   8   33.89    3.96
  -5   3   8   10.69    1.56
  -5   3   8   11.57    2.69
   5  -3   8   12.37    2.88
  -5  -3  -8   12.06    2.32
   5  -3   8   11.52    2.13
   5  -3  -8   12.86    2.15
  -5  -3   8    7.48    2.19
  -5  -3   8    9.64    1.46
   5   3   8    9.45    2.01
   5   3   8    9.61    2.20
   5   3   8   14.51    2.74
   7  -3   8    3.33    1.96
  -7   3   8    5.80    3.35
   7   3   8    1.66    2.76
   7   3   8    2.55    2.00
  -7  -3   8    0.91    1.51
   0  -4   8  101.71    8.69
   0   4   8   99.03    8.07
   0   4   8  102.91    8.61
   0  -4   8  101.97    8.51
   0  -4   8   95.11    8.09
   0  -4  -8   93.88    8.11
  -2  -4  -8   15.62    2.22
  -2   4   8   10.62    2.34
   2  -4   8   11.31    2.07
   2  -4   8   12.66    2.39
  -2   4   8   11.74    1.78
   2   4   8   11.36    2.31
  -2  -4   8   10.93    2.34
   2   4   8   13.24    2.00
  -2  -4   8   11.06    2.20
   2   4   8   10.76    2.21
  -2  -4   8   16.09    3.35
  -4  -4  -8   16.90    3.80
  -4   4   8    9.56    2.33
   4  -4   8   11.37    2.23
  -4   4   8   10.28    1.65
   4  -4   8   11.32    3.93
   4   4   8   11.78    2.12
  -4  -4   8   11.01    1.64
  -4  -4   8    8.08    2.24
   4   4   8   14.30    2.59
  -4  -4   8   11.93    2.32
   4   4   8   11.93    2.28
   6  -4   8   40.23    6.14
  -6   4   8   49.60    4.27
  -6   4   8   47.13    5.54
  -6  -4  -8   42.40    4.62
   6  -4   8   46.07    4.78
   6  -4  -8   49.33    4.71
   6   4   8   46.98    4.84
   6   4   8   45.61    4.68
   6   4   8   46.97    5.44
   1  -5   8   21.09    2.63
  -1   5   8   17.23    2.79
  -1  -5  -8   24.23    2.70
   1  -5   8   21.20    2.97
  -1   5   8   17.69    2.33
  -1  -5   8   16.44    2.92
   1  -5  -8   24.23    2.64
  -1  -5   8   19.10    2.46
   1   5   8   18.64    2.45
   1   5   8   17.34    2.75
  -1  -5   8   17.07    2.69
  -3   5   8  163.66   12.87
   3  -5   8  181.07   14.00
  -3  -5  -8  158.46   13.66
  -3   5   8  161.87   13.59
   3  -5   8  157.34   13.14
   3   5   8  180.16   13.44
  -3  -5   8  164.48   13.27
   3   5   8  166.54   13.11
  -3  -5   8  167.77   13.77
  -3  -5   8  159.80   12.80
   3   5   8  167.83   13.54
  -3  -5   8  165.63   13.12
   5  -5   8    3.74    2.48
  -5   5   8    4.49    1.71
   5  -5   8    8.84    2.07
   5  -5  -8    9.11    1.62
  -5  -5   8    7.54    1.37
   5   5   8    6.55    1.68
   5   5   8    7.66    2.18
   5   5   8    6.47    1.61
  -5  -5   8    6.15    1.43
  -5  -5   8    6.22    1.96
   0  -6   8  112.01    9.41
   0  -6   8  109.98    9.66
   0   6   8  119.60    9.83
   0   6   8  116.27    9.40
   0  -6  -8  111.86    9.45
   0  -6   8  123.56    9.57
   0  -6   8  116.74    9.97
   2  -6   8   16.48    2.72
  -2  -6  -8   16.21    3.89
  -2   6   8   10.63    2.42
  -2   6   8   13.91    2.08
   2  -6   8   13.10    2.37
   2   6   8   14.79    2.55
  -2  -6   8   13.62    2.72
  -2  -6   8   16.71    2.52
   2   6   8   13.95    2.55
  -2  -6   8   15.23    2.10
   2   6   8   14.08    2.26
  -2  -6   8   14.77    2.16
   2  -6  -8   17.77    2.32
   4  -6   8    5.97    2.52
  -4  -6  -8   11.31    2.07
   4  -6   8    9.19    2.02
  -4   6   8    6.19    2.06
  -4   6   8    5.96    1.61
  -4  -6   8    6.92    1.66
   4  -6  -8   10.42    1.73
  -4  -6   8    4.49    1.86
   4   6   8    9.30    1.99
   4   6   8   10.71    2.55
  -4  -6   8    7.21    1.53
   4   6   8    7.75    1.91
  -4  -6   8    8.58    2.03
   1  -7   8   11.39    2.49
  -1   7   8    9.57    2.26
   1  -7   8   14.06    2.65
   1  -7   8   11.31    2.16
  -1   7   8   10.10    1.90
  -1  -7  -8   13.69    2.42
   1   7   8    9.71    2.25
  -1  -7   8   15.46    2.38
  -1  -7   8   12.55    2.10
  -1  -7   8   12.70    2.26
   1  -7  -8   11.13    2.10
  -1  -7   8   12.19    2.53
   1   7   8   12.14    2.07
  -3   7   8   29.72    3.87
   3  -7   8   28.73    3.57
  -3  -7  -8   30.72    3.57
  -3   7   8   29.94    3.31
   3  -7   8   24.05    3.98
   3  -7   8   24.41    3.53
   3   7   8   28.63    3.67
  -3  -7   8   34.06    4.09
  -3  -7   8   34.65    3.55
   3   7   8   33.74    3.54
   3  -7  -8   27.67    3.32
   3   7   8   33.88    3.66
  -3  -7   8   31.28    3.27
  -3  -7   8   29.64    3.19
   0  -8   8    7.91    1.99
   0  -8   8   12.57    2.31
   0  -8  -8    7.44    1.78
   0  -8   8   11.24    2.25
   0  -8   8    8.72    3.15
   0   8   8    8.98    2.20
   0   8   8    9.17    1.95
  -2   8   8   13.41    2.72
   2  -8   8   15.91    2.75
  -2  -8  -8   13.10    2.51
  -2   8   8   16.51    2.33
   2  -8   8   18.34    2.73
   2  -8   8   14.42    3.18
   2   8   8   14.02    2.73
   2   8   8   16.22    2.93
   2   8   8   15.23    2.55
  -2  -8   8   11.80    2.37
  -2  -8   8   12.37    2.24
  -2  -8   8   16.37    2.45
   0   0   9    0.40    0.84
   0   0   9    0.48    1.69
   0   0   9   -0.56    0.81
   2   0   9   10.79    2.31
   2   0   9    7.40    1.84
  -2   0   9    7.12    1.96
   2   0   9    8.94    1.81
  -2   0   9    9.11    1.61
   4   0   9    0.64    1.32
   4   0   9    3.64    1.49
   4   0   9    0.80    1.02
  -4   0   9    1.13    1.27
  -4   0   9    1.31    1.23
  -1  -1  -9   10.35    2.14
  -1   1   9    8.60    1.69
   1  -1   9   10.49    1.90
   1  -1   9    9.51    2.23
   1  -1   9   10.77    2.39
  -1   1   9    8.14    2.12
   1   1   9   10.10    1.84
   1   1   9   10.46    2.23
  -1  -1   9   11.30    2.45
  -1  -1   9    9.57    1.70
  -1  -1   9    9.51    2.26
   1   1   9   11.56    2.74
   3  -1   9    1.94    1.12
  -3   1   9    2.28    0.97
   3  -1   9    4.11    1.59
   3  -1   9    1.17    1.28
  -3   1   9    2.28    1.46
   3   1   9    2.12    1.10
  -3  -1   9    1.48    1.45
  -3  -1   9    3.45    1.04
   3   1   9    2.88    1.42
   3   1   9    2.52    1.10
  -5   1   9   42.38    3.94
   5  -1   9   48.77    4.86
   5   1   9   41.62    4.60
   5   1   9   52.71    5.49
  -5  -1   9   33.07    4.89
   5   1   9   44.86    5.91
   0  -2  -9    1.77    1.07
   0  -2   9    0.05    1.10
   0   2   9    0.82    0.99
   0  -2   9    0.11    0.82
   0   2   9    0.74    1.05
   0  -2   9    1.67    1.33
   2  -2   9   82.48    7.47
   2  -2   9   84.27    7.03
  -2   2   9   77.86    6.68
   2  -2   9   82.85    7.50
  -2   2   9   77.39    7.49
   2   2   9   79.15    6.93
   2  -2  -9   83.68    6.86
   2   2   9   82.17    7.40
  -2  -2   9   77.76    7.29
   2   2   9   78.95    7.44
  -2  -2   9   79.23    7.57
  -2  -2   9   80.58    6.69
   4  -2   9   24.45    3.56
  -4  -2  -9   19.62    2.99
  -4   2   9   21.94    2.45
   4  -2   9   20.82    2.87
  -4   2   9   21.92    3.49
   4   2   9   22.34    2.89
   4   2   9   21.44    3.14
   4   2   9   26.80    3.57
  -4  -2   9   21.64    3.53
   1  -3   9   60.66    6.10
   1  -3   9   58.18    5.71
  -1   3   9   61.76    5.59
  -1  -3  -9   71.51    6.17
  -1   3   9   64.51    6.29
   1  -3   9   61.35    6.23
  -1  -3   9   65.97    6.17
   1   3   9   62.66    6.23
   1   3   9   66.51    5.81
   1   3   9   68.14    6.29
  -1  -3   9   64.85    5.64
   1  -3  -9   63.35    5.72
  -1  -3   9   68.60    6.46
   3  -3   9    2.95    1.39
  -3   3   9    0.99    1.42
  -3  -3  -9    3.25    1.33
  -3   3   9    1.74    1.39
   3  -3   9    2.29    1.50
  -3  -3   9    3.89    1.44
   3   3   9    3.78    1.62
   3   3   9    2.73    1.19
  -3  -3   9    2.30    0.99
   3  -3  -9    3.41    1.23
  -3  -3   9    3.48    1.84
   3   3   9    1.67    1.23
   0  -4   9    1.17    1.13
   0   4   9    1.99    1.02
   0  -4  -9    1.77    1.10
   0  -4   9    1.67    1.03
   0  -4   9    2.42    1.25
   0   4   9    0.94    1.22
  -2   4   9   29.77    3.90
   2  -4   9   34.94    4.03
  -2   4   9   31.69    3.29
   2  -4   9   31.04    4.13
  -2  -4  -9   33.78    3.65
   2  -4   9   30.32    3.51
  -2  -4   9   33.13    3.81
  -2  -4   9   31.91    3.42
  -2  -4   9   31.04    4.07
   2   4   9   31.52    3.85
   2   4   9   30.02    3.90
   2   4   9   33.80    3.54
   2  -4  -9   34.87    3.52
   1  -5   9    9.57    2.23
   1  -5   9    6.50    1.70
  -1  -5  -9    9.69    2.03
  -1   5   9    6.12    1.46
   1  -5   9    5.25    1.77
  -1  -5   9    8.86    2.25
  -1  -5   9    9.69    2.17
  -1  -5   9    7.14    1.69
   1   5   9    7.78    2.10
   1   5   9    7.18    1.96
   1   5   9    8.40    1.80
   1  -5  -9    4.79    2.40
   0  -6   9    1.97    1.46
   0   6   9    3.64    1.37
   0  -6  -9    2.36    1.16
   0  -6   9    0.74    1.14
   0   0   0    0.00    0.00
;
_shelx_hkl_checksum              90096
loop_
_space_group_symop_operation_xyz
'x, y, z'
'-x, -y, z+1/2'
'-x, y, z'
'x, -y, z+1/2'
'x+1/2, y+1/2, z'
'-x+1/2, -y+1/2, z+1/2'
'-x+1/2, y+1/2, z'
'x+1/2, -y+1/2, z+1/2'
loop_
_atom_site_label
_atom_site_type_symbol
_atom_site_fract_x
_atom_site_fract_y
_atom_site_fract_z
_atom_site_U_iso_or_equiv
_atom_site_adp_type
_atom_site_occupancy
_atom_site_site_symmetry_order
_atom_site_calc_flag
_atom_site_refinement_flags_posn
_atom_site_refinement_flags_adp
_atom_site_refinement_flags_occupancy
_atom_site_disorder_assembly
_atom_site_disorder_group
W1 W 0.000000 0.1616(3) 0.4355(2) 0.0256(9) Uani 1 2 d S T P . .
I1A I 0.000000 0.4766(5) 0.1638(7) 0.0142(11) Uani 0.9 2 d S T P . .
I1B I -0.044(5) 0.530(7) 0.201(8) 0.0142(11) Uani 0.05 1 d . . P . .
F1 F 0.165(4) 0.468(5) 0.163(9) 0.076(13) Uani 1 1 d . U . . .
F2 F 0.108(3) 0.236(4) 0.605(5) 0.045(9) Uani 1 1 d . U . . .
O3 O 0.118(4) 0.159(4) 0.286(6) 0.043(11) Uani 1 1 d . U . . .
O1 O 0.000000 0.355(9) 0.006(10) 0.07(2) Uani 1 2 d S TU P . .
O2 O 0.000000 0.376(5) 0.364(7) 0.021(11) Uani 1 2 d S TU P . .
F3 F 0.000000 0.006(8) 0.506(10) 0.078(19) Uani 1 2 d S TU P . .
Rb1 Rb 0.3061(4) 0.3368(7) 0.4323(11) 0.0417(15) Uani 1 1 d . . . . .
loop_
_atom_site_aniso_label
_atom_site_aniso_U_11
_atom_site_aniso_U_22
_atom_site_aniso_U_33
_atom_site_aniso_U_23
_atom_site_aniso_U_13
_atom_site_aniso_U_12
W1 0.0395(17) 0.0209(14) 0.0165(15) 0.0077(14) 0.000 0.000
I1A 0.0052(19) 0.028(3) 0.010(2) -0.004(3) 0.000 0.000
I1B 0.0052(19) 0.028(3) 0.010(2) -0.004(3) 0.000 0.000
F1 0.076(13) 0.076(13) 0.076(13) 0.0001(15) 0.0000(15) -0.0003(15)
F2 0.045(9) 0.046(9) 0.045(9) 0.0000(15) 0.0000(15) 0.0000(15)
O3 0.043(11) 0.043(11) 0.043(11) -0.0001(15) 0.0001(15) 0.0000(15)
O1 0.07(2) 0.07(2) 0.07(2) 0.0000(15) 0.000 0.000
O2 0.021(11) 0.021(11) 0.021(11) 0.0000(15) 0.000 0.000
F3 0.078(19) 0.078(19) 0.078(19) 0.0000(15) 0.000 0.000
Rb1 0.025(2) 0.074(4) 0.026(3) 0.000(3) -0.003(3) -0.014(3)
loop_
_atom_type_symbol
_atom_type_description
_atom_type_scat_dispersion_real
_atom_type_scat_dispersion_imag
_atom_type_scat_source
F F 0.0171 0.0103 'International Tables Vol C Tables 4.2.6.8 and 6.1.1.4'
I I -0.4742 1.8119 'International Tables Vol C Tables 4.2.6.8 and 6.1.1.4'
O O 0.0106 0.0060 'International Tables Vol C Tables 4.2.6.8 and 6.1.1.4'
Rb Rb -0.9393 2.9676 'International Tables Vol C Tables 4.2.6.8 and 6.1.1.4'
W W -0.8490 6.8722 'International Tables Vol C Tables 4.2.6.8 and 6.1.1.4'
loop_
_geom_angle_atom_site_label_1
_geom_angle_atom_site_label_2
_geom_angle_atom_site_label_3
_geom_angle
_geom_angle_site_symmetry_1
_geom_angle_site_symmetry_3
_geom_angle_publ_flag
F3 W1 O3 101(2) . 3 ?
F3 W1 O3 101(2) . . ?
O3 W1 O3 101(3) 3 . ?
F3 W1 F2 99(2) . . ?
O3 W1 F2 157.6(18) 3 . ?
O3 W1 F2 86.1(17) . . ?
F3 W1 F2 99(2) . 3 ?
O3 W1 F2 86.1(17) 3 3 ?
O3 W1 F2 157.6(18) . 3 ?
F2 W1 F2 80(2) . 3 ?
F3 W1 O2 175(3) . . ?
O3 W1 O2 81.9(16) 3 . ?
O3 W1 O2 81.9(16) . . ?
F2 W1 O2 77.9(15) . . ?
F2 W1 O2 77.9(15) 3 . ?
F3 W1 Rb1 115.0(4) . . ?
O3 W1 Rb1 133.8(15) 3 . ?
O3 W1 Rb1 46.6(14) . . ?
F2 W1 Rb1 42.0(12) . . ?
F2 W1 Rb1 114.2(12) 3 . ?
O2 W1 Rb1 64.32(18) . . ?
F3 W1 Rb1 115.0(4) . 3 ?
O3 W1 Rb1 46.6(14) 3 3 ?
O3 W1 Rb1 133.8(15) . 3 ?
F2 W1 Rb1 114.2(12) . 3 ?
F2 W1 Rb1 42.0(12) 3 3 ?
O2 W1 Rb1 64.32(18) . 3 ?
Rb1 W1 Rb1 127.1(2) . 3 ?
F3 W1 Rb1 38.9(12) . 5_445 ?
O3 W1 Rb1 63.1(14) 3 5_445 ?
O3 W1 Rb1 114.8(14) . 5_445 ?
F2 W1 Rb1 133.2(11) . 5_445 ?
F2 W1 Rb1 87.4(11) 3 5_445 ?
O2 W1 Rb1 142.9(5) . 5_445 ?
Rb1 W1 Rb1 150.92(19) . 5_445 ?
Rb1 W1 Rb1 81.95(4) 3 5_445 ?
F3 W1 Rb1 38.9(12) . 7_545 ?
O3 W1 Rb1 114.8(14) 3 7_545 ?
O3 W1 Rb1 63.1(14) . 7_545 ?
F2 W1 Rb1 87.4(11) . 7_545 ?
F2 W1 Rb1 133.2(11) 3 7_545 ?
O2 W1 Rb1 142.9(5) . 7_545 ?
Rb1 W1 Rb1 81.95(4) . 7_545 ?
Rb1 W1 Rb1 150.92(19) 3 7_545 ?
Rb1 W1 Rb1 68.97(18) 5_445 7_545 ?
I1B I1A I1B 81(8) 3 . ?
I1B I1A O1 137(4) 3 . ?
I1B I1A O1 137(4) . . ?
I1B I1A O2 94(5) 3 . ?
I1B I1A O2 94(5) . . ?
O1 I1A O2 101(3) . . ?
I1B I1A F1 52(4) 3 . ?
I1B I1A F1 133(4) . . ?
O1 I1A F1 88.0(17) . . ?
O2 I1A F1 89(2) . . ?
I1B I1A F1 133(4) 3 3 ?
I1B I1A F1 52(4) . 3 ?
O1 I1A F1 88.0(17) . 3 ?
O2 I1A F1 89(2) . 3 ?
F1 I1A F1 175(3) . 3 ?
I1B I1A Rb1 172(4) 3 8_454 ?
I1B I1A Rb1 108(4) . 8_454 ?
O1 I1A Rb1 35.0(11) . 8_454 ?
O2 I1A Rb1 86.0(14) . 8_454 ?
F1 I1A Rb1 119.5(16) . 8_454 ?
F1 I1A Rb1 55.7(15) 3 8_454 ?
I1B I1A Rb1 108(4) 3 6_554 ?
I1B I1A Rb1 172(4) . 6_554 ?
O1 I1A Rb1 35.0(11) . 6_554 ?
O2 I1A Rb1 86.0(14) . 6_554 ?
F1 I1A Rb1 55.7(15) . 6_554 ?
F1 I1A Rb1 119.5(16) 3 6_554 ?
Rb1 I1A Rb1 63.79(16) 8_454 6_554 ?
I1A I1B I1B 50(4) . 3 ?
I1A I1B F1 104(6) . 3 ?
I1B I1B F1 154(3) 3 3 ?
I1A I1B O2 63(4) . . ?
I1B I1B O2 75.5(17) 3 . ?
F1 I1B O2 92(4) 3 . ?
I1A I1B O1 30(3) . . ?
I1B I1B O1 77.4(15) 3 . ?
F1 I1B O1 77(3) 3 . ?
O2 I1B O1 76(3) . . ?
I1A I1B Rb1 123(5) . 2_564 ?
I1B I1B Rb1 141.2(9) 3 2_564 ?
F1 I1B Rb1 49(3) 3 2_564 ?
O2 I1B Rb1 141(2) . 2_564 ?
O1 I1B Rb1 96(2) . 2_564 ?
I1A I1B Rb1 166(5) . 5_455 ?
I1B I1B Rb1 116.0(8) 3 5_455 ?
F1 I1B Rb1 90(3) 3 5_455 ?
O2 I1B Rb1 116(3) . 5_455 ?
O1 I1B Rb1 163(3) . 5_455 ?
Rb1 I1B Rb1 67.6(11) 2_564 5_455 ?
I1A I1B Rb1 109(5) . 3 ?
I1B I1B Rb1 139.3(9) 3 3 ?
F1 I1B Rb1 37(3) 3 3 ?
O2 I1B Rb1 63.9(16) . 3 ?
O1 I1B Rb1 94(2) . 3 ?
Rb1 I1B Rb1 78.8(11) 2_564 3 ?
Rb1 I1B Rb1 81.6(13) 5_455 3 ?
I1B F1 I1A 24(3) 3 . ?
I1B F1 Rb1 124(4) 3 . ?
I1A F1 Rb1 125(3) . . ?
I1B F1 Rb1 109(4) 3 4_564 ?
I1A F1 Rb1 120(3) . 4_564 ?
Rb1 F1 Rb1 112.5(14) . 4_564 ?
I1B F1 Rb1 122(4) 3 6_554 ?
I1A F1 Rb1 97.9(18) . 6_554 ?
Rb1 F1 Rb1 84.3(12) . 6_554 ?
Rb1 F1 Rb1 102.7(17) 4_564 6_554 ?
W1 F2 Rb1 136.3(18) . 6 ?
W1 F2 Rb1 110.7(17) . . ?
Rb1 F2 Rb1 102.6(13) 6 . ?
W1 O3 Rb1 148(2) . 6_554 ?
W1 O3 Rb1 108.1(19) . . ?
Rb1 O3 Rb1 96.6(14) 6_554 . ?
W1 O3 Rb1 90.3(17) . 7_545 ?
Rb1 O3 Rb1 103.6(13) 6_554 7_545 ?
Rb1 O3 Rb1 104.4(13) . 7_545 ?
I1A O1 I1B 13.3(16) . . ?
I1A O1 I1B 13.3(16) . 3 ?
I1B O1 I1B 25(3) . 3 ?
I1A O1 Rb1 126.1(19) . 8_454 ?
I1B O1 Rb1 115.7(18) . 8_454 ?
I1B O1 Rb1 139(3) 3 8_454 ?
I1A O1 Rb1 126.1(19) . 6_554 ?
I1B O1 Rb1 139(3) . 6_554 ?
I1B O1 Rb1 115.7(18) 3 6_554 ?
Rb1 O1 Rb1 96(3) 8_454 6_554 ?
I1A O2 I1B 22.7(19) . . ?
I1A O2 I1B 22.7(19) . 3 ?
I1B O2 I1B 29(3) . 3 ?
I1A O2 W1 138(3) . . ?
I1B O2 W1 152(3) . . ?
I1B O2 W1 152(3) 3 . ?
W1 F3 Rb1 120(2) . 5_445 ?
W1 F3 Rb1 120(2) . 7_545 ?
Rb1 F3 Rb1 103(3) 5_445 7_545 ?
F2 Rb1 O3 138.0(12) 6_554 6 ?
F2 Rb1 F2 127.6(9) 6_554 . ?
O3 Rb1 F2 79.5(12) 6 . ?
F2 Rb1 F3 92.9(16) 6_554 5 ?
O3 Rb1 F3 64.1(18) 6 5 ?
F2 Rb1 F3 139.1(17) . 5 ?
F2 Rb1 F1 72.3(14) 6_554 . ?
O3 Rb1 F1 145.9(14) 6 . ?
F2 Rb1 F1 91.7(14) . . ?
F3 Rb1 F1 107.8(18) 5 . ?
F2 Rb1 O1 74.4(17) 6_554 6 ?
O3 Rb1 O1 66.5(18) 6 6 ?
F2 Rb1 O1 106.6(15) . 6 ?
F3 Rb1 O1 76.3(19) 5 6 ?
F1 Rb1 O1 146.6(19) . 6 ?
F2 Rb1 O3 77.0(12) 6_554 . ?
O3 Rb1 O3 125.5(12) 6 . ?
F2 Rb1 O3 51.3(11) . . ?
F3 Rb1 O3 169.5(18) 5 . ?
F1 Rb1 O3 67.0(13) . . ?
O1 Rb1 O3 102.9(17) 6 . ?
F2 Rb1 F1 149.5(14) 6_554 4_565 ?
O3 Rb1 F1 67.6(15) 6 4_565 ?
F2 Rb1 F1 62.6(11) . 4_565 ?
F3 Rb1 F1 85.8(16) 5 4_565 ?
F1 Rb1 F1 79.1(8) . 4_565 ?
O1 Rb1 F1 134.0(19) 6 4_565 ?
O3 Rb1 F1 101.7(13) . 4_565 ?
F2 Rb1 O3 82.6(11) 6_554 7 ?
O3 Rb1 O3 101.9(11) 6 7 ?
F2 Rb1 O3 132.5(11) . 7 ?
F3 Rb1 O3 47.4(16) 5 7 ?
F1 Rb1 O3 60.5(12) . 7 ?
O1 Rb1 O3 117.5(16) 6 7 ?
O3 Rb1 O3 127.2(14) . 7 ?
F1 Rb1 O3 74.1(12) 4_565 7 ?
F2 Rb1 F1 100.4(14) 6_554 6 ?
O3 Rb1 F1 60.9(14) 6 6 ?
F2 Rb1 F1 62.5(11) . 6 ?
F3 Rb1 F1 110.0(17) 5 6 ?
F1 Rb1 F1 141.8(8) . 6 ?
O1 Rb1 F1 44.2(15) 6 6 ?
O3 Rb1 F1 74.8(12) . 6 ?
F1 Rb1 F1 108.7(18) 4_565 6 ?
O3 Rb1 F1 157.4(11) 7 6 ?
F2 Rb1 I1B 147.1(13) 6_554 2_565 ?
O3 Rb1 I1B 74.9(13) 6 2_565 ?
F2 Rb1 I1B 41.5(12) . 2_565 ?
F3 Rb1 I1B 107.6(16) 5 2_565 ?
F1 Rb1 I1B 76.8(15) . 2_565 ?
O1 Rb1 I1B 134.8(18) 6 2_565 ?
O3 Rb1 I1B 80.6(13) . 2_565 ?
F1 Rb1 I1B 22.2(13) 4_565 2_565 ?
O3 Rb1 I1B 92.3(12) 7 2_565 ?
F1 Rb1 I1B 96.6(13) 6 2_565 ?
F2 Rb1 I1B 40.6(12) 6_554 5_545 ?
O3 Rb1 I1B 107.2(13) 6 5_545 ?
F2 Rb1 I1B 106.2(12) . 5_545 ?
F3 Rb1 I1B 102.0(15) 5 5_545 ?
F1 Rb1 I1B 106.8(14) . 5_545 ?
O1 Rb1 I1B 41.8(17) 6 5_545 ?
O3 Rb1 I1B 72.0(12) . 5_545 ?
F1 Rb1 I1B 167.9(13) 4_565 5_545 ?
O3 Rb1 I1B 118.0(12) 7 5_545 ?
F1 Rb1 I1B 60.0(14) 6 5_545 ?
I1B Rb1 I1B 147.5(6) 2_565 5_545 ?
loop_
_geom_bond_atom_site_label_1
_geom_bond_atom_site_label_2
_geom_bond_distance
_geom_bond_site_symmetry_2
_geom_bond_publ_flag
W1 F3 1.67(8) . ?
W1 O3 1.80(5) 3 ?
W1 O3 1.80(5) . ?
W1 F2 1.97(4) . ?
W1 F2 1.97(4) 3 ?
W1 O2 2.25(5) . ?
W1 Rb1 4.009(5) . ?
W1 Rb1 4.009(5) 3 ?
W1 Rb1 4.015(6) 5_445 ?
W1 Rb1 4.015(6) 7_545 ?
I1A I1B 0.80(7) 3 ?
I1A I1B 0.80(7) . ?
I1A O1 1.73(9) . ?
I1A O2 1.84(5) . ?
I1A F1 1.93(4) . ?
I1A F1 1.93(4) 3 ?
I1A Rb1 4.303(9) 8_454 ?
I1A Rb1 4.303(9) 6_554 ?
I1B I1B 1.04(12) 3 ?
I1B F1 1.57(7) 3 ?
I1B O2 2.07(8) . ?
I1B O1 2.38(11) . ?
I1B Rb1 3.94(6) 2_564 ?
I1B Rb1 4.00(7) 5_455 ?
I1B Rb1 4.05(6) 3 ?
F1 Rb1 2.96(6) . ?
F1 Rb1 3.14(6) 4_564 ?
F1 Rb1 3.59(5) 6_554 ?
F2 Rb1 2.80(4) 6 ?
F2 Rb1 2.87(4) . ?
O3 Rb1 2.85(5) 6_554 ?
O3 Rb1 3.07(5) . ?
O3 Rb1 3.58(5) 7_545 ?
O1 Rb1 3.05(6) 8_454 ?
O1 Rb1 3.05(6) 6_554 ?
F3 Rb1 2.91(5) 5_445 ?
F3 Rb1 2.91(5) 7_545 ?
loop_
_geom_torsion_atom_site_label_1
_geom_torsion_atom_site_label_2
_geom_torsion_atom_site_label_3
_geom_torsion_atom_site_label_4
_geom_torsion
_geom_torsion_site_symmetry_1
_geom_torsion_site_symmetry_2
_geom_torsion_site_symmetry_3
_geom_torsion_site_symmetry_4
_geom_torsion_publ_flag
O1 I1A I1B I1B -156(9) . . . 3 ?
O2 I1A I1B I1B 94(4) . . . 3 ?
F1 I1A I1B I1B 2(3) . . . 3 ?
F1 I1A I1B I1B 178(3) 3 . . 3 ?
Rb1 I1A I1B I1B -179(5) 8_454 . . 3 ?
I1B I1A I1B F1 -178(3) 3 . . 3 ?
O1 I1A I1B F1 26(9) . . . 3 ?
O2 I1A I1B F1 -85(5) . . . 3 ?
F1 I1A I1B F1 -177(6) . . . 3 ?
Rb1 I1A I1B F1 2(6) 8_454 . . 3 ?
I1B I1A I1B O2 -94(4) 3 . . . ?
O1 I1A I1B O2 111(6) . . . . ?
F1 I1A I1B O2 -92(5) . . . . ?
F1 I1A I1B O2 85(5) 3 . . . ?
Rb1 I1A I1B O2 87.2(18) 8_454 . . . ?
I1B I1A I1B O1 156(9) 3 . . . ?
O2 I1A I1B O1 -111(6) . . . . ?
F1 I1A I1B O1 157(10) . . . . ?
F1 I1A I1B O1 -26(9) 3 . . . ?
Rb1 I1A I1B O1 -23(5) 8_454 . . . ?
I1B I1A I1B Rb1 132(3) 3 . . 2_564 ?
O1 I1A I1B Rb1 -24(10) . . . 2_564 ?
O2 I1A I1B Rb1 -135(4) . . . 2_564 ?
F1 I1A I1B Rb1 133(4) . . . 2_564 ?
F1 I1A I1B Rb1 -50(4) 3 . . 2_564 ?
Rb1 I1A I1B Rb1 -47(5) 8_454 . . 2_564 ?
I1B I1A I1B Rb1 -5(25) 3 . . 5_455 ?
O1 I1A I1B Rb1 -161(17) . . . 5_455 ?
O2 I1A I1B Rb1 88(21) . . . 5_455 ?
F1 I1A I1B Rb1 -4(25) . . . 5_455 ?
F1 I1A I1B Rb1 173(25) 3 . . 5_455 ?
Rb1 I1A I1B Rb1 176(20) 8_454 . . 5_455 ?
I1B I1A I1B Rb1 -140(2) 3 . . 3 ?
O1 I1A I1B Rb1 65(7) . . . 3 ?
O2 I1A I1B Rb1 -46(3) . . . 3 ?
F1 I1A I1B Rb1 -138(4) . . . 3 ?
F1 I1A I1B Rb1 39(3) 3 . . 3 ?
Rb1 I1A I1B Rb1 41(3) 8_454 . . 3 ?
F3 W1 O3 Rb1 108(4) . . . 6_554 ?
O3 W1 O3 Rb1 4(6) 3 . . 6_554 ?
F2 W1 O3 Rb1 -154(4) . . . 6_554 ?
F2 W1 O3 Rb1 -102(6) 3 . . 6_554 ?
O2 W1 O3 Rb1 -76(4) . . . 6_554 ?
Rb1 W1 O3 Rb1 -138(5) . . . 6_554 ?
Rb1 W1 O3 Rb1 -34(5) 3 . . 6_554 ?
Rb1 W1 O3 Rb1 69(4) 5_445 . . 6_554 ?
Rb1 W1 O3 Rb1 117(4) 7_545 . . 6_554 ?
F3 W1 O3 Rb1 -114(2) . . . . ?
O3 W1 O3 Rb1 142.2(11) 3 . . . ?
F2 W1 O3 Rb1 -16.2(17) . . . . ?
F2 W1 O3 Rb1 36(6) 3 . . . ?
O2 W1 O3 Rb1 62.1(16) . . . . ?
Rb1 W1 O3 Rb1 104.1(18) 3 . . . ?
Rb1 W1 O3 Rb1 -152.6(9) 5_445 . . . ?
Rb1 W1 O3 Rb1 -105.3(18) 7_545 . . . ?
F3 W1 O3 Rb1 -9(2) . . . 7_545 ?
O3 W1 O3 Rb1 -112.5(16) 3 . . 7_545 ?
F2 W1 O3 Rb1 89.1(13) . . . 7_545 ?
F2 W1 O3 Rb1 141(5) 3 . . 7_545 ?
O2 W1 O3 Rb1 167.4(14) . . . 7_545 ?
Rb1 W1 O3 Rb1 105.3(18) . . . 7_545 ?
Rb1 W1 O3 Rb1 -150.6(9) 3 . . 7_545 ?
Rb1 W1 O3 Rb1 -47.3(13) 5_445 . . 7_545 ?
I1B I1A O1 I1B -143(14) 3 . . . ?
O2 I1A O1 I1B 108(7) . . . . ?
F1 I1A O1 I1B -164(7) . . . . ?
F1 I1A O1 I1B 20(8) 3 . . . ?
Rb1 I1A O1 I1B 41(9) 8_454 . . . ?
Rb1 I1A O1 I1B 175(7) 6_554 . . . ?
I1B I1A O1 I1B 143(14) . . . 3 ?
O2 I1A O1 I1B -108(7) . . . 3 ?
F1 I1A O1 I1B -20(8) . . . 3 ?
F1 I1A O1 I1B 164(7) 3 . . 3 ?
Rb1 I1A O1 I1B -175(7) 8_454 . . 3 ?
Rb1 I1A O1 I1B -41(9) 6_554 . . 3 ?
I1B I1A O1 Rb1 175(7) 3 . . 8_454 ?
I1B I1A O1 Rb1 -41(9) . . . 8_454 ?
O2 I1A O1 Rb1 67(4) . . . 8_454 ?
F1 I1A O1 Rb1 155(4) . . . 8_454 ?
F1 I1A O1 Rb1 -21(4) 3 . . 8_454 ?
Rb1 I1A O1 Rb1 134(8) 6_554 . . 8_454 ?
I1B I1A O1 Rb1 41(9) 3 . . 6_554 ?
I1B I1A O1 Rb1 -175(7) . . . 6_554 ?
O2 I1A O1 Rb1 -67(4) . . . 6_554 ?
F1 I1A O1 Rb1 21(4) . . . 6_554 ?
F1 I1A O1 Rb1 -155(4) 3 . . 6_554 ?
Rb1 I1A O1 Rb1 -134(8) 8_454 . . 6_554 ?
I1B I1A O2 I1B 81(8) 3 . . . ?
O1 I1A O2 I1B -140(4) . . . . ?
F1 I1A O2 I1B 133(4) . . . . ?
F1 I1A O2 I1B -52(4) 3 . . . ?
Rb1 I1A O2 I1B -108(4) 8_454 . . . ?
Rb1 I1A O2 I1B -172(4) 6_554 . . . ?
I1B I1A O2 I1B -81(8) . . . 3 ?
O1 I1A O2 I1B 140(4) . . . 3 ?
F1 I1A O2 I1B 52(4) . . . 3 ?
F1 I1A O2 I1B -133(4) 3 . . 3 ?
Rb1 I1A O2 I1B 172(4) 8_454 . . 3 ?
Rb1 I1A O2 I1B 108(4) 6_554 . . 3 ?
I1B I1A O2 W1 -140(4) 3 . . . ?
I1B I1A O2 W1 140(4) . . . . ?
O1 I1A O2 W1 0.000(8) . . . . ?
F1 I1A O2 W1 -87.7(16) . . . . ?
F1 I1A O2 W1 87.7(16) 3 . . . ?
Rb1 I1A O2 W1 31.98(11) 8_454 . . . ?
Rb1 I1A O2 W1 -31.98(11) 6_554 . . . ?
O3 W1 F3 Rb1 -13(4) 3 . . 5_445 ?
O3 W1 F3 Rb1 -116(3) . . . 5_445 ?
F2 W1 F3 Rb1 156(3) . . . 5_445 ?
F2 W1 F3 Rb1 75(3) 3 . . 5_445 ?
Rb1 W1 F3 Rb1 -163.1(18) . . . 5_445 ?
Rb1 W1 F3 Rb1 34(4) 3 . . 5_445 ?
Rb1 W1 F3 Rb1 -129(6) 7_545 . . 5_445 ?
O3 W1 F3 Rb1 116(3) 3 . . 7_545 ?
O3 W1 F3 Rb1 13(4) . . . 7_545 ?
F2 W1 F3 Rb1 -75(3) . . . 7_545 ?
F2 W1 F3 Rb1 -156(3) 3 . . 7_545 ?
Rb1 W1 F3 Rb1 -34(4) . . . 7_545 ?
Rb1 W1 F3 Rb1 163.1(18) 3 . . 7_545 ?
Rb1 W1 F3 Rb1 129(6) 5_445 . . 7_545 ?
