#------------------------------------------------------------------------------
#$Date: 2023-03-04 20:23:28 +0200 (Sat, 04 Mar 2023) $
#$Revision: 281467 $
#$URL: file:///home/coder/svn-repositories/cod/cif/1/56/72/1567253.cif $
#------------------------------------------------------------------------------
#
# This file is available in the Crystallography Open Database (COD),
# http://www.crystallography.net/
#
# All data on this site have been placed in the public domain by the
# contributors.
#
data_1567253
loop_
_publ_author_name
'Zuffa, Caterina'
'Cappuccino, Chiara'
'Marchini, Marianna'
'Contini, Laura'
'Farinella, Francesco'
'Maini, Lucia'
_publ_section_title
;
 AgX-based hybrid coordination polymers: mechanochemical synthesis,
 structure and luminescence property characterization.
;
_journal_issue                   0
_journal_name_full               'Faraday discussions'
_journal_page_first              448
_journal_page_last               465
_journal_paper_doi               10.1039/d2fd00093h
_journal_volume                  241
_journal_year                    2023
_chemical_formula_moiety         'C6 H8 Ag I N2'
_chemical_formula_sum            'C6 H8 Ag I N2'
_chemical_formula_weight         342.91
_space_group_IT_number           2
_space_group_name_Hall           '-P 1'
_space_group_name_H-M_alt        'P -1'
_symmetry_cell_setting           triclinic
_symmetry_space_group_name_H-M   'P -1'
_cell_angle_alpha                112.54
_cell_angle_beta                 83.86
_cell_angle_gamma                85.59
_cell_formula_units_Z            2
_cell_length_a                   4.579
_cell_length_b                   10.323
_cell_length_c                   10.263
_cell_measurement_temperature    293
_cell_volume                     441.808
_computing_cell_refinement
;
 TOPAS-Academic v. 5.0
;
_computing_structure_refinement
;
 TOPAS-Academic v. 5.0
;
_computing_structure_solution
;
 TOPAS-Academic v. 5.0
;
_diffrn_ambient_temperature      293
_diffrn_measurement_device_type  Xpert-PRO
_diffrn_radiation_probe          x-ray
_diffrn_radiation_type           'Cu K\a'
_diffrn_radiation_wavelength     1.535
_exptl_crystal_density_diffrn    2.577
_pd_char_colour                  whitish
_pd_meas_number_of_points        3117
_pd_proc_2theta_range_inc        0.017
_pd_proc_2theta_range_max        59.96486
_pd_proc_2theta_range_min        6.99286
_pd_proc_ls_background_function  Chebyschev
_pd_proc_ls_prof_R_factor        0.0280
_pd_proc_ls_prof_wR_expected     0.0182
_pd_proc_ls_prof_wR_factor       0.0370
_pd_spec_mount_mode              transmission
_refine_ls_goodness_of_fit_all   2.03570
_refine_ls_hydrogen_treatment    constr
_refine_ls_number_parameters     0.000000
_refine_ls_R_I_factor            0.0063
_refine_ls_shift/su_max          0.0942
_reflns_d_resolution_high        9.45592
_reflns_d_resolution_low         1.53132
_reflns_limit_h_max              2
_reflns_limit_h_min              0
_reflns_limit_k_max              6
_reflns_limit_k_min              -6
_reflns_limit_l_max              6
_reflns_limit_l_min              -6
_reflns_number_total             258
_cod_data_source_file            d2fd00093h8.cif
_cod_data_source_block           AgI2pica_powder
_cod_depositor_comments
;
The following automatic conversions were performed:

data item '_diffrn_radiation_probe' value 'X-ray' was changed to
'x-ray' in accordance with the
/home/data/users/saulius/crontab/automatic-downloads/rss-feeds/RSC/lib/dictionaries/cif_core.dic
dictionary named 'cif_core.dic' version 2.4.2 last updated on
2011-04-26.

Automatic conversion script
Id: cif_fix_values 7556 2019-12-06 15:28:31Z antanas 

 Adding full bibliography for 1567249--1567254.cif.
;
_cod_original_cell_volume        442
_cod_original_sg_symbol_H-M      P-1
_cod_database_code               1567253
loop_
_symmetry_equiv_pos_as_xyz
'x, y, z '
'-x, -y, -z '
loop_
_atom_site_label
_atom_site_type_symbol
_atom_site_symmetry_multiplicity
_atom_site_fract_x
_atom_site_fract_y
_atom_site_fract_z
_atom_site_occupancy
_atom_site_B_iso_or_equiv
Ag1 Ag 2 0.7430(15) 0.0935(5) 0.4753(6) 1 5.021655
I1 I 2 0.3226(15) -0.0004(5) 0.2921(5) 1 4.066277
N2 N 2 0.805(10) 0.338(4) 0.576(2) 1 3.939946
C2 C 2 1.011(4) 0.5107(18) 0.7802(17) 1 3.545162
N1 N 2 1.217(5) 0.550(3) 0.702(2) 1 3.868885
C6 C 2 1.284(10) 0.681(4) 0.767(3) 1 4.318939
H6 H 2 1.429(13) 0.710(5) 0.717(3) 1 5.211151
C4 C 2 0.953(11) 0.734(2) 0.974(3) 1 4.974281
H4 H 2 0.866(13) 0.794(3) 1.066(3) 1 6.000719
C1 C 2 0.939(8) 0.362(2) 0.704(2) 1 4.547914
H1A H 2 1.120(11) 0.2975(19) 0.679(3) 1 5.448022
H1B H 2 0.805(10) 0.340(3) 0.771(3) 1 5.448022
C3 C 2 0.877(6) 0.598(2) 0.9137(19) 1 4.295252
H3 H 2 0.735(5) 0.568(4) 0.964(2) 1 5.132194
C5 C 2 1.157(14) 0.777(3) 0.899(3) 1 4.824263
H5 H 2 1.209(18) 0.868(4) 0.936(4) 1 5.763849
H7 H 2 0.590523 0.398688 0.596751 1 5.448022
H8 H 2 0.923648 0.365518 0.501272 1 5.448022
loop_
_geom_angle_atom_site_label_1
_geom_angle_atom_site_label_2
_geom_angle_atom_site_label_3
_geom_angle
_geom_angle_site_symmetry_1
_geom_angle_site_symmetry_2
_geom_angle_site_symmetry_3
I1 Ag1 N2 120.6(11) 1_555 1_555 1_555
loop_
_geom_bond_atom_site_label_1
_geom_bond_atom_site_label_2
_geom_bond_distance
_geom_bond_site_symmetry_1
_geom_bond_site_symmetry_2
Ag1 N2 2.38(3) 1_555 1_555
loop_
_pd_proc_point_id
_pd_meas_2theta_scan
_pd_proc_intensity_total
_pd_calc_intensity_total
_pd_proc_ls_weight
1 6.99286 5269.46452 5299.84033 0.00019
2 7.00986 5262.46838 5372.89063 0.00019
3 7.02686 5255.48611 5358.23975 0.00019
4 7.04386 5248.51774 5416.95996 0.00018
5 7.06086 5241.56330 5372.89063 0.00019
6 7.07786 5234.62282 5256.25000 0.00019
7 7.09486 5227.69631 5212.83936 0.00019
8 7.11186 5220.78383 5329.00000 0.00019
9 7.12886 5213.88541 5358.23975 0.00019
10 7.14586 5207.00108 5343.60986 0.00019
11 7.16286 5200.13088 5285.28955 0.00019
12 7.17986 5193.27486 5387.56006 0.00019
13 7.19686 5186.43308 5372.89063 0.00019
14 7.21386 5179.60558 5343.60986 0.00019
15 7.23086 5172.79243 5299.84033 0.00019
16 7.24786 5165.99370 5270.75977 0.00019
17 7.26486 5159.20946 5198.40967 0.00019
18 7.28186 5152.43979 5126.55957 0.00020
19 7.29886 5145.68480 5212.83936 0.00019
20 7.31586 5138.94457 5227.29053 0.00019
21 7.33286 5132.21923 5184.00000 0.00019
22 7.34986 5125.50889 5155.24023 0.00019
23 7.36686 5118.81371 5184.00000 0.00019
24 7.38386 5112.13382 5140.88965 0.00019
25 7.40086 5105.46939 5097.96045 0.00020
26 7.41786 5098.82061 5155.24023 0.00019
27 7.43486 5092.18765 5184.00000 0.00019
28 7.45186 5085.57072 5097.96045 0.00020
29 7.46886 5078.97004 5112.25000 0.00020
30 7.48586 5072.38585 5126.55957 0.00020
31 7.50286 5065.81841 5083.69043 0.00020
32 7.51986 5059.26799 5112.25000 0.00020
33 7.53686 5052.73491 5083.69043 0.00020
34 7.55386 5046.21947 5112.25000 0.00020
35 7.57086 5039.72205 5155.24023 0.00019
36 7.58786 5033.24305 5083.69043 0.00020
37 7.60486 5026.78291 5012.64063 0.00020
38 7.62186 5020.34212 4984.35986 0.00020
39 7.63886 5013.92126 5041.00000 0.00020
40 7.65586 5007.52098 4956.16016 0.00020
41 7.67286 5001.14198 4914.00977 0.00020
42 7.68986 4994.78506 4956.16016 0.00020
43 7.70686 4988.45107 4984.35986 0.00020
44 7.72386 4982.14102 4942.09033 0.00020
45 7.74086 4975.85602 4984.35986 0.00020
46 7.75786 4969.59736 5026.81006 0.00020
47 7.77486 4963.36646 4914.00977 0.00020
48 7.79186 4957.16493 4970.25000 0.00020
49 7.80886 4950.99462 4998.48975 0.00020
50 7.82586 4944.85763 4914.00977 0.00020
51 7.84286 4938.75643 4942.09033 0.00020
52 7.85986 4932.69385 4970.25000 0.00020
53 7.87686 4926.67324 4984.35986 0.00020
54 7.89386 4920.69856 4872.04053 0.00021
55 7.91086 4914.77460 4900.00000 0.00020
56 7.92786 4908.90723 4761.00000 0.00021
57 7.94486 4903.10381 4830.25000 0.00021
58 7.96186 4897.37384 4858.08936 0.00021
59 7.97886 4891.72998 4802.49023 0.00021
60 7.99586 4886.19019 4872.04053 0.00021
61 8.01286 4880.78253 4844.15967 0.00021
62 8.02986 4875.56034 4914.00977 0.00020
63 8.04686 4870.62761 4802.49023 0.00021
64 8.06386 4866.05694 4802.49023 0.00021
65 8.08086 4861.51902 4886.01025 0.00020
66 8.09786 4856.48930 4788.63965 0.00021
67 8.11486 4851.40895 4761.00000 0.00021
68 8.13186 4846.57372 4788.63965 0.00021
69 8.14886 4842.08076 4802.49023 0.00021
70 8.16586 4837.62836 4761.00000 0.00021
71 8.18286 4832.65213 4747.21045 0.00021
72 8.19986 4827.49439 4719.68945 0.00021
73 8.21686 4822.38067 4664.89063 0.00021
74 8.23386 4817.34433 4774.80957 0.00021
75 8.25086 4812.39355 4872.04053 0.00021
76 8.26786 4807.53664 4886.01025 0.00020
77 8.28486 4802.78357 4802.49023 0.00021
78 8.30186 4798.14697 4733.44043 0.00021
79 8.31886 4793.64529 4692.25000 0.00021
80 8.33586 4789.31080 4705.95996 0.00021
81 8.35286 4785.19886 4692.25000 0.00021
82 8.36986 4781.38452 4761.00000 0.00021
83 8.38686 4777.95459 4858.08936 0.00021
84 8.40386 4775.01523 4761.00000 0.00021
85 8.42086 4772.70091 4816.36035 0.00021
86 8.43786 4771.18342 4900.00000 0.00020
87 8.45486 4770.67074 4886.01025 0.00020
88 8.47186 4771.40361 4844.15967 0.00021
89 8.48886 4773.67661 4858.08936 0.00021
90 8.50586 4777.86403 4872.04053 0.00021
91 8.52286 4784.33933 4858.08936 0.00021
92 8.53986 4793.12042 4830.25000 0.00021
93 8.55686 4804.07829 4830.25000 0.00021
94 8.57386 4818.04877 4900.00000 0.00020
95 8.59086 4835.77459 4788.63965 0.00021
96 8.60786 4857.83110 4761.00000 0.00021
97 8.62486 4884.43192 4816.36035 0.00021
98 8.64186 4915.64464 4914.00977 0.00020
99 8.65886 4952.38341 4956.16016 0.00020
100 8.67586 4995.29569 5012.64063 0.00020
101 8.69286 5044.90015 4928.03955 0.00020
102 8.70986 5101.87439 5083.69043 0.00020
103 8.72686 5166.96508 5055.20996 0.00020
104 8.74386 5240.59933 5270.75977 0.00019
105 8.76086 5323.05310 5241.76025 0.00019
106 8.77786 5415.60201 5387.56006 0.00019
107 8.79486 5519.56894 5625.00000 0.00018
108 8.81186 5636.05337 5535.36035 0.00018
109 8.82886 5765.63890 5776.00000 0.00017
110 8.84586 5908.77132 5852.25000 0.00017
111 8.86286 6067.56111 6052.84033 0.00017
112 8.87986 6245.00597 6256.80957 0.00016
113 8.89686 6444.09378 6561.00000 0.00015
114 8.91386 6667.63809 6740.40967 0.00015
115 8.93086 6917.91506 7005.68945 0.00014
116 8.94786 7197.82933 7344.48926 0.00014
117 8.96486 7511.45177 7621.29053 0.00013
118 8.98186 7863.56637 7796.89063 0.00013
119 8.99886 8259.72124 8353.95996 0.00012
120 9.01586 8705.90587 9044.00977 0.00011
121 9.03286 9208.71532 9682.56055 0.00010
122 9.04986 9775.97295 10444.83984 0.00010
123 9.06686 10417.29880 10962.08984 0.00009
124 9.08386 11144.45389 11728.89063 0.00009
125 9.10086 11971.76868 12678.75977 0.00008
126 9.11786 12916.89274 13340.25000 0.00007
127 9.13486 14001.88247 14280.25000 0.00007
128 9.15186 15254.84622 15153.60938 0.00007
129 9.16886 16712.35819 16926.01172 0.00006
130 9.18586 18423.28560 19126.89063 0.00005
131 9.20286 20455.05592 21228.48828 0.00005
132 9.21986 22904.36480 23378.40820 0.00004
133 9.23686 25917.19562 26830.44141 0.00004
134 9.25386 29732.77990 31541.76172 0.00003
135 9.27086 34791.78507 36787.24219 0.00003
136 9.28786 41897.27180 42973.29297 0.00002
137 9.30486 51700.47294 51166.43750 0.00002
138 9.32186 61615.91289 60172.08984 0.00002
139 9.33886 63353.88395 60712.95703 0.00002
140 9.35586 54003.59836 50805.15625 0.00002
141 9.37286 46175.41140 43513.96094 0.00002
142 9.38986 46006.06414 45624.96094 0.00002
143 9.40686 48840.10324 50625.00000 0.00002
144 9.42386 43900.64644 44859.24219 0.00002
145 9.44086 29829.16891 29446.56250 0.00003
146 9.45786 16962.27456 16078.24121 0.00006
147 9.47486 9859.75400 9389.61035 0.00011
148 9.49186 7251.08200 7225.00000 0.00014
149 9.50886 6351.04767 6432.03955 0.00016
150 9.52586 5919.95845 5944.40967 0.00017
151 9.54286 5661.03251 5745.64063 0.00017
152 9.55986 5492.01832 5640.00977 0.00018
153 9.57686 5377.90023 5640.00977 0.00018
154 9.59386 5300.38749 5550.25000 0.00018
155 9.61086 5248.91155 5387.56006 0.00019
156 9.62786 5216.83913 5329.00000 0.00019
157 9.64486 5199.91725 5387.56006 0.00019
158 9.66186 5195.56645 5285.28955 0.00019
159 9.67886 5201.98684 5140.88965 0.00019
160 9.69586 5217.75224 5155.24023 0.00019
161 9.71286 5241.39245 5112.25000 0.00020
162 9.72986 5271.27585 5069.43945 0.00020
163 9.74686 5305.86966 5140.88965 0.00019
164 9.76386 5343.43796 5343.60986 0.00019
165 9.78086 5381.56267 5402.25000 0.00019
166 9.79786 5417.16080 5402.25000 0.00019
167 9.81486 5446.79948 5402.25000 0.00019
168 9.83186 5467.44404 5314.41016 0.00019
169 9.84886 5477.68714 5358.23975 0.00019
170 9.86586 5479.12635 5461.21045 0.00018
171 9.88286 5476.49678 5402.25000 0.00019
172 9.89986 5475.52930 5461.21045 0.00018
173 9.91686 5481.85250 5520.49023 0.00018
174 9.93386 5500.80516 5431.68945 0.00018
175 9.95086 5536.00806 5461.21045 0.00018
176 9.96786 5590.01220 5610.01025 0.00018
177 9.98486 5664.32224 5580.08936 0.00018
178 10.00186 5760.43270 5730.48975 0.00017
179 10.01886 5880.16567 5929.00000 0.00017
180 10.03586 6025.53409 6115.23975 0.00016
181 10.05286 6199.46342 6256.80957 0.00016
182 10.06986 6405.85828 6384.01025 0.00016
183 10.08686 6649.70324 6658.55957 0.00015
184 10.10386 6937.38072 6872.41016 0.00015
185 10.12086 7277.17985 7225.00000 0.00014
186 10.13786 7680.05805 7551.61035 0.00013
187 10.15486 8160.83918 8226.48926 0.00012
188 10.17186 8740.30402 8742.25000 0.00011
189 10.18886 9448.87220 9331.55957 0.00011
190 10.20586 10332.28439 10020.00977 0.00010
191 10.22286 11462.52895 10899.36035 0.00009
192 10.23986 12967.38742 12100.00000 0.00008
193 10.25686 15089.67413 14448.03906 0.00007
194 10.27386 18170.79548 18171.04102 0.00006
195 10.29086 22027.28142 23073.60742 0.00004
196 10.30786 24584.98459 25921.00000 0.00004
197 10.32486 22671.84514 22801.00000 0.00004
198 10.34186 16675.80613 16002.25000 0.00006
199 10.35886 10752.79203 10100.25000 0.00010
200 10.37586 7057.15999 7157.15967 0.00014
201 10.39286 5524.30689 6162.25000 0.00016
202 10.40986 4990.16843 5791.20996 0.00017
203 10.42686 4757.24424 5431.68945 0.00018
204 10.44386 4621.51253 5083.69043 0.00020
205 10.46086 4531.15851 4858.08936 0.00021
206 10.47786 4467.08886 4637.60986 0.00022
207 10.49486 4419.77082 4475.61035 0.00022
208 10.51186 4383.80646 4395.69043 0.00023
209 10.52886 4355.90555 4290.25000 0.00023
210 10.54586 4333.94599 4173.15967 0.00024
211 10.56286 4316.48296 4212.01025 0.00024
212 10.57986 4302.46966 4251.03955 0.00024
213 10.59686 4291.20501 4199.04053 0.00024
214 10.61386 4282.57457 4186.08984 0.00024
215 10.63086 4276.68725 4147.36035 0.00024
216 10.64786 4272.76475 4173.15967 0.00024
217 10.66486 4270.45056 4212.01025 0.00024
218 10.68186 4269.78742 4212.01025 0.00024
219 10.69886 4271.15922 4134.49023 0.00024
220 10.71586 4274.41175 4134.49023 0.00024
221 10.73286 4279.21216 4160.25000 0.00024
222 10.74986 4285.42858 4147.36035 0.00024
223 10.76686 4292.94882 4186.08984 0.00024
224 10.78386 4301.62461 4134.49023 0.00024
225 10.80086 4311.22811 4186.08984 0.00024
226 10.81786 4321.40167 4329.64063 0.00023
227 10.83486 4331.59764 4186.08984 0.00024
228 10.85186 4341.00966 4277.16016 0.00023
229 10.86886 4348.51404 4395.69043 0.00023
230 10.88586 4352.66391 4290.25000 0.00023
231 10.90286 4351.81615 4475.61035 0.00022
232 10.91986 4344.50780 4610.41016 0.00022
233 10.93686 4330.01041 4502.40967 0.00022
234 10.95386 4308.59843 4529.29053 0.00022
235 10.97086 4281.52267 4475.61035 0.00022
236 10.98786 4250.81859 4395.69043 0.00023
237 11.00486 4218.54442 4264.09033 0.00023
238 11.02186 4186.64729 4147.36035 0.00024
239 11.03886 4156.46777 4147.36035 0.00024
240 11.05586 4128.51039 4108.80957 0.00024
241 11.07286 4102.93359 4044.95972 0.00025
242 11.08986 4079.67942 3956.41016 0.00025
243 11.10686 4058.55892 3956.41016 0.00025
244 11.12386 4039.33307 4032.25000 0.00025
245 11.14086 4021.75902 4032.25000 0.00025
246 11.15786 4005.61186 3943.83984 0.00025
247 11.17486 3990.69273 4032.25000 0.00025
248 11.19186 3976.82991 4032.25000 0.00025
249 11.20886 3963.87683 3994.23999 0.00025
250 11.22586 3951.70870 3969.00000 0.00025
251 11.24286 3940.21884 3956.41016 0.00025
252 11.25986 3929.31477 3981.60986 0.00025
253 11.27686 3918.91304 3906.25000 0.00026
254 11.29386 3908.92977 3969.00000 0.00025
255 11.31086 3899.27696 4057.69019 0.00025
256 11.32786 3889.92806 4108.80957 0.00024
257 11.34486 3881.01185 4044.95972 0.00025
258 11.36186 3872.60325 3994.23999 0.00025
259 11.37886 3864.51970 4032.25000 0.00025
260 11.39586 3856.67838 3981.60986 0.00025
261 11.41286 3849.05324 3856.40991 0.00026
262 11.42986 3841.62478 3782.25000 0.00026
263 11.44686 3834.37581 3794.55981 0.00026
264 11.46386 3827.29115 3769.96021 0.00027
265 11.48086 3820.35730 3745.44019 0.00027
266 11.49786 3813.56224 3757.68994 0.00027
267 11.51486 3806.89520 3684.48999 0.00027
268 11.53186 3800.34653 3636.08984 0.00028
269 11.54886 3793.90751 3672.35986 0.00027
270 11.56586 3787.57025 3757.68994 0.00027
271 11.58286 3781.32754 3733.20972 0.00027
272 11.59986 3775.17280 3745.44019 0.00027
273 11.61686 3769.09996 3684.48999 0.00027
274 11.63386 3763.10337 3672.35986 0.00027
275 11.65086 3757.17774 3708.81030 0.00027
276 11.66786 3751.31803 3769.96021 0.00027
277 11.68486 3745.51938 3708.81030 0.00027
278 11.70186 3739.77694 3660.25000 0.00027
279 11.71886 3734.08574 3660.25000 0.00027
280 11.73586 3728.44039 3576.03979 0.00028
281 11.75286 3722.83468 3457.43994 0.00029
282 11.76986 3717.26060 3552.15991 0.00028
283 11.78686 3711.70581 3600.00000 0.00028
284 11.80386 3706.14625 3564.09009 0.00028
285 11.82086 3700.54446 3457.43994 0.00029
286 11.83786 3694.91945 3684.48999 0.00027
287 11.85486 3689.44335 3576.03979 0.00028
288 11.87186 3684.21522 3636.08984 0.00028
289 11.88886 3679.06857 3540.25000 0.00028
290 11.90586 3673.97007 3600.00000 0.00028
291 11.92286 3668.90892 3612.00977 0.00028
292 11.93986 3663.88062 3636.08984 0.00028
293 11.95686 3658.88396 3504.64014 0.00029
294 11.97386 3653.91787 3504.64014 0.00029
295 11.99086 3648.98136 3588.01025 0.00028
296 12.00786 3644.07348 3492.80981 0.00029
297 12.02486 3639.19333 3528.36011 0.00028
298 12.04186 3634.34008 3624.04004 0.00028
299 12.05886 3629.51293 3504.64014 0.00029
300 12.07586 3624.71114 3540.25000 0.00028
301 12.09286 3619.93400 3504.64014 0.00029
302 12.10986 3615.18085 3564.09009 0.00028
303 12.12686 3610.45105 3552.15991 0.00028
304 12.14386 3605.74400 3624.04004 0.00028
305 12.16086 3601.05914 3552.15991 0.00028
306 12.17786 3596.39592 3504.64014 0.00029
307 12.19486 3591.75384 3481.00000 0.00029
308 12.21186 3587.13241 3457.43994 0.00029
309 12.22886 3582.53116 3540.25000 0.00028
310 12.24586 3577.94966 3516.48999 0.00028
311 12.26286 3573.38748 3528.36011 0.00028
312 12.27986 3568.84422 3540.25000 0.00028
313 12.29686 3564.31951 3469.21021 0.00029
314 12.31386 3559.81298 3457.43994 0.00029
315 12.33086 3555.32427 3433.95972 0.00029
316 12.34786 3550.85306 3433.95972 0.00029
317 12.36486 3546.39904 3422.25000 0.00029
318 12.38186 3541.96188 3457.43994 0.00029
319 12.39886 3537.54131 3492.80981 0.00029
320 12.41586 3533.13704 3410.56006 0.00029
321 12.43286 3528.74881 3398.88989 0.00029
322 12.44986 3524.37636 3445.69019 0.00029
323 12.46686 3520.01944 3457.43994 0.00029
324 12.48386 3515.67781 3492.80981 0.00029
325 12.50086 3511.35125 3469.21021 0.00029
326 12.51786 3507.03954 3433.95972 0.00029
327 12.53486 3502.74246 3516.48999 0.00028
328 12.55186 3498.45983 3481.00000 0.00029
329 12.56886 3494.19143 3481.00000 0.00029
330 12.58586 3489.93708 3481.00000 0.00029
331 12.60286 3485.69661 3422.25000 0.00029
332 12.61986 3481.46983 3504.64014 0.00029
333 12.63686 3477.25658 3410.56006 0.00029
334 12.65386 3473.05670 3398.88989 0.00029
335 12.67086 3468.87003 3504.64014 0.00029
336 12.68786 3464.69642 3457.43994 0.00029
337 12.70486 3460.53572 3481.00000 0.00029
338 12.72186 3456.38778 3422.25000 0.00029
339 12.73886 3452.25249 3457.43994 0.00029
340 12.75586 3448.12969 3457.43994 0.00029
341 12.77286 3444.01927 3375.60986 0.00030
342 12.78986 3439.92111 3469.21021 0.00029
343 12.80686 3435.83509 3375.60986 0.00030
344 12.82386 3431.76110 3410.56006 0.00029
345 12.84086 3427.69904 3422.25000 0.00029
346 12.85786 3423.64883 3492.80981 0.00029
347 12.87486 3419.61037 3422.25000 0.00029
348 12.89186 3415.58359 3481.00000 0.00029
349 12.90886 3411.56842 3504.64014 0.00029
350 12.92586 3407.56481 3600.00000 0.00028
351 12.94286 3403.57271 3528.36011 0.00028
352 12.95986 3399.59209 3398.88989 0.00029
353 12.97686 3395.62289 3504.64014 0.00029
354 12.99386 3391.66512 3528.36011 0.00028
355 13.01086 3387.71876 3422.25000 0.00029
356 13.02786 3383.78383 3387.23999 0.00030
357 13.04486 3379.86035 3445.69019 0.00029
358 13.06186 3375.94841 3433.95972 0.00029
359 13.07886 3372.04809 3481.00000 0.00029
360 13.09586 3368.15956 3445.69019 0.00029
361 13.11286 3364.28302 3375.60986 0.00030
362 13.12986 3360.41874 3387.23999 0.00030
363 13.14686 3356.56705 3410.56006 0.00029
364 13.16386 3352.72841 3445.69019 0.00029
365 13.18086 3348.90343 3504.64014 0.00029
366 13.19786 3345.09291 3516.48999 0.00028
367 13.21486 3341.29798 3469.21021 0.00029
368 13.23186 3337.52024 3457.43994 0.00029
369 13.24886 3333.76210 3398.88989 0.00029
370 13.26586 3330.02747 3387.23999 0.00030
371 13.28286 3326.32356 3340.83984 0.00030
372 13.29986 3322.66816 3260.40991 0.00031
373 13.31686 3319.09284 3294.76025 0.00030
374 13.33386 3315.55945 3306.25000 0.00030
375 13.35086 3311.91947 3283.28979 0.00030
376 13.36786 3308.21290 3294.76025 0.00030
377 13.38486 3304.50351 3283.28979 0.00030
378 13.40186 3300.80339 3249.00000 0.00031
379 13.41886 3297.11308 3203.55981 0.00031
380 13.43586 3293.43254 3249.00000 0.00031
381 13.45286 3289.76174 3249.00000 0.00031
382 13.46986 3286.10064 3237.61011 0.00031
383 13.48686 3282.44922 3260.40991 0.00031
384 13.50386 3278.80745 3271.84009 0.00031
385 13.52086 3275.17530 3294.76025 0.00030
386 13.53786 3271.55274 3192.25000 0.00031
387 13.55486 3267.93974 3271.84009 0.00031
388 13.57186 3264.33629 3329.29004 0.00030
389 13.58886 3260.74236 3226.23999 0.00031
390 13.60586 3257.15793 3226.23999 0.00031
391 13.62286 3253.58298 3294.76025 0.00030
392 13.63986 3250.01749 3180.96021 0.00031
393 13.65686 3246.46145 3283.28979 0.00030
394 13.67386 3242.91486 3147.20972 0.00032
395 13.69086 3239.37770 3158.44019 0.00032
396 13.70786 3235.84998 3192.25000 0.00031
397 13.72486 3232.33170 3249.00000 0.00031
398 13.74186 3228.82288 3124.81006 0.00032
399 13.75886 3225.32353 3237.61011 0.00031
400 13.77586 3221.83368 3180.96021 0.00031
401 13.79286 3218.35337 3136.00000 0.00032
402 13.80986 3214.88264 3080.25000 0.00032
403 13.82686 3211.42156 3147.20972 0.00032
404 13.84386 3207.97017 3113.63989 0.00032
405 13.86086 3204.52855 3124.81006 0.00032
406 13.87786 3201.09679 3169.68994 0.00032
407 13.89486 3197.67500 3203.55981 0.00031
408 13.91186 3194.26329 3192.25000 0.00031
409 13.92886 3190.86184 3136.00000 0.00032
410 13.94586 3187.47083 3158.44019 0.00032
411 13.96286 3184.09053 3069.16016 0.00033
412 13.97986 3180.72124 3124.81006 0.00032
413 13.99686 3177.36332 3158.44019 0.00032
414 14.01386 3174.01723 3214.89014 0.00031
415 14.03086 3170.68351 3237.61011 0.00031
416 14.04786 3167.36290 3214.89014 0.00031
417 14.06486 3164.05633 3226.23999 0.00031
418 14.08186 3160.76505 3203.55981 0.00031
419 14.09886 3157.49080 3237.61011 0.00031
420 14.11586 3154.23613 3226.23999 0.00031
421 14.13286 3151.00511 3226.23999 0.00031
422 14.14986 3147.80509 3364.00000 0.00030
423 14.16686 3144.65385 3352.41016 0.00030
424 14.18386 3141.58293 3260.40991 0.00031
425 14.20086 3138.55605 3294.76025 0.00030
426 14.21786 3135.42793 3283.28979 0.00030
427 14.23486 3132.23583 3214.89014 0.00031
428 14.25186 3129.04272 3237.61011 0.00031
429 14.26886 3125.86088 3180.96021 0.00031
430 14.28586 3122.69116 3113.63989 0.00032
431 14.30286 3119.53388 3113.63989 0.00032
432 14.31986 3116.38942 3136.00000 0.00032
433 14.33686 3113.25821 3158.44019 0.00032
434 14.35386 3110.14073 3192.25000 0.00031
435 14.37086 3107.03758 3214.89014 0.00031
436 14.38786 3103.94944 3136.00000 0.00032
437 14.40486 3100.87707 3113.63989 0.00032
438 14.42186 3097.82139 3237.61011 0.00031
439 14.43886 3094.78348 3192.25000 0.00031
440 14.45586 3091.76465 3203.55981 0.00031
441 14.47286 3088.76652 3237.61011 0.00031
442 14.48986 3085.79116 3113.63989 0.00032
443 14.50686 3082.84124 3047.04004 0.00033
444 14.52386 3079.92042 3069.16016 0.00033
445 14.54086 3077.03406 3102.48999 0.00032
446 14.55786 3074.19115 3069.16016 0.00033
447 14.57486 3071.41148 2970.25000 0.00034
448 14.59186 3068.72930 3014.01025 0.00033
449 14.60886 3066.11160 3014.01025 0.00033
450 14.62586 3063.41594 3058.08984 0.00033
451 14.64286 3060.68253 3069.16016 0.00033
452 14.65986 3057.98077 2937.64014 0.00034
453 14.67686 3055.33339 2981.15991 0.00034
454 14.69386 3052.76305 3080.25000 0.00032
455 14.71086 3050.30754 3036.00977 0.00033
456 14.72786 3047.94220 3014.01025 0.00033
457 14.74486 3045.54580 2959.36011 0.00034
458 14.76186 3043.19179 3036.00977 0.00033
459 14.77886 3040.91732 2905.21021 0.00034
460 14.79586 3038.58004 3113.63989 0.00032
461 14.81286 3036.17758 3014.01025 0.00033
462 14.82986 3033.79700 3014.01025 0.00033
463 14.84686 3031.46589 3036.00977 0.00033
464 14.86386 3029.19087 3047.04004 0.00033
465 14.88086 3026.97742 2992.09009 0.00033
466 14.89786 3024.83226 2959.36011 0.00034
467 14.91486 3022.76246 2916.00000 0.00034
468 14.93186 3020.77096 3047.04004 0.00033
469 14.94886 3018.86070 2992.09009 0.00033
470 14.96586 3017.04676 2959.36011 0.00034
471 14.98286 3015.34186 2926.80981 0.00034
472 14.99986 3013.75945 2926.80981 0.00034
473 15.01686 3012.31539 2916.00000 0.00034
474 15.03386 3011.02872 3003.03979 0.00033
475 15.05086 3009.92272 2959.36011 0.00034
476 15.06786 3009.02718 3025.00000 0.00033
477 15.08486 3008.38331 3080.25000 0.00032
478 15.10186 3008.05310 3113.63989 0.00032
479 15.11886 3008.13236 3036.00977 0.00033
480 15.13586 3008.76249 3014.01025 0.00033
481 15.15286 3010.13777 3025.00000 0.00033
482 15.16986 3012.50985 3036.00977 0.00033
483 15.18686 3016.19056 3036.00977 0.00033
484 15.20386 3021.55507 3069.16016 0.00033
485 15.22086 3029.04998 2970.25000 0.00034
486 15.23786 3039.20081 2981.15991 0.00034
487 15.25486 3052.61400 3069.16016 0.00033
488 15.27186 3069.97169 3124.81006 0.00032
489 15.28886 3092.00554 3180.96021 0.00031
490 15.30586 3119.45913 3102.48999 0.00032
491 15.32286 3153.09400 3091.35986 0.00032
492 15.33986 3193.76493 3226.23999 0.00031
493 15.35686 3242.50966 3283.28979 0.00030
494 15.37386 3300.63008 3260.40991 0.00031
495 15.39086 3369.77965 3317.75977 0.00030
496 15.40786 3452.07983 3398.88989 0.00029
497 15.42486 3550.28396 3445.69019 0.00029
498 15.44186 3667.91617 3457.43994 0.00029
499 15.45886 3809.28274 3528.36011 0.00028
500 15.47586 3979.52042 3794.55981 0.00026
501 15.49286 4184.94384 4121.63965 0.00024
502 15.50986 4433.63819 4238.00977 0.00024
503 15.52686 4736.29752 4556.25000 0.00022
504 15.54386 5107.48894 4914.00977 0.00020
505 15.56086 5567.68079 5112.25000 0.00020
506 15.57786 6146.86397 5730.48975 0.00017
507 15.59486 6891.89881 6544.81006 0.00015
508 15.61186 7882.44298 7534.24072 0.00013
509 15.62886 9257.21834 9139.35938 0.00011
510 15.64586 11199.54014 10878.49023 0.00009
511 15.66286 13697.51895 13618.88965 0.00007
512 15.67986 16007.15537 16926.01172 0.00006
513 15.69686 16655.52020 19099.23828 0.00005
514 15.71386 14973.96620 16281.75977 0.00006
515 15.73086 12032.13789 11728.89063 0.00009
516 15.74786 8951.06695 8854.80957 0.00011
517 15.76486 6395.13684 5241.76025 0.00019
518 15.78186 4748.86870 3564.09009 0.00028
519 15.79886 3910.02601 3387.23999 0.00030
520 15.81586 3527.83531 3147.20972 0.00032
521 15.83286 3340.21889 3136.00000 0.00032
522 15.84986 3229.42580 3080.25000 0.00032
523 15.86686 3153.84948 3025.00000 0.00033
524 15.88386 3098.26818 2905.21021 0.00034
525 15.90086 3055.63778 2894.43994 0.00035
526 15.91786 3021.95401 2905.21021 0.00034
527 15.93486 2994.69884 2992.09009 0.00033
528 15.95186 2972.20339 2883.69019 0.00035
529 15.96886 2953.31951 2894.43994 0.00035
530 15.98586 2937.23303 2883.69019 0.00035
531 16.00286 2923.35206 2926.80981 0.00034
532 16.01986 2911.23819 2894.43994 0.00035
533 16.03686 2900.56566 2894.43994 0.00035
534 16.05386 2891.09587 2959.36011 0.00034
535 16.07086 2882.61181 2851.56006 0.00035
536 16.08786 2874.86172 2840.88989 0.00035
537 16.10486 2867.72859 2830.23999 0.00035
538 16.12186 2861.15935 2819.60986 0.00035
539 16.13886 2855.08719 2905.21021 0.00034
540 16.15586 2849.43290 2883.69019 0.00035
541 16.17286 2844.10042 2798.41016 0.00036
542 16.18986 2839.06404 2809.00000 0.00036
543 16.20686 2834.29724 2809.00000 0.00036
544 16.22386 2829.77050 2809.00000 0.00036
545 16.24086 2825.45800 2777.29004 0.00036
546 16.25786 2821.34152 2809.00000 0.00036
547 16.27486 2817.41325 2830.23999 0.00035
548 16.29186 2813.64392 2777.29004 0.00036
549 16.30886 2809.97724 2830.23999 0.00035
550 16.32586 2806.43508 2798.41016 0.00036
551 16.34286 2803.00823 2745.76025 0.00036
552 16.35986 2799.64918 2787.83984 0.00036
553 16.37686 2796.37064 2787.83984 0.00036
554 16.39386 2793.17787 2756.25000 0.00036
555 16.41086 2790.06758 2819.60986 0.00035
556 16.42786 2787.03128 2819.60986 0.00035
557 16.44486 2784.05806 2756.25000 0.00036
558 16.46186 2781.15051 2766.75977 0.00036
559 16.47886 2778.30267 2819.60986 0.00035
560 16.49586 2775.50384 2798.41016 0.00036
561 16.51286 2772.75637 2777.29004 0.00036
562 16.52986 2770.05850 2745.76025 0.00036
563 16.54686 2767.40696 2683.23999 0.00037
564 16.56386 2764.79792 2724.84009 0.00037
565 16.58086 2762.22630 2735.29004 0.00037
566 16.59786 2759.68383 2766.75977 0.00036
567 16.61486 2757.15190 2756.25000 0.00036
568 16.63186 2754.59721 2756.25000 0.00036
569 16.64886 2752.04198 2735.29004 0.00037
570 16.66586 2749.59820 2798.41016 0.00036
571 16.68286 2747.26769 2756.25000 0.00036
572 16.69986 2745.12827 2798.41016 0.00036
573 16.71686 2743.12955 2809.00000 0.00036
574 16.73386 2741.19656 2745.76025 0.00036
575 16.75086 2739.29873 2798.41016 0.00036
576 16.76786 2737.48631 2735.29004 0.00037
577 16.78486 2735.91885 2745.76025 0.00036
578 16.80186 2734.59061 2787.83984 0.00036
579 16.81886 2733.48246 2745.76025 0.00036
580 16.83586 2732.64631 2714.40991 0.00037
581 16.85286 2732.16701 2819.60986 0.00035
582 16.86986 2732.15266 2798.41016 0.00036
583 16.88686 2732.73570 2809.00000 0.00036
584 16.90386 2734.07564 2798.41016 0.00036
585 16.92086 2736.36216 2756.25000 0.00036
586 16.93786 2739.81586 2809.00000 0.00036
587 16.95486 2744.68273 2787.83984 0.00036
588 16.97186 2751.22732 2766.75977 0.00036
589 16.98886 2759.73635 2787.83984 0.00036
590 17.00586 2770.53985 2809.00000 0.00036
591 17.02286 2784.04330 2851.56006 0.00035
592 17.03986 2800.76553 2862.25000 0.00035
593 17.05686 2821.33772 2883.69019 0.00035
594 17.07386 2846.51537 2745.76025 0.00036
595 17.09086 2877.40691 2787.83984 0.00036
596 17.10786 2915.44143 2894.43994 0.00035
597 17.12486 2962.33142 2894.43994 0.00035
598 17.14186 3020.21868 2948.48999 0.00034
599 17.15886 3091.90708 3047.04004 0.00033
600 17.17586 3181.19674 3169.68994 0.00032
601 17.19286 3293.42895 3398.88989 0.00029
602 17.20986 3436.48121 3648.16016 0.00027
603 17.22686 3622.79040 3769.96021 0.00027
604 17.24386 3873.53570 4019.56030 0.00025
605 17.26086 4223.79236 4238.00977 0.00024
606 17.27786 4712.09935 4556.25000 0.00022
607 17.29486 5313.42098 5069.43945 0.00020
608 17.31186 5825.33439 5685.16016 0.00018
609 17.32886 5919.84377 5836.96045 0.00017
610 17.34586 5521.30589 5329.00000 0.00019
611 17.36286 4926.81766 4747.21045 0.00021
612 17.37986 4330.91350 4173.15967 0.00024
613 17.39686 3833.32654 3660.25000 0.00027
614 17.41386 3542.62914 3422.25000 0.00029
615 17.43086 3450.28194 3340.83984 0.00030
616 17.44786 3441.38712 3387.23999 0.00030
617 17.46486 3389.23529 3375.60986 0.00030
618 17.48186 3259.25997 3169.68994 0.00032
619 17.49886 3108.47923 2905.21021 0.00034
620 17.51586 2964.87717 2883.69019 0.00035
621 17.53286 2842.73989 2787.83984 0.00036
622 17.54986 2761.45412 2735.29004 0.00037
623 17.56686 2716.70279 2641.96021 0.00038
624 17.58386 2692.85471 2570.48999 0.00039
625 17.60086 2678.39960 2693.61011 0.00037
626 17.61786 2668.12248 2662.55981 0.00038
627 17.63486 2660.09527 2662.55981 0.00038
628 17.65186 2653.51638 2672.89014 0.00037
629 17.66886 2647.89674 2704.00000 0.00037
630 17.68586 2643.01238 2621.44019 0.00038
631 17.70286 2638.72272 2550.25000 0.00039
632 17.71986 2634.82245 2510.00977 0.00040
633 17.73686 2631.23752 2611.20996 0.00038
634 17.75386 2627.94839 2590.81006 0.00039
635 17.77086 2624.91490 2672.89014 0.00037
636 17.78786 2622.10048 2560.35986 0.00039
637 17.80486 2619.47695 2652.25000 0.00038
638 17.82186 2617.02181 2580.63989 0.00039
639 17.83886 2614.71699 2560.35986 0.00039
640 17.85586 2612.55322 2683.23999 0.00037
641 17.87286 2610.52663 2611.20996 0.00038
642 17.88986 2608.64497 2560.35986 0.00039
643 17.90686 2606.91191 2631.68994 0.00038
644 17.92386 2605.25400 2520.04004 0.00040
645 17.94086 2603.59319 2611.20996 0.00038
646 17.95786 2602.00478 2652.25000 0.00038
647 17.97486 2600.50418 2631.68994 0.00038
648 17.99186 2599.09110 2672.89014 0.00037
649 18.00886 2597.76434 2652.25000 0.00038
650 18.02586 2596.52098 2540.16016 0.00039
651 18.04286 2595.34956 2550.25000 0.00039
652 18.05986 2594.22715 2550.25000 0.00039
653 18.07686 2593.20101 2601.00000 0.00038
654 18.09386 2592.42899 2672.89014 0.00037
655 18.11086 2591.87152 2693.61011 0.00037
656 18.12786 2591.48800 2683.23999 0.00037
657 18.14486 2591.28788 2672.89014 0.00037
658 18.16186 2591.28856 2724.84009 0.00037
659 18.17886 2591.51563 2704.00000 0.00037
660 18.19586 2592.00148 2683.23999 0.00037
661 18.21286 2592.78783 2662.55981 0.00038
662 18.22986 2593.93242 2662.55981 0.00038
663 18.24686 2595.52057 2704.00000 0.00037
664 18.26386 2597.68025 2683.23999 0.00037
665 18.28086 2600.59623 2652.25000 0.00038
666 18.29786 2604.52065 2652.25000 0.00038
667 18.31486 2609.78084 2672.89014 0.00037
668 18.33186 2616.78803 2714.40991 0.00037
669 18.34886 2626.06806 2745.76025 0.00036
670 18.36586 2638.27612 2756.25000 0.00036
671 18.38286 2654.13250 2662.55981 0.00038
672 18.39986 2674.48444 2662.55981 0.00038
673 18.41686 2700.19903 2693.61011 0.00037
674 18.43386 2732.24943 2735.29004 0.00037
675 18.45086 2771.79768 2787.83984 0.00036
676 18.46786 2820.31626 2819.60986 0.00035
677 18.48486 2879.73377 2862.25000 0.00035
678 18.50186 2952.53053 2916.00000 0.00034
679 18.51886 3042.00418 2926.80981 0.00034
680 18.53586 3152.47673 3003.03979 0.00033
681 18.55286 3289.46064 3147.20972 0.00032
682 18.56986 3460.07347 3283.28979 0.00030
683 18.58686 3673.84546 3469.21021 0.00029
684 18.60386 3944.07072 3806.89014 0.00026
685 18.62086 4290.19136 4186.08984 0.00024
686 18.63786 4742.65141 4462.24023 0.00022
687 18.65486 5352.55556 5155.24023 0.00019
688 18.67186 6202.31822 6193.68945 0.00016
689 18.68886 7381.82122 7089.63965 0.00014
690 18.70586 8849.52042 8742.25000 0.00011
691 18.72286 10190.37215 10485.76074 0.00010
692 18.73986 10659.63078 11772.25000 0.00008
693 18.75686 9918.12791 10670.89063 0.00009
694 18.77386 8501.42294 8082.01025 0.00012
695 18.79086 6961.72258 6740.40967 0.00015
696 18.80786 5492.68410 5270.75977 0.00019
697 18.82486 4317.80015 3782.25000 0.00026
698 18.84186 3583.60329 3091.35986 0.00032
699 18.85886 3213.52220 2926.80981 0.00034
700 18.87586 3048.97183 2905.21021 0.00034
701 18.89286 2969.03038 2959.36011 0.00034
702 18.90986 2906.72661 2926.80981 0.00034
703 18.92686 2840.62970 2851.56006 0.00035
704 18.94386 2778.62215 2840.88989 0.00035
705 18.96086 2724.13774 2693.61011 0.00037
706 18.97786 2676.76907 2580.63989 0.00039
707 18.99486 2640.58213 2570.48999 0.00039
708 19.01186 2615.92855 2621.44019 0.00038
709 19.02886 2599.38891 2560.35986 0.00039
710 19.04586 2587.56066 2540.16016 0.00039
711 19.06286 2578.41890 2530.08984 0.00040
712 19.07986 2571.01239 2540.16016 0.00039
713 19.09686 2564.88315 2560.35986 0.00039
714 19.11386 2559.76536 2631.68994 0.00038
715 19.13086 2555.47892 2590.81006 0.00039
716 19.14786 2551.89125 2500.00000 0.00040
717 19.16486 2548.90555 2530.08984 0.00040
718 19.18186 2546.45682 2560.35986 0.00039
719 19.19886 2544.48110 2570.48999 0.00039
720 19.21586 2542.92895 2652.25000 0.00038
721 19.23286 2541.77038 2621.44019 0.00038
722 19.24986 2540.98217 2560.35986 0.00039
723 19.26686 2540.54789 2530.08984 0.00040
724 19.28386 2540.45756 2580.63989 0.00039
725 19.30086 2540.70700 2662.55981 0.00038
726 19.31786 2541.29750 2652.25000 0.00038
727 19.33486 2542.23588 2601.00000 0.00038
728 19.35186 2543.53443 2550.25000 0.00039
729 19.36886 2545.21030 2590.81006 0.00039
730 19.38586 2547.29379 2570.48999 0.00039
731 19.40286 2549.83821 2530.08984 0.00040
732 19.41986 2552.83159 2570.48999 0.00039
733 19.43686 2556.17563 2560.35986 0.00039
734 19.45386 2560.01173 2540.16016 0.00039
735 19.47086 2564.41780 2631.68994 0.00038
736 19.48786 2569.45999 2540.16016 0.00039
737 19.50486 2575.21588 2570.48999 0.00039
738 19.52186 2581.80003 2580.63989 0.00039
739 19.53886 2589.37139 2500.00000 0.00040
740 19.55586 2598.16699 2480.04004 0.00040
741 19.57286 2608.49529 2510.00977 0.00040
742 19.58986 2620.46304 2601.00000 0.00038
743 19.60686 2633.44769 2621.44019 0.00038
744 19.62386 2646.09333 2550.25000 0.00039
745 19.64086 2656.90069 2540.16016 0.00039
746 19.65786 2666.18289 2570.48999 0.00039
747 19.67486 2675.90068 2611.20996 0.00038
748 19.69186 2686.76967 2672.89014 0.00037
749 19.70886 2698.99230 2570.48999 0.00039
750 19.72586 2713.14681 2631.68994 0.00038
751 19.74286 2729.31284 2683.23999 0.00037
752 19.75986 2747.02930 2672.89014 0.00037
753 19.77686 2765.71703 2777.29004 0.00036
754 19.79386 2784.83118 2851.56006 0.00035
755 19.81086 2803.84614 2745.76025 0.00036
756 19.82786 2822.21045 2840.88989 0.00035
757 19.84486 2839.18021 2809.00000 0.00036
758 19.86186 2853.94165 2872.95972 0.00035
759 19.87886 2865.58353 2905.21021 0.00034
760 19.89586 2873.25094 2948.48999 0.00034
761 19.91286 2876.19561 2981.15991 0.00034
762 19.92986 2873.89733 2894.43994 0.00035
763 19.94686 2866.32947 2959.36011 0.00034
764 19.96386 2854.02134 2926.80981 0.00034
765 19.98086 2837.69593 2872.95972 0.00035
766 19.99786 2818.26155 2819.60986 0.00035
767 20.01486 2796.75274 2819.60986 0.00035
768 20.03186 2774.18096 2745.76025 0.00036
769 20.04886 2751.41245 2672.89014 0.00037
770 20.06586 2729.14072 2652.25000 0.00038
771 20.08286 2707.88014 2601.00000 0.00038
772 20.09986 2687.98899 2570.48999 0.00039
773 20.11686 2669.66279 2540.16016 0.00039
774 20.13386 2652.92018 2601.00000 0.00038
775 20.15086 2637.80553 2601.00000 0.00038
776 20.16786 2624.38416 2570.48999 0.00039
777 20.18486 2612.66420 2530.08984 0.00040
778 20.20186 2602.64402 2480.04004 0.00040
779 20.21886 2594.33299 2510.00977 0.00040
780 20.23586 2587.76502 2560.35986 0.00039
781 20.25286 2583.01641 2560.35986 0.00039
782 20.26986 2580.23563 2580.63989 0.00039
783 20.28686 2579.67394 2580.63989 0.00039
784 20.30386 2581.72349 2550.25000 0.00039
785 20.32086 2586.95175 2631.68994 0.00038
786 20.33786 2596.13877 2611.20996 0.00038
787 20.35486 2610.33641 2540.16016 0.00039
788 20.37186 2630.96643 2621.44019 0.00038
789 20.38886 2659.98099 2683.23999 0.00037
790 20.40586 2700.14576 2693.61011 0.00037
791 20.42286 2755.43156 2704.00000 0.00037
792 20.43986 2830.83884 2862.25000 0.00035
793 20.45686 2929.44013 2992.09009 0.00033
794 20.47386 3044.72328 3124.81006 0.00032
795 20.49086 3154.89501 3158.44019 0.00032
796 20.50786 3237.81014 3226.23999 0.00031
797 20.52486 3303.83021 3329.29004 0.00030
798 20.54186 3390.20831 3294.76025 0.00030
799 20.55886 3516.07917 3433.95972 0.00029
800 20.57586 3693.29211 3648.16016 0.00027
801 20.59286 3947.78681 3943.83984 0.00025
802 20.60986 4308.05235 4186.08984 0.00024
803 20.62686 4806.29508 4733.44043 0.00021
804 20.64386 5496.12824 5387.56006 0.00019
805 20.66086 6464.83795 6384.01025 0.00016
806 20.67786 7792.47245 8010.25000 0.00012
807 20.69486 9378.42988 9801.00000 0.00010
808 20.71186 10700.40370 11299.69043 0.00009
809 20.72886 10971.72670 11427.61035 0.00009
810 20.74586 10019.29643 9702.25000 0.00010
811 20.76286 8582.70504 8208.35938 0.00012
812 20.77986 7117.84256 7039.21045 0.00014
813 20.79686 5649.24846 5431.68945 0.00018
814 20.81386 4391.40289 3969.00000 0.00025
815 20.83086 3546.71740 3364.00000 0.00030
816 20.84786 3078.36371 3147.20972 0.00032
817 20.86486 2838.96767 2992.09009 0.00033
818 20.88186 2710.03025 2851.56006 0.00035
819 20.89886 2630.61033 2840.88989 0.00035
820 20.91586 2575.45861 2735.29004 0.00037
821 20.93286 2534.30639 2662.55981 0.00038
822 20.94986 2502.31278 2631.68994 0.00038
823 20.96686 2476.74909 2662.55981 0.00038
824 20.98386 2455.90141 2601.00000 0.00038
825 21.00086 2438.59967 2570.48999 0.00039
826 21.01786 2423.94087 2590.81006 0.00039
827 21.03486 2411.32055 2530.08984 0.00040
828 21.05186 2400.36285 2520.04004 0.00040
829 21.06886 2390.75496 2550.25000 0.00039
830 21.08586 2382.25456 2560.35986 0.00039
831 21.10286 2374.67243 2601.00000 0.00038
832 21.11986 2367.86137 2570.48999 0.00039
833 21.13686 2361.70881 2550.25000 0.00039
834 21.15386 2356.12389 2500.00000 0.00040
835 21.17086 2351.01508 2480.04004 0.00040
836 21.18786 2346.31980 2540.16016 0.00039
837 21.20486 2342.00990 2621.44019 0.00038
838 21.22186 2337.97209 2580.63989 0.00039
839 21.23886 2334.12553 2510.00977 0.00040
840 21.25586 2330.49221 2490.01025 0.00040
841 21.27286 2327.06014 2470.09009 0.00040
842 21.28986 2323.80708 2470.09009 0.00040
843 21.30686 2320.71676 2440.36011 0.00041
844 21.32386 2317.77286 2410.80981 0.00041
845 21.34086 2314.96046 2450.25000 0.00041
846 21.35786 2312.26590 2460.15991 0.00041
847 21.37486 2309.67565 2490.01025 0.00040
848 21.39186 2307.17222 2401.00000 0.00042
849 21.40886 2304.73033 2361.95996 0.00042
850 21.42586 2302.36477 2342.56006 0.00043
851 21.44286 2300.17470 2401.00000 0.00042
852 21.45986 2298.15165 2420.64014 0.00041
853 21.47686 2296.25057 2342.56006 0.00043
854 21.49386 2294.37331 2391.21021 0.00042
855 21.51086 2292.49655 2381.43994 0.00042
856 21.52786 2290.67416 2371.69019 0.00042
857 21.54486 2288.91577 2490.01025 0.00040
858 21.56186 2287.22164 2401.00000 0.00042
859 21.57886 2285.59256 2371.69019 0.00042
860 21.59586 2284.03174 2371.69019 0.00042
861 21.61286 2282.54747 2371.69019 0.00042
862 21.62986 2281.15685 2391.21021 0.00042
863 21.64686 2279.89746 2480.04004 0.00040
864 21.66386 2278.79631 2391.21021 0.00042
865 21.68086 2277.79969 2420.64014 0.00041
866 21.69786 2276.82587 2342.56006 0.00043
867 21.71486 2275.80688 2410.80981 0.00041
868 21.73186 2274.79222 2352.25000 0.00043
869 21.74886 2273.87458 2410.80981 0.00041
870 21.76586 2273.08508 2430.48999 0.00041
871 21.78286 2272.44757 2391.21021 0.00042
872 21.79986 2271.98996 2430.48999 0.00041
873 21.81686 2271.73499 2361.95996 0.00042
874 21.83386 2271.71079 2323.23999 0.00043
875 21.85086 2272.00227 2381.43994 0.00042
876 21.86786 2272.78294 2391.21021 0.00042
877 21.88486 2274.12007 2361.95996 0.00042
878 21.90186 2276.16571 2361.95996 0.00042
879 21.91886 2279.08492 2381.43994 0.00042
880 21.93586 2283.09645 2410.80981 0.00041
881 21.95286 2288.70641 2430.48999 0.00041
882 21.96986 2296.70850 2450.25000 0.00041
883 21.98686 2308.21565 2470.09009 0.00040
884 22.00386 2324.08258 2470.09009 0.00040
885 22.02086 2342.81333 2480.04004 0.00040
886 22.03786 2357.75421 2450.25000 0.00041
887 22.05486 2359.65827 2371.69019 0.00042
888 22.07186 2347.86254 2391.21021 0.00042
889 22.08886 2332.65685 2391.21021 0.00042
890 22.10586 2318.62645 2391.21021 0.00042
891 22.12286 2304.22340 2381.43994 0.00042
892 22.13986 2291.59047 2342.56006 0.00043
893 22.15686 2284.01713 2371.69019 0.00042
894 22.17386 2281.67658 2430.48999 0.00041
895 22.19086 2283.13971 2440.36011 0.00041
896 22.20786 2287.21683 2430.48999 0.00041
897 22.22486 2293.45654 2440.36011 0.00041
898 22.24186 2301.97167 2450.25000 0.00041
899 22.25886 2313.21588 2410.80981 0.00041
900 22.27586 2327.94195 2401.00000 0.00042
901 22.29286 2347.30472 2470.09009 0.00040
902 22.30986 2373.18574 2490.01025 0.00040
903 22.32686 2408.67831 2500.00000 0.00040
904 22.34386 2457.94785 2540.16016 0.00039
905 22.36086 2523.28967 2693.61011 0.00037
906 22.37786 2596.80835 2735.29004 0.00037
907 22.39486 2652.07932 2662.55981 0.00038
908 22.41186 2656.55240 2641.96021 0.00038
909 22.42886 2612.02048 2570.48999 0.00039
910 22.44586 2557.61768 2590.81006 0.00039
911 22.46286 2507.89752 2570.48999 0.00039
912 22.47986 2456.64843 2530.08984 0.00040
913 22.49686 2412.96725 2470.09009 0.00040
914 22.51386 2389.11107 2480.04004 0.00040
915 22.53086 2385.22062 2580.63989 0.00039
916 22.54786 2396.14181 2460.15991 0.00041
917 22.56486 2418.07497 2520.04004 0.00040
918 22.58186 2449.98282 2530.08984 0.00040
919 22.59886 2492.68051 2641.96021 0.00038
920 22.61586 2548.08212 2693.61011 0.00037
921 22.63286 2619.08356 2724.84009 0.00037
922 22.64986 2709.60451 2819.60986 0.00035
923 22.66686 2824.95809 2937.64014 0.00034
924 22.68386 2972.51638 3180.96021 0.00031
925 22.70086 3162.40787 3364.00000 0.00030
926 22.71786 3408.68168 3576.03979 0.00028
927 22.73486 3731.64848 3981.60986 0.00025
928 22.75186 4162.60240 4382.43945 0.00023
929 22.76886 4751.84139 4802.49023 0.00021
930 22.78586 5574.24929 5565.15967 0.00018
931 22.80286 6702.86211 6528.64063 0.00015
932 22.81986 8097.51330 8064.04053 0.00012
933 22.83686 9424.56878 9604.00000 0.00010
934 22.85386 10072.09596 9920.16016 0.00010
935 22.87086 9700.85954 9292.95996 0.00011
936 22.88786 8742.56211 8445.61035 0.00012
937 22.90486 7774.29475 7603.83936 0.00013
938 22.92186 6862.49428 6789.76025 0.00015
939 22.93886 5990.60076 6006.25000 0.00017
940 22.95586 5383.50692 5580.08936 0.00018
941 22.97286 5227.42159 5610.01025 0.00018
942 22.98986 5534.13159 5745.64063 0.00017
943 23.00686 6262.44244 6209.44043 0.00016
944 23.02386 7352.13605 7157.15967 0.00014
945 23.04086 8597.64831 8537.76074 0.00012
946 23.05786 9528.25703 9761.44043 0.00010
947 23.07486 9626.43400 9761.44043 0.00010
948 23.09186 8865.31986 8649.00000 0.00012
949 23.10886 7747.72109 7430.43945 0.00013
950 23.12586 6622.97995 6480.25000 0.00015
951 23.14286 5492.01458 5416.95996 0.00018
952 23.15986 4418.24797 4251.03955 0.00024
953 23.17686 3586.27820 3422.25000 0.00029
954 23.19386 3063.13719 2937.64014 0.00034
955 23.21086 2773.59485 2662.55981 0.00038
956 23.22786 2615.85016 2540.16016 0.00039
957 23.24486 2522.15740 2510.00977 0.00040
958 23.26186 2459.47823 2480.04004 0.00040
959 23.27886 2413.69930 2381.43994 0.00042
960 23.29586 2378.50635 2391.21021 0.00042
961 23.31286 2350.59590 2410.80981 0.00041
962 23.32986 2327.97082 2332.88989 0.00043
963 23.34686 2309.30893 2401.00000 0.00042
964 23.36386 2293.68190 2420.64014 0.00041
965 23.38086 2280.44220 2420.64014 0.00041
966 23.39786 2269.10860 2332.88989 0.00043
967 23.41486 2259.32000 2371.69019 0.00042
968 23.43186 2250.80084 2401.00000 0.00042
969 23.44886 2243.33725 2381.43994 0.00042
970 23.46586 2236.76064 2332.88989 0.00043
971 23.48286 2230.93635 2265.75977 0.00044
972 23.49986 2225.75488 2371.69019 0.00042
973 23.51686 2221.12177 2313.60986 0.00043
974 23.53386 2216.94776 2342.56006 0.00043
975 23.55086 2213.17143 2246.76025 0.00045
976 23.56786 2209.82616 2304.00000 0.00043
977 23.58486 2206.93358 2371.69019 0.00042
978 23.60186 2204.38081 2313.60986 0.00043
979 23.61886 2202.13594 2371.69019 0.00042
980 23.63586 2200.17809 2237.29004 0.00045
981 23.65286 2198.49500 2256.25000 0.00044
982 23.66986 2197.08127 2323.23999 0.00043
983 23.68686 2195.94089 2323.23999 0.00043
984 23.70386 2195.07460 2294.41016 0.00044
985 23.72086 2194.48404 2332.88989 0.00043
986 23.73786 2194.16580 2256.25000 0.00044
987 23.75486 2194.15273 2284.83984 0.00044
988 23.77186 2194.48431 2313.60986 0.00043
989 23.78886 2195.22107 2361.95996 0.00042
990 23.80586 2196.45851 2332.88989 0.00043
991 23.82286 2198.33442 2284.83984 0.00044
992 23.83986 2201.04009 2304.00000 0.00043
993 23.85686 2204.85466 2265.75977 0.00044
994 23.87386 2210.13629 2256.25000 0.00044
995 23.89086 2217.33660 2237.29004 0.00045
996 23.90786 2227.00916 2237.29004 0.00045
997 23.92486 2239.81189 2218.40991 0.00045
998 23.94186 2256.54125 2246.76025 0.00045
999 23.95886 2278.26115 2265.75977 0.00044
1000 23.97586 2306.37803 2304.00000 0.00043
1001 23.99286 2342.84581 2361.95996 0.00042
1002 24.00986 2390.29282 2352.25000 0.00043
1003 24.02686 2452.33141 2480.04004 0.00040
1004 24.04386 2534.31028 2580.63989 0.00039
1005 24.06086 2644.39559 2693.61011 0.00037
1006 24.07786 2795.53104 2819.60986 0.00035
1007 24.09486 3007.25964 3014.01025 0.00033
1008 24.11186 3300.39419 3271.84009 0.00031
1009 24.12886 3671.20128 3624.04004 0.00028
1010 24.14586 4043.56299 4070.43994 0.00025
1011 24.16286 4254.98422 4395.69043 0.00023
1012 24.17986 4178.90493 4395.69043 0.00023
1013 24.19686 3899.45609 4044.95972 0.00025
1014 24.21386 3607.26622 3648.16016 0.00027
1015 24.23086 3339.14903 3352.41016 0.00030
1016 24.24786 3047.14322 3102.48999 0.00032
1017 24.26486 2761.33738 2798.41016 0.00036
1018 24.28186 2546.74551 2470.09009 0.00040
1019 24.29886 2415.16887 2294.41016 0.00044
1020 24.31586 2342.19053 2275.29004 0.00044
1021 24.33286 2299.92040 2246.76025 0.00045
1022 24.34986 2271.73151 2246.76025 0.00045
1023 24.36686 2251.72712 2180.89014 0.00046
1024 24.38386 2237.98161 2237.29004 0.00045
1025 24.40086 2228.88423 2294.41016 0.00044
1026 24.41786 2222.95756 2227.84009 0.00045
1027 24.43486 2219.22425 2227.84009 0.00045
1028 24.45186 2217.06275 2237.29004 0.00045
1029 24.46886 2216.07232 2227.84009 0.00045
1030 24.48586 2216.03151 2237.29004 0.00045
1031 24.50286 2216.79445 2218.40991 0.00045
1032 24.51986 2218.28936 2171.55981 0.00046
1033 24.53686 2220.46472 2237.29004 0.00045
1034 24.55386 2223.28755 2237.29004 0.00045
1035 24.57086 2226.73996 2209.00000 0.00045
1036 24.58786 2230.81587 2246.76025 0.00045
1037 24.60486 2235.51695 2209.00000 0.00045
1038 24.62186 2240.84996 2284.83984 0.00044
1039 24.63886 2246.82408 2237.29004 0.00045
1040 24.65586 2253.44807 2237.29004 0.00045
1041 24.67286 2260.72714 2209.00000 0.00045
1042 24.68986 2268.65929 2227.84009 0.00045
1043 24.70686 2277.23119 2265.75977 0.00044
1044 24.72386 2286.41358 2227.84009 0.00045
1045 24.74086 2296.15651 2256.25000 0.00044
1046 24.75786 2306.38501 2190.23999 0.00046
1047 24.77486 2316.99603 2323.23999 0.00043
1048 24.79186 2327.85693 2265.75977 0.00044
1049 24.80886 2338.80803 2284.83984 0.00044
1050 24.82586 2349.66996 2275.29004 0.00044
1051 24.84286 2360.29148 2352.25000 0.00043
1052 24.85986 2370.63635 2294.41016 0.00044
1053 24.87686 2380.66221 2342.56006 0.00043
1054 24.89386 2390.36095 2361.95996 0.00042
1055 24.91086 2399.93065 2420.64014 0.00041
1056 24.92786 2409.79973 2460.15991 0.00041
1057 24.94486 2420.69180 2450.25000 0.00041
1058 24.96186 2433.70687 2430.48999 0.00041
1059 24.97886 2450.40973 2410.80981 0.00041
1060 24.99586 2472.94215 2420.64014 0.00041
1061 25.01286 2504.20911 2430.48999 0.00041
1062 25.02986 2548.28519 2530.08984 0.00040
1063 25.04686 2611.26478 2652.25000 0.00038
1064 25.06386 2702.63357 2819.60986 0.00035
1065 25.08086 2835.43721 2905.21021 0.00034
1066 25.09786 3019.01045 2970.25000 0.00034
1067 25.11486 3236.97614 3203.55981 0.00031
1068 25.13186 3420.26605 3469.21021 0.00029
1069 25.14886 3471.00115 3492.80981 0.00029
1070 25.16586 3382.66940 3352.41016 0.00030
1071 25.18286 3278.88413 3203.55981 0.00031
1072 25.19986 3225.74883 3192.25000 0.00031
1073 25.21686 3179.63683 3237.61011 0.00031
1074 25.23386 3091.52539 3136.00000 0.00032
1075 25.25086 2955.48579 3003.03979 0.00033
1076 25.26786 2795.16534 2830.23999 0.00035
1077 25.28486 2664.39673 2672.89014 0.00037
1078 25.30186 2573.86982 2530.08984 0.00040
1079 25.31886 2492.04364 2352.25000 0.00043
1080 25.33586 2408.28172 2275.29004 0.00044
1081 25.35286 2342.91890 2265.75977 0.00044
1082 25.36986 2306.62333 2218.40991 0.00045
1083 25.38686 2295.50938 2246.76025 0.00045
1084 25.40386 2301.56394 2256.25000 0.00044
1085 25.42086 2317.25960 2256.25000 0.00044
1086 25.43786 2337.28083 2256.25000 0.00044
1087 25.45486 2362.97778 2381.43994 0.00042
1088 25.47186 2402.02036 2313.60986 0.00043
1089 25.48886 2453.73174 2323.23999 0.00043
1090 25.50586 2497.89146 2480.04004 0.00040
1091 25.52286 2503.71070 2450.25000 0.00041
1092 25.53986 2462.76976 2410.80981 0.00041
1093 25.55686 2404.31058 2332.88989 0.00043
1094 25.57386 2352.95244 2256.25000 0.00044
1095 25.59086 2304.26174 2209.00000 0.00045
1096 25.60786 2250.90077 2265.75977 0.00044
1097 25.62486 2201.40647 2125.20996 0.00047
1098 25.64186 2165.32172 2116.00000 0.00047
1099 25.65886 2142.94620 2034.00989 0.00049
1100 25.67586 2129.62472 2152.96021 0.00046
1101 25.69286 2121.20059 2134.44019 0.00047
1102 25.70986 2115.25110 2088.48999 0.00048
1103 25.72686 2110.64864 2052.08984 0.00049
1104 25.74386 2106.90630 2097.63989 0.00048
1105 25.76086 2103.81382 2134.44019 0.00047
1106 25.77786 2101.21759 2125.20996 0.00047
1107 25.79486 2098.88184 2088.48999 0.00048
1108 25.81186 2096.82543 2171.55981 0.00046
1109 25.82886 2095.16863 2125.20996 0.00047
1110 25.84586 2093.95802 2034.00989 0.00049
1111 25.86286 2093.18756 2052.08984 0.00049
1112 25.87986 2092.89219 2125.20996 0.00047
1113 25.89686 2093.10461 2106.81006 0.00047
1114 25.91386 2094.09331 2125.20996 0.00047
1115 25.93086 2096.04182 2116.00000 0.00047
1116 25.94786 2099.07009 2061.16016 0.00049
1117 25.96486 2102.57813 2116.00000 0.00047
1118 25.98186 2104.97552 2125.20996 0.00047
1119 25.99886 2104.66018 2106.81006 0.00047
1120 26.01586 2102.16280 2079.35986 0.00048
1121 26.03286 2099.99319 2106.81006 0.00047
1122 26.04986 2098.96311 2162.25000 0.00046
1123 26.06686 2098.49848 2190.23999 0.00046
1124 26.08386 2098.72319 2180.89014 0.00046
1125 26.10086 2100.89620 2209.00000 0.00045
1126 26.11786 2105.99186 2190.23999 0.00046
1127 26.13486 2114.67087 2162.25000 0.00046
1128 26.15186 2127.93693 2180.89014 0.00046
1129 26.16886 2147.33924 2246.76025 0.00045
1130 26.18586 2173.72403 2304.00000 0.00043
1131 26.20286 2203.83622 2352.25000 0.00043
1132 26.21986 2226.52377 2323.23999 0.00043
1133 26.23686 2227.15473 2342.56006 0.00043
1134 26.25386 2206.08209 2332.88989 0.00043
1135 26.27086 2182.47458 2275.29004 0.00044
1136 26.28786 2164.54862 2218.40991 0.00045
1137 26.30486 2145.45812 2227.84009 0.00045
1138 26.32186 2122.24320 2171.55981 0.00046
1139 26.33886 2101.80001 2088.48999 0.00048
1140 26.35586 2088.31105 2116.00000 0.00047
1141 26.37286 2080.82816 2152.96021 0.00046
1142 26.38986 2076.95193 2088.48999 0.00048
1143 26.40686 2074.89935 2079.35986 0.00048
1144 26.42386 2073.81481 2079.35986 0.00048
1145 26.44086 2073.30708 2061.16016 0.00049
1146 26.45786 2073.20613 2152.96021 0.00046
1147 26.47486 2073.42279 2218.40991 0.00045
1148 26.49186 2073.90972 2162.25000 0.00046
1149 26.50886 2074.65488 2106.81006 0.00047
1150 26.52586 2075.65732 2227.84009 0.00045
1151 26.54286 2076.91855 2116.00000 0.00047
1152 26.55986 2078.46753 2143.68994 0.00047
1153 26.57686 2080.30772 2134.44019 0.00047
1154 26.59386 2082.45662 2152.96021 0.00046
1155 26.61086 2084.94120 2097.63989 0.00048
1156 26.62786 2087.79431 2134.44019 0.00047
1157 26.64486 2091.05940 2171.55981 0.00046
1158 26.66186 2094.79639 2152.96021 0.00046
1159 26.67886 2099.06173 2097.63989 0.00048
1160 26.69586 2103.92744 2088.48999 0.00048
1161 26.71286 2109.48628 2097.63989 0.00048
1162 26.72986 2115.85707 2125.20996 0.00047
1163 26.74686 2123.18144 2180.89014 0.00046
1164 26.76386 2131.64530 2152.96021 0.00046
1165 26.78086 2141.58035 2199.61011 0.00045
1166 26.79786 2153.39066 2237.29004 0.00045
1167 26.81486 2167.55696 2190.23999 0.00046
1168 26.83186 2184.91800 2209.00000 0.00045
1169 26.84886 2206.58917 2180.89014 0.00046
1170 26.86586 2233.99010 2256.25000 0.00044
1171 26.88286 2268.94080 2313.60986 0.00043
1172 26.89986 2313.78089 2391.21021 0.00042
1173 26.91686 2371.58867 2480.04004 0.00040
1174 26.93386 2446.56209 2470.09009 0.00040
1175 26.95086 2544.54782 2500.00000 0.00040
1176 26.96786 2673.74558 2652.25000 0.00038
1177 26.98486 2845.76841 2745.76025 0.00036
1178 27.00186 3077.28658 2970.25000 0.00034
1179 27.01886 3393.14316 3283.28979 0.00030
1180 27.03586 3830.65397 3588.01025 0.00028
1181 27.05286 4438.25109 4083.21021 0.00024
1182 27.06986 5246.94595 4928.03955 0.00020
1183 27.08686 6189.80717 5975.29053 0.00017
1184 27.10386 7005.76180 7022.44043 0.00014
1185 27.12086 7344.63456 7673.75977 0.00013
1186 27.13786 7246.97677 7344.48926 0.00014
1187 27.15486 7264.69769 7089.63965 0.00014
1188 27.17186 7697.28722 7621.29053 0.00013
1189 27.18886 8428.06276 8408.88965 0.00012
1190 27.20586 9282.10305 9273.69043 0.00011
1191 27.22286 10076.02107 10060.09082 0.00010
1192 27.23986 10330.74435 10588.41016 0.00009
1193 27.25686 9726.98170 10180.81055 0.00010
1194 27.27386 8665.48363 8704.89063 0.00011
1195 27.29086 7662.82163 7413.20996 0.00013
1196 27.30786 6765.06277 6889.00000 0.00015
1197 27.32486 5767.19430 6052.84033 0.00017
1198 27.34186 4713.49207 4664.89063 0.00021
1199 27.35886 3818.76367 3672.35986 0.00027
1200 27.37586 3204.64309 3091.35986 0.00032
1201 27.39286 2841.48596 2724.84009 0.00037
1202 27.40986 2640.08189 2601.00000 0.00038
1203 27.42686 2527.99252 2510.00977 0.00040
1204 27.44386 2465.03173 2450.25000 0.00041
1205 27.46086 2433.26158 2381.43994 0.00042
1206 27.47786 2426.31744 2361.95996 0.00042
1207 27.49486 2443.91759 2440.36011 0.00041
1208 27.51186 2490.20019 2520.04004 0.00040
1209 27.52886 2572.16642 2510.00977 0.00040
1210 27.54586 2692.22249 2652.25000 0.00038
1211 27.56286 2830.71456 2724.84009 0.00037
1212 27.57986 2928.24277 3014.01025 0.00033
1213 27.59686 2913.24777 2798.41016 0.00036
1214 27.61386 2795.06524 2631.68994 0.00038
1215 27.63086 2673.01300 2601.00000 0.00038
1216 27.64786 2587.31963 2570.48999 0.00039
1217 27.66486 2499.62158 2401.00000 0.00042
1218 27.68186 2384.62634 2381.43994 0.00042
1219 27.69886 2273.49729 2209.00000 0.00045
1220 27.71586 2194.74413 2246.76025 0.00045
1221 27.73286 2147.58234 2218.40991 0.00045
1222 27.74986 2120.51612 2143.68994 0.00047
1223 27.76686 2104.00328 2143.68994 0.00047
1224 27.78386 2092.87941 2079.35986 0.00048
1225 27.80086 2084.76048 2070.25000 0.00048
1226 27.81786 2078.60371 2152.96021 0.00046
1227 27.83486 2073.87561 2070.25000 0.00048
1228 27.85186 2070.26383 2106.81006 0.00047
1229 27.86886 2067.57460 2152.96021 0.00046
1230 27.88586 2065.68770 2088.48999 0.00048
1231 27.90286 2064.53489 2125.20996 0.00047
1232 27.91986 2064.09064 2097.63989 0.00048
1233 27.93686 2064.37432 2088.48999 0.00048
1234 27.95386 2065.46555 2016.01013 0.00050
1235 27.97086 2067.47296 2043.04004 0.00049
1236 27.98786 2070.49489 2079.35986 0.00048
1237 28.00486 2074.87929 2134.44019 0.00047
1238 28.02186 2081.06871 2152.96021 0.00046
1239 28.03886 2089.63090 2088.48999 0.00048
1240 28.05586 2101.30228 2079.35986 0.00048
1241 28.07286 2117.03087 2106.81006 0.00047
1242 28.08986 2138.06030 2125.20996 0.00047
1243 28.10686 2166.08888 2143.68994 0.00047
1244 28.12386 2203.51410 2116.00000 0.00047
1245 28.14086 2253.77085 2190.23999 0.00046
1246 28.15786 2321.85878 2209.00000 0.00045
1247 28.17486 2415.31935 2304.00000 0.00043
1248 28.19186 2545.85164 2510.00977 0.00040
1249 28.20886 2730.11056 2683.23999 0.00037
1250 28.22586 2983.41605 2926.80981 0.00034
1251 28.24286 3295.77550 3158.44019 0.00032
1252 28.25986 3591.94866 3504.64014 0.00029
1253 28.27686 3733.12912 3806.89014 0.00026
1254 28.29386 3651.20026 3856.40991 0.00026
1255 28.31086 3473.49998 3684.48999 0.00027
1256 28.32786 3357.34687 3340.83984 0.00030
1257 28.34486 3309.15340 3387.23999 0.00030
1258 28.36186 3262.01390 3422.25000 0.00029
1259 28.37886 3222.66809 3283.28979 0.00030
1260 28.39586 3238.04546 3249.00000 0.00031
1261 28.41286 3272.96111 3249.00000 0.00031
1262 28.42986 3220.54771 3226.23999 0.00031
1263 28.44686 3059.92060 3214.89014 0.00031
1264 28.46386 2909.33355 2970.25000 0.00034
1265 28.48086 2825.82174 2735.29004 0.00037
1266 28.49786 2758.58759 2777.29004 0.00036
1267 28.51486 2660.86733 2652.25000 0.00038
1268 28.53186 2568.09243 2550.25000 0.00039
1269 28.54886 2528.47020 2470.09009 0.00040
1270 28.56586 2552.77818 2570.48999 0.00039
1271 28.58286 2636.25436 2662.55981 0.00038
1272 28.59986 2778.28233 2948.48999 0.00034
1273 28.61686 2989.50536 2948.48999 0.00034
1274 28.63386 3290.85955 3271.84009 0.00031
1275 28.65086 3702.37792 3831.61011 0.00026
1276 28.66786 4218.77961 4342.81006 0.00023
1277 28.68486 4787.60427 4886.01025 0.00020
1278 28.70186 5340.55196 5387.56006 0.00019
1279 28.71886 5860.85965 5791.20996 0.00017
1280 28.73586 6276.44800 6464.16016 0.00015
1281 28.75286 6296.45530 6691.24072 0.00015
1282 28.76986 5797.15107 5944.40967 0.00017
1283 28.78686 5152.77069 5097.96045 0.00020
1284 28.80386 4683.71102 4542.76025 0.00022
1285 28.82086 4323.39761 4290.25000 0.00023
1286 28.83786 3889.24592 3943.83984 0.00025
1287 28.85486 3435.30535 3364.00000 0.00030
1288 28.87186 3118.38379 2916.00000 0.00034
1289 28.88886 2986.29836 2872.95972 0.00035
1290 28.90586 3013.39216 2916.00000 0.00034
1291 28.92286 3173.34514 3113.63989 0.00032
1292 28.93986 3458.96242 3422.25000 0.00029
1293 28.95686 3856.10707 3881.28979 0.00026
1294 28.97386 4289.65657 4382.43945 0.00023
1295 28.99086 4592.32905 4733.44043 0.00021
1296 29.00786 4594.05677 4678.56006 0.00021
1297 29.02486 4312.64707 4342.81006 0.00023
1298 29.04186 3961.23511 4006.88989 0.00025
1299 29.05886 3682.73272 3769.96021 0.00027
1300 29.07586 3427.01979 3504.64014 0.00029
1301 29.09286 3114.25670 3136.00000 0.00032
1302 29.10986 2777.80905 2766.75977 0.00036
1303 29.12686 2503.57727 2460.15991 0.00041
1304 29.14386 2324.33322 2304.00000 0.00043
1305 29.16086 2219.24841 2209.00000 0.00045
1306 29.17786 2157.78211 2162.25000 0.00046
1307 29.19486 2119.05934 2097.63989 0.00048
1308 29.21186 2092.31988 2097.63989 0.00048
1309 29.22886 2072.63779 2034.00989 0.00049
1310 29.24586 2057.53503 1953.64001 0.00051
1311 29.26286 2045.68660 1909.69006 0.00052
1312 29.27986 2036.34109 1927.21008 0.00052
1313 29.29686 2029.05794 1998.09009 0.00050
1314 29.31386 2023.61673 1980.25000 0.00050
1315 29.33086 2019.97648 2016.01013 0.00050
1316 29.34786 2018.14761 1892.25000 0.00053
1317 29.36486 2017.60790 1944.80981 0.00051
1318 29.38186 2016.64315 1944.80981 0.00051
1319 29.39886 2012.94740 1971.36011 0.00051
1320 29.41586 2006.50217 1927.21008 0.00052
1321 29.43286 2000.29594 1962.48999 0.00051
1322 29.44986 1995.69563 1874.88989 0.00053
1323 29.46686 1991.55086 1823.29004 0.00055
1324 29.48386 1986.61503 1866.24011 0.00054
1325 29.50086 1981.43794 1918.43994 0.00052
1326 29.51786 1977.10863 1918.43994 0.00052
1327 29.53486 1973.81101 1883.56018 0.00053
1328 29.55186 1971.28647 1953.64001 0.00051
1329 29.56886 1969.28316 1883.56018 0.00053
1330 29.58586 1967.59600 1900.95984 0.00053
1331 29.60286 1966.01893 1918.43994 0.00052
1332 29.61986 1964.55331 1883.56018 0.00053
1333 29.63686 1963.19535 1962.48999 0.00051
1334 29.65386 1961.93439 1874.88989 0.00053
1335 29.67086 1960.74519 1936.00000 0.00052
1336 29.68786 1959.57009 1936.00000 0.00052
1337 29.70486 1958.44830 1944.80981 0.00051
1338 29.72186 1957.43998 1962.48999 0.00051
1339 29.73886 1956.51493 1892.25000 0.00053
1340 29.75586 1955.64930 1789.28992 0.00056
1341 29.77286 1954.84272 1806.25000 0.00055
1342 29.78986 1954.10531 1909.69006 0.00052
1343 29.80686 1953.46403 1918.43994 0.00052
1344 29.82386 1952.92310 1927.21008 0.00052
1345 29.84086 1952.37203 1962.48999 0.00051
1346 29.85786 1951.79874 1874.88989 0.00053
1347 29.87486 1951.18716 1857.60986 0.00054
1348 29.89186 1950.58315 1900.95984 0.00053
1349 29.90886 1949.99790 1927.21008 0.00052
1350 29.92586 1949.42597 1962.48999 0.00051
1351 29.94286 1948.85842 1927.21008 0.00052
1352 29.95986 1948.30054 1874.88989 0.00053
1353 29.97686 1947.77188 1892.25000 0.00053
1354 29.99386 1947.25014 1953.64001 0.00051
1355 30.01086 1946.71261 1944.80981 0.00051
1356 30.02786 1946.25205 1953.64001 0.00051
1357 30.04486 1945.91797 1936.00000 0.00052
1358 30.06186 1945.66322 1909.69006 0.00052
1359 30.07886 1945.44936 1866.24011 0.00054
1360 30.09586 1945.22430 1883.56018 0.00053
1361 30.11286 1945.00493 1927.21008 0.00052
1362 30.12986 1944.75124 1900.95984 0.00053
1363 30.14686 1944.51725 1883.56018 0.00053
1364 30.16386 1944.27902 1927.21008 0.00052
1365 30.18086 1944.04528 1849.00000 0.00054
1366 30.19786 1943.89419 1857.60986 0.00054
1367 30.21486 1943.76668 1857.60986 0.00054
1368 30.23186 1943.61942 1883.56018 0.00053
1369 30.24886 1943.45610 2007.03992 0.00050
1370 30.26586 1943.37948 1900.95984 0.00053
1371 30.28286 1943.36624 1831.83997 0.00055
1372 30.29986 1943.43717 1874.88989 0.00053
1373 30.31686 1943.57372 1849.00000 0.00054
1374 30.33386 1943.74329 1849.00000 0.00054
1375 30.35086 1943.92034 1900.95984 0.00053
1376 30.36786 1944.09118 1971.36011 0.00051
1377 30.38486 1944.31306 1944.80981 0.00051
1378 30.40186 1944.68866 1909.69006 0.00052
1379 30.41886 1945.17797 1900.95984 0.00053
1380 30.43586 1945.75977 1936.00000 0.00052
1381 30.45286 1946.45346 1989.15991 0.00050
1382 30.46986 1947.27680 2007.03992 0.00050
1383 30.48686 1948.21834 1953.64001 0.00051
1384 30.50386 1949.28190 1866.24011 0.00054
1385 30.52086 1950.47600 1962.48999 0.00051
1386 30.53786 1951.82147 1989.15991 0.00050
1387 30.55486 1953.35452 1944.80981 0.00051
1388 30.57186 1955.08873 1962.48999 0.00051
1389 30.58886 1957.04652 1998.09009 0.00050
1390 30.60586 1959.25775 1909.69006 0.00052
1391 30.62286 1961.75819 1971.36011 0.00051
1392 30.63986 1964.59071 1883.56018 0.00053
1393 30.65686 1967.80743 1849.00000 0.00054
1394 30.67386 1971.47248 1936.00000 0.00052
1395 30.69086 1975.66464 1900.95984 0.00053
1396 30.70786 1980.48338 1883.56018 0.00053
1397 30.72486 1986.07012 1953.64001 0.00051
1398 30.74186 1992.62999 1989.15991 0.00050
1399 30.75886 2000.42179 1900.95984 0.00053
1400 30.77586 2009.85315 1927.21008 0.00052
1401 30.79286 2021.50497 1900.95984 0.00053
1402 30.80986 2036.25659 2007.03992 0.00050
1403 30.82686 2055.42372 2088.48999 0.00048
1404 30.84386 2080.66489 2125.20996 0.00047
1405 30.86086 2114.27536 2143.68994 0.00047
1406 30.87786 2159.33913 2106.81006 0.00047
1407 30.89486 2219.80559 2171.55981 0.00046
1408 30.91186 2301.26986 2342.56006 0.00043
1409 30.92886 2411.90515 2440.36011 0.00041
1410 30.94586 2563.77160 2530.08984 0.00040
1411 30.96286 2775.03955 2756.25000 0.00036
1412 30.97986 3073.61574 3091.35986 0.00032
1413 30.99686 3498.85927 3540.25000 0.00028
1414 31.01386 4084.94243 4173.15967 0.00024
1415 31.03086 4794.46619 4774.80957 0.00021
1416 31.04786 5402.07887 5285.28955 0.00019
1417 31.06486 5519.73346 5610.01025 0.00018
1418 31.08186 5065.45310 5256.25000 0.00019
1419 31.09886 4534.84672 4569.75977 0.00022
1420 31.11586 4261.46818 4147.36035 0.00024
1421 31.13286 4125.09251 4083.21021 0.00024
1422 31.14986 3855.28668 3844.00000 0.00026
1423 31.16686 3434.00891 3387.23999 0.00030
1424 31.18386 3079.55484 2970.25000 0.00034
1425 31.20086 2902.74159 2745.76025 0.00036
1426 31.21786 2893.68039 2724.84009 0.00037
1427 31.23486 3023.34032 2905.21021 0.00034
1428 31.25186 3286.58260 3226.23999 0.00031
1429 31.26886 3690.39954 3769.96021 0.00027
1430 31.28586 4194.82425 4303.35986 0.00023
1431 31.30286 4619.17644 4844.15967 0.00021
1432 31.31986 4665.54902 4942.09033 0.00020
1433 31.33686 4284.20223 4542.76025 0.00022
1434 31.35386 3862.76289 3918.75977 0.00026
1435 31.37086 3639.04604 3636.08984 0.00028
1436 31.38786 3507.13625 3528.36011 0.00028
1437 31.40486 3260.55995 3306.25000 0.00030
1438 31.42186 2890.28331 2809.00000 0.00036
1439 31.43886 2559.03997 2440.36011 0.00041
1440 31.45586 2339.23275 2180.89014 0.00046
1441 31.47286 2210.92806 2125.20996 0.00047
1442 31.48986 2136.64612 2070.25000 0.00048
1443 31.50686 2090.88558 1998.09009 0.00050
1444 31.52386 2060.49176 1909.69006 0.00052
1445 31.54086 2039.27265 1874.88989 0.00053
1446 31.55786 2024.29162 1892.25000 0.00053
1447 31.57486 2014.09559 1962.48999 0.00051
1448 31.59186 2008.05448 1909.69006 0.00052
1449 31.60886 2006.09500 1936.00000 0.00052
1450 31.62586 2008.69092 1900.95984 0.00053
1451 31.64286 2016.89099 1892.25000 0.00053
1452 31.65986 2031.86568 2016.01013 0.00050
1453 31.67686 2052.86289 1971.36011 0.00051
1454 31.69386 2073.06972 2025.00000 0.00049
1455 31.71086 2078.74183 2034.00989 0.00049
1456 31.72786 2062.78274 1998.09009 0.00050
1457 31.74486 2038.74956 1980.25000 0.00050
1458 31.76186 2022.34754 2052.08984 0.00049
1459 31.77886 2013.63721 2007.03992 0.00050
1460 31.79586 2002.73849 2016.01013 0.00050
1461 31.81286 1984.83402 2007.03992 0.00050
1462 31.82986 1965.67981 1971.36011 0.00051
1463 31.84686 1951.26199 1936.00000 0.00052
1464 31.86386 1942.20129 1918.43994 0.00052
1465 31.88086 1936.71672 1883.56018 0.00053
1466 31.89786 1933.27909 1900.95984 0.00053
1467 31.91486 1931.06328 1892.25000 0.00053
1468 31.93186 1929.46982 1909.69006 0.00052
1469 31.94886 1928.28400 1883.56018 0.00053
1470 31.96586 1927.49071 1857.60986 0.00054
1471 31.98286 1927.07304 1909.69006 0.00052
1472 31.99986 1927.05507 1900.95984 0.00053
1473 32.01686 1927.45020 1874.88989 0.00053
1474 32.03386 1928.16609 1883.56018 0.00053
1475 32.05086 1929.37441 1909.69006 0.00052
1476 32.06786 1931.27178 1927.21008 0.00052
1477 32.08486 1934.09705 1892.25000 0.00053
1478 32.10186 1938.16187 1883.56018 0.00053
1479 32.11886 1943.88230 1936.00000 0.00052
1480 32.13586 1951.83654 1971.36011 0.00051
1481 32.15286 1962.84948 2007.03992 0.00050
1482 32.16986 1978.12869 1998.09009 0.00050
1483 32.18686 1999.50505 1980.25000 0.00050
1484 32.20386 2029.66165 2070.25000 0.00048
1485 32.22086 2072.62287 2134.44019 0.00047
1486 32.23786 2133.40854 2152.96021 0.00046
1487 32.25486 2214.62131 2190.23999 0.00046
1488 32.27186 2305.63404 2313.60986 0.00043
1489 32.28886 2369.85691 2323.23999 0.00043
1490 32.30586 2363.26969 2371.69019 0.00042
1491 32.32286 2298.20035 2352.25000 0.00043
1492 32.33986 2244.52431 2218.40991 0.00045
1493 32.35686 2230.83620 2162.25000 0.00046
1494 32.37386 2232.85740 2265.75977 0.00044
1495 32.39086 2219.49346 2190.23999 0.00046
1496 32.40786 2193.53169 2162.25000 0.00046
1497 32.42486 2179.59297 2209.00000 0.00045
1498 32.44186 2174.16301 2256.25000 0.00044
1499 32.45886 2154.40111 2209.00000 0.00045
1500 32.47586 2118.74504 2190.23999 0.00046
1501 32.49286 2092.68226 2052.08984 0.00049
1502 32.50986 2086.96801 1962.48999 0.00051
1503 32.52686 2091.04824 2079.35986 0.00048
1504 32.54386 2091.80438 2190.23999 0.00046
1505 32.56086 2091.29202 2070.25000 0.00048
1506 32.57786 2104.41408 2034.00989 0.00049
1507 32.59486 2140.29704 2079.35986 0.00048
1508 32.61186 2203.40635 2125.20996 0.00047
1509 32.62886 2300.69170 2304.00000 0.00043
1510 32.64586 2444.33524 2440.36011 0.00041
1511 32.66286 2647.60098 2662.55981 0.00038
1512 32.67986 2903.11690 2981.15991 0.00034
1513 32.69686 3135.60774 3091.35986 0.00032
1514 32.71386 3193.72378 3306.25000 0.00030
1515 32.73086 3023.60020 3271.84009 0.00031
1516 32.74786 2807.92098 3036.00977 0.00033
1517 32.76486 2693.42209 2724.84009 0.00037
1518 32.78186 2654.43756 2510.00977 0.00040
1519 32.79886 2579.73752 2611.20996 0.00038
1520 32.81586 2419.39095 2560.35986 0.00039
1521 32.83286 2245.98426 2256.25000 0.00044
1522 32.84986 2121.00876 2061.16016 0.00049
1523 32.86686 2046.61016 1962.48999 0.00051
1524 32.88386 2004.17201 1936.00000 0.00052
1525 32.90086 1978.79573 1927.21008 0.00052
1526 32.91786 1962.45179 1892.25000 0.00053
1527 32.93486 1951.31671 1874.88989 0.00053
1528 32.95186 1943.54990 1866.24011 0.00054
1529 32.96886 1938.21724 1849.00000 0.00054
1530 32.98586 1934.83871 1814.75989 0.00055
1531 33.00286 1933.22145 1823.29004 0.00055
1532 33.01986 1933.35740 1840.41016 0.00054
1533 33.03686 1935.29841 1849.00000 0.00054
1534 33.05386 1939.31596 1849.00000 0.00054
1535 33.07086 1946.03626 1883.56018 0.00053
1536 33.08786 1956.37328 1874.88989 0.00053
1537 33.10486 1971.74352 1892.25000 0.00053
1538 33.12186 1994.26360 1989.15991 0.00050
1539 33.13886 2026.90200 1980.25000 0.00050
1540 33.15586 2073.17146 1962.48999 0.00051
1541 33.17286 2132.81763 2070.25000 0.00048
1542 33.18986 2191.60137 2134.44019 0.00047
1543 33.20686 2216.60682 2171.55981 0.00046
1544 33.22386 2190.81937 2162.25000 0.00046
1545 33.24086 2150.18276 2097.63989 0.00048
1546 33.25786 2133.98152 2061.16016 0.00049
1547 33.27486 2144.31446 2061.16016 0.00049
1548 33.29186 2158.99032 2134.44019 0.00047
1549 33.30886 2160.68842 2070.25000 0.00048
1550 33.32586 2150.98830 1998.09009 0.00050
1551 33.34286 2126.21140 2034.00989 0.00049
1552 33.35986 2084.60706 2043.04004 0.00049
1553 33.37686 2049.93460 2025.00000 0.00049
1554 33.39386 2035.71719 1918.43994 0.00052
1555 33.41086 2034.34541 1927.21008 0.00052
1556 33.42786 2030.14232 1927.21008 0.00052
1557 33.44486 2016.88441 1971.36011 0.00051
1558 33.46186 2006.02697 1944.80981 0.00051
1559 33.47886 2006.48317 1936.00000 0.00052
1560 33.49586 2018.35742 1936.00000 0.00052
1561 33.51286 2036.80751 1918.43994 0.00052
1562 33.52986 2053.38083 2052.08984 0.00049
1563 33.54686 2063.74306 2070.25000 0.00048
1564 33.56386 2076.69720 2007.03992 0.00050
1565 33.58086 2104.42270 2061.16016 0.00049
1566 33.59786 2151.61891 2034.00989 0.00049
1567 33.61486 2218.45279 2070.25000 0.00048
1568 33.63186 2308.89397 2180.89014 0.00046
1569 33.64886 2437.67863 2265.75977 0.00044
1570 33.66586 2627.64598 2450.25000 0.00041
1571 33.68286 2902.10644 2704.00000 0.00037
1572 33.69986 3264.91254 2959.36011 0.00034
1573 33.71686 3639.66757 3364.00000 0.00030
1574 33.73386 3819.18482 3733.20972 0.00027
1575 33.75086 3647.68675 3806.89014 0.00026
1576 33.76786 3309.30823 3469.21021 0.00029
1577 33.78486 3089.45099 3124.81006 0.00032
1578 33.80186 3031.67945 3047.04004 0.00033
1579 33.81886 2989.94421 3003.03979 0.00033
1580 33.83586 2825.11587 2894.43994 0.00035
1581 33.85286 2577.13345 2704.00000 0.00037
1582 33.86986 2374.30338 2401.00000 0.00042
1583 33.88686 2261.63596 2227.84009 0.00045
1584 33.90386 2213.12389 2162.25000 0.00046
1585 33.92086 2188.42526 2116.00000 0.00047
1586 33.93786 2154.08652 2125.20996 0.00047
1587 33.95486 2106.52779 2134.44019 0.00047
1588 33.97186 2069.55956 2061.16016 0.00049
1589 33.98886 2051.91515 1980.25000 0.00050
1590 34.00586 2043.24341 1989.15991 0.00050
1591 34.02286 2029.16281 2034.00989 0.00049
1592 34.03986 2006.41660 2016.01013 0.00050
1593 34.05686 1986.10267 1927.21008 0.00052
1594 34.07386 1975.02393 1900.95984 0.00053
1595 34.09086 1972.36545 1909.69006 0.00052
1596 34.10786 1976.34265 1962.48999 0.00051
1597 34.12486 1986.40317 1989.15991 0.00050
1598 34.14186 2002.86854 1980.25000 0.00050
1599 34.15886 2025.34007 1962.48999 0.00051
1600 34.17586 2049.20296 1936.00000 0.00052
1601 34.19286 2061.90073 1998.09009 0.00050
1602 34.20986 2053.20444 2025.00000 0.00049
1603 34.22686 2034.30781 1962.48999 0.00051
1604 34.24386 2023.44684 2007.03992 0.00050
1605 34.26086 2023.78767 1989.15991 0.00050
1606 34.27786 2026.53348 1909.69006 0.00052
1607 34.29486 2022.72105 2034.00989 0.00049
1608 34.31186 2014.42555 1989.15991 0.00050
1609 34.32886 2010.26482 2007.03992 0.00050
1610 34.34586 2014.05856 1944.80981 0.00051
1611 34.36286 2025.30349 2043.04004 0.00049
1612 34.37986 2043.69435 2088.48999 0.00048
1613 34.39686 2070.15290 2088.48999 0.00048
1614 34.41386 2106.74406 2097.63989 0.00048
1615 34.43086 2156.78410 2125.20996 0.00047
1616 34.44786 2225.29898 2134.44019 0.00047
1617 34.46486 2319.84925 2284.83984 0.00044
1618 34.48186 2451.63414 2381.43994 0.00042
1619 34.49886 2637.20474 2611.20996 0.00038
1620 34.51586 2898.81762 2766.75977 0.00036
1621 34.53286 3254.56014 3069.16016 0.00033
1622 34.54986 3673.56777 3588.01025 0.00028
1623 34.56686 3994.95195 3819.23999 0.00026
1624 34.58386 3978.50781 3844.00000 0.00026
1625 34.60086 3656.34902 3721.00000 0.00027
1626 34.61786 3402.21098 3481.00000 0.00029
1627 34.63486 3369.37246 3317.75977 0.00030
1628 34.65186 3454.02409 3387.23999 0.00030
1629 34.66886 3483.59870 3564.09009 0.00028
1630 34.68586 3404.73356 3469.21021 0.00029
1631 34.70286 3377.36044 3648.16016 0.00027
1632 34.71986 3534.83758 3757.68994 0.00027
1633 34.73686 3908.37020 4316.48975 0.00023
1634 34.75386 4520.67647 5041.00000 0.00020
1635 34.77086 5385.48356 5867.55957 0.00017
1636 34.78786 6375.52975 6272.63965 0.00016
1637 34.80486 7058.30111 6480.25000 0.00015
1638 34.82186 7019.78354 6528.64063 0.00015
1639 34.83886 6623.16497 6674.88965 0.00015
1640 34.85586 6641.37141 6988.95996 0.00014
1641 34.87286 7251.82956 7327.35986 0.00014
1642 34.88986 7958.54919 7656.25000 0.00013
1643 34.90686 7890.78193 7691.28955 0.00013
1644 34.92386 6799.44041 6955.56006 0.00014
1645 34.94086 5633.93144 6006.25000 0.00017
1646 34.95786 5044.81220 5343.60986 0.00019
1647 34.97486 4939.09854 5041.00000 0.00020
1648 34.99186 4930.49329 4844.15967 0.00021
1649 35.00886 4726.36865 4664.89063 0.00021
1650 35.02586 4505.93683 4382.43945 0.00023
1651 35.04286 4538.64079 4238.00977 0.00024
1652 35.05986 4766.66544 4382.43945 0.00023
1653 35.07686 4837.68054 4664.89063 0.00021
1654 35.09386 4474.87974 4678.56006 0.00021
1655 35.11086 3936.37057 4186.08984 0.00024
1656 35.12786 3602.88577 3612.00977 0.00028
1657 35.14486 3516.39783 3398.88989 0.00029
1658 35.16186 3480.27095 3260.40991 0.00031
1659 35.17886 3279.24079 3283.28979 0.00030
1660 35.19586 2937.45141 3147.20972 0.00032
1661 35.21286 2640.67786 2787.83984 0.00036
1662 35.22986 2464.91588 2480.04004 0.00040
1663 35.24686 2370.22514 2294.41016 0.00044
1664 35.26386 2298.74292 2313.60986 0.00043
1665 35.28086 2226.30168 2256.25000 0.00044
1666 35.29786 2173.66968 2190.23999 0.00046
1667 35.31486 2149.51575 2199.61011 0.00045
1668 35.33186 2142.75513 2116.00000 0.00047
1669 35.34886 2132.73682 2061.16016 0.00049
1670 35.36586 2102.87368 2034.00989 0.00049
1671 35.38286 2064.83334 2052.08984 0.00049
1672 35.39986 2039.27133 2043.04004 0.00049
1673 35.41686 2029.33954 2007.03992 0.00050
1674 35.43386 2029.68725 2052.08984 0.00049
1675 35.45086 2034.65681 1971.36011 0.00051
1676 35.46786 2043.38480 2034.00989 0.00049
1677 35.48486 2062.01233 2134.44019 0.00047
1678 35.50186 2097.13819 2171.55981 0.00046
1679 35.51886 2154.04346 2227.84009 0.00045
1680 35.53586 2239.86148 2265.75977 0.00044
1681 35.55286 2363.60679 2294.41016 0.00044
1682 35.56986 2525.55523 2460.15991 0.00041
1683 35.58686 2679.92956 2601.00000 0.00038
1684 35.60386 2709.75759 2704.00000 0.00037
1685 35.62086 2569.24034 2724.84009 0.00037
1686 35.63786 2416.86181 2580.63989 0.00039
1687 35.65486 2349.62054 2401.00000 0.00042
1688 35.67186 2347.92793 2352.25000 0.00043
1689 35.68886 2339.81324 2352.25000 0.00043
1690 35.70586 2261.18606 2265.75977 0.00044
1691 35.72286 2145.34458 2152.96021 0.00046
1692 35.73986 2053.95195 2061.16016 0.00049
1693 35.75686 1998.43797 2034.00989 0.00049
1694 35.77386 1966.72862 1989.15991 0.00050
1695 35.79086 1948.16074 1953.64001 0.00051
1696 35.80786 1936.93429 1936.00000 0.00052
1697 35.82486 1930.19617 1883.56018 0.00053
1698 35.84186 1926.50569 1883.56018 0.00053
1699 35.85886 1925.11640 1900.95984 0.00053
1700 35.87586 1925.63774 1927.21008 0.00052
1701 35.89286 1927.88009 1900.95984 0.00053
1702 35.90986 1931.81221 1892.25000 0.00053
1703 35.92686 1937.62278 1892.25000 0.00053
1704 35.94386 1945.69633 1927.21008 0.00052
1705 35.96086 1956.78873 1962.48999 0.00051
1706 35.97786 1972.13680 1953.64001 0.00051
1707 35.99486 1993.38886 1989.15991 0.00050
1708 36.01186 2022.84362 2016.01013 0.00050
1709 36.02886 2063.86415 1998.09009 0.00050
1710 36.04586 2121.20474 2025.00000 0.00049
1711 36.06286 2201.66742 2190.23999 0.00046
1712 36.07986 2314.99771 2313.60986 0.00043
1713 36.09686 2475.38363 2401.00000 0.00042
1714 36.11386 2703.20470 2550.25000 0.00039
1715 36.13086 3024.74107 2862.25000 0.00035
1716 36.14786 3465.98253 3147.20972 0.00032
1717 36.16486 4027.93325 3745.44019 0.00027
1718 36.18186 4604.69872 4369.20996 0.00023
1719 36.19886 4888.86634 4858.08936 0.00021
1720 36.21586 4621.83398 4970.25000 0.00020
1721 36.23286 4069.45334 4448.88965 0.00022
1722 36.24986 3688.11219 3672.35986 0.00027
1723 36.26686 3582.04620 3398.88989 0.00029
1724 36.28386 3570.62067 3492.80981 0.00029
1725 36.30086 3405.23473 3433.95972 0.00029
1726 36.31786 3032.13375 3260.40991 0.00031
1727 36.33486 2639.22134 2735.29004 0.00037
1728 36.35186 2366.45704 2371.69019 0.00042
1729 36.36886 2204.81067 2143.68994 0.00047
1730 36.38586 2109.42978 1998.09009 0.00050
1731 36.40286 2049.88394 1918.43994 0.00052
1732 36.41986 2010.43010 2025.00000 0.00049
1733 36.43686 1983.14599 1918.43994 0.00052
1734 36.45386 1963.79651 1857.60986 0.00054
1735 36.47086 1950.00222 1953.64001 0.00051
1736 36.48786 1940.36930 1909.69006 0.00052
1737 36.50486 1934.09420 1918.43994 0.00052
1738 36.52186 1930.77882 1927.21008 0.00052
1739 36.53886 1930.33991 1944.80981 0.00051
1740 36.55586 1932.98864 2016.01013 0.00050
1741 36.57286 1939.40569 2007.03992 0.00050
1742 36.58986 1950.70034 1962.48999 0.00051
1743 36.60686 1968.40416 1944.80981 0.00051
1744 36.62386 1994.77165 1971.36011 0.00051
1745 36.64086 2033.11846 1998.09009 0.00050
1746 36.65786 2088.41004 2116.00000 0.00047
1747 36.67486 2168.17365 2180.89014 0.00046
1748 36.69186 2283.43500 2162.25000 0.00046
1749 36.70886 2447.71168 2352.25000 0.00043
1750 36.72586 2667.84977 2641.96021 0.00038
1751 36.74286 2914.48248 2872.95972 0.00035
1752 36.75986 3085.03160 2981.15991 0.00034
1753 36.77686 3057.44645 3025.00000 0.00033
1754 36.79386 2871.42313 3047.04004 0.00033
1755 36.81086 2722.58755 2905.21021 0.00034
1756 36.82786 2701.38387 2724.84009 0.00037
1757 36.84486 2766.15289 2714.40991 0.00037
1758 36.86186 2823.74101 2735.29004 0.00037
1759 36.87886 2804.04269 2714.40991 0.00037
1760 36.89586 2713.26675 2641.96021 0.00038
1761 36.91286 2573.71019 2550.25000 0.00039
1762 36.92986 2408.54924 2410.80981 0.00041
1763 36.94686 2283.95300 2237.29004 0.00045
1764 36.96386 2225.65396 2171.55981 0.00046
1765 36.98086 2208.10392 2134.44019 0.00047
1766 36.99786 2187.43512 2097.63989 0.00048
1767 37.01486 2132.96516 2088.48999 0.00048
1768 37.03186 2060.54123 2061.16016 0.00049
1769 37.04886 2003.94288 2025.00000 0.00049
1770 37.06586 1970.32513 1980.25000 0.00050
1771 37.08286 1953.40904 1953.64001 0.00051
1772 37.09986 1947.37407 1989.15991 0.00050
1773 37.11686 1949.35578 2034.00989 0.00049
1774 37.13386 1958.67534 1989.15991 0.00050
1775 37.15086 1976.07591 2016.01013 0.00050
1776 37.16786 2003.48061 2034.00989 0.00049
1777 37.18486 2044.22403 2070.25000 0.00048
1778 37.20186 2103.64354 2125.20996 0.00047
1779 37.21886 2189.77307 2209.00000 0.00045
1780 37.23586 2313.47835 2342.56006 0.00043
1781 37.25286 2484.24804 2530.08984 0.00040
1782 37.26986 2692.64398 2693.61011 0.00037
1783 37.28686 2874.94442 2862.25000 0.00035
1784 37.30386 2913.08728 2809.00000 0.00036
1785 37.32086 2778.92122 2745.76025 0.00036
1786 37.33786 2627.03139 2652.25000 0.00038
1787 37.35486 2569.64596 2580.63989 0.00039
1788 37.37186 2602.10264 2641.96021 0.00038
1789 37.38886 2660.01655 2560.35986 0.00039
1790 37.40586 2676.01989 2756.25000 0.00036
1791 37.42286 2667.39222 2662.55981 0.00038
1792 37.43986 2721.40310 2693.61011 0.00037
1793 37.45686 2889.56692 2809.00000 0.00036
1794 37.47386 3182.46669 3047.04004 0.00033
1795 37.49086 3569.18281 3364.00000 0.00030
1796 37.50786 3935.25875 3831.61011 0.00026
1797 37.52486 4102.12596 4356.00000 0.00023
1798 37.54186 4037.31823 4212.01025 0.00024
1799 37.55886 3916.98039 3943.83984 0.00025
1800 37.57586 3786.74351 3672.35986 0.00027
1801 37.59286 3609.89585 3564.09009 0.00028
1802 37.60986 3424.70297 3398.88989 0.00029
1803 37.62686 3218.78056 3271.84009 0.00031
1804 37.64386 2994.31892 3069.16016 0.00033
1805 37.66086 2791.47501 2894.43994 0.00035
1806 37.67786 2585.16001 2611.20996 0.00038
1807 37.69486 2372.94067 2440.36011 0.00041
1808 37.71186 2203.19705 2275.29004 0.00044
1809 37.72886 2090.30459 2143.68994 0.00047
1810 37.74586 2019.60465 2043.04004 0.00049
1811 37.76286 1974.38013 2025.00000 0.00049
1812 37.77986 1943.72327 1998.09009 0.00050
1813 37.79686 1921.75464 2016.01013 0.00050
1814 37.81386 1905.50567 1900.95984 0.00053
1815 37.83086 1893.46625 1918.43994 0.00052
1816 37.84786 1884.60349 1980.25000 0.00050
1817 37.86486 1878.32696 1927.21008 0.00052
1818 37.88186 1874.35031 1883.56018 0.00053
1819 37.89886 1872.61539 1892.25000 0.00053
1820 37.91586 1873.28337 1866.24011 0.00054
1821 37.93286 1876.80912 1849.00000 0.00054
1822 37.94986 1883.92052 1900.95984 0.00053
1823 37.96686 1895.43761 1944.80981 0.00051
1824 37.98386 1911.04855 1944.80981 0.00051
1825 38.00086 1927.18655 1971.36011 0.00051
1826 38.01786 1936.03431 1998.09009 0.00050
1827 38.03486 1931.65561 1980.25000 0.00050
1828 38.05186 1919.27379 1989.15991 0.00050
1829 38.06886 1910.06881 2034.00989 0.00049
1830 38.08586 1908.70916 1980.25000 0.00050
1831 38.10286 1912.41973 1989.15991 0.00050
1832 38.11986 1915.48626 2034.00989 0.00049
1833 38.13686 1914.83880 2025.00000 0.00049
1834 38.15386 1913.69380 2016.01013 0.00050
1835 38.17086 1917.54049 1953.64001 0.00051
1836 38.18786 1929.34357 2034.00989 0.00049
1837 38.20486 1950.51703 2106.81006 0.00047
1838 38.22186 1982.98310 2079.35986 0.00048
1839 38.23886 2030.23048 2052.08984 0.00049
1840 38.25586 2098.11101 2199.61011 0.00045
1841 38.27286 2195.91569 2237.29004 0.00045
1842 38.28986 2336.55715 2332.88989 0.00043
1843 38.30686 2533.19331 2540.16016 0.00039
1844 38.32386 2786.14731 2766.75977 0.00036
1845 38.34086 3054.23927 3014.01025 0.00033
1846 38.35786 3230.91808 3203.55981 0.00031
1847 38.37486 3203.38566 3192.25000 0.00031
1848 38.39186 3005.33110 3003.03979 0.00033
1849 38.40886 2812.84745 2872.95972 0.00035
1850 38.42586 2728.63726 2777.29004 0.00036
1851 38.44286 2729.91941 2724.84009 0.00037
1852 38.45986 2732.83073 2872.95972 0.00035
1853 38.47686 2666.52416 2819.60986 0.00035
1854 38.49386 2549.14298 2652.25000 0.00038
1855 38.51086 2461.76780 2590.81006 0.00039
1856 38.52786 2451.35703 2580.63989 0.00039
1857 38.54486 2527.84583 2672.89014 0.00037
1858 38.56186 2697.60000 2819.60986 0.00035
1859 38.57886 2975.71666 3091.35986 0.00032
1860 38.59586 3375.18776 3516.48999 0.00028
1861 38.61286 3869.63368 3831.61011 0.00026
1862 38.62986 4332.35337 4316.48975 0.00023
1863 38.64686 4530.22156 4637.60986 0.00022
1864 38.66386 4327.39397 4369.20996 0.00023
1865 38.68086 3910.44133 3956.41016 0.00025
1866 38.69786 3578.57260 3600.00000 0.00028
1867 38.71486 3442.11586 3457.43994 0.00029
1868 38.73186 3413.41832 3410.56006 0.00029
1869 38.74886 3322.91092 3260.40991 0.00031
1870 38.76586 3077.46002 3080.25000 0.00032
1871 38.78286 2755.04175 2830.23999 0.00035
1872 38.79986 2477.68878 2470.09009 0.00040
1873 38.81686 2290.09100 2294.41016 0.00044
1874 38.83386 2178.26900 2180.89014 0.00046
1875 38.85086 2115.49259 2125.20996 0.00047
1876 38.86786 2080.85285 2125.20996 0.00047
1877 38.88486 2063.43233 2143.68994 0.00047
1878 38.90186 2061.26313 2134.44019 0.00047
1879 38.91886 2076.58939 2134.44019 0.00047
1880 38.93586 2112.71568 2162.25000 0.00046
1881 38.95286 2174.27351 2199.61011 0.00045
1882 38.96986 2269.15005 2265.75977 0.00044
1883 38.98686 2410.89472 2391.21021 0.00042
1884 39.00386 2617.78894 2611.20996 0.00038
1885 39.02086 2901.99960 2809.00000 0.00036
1886 39.03786 3243.20420 3113.63989 0.00032
1887 39.05486 3549.58408 3433.95972 0.00029
1888 39.07186 3663.32359 3660.25000 0.00027
1889 39.08886 3508.63599 3576.03979 0.00028
1890 39.10586 3224.51050 3237.61011 0.00031
1891 39.12286 3003.94783 2937.64014 0.00034
1892 39.13986 2913.00071 2745.76025 0.00036
1893 39.15686 2892.43726 2745.76025 0.00036
1894 39.17386 2831.21585 2735.29004 0.00037
1895 39.19086 2667.14092 2652.25000 0.00038
1896 39.20786 2447.57767 2401.00000 0.00042
1897 39.22486 2253.15112 2246.76025 0.00045
1898 39.24186 2116.82318 2034.00989 0.00049
1899 39.25886 2031.36489 2007.03992 0.00050
1900 39.27586 1979.61599 1971.36011 0.00051
1901 39.29286 1948.13145 1883.56018 0.00053
1902 39.30986 1928.87401 1918.43994 0.00052
1903 39.32686 1917.66623 1831.83997 0.00055
1904 39.34386 1912.55738 1944.80981 0.00051
1905 39.36086 1912.86223 1909.69006 0.00052
1906 39.37786 1918.71724 1953.64001 0.00051
1907 39.39486 1930.82358 1909.69006 0.00052
1908 39.41186 1950.01678 1971.36011 0.00051
1909 39.42886 1976.39323 2070.25000 0.00048
1910 39.44586 2008.28756 2088.48999 0.00048
1911 39.46286 2043.64690 2209.00000 0.00045
1912 39.47986 2086.38546 2180.89014 0.00046
1913 39.49686 2149.71380 2284.83984 0.00044
1914 39.51386 2248.93367 2371.69019 0.00042
1915 39.53086 2397.55316 2460.15991 0.00041
1916 39.54786 2604.59465 2683.23999 0.00037
1917 39.56486 2863.30835 2798.41016 0.00036
1918 39.58186 3130.19106 3047.04004 0.00033
1919 39.59886 3309.43646 3260.40991 0.00031
1920 39.61586 3300.38168 3260.40991 0.00031
1921 39.63286 3126.09774 3158.44019 0.00032
1922 39.64986 2944.42991 2959.36011 0.00034
1923 39.66686 2866.86534 2926.80981 0.00034
1924 39.68386 2894.38162 2894.43994 0.00035
1925 39.70086 2965.01118 2894.43994 0.00035
1926 39.71786 3012.45880 3014.01025 0.00033
1927 39.73486 3035.56744 2992.09009 0.00033
1928 39.75186 3099.12445 3058.08984 0.00033
1929 39.76886 3229.13150 3192.25000 0.00031
1930 39.78586 3363.35481 3283.28979 0.00030
1931 39.80286 3404.39053 3226.23999 0.00031
1932 39.81986 3346.88716 3249.00000 0.00031
1933 39.83686 3309.25054 3226.23999 0.00031
1934 39.85386 3367.73522 3352.41016 0.00030
1935 39.87086 3471.42866 3457.43994 0.00029
1936 39.88786 3487.98101 3433.95972 0.00029
1937 39.90486 3329.09277 3306.25000 0.00030
1938 39.92186 3058.04188 3113.63989 0.00032
1939 39.93886 2809.70217 2926.80981 0.00034
1940 39.95586 2651.36739 2766.75977 0.00036
1941 39.97286 2560.46443 2611.20996 0.00038
1942 39.98986 2474.24919 2500.00000 0.00040
1943 40.00686 2353.86360 2410.80981 0.00041
1944 40.02386 2219.11572 2294.41016 0.00044
1945 40.04086 2105.23826 2190.23999 0.00046
1946 40.05786 2025.05938 2106.81006 0.00047
1947 40.07486 1974.37265 2070.25000 0.00048
1948 40.09186 1944.71387 2007.03992 0.00050
1949 40.10886 1929.31737 1927.21008 0.00052
1950 40.12586 1924.54728 1874.88989 0.00053
1951 40.14286 1929.25664 1953.64001 0.00051
1952 40.15986 1943.98179 1998.09009 0.00050
1953 40.17686 1970.41516 1989.15991 0.00050
1954 40.19386 2010.01679 1944.80981 0.00051
1955 40.21086 2061.30813 2025.00000 0.00049
1956 40.22786 2115.94041 2125.20996 0.00047
1957 40.24486 2157.56906 2256.25000 0.00044
1958 40.26186 2172.83238 2256.25000 0.00044
1959 40.27886 2170.97685 2265.75977 0.00044
1960 40.29586 2180.95835 2304.00000 0.00043
1961 40.31286 2224.89818 2294.41016 0.00044
1962 40.32986 2308.45530 2401.00000 0.00042
1963 40.34686 2426.01547 2520.04004 0.00040
1964 40.36386 2567.34749 2621.44019 0.00038
1965 40.38086 2726.05074 2937.64014 0.00034
1966 40.39786 2905.42662 3237.61011 0.00031
1967 40.41486 3117.17888 3249.00000 0.00031
1968 40.43186 3356.62673 3158.44019 0.00032
1969 40.44886 3552.82201 3528.36011 0.00028
1970 40.46586 3589.28053 3492.80981 0.00029
1971 40.48286 3445.56980 3528.36011 0.00028
1972 40.49986 3261.25735 3340.83984 0.00030
1973 40.51686 3167.32851 3249.00000 0.00031
1974 40.53386 3202.71092 3214.89014 0.00031
1975 40.55086 3332.22378 3340.83984 0.00030
1976 40.56786 3476.18125 3410.56006 0.00029
1977 40.58486 3566.23024 3410.56006 0.00029
1978 40.60186 3571.58437 3410.56006 0.00029
1979 40.61886 3452.51598 3249.00000 0.00031
1980 40.63586 3211.18760 3047.04004 0.00033
1981 40.65286 2953.15334 2809.00000 0.00036
1982 40.66986 2776.07716 2704.00000 0.00037
1983 40.68686 2694.55222 2580.63989 0.00039
1984 40.70386 2659.04366 2590.81006 0.00039
1985 40.72086 2596.89309 2470.09009 0.00040
1986 40.73786 2469.99979 2361.95996 0.00042
1987 40.75486 2309.07546 2218.40991 0.00045
1988 40.77186 2164.29119 2097.63989 0.00048
1989 40.78886 2057.35629 2034.00989 0.00049
1990 40.80586 1985.00153 2034.00989 0.00049
1991 40.82286 1936.32616 2025.00000 0.00049
1992 40.83986 1902.88249 1927.21008 0.00052
1993 40.85686 1880.05438 1909.69006 0.00052
1994 40.87386 1865.18614 1883.56018 0.00053
1995 40.89086 1856.59460 1909.69006 0.00052
1996 40.90786 1853.39489 1936.00000 0.00052
1997 40.92486 1855.49375 1918.43994 0.00052
1998 40.94186 1863.52973 1927.21008 0.00052
1999 40.95886 1879.00248 1980.25000 0.00050
2000 40.97586 1904.54528 2016.01013 0.00050
2001 40.99286 1944.38227 2025.00000 0.00049
2002 41.00986 2004.68903 2052.08984 0.00049
2003 41.02686 2093.35645 2106.81006 0.00047
2004 41.04386 2217.19678 2256.25000 0.00044
2005 41.06086 2374.75429 2332.88989 0.00043
2006 41.07786 2544.12167 2430.48999 0.00041
2007 41.09486 2671.95486 2560.35986 0.00039
2008 41.11186 2692.08741 2560.35986 0.00039
2009 41.12886 2596.42471 2580.63989 0.00039
2010 41.14586 2463.17834 2460.15991 0.00041
2011 41.16286 2367.93003 2342.56006 0.00043
2012 41.17986 2328.61917 2246.76025 0.00045
2013 41.19686 2318.26095 2256.25000 0.00044
2014 41.21386 2290.21243 2275.29004 0.00044
2015 41.23086 2215.84523 2209.00000 0.00045
2016 41.24786 2113.48777 2180.89014 0.00046
2017 41.26486 2018.71106 2116.00000 0.00047
2018 41.28186 1948.63180 1971.36011 0.00051
2019 41.29886 1903.31255 1962.48999 0.00051
2020 41.31586 1876.65490 1866.24011 0.00054
2021 41.33286 1862.52877 1857.60986 0.00054
2022 41.34986 1856.65581 1927.21008 0.00052
2023 41.36686 1856.65217 1866.24011 0.00054
2024 41.38386 1861.66021 1953.64001 0.00051
2025 41.40086 1871.83077 1874.88989 0.00053
2026 41.41786 1888.00473 1971.36011 0.00051
2027 41.43486 1911.92060 2079.35986 0.00048
2028 41.45186 1946.28689 2007.03992 0.00050
2029 41.46886 1994.93337 2034.00989 0.00049
2030 41.48586 2062.96383 2088.48999 0.00048
2031 41.50286 2156.80073 2180.89014 0.00046
2032 41.51986 2284.85501 2237.29004 0.00045
2033 41.53686 2457.90735 2323.23999 0.00043
2034 41.55386 2685.16345 2500.00000 0.00040
2035 41.57086 2963.95151 2756.25000 0.00036
2036 41.58786 3264.58400 3091.35986 0.00032
2037 41.60486 3512.71402 3469.21021 0.00029
2038 41.62186 3606.88436 3881.28979 0.00026
2039 41.63886 3515.24001 4057.69019 0.00025
2040 41.65586 3337.69211 3844.00000 0.00026
2041 41.67286 3203.30015 3457.43994 0.00029
2042 41.68986 3165.86390 3192.25000 0.00031
2043 41.70686 3200.77539 3226.23999 0.00031
2044 41.72386 3245.86831 3317.75977 0.00030
2045 41.74086 3260.62925 3481.00000 0.00029
2046 41.75786 3272.23026 3433.95972 0.00029
2047 41.77486 3338.50107 3481.00000 0.00029
2048 41.79186 3471.24097 3528.36011 0.00028
2049 41.80886 3607.62398 3528.36011 0.00028
2050 41.82586 3645.11219 3672.35986 0.00027
2051 41.84286 3538.99884 3696.63989 0.00027
2052 41.85986 3366.48500 3457.43994 0.00029
2053 41.87686 3248.97784 3271.84009 0.00031
2054 41.89386 3253.19289 3169.68994 0.00032
2055 41.91086 3376.12322 3180.96021 0.00031
2056 41.92786 3572.36804 3375.60986 0.00030
2057 41.94486 3792.57376 3660.25000 0.00027
2058 41.96186 4016.27611 3943.83984 0.00025
2059 41.97886 4229.19502 4147.36035 0.00024
2060 41.99586 4375.74836 4422.25000 0.00023
2061 42.01286 4372.89830 4556.25000 0.00022
2062 42.02986 4191.10533 4408.95996 0.00023
2063 42.04686 3908.74707 4083.21021 0.00024
2064 42.06386 3647.19184 3708.81030 0.00027
2065 42.08086 3475.30604 3387.23999 0.00030
2066 42.09786 3379.05767 3283.28979 0.00030
2067 42.11486 3293.19526 3306.25000 0.00030
2068 42.13186 3157.88191 3317.75977 0.00030
2069 42.14886 2968.20763 3136.00000 0.00032
2070 42.16586 2769.28102 2787.83984 0.00036
2071 42.18286 2608.98904 2570.48999 0.00039
2072 42.19986 2511.75996 2510.00977 0.00040
2073 42.21686 2482.56590 2540.16016 0.00039
2074 42.23386 2515.57041 2530.08984 0.00040
2075 42.25086 2594.32246 2631.68994 0.00038
2076 42.26786 2691.39784 2745.76025 0.00036
2077 42.28486 2778.25476 2798.41016 0.00036
2078 42.30186 2850.89848 3003.03979 0.00033
2079 42.31886 2944.98127 2970.25000 0.00034
2080 42.33586 3104.73444 3124.81006 0.00032
2081 42.35286 3336.27720 3375.60986 0.00030
2082 42.36986 3584.14535 3528.36011 0.00028
2083 42.38686 3739.49245 3721.00000 0.00027
2084 42.40386 3703.42660 3708.81030 0.00027
2085 42.42086 3488.73496 3504.64014 0.00029
2086 42.43786 3222.59562 3158.44019 0.00032
2087 42.45486 3020.64151 2981.15991 0.00034
2088 42.47186 2912.39082 2798.41016 0.00036
2089 42.48886 2855.51434 2894.43994 0.00035
2090 42.50586 2778.18846 2851.56006 0.00035
2091 42.52286 2635.38271 2621.44019 0.00038
2092 42.53986 2446.11233 2500.00000 0.00040
2093 42.55686 2261.65079 2284.83984 0.00044
2094 42.57386 2114.58684 2079.35986 0.00048
2095 42.59086 2009.99757 1980.25000 0.00050
2096 42.60786 1938.65140 1909.69006 0.00052
2097 42.62486 1888.60544 1857.60986 0.00054
2098 42.64186 1851.46941 1857.60986 0.00054
2099 42.65886 1823.24518 1823.29004 0.00055
2100 42.67586 1802.07457 1789.28992 0.00056
2101 42.69286 1786.63370 1764.00000 0.00057
2102 42.70986 1775.82584 1772.40991 0.00056
2103 42.72686 1768.73225 1806.25000 0.00055
2104 42.74386 1764.65298 1806.25000 0.00055
2105 42.76086 1762.86325 1747.23999 0.00057
2106 42.77786 1762.53340 1823.29004 0.00055
2107 42.79486 1763.01658 1849.00000 0.00054
2108 42.81186 1764.53400 1780.84009 0.00056
2109 42.82886 1768.55341 1797.76013 0.00056
2110 42.84586 1777.13444 1866.24011 0.00054
2111 42.86286 1792.02759 1789.28992 0.00056
2112 42.87986 1814.58942 1747.23999 0.00057
2113 42.89686 1845.33602 1806.25000 0.00055
2114 42.91386 1883.24651 1857.60986 0.00054
2115 42.93086 1924.90596 1900.95984 0.00053
2116 42.94786 1964.68744 1980.25000 0.00050
2117 42.96486 1997.48814 2034.00989 0.00049
2118 42.98186 2020.07415 2025.00000 0.00049
2119 42.99886 2028.79798 2034.00989 0.00049
2120 43.01586 2023.51344 2097.63989 0.00048
2121 43.03286 2013.58800 2043.04004 0.00049
2122 43.04986 2011.79700 2088.48999 0.00048
2123 43.06686 2025.85681 2106.81006 0.00047
2124 43.08386 2059.36143 2106.81006 0.00047
2125 43.10086 2115.30691 2190.23999 0.00046
2126 43.11786 2198.22948 2332.88989 0.00043
2127 43.13486 2316.92640 2410.80981 0.00041
2128 43.15186 2480.99087 2381.43994 0.00042
2129 43.16886 2687.51480 2683.23999 0.00037
2130 43.18586 2906.50279 2787.83984 0.00036
2131 43.20286 3076.99567 2851.56006 0.00035
2132 43.21986 3132.70575 3014.01025 0.00033
2133 43.23686 3057.82055 3025.00000 0.00033
2134 43.25386 2909.18093 3036.00977 0.00033
2135 43.27086 2764.78991 2872.95972 0.00035
2136 43.28786 2670.60838 2766.75977 0.00036
2137 43.30486 2624.44074 2652.25000 0.00038
2138 43.32186 2588.40943 2621.44019 0.00038
2139 43.33886 2522.13954 2580.63989 0.00039
2140 43.35586 2417.59475 2510.00977 0.00040
2141 43.37286 2298.85739 2440.36011 0.00041
2142 43.38986 2193.93718 2294.41016 0.00044
2143 43.40686 2118.08825 2227.84009 0.00045
2144 43.42386 2074.42167 2209.00000 0.00045
2145 43.44086 2063.68467 2180.89014 0.00046
2146 43.45786 2089.78565 2256.25000 0.00044
2147 43.47486 2157.10115 2190.23999 0.00046
2148 43.49186 2264.97933 2342.56006 0.00043
2149 43.50886 2401.87508 2391.21021 0.00042
2150 43.52586 2538.60219 2530.08984 0.00040
2151 43.54286 2628.01695 2662.55981 0.00038
2152 43.55986 2627.26988 2683.23999 0.00037
2153 43.57686 2541.08931 2580.63989 0.00039
2154 43.59386 2426.71838 2440.36011 0.00041
2155 43.61086 2338.90354 2391.21021 0.00042
2156 43.62786 2295.52677 2275.29004 0.00044
2157 43.64486 2282.74356 2256.25000 0.00044
2158 43.66186 2270.71565 2332.88989 0.00043
2159 43.67886 2235.85705 2209.00000 0.00045
2160 43.69586 2182.74443 2152.96021 0.00046
2161 43.71286 2138.50936 2125.20996 0.00047
2162 43.72986 2127.29152 2097.63989 0.00048
2163 43.74686 2159.66077 2097.63989 0.00048
2164 43.76386 2234.02402 2134.44019 0.00047
2165 43.78086 2336.86762 2209.00000 0.00045
2166 43.79786 2441.71142 2352.25000 0.00043
2167 43.81486 2515.27268 2440.36011 0.00041
2168 43.83186 2540.64829 2430.48999 0.00041
2169 43.84886 2539.87381 2430.48999 0.00041
2170 43.86586 2558.66240 2430.48999 0.00041
2171 43.88286 2626.01530 2440.36011 0.00041
2172 43.89986 2732.85483 2560.35986 0.00039
2173 43.91686 2833.12131 2714.40991 0.00037
2174 43.93386 2863.05935 2916.00000 0.00034
2175 43.95086 2786.54255 3047.04004 0.00033
2176 43.96786 2632.53940 3003.03979 0.00033
2177 43.98486 2469.04930 2745.76025 0.00036
2178 44.00186 2344.95218 2420.64014 0.00041
2179 44.01886 2268.86211 2209.00000 0.00045
2180 44.03586 2220.23978 2152.96021 0.00046
2181 44.05286 2168.35295 2256.25000 0.00044
2182 44.06986 2094.40478 2313.60986 0.00043
2183 44.08686 2004.14864 2199.61011 0.00045
2184 44.10386 1916.39651 2143.68994 0.00047
2185 44.12086 1844.45275 1936.00000 0.00052
2186 44.13786 1791.70748 1789.28992 0.00056
2187 44.15486 1755.93066 1780.84009 0.00056
2188 44.17186 1733.25469 1738.89001 0.00058
2189 44.18886 1720.31725 1713.96008 0.00058
2190 44.20586 1715.09885 1713.96008 0.00058
2191 44.22286 1716.92142 1648.35986 0.00061
2192 44.23986 1726.08348 1747.23999 0.00057
2193 44.25686 1743.28646 1780.84009 0.00056
2194 44.27386 1768.64919 1772.40991 0.00056
2195 44.29086 1800.32672 1764.00000 0.00057
2196 44.30786 1832.88711 1840.41016 0.00054
2197 44.32486 1856.69827 1814.75989 0.00055
2198 44.34186 1861.68203 1883.56018 0.00053
2199 44.35886 1846.51664 1909.69006 0.00052
2200 44.37586 1822.03759 1789.28992 0.00056
2201 44.39286 1801.12975 1780.84009 0.00056
2202 44.40986 1789.75170 1806.25000 0.00055
2203 44.42686 1786.44073 1764.00000 0.00057
2204 44.44386 1785.05837 1747.23999 0.00057
2205 44.46086 1779.09747 1764.00000 0.00057
2206 44.47786 1767.17796 1764.00000 0.00057
2207 44.49486 1754.11883 1814.75989 0.00055
2208 44.51186 1745.82791 1831.83997 0.00055
2209 44.52886 1745.89203 1738.89001 0.00058
2210 44.54586 1756.45943 1780.84009 0.00056
2211 44.56286 1779.88879 1789.28992 0.00056
2212 44.57986 1819.81063 1806.25000 0.00055
2213 44.59686 1881.88078 1883.56018 0.00053
2214 44.61386 1973.65730 2034.00989 0.00049
2215 44.63086 2102.80430 2052.08984 0.00049
2216 44.64786 2273.04027 2134.44019 0.00047
2217 44.66486 2477.53547 2342.56006 0.00043
2218 44.68186 2690.69619 2580.63989 0.00039
2219 44.69886 2864.43870 2851.56006 0.00035
2220 44.71586 2946.09530 3158.44019 0.00032
2221 44.73286 2922.70161 3203.55981 0.00031
2222 44.74986 2836.35918 3047.04004 0.00033
2223 44.76686 2738.31635 2735.29004 0.00037
2224 44.78386 2655.83244 2570.48999 0.00039
2225 44.80086 2595.08102 2500.00000 0.00040
2226 44.81786 2543.82690 2540.16016 0.00039
2227 44.83486 2479.43740 2611.20996 0.00038
2228 44.85186 2392.61820 2570.48999 0.00039
2229 44.86886 2296.50248 2420.64014 0.00041
2230 44.88586 2207.60735 2199.61011 0.00045
2231 44.90286 2134.05192 2143.68994 0.00047
2232 44.91986 2077.76318 2143.68994 0.00047
2233 44.93686 2034.94330 2116.00000 0.00047
2234 44.95386 1998.04114 2171.55981 0.00046
2235 44.97086 1964.40782 2162.25000 0.00046
2236 44.98786 1940.90338 2088.48999 0.00048
2237 45.00486 1937.45474 2052.08984 0.00049
2238 45.02186 1960.90351 2025.00000 0.00049
2239 45.03886 2013.90771 2016.01013 0.00050
2240 45.05586 2094.84858 2088.48999 0.00048
2241 45.07286 2197.50292 2265.75977 0.00044
2242 45.08986 2310.37435 2420.64014 0.00041
2243 45.10686 2412.94434 2601.00000 0.00038
2244 45.12386 2473.23869 2777.29004 0.00036
2245 45.14086 2462.51255 3025.00000 0.00033
2246 45.15786 2385.66797 2992.09009 0.00033
2247 45.17486 2285.41840 2809.00000 0.00036
2248 45.19186 2204.49563 2490.01025 0.00040
2249 45.20886 2159.28584 2256.25000 0.00044
2250 45.22586 2141.55222 2294.41016 0.00044
2251 45.24286 2128.65582 2313.60986 0.00043
2252 45.25986 2098.50790 2332.88989 0.00043
2253 45.27686 2048.06953 2294.41016 0.00044
2254 45.29386 1995.65148 2116.00000 0.00047
2255 45.31086 1962.01088 2125.20996 0.00047
2256 45.32786 1957.59387 2034.00989 0.00049
2257 45.34486 1982.19806 1918.43994 0.00052
2258 45.36186 2027.50212 2043.04004 0.00049
2259 45.37886 2078.10241 2007.03992 0.00050
2260 45.39586 2116.08150 2116.00000 0.00047
2261 45.41286 2131.84545 2106.81006 0.00047
2262 45.42986 2132.17308 2088.48999 0.00048
2263 45.44686 2131.70949 2097.63989 0.00048
2264 45.46386 2136.57856 2025.00000 0.00049
2265 45.48086 2138.80537 2079.35986 0.00048
2266 45.49786 2124.62033 2106.81006 0.00047
2267 45.51486 2087.84307 2125.20996 0.00047
2268 45.53186 2035.23576 2143.68994 0.00047
2269 45.54886 1980.20747 2079.35986 0.00048
2270 45.56586 1933.32803 1989.15991 0.00050
2271 45.58286 1896.88426 1874.88989 0.00053
2272 45.59986 1866.22320 1874.88989 0.00053
2273 45.61686 1836.18360 1866.24011 0.00054
2274 45.63386 1807.01018 1831.83997 0.00055
2275 45.65086 1783.99939 1874.88989 0.00053
2276 45.66786 1772.28802 1857.60986 0.00054
2277 45.68486 1773.28858 1823.29004 0.00055
2278 45.70186 1783.92039 1823.29004 0.00055
2279 45.71886 1796.97055 1866.24011 0.00054
2280 45.73586 1802.76627 1866.24011 0.00054
2281 45.75286 1793.75461 1840.41016 0.00054
2282 45.76986 1770.71819 1806.25000 0.00055
2283 45.78686 1742.89932 1738.89001 0.00058
2284 45.80386 1719.81879 1713.96008 0.00058
2285 45.82086 1705.35701 1713.96008 0.00058
2286 45.83786 1697.81260 1681.00000 0.00059
2287 45.85486 1692.04210 1681.00000 0.00059
2288 45.87186 1682.66957 1722.25000 0.00058
2289 45.88886 1667.95715 1697.44006 0.00059
2290 45.90586 1650.50653 1656.49011 0.00060
2291 45.92286 1633.94756 1656.49011 0.00060
2292 45.93986 1620.47520 1632.16016 0.00061
2293 45.95686 1611.15056 1632.16016 0.00061
2294 45.97386 1606.47769 1600.00000 0.00063
2295 45.99086 1606.71207 1608.00989 0.00062
2296 46.00786 1612.13990 1600.00000 0.00063
2297 46.02486 1623.47156 1600.00000 0.00063
2298 46.04186 1642.13386 1592.01013 0.00063
2299 46.05886 1670.30685 1632.16016 0.00061
2300 46.07586 1710.51963 1713.96008 0.00058
2301 46.09286 1764.40626 1672.81018 0.00060
2302 46.10986 1830.73253 1780.84009 0.00056
2303 46.12686 1903.16122 1849.00000 0.00054
2304 46.14386 1969.02658 1874.88989 0.00053
2305 46.16086 2012.36004 1989.15991 0.00050
2306 46.17786 2022.82402 2007.03992 0.00050
2307 46.19486 2003.72503 2007.03992 0.00050
2308 46.21186 1970.47338 1989.15991 0.00050
2309 46.22886 1941.54608 1962.48999 0.00051
2310 46.24586 1927.73262 1789.28992 0.00056
2311 46.26286 1927.53743 1849.00000 0.00054
2312 46.27986 1930.01506 1874.88989 0.00053
2313 46.29686 1921.80965 1883.56018 0.00053
2314 46.31386 1894.84989 1849.00000 0.00054
2315 46.33086 1850.70672 1814.75989 0.00055
2316 46.34786 1799.50915 1755.61011 0.00057
2317 46.36486 1753.12222 1697.44006 0.00059
2318 46.38186 1718.70857 1722.25000 0.00058
2319 46.39886 1697.66127 1681.00000 0.00059
2320 46.41586 1687.58913 1648.35986 0.00061
2321 46.43286 1684.90490 1656.49011 0.00060
2322 46.44986 1687.51913 1648.35986 0.00061
2323 46.46686 1696.53406 1697.44006 0.00059
2324 46.48386 1715.11878 1664.63989 0.00060
2325 46.50086 1745.51765 1738.89001 0.00058
2326 46.51786 1786.60978 1722.25000 0.00058
2327 46.53486 1832.47482 1747.23999 0.00057
2328 46.55186 1872.22534 1892.25000 0.00053
2329 46.56886 1893.43784 1927.21008 0.00052
2330 46.58586 1890.76231 1936.00000 0.00052
2331 46.60286 1872.32609 1936.00000 0.00052
2332 46.61986 1854.17307 1883.56018 0.00053
2333 46.63686 1848.65740 1789.28992 0.00056
2334 46.65386 1858.72415 1797.76013 0.00056
2335 46.67086 1878.43851 1874.88989 0.00053
2336 46.68786 1896.38621 1927.21008 0.00052
2337 46.70486 1902.37161 1953.64001 0.00051
2338 46.72186 1895.52251 1962.48999 0.00051
2339 46.73886 1885.45659 1998.09009 0.00050
2340 46.75586 1884.05345 1962.48999 0.00051
2341 46.77286 1896.28325 1866.24011 0.00054
2342 46.78986 1916.92773 1927.21008 0.00052
2343 46.80686 1932.20309 2025.00000 0.00049
2344 46.82386 1926.85127 2052.08984 0.00049
2345 46.84086 1896.10010 2025.00000 0.00049
2346 46.85786 1850.48925 1918.43994 0.00052
2347 46.87486 1805.84470 1772.40991 0.00056
2348 46.89186 1772.07894 1722.25000 0.00058
2349 46.90886 1750.40060 1738.89001 0.00058
2350 46.92586 1735.45045 1755.61011 0.00057
2351 46.94286 1719.32489 1747.23999 0.00057
2352 46.95986 1697.10133 1738.89001 0.00058
2353 46.97686 1670.29617 1713.96008 0.00058
2354 46.99386 1644.05148 1624.08997 0.00062
2355 47.01086 1622.64212 1640.25000 0.00061
2356 47.02786 1607.94241 1624.08997 0.00062
2357 47.04486 1600.17349 1560.25000 0.00064
2358 47.06186 1598.83346 1616.04004 0.00062
2359 47.07886 1603.38098 1648.35986 0.00061
2360 47.09586 1613.59876 1672.81018 0.00060
2361 47.11286 1629.76054 1616.04004 0.00062
2362 47.12986 1652.58233 1608.00989 0.00062
2363 47.14686 1683.01950 1648.35986 0.00061
2364 47.16386 1722.35594 1764.00000 0.00057
2365 47.18086 1772.75958 1866.24011 0.00054
2366 47.19786 1838.17871 1936.00000 0.00052
2367 47.21486 1923.87548 1874.88989 0.00053
2368 47.23186 2033.41951 1918.43994 0.00052
2369 47.24886 2164.64555 2088.48999 0.00048
2370 47.26586 2307.00869 2237.29004 0.00045
2371 47.28286 2443.58644 2490.01025 0.00040
2372 47.29986 2559.23327 2601.00000 0.00038
2373 47.31686 2647.08187 2621.44019 0.00038
2374 47.33386 2704.48828 2672.89014 0.00037
2375 47.35086 2726.10502 2693.61011 0.00037
2376 47.36786 2707.75247 2611.20996 0.00038
2377 47.38486 2654.67314 2631.68994 0.00038
2378 47.40186 2578.00754 2580.63989 0.00039
2379 47.41886 2487.97178 2590.81006 0.00039
2380 47.43586 2394.20380 2540.16016 0.00039
2381 47.45286 2303.88750 2323.23999 0.00043
2382 47.46986 2217.02178 2116.00000 0.00047
2383 47.48686 2128.40081 2097.63989 0.00048
2384 47.50386 2035.59337 2007.03992 0.00050
2385 47.52086 1941.68329 1962.48999 0.00051
2386 47.53786 1851.69785 1831.83997 0.00055
2387 47.55486 1770.60542 1747.23999 0.00057
2388 47.57186 1702.44964 1705.68994 0.00059
2389 47.58886 1648.73103 1584.03992 0.00063
2390 47.60586 1608.27964 1497.69006 0.00067
2391 47.62286 1578.62721 1505.43994 0.00066
2392 47.63986 1557.09313 1505.43994 0.00066
2393 47.65686 1541.35108 1482.25000 0.00067
2394 47.67386 1529.62180 1451.60986 0.00069
2395 47.69086 1520.65876 1459.24011 0.00069
2396 47.70786 1513.63395 1444.00000 0.00069
2397 47.72486 1508.01123 1474.56006 0.00068
2398 47.74186 1503.45528 1466.88989 0.00068
2399 47.75886 1499.74640 1451.60986 0.00069
2400 47.77586 1496.75161 1436.41016 0.00070
2401 47.79286 1494.37242 1451.60986 0.00069
2402 47.80986 1492.54684 1513.21008 0.00066
2403 47.82686 1491.23619 1482.25000 0.00067
2404 47.84386 1490.43061 1428.83997 0.00070
2405 47.86086 1490.14478 1428.83997 0.00070
2406 47.87786 1490.40938 1459.24011 0.00069
2407 47.89486 1491.27902 1466.88989 0.00068
2408 47.91186 1492.85782 1436.41016 0.00070
2409 47.92886 1495.33739 1474.56006 0.00068
2410 47.94586 1498.94672 1497.69006 0.00067
2411 47.96286 1504.11709 1497.69006 0.00067
2412 47.97986 1511.47469 1489.95984 0.00067
2413 47.99686 1521.99851 1459.24011 0.00069
2414 48.01386 1537.15667 1466.88989 0.00068
2415 48.03086 1558.97554 1505.43994 0.00066
2416 48.04786 1590.02366 1521.00000 0.00066
2417 48.06486 1633.01270 1568.15991 0.00064
2418 48.08186 1689.99419 1568.15991 0.00064
2419 48.09886 1760.95834 1600.00000 0.00063
2420 48.11586 1841.82943 1780.84009 0.00056
2421 48.13286 1922.39532 1747.23999 0.00057
2422 48.14986 1986.15162 1962.48999 0.00051
2423 48.16686 2015.71238 2070.25000 0.00048
2424 48.18386 2004.64458 2097.63989 0.00048
2425 48.20086 1964.82506 2016.01013 0.00050
2426 48.21786 1918.31452 1849.00000 0.00054
2427 48.23486 1882.81253 1797.76013 0.00056
2428 48.25186 1864.78249 1764.00000 0.00057
2429 48.26886 1860.44572 1840.41016 0.00054
2430 48.28586 1860.06250 1823.29004 0.00055
2431 48.30286 1854.52030 1909.69006 0.00052
2432 48.31986 1842.03490 1883.56018 0.00053
2433 48.33686 1828.92438 1918.43994 0.00052
2434 48.35386 1823.96318 1730.55981 0.00058
2435 48.37086 1833.25641 1780.84009 0.00056
2436 48.38786 1859.07465 1814.75989 0.00055
2437 48.40486 1901.26154 1989.15991 0.00050
2438 48.42186 1959.56476 1944.80981 0.00051
2439 48.43886 2034.20930 2088.48999 0.00048
2440 48.45586 2122.47168 2218.40991 0.00045
2441 48.47286 2213.22728 2227.84009 0.00045
2442 48.48986 2285.32184 2275.29004 0.00044
2443 48.50686 2315.48289 2381.43994 0.00042
2444 48.52386 2294.12429 2450.25000 0.00041
2445 48.54086 2233.10858 2470.09009 0.00040
2446 48.55786 2155.88264 2294.41016 0.00044
2447 48.57486 2083.63916 2180.89014 0.00046
2448 48.59186 2027.40445 2097.63989 0.00048
2449 48.60886 1985.61869 1989.15991 0.00050
2450 48.62586 1947.33590 1962.48999 0.00051
2451 48.64286 1900.75541 1980.25000 0.00050
2452 48.65986 1841.91492 1944.80981 0.00051
2453 48.67686 1775.63279 1831.83997 0.00055
2454 48.69386 1710.04177 1738.89001 0.00058
2455 48.71086 1652.03110 1656.49011 0.00060
2456 48.72786 1605.60491 1592.01013 0.00063
2457 48.74486 1571.90841 1552.36011 0.00064
2458 48.76186 1550.06861 1528.80994 0.00065
2459 48.77886 1538.09830 1497.69006 0.00067
2460 48.79586 1533.42097 1521.00000 0.00066
2461 48.81286 1533.03968 1536.64001 0.00065
2462 48.82986 1533.55262 1576.09009 0.00063
2463 48.84686 1531.65622 1600.00000 0.00063
2464 48.86386 1525.47068 1560.25000 0.00064
2465 48.88086 1515.64711 1576.09009 0.00063
2466 48.89786 1504.71703 1536.64001 0.00065
2467 48.91486 1495.09068 1497.69006 0.00067
2468 48.93186 1487.84187 1505.43994 0.00066
2469 48.94886 1482.63179 1451.60986 0.00069
2470 48.96586 1478.16493 1459.24011 0.00069
2471 48.98286 1472.95299 1528.80994 0.00065
2472 48.99986 1466.26166 1513.21008 0.00066
2473 49.01686 1458.50821 1521.00000 0.00066
2474 49.03386 1450.72711 1436.41016 0.00070
2475 49.05086 1443.81270 1421.29004 0.00070
2476 49.06786 1438.18322 1436.41016 0.00070
2477 49.08486 1433.91751 1421.29004 0.00070
2478 49.10186 1430.91708 1428.83997 0.00070
2479 49.11886 1429.02590 1451.60986 0.00069
2480 49.13586 1428.11159 1376.40991 0.00073
2481 49.15286 1428.11275 1369.00000 0.00073
2482 49.16986 1429.06393 1466.88989 0.00068
2483 49.18686 1431.06884 1406.25000 0.00071
2484 49.20386 1434.24007 1459.24011 0.00069
2485 49.22086 1438.63447 1383.84009 0.00072
2486 49.23786 1444.14693 1406.25000 0.00071
2487 49.25486 1450.39963 1444.00000 0.00069
2488 49.27186 1456.67035 1376.40991 0.00073
2489 49.28886 1461.99670 1489.95984 0.00067
2490 49.30586 1465.68672 1482.25000 0.00067
2491 49.32286 1468.08574 1413.75989 0.00071
2492 49.33986 1470.78377 1505.43994 0.00066
2493 49.35686 1475.87015 1369.00000 0.00073
2494 49.37386 1485.21887 1421.29004 0.00070
2495 49.39086 1500.35020 1505.43994 0.00066
2496 49.40786 1522.42935 1474.56006 0.00068
2497 49.42486 1552.17745 1497.69006 0.00067
2498 49.44186 1589.65885 1505.43994 0.00066
2499 49.45886 1633.85706 1528.80994 0.00065
2500 49.47586 1681.70643 1616.04004 0.00062
2501 49.49286 1727.07719 1616.04004 0.00062
2502 49.50986 1761.47367 1772.40991 0.00056
2503 49.52686 1778.29613 1840.41016 0.00054
2504 49.54386 1778.99855 1866.24011 0.00054
2505 49.56086 1773.61793 1789.28992 0.00056
2506 49.57786 1773.48422 1764.00000 0.00057
2507 49.59486 1784.58467 1764.00000 0.00057
2508 49.61186 1806.43764 1755.61011 0.00057
2509 49.62886 1834.37240 1789.28992 0.00056
2510 49.64586 1863.44203 1823.29004 0.00055
2511 49.66286 1891.70104 1849.00000 0.00054
2512 49.67986 1920.17985 1909.69006 0.00052
2513 49.69686 1948.94583 1998.09009 0.00050
2514 49.71386 1972.76070 2007.03992 0.00050
2515 49.73086 1982.18167 2116.00000 0.00047
2516 49.74786 1970.21259 2227.84009 0.00045
2517 49.76486 1937.60289 2180.89014 0.00046
2518 49.78186 1892.11882 2061.16016 0.00049
2519 49.79886 1844.50286 1971.36011 0.00051
2520 49.81586 1803.74337 1840.41016 0.00054
2521 49.83286 1773.37432 1780.84009 0.00056
2522 49.84986 1751.06169 1780.84009 0.00056
2523 49.86686 1731.66457 1764.00000 0.00057
2524 49.88386 1711.46614 1789.28992 0.00056
2525 49.90086 1690.17035 1772.40991 0.00056
2526 49.91786 1669.98681 1705.68994 0.00059
2527 49.93486 1653.59286 1632.16016 0.00061
2528 49.95186 1642.09800 1600.00000 0.00063
2529 49.96886 1633.72957 1576.09009 0.00063
2530 49.98586 1624.30221 1616.04004 0.00062
2531 50.00286 1609.92597 1664.63989 0.00060
2532 50.01986 1590.30053 1624.08997 0.00062
2533 50.03686 1569.09128 1568.15991 0.00064
2534 50.05386 1550.83165 1592.01013 0.00063
2535 50.07086 1538.14497 1489.95984 0.00067
2536 50.08786 1531.15925 1568.15991 0.00064
2537 50.10486 1528.04269 1489.95984 0.00067
2538 50.12186 1525.98285 1497.69006 0.00067
2539 50.13886 1522.67941 1584.03992 0.00063
2540 50.15586 1517.65649 1528.80994 0.00065
2541 50.17286 1511.99951 1451.60986 0.00069
2542 50.18986 1506.90130 1584.03992 0.00063
2543 50.20686 1502.86838 1459.24011 0.00069
2544 50.22386 1500.25500 1444.00000 0.00069
2545 50.24086 1500.12741 1421.29004 0.00070
2546 50.25786 1504.44630 1421.29004 0.00070
2547 50.27486 1515.62583 1428.83997 0.00070
2548 50.29186 1536.15908 1474.56006 0.00068
2549 50.30886 1568.61226 1482.25000 0.00067
2550 50.32586 1615.48351 1544.48999 0.00065
2551 50.34286 1678.82754 1576.09009 0.00063
2552 50.35986 1759.55754 1576.09009 0.00063
2553 50.37686 1856.23311 1648.35986 0.00061
2554 50.39386 1963.27064 1755.61011 0.00057
2555 50.41086 2069.63563 1866.24011 0.00054
2556 50.42786 2160.64730 2025.00000 0.00049
2557 50.44486 2224.43802 2125.20996 0.00047
2558 50.46186 2258.37511 2171.55981 0.00046
2559 50.47886 2267.28414 2304.00000 0.00043
2560 50.49586 2256.09591 2381.43994 0.00042
2561 50.51286 2228.14558 2381.43994 0.00042
2562 50.52986 2188.17057 2313.60986 0.00043
2563 50.54686 2141.68068 2218.40991 0.00045
2564 50.56386 2091.79716 2043.04004 0.00049
2565 50.58086 2038.98506 1971.36011 0.00051
2566 50.59786 1983.32146 1944.80981 0.00051
2567 50.61486 1924.91810 1962.48999 0.00051
2568 50.63186 1863.00750 1980.25000 0.00050
2569 50.64886 1797.40296 1900.95984 0.00053
2570 50.66586 1730.68407 1789.28992 0.00056
2571 50.68286 1667.46475 1672.81018 0.00060
2572 50.69986 1611.93795 1608.00989 0.00062
2573 50.71686 1566.26658 1568.15991 0.00064
2574 50.73386 1530.43770 1489.95984 0.00067
2575 50.75086 1503.00042 1459.24011 0.00069
2576 50.76786 1482.13985 1436.41016 0.00070
2577 50.78486 1466.46889 1406.25000 0.00071
2578 50.80186 1455.23612 1398.76013 0.00071
2579 50.81886 1448.06446 1459.24011 0.00069
2580 50.83586 1444.77468 1421.29004 0.00070
2581 50.85286 1445.37926 1391.28992 0.00072
2582 50.86986 1450.25908 1421.29004 0.00070
2583 50.88686 1460.19018 1428.83997 0.00070
2584 50.90386 1476.19110 1497.69006 0.00067
2585 50.92086 1499.38420 1497.69006 0.00067
2586 50.93786 1530.72828 1544.48999 0.00065
2587 50.95486 1570.77258 1584.03992 0.00063
2588 50.97186 1619.38095 1544.48999 0.00065
2589 50.98886 1675.03891 1624.08997 0.00062
2590 51.00586 1733.46069 1672.81018 0.00060
2591 51.02286 1786.33828 1814.75989 0.00055
2592 51.03986 1822.17993 1840.41016 0.00054
2593 51.05686 1831.24882 1918.43994 0.00052
2594 51.07386 1812.72792 1857.60986 0.00054
2595 51.09086 1776.51954 1874.88989 0.00053
2596 51.10786 1736.53176 1747.23999 0.00057
2597 51.12486 1703.01292 1713.96008 0.00058
2598 51.14186 1679.67860 1648.35986 0.00061
2599 51.15886 1664.30907 1705.68994 0.00059
2600 51.17586 1650.79063 1624.08997 0.00062
2601 51.19286 1632.88610 1656.49011 0.00060
2602 51.20986 1608.52900 1672.81018 0.00060
2603 51.22686 1581.24081 1600.00000 0.00063
2604 51.24386 1557.24575 1608.00989 0.00062
2605 51.26086 1541.84814 1568.15991 0.00064
2606 51.27786 1537.97467 1536.64001 0.00065
2607 51.29486 1546.12790 1544.48999 0.00065
2608 51.31186 1564.47773 1521.00000 0.00066
2609 51.32886 1588.78876 1544.48999 0.00065
2610 51.34586 1612.47192 1528.80994 0.00065
2611 51.36286 1627.81698 1616.04004 0.00062
2612 51.37986 1629.20694 1576.09009 0.00063
2613 51.39686 1617.01528 1560.25000 0.00064
2614 51.41386 1597.72787 1505.43994 0.00066
2615 51.43086 1579.36032 1444.00000 0.00069
2616 51.44786 1567.14343 1466.88989 0.00068
2617 51.46486 1562.28823 1544.48999 0.00065
2618 51.48186 1562.48124 1444.00000 0.00069
2619 51.49886 1563.10355 1474.56006 0.00068
2620 51.51586 1559.45734 1568.15991 0.00064
2621 51.53286 1549.60319 1544.48999 0.00065
2622 51.54986 1535.50053 1536.64001 0.00065
2623 51.56686 1521.03366 1544.48999 0.00065
2624 51.58386 1509.03109 1466.88989 0.00068
2625 51.60086 1499.82497 1413.75989 0.00071
2626 51.61786 1491.51625 1459.24011 0.00069
2627 51.63486 1481.46270 1474.56006 0.00068
2628 51.65186 1468.25871 1474.56006 0.00068
2629 51.66886 1452.66849 1489.95984 0.00067
2630 51.68586 1436.77212 1444.00000 0.00069
2631 51.70286 1422.55729 1383.84009 0.00072
2632 51.71986 1411.02658 1376.40991 0.00073
2633 51.73686 1401.96035 1406.25000 0.00071
2634 51.75386 1394.19672 1406.25000 0.00071
2635 51.77086 1386.32119 1376.40991 0.00073
2636 51.78786 1377.56498 1376.40991 0.00073
2637 51.80486 1368.19419 1361.61011 0.00073
2638 51.82186 1359.04602 1339.55994 0.00075
2639 51.83886 1350.86149 1317.68994 0.00076
2640 51.85586 1344.01820 1317.68994 0.00076
2641 51.87286 1338.58187 1288.81006 0.00078
2642 51.88986 1334.41813 1274.49011 0.00078
2643 51.90686 1331.26297 1303.20984 0.00077
2644 51.92386 1328.78348 1332.25000 0.00075
2645 51.94086 1326.66479 1274.49011 0.00078
2646 51.95786 1324.72411 1339.55994 0.00075
2647 51.97486 1322.93134 1303.20984 0.00077
2648 51.99186 1321.34728 1303.20984 0.00077
2649 52.00886 1320.03411 1339.55994 0.00075
2650 52.02586 1319.00067 1303.20984 0.00077
2651 52.04286 1318.22503 1274.49011 0.00078
2652 52.05986 1317.65149 1274.49011 0.00078
2653 52.07686 1317.19233 1246.08997 0.00080
2654 52.09386 1316.80819 1218.01013 0.00082
2655 52.11086 1316.53590 1332.25000 0.00075
2656 52.12786 1316.45463 1296.00000 0.00077
2657 52.14486 1316.64582 1303.20984 0.00077
2658 52.16186 1317.18368 1253.16016 0.00080
2659 52.17886 1318.14534 1274.49011 0.00078
2660 52.19586 1319.61216 1281.63989 0.00078
2661 52.21286 1321.71925 1332.25000 0.00075
2662 52.22986 1324.69326 1310.44006 0.00076
2663 52.24686 1328.87752 1324.96008 0.00075
2664 52.26386 1334.81298 1310.44006 0.00076
2665 52.28086 1343.31691 1296.00000 0.00077
2666 52.29786 1355.48661 1310.44006 0.00076
2667 52.31486 1372.65746 1421.29004 0.00070
2668 52.33186 1396.22295 1406.25000 0.00071
2669 52.34886 1427.26359 1428.83997 0.00070
2670 52.36586 1466.03546 1497.69006 0.00067
2671 52.38286 1511.32875 1474.56006 0.00068
2672 52.39986 1559.75679 1482.25000 0.00067
2673 52.41686 1605.27087 1632.16016 0.00061
2674 52.43386 1639.73375 1738.89001 0.00058
2675 52.45086 1655.71109 1840.41016 0.00054
2676 52.46786 1651.09247 1866.24011 0.00054
2677 52.48486 1631.21343 1789.28992 0.00056
2678 52.50186 1605.56398 1672.81018 0.00060
2679 52.51886 1582.33525 1616.04004 0.00062
2680 52.53586 1565.41094 1560.25000 0.00064
2681 52.55286 1554.17534 1536.64001 0.00065
2682 52.56986 1544.75413 1600.00000 0.00063
2683 52.58686 1532.16287 1624.08997 0.00062
2684 52.60386 1513.16529 1608.00989 0.00062
2685 52.62086 1488.20105 1560.25000 0.00064
2686 52.63786 1460.61583 1466.88989 0.00068
2687 52.65486 1434.20706 1444.00000 0.00069
2688 52.67186 1411.51837 1413.75989 0.00071
2689 52.68886 1393.57258 1376.40991 0.00073
2690 52.70586 1380.27648 1369.00000 0.00073
2691 52.72286 1370.90981 1369.00000 0.00073
2692 52.73986 1364.52676 1332.25000 0.00075
2693 52.75686 1360.28995 1346.89001 0.00074
2694 52.77386 1357.72514 1391.28992 0.00072
2695 52.79086 1356.84605 1376.40991 0.00073
2696 52.80786 1357.99440 1296.00000 0.00077
2697 52.82486 1361.42431 1303.20984 0.00077
2698 52.84186 1366.93771 1361.61011 0.00073
2699 52.85886 1373.69808 1391.28992 0.00072
2700 52.87586 1380.23015 1376.40991 0.00073
2701 52.89286 1384.70588 1398.76013 0.00071
2702 52.90986 1385.79152 1383.84009 0.00072
2703 52.92686 1383.49178 1354.23999 0.00074
2704 52.94386 1379.11558 1317.68994 0.00076
2705 52.96086 1374.26059 1332.25000 0.00075
2706 52.97786 1369.91396 1369.00000 0.00073
2707 52.99486 1366.30744 1332.25000 0.00075
2708 53.01186 1363.19479 1324.96008 0.00075
2709 53.02886 1360.13968 1354.23999 0.00074
2710 53.04586 1356.75757 1346.89001 0.00074
2711 53.06286 1352.93969 1296.00000 0.00077
2712 53.07986 1349.03165 1303.20984 0.00077
2713 53.09686 1345.60190 1332.25000 0.00075
2714 53.11386 1343.10167 1346.89001 0.00074
2715 53.13086 1341.80232 1369.00000 0.00073
2716 53.14786 1341.94652 1339.55994 0.00075
2717 53.16486 1343.91481 1225.00000 0.00082
2718 53.18186 1348.30424 1339.55994 0.00075
2719 53.19886 1355.96172 1376.40991 0.00073
2720 53.21586 1368.03880 1339.55994 0.00075
2721 53.23286 1386.06409 1354.23999 0.00074
2722 53.24986 1411.93352 1346.89001 0.00074
2723 53.26686 1447.74726 1413.75989 0.00071
2724 53.28386 1495.42168 1528.80994 0.00065
2725 53.30086 1556.07785 1505.43994 0.00066
2726 53.31786 1629.24718 1616.04004 0.00062
2727 53.33486 1711.90231 1616.04004 0.00062
2728 53.35186 1797.60731 1722.25000 0.00058
2729 53.36886 1876.64834 1874.88989 0.00053
2730 53.38586 1938.53646 2007.03992 0.00050
2731 53.40286 1976.57262 2125.20996 0.00047
2732 53.41986 1990.92783 2052.08984 0.00049
2733 53.43686 1986.96498 2034.00989 0.00049
2734 53.45386 1970.74559 2007.03992 0.00050
2735 53.47086 1946.25974 1989.15991 0.00050
2736 53.48786 1916.00030 2061.16016 0.00049
2737 53.50486 1882.09259 2007.03992 0.00050
2738 53.52186 1845.70732 1927.21008 0.00052
2739 53.53886 1806.81916 1900.95984 0.00053
2740 53.55586 1765.62406 1823.29004 0.00055
2741 53.57286 1723.53696 1780.84009 0.00056
2742 53.58986 1682.53870 1697.44006 0.00059
2743 53.60686 1644.24292 1640.25000 0.00061
2744 53.62386 1610.12257 1616.04004 0.00062
2745 53.64086 1582.35263 1568.15991 0.00064
2746 53.65786 1563.67110 1536.64001 0.00065
2747 53.67486 1556.11446 1528.80994 0.00065
2748 53.69186 1559.90591 1505.43994 0.00066
2749 53.70886 1572.98853 1505.43994 0.00066
2750 53.72586 1591.06671 1528.80994 0.00065
2751 53.74286 1608.22231 1560.25000 0.00064
2752 53.75986 1618.67867 1616.04004 0.00062
2753 53.77686 1619.21015 1730.55981 0.00058
2754 53.79386 1610.24126 1764.00000 0.00057
2755 53.81086 1594.82851 1672.81018 0.00060
2756 53.82786 1577.25061 1584.03992 0.00063
2757 53.84486 1561.87429 1521.00000 0.00066
2758 53.86186 1551.74584 1474.56006 0.00068
2759 53.87886 1547.63071 1489.95984 0.00067
2760 53.89586 1548.27814 1536.64001 0.00065
2761 53.91286 1551.65473 1544.48999 0.00065
2762 53.92986 1556.04297 1528.80994 0.00065
2763 53.94686 1560.12194 1584.03992 0.00063
2764 53.96386 1562.44743 1681.00000 0.00059
2765 53.98086 1561.26796 1672.81018 0.00060
2766 53.99786 1554.88190 1713.96008 0.00058
2767 54.01486 1542.72443 1705.68994 0.00059
2768 54.03186 1526.33673 1584.03992 0.00063
2769 54.04886 1508.81694 1600.00000 0.00063
2770 54.06586 1493.27134 1536.64001 0.00065
2771 54.08286 1481.78604 1489.95984 0.00067
2772 54.09986 1475.20501 1406.25000 0.00071
2773 54.11686 1473.03774 1474.56006 0.00068
2774 54.13386 1473.47593 1489.95984 0.00067
2775 54.15086 1473.94362 1560.25000 0.00064
2776 54.16786 1471.98927 1608.00989 0.00062
2777 54.18486 1465.88710 1592.01013 0.00063
2778 54.20186 1454.90059 1536.64001 0.00065
2779 54.21886 1439.68469 1474.56006 0.00068
2780 54.23586 1422.44252 1466.88989 0.00068
2781 54.25286 1406.11458 1406.25000 0.00071
2782 54.26986 1393.10711 1369.00000 0.00073
2783 54.28686 1384.57016 1346.89001 0.00074
2784 54.30386 1380.29532 1346.89001 0.00074
2785 54.32086 1378.92137 1339.55994 0.00075
2786 54.33786 1378.30828 1369.00000 0.00073
2787 54.35486 1376.19943 1406.25000 0.00071
2788 54.37186 1371.01274 1354.23999 0.00074
2789 54.38886 1362.36738 1346.89001 0.00074
2790 54.40586 1351.14362 1317.68994 0.00076
2791 54.42286 1339.00663 1310.44006 0.00076
2792 54.43986 1327.59988 1303.20984 0.00077
2793 54.45686 1317.96776 1281.63989 0.00078
2794 54.47386 1310.41334 1281.63989 0.00078
2795 54.49086 1304.61373 1274.49011 0.00078
2796 54.50786 1299.83241 1310.44006 0.00076
2797 54.52486 1295.23390 1346.89001 0.00074
2798 54.54186 1290.26154 1317.68994 0.00076
2799 54.55886 1284.85414 1288.81006 0.00078
2800 54.57586 1279.33505 1246.08997 0.00080
2801 54.59286 1274.12040 1253.16016 0.00080
2802 54.60986 1269.51381 1260.25000 0.00079
2803 54.62686 1265.66572 1225.00000 0.00082
2804 54.64386 1262.61689 1239.04004 0.00081
2805 54.66086 1260.35486 1274.49011 0.00078
2806 54.67786 1258.80937 1288.81006 0.00078
2807 54.69486 1257.89850 1253.16016 0.00080
2808 54.71186 1257.54292 1204.09009 0.00083
2809 54.72886 1257.67369 1232.00989 0.00081
2810 54.74586 1258.20742 1218.01013 0.00082
2811 54.76286 1259.05793 1204.09009 0.00083
2812 54.77986 1260.13816 1225.00000 0.00082
2813 54.79686 1261.38912 1225.00000 0.00082
2814 54.81386 1262.83082 1197.15991 0.00084
2815 54.83086 1264.59005 1246.08997 0.00080
2816 54.84786 1266.84382 1260.25000 0.00079
2817 54.86486 1269.70556 1239.04004 0.00081
2818 54.88186 1273.12525 1232.00989 0.00081
2819 54.89886 1276.84569 1288.81006 0.00078
2820 54.91586 1280.43637 1296.00000 0.00077
2821 54.93286 1283.45189 1332.25000 0.00075
2822 54.94986 1285.67845 1296.00000 0.00077
2823 54.96686 1287.27963 1303.20984 0.00077
2824 54.98386 1288.64931 1317.68994 0.00076
2825 55.00086 1290.06915 1383.84009 0.00072
2826 55.01786 1291.43953 1281.63989 0.00078
2827 55.03486 1292.27036 1296.00000 0.00077
2828 55.05186 1291.94632 1260.25000 0.00079
2829 55.06886 1290.10661 1288.81006 0.00078
2830 55.08586 1286.88705 1267.35986 0.00079
2831 55.10286 1282.83904 1239.04004 0.00081
2832 55.11986 1278.63701 1274.49011 0.00078
2833 55.13686 1274.82040 1296.00000 0.00077
2834 55.15386 1271.62203 1274.49011 0.00078
2835 55.17086 1268.97678 1260.25000 0.00079
2836 55.18786 1266.62376 1260.25000 0.00079
2837 55.20486 1264.30455 1232.00989 0.00081
2838 55.22186 1261.93625 1260.25000 0.00079
2839 55.23886 1259.67566 1274.49011 0.00078
2840 55.25586 1257.80671 1162.80994 0.00086
2841 55.27286 1256.60347 1211.03992 0.00083
2842 55.28986 1256.26102 1232.00989 0.00081
2843 55.30686 1256.87854 1225.00000 0.00082
2844 55.32386 1258.45039 1267.35986 0.00079
2845 55.34086 1260.84995 1267.35986 0.00079
2846 55.35786 1263.80491 1260.25000 0.00079
2847 55.37486 1266.88324 1253.16016 0.00080
2848 55.39186 1269.52359 1260.25000 0.00079
2849 55.40886 1271.14035 1281.63989 0.00078
2850 55.42586 1271.39728 1274.49011 0.00078
2851 55.44286 1270.42102 1267.35986 0.00079
2852 55.45986 1268.75309 1232.00989 0.00081
2853 55.47686 1267.05576 1246.08997 0.00080
2854 55.49386 1265.84033 1274.49011 0.00078
2855 55.51086 1265.34393 1253.16016 0.00080
2856 55.52786 1265.56543 1204.09009 0.00083
2857 55.54486 1266.33146 1211.03992 0.00083
2858 55.56186 1267.40757 1253.16016 0.00080
2859 55.57886 1268.65311 1281.63989 0.00078
2860 55.59586 1270.12034 1274.49011 0.00078
2861 55.61286 1272.00945 1260.25000 0.00079
2862 55.62986 1274.52832 1281.63989 0.00078
2863 55.64686 1277.75658 1253.16016 0.00080
2864 55.66386 1281.65481 1253.16016 0.00080
2865 55.68086 1286.07561 1253.16016 0.00080
2866 55.69786 1290.78287 1246.08997 0.00080
2867 55.71486 1295.50170 1274.49011 0.00078
2868 55.73186 1300.05154 1310.44006 0.00076
2869 55.74886 1304.44632 1324.96008 0.00075
2870 55.76586 1308.72853 1288.81006 0.00078
2871 55.78286 1312.69281 1246.08997 0.00080
2872 55.79986 1315.73308 1274.49011 0.00078
2873 55.81686 1317.03730 1317.68994 0.00076
2874 55.83386 1316.05727 1310.44006 0.00076
2875 55.85086 1312.89212 1346.89001 0.00074
2876 55.86786 1308.24936 1391.28992 0.00072
2877 55.88486 1303.05642 1383.84009 0.00072
2878 55.90186 1298.10395 1317.68994 0.00076
2879 55.91886 1293.85762 1260.25000 0.00079
2880 55.93586 1290.38347 1267.35986 0.00079
2881 55.95286 1287.40547 1246.08997 0.00080
2882 55.96986 1284.49431 1296.00000 0.00077
2883 55.98686 1281.34471 1267.35986 0.00079
2884 56.00386 1277.99322 1260.25000 0.00079
2885 56.02086 1274.78558 1274.49011 0.00078
2886 56.03786 1272.17955 1239.04004 0.00081
2887 56.05486 1270.57389 1183.36011 0.00085
2888 56.07186 1270.26872 1274.49011 0.00078
2889 56.08886 1271.48428 1267.35986 0.00079
2890 56.10586 1274.38005 1310.44006 0.00076
2891 56.12286 1279.06235 1239.04004 0.00081
2892 56.13986 1285.57615 1246.08997 0.00080
2893 56.15686 1293.83530 1211.03992 0.00083
2894 56.17386 1303.59096 1281.63989 0.00078
2895 56.19086 1314.42166 1288.81006 0.00078
2896 56.20786 1325.80981 1288.81006 0.00078
2897 56.22486 1337.28487 1361.61011 0.00073
2898 56.24186 1348.52238 1398.76013 0.00071
2899 56.25886 1359.48010 1376.40991 0.00073
2900 56.27586 1370.59376 1398.76013 0.00071
2901 56.29286 1382.87489 1398.76013 0.00071
2902 56.30986 1397.62376 1383.84009 0.00072
2903 56.32686 1415.77730 1391.28992 0.00072
2904 56.34386 1437.25490 1436.41016 0.00070
2905 56.36086 1460.57236 1436.41016 0.00070
2906 56.37786 1482.77578 1451.60986 0.00069
2907 56.39486 1499.84480 1521.00000 0.00066
2908 56.41186 1507.90166 1505.43994 0.00066
2909 56.42886 1505.08458 1521.00000 0.00066
2910 56.44586 1492.82495 1513.21008 0.00066
2911 56.46286 1475.19254 1444.00000 0.00069
2912 56.47986 1456.80123 1398.76013 0.00071
2913 56.49686 1441.01684 1413.75989 0.00071
2914 56.51386 1429.31455 1444.00000 0.00069
2915 56.53086 1421.41774 1428.83997 0.00070
2916 56.54786 1415.82243 1421.29004 0.00070
2917 56.56486 1410.62592 1376.40991 0.00073
2918 56.58186 1404.59627 1339.55994 0.00075
2919 56.59886 1397.88732 1376.40991 0.00073
2920 56.61586 1391.80620 1332.25000 0.00075
2921 56.63286 1387.88945 1310.44006 0.00076
2922 56.64986 1387.06647 1339.55994 0.00075
2923 56.66686 1389.29188 1361.61011 0.00073
2924 56.68386 1393.50038 1369.00000 0.00073
2925 56.70086 1397.78898 1361.61011 0.00073
2926 56.71786 1399.95926 1317.68994 0.00076
2927 56.73486 1398.48603 1398.76013 0.00071
2928 56.75186 1393.44947 1489.95984 0.00067
2929 56.76886 1386.54392 1466.88989 0.00068
2930 56.78586 1380.13252 1391.28992 0.00072
2931 56.80286 1376.14955 1398.76013 0.00071
2932 56.81986 1375.57620 1303.20984 0.00077
2933 56.83686 1378.33072 1354.23999 0.00074
2934 56.85386 1383.41045 1296.00000 0.00077
2935 56.87086 1389.14982 1324.96008 0.00075
2936 56.88786 1393.70921 1421.29004 0.00070
2937 56.90486 1395.70247 1428.83997 0.00070
2938 56.92186 1394.62641 1474.56006 0.00068
2939 56.93886 1390.88224 1497.69006 0.00067
2940 56.95586 1385.39816 1436.41016 0.00070
2941 56.97286 1379.16447 1451.60986 0.00069
2942 56.98986 1372.97038 1361.61011 0.00073
2943 57.00686 1367.45527 1332.25000 0.00075
2944 57.02386 1363.06750 1406.25000 0.00071
2945 57.04086 1359.87324 1361.61011 0.00073
2946 57.05786 1357.40950 1310.44006 0.00076
2947 57.07486 1354.85620 1369.00000 0.00073
2948 57.09186 1351.46353 1383.84009 0.00072
2949 57.10886 1346.93657 1361.61011 0.00073
2950 57.12586 1341.50157 1346.89001 0.00074
2951 57.14286 1335.73956 1376.40991 0.00073
2952 57.15986 1330.40527 1324.96008 0.00075
2953 57.17686 1326.27932 1346.89001 0.00074
2954 57.19386 1324.02014 1317.68994 0.00076
2955 57.21086 1324.05479 1317.68994 0.00076
2956 57.22786 1326.55938 1281.63989 0.00078
2957 57.24486 1331.54791 1339.55994 0.00075
2958 57.26186 1338.99161 1354.23999 0.00074
2959 57.27886 1348.86611 1310.44006 0.00076
2960 57.29586 1361.06229 1332.25000 0.00075
2961 57.31286 1375.20646 1361.61011 0.00073
2962 57.32986 1390.52009 1376.40991 0.00073
2963 57.34686 1405.92297 1444.00000 0.00069
2964 57.36386 1420.47302 1383.84009 0.00072
2965 57.38086 1433.89002 1444.00000 0.00069
2966 57.39786 1446.57446 1428.83997 0.00070
2967 57.41486 1458.97193 1406.25000 0.00071
2968 57.43186 1470.93164 1521.00000 0.00066
2969 57.44886 1481.68644 1544.48999 0.00065
2970 57.46586 1490.31195 1513.21008 0.00066
2971 57.48286 1496.08842 1489.95984 0.00067
2972 57.49986 1498.47800 1505.43994 0.00066
2973 57.51686 1497.02576 1544.48999 0.00065
2974 57.53386 1491.59022 1608.00989 0.00062
2975 57.55086 1482.71337 1600.00000 0.00063
2976 57.56786 1471.66969 1513.21008 0.00066
2977 57.58486 1459.91426 1474.56006 0.00068
2978 57.60186 1448.48114 1444.00000 0.00069
2979 57.61886 1437.78651 1451.60986 0.00069
2980 57.63586 1427.78099 1459.24011 0.00069
2981 57.65286 1418.13961 1444.00000 0.00069
2982 57.66986 1408.38353 1413.75989 0.00071
2983 57.68686 1398.07844 1436.41016 0.00070
2984 57.70386 1387.13693 1421.29004 0.00070
2985 57.72086 1376.02241 1376.40991 0.00073
2986 57.73786 1365.63688 1376.40991 0.00073
2987 57.75486 1356.96626 1376.40991 0.00073
2988 57.77186 1350.77028 1369.00000 0.00073
2989 57.78886 1347.47165 1361.61011 0.00073
2990 57.80586 1347.18532 1296.00000 0.00077
2991 57.82286 1349.82457 1303.20984 0.00077
2992 57.83986 1355.18718 1310.44006 0.00076
2993 57.85686 1363.00048 1303.20984 0.00077
2994 57.87386 1372.91272 1303.20984 0.00077
2995 57.89086 1384.46942 1361.61011 0.00073
2996 57.90786 1397.18057 1406.25000 0.00071
2997 57.92486 1410.73158 1421.29004 0.00070
2998 57.94186 1425.25341 1474.56006 0.00068
2999 57.95886 1441.23675 1436.41016 0.00070
3000 57.97586 1459.05478 1482.25000 0.00067
3001 57.99286 1478.49571 1536.64001 0.00065
3002 58.00986 1498.74696 1600.00000 0.00063
3003 58.02686 1518.84496 1528.80994 0.00065
3004 58.04386 1538.13317 1608.00989 0.00062
3005 58.06086 1556.13469 1560.25000 0.00064
3006 58.07786 1571.97262 1616.04004 0.00062
3007 58.09486 1584.03424 1552.36011 0.00064
3008 58.11186 1590.46324 1592.01013 0.00063
3009 58.12886 1590.30625 1560.25000 0.00064
3010 58.14586 1584.45724 1608.00989 0.00062
3011 58.16286 1575.49924 1681.00000 0.00059
3012 58.17986 1566.59223 1624.08997 0.00062
3013 58.19686 1560.37041 1528.80994 0.00065
3014 58.21386 1558.33994 1521.00000 0.00066
3015 58.23086 1560.53820 1552.36011 0.00064
3016 58.24786 1565.36272 1552.36011 0.00064
3017 58.26486 1569.80472 1560.25000 0.00064
3018 58.28186 1570.30963 1648.35986 0.00061
3019 58.29886 1564.13734 1689.20984 0.00059
3020 58.31586 1550.59463 1681.00000 0.00059
3021 58.33286 1531.33044 1722.25000 0.00058
3022 58.34986 1509.44963 1624.08997 0.00062
3023 58.36686 1488.08960 1513.21008 0.00066
3024 58.38386 1469.37948 1466.88989 0.00068
3025 58.40086 1454.13322 1451.60986 0.00069
3026 58.41786 1442.03987 1451.60986 0.00069
3027 58.43486 1432.04928 1474.56006 0.00068
3028 58.45186 1422.82168 1451.60986 0.00069
3029 58.46886 1413.21994 1482.25000 0.00067
3030 58.48586 1402.74406 1436.41016 0.00070
3031 58.50286 1391.66288 1482.25000 0.00067
3032 58.51986 1380.72766 1436.41016 0.00070
3033 58.53686 1370.75667 1369.00000 0.00073
3034 58.55386 1362.40477 1324.96008 0.00075
3035 58.57086 1356.13869 1317.68994 0.00076
3036 58.58786 1352.32074 1339.55994 0.00075
3037 58.60486 1351.28947 1310.44006 0.00076
3038 58.62186 1353.37309 1260.25000 0.00079
3039 58.63886 1358.85072 1310.44006 0.00076
3040 58.65586 1367.89957 1324.96008 0.00075
3041 58.67286 1380.54113 1296.00000 0.00077
3042 58.68986 1396.56130 1339.55994 0.00075
3043 58.70686 1415.38812 1339.55994 0.00075
3044 58.72386 1435.97264 1339.55994 0.00075
3045 58.74086 1456.79283 1383.84009 0.00072
3046 58.75786 1476.10778 1398.76013 0.00071
3047 58.77486 1492.37554 1466.88989 0.00068
3048 58.79186 1504.53320 1482.25000 0.00067
3049 58.80886 1511.89488 1552.36011 0.00064
3050 58.82586 1514.03118 1482.25000 0.00067
3051 58.84286 1511.04819 1406.25000 0.00071
3052 58.85986 1503.98648 1413.75989 0.00071
3053 58.87686 1494.65000 1459.24011 0.00069
3054 58.89386 1484.84287 1459.24011 0.00069
3055 58.91086 1475.71738 1436.41016 0.00070
3056 58.92786 1467.68128 1398.76013 0.00071
3057 58.94486 1460.65842 1398.76013 0.00071
3058 58.96186 1454.31354 1459.24011 0.00069
3059 58.97886 1448.17289 1444.00000 0.00069
3060 58.99586 1441.83745 1391.28992 0.00072
3061 59.01286 1435.32890 1406.25000 0.00071
3062 59.02986 1429.22911 1369.00000 0.00073
3063 59.04686 1424.42467 1444.00000 0.00069
3064 59.06386 1421.68328 1354.23999 0.00074
3065 59.08086 1421.37687 1451.60986 0.00069
3066 59.09786 1423.40157 1459.24011 0.00069
3067 59.11486 1427.21545 1436.41016 0.00070
3068 59.13186 1431.99248 1624.08997 0.00062
3069 59.14886 1436.96041 1436.41016 0.00070
3070 59.16586 1441.81697 1521.00000 0.00066
3071 59.18286 1446.89116 1497.69006 0.00067
3072 59.19986 1452.84641 1489.95984 0.00067
3073 59.21686 1460.13276 1444.00000 0.00069
3074 59.23386 1468.62972 1482.25000 0.00067
3075 59.25086 1477.59932 1436.41016 0.00070
3076 59.26786 1485.96621 1466.88989 0.00068
3077 59.28486 1492.85993 1521.00000 0.00066
3078 59.30186 1498.16441 1528.80994 0.00065
3079 59.31886 1502.65867 1552.36011 0.00064
3080 59.33586 1507.59410 1584.03992 0.00063
3081 59.35286 1514.01358 1528.80994 0.00065
3082 59.36986 1522.18965 1521.00000 0.00066
3083 59.38686 1531.36511 1544.48999 0.00065
3084 59.40386 1539.85254 1560.25000 0.00064
3085 59.42086 1545.55649 1576.09009 0.00063
3086 59.43786 1546.89527 1592.01013 0.00063
3087 59.45486 1543.68168 1616.04004 0.00062
3088 59.47186 1537.27872 1608.00989 0.00062
3089 59.48886 1529.77739 1624.08997 0.00062
3090 59.50586 1522.91688 1624.08997 0.00062
3091 59.52286 1517.52344 1576.09009 0.00063
3092 59.53986 1513.59287 1544.48999 0.00065
3093 59.55686 1510.70494 1528.80994 0.00065
3094 59.57386 1508.49808 1528.80994 0.00065
3095 59.59086 1506.99275 1505.43994 0.00066
3096 59.60786 1506.74524 1482.25000 0.00067
3097 59.62486 1508.79176 1505.43994 0.00066
3098 59.64186 1514.29989 1497.69006 0.00067
3099 59.65886 1524.06427 1474.56006 0.00068
3100 59.67586 1538.10553 1497.69006 0.00067
3101 59.69286 1555.48950 1466.88989 0.00068
3102 59.70986 1574.35567 1521.00000 0.00066
3103 59.72686 1592.17249 1608.00989 0.00062
3104 59.74386 1606.30629 1648.35986 0.00061
3105 59.76086 1614.88281 1681.00000 0.00059
3106 59.77786 1617.54335 1697.44006 0.00059
3107 59.79486 1615.37926 1722.25000 0.00058
3108 59.81186 1610.11350 1738.89001 0.00058
3109 59.82886 1603.35803 1672.81018 0.00060
3110 59.84586 1596.44062 1656.49011 0.00060
3111 59.86286 1590.44297 1616.04004 0.00062
3112 59.87986 1586.06864 1552.36011 0.00064
3113 59.89686 1583.45393 1544.48999 0.00065
3114 59.91386 1582.23219 1600.00000 0.00063
3115 59.93086 1581.85002 1689.20984 0.00059
3116 59.94786 1581.80821 1584.03992 0.00063
3117 59.96486 1581.53755 1505.43994 0.00066
loop_
_refln_index_h
_refln_index_k
_refln_index_l
_refln_d_spacing
_refln_F_squared_calc
_refln_F_squared_meas
_refln_F_squared_sigma
_refln_observed_status
0 1 0 9.45592 25.91 25.96 0.98 o
0 0 1 9.37444 17.86 17.85 0.55 o
0 -1 1 8.55898 10.53 10.52 0.34 o
0 1 1 5.63657 20.43 20.51 0.78 o
0 -2 1 5.11042 5.76 5.67 0.20 o
0 -1 2 5.07177 0.92 0.89 0.06 o
0 2 0 4.72796 21.95 21.91 0.89 o
0 0 2 4.68722 0.29 0.28 0.03 o
1 0 0 4.51549 0.06 0.06 0.02 o
1 0 1 4.32639 1.18 1.18 0.10 o
1 1 0 4.29465 0.04 0.04 0.03 o
0 -2 2 4.27949 20.16 20.24 0.59 o
1 -1 1 4.02561 0.26 0.27 0.13 o
1 1 -1 3.96267 1.21 1.24 0.07 o
1 -1 0 3.88548 29.75 29.72 1.41 o
1 0 -1 3.85123 10.69 10.66 0.41 o
1 1 1 3.84867 19.82 19.71 0.78 o
0 2 1 3.67758 8.24 8.35 0.23 o
0 1 2 3.66310 0.19 0.19 0.02 o
1 -1 2 3.53699 4.14 4.13 0.42 o
1 0 2 3.52312 4.78 4.76 0.39 o
1 2 0 3.49728 0.27 0.26 0.03 o
1 2 -1 3.48552 1.53 1.49 0.05 o
0 -3 1 3.42399 0.12 0.12 0.02 o
0 -1 3 3.39306 0.61 0.63 0.06 o
1 -2 1 3.29053 0.12 0.12 0.05 o
0 -3 2 3.28447 18.69 18.49 0.49 o
1 -1 -1 3.26986 28.97 29.08 0.89 o
0 -2 3 3.26731 8.67 8.71 0.36 o
1 1 -2 3.22906 5.51 5.42 0.21 o
0 3 0 3.15197 11.26 11.33 0.28 o
1 -2 2 3.13618 5.67 5.72 0.19 o
0 0 3 3.12481 0.05 0.05 0.02 o
1 1 2 3.10740 9.87 10.00 0.41 o
1 2 1 3.10139 22.63 22.83 0.81 o
1 2 -2 3.07694 7.48 7.51 0.37 o
1 -2 0 3.07437 14.19 14.28 0.57 o
1 0 -2 3.03508 0.09 0.09 0.04 o
1 -1 3 2.87575 24.42 24.39 0.83 o
0 -3 3 2.85299 16.49 16.66 0.44 o
1 3 -1 2.84775 0.09 0.08 0.01 o
0 2 2 2.81829 1.01 0.99 0.06 o
1 0 3 2.76858 3.46 3.46 0.24 o
1 3 0 2.75587 2.07 2.08 0.11 o
1 -2 3 2.73440 9.32 9.44 0.60 o
1 3 -2 2.69476 3.98 3.86 0.24 o
0 3 1 2.68442 1.38 1.33 0.11 o
0 1 3 2.66944 0.56 0.54 0.05 o
1 -2 -1 2.65370 19.32 18.98 0.57 o
1 -1 -2 2.63912 1.29 1.27 0.14 o
1 -3 1 2.62275 0.03 0.03 0.02 o
1 -3 2 2.61913 1.16 1.13 0.20 o
1 2 2 2.59126 17.07 16.90 0.43 o
1 1 -3 2.57438 30.51 30.68 1.05 o
1 2 -3 2.56754 36.06 36.18 1.27 o
0 -4 2 2.55521 23.39 23.18 0.56 o
0 -4 1 2.54269 1.68 1.68 0.17 o
0 -2 4 2.53589 0.41 0.41 0.08 o
0 -1 4 2.51896 6.35 6.40 0.23 o
1 1 3 2.48167 0.69 0.67 0.07 o
1 3 1 2.47851 32.63 32.39 1.11 o
1 -3 0 2.44171 14.66 14.57 0.46 o
1 -3 3 2.43297 5.09 5.02 0.35 o
1 0 -3 2.40806 8.81 8.80 0.24 o
0 -4 3 2.39452 16.86 16.87 0.40 o
1 3 -3 2.39138 13.92 14.03 0.35 o
0 -3 4 2.38519 0.02 0.02 0.03 o
0 4 0 2.36398 1.34 1.38 0.11 o
0 0 4 2.34361 14.83 15.03 0.34 o
1 -1 4 2.32707 29.54 29.90 0.87 o
1 4 -1 2.31450 0.53 0.54 0.07 o
1 -2 4 2.30280 22.94 22.64 0.64 o
1 4 -2 2.28122 1.48 1.52 0.16 o
2 0 1 2.27296 25.46 25.47 0.74 o
2 1 0 2.26257 13.18 13.06 0.45 o
2 0 0 2.25775 18.98 19.07 0.60 o
0 3 2 2.23805 3.86 3.96 0.17 o
0 2 3 2.23260 0.04 0.04 0.01 o
1 -2 -2 2.23071 4.94 5.06 0.24 o
2 1 1 2.22697 22.90 22.98 0.55 o
1 0 4 2.21884 13.48 13.13 0.31 o
1 4 0 2.21433 0.81 0.80 0.10 o
2 -1 1 2.19342 16.73 16.59 0.46 o
2 1 -1 2.17286 0.37 0.37 0.09 o
1 -4 2 2.17059 1.46 1.47 0.14 o
1 -3 -1 2.16755 28.62 29.43 0.91 o
2 0 2 2.16320 2.65 2.73 0.23 o
1 -3 4 2.15738 22.73 22.89 0.54 o
1 -1 -3 2.14976 8.66 8.68 0.29 o
1 2 3 2.14842 0.64 0.64 0.10 o
1 3 2 2.14836 22.68 22.88 0.50 o
2 2 0 2.14732 7.05 7.13 0.32 o
0 -4 4 2.13974 1.08 1.09 0.10 o
2 -1 2 2.13647 0.66 0.66 0.20 o
2 -1 0 2.13501 12.01 12.12 0.44 o
1 4 -3 2.13005 15.39 15.41 0.48 o
1 2 -4 2.12949 13.11 13.12 0.30 o
1 -4 1 2.12834 0.16 0.16 0.05 o
2 0 -1 2.12452 1.17 1.17 0.13 o
2 2 -1 2.11089 0.16 0.16 0.08 o
0 4 1 2.10365 2.07 2.09 0.12 o
1 -4 3 2.10120 3.52 3.57 0.33 o
1 1 -4 2.09139 13.77 13.84 0.34 o
0 1 4 2.09015 8.05 8.13 0.20 o
2 1 2 2.08202 2.62 2.70 0.24 o
2 2 1 2.07578 15.52 15.67 0.41 o
1 3 -4 2.06381 10.78 10.63 0.37 o
0 -5 2 2.05851 18.87 19.25 0.38 o
0 -2 5 2.04085 3.57 3.58 0.17 o
1 1 4 2.02469 9.84 10.00 0.26 o
1 4 1 2.02454 8.55 8.70 0.23 o
2 -2 1 2.02232 6.71 6.87 0.29 o
0 -5 1 2.01450 5.12 5.38 0.28 o
2 -2 2 2.01281 0.11 0.11 0.09 o
0 -5 3 2.00673 17.24 18.88 0.42 o
2 1 -2 1.99591 0.44 0.45 0.09 o
0 -1 5 1.99561 6.76 6.82 0.21 o
0 -3 5 1.99423 0.36 0.36 0.05 o
1 -4 0 1.99194 7.03 7.09 0.24 o
2 -1 3 1.98784 0.62 0.63 0.13 o
2 -1 -1 1.98548 0.24 0.24 0.08 o
2 2 -2 1.98133 4.58 4.65 0.32 o
2 0 3 1.97411 0.56 0.56 0.08 o
1 0 -4 1.96455 5.90 5.80 0.23 o
2 3 -1 1.96339 3.46 3.40 0.25 o
2 3 0 1.95826 2.26 2.22 0.16 o
1 -4 4 1.94808 6.83 6.85 0.31 o
2 -2 0 1.94274 4.18 4.24 0.24 o
1 -2 5 1.93831 7.09 7.22 0.32 o
1 5 -2 1.92814 0.20 0.20 0.07 o
2 0 -2 1.92562 0.07 0.07 0.01 o
2 2 2 1.92434 2.06 2.06 0.20 o
1 -1 5 1.92036 7.57 7.53 0.32 o
1 4 -4 1.91950 3.80 3.78 0.31 o
2 -2 3 1.91775 14.23 14.15 0.56 o
1 5 -1 1.91598 8.63 8.59 0.32 o
0 5 0 1.89118 0.12 0.12 0.04 o
1 -3 -2 1.88741 3.91 3.85 0.15 o
2 3 -2 1.88710 9.81 9.67 0.30 o
2 1 3 1.88144 0.18 0.18 0.03 o
1 -2 -3 1.88084 0.64 0.64 0.10 o
0 3 3 1.87886 1.71 1.73 0.12 o
0 -5 4 1.87839 0.76 0.77 0.08 o
1 -3 5 1.87801 1.63 1.65 0.18 o
0 0 5 1.87489 15.99 16.40 0.35 o
2 3 1 1.87353 4.01 4.12 0.19 o
0 -4 5 1.87260 0.05 0.05 0.01 o
1 5 -3 1.86238 3.61 3.65 0.19 o
1 3 3 1.84649 0.95 0.93 0.09 o
0 4 2 1.83879 9.79 9.74 0.22 o
2 -3 2 1.83511 3.22 3.26 0.23 o
0 2 4 1.83155 9.79 10.08 0.27 o
1 0 5 1.83022 2.85 2.94 0.22 o
1 5 0 1.83005 0.44 0.45 0.11 o
1 -5 2 1.82244 5.88 5.89 0.24 o
2 -3 1 1.81507 1.28 1.24 0.17 o
1 -4 -1 1.80760 16.50 16.13 0.35 o
1 -5 3 1.80650 0.05 0.05 0.04 o
1 4 2 1.80550 14.11 14.10 0.28 o
1 2 4 1.80442 2.19 2.20 0.08 o
2 2 -3 1.80246 0.15 0.15 0.06 o
2 -2 -1 1.80142 1.49 1.49 0.19 o
2 -1 4 1.79659 0.14 0.14 0.06 o
2 -1 -2 1.79398 0.16 0.16 0.02 o
1 -1 -4 1.79044 1.19 1.19 0.13 o
1 2 -5 1.78998 0.18 0.18 0.04 o
2 1 -3 1.78741 2.31 2.32 0.24 o
2 -3 3 1.78712 11.89 11.96 0.77 o
2 4 -1 1.77677 8.90 8.68 0.26 o
1 3 -5 1.77484 0.07 0.07 0.03 o
1 -5 1 1.77189 2.34 2.30 0.24 o
2 -2 4 1.76849 2.96 2.92 0.37 o
2 0 4 1.76156 0.11 0.11 0.02 o
1 -4 5 1.75881 0.18 0.17 0.07 o
2 3 -3 1.75422 0.01 0.01 0.03 o
2 4 0 1.74864 0.01 0.01 0.02 o
1 1 -5 1.74309 0.11 0.11 0.04 o
2 4 -2 1.74276 13.30 13.68 0.32 o
1 5 -4 1.73971 0.33 0.33 0.07 o
2 2 3 1.73875 1.06 1.08 0.09 o
2 3 2 1.73613 0.06 0.06 0.05 o
2 -3 0 1.73319 0.99 0.98 0.14 o
1 -5 4 1.72898 2.09 2.06 0.12 o
0 5 1 1.72635 0.70 0.69 0.06 o
0 1 5 1.71442 15.38 15.59 0.29 o
2 0 -3 1.71353 4.07 4.15 0.24 o
0 -6 2 1.71200 11.04 11.26 0.39 o
0 -5 5 1.71180 0.89 0.91 0.07 o
0 -6 3 1.70347 8.61 8.67 0.34 o
1 4 -5 1.70209 3.29 3.34 0.22 o
0 -2 6 1.69653 0.85 0.87 0.08 o
1 5 1 1.69630 6.79 7.00 0.24 o
1 1 5 1.69451 0.87 0.90 0.10 o
0 -3 6 1.69059 3.26 3.31 0.18 o
2 -3 4 1.68543 2.23 2.22 0.26 o
2 1 4 1.67349 0.72 0.72 0.08 o
1 -5 0 1.66970 1.28 1.28 0.11 o
2 4 1 1.66650 1.64 1.63 0.09 o
0 -6 1 1.66545 0.02 0.02 0.04 o
2 4 -3 1.65636 1.90 1.88 0.17 o
1 -2 6 1.65179 0.03 0.03 0.01 o
0 -1 6 1.64989 0.28 0.28 0.09 o
1 6 -2 1.64807 1.88 1.87 0.15 o
1 0 -5 1.64730 0.04 0.04 0.02 o
2 -4 2 1.64526 2.70 2.69 0.16 o
0 -6 4 1.64223 0.03 0.03 0.04 o
1 -3 -3 1.64101 0.03 0.03 0.00 o
2 -2 -2 1.63493 0.92 0.91 0.09 o
0 -4 6 1.63365 1.16 1.16 0.09 o
1 -3 6 1.63306 1.68 1.67 0.14 o
2 -4 3 1.62935 11.35 11.25 0.24 o
1 6 -3 1.62523 0.38 0.37 0.03 o
1 -1 6 1.62131 0.62 0.62 0.04 o
1 6 -1 1.62113 6.31 6.29 0.23 o
1 -4 -2 1.61619 2.63 2.66 0.15 o
2 2 -4 1.61453 2.63 2.65 0.16 o
2 -4 1 1.61178 0.95 0.95 0.08 o
2 -3 -1 1.61163 0.67 0.67 0.09 o
1 -5 5 1.61087 0.17 0.17 0.06 o
1 -2 -4 1.60715 0.25 0.25 0.04 o
0 4 3 1.60478 4.63 4.66 0.17 o
2 -1 5 1.60268 3.86 3.91 0.26 o
0 3 4 1.60196 2.71 2.75 0.13 o
2 -2 5 1.60061 1.56 1.58 0.26 o
2 -1 -3 1.60021 2.55 2.59 0.18 o
2 3 -4 1.59744 0.89 0.90 0.10 o
1 4 3 1.59656 0.91 0.91 0.09 o
1 3 4 1.59579 0.24 0.24 0.02 o
1 5 -5 1.59060 2.68 2.69 0.18 o
2 5 -1 1.58813 8.34 8.45 0.26 o
2 1 -4 1.58562 9.29 9.44 0.25 o
2 5 -2 1.58102 12.47 12.78 0.26 o
2 3 3 1.57837 1.17 1.18 0.13 o
0 6 0 1.57599 0.43 0.43 0.05 o
1 -4 6 1.56981 5.15 5.02 0.27 o
2 -4 4 1.56809 8.21 8.04 0.41 o
1 -6 3 1.56418 0.41 0.41 0.07 o
0 0 6 1.56241 0.29 0.30 0.07 o
2 0 5 1.56045 6.12 6.21 0.25 o
1 6 -4 1.55838 0.13 0.13 0.05 o
1 -6 2 1.55738 6.85 6.96 0.23 o
2 -3 5 1.55473 0.46 0.47 0.08 o
0 5 2 1.55373 7.19 7.32 0.15 o
2 2 4 1.55370 1.15 1.17 0.09 o
1 6 0 1.55117 2.03 2.06 0.16 o
2 5 0 1.55104 0.03 0.03 0.03 o
2 4 2 1.55069 1.62 1.64 0.14 o
1 0 6 1.54912 0.07 0.07 0.03 o
0 2 5 1.54610 11.11 11.27 0.18 o
1 5 2 1.54444 5.33 5.43 0.21 o
0 -6 5 1.54353 1.28 1.30 0.11 o
1 2 5 1.54235 0.05 0.05 0.03 o
1 -5 -1 1.54005 4.84 4.88 0.17 o
0 -5 6 1.53960 1.94 1.95 0.18 o
2 4 -4 1.53847 0.15 0.15 0.02 o
1 3 -6 1.53776 0.98 0.99 0.08 o
2 -4 0 1.53719 0.04 0.04 0.03 o
2 5 -3 1.53143 2.31 2.33 0.14 o
1 2 -6 1.53132 0.19 0.19 0.02 o
