#------------------------------------------------------------------------------
#$Date: 2023-03-04 20:23:28 +0200 (Sat, 04 Mar 2023) $
#$Revision: 281467 $
#$URL: file:///home/coder/svn-repositories/cod/cif/1/56/72/1567249.cif $
#------------------------------------------------------------------------------
#
# This file is available in the Crystallography Open Database (COD),
# http://www.crystallography.net/
#
# All data on this site have been placed in the public domain by the
# contributors.
#
data_1567249
loop_
_publ_author_name
'Zuffa, Caterina'
'Cappuccino, Chiara'
'Marchini, Marianna'
'Contini, Laura'
'Farinella, Francesco'
'Maini, Lucia'
_publ_section_title
;
 AgX-based hybrid coordination polymers: mechanochemical synthesis,
 structure and luminescence property characterization.
;
_journal_issue                   0
_journal_name_full               'Faraday discussions'
_journal_page_first              448
_journal_page_last               465
_journal_paper_doi               10.1039/d2fd00093h
_journal_volume                  241
_journal_year                    2023
_chemical_formula_moiety         'C6 H8 Ag Br N2'
_chemical_formula_sum            'C6 H8 Ag Br N2'
_chemical_formula_weight         295.92
_space_group_IT_number           14
_space_group_name_Hall           '-P 2ybc'
_space_group_name_H-M_alt        'P 1 21/c 1'
_symmetry_cell_setting           monoclinic
_symmetry_space_group_name_H-M   'P 1 21/c 1'
_cell_angle_alpha                90
_cell_angle_beta                 81.08
_cell_angle_gamma                90
_cell_formula_units_Z            4
_cell_length_a                   6.316
_cell_length_b                   7.365
_cell_length_c                   17.769
_cell_measurement_temperature    293
_cell_volume                     816.570
_computing_cell_refinement
;
 TOPAS-Academic v. 5.0
;
_computing_structure_refinement
;
 TOPAS-Academic v. 5.0
;
_computing_structure_solution
;
 TOPAS-Academic v. 5.0
;
_diffrn_ambient_temperature      293
_diffrn_measurement_device_type  Xpert-PRO
_diffrn_radiation_probe          x-ray
_diffrn_radiation_type           'Cu K\a'
_diffrn_radiation_wavelength     1.535
_exptl_crystal_density_diffrn    2.407
_pd_char_colour                  whitish
_pd_meas_number_of_points        5808
_pd_proc_2theta_range_inc        0.017
_pd_proc_2theta_range_max        84.98907
_pd_proc_2theta_range_min        9.49807
_pd_proc_ls_background_function  Chebyschev
_pd_proc_ls_prof_R_factor        0.0290
_pd_proc_ls_prof_wR_expected     0.0276
_pd_proc_ls_prof_wR_factor       0.0369
_pd_spec_mount_mode              transmission
_refine_ls_goodness_of_fit_all   1.33691
_refine_ls_hydrogen_treatment    constr
_refine_ls_number_parameters     0.000000
_refine_ls_R_I_factor            0.0143
_refine_ls_shift/su_max          0.003
_reflns_d_resolution_high        1.13527
_reflns_d_resolution_low         8.77697
_reflns_limit_h_max              5
_reflns_limit_h_min              0
_reflns_limit_k_max              6
_reflns_limit_k_min              -6
_reflns_limit_l_max              15
_reflns_limit_l_min              -14
_reflns_number_total             587
_cod_data_source_file            d2fd00093h3.cif
_cod_data_source_block           AgBr4pica_powder
_cod_depositor_comments
;
The following automatic conversions were performed:

data item '_diffrn_radiation_probe' value 'X-ray' was changed to
'x-ray' in accordance with the
/home/data/users/saulius/crontab/automatic-downloads/rss-feeds/RSC/lib/dictionaries/cif_core.dic
dictionary named 'cif_core.dic' version 2.4.2 last updated on
2011-04-26.

data item '_symmetry_cell_setting' value 'Monoclinic' was changed to
'monoclinic' in accordance with the
/home/data/users/saulius/crontab/automatic-downloads/rss-feeds/RSC/lib/dictionaries/cif_core.dic
dictionary named 'cif_core.dic' version 2.4.2 last updated on
2011-04-26.

Automatic conversion script
Id: cif_fix_values 7556 2019-12-06 15:28:31Z antanas 

 Adding full bibliography for 1567249--1567254.cif.
;
_cod_original_cell_volume        816
_cod_original_sg_symbol_H-M      P21/c
_cod_database_code               1567249
loop_
_symmetry_equiv_pos_as_xyz
'x, y, z '
'-x, y+1/2, -z+1/2 '
'x, -y+1/2, z+1/2 '
'-x, -y, -z '
loop_
_atom_site_label
_atom_site_type_symbol
_atom_site_symmetry_multiplicity
_atom_site_fract_x
_atom_site_fract_y
_atom_site_fract_z
_atom_site_occupancy
_atom_site_B_iso_or_equiv
Ag1 Ag 4 0.1041425 0.5744269 0.9178173 1 4.161025
Br2 Br 4 0.7752577 0.7379913 0.02066379 1 3.178013
N2 N 4 0.6445898 0.3051941 0.5781849 1 3
C2 C 4 0.7103655 0.4240585 0.8421864 1 3
N1 N 4 0.9092766 0.4910147 0.8226712 1 3
C6 C 4 0.9929385 0.5227312 0.7464903 1 3
C5 C 4 0.8738093 0.48864 0.6893388 1 3
C4 C 4 0.6707662 0.4188454 0.7080533 1 3
C3 C 4 0.5968658 0.3868976 0.7837599 1 3
C7 C 4 0.5285948 0.3810647 0.6490979 1 3
H21A H 4 0.7569011 0.3966477 0.5555376 1 4
H22A H 4 0.5382352 0.2852452 0.541618 1 4
H7A H 4 0.405294 0.2847819 0.6728945 1 4
H7B H 4 0.4535931 0.5078544 0.6358789 1 4
H3 H 4 0.4376175 0.3281614 0.7985843 1 4
H5 H 4 0.9396602 0.5166235 0.6301504 1 4
H6 H 4 1.15526 0.5753609 0.7319291 1 4
H2 H 4 0.6420612 0.4002766 0.901481 1 4
loop_
_geom_angle_atom_site_label_1
_geom_angle_atom_site_label_2
_geom_angle_atom_site_label_3
_geom_angle
_geom_angle_site_symmetry_1
_geom_angle_site_symmetry_2
_geom_angle_site_symmetry_3
N2 Ag1 N1 130.862 2_656 1_555 1_455
loop_
_geom_bond_atom_site_label_1
_geom_bond_atom_site_label_2
_geom_bond_distance
_geom_bond_site_symmetry_1
_geom_bond_site_symmetry_2
Ag1 N1 2.32275 1_555 1_455
loop_
_pd_proc_point_id
_pd_meas_2theta_scan
_pd_proc_intensity_total
_pd_calc_intensity_total
_pd_proc_ls_weight
1 9.49807 1141.51064 1169.64001 0.00085
2 9.51107 1140.78383 1135.69006 0.00088
3 9.52407 1140.21125 1169.64001 0.00085
4 9.53707 1139.93612 1211.03992 0.00083
5 9.55007 1139.75021 1218.01013 0.00082
6 9.56307 1139.51304 1218.01013 0.00082
7 9.57607 1139.14863 1183.36011 0.00085
8 9.58907 1138.83815 1190.25000 0.00084
9 9.60207 1138.71476 1225.00000 0.00082
10 9.61507 1138.81511 1190.25000 0.00084
11 9.62807 1139.18836 1149.21008 0.00087
12 9.64107 1139.97336 1162.80994 0.00086
13 9.65407 1141.13163 1156.00000 0.00087
14 9.66707 1142.52502 1156.00000 0.00087
15 9.68007 1144.29708 1183.36011 0.00085
16 9.69307 1146.79640 1204.09009 0.00083
17 9.70607 1150.88082 1204.09009 0.00083
18 9.71907 1156.48829 1218.01013 0.00082
19 9.73207 1163.74963 1246.08997 0.00080
20 9.74507 1172.78974 1232.00989 0.00081
21 9.75807 1185.24397 1197.15991 0.00084
22 9.77107 1201.37800 1218.01013 0.00082
23 9.78407 1221.85903 1253.16016 0.00080
24 9.79707 1247.44541 1274.49011 0.00078
25 9.81007 1281.50321 1317.68994 0.00076
26 9.82307 1325.22046 1369.00000 0.00073
27 9.83607 1379.28036 1428.83997 0.00070
28 9.84907 1445.35830 1444.00000 0.00069
29 9.86207 1528.96484 1459.24011 0.00069
30 9.87507 1636.62126 1497.69006 0.00067
31 9.88807 1768.80093 1664.63989 0.00060
32 9.90107 1930.16833 1857.60986 0.00054
33 9.91407 2129.81372 2088.48999 0.00048
34 9.92707 2395.28787 2256.25000 0.00044
35 9.94007 2725.30238 2490.01025 0.00040
36 9.95307 3133.38781 2948.48999 0.00034
37 9.96607 3634.18979 3340.83984 0.00030
38 9.97907 4325.01923 3943.83984 0.00025
39 9.99207 5233.87834 4872.04053 0.00021
40 10.00507 6450.16730 5959.83936 0.00017
41 10.01807 8077.81209 7447.69043 0.00013
42 10.03107 10536.33249 9623.60938 0.00010
43 10.04407 13414.41738 12034.08887 0.00008
44 10.05707 15121.18023 14304.15918 0.00007
45 10.07007 14617.72367 13971.23926 0.00007
46 10.08307 10185.65726 11257.20996 0.00009
47 10.09607 6717.65141 7691.28955 0.00013
48 10.10907 4185.06192 4542.76025 0.00022
49 10.12207 2570.84618 2777.29004 0.00036
50 10.13507 1842.85562 2043.04004 0.00049
51 10.14807 1577.04179 1689.20984 0.00059
52 10.16107 1422.98382 1489.95984 0.00067
53 10.17407 1331.98403 1339.55994 0.00075
54 10.18707 1272.44723 1281.63989 0.00078
55 10.20007 1234.21219 1218.01013 0.00082
56 10.21307 1204.45618 1232.00989 0.00081
57 10.22607 1181.03845 1122.25000 0.00089
58 10.23907 1162.34742 1149.21008 0.00087
59 10.25207 1147.83323 1169.64001 0.00085
60 10.26507 1135.78441 1115.56006 0.00090
61 10.27807 1125.45083 1149.21008 0.00087
62 10.29107 1116.52946 1115.56006 0.00090
63 10.30407 1108.91460 1056.25000 0.00095
64 10.31707 1102.30778 1024.00000 0.00098
65 10.33007 1096.34072 1069.29004 0.00094
66 10.34307 1090.91635 1036.84009 0.00096
67 10.35607 1085.97004 1075.83997 0.00093
68 10.36907 1081.43838 1082.41016 0.00092
69 10.38207 1077.07371 1115.56006 0.00090
70 10.39507 1072.80650 1062.75989 0.00094
71 10.40807 1068.57930 1069.29004 0.00094
72 10.42107 1064.68061 1095.60986 0.00091
73 10.43407 1061.39008 1056.25000 0.00095
74 10.44707 1058.45367 1024.00000 0.00098
75 10.46007 1055.69826 998.56000 0.00100
76 10.47307 1053.13032 1043.28992 0.00096
77 10.48607 1050.94458 1056.25000 0.00095
78 10.49907 1048.96084 1030.40991 0.00097
79 10.51207 1047.09854 1011.23993 0.00099
80 10.52507 1045.30022 1043.28992 0.00096
81 10.53807 1043.54886 1049.76013 0.00095
82 10.55107 1041.82674 1049.76013 0.00095
83 10.56407 1040.12674 1017.60999 0.00098
84 10.57707 1038.44093 1069.29004 0.00094
85 10.59007 1036.74165 1049.76013 0.00095
86 10.60307 1034.99334 992.25000 0.00101
87 10.61607 1033.17547 985.95996 0.00101
88 10.62907 1031.27384 992.25000 0.00101
89 10.64207 1029.44540 1024.00000 0.00098
90 10.65507 1027.91900 1011.23993 0.00099
91 10.66807 1026.57327 992.25000 0.00101
92 10.68107 1025.31735 1011.23993 0.00099
93 10.69407 1024.08111 1062.75989 0.00094
94 10.70707 1022.85341 1043.28992 0.00096
95 10.72007 1021.63186 1011.23993 0.00099
96 10.73307 1020.41490 967.21002 0.00103
97 10.74607 1019.20000 979.68994 0.00102
98 10.75907 1017.98218 1017.60999 0.00098
99 10.77207 1016.75822 992.25000 0.00101
100 10.78507 1015.52362 985.95996 0.00101
101 10.79807 1014.27093 1017.60999 0.00098
102 10.81107 1012.97109 1024.00000 0.00098
103 10.82407 1011.60699 1011.23993 0.00099
104 10.83707 1010.15911 1011.23993 0.00099
105 10.85007 1008.61317 998.56000 0.00100
106 10.86307 1007.09366 973.44006 0.00103
107 10.87607 1005.86015 992.25000 0.00101
108 10.88907 1004.77717 1004.89008 0.00100
109 10.90207 1003.75104 967.21002 0.00103
110 10.91507 1002.75028 973.44006 0.00103
111 10.92807 1001.75903 998.56000 0.00100
112 10.94107 1000.77279 992.25000 0.00101
113 10.95407 999.79024 998.56000 0.00100
114 10.96707 998.81126 992.25000 0.00101
115 10.98007 997.83584 985.95996 0.00101
116 10.99307 996.86397 1004.89008 0.00100
117 11.00607 995.89564 998.56000 0.00100
118 11.01907 994.93086 961.00000 0.00104
119 11.03207 993.96960 942.49005 0.00106
120 11.04507 993.01185 985.95996 0.00101
121 11.05807 992.05762 1036.84009 0.00096
122 11.07107 991.10690 1043.28992 0.00096
123 11.08407 990.15967 998.56000 0.00100
124 11.09707 989.21592 961.00000 0.00104
125 11.11007 988.27566 973.44006 0.00103
126 11.12307 987.33887 961.00000 0.00104
127 11.13607 986.40554 967.21002 0.00103
128 11.14907 985.47566 992.25000 0.00101
129 11.16207 984.54923 967.21002 0.00103
130 11.17507 983.62624 979.68994 0.00102
131 11.18807 982.70668 992.25000 0.00101
132 11.20107 981.79055 1004.89008 0.00100
133 11.21407 980.87782 967.21002 0.00103
134 11.22707 979.96851 948.63995 0.00105
135 11.24007 979.06259 992.25000 0.00101
136 11.25307 978.16007 979.68994 0.00102
137 11.26607 977.26093 954.81000 0.00105
138 11.27907 976.36516 979.68994 0.00102
139 11.29207 975.47276 967.21002 0.00103
140 11.30507 974.58372 961.00000 0.00104
141 11.31807 973.69803 936.36005 0.00107
142 11.33107 972.81568 936.36005 0.00107
143 11.34407 971.93667 942.49005 0.00106
144 11.35707 971.06099 948.63995 0.00105
145 11.37007 970.18862 942.49005 0.00106
146 11.38307 969.31957 979.68994 0.00102
147 11.39607 968.45382 973.44006 0.00103
148 11.40907 967.59137 973.44006 0.00103
149 11.42207 966.73221 992.25000 0.00101
150 11.43507 965.87633 1004.89008 0.00100
151 11.44807 965.02372 967.21002 0.00103
152 11.46107 964.17438 1004.89008 0.00100
153 11.47407 963.32829 998.56000 0.00100
154 11.48707 962.48545 948.63995 0.00105
155 11.50007 961.64586 967.21002 0.00103
156 11.51307 960.80950 924.15997 0.00108
157 11.52607 959.97636 979.68994 0.00102
158 11.53907 959.14645 985.95996 0.00101
159 11.55207 958.31975 900.00000 0.00111
160 11.56507 957.49625 918.08997 0.00109
161 11.57807 956.67596 973.44006 0.00103
162 11.59107 955.85890 954.81000 0.00105
163 11.60407 955.04512 942.49005 0.00106
164 11.61707 954.23465 900.00000 0.00111
165 11.63007 953.42755 961.00000 0.00104
166 11.64307 952.62415 930.25000 0.00107
167 11.65607 951.82457 942.49005 0.00106
168 11.66907 951.02904 942.49005 0.00106
169 11.68207 950.23780 936.36005 0.00107
170 11.69507 949.45186 936.36005 0.00107
171 11.70807 948.67198 985.95996 0.00101
172 11.72107 947.89867 894.00995 0.00112
173 11.73407 947.13278 961.00000 0.00104
174 11.74707 946.37675 1017.60999 0.00098
175 11.76007 945.63460 1024.00000 0.00098
176 11.77307 944.90771 967.21002 0.00103
177 11.78607 944.19943 967.21002 0.00103
178 11.79907 943.51546 930.25000 0.00107
179 11.81207 942.87708 930.25000 0.00107
180 11.82507 942.29315 992.25000 0.00101
181 11.83807 941.79093 924.15997 0.00108
182 11.85107 941.40052 906.01001 0.00110
183 11.86407 941.25868 961.00000 0.00104
184 11.87707 941.14604 985.95996 0.00101
185 11.89007 940.86307 954.81000 0.00105
186 11.90307 940.30904 924.15997 0.00108
187 11.91607 939.65230 942.49005 0.00106
188 11.92907 938.99615 936.36005 0.00107
189 11.94207 938.34435 967.21002 0.00103
190 11.95507 937.69837 967.21002 0.00103
191 11.96807 937.05893 936.36005 0.00107
192 11.98107 936.42667 924.15997 0.00108
193 11.99407 935.80103 936.36005 0.00107
194 12.00707 935.18225 942.49005 0.00106
195 12.02007 934.57096 942.49005 0.00106
196 12.03307 933.96935 954.81000 0.00105
197 12.04607 933.37641 948.63995 0.00105
198 12.05907 932.79277 936.36005 0.00107
199 12.07207 932.21909 948.63995 0.00105
200 12.08507 931.66039 906.01001 0.00110
201 12.09807 931.11590 894.00995 0.00112
202 12.11107 930.58712 936.36005 0.00107
203 12.12407 930.07610 918.08997 0.00109
204 12.13707 929.59252 882.09003 0.00113
205 12.15007 929.14229 924.15997 0.00108
206 12.16307 928.72971 924.15997 0.00108
207 12.17607 928.36423 918.08997 0.00109
208 12.18907 928.07327 942.49005 0.00106
209 12.20207 927.92960 924.15997 0.00108
210 12.21507 927.95993 924.15997 0.00108
211 12.22807 928.12322 906.01001 0.00110
212 12.24107 928.33434 888.03998 0.00113
213 12.25407 928.16403 912.04004 0.00110
214 12.26707 927.92257 924.15997 0.00108
215 12.28007 927.66386 942.49005 0.00106
216 12.29307 927.42932 942.49005 0.00106
217 12.30607 927.24076 918.08997 0.00109
218 12.31907 927.09531 924.15997 0.00108
219 12.33207 926.99775 918.08997 0.00109
220 12.34507 926.95501 912.04004 0.00110
221 12.35807 926.99978 948.63995 0.00105
222 12.37107 927.15668 961.00000 0.00104
223 12.38407 927.45484 912.04004 0.00110
224 12.39707 927.93389 967.21002 0.00103
225 12.41007 928.69515 973.44006 0.00103
226 12.42307 929.60191 979.68994 0.00102
227 12.43607 930.37364 961.00000 0.00104
228 12.44907 931.05032 954.81000 0.00105
229 12.46207 931.78679 998.56000 0.00100
230 12.47507 932.78046 998.56000 0.00100
231 12.48807 934.07712 1043.28992 0.00096
232 12.50107 935.76178 1036.84009 0.00096
233 12.51407 937.90152 1024.00000 0.00098
234 12.52707 940.33321 998.56000 0.00100
235 12.54007 942.33478 961.00000 0.00104
236 12.55307 944.19623 948.63995 0.00105
237 12.56607 946.12376 992.25000 0.00101
238 12.57907 948.33289 985.95996 0.00101
239 12.59207 950.85693 992.25000 0.00101
240 12.60507 953.69180 1017.60999 0.00098
241 12.61807 956.87198 967.21002 0.00103
242 12.63107 960.51611 998.56000 0.00100
243 12.64407 964.77937 967.21002 0.00103
244 12.65707 969.63098 1017.60999 0.00098
245 12.67007 975.15772 1024.00000 0.00098
246 12.68307 981.51230 998.56000 0.00100
247 12.69607 989.31442 1049.76013 0.00095
248 12.70907 998.60244 1017.60999 0.00098
249 12.72207 1009.81524 1075.83997 0.00093
250 12.73507 1023.43879 1075.83997 0.00093
251 12.74807 1042.15821 1135.69006 0.00088
252 12.76107 1066.73857 1162.80994 0.00086
253 12.77407 1098.51806 1176.48999 0.00085
254 12.78707 1139.14855 1253.16016 0.00080
255 12.80007 1195.06668 1260.25000 0.00079
256 12.81307 1270.72299 1296.00000 0.00077
257 12.82607 1368.29680 1391.28992 0.00072
258 12.83907 1492.35436 1436.41016 0.00070
259 12.85207 1655.50700 1576.09009 0.00063
260 12.86507 1878.51415 1764.00000 0.00057
261 12.87807 2164.99769 2079.35986 0.00048
262 12.89107 2530.03025 2361.95996 0.00042
263 12.90407 2997.71151 2894.43994 0.00035
264 12.91707 3664.17571 3552.15991 0.00028
265 12.93007 4541.63979 4369.20996 0.00023
266 12.94307 5696.28715 5431.68945 0.00018
267 12.95607 7203.60843 7140.25000 0.00014
268 12.96907 9516.81805 9177.64063 0.00011
269 12.98207 12812.66716 12476.88965 0.00008
270 12.99507 16782.34006 16256.25000 0.00006
271 13.00807 20775.81631 19993.95898 0.00005
272 13.02107 21687.43850 20996.00781 0.00005
273 13.03407 17934.06500 18333.15820 0.00005
274 13.04707 13498.24925 14113.44043 0.00007
275 13.06007 9550.60971 9761.44043 0.00010
276 13.07307 5848.17921 6225.21045 0.00016
277 13.08607 3709.45065 3794.55981 0.00026
278 13.09907 2481.82256 2590.81006 0.00039
279 13.11207 1885.35136 2016.01013 0.00050
280 13.12507 1594.96432 1664.63989 0.00060
281 13.13807 1436.34324 1505.43994 0.00066
282 13.15107 1321.82185 1398.76013 0.00071
283 13.16407 1238.74724 1267.35986 0.00079
284 13.17707 1176.93026 1183.36011 0.00085
285 13.19007 1132.87940 1142.43994 0.00088
286 13.20307 1097.39561 1108.88989 0.00090
287 13.21607 1068.36109 1036.84009 0.00096
288 13.22907 1044.45546 998.56000 0.00100
289 13.24207 1025.34911 992.25000 0.00101
290 13.25507 1009.41201 985.95996 0.00101
291 13.26807 995.68923 985.95996 0.00101
292 13.28107 983.86273 1004.89008 0.00100
293 13.29407 973.88599 961.00000 0.00104
294 13.30707 965.40767 961.00000 0.00104
295 13.32007 957.80837 930.25000 0.00107
296 13.33307 950.93470 930.25000 0.00107
297 13.34607 944.78305 954.81000 0.00105
298 13.35907 939.44085 930.25000 0.00107
299 13.37207 934.58012 936.36005 0.00107
300 13.38507 930.15304 948.63995 0.00105
301 13.39807 926.11563 936.36005 0.00107
302 13.41107 922.52510 930.25000 0.00107
303 13.42407 919.21784 930.25000 0.00107
304 13.43707 916.14886 967.21002 0.00103
305 13.45007 913.29351 936.36005 0.00107
306 13.46307 910.66954 888.03998 0.00113
307 13.47607 908.19580 924.15997 0.00108
308 13.48907 905.79319 936.36005 0.00107
309 13.50207 903.40663 900.00000 0.00111
310 13.51507 900.88070 888.03998 0.00113
311 13.52807 898.40233 924.15997 0.00108
312 13.54107 896.50516 936.36005 0.00107
313 13.55407 895.13234 912.04004 0.00110
314 13.56707 894.04264 936.36005 0.00107
315 13.58007 893.04342 948.63995 0.00105
316 13.59307 892.09815 906.01001 0.00110
317 13.60607 891.28343 906.01001 0.00110
318 13.61907 890.69219 936.36005 0.00107
319 13.63207 890.50311 948.63995 0.00105
320 13.64507 890.34297 918.08997 0.00109
321 13.65807 890.19730 906.01001 0.00110
322 13.67107 890.11177 894.00995 0.00112
323 13.68407 890.15007 906.01001 0.00110
324 13.69707 890.29225 894.00995 0.00112
325 13.71007 890.53902 906.01001 0.00110
326 13.72307 890.89577 882.09003 0.00113
327 13.73607 891.41723 841.00000 0.00119
328 13.74907 892.08735 846.81000 0.00118
329 13.76207 892.90598 888.03998 0.00113
330 13.77507 893.88428 894.00995 0.00112
331 13.78807 895.09236 888.03998 0.00113
332 13.80107 896.54456 876.16003 0.00114
333 13.81407 898.22582 882.09003 0.00113
334 13.82707 900.14401 912.04004 0.00110
335 13.84007 902.37386 930.25000 0.00107
336 13.85307 904.97006 900.00000 0.00111
337 13.86607 908.13127 924.15997 0.00108
338 13.87907 912.16616 900.00000 0.00111
339 13.89207 917.32150 930.25000 0.00107
340 13.90507 924.25201 942.49005 0.00106
341 13.91807 933.00982 942.49005 0.00106
342 13.93107 944.13760 924.15997 0.00108
343 13.94407 958.22894 942.49005 0.00106
344 13.95707 978.28607 998.56000 0.00100
345 13.97007 1005.19169 1024.00000 0.00098
346 13.98307 1040.34461 1075.83997 0.00093
347 13.99607 1085.59723 1135.69006 0.00088
348 14.00907 1147.91332 1122.25000 0.00089
349 14.02207 1233.17927 1232.00989 0.00081
350 14.03507 1344.32642 1339.55994 0.00075
351 14.04807 1487.57283 1489.95984 0.00067
352 14.06107 1678.68928 1755.61011 0.00057
353 14.07407 1950.76170 2061.16016 0.00049
354 14.08707 2313.83252 2323.23999 0.00043
355 14.10007 2795.94910 2819.60986 0.00035
356 14.11307 3436.91298 3469.21021 0.00029
357 14.12607 4443.37432 4290.25000 0.00023
358 14.13907 5850.74768 5836.96045 0.00017
359 14.15207 7556.18218 7293.16016 0.00014
360 14.16507 9368.33142 8873.63965 0.00011
361 14.17807 9766.00049 9428.41016 0.00011
362 14.19107 8417.40019 8464.00000 0.00012
363 14.20407 6616.13837 6789.76025 0.00015
364 14.21707 5017.87921 5097.96045 0.00020
365 14.23007 3476.60532 3636.08984 0.00028
366 14.24307 2402.02575 2480.04004 0.00040
367 14.25607 1725.98102 1900.95984 0.00053
368 14.26907 1379.76030 1528.80994 0.00065
369 14.28207 1221.25692 1324.96008 0.00075
370 14.29507 1132.66969 1239.04004 0.00081
371 14.30807 1070.89367 1176.48999 0.00085
372 14.32107 1026.89984 1089.00000 0.00092
373 14.33407 994.74213 1017.60999 0.00098
374 14.34707 971.98231 948.63995 0.00105
375 14.36007 953.48909 961.00000 0.00104
376 14.37307 938.44257 930.25000 0.00107
377 14.38607 926.10266 954.81000 0.00105
378 14.39907 916.38179 948.63995 0.00105
379 14.41207 908.14225 882.09003 0.00113
380 14.42507 901.04601 888.03998 0.00113
381 14.43807 894.91337 888.03998 0.00113
382 14.45107 889.73579 882.09003 0.00113
383 14.46407 885.25714 894.00995 0.00112
384 14.47707 881.27197 894.00995 0.00112
385 14.49007 877.72074 876.16003 0.00114
386 14.50307 874.59596 876.16003 0.00114
387 14.51607 871.86692 906.01001 0.00110
388 14.52907 869.40565 900.00000 0.00111
389 14.54207 867.19608 888.03998 0.00113
390 14.55507 865.26358 841.00000 0.00119
391 14.56807 863.67751 864.35999 0.00116
392 14.58107 862.27960 870.25000 0.00115
393 14.59407 860.98260 852.64001 0.00117
394 14.60707 859.57484 841.00000 0.00119
395 14.62007 858.24634 823.69006 0.00121
396 14.63307 856.99863 852.64001 0.00117
397 14.64607 855.82636 846.81000 0.00118
398 14.65907 854.72566 852.64001 0.00117
399 14.67207 853.70338 864.35999 0.00116
400 14.68507 852.75274 888.03998 0.00113
401 14.69807 851.83053 846.81000 0.00118
402 14.71107 850.89829 835.20996 0.00120
403 14.72407 849.89874 817.96002 0.00122
404 14.73707 848.77991 789.61005 0.00127
405 14.75007 847.67440 812.25000 0.00123
406 14.76307 846.70283 823.69006 0.00121
407 14.77607 846.01691 823.69006 0.00121
408 14.78907 845.43536 841.00000 0.00119
409 14.80207 844.84930 846.81000 0.00118
410 14.81507 844.24134 846.81000 0.00118
411 14.82807 843.60329 841.00000 0.00119
412 14.84107 842.99191 817.96002 0.00122
413 14.85407 842.54040 823.69006 0.00121
414 14.86707 842.17404 846.81000 0.00118
415 14.88007 841.85377 841.00000 0.00119
416 14.89307 841.56151 817.96002 0.00122
417 14.90607 841.30382 835.20996 0.00120
418 14.91907 841.08263 864.35999 0.00116
419 14.93207 840.89284 823.69006 0.00121
420 14.94507 840.73030 835.20996 0.00120
421 14.95807 840.54140 870.25000 0.00115
422 14.97107 840.36793 835.20996 0.00120
423 14.98407 840.21794 841.00000 0.00119
424 14.99707 840.10731 835.20996 0.00120
425 15.01007 840.05723 823.69006 0.00121
426 15.02307 840.09197 846.81000 0.00118
427 15.03607 840.24029 829.43994 0.00121
428 15.04907 840.55625 806.56000 0.00124
429 15.06207 840.92798 829.43994 0.00121
430 15.07507 841.07382 846.81000 0.00118
431 15.08807 841.04757 817.96002 0.00122
432 15.10107 840.94162 829.43994 0.00121
433 15.11407 840.77815 817.96002 0.00122
434 15.12707 840.63882 817.96002 0.00122
435 15.14007 840.62610 823.69006 0.00121
436 15.15307 840.74147 829.43994 0.00121
437 15.16607 840.92613 806.56000 0.00124
438 15.17907 841.15423 888.03998 0.00113
439 15.19207 841.41901 852.64001 0.00117
440 15.20507 841.72378 829.43994 0.00121
441 15.21807 842.07938 846.81000 0.00118
442 15.23107 842.50496 852.64001 0.00117
443 15.24407 843.00534 912.04004 0.00110
444 15.25707 843.59260 823.69006 0.00121
445 15.27007 844.30717 823.69006 0.00121
446 15.28307 845.22986 870.25000 0.00115
447 15.29607 846.28830 852.64001 0.00117
448 15.30907 847.39221 829.43994 0.00121
449 15.32207 848.40937 841.00000 0.00119
450 15.33507 849.50718 806.56000 0.00124
451 15.34807 850.78221 829.43994 0.00121
452 15.36107 852.23216 812.25000 0.00123
453 15.37407 853.88440 852.64001 0.00117
454 15.38707 855.81533 858.48993 0.00116
455 15.40007 858.19810 852.64001 0.00117
456 15.41307 861.06575 841.00000 0.00119
457 15.42607 864.50181 882.09003 0.00113
458 15.43907 868.49215 924.15997 0.00108
459 15.45207 872.92330 894.00995 0.00112
460 15.46507 878.31427 918.08997 0.00109
461 15.47807 885.05580 841.00000 0.00119
462 15.49107 893.63709 912.04004 0.00110
463 15.50407 905.39272 870.25000 0.00115
464 15.51707 921.75622 912.04004 0.00110
465 15.53007 943.30007 967.21002 0.00103
466 15.54307 971.35422 936.36005 0.00107
467 15.55607 1008.47149 967.21002 0.00103
468 15.56907 1062.34784 1036.84009 0.00096
469 15.58207 1134.69927 1115.56006 0.00090
470 15.59507 1231.19590 1281.63989 0.00078
471 15.60807 1358.11484 1383.84009 0.00072
472 15.62107 1554.09540 1552.36011 0.00064
473 15.63407 1833.94790 1883.56018 0.00053
474 15.64707 2219.85012 2256.25000 0.00044
475 15.66007 2719.60242 2724.84009 0.00037
476 15.67307 3284.42021 3294.76025 0.00030
477 15.68607 3501.16123 3576.03979 0.00028
478 15.69907 3308.79318 3410.56006 0.00029
479 15.71207 2790.12537 3025.00000 0.00033
480 15.72507 2355.23878 2430.48999 0.00041
481 15.73807 1940.31655 1980.25000 0.00050
482 15.75107 1573.26470 1656.49011 0.00060
483 15.76407 1286.26061 1361.61011 0.00073
484 15.77707 1133.66358 1162.80994 0.00086
485 15.79007 1071.73202 1082.41016 0.00092
486 15.80307 1038.03371 1017.60999 0.00098
487 15.81607 1022.37774 973.44006 0.00103
488 15.82907 1018.42523 998.56000 0.00100
489 15.84207 1023.88827 1004.89008 0.00100
490 15.85507 1036.01990 1030.40991 0.00097
491 15.86807 1055.31905 1043.28992 0.00096
492 15.88107 1085.85450 1049.76013 0.00095
493 15.89407 1131.23103 1082.41016 0.00092
494 15.90707 1193.53086 1156.00000 0.00087
495 15.92007 1276.75820 1218.01013 0.00082
496 15.93307 1392.47652 1361.61011 0.00073
497 15.94607 1560.36794 1528.80994 0.00065
498 15.95907 1786.95067 1738.89001 0.00058
499 15.97207 2088.70982 2079.35986 0.00048
500 15.98507 2493.35301 2530.08984 0.00040
501 15.99807 3107.34831 3124.81006 0.00032
502 16.01107 3962.54533 3969.00000 0.00025
503 16.02407 5149.50671 5198.40967 0.00019
504 16.03707 6765.48544 6938.89063 0.00014
505 16.05007 9255.35026 9196.81055 0.00011
506 16.06307 11992.43212 11881.00000 0.00008
507 16.07607 13892.76821 13665.61035 0.00007
508 16.08907 14130.38694 13712.40918 0.00007
509 16.10207 11455.32642 12056.04102 0.00008
510 16.11507 9185.01476 9584.41016 0.00010
511 16.12807 7080.89739 7293.16016 0.00014
512 16.14107 5097.55724 5227.29053 0.00019
513 16.15407 3348.76987 3540.25000 0.00028
514 16.16707 2374.58543 2470.09009 0.00040
515 16.18007 1799.79798 1874.88989 0.00053
516 16.19307 1493.69084 1560.25000 0.00064
517 16.20607 1324.91410 1361.61011 0.00073
518 16.21907 1224.14779 1232.00989 0.00081
519 16.23207 1148.82469 1142.43994 0.00088
520 16.24507 1092.23921 1069.29004 0.00094
521 16.25807 1048.90486 1017.60999 0.00098
522 16.27107 1017.22168 973.44006 0.00103
523 16.28407 991.27921 973.44006 0.00103
524 16.29707 969.76132 954.81000 0.00105
525 16.31007 951.80454 942.49005 0.00106
526 16.32307 937.25224 924.15997 0.00108
527 16.33607 924.97086 906.01001 0.00110
528 16.34907 914.38536 906.01001 0.00110
529 16.36207 905.20689 888.03998 0.00113
530 16.37507 897.35303 841.00000 0.00119
531 16.38807 890.60351 846.81000 0.00118
532 16.40107 884.55742 812.25000 0.00123
533 16.41407 879.14749 829.43994 0.00121
534 16.42707 874.34015 812.25000 0.00123
535 16.44007 870.19765 829.43994 0.00121
536 16.45307 866.44398 817.96002 0.00122
537 16.46607 863.03038 829.43994 0.00121
538 16.47907 859.92161 823.69006 0.00121
539 16.49207 857.16935 858.48993 0.00116
540 16.50507 854.64610 823.69006 0.00121
541 16.51807 852.32000 806.56000 0.00124
542 16.53107 850.17377 812.25000 0.00123
543 16.54407 848.22837 806.56000 0.00124
544 16.55707 846.44066 800.88995 0.00125
545 16.57007 844.77502 852.64001 0.00117
546 16.58307 843.22152 835.20996 0.00120
547 16.59607 841.78495 800.88995 0.00125
548 16.60907 840.45819 784.00000 0.00128
549 16.62207 839.20705 806.56000 0.00124
550 16.63507 838.02396 795.24005 0.00126
551 16.64807 836.90418 823.69006 0.00121
552 16.66107 835.84755 784.00000 0.00128
553 16.67407 834.81972 823.69006 0.00121
554 16.68707 833.80544 800.88995 0.00125
555 16.70007 832.78715 812.25000 0.00123
556 16.71307 831.68530 812.25000 0.00123
557 16.72607 830.42588 795.24005 0.00126
558 16.73907 829.10638 750.75995 0.00133
559 16.75207 827.84873 761.76001 0.00131
560 16.76507 827.09434 823.69006 0.00121
561 16.77807 826.45556 841.00000 0.00119
562 16.79107 825.89316 812.25000 0.00123
563 16.80407 825.34407 778.40997 0.00128
564 16.81707 824.77048 806.56000 0.00124
565 16.83007 824.11272 778.40997 0.00128
566 16.84307 823.45401 812.25000 0.00123
567 16.85607 822.88469 846.81000 0.00118
568 16.86907 822.53362 784.00000 0.00128
569 16.88207 822.26450 823.69006 0.00121
570 16.89507 822.02576 812.25000 0.00123
571 16.90807 821.81765 817.96002 0.00122
572 16.92107 821.63180 852.64001 0.00117
573 16.93407 821.49857 812.25000 0.00123
574 16.94707 821.38862 812.25000 0.00123
575 16.96007 821.23796 795.24005 0.00126
576 16.97307 821.04633 789.61005 0.00127
577 16.98607 820.84882 784.00000 0.00128
578 16.99907 820.65898 772.83997 0.00129
579 17.01207 820.47582 789.61005 0.00127
580 17.02507 820.29887 756.25000 0.00132
581 17.03807 820.12809 761.76001 0.00131
582 17.05107 819.96245 817.96002 0.00122
583 17.06407 819.79901 789.61005 0.00127
584 17.07707 819.63633 806.56000 0.00124
585 17.09007 819.47243 800.88995 0.00125
586 17.10307 819.30152 812.25000 0.00123
587 17.11607 819.11504 772.83997 0.00129
588 17.12907 818.90503 806.56000 0.00124
589 17.14207 818.66022 784.00000 0.00128
590 17.15507 818.33299 772.83997 0.00129
591 17.16807 817.90314 806.56000 0.00124
592 17.18107 817.47569 835.20996 0.00120
593 17.19407 817.09286 823.69006 0.00121
594 17.20707 816.96611 812.25000 0.00123
595 17.22007 816.89905 800.88995 0.00125
596 17.23307 816.84916 795.24005 0.00126
597 17.24607 816.80387 812.25000 0.00123
598 17.25907 816.76166 817.96002 0.00122
599 17.27207 816.72273 789.61005 0.00127
600 17.28507 816.68649 800.88995 0.00125
601 17.29807 816.65297 817.96002 0.00122
602 17.31107 816.62220 789.61005 0.00127
603 17.32407 816.59488 778.40997 0.00128
604 17.33707 816.57038 795.24005 0.00126
605 17.35007 816.54896 778.40997 0.00128
606 17.36307 816.53081 800.88995 0.00125
607 17.37607 816.51740 784.00000 0.00128
608 17.38907 816.50901 784.00000 0.00128
609 17.40207 816.50705 812.25000 0.00123
610 17.41507 816.51300 817.96002 0.00122
611 17.42807 816.52841 823.69006 0.00121
612 17.44107 816.55007 812.25000 0.00123
613 17.45407 816.58593 795.24005 0.00126
614 17.46707 816.63620 800.88995 0.00125
615 17.48007 816.70235 812.25000 0.00123
616 17.49307 816.80563 795.24005 0.00126
617 17.50607 816.92171 767.29004 0.00130
618 17.51907 817.01881 806.56000 0.00124
619 17.53207 817.03667 835.20996 0.00120
620 17.54507 817.01802 795.24005 0.00126
621 17.55807 816.97407 784.00000 0.00128
622 17.57107 816.89551 767.29004 0.00130
623 17.58407 816.77010 772.83997 0.00129
624 17.59707 816.53544 767.29004 0.00130
625 17.61007 816.27742 778.40997 0.00128
626 17.62307 816.13826 784.00000 0.00128
627 17.63607 816.16730 800.88995 0.00125
628 17.64907 816.22612 806.56000 0.00124
629 17.66207 816.30621 806.56000 0.00124
630 17.67507 816.39857 817.96002 0.00122
631 17.68807 816.50116 823.69006 0.00121
632 17.70107 816.61453 823.69006 0.00121
633 17.71407 816.73589 806.56000 0.00124
634 17.72707 816.87354 806.56000 0.00124
635 17.74007 817.02866 767.29004 0.00130
636 17.75307 817.20243 823.69006 0.00121
637 17.76607 817.42009 841.00000 0.00119
638 17.77907 817.65804 800.88995 0.00125
639 17.79207 817.88771 761.76001 0.00131
640 17.80507 818.05718 789.61005 0.00127
641 17.81807 818.22091 789.61005 0.00127
642 17.83107 818.39635 789.61005 0.00127
643 17.84407 818.58852 829.43994 0.00121
644 17.85707 818.80006 806.56000 0.00124
645 17.87007 819.03491 835.20996 0.00120
646 17.88307 819.29730 835.20996 0.00120
647 17.89607 819.60207 806.56000 0.00124
648 17.90907 819.94209 823.69006 0.00121
649 17.92207 820.36657 846.81000 0.00118
650 17.93507 820.86424 888.03998 0.00113
651 17.94807 821.39303 841.00000 0.00119
652 17.96107 821.93213 835.20996 0.00120
653 17.97407 822.43865 846.81000 0.00118
654 17.98707 822.97057 870.25000 0.00115
655 18.00007 823.36818 800.88995 0.00125
656 18.01307 823.74971 823.69006 0.00121
657 18.02607 824.13852 817.96002 0.00122
658 18.03907 824.55119 756.25000 0.00132
659 18.05207 824.98600 778.40997 0.00128
660 18.06507 825.44604 835.20996 0.00120
661 18.07807 825.93315 806.56000 0.00124
662 18.09107 826.45803 817.96002 0.00122
663 18.10407 827.01548 806.56000 0.00124
664 18.11707 827.61010 829.43994 0.00121
665 18.13007 828.24358 806.56000 0.00124
666 18.14307 828.93764 841.00000 0.00119
667 18.15607 829.68834 795.24005 0.00126
668 18.16907 830.50636 852.64001 0.00117
669 18.18207 831.40611 870.25000 0.00115
670 18.19507 832.44663 876.16003 0.00114
671 18.20807 833.58430 906.01001 0.00110
672 18.22107 834.77333 835.20996 0.00120
673 18.23407 835.96371 852.64001 0.00117
674 18.24707 837.24238 852.64001 0.00117
675 18.26007 838.65254 852.64001 0.00117
676 18.27307 840.19019 852.64001 0.00117
677 18.28607 841.87895 846.81000 0.00118
678 18.29907 843.74295 835.20996 0.00120
679 18.31207 845.83932 888.03998 0.00113
680 18.32507 848.15142 882.09003 0.00113
681 18.33807 850.72324 882.09003 0.00113
682 18.35107 853.58322 906.01001 0.00110
683 18.36407 856.87113 888.03998 0.00113
684 18.37707 860.56482 888.03998 0.00113
685 18.39007 864.74556 894.00995 0.00112
686 18.40307 869.48408 894.00995 0.00112
687 18.41607 875.09347 900.00000 0.00111
688 18.42907 881.68183 906.01001 0.00110
689 18.44207 889.46613 918.08997 0.00109
690 18.45507 898.81216 912.04004 0.00110
691 18.46807 910.46959 942.49005 0.00106
692 18.48107 925.55475 900.00000 0.00111
693 18.49407 944.85035 936.36005 0.00107
694 18.50707 970.32170 967.21002 0.00103
695 18.52007 1004.49979 998.56000 0.00100
696 18.53307 1053.59979 1062.75989 0.00094
697 18.54607 1121.19631 1108.88989 0.00090
698 18.55907 1216.84241 1176.48999 0.00085
699 18.57207 1349.73421 1296.00000 0.00077
700 18.58507 1544.47843 1513.21008 0.00066
701 18.59807 1793.97123 1780.84009 0.00056
702 18.61107 2096.83346 2070.25000 0.00048
703 18.62407 2458.84178 2460.15991 0.00041
704 18.63707 2914.40355 2959.36011 0.00034
705 18.65007 3527.30976 3516.48999 0.00028
706 18.66307 4227.35022 4134.49023 0.00024
707 18.67607 4996.19624 4956.16016 0.00020
708 18.68907 5823.59063 5625.00000 0.00018
709 18.70207 6107.61165 6006.25000 0.00017
710 18.71507 5758.42494 5730.48975 0.00017
711 18.72807 4788.96687 4802.49023 0.00021
712 18.74107 4000.37161 4057.69019 0.00025
713 18.75407 3336.16263 3410.56006 0.00029
714 18.76707 2682.20949 2641.96021 0.00038
715 18.78007 2034.09848 2007.03992 0.00050
716 18.79307 1577.52681 1544.48999 0.00065
717 18.80607 1324.54381 1267.35986 0.00079
718 18.81907 1170.62421 1169.64001 0.00085
719 18.83207 1081.29026 1089.00000 0.00092
720 18.84507 1027.19919 1011.23993 0.00099
721 18.85807 991.41602 973.44006 0.00103
722 18.87107 963.98786 942.49005 0.00106
723 18.88407 942.94101 930.25000 0.00107
724 18.89707 926.58714 906.01001 0.00110
725 18.91007 914.29201 876.16003 0.00114
726 18.92307 903.95958 906.01001 0.00110
727 18.93607 895.33328 894.00995 0.00112
728 18.94907 888.13255 870.25000 0.00115
729 18.96207 882.35254 846.81000 0.00118
730 18.97507 877.42329 888.03998 0.00113
731 18.98807 873.20169 900.00000 0.00111
732 19.00107 869.62351 864.35999 0.00116
733 19.01407 866.70510 829.43994 0.00121
734 19.02707 864.29018 846.81000 0.00118
735 19.04007 862.27667 841.00000 0.00119
736 19.05307 860.52073 823.69006 0.00121
737 19.06607 859.06296 846.81000 0.00118
738 19.07907 857.83635 888.03998 0.00113
739 19.09207 856.69681 876.16003 0.00114
740 19.10507 855.74942 864.35999 0.00116
741 19.11807 855.02262 829.43994 0.00121
742 19.13107 854.51172 852.64001 0.00117
743 19.14407 854.15533 852.64001 0.00117
744 19.15707 853.82538 852.64001 0.00117
745 19.17007 853.61843 835.20996 0.00120
746 19.18307 853.59458 852.64001 0.00117
747 19.19607 853.73826 829.43994 0.00121
748 19.20907 854.08854 835.20996 0.00120
749 19.22207 854.67255 846.81000 0.00118
750 19.23507 855.62927 876.16003 0.00114
751 19.24807 857.04330 823.69006 0.00121
752 19.26107 859.06443 906.01001 0.00110
753 19.27407 861.81801 924.15997 0.00108
754 19.28707 865.70346 858.48993 0.00116
755 19.30007 871.43964 870.25000 0.00115
756 19.31307 879.12559 876.16003 0.00114
757 19.32607 888.26236 870.25000 0.00115
758 19.33907 897.91060 876.16003 0.00114
759 19.35207 901.22672 948.63995 0.00105
760 19.36507 898.50900 882.09003 0.00113
761 19.37807 892.92882 888.03998 0.00113
762 19.39107 888.47521 882.09003 0.00113
763 19.40407 885.44418 912.04004 0.00110
764 19.41707 881.81611 906.01001 0.00110
765 19.43007 878.65655 942.49005 0.00106
766 19.44307 876.81047 900.00000 0.00111
767 19.45607 877.07204 936.36005 0.00107
768 19.46907 878.38845 936.36005 0.00107
769 19.48207 880.44924 900.00000 0.00111
770 19.49507 883.15403 900.00000 0.00111
771 19.50807 886.55022 882.09003 0.00113
772 19.52107 890.44106 888.03998 0.00113
773 19.53407 894.84586 924.15997 0.00108
774 19.54707 899.95157 912.04004 0.00110
775 19.56007 905.67706 870.25000 0.00115
776 19.57307 912.06610 906.01001 0.00110
777 19.58607 919.23136 948.63995 0.00105
778 19.59907 927.69611 924.15997 0.00108
779 19.61207 937.46942 985.95996 0.00101
780 19.62507 948.66482 979.68994 0.00102
781 19.63807 961.53594 1011.23993 0.00099
782 19.65107 977.14510 961.00000 0.00104
783 19.66407 996.36976 979.68994 0.00102
784 19.67707 1020.05123 1030.40991 0.00097
785 19.69007 1049.62507 1024.00000 0.00098
786 19.70307 1088.87135 1082.41016 0.00092
787 19.71607 1145.16842 1190.25000 0.00084
788 19.72907 1221.99795 1204.09009 0.00083
789 19.74207 1326.16947 1361.61011 0.00073
790 19.75507 1468.60999 1497.69006 0.00067
791 19.76807 1691.72158 1722.25000 0.00058
792 19.78107 2009.73491 2097.63989 0.00048
793 19.79407 2459.06609 2550.25000 0.00039
794 19.80707 3080.21929 3214.89014 0.00031
795 19.82007 4092.87551 4212.01025 0.00024
796 19.83307 5494.43896 5550.25000 0.00018
797 19.84607 7083.03956 7208.01025 0.00014
798 19.85907 8582.23505 8482.41016 0.00012
799 19.87207 8917.42270 8854.80957 0.00011
800 19.88507 7891.46062 8154.09033 0.00012
801 19.89807 6664.91633 6938.89063 0.00014
802 19.91107 5626.64314 5821.69043 0.00017
803 19.92407 4815.92934 4788.63965 0.00021
804 19.93707 3808.56362 3806.89014 0.00026
805 19.95007 2915.04027 2862.25000 0.00035
806 19.96307 2241.15972 2162.25000 0.00046
807 19.97607 1873.04206 1840.41016 0.00054
808 19.98907 1747.79958 1747.23999 0.00057
809 20.00207 1722.53293 1747.23999 0.00057
810 20.01507 1810.62923 1823.29004 0.00055
811 20.02807 2002.39366 2016.01013 0.00050
812 20.04107 2318.05466 2323.23999 0.00043
813 20.05407 2777.29030 2851.56006 0.00035
814 20.06707 3546.12997 3588.01025 0.00028
815 20.08007 4627.56751 4596.84033 0.00022
816 20.09307 5858.75094 5821.69043 0.00017
817 20.10607 7046.03615 6806.25000 0.00015
818 20.11907 7295.35532 7157.15967 0.00014
819 20.13207 6521.11780 6674.88965 0.00015
820 20.14507 5534.54115 5670.09033 0.00018
821 20.15807 4695.45527 4802.49023 0.00021
822 20.17107 4050.60129 4006.88989 0.00025
823 20.18407 3264.31547 3102.48999 0.00032
824 20.19707 2534.99114 2371.69019 0.00042
825 20.21007 1940.71484 1883.56018 0.00053
826 20.22307 1593.26204 1544.48999 0.00065
827 20.23607 1390.76227 1310.44006 0.00076
828 20.24907 1258.72429 1225.00000 0.00082
829 20.26207 1172.25630 1115.56006 0.00090
830 20.27507 1110.58266 1056.25000 0.00095
831 20.28807 1062.76908 1069.29004 0.00094
832 20.30107 1024.45055 1024.00000 0.00098
833 20.31407 995.82431 985.95996 0.00101
834 20.32707 973.89380 924.15997 0.00108
835 20.34007 957.27081 936.36005 0.00107
836 20.35307 943.62859 930.25000 0.00107
837 20.36607 932.22490 942.49005 0.00106
838 20.37907 922.57893 942.49005 0.00106
839 20.39207 914.61912 912.04004 0.00110
840 20.40507 907.63293 918.08997 0.00109
841 20.41807 901.50525 882.09003 0.00113
842 20.43107 896.11240 864.35999 0.00116
843 20.44407 891.51900 864.35999 0.00116
844 20.45707 887.39257 888.03998 0.00113
845 20.47007 883.66566 852.64001 0.00117
846 20.48307 880.24108 906.01001 0.00110
847 20.49607 877.19427 882.09003 0.00113
848 20.50907 874.48124 823.69006 0.00121
849 20.52207 872.03746 835.20996 0.00120
850 20.53507 869.81178 864.35999 0.00116
851 20.54807 867.82571 829.43994 0.00121
852 20.56107 866.00577 823.69006 0.00121
853 20.57407 864.32680 918.08997 0.00109
854 20.58707 862.77656 882.09003 0.00113
855 20.60007 861.36705 876.16003 0.00114
856 20.61307 860.06673 864.35999 0.00116
857 20.62607 858.85308 864.35999 0.00116
858 20.63907 857.71803 858.48993 0.00116
859 20.65207 856.65901 852.64001 0.00117
860 20.66507 855.65405 858.48993 0.00116
861 20.67807 854.68320 888.03998 0.00113
862 20.69107 853.70241 858.48993 0.00116
863 20.70407 852.67666 823.69006 0.00121
864 20.71707 851.76260 900.00000 0.00111
865 20.73007 850.99677 846.81000 0.00118
866 20.74307 850.38026 835.20996 0.00120
867 20.75607 849.82956 835.20996 0.00120
868 20.76907 849.31756 846.81000 0.00118
869 20.78207 848.82589 870.25000 0.00115
870 20.79507 848.33573 858.48993 0.00116
871 20.80807 847.81387 870.25000 0.00115
872 20.82107 847.27645 823.69006 0.00121
873 20.83407 846.84901 852.64001 0.00117
874 20.84707 846.51458 841.00000 0.00119
875 20.86007 846.22125 864.35999 0.00116
876 20.87307 845.95014 852.64001 0.00117
877 20.88607 845.68896 846.81000 0.00118
878 20.89907 845.43314 888.03998 0.00113
879 20.91207 845.17759 858.48993 0.00116
880 20.92507 844.89847 870.25000 0.00115
881 20.93807 844.56667 870.25000 0.00115
882 20.95107 844.19046 846.81000 0.00118
883 20.96407 843.78856 841.00000 0.00119
884 20.97707 843.49994 841.00000 0.00119
885 20.99007 843.33496 841.00000 0.00119
886 21.00307 843.22279 841.00000 0.00119
887 21.01607 843.12871 823.69006 0.00121
888 21.02907 843.03361 888.03998 0.00113
889 21.04207 842.92257 835.20996 0.00120
890 21.05507 842.78382 876.16003 0.00114
891 21.06807 842.62126 894.00995 0.00112
892 21.08107 842.45715 846.81000 0.00118
893 21.09407 842.41575 829.43994 0.00121
894 21.10707 842.42635 835.20996 0.00120
895 21.12007 842.48094 846.81000 0.00118
896 21.13307 842.57495 882.09003 0.00113
897 21.14607 842.69478 876.16003 0.00114
898 21.15907 842.78659 829.43994 0.00121
899 21.17207 842.82607 829.43994 0.00121
900 21.18507 842.85573 841.00000 0.00119
901 21.19807 842.88264 858.48993 0.00116
902 21.21107 842.90000 870.25000 0.00115
903 21.22407 842.89787 864.35999 0.00116
904 21.23707 842.86508 858.48993 0.00116
905 21.25007 842.77634 829.43994 0.00121
906 21.26307 842.67504 835.20996 0.00120
907 21.27607 842.68527 841.00000 0.00119
908 21.28907 842.78950 835.20996 0.00120
909 21.30207 842.93872 835.20996 0.00120
910 21.31507 843.11215 870.25000 0.00115
911 21.32807 843.28253 894.00995 0.00112
912 21.34107 843.46129 864.35999 0.00116
913 21.35407 843.64714 823.69006 0.00121
914 21.36707 843.83143 864.35999 0.00116
915 21.38007 844.04188 894.00995 0.00112
916 21.39307 844.27371 858.48993 0.00116
917 21.40607 844.46465 841.00000 0.00119
918 21.41907 844.63345 852.64001 0.00117
919 21.43207 844.80000 852.64001 0.00117
920 21.44507 844.97142 864.35999 0.00116
921 21.45807 845.14827 870.25000 0.00115
922 21.47107 845.33273 870.25000 0.00115
923 21.48407 845.52561 894.00995 0.00112
924 21.49707 845.71646 870.25000 0.00115
925 21.51007 845.87178 852.64001 0.00117
926 21.52307 845.96458 852.64001 0.00117
927 21.53607 846.12102 876.16003 0.00114
928 21.54907 846.35091 876.16003 0.00114
929 21.56207 846.61057 852.64001 0.00117
930 21.57507 846.88161 812.25000 0.00123
931 21.58807 847.16428 829.43994 0.00121
932 21.60107 847.46190 846.81000 0.00118
933 21.61407 847.77456 858.48993 0.00116
934 21.62707 848.10680 870.25000 0.00115
935 21.64007 848.47299 876.16003 0.00114
936 21.65307 848.88760 864.35999 0.00116
937 21.66607 849.35139 876.16003 0.00114
938 21.67907 849.86424 900.00000 0.00111
939 21.69207 850.35689 846.81000 0.00118
940 21.70507 850.82831 823.69006 0.00121
941 21.71807 851.30950 829.43994 0.00121
942 21.73107 851.82883 864.35999 0.00116
943 21.74407 852.37493 864.35999 0.00116
944 21.75707 852.91001 870.25000 0.00115
945 21.77007 853.38304 870.25000 0.00115
946 21.78307 853.84567 864.35999 0.00116
947 21.79607 854.33744 852.64001 0.00117
948 21.80907 855.03269 912.04004 0.00110
949 21.82207 855.79863 912.04004 0.00110
950 21.83507 856.62961 876.16003 0.00114
951 21.84807 857.52011 852.64001 0.00117
952 21.86107 858.48070 829.43994 0.00121
953 21.87407 859.54593 894.00995 0.00112
954 21.88707 860.71958 882.09003 0.00113
955 21.90007 862.02493 870.25000 0.00115
956 21.91307 863.46798 858.48993 0.00116
957 21.92607 865.08229 894.00995 0.00112
958 21.93907 866.80739 864.35999 0.00116
959 21.95207 868.62378 870.25000 0.00115
960 21.96507 870.59337 900.00000 0.00111
961 21.97807 872.80193 906.01001 0.00110
962 21.99107 875.32231 894.00995 0.00112
963 22.00407 878.14959 912.04004 0.00110
964 22.01707 881.33384 961.00000 0.00104
965 22.03007 884.98434 870.25000 0.00115
966 22.04307 889.43795 912.04004 0.00110
967 22.05607 894.77412 906.01001 0.00110
968 22.06907 901.38614 882.09003 0.00113
969 22.08207 909.58073 918.08997 0.00109
970 22.09507 921.37200 948.63995 0.00105
971 22.10807 937.53093 985.95996 0.00101
972 22.12107 959.65246 985.95996 0.00101
973 22.13407 989.63773 992.25000 0.00101
974 22.14707 1035.68795 1102.23999 0.00091
975 22.16007 1105.41278 1095.60986 0.00091
976 22.17307 1206.80703 1246.08997 0.00080
977 22.18607 1350.63824 1421.29004 0.00070
978 22.19907 1568.00718 1664.63989 0.00060
979 22.21207 1878.00069 1857.60986 0.00054
980 22.22507 2206.60438 2237.29004 0.00045
981 22.23807 2473.82264 2500.00000 0.00040
982 22.25107 2539.98037 2540.16016 0.00039
983 22.26407 2300.95972 2332.88989 0.00043
984 22.27707 2066.64912 2097.63989 0.00048
985 22.29007 1875.31039 1849.00000 0.00054
986 22.30307 1741.87240 1730.55981 0.00058
987 22.31607 1561.29323 1576.09009 0.00063
988 22.32907 1376.02912 1317.68994 0.00076
989 22.34207 1215.83951 1156.00000 0.00087
990 22.35507 1102.57766 1056.25000 0.00095
991 22.36807 1044.64214 1017.60999 0.00098
992 22.38107 1011.63817 973.44006 0.00103
993 22.39407 992.73460 973.44006 0.00103
994 22.40707 983.04283 998.56000 0.00100
995 22.42007 979.83270 998.56000 0.00100
996 22.43307 981.81590 979.68994 0.00102
997 22.44607 988.27316 998.56000 0.00100
998 22.45907 999.78395 1017.60999 0.00098
999 22.47207 1017.42635 1011.23993 0.00099
1000 22.48507 1044.80949 1036.84009 0.00096
1001 22.49807 1088.14463 1135.69006 0.00088
1002 22.51107 1151.67318 1149.21008 0.00087
1003 22.52407 1243.13246 1197.15991 0.00084
1004 22.53707 1373.23419 1376.40991 0.00073
1005 22.55007 1594.00723 1656.49011 0.00060
1006 22.56307 1921.71538 1998.09009 0.00050
1007 22.57607 2369.51031 2450.25000 0.00041
1008 22.58907 2930.01684 3047.04004 0.00033
1009 22.60207 3494.40186 3624.04004 0.00028
1010 22.61507 3697.25632 3881.28979 0.00026
1011 22.62807 3531.31200 3648.16016 0.00027
1012 22.64107 3107.01031 3226.23999 0.00031
1013 22.65407 2735.69927 2851.56006 0.00035
1014 22.66707 2510.14377 2540.16016 0.00039
1015 22.68007 2253.02476 2256.25000 0.00044
1016 22.69307 1958.52129 1927.21008 0.00052
1017 22.70607 1647.08818 1624.08997 0.00062
1018 22.71907 1445.03119 1376.40991 0.00073
1019 22.73207 1329.49852 1274.49011 0.00078
1020 22.74507 1279.50527 1288.81006 0.00078
1021 22.75807 1281.59671 1288.81006 0.00078
1022 22.77107 1340.35586 1324.96008 0.00075
1023 22.78407 1456.38071 1428.83997 0.00070
1024 22.79707 1642.02216 1632.16016 0.00061
1025 22.81007 1917.28740 1936.00000 0.00052
1026 22.82307 2353.61575 2450.25000 0.00041
1027 22.83607 2972.88066 3169.68994 0.00032
1028 22.84907 3634.00375 3981.60986 0.00025
1029 22.86207 4185.25991 4529.29053 0.00022
1030 22.87507 4310.28825 4583.28955 0.00022
1031 22.88807 3842.29340 4212.01025 0.00024
1032 22.90107 3356.58982 3648.16016 0.00027
1033 22.91407 2956.88537 3192.25000 0.00031
1034 22.92707 2691.58244 2787.83984 0.00036
1035 22.94007 2339.08331 2420.64014 0.00041
1036 22.95307 1957.15423 2016.01013 0.00050
1037 22.96607 1607.47962 1584.03992 0.00063
1038 22.97907 1345.26170 1310.44006 0.00076
1039 22.99207 1202.63743 1162.80994 0.00086
1040 23.00507 1112.50582 1102.23999 0.00091
1041 23.01807 1054.07496 1011.23993 0.00099
1042 23.03107 1015.36363 985.95996 0.00101
1043 23.04407 989.40154 1011.23993 0.00099
1044 23.05707 969.95596 992.25000 0.00101
1045 23.07007 954.41425 967.21002 0.00103
1046 23.08307 941.88130 973.44006 0.00103
1047 23.09607 931.87612 954.81000 0.00105
1048 23.10907 923.86544 912.04004 0.00110
1049 23.12207 917.04493 918.08997 0.00109
1050 23.13507 911.21660 912.04004 0.00110
1051 23.14807 906.23140 912.04004 0.00110
1052 23.16107 902.09972 930.25000 0.00107
1053 23.17407 898.44870 864.35999 0.00116
1054 23.18707 895.21964 912.04004 0.00110
1055 23.20007 892.40474 930.25000 0.00107
1056 23.21307 890.03504 900.00000 0.00111
1057 23.22607 887.95975 858.48993 0.00116
1058 23.23907 886.12421 888.03998 0.00113
1059 23.25207 884.50387 930.25000 0.00107
1060 23.26507 883.10853 906.01001 0.00110
1061 23.27807 881.89539 954.81000 0.00105
1062 23.29107 880.82953 894.00995 0.00112
1063 23.30407 879.89909 846.81000 0.00118
1064 23.31707 879.12406 846.81000 0.00118
1065 23.33007 878.52269 930.25000 0.00107
1066 23.34307 878.07409 924.15997 0.00108
1067 23.35607 877.77909 882.09003 0.00113
1068 23.36907 877.68529 936.36005 0.00107
1069 23.38207 877.81998 912.04004 0.00110
1070 23.39507 878.21225 936.36005 0.00107
1071 23.40807 878.91235 882.09003 0.00113
1072 23.42107 880.21355 876.16003 0.00114
1073 23.43407 882.10131 954.81000 0.00105
1074 23.44707 884.87142 906.01001 0.00110
1075 23.46007 888.82715 882.09003 0.00113
1076 23.47307 895.29091 936.36005 0.00107
1077 23.48607 905.37102 912.04004 0.00110
1078 23.49907 920.34041 948.63995 0.00105
1079 23.51207 941.81735 967.21002 0.00103
1080 23.52507 974.77266 942.49005 0.00106
1081 23.53807 1021.02887 1024.00000 0.00098
1082 23.55107 1069.55545 1062.75989 0.00094
1083 23.56407 1108.93862 1149.21008 0.00087
1084 23.57707 1117.86573 1108.88989 0.00090
1085 23.59007 1083.32635 1056.25000 0.00095
1086 23.60307 1048.16421 1011.23993 0.00099
1087 23.61607 1019.49695 1036.84009 0.00096
1088 23.62907 1001.10492 1036.84009 0.00096
1089 23.64207 977.11833 967.21002 0.00103
1090 23.65507 949.72796 961.00000 0.00104
1091 23.66807 923.83215 936.36005 0.00107
1092 23.68107 903.57301 882.09003 0.00113
1093 23.69407 892.07496 912.04004 0.00110
1094 23.70707 884.89095 888.03998 0.00113
1095 23.72007 880.21534 888.03998 0.00113
1096 23.73307 877.20779 876.16003 0.00114
1097 23.74607 875.27008 900.00000 0.00111
1098 23.75907 873.89135 924.15997 0.00108
1099 23.77207 872.84926 906.01001 0.00110
1100 23.78507 872.06042 900.00000 0.00111
1101 23.79807 871.42626 924.15997 0.00108
1102 23.81107 870.91670 906.01001 0.00110
1103 23.82407 870.46775 888.03998 0.00113
1104 23.83707 870.12574 876.16003 0.00114
1105 23.85007 869.92305 852.64001 0.00117
1106 23.86307 869.91153 852.64001 0.00117
1107 23.87607 869.99904 888.03998 0.00113
1108 23.88907 870.17999 912.04004 0.00110
1109 23.90207 870.45077 894.00995 0.00112
1110 23.91507 870.82051 894.00995 0.00112
1111 23.92807 871.28872 900.00000 0.00111
1112 23.94107 871.89502 888.03998 0.00113
1113 23.95407 872.68469 912.04004 0.00110
1114 23.96707 873.69901 930.25000 0.00107
1115 23.98007 875.01952 942.49005 0.00106
1116 23.99307 876.90013 918.08997 0.00109
1117 24.00607 879.71550 906.01001 0.00110
1118 24.01907 883.63506 906.01001 0.00110
1119 24.03207 889.08063 900.00000 0.00111
1120 24.04507 896.65030 924.15997 0.00108
1121 24.05807 909.39540 918.08997 0.00109
1122 24.07107 928.52929 942.49005 0.00106
1123 24.08407 956.30425 961.00000 0.00104
1124 24.09707 994.79005 979.68994 0.00102
1125 24.11007 1049.77906 1049.76013 0.00095
1126 24.12307 1104.14747 1142.43994 0.00088
1127 24.13607 1138.90111 1169.64001 0.00085
1128 24.14907 1142.17070 1149.21008 0.00087
1129 24.16207 1100.20743 1142.43994 0.00088
1130 24.17507 1062.55442 1108.88989 0.00090
1131 24.18807 1034.81583 1069.29004 0.00094
1132 24.20107 1014.23982 1024.00000 0.00098
1133 24.21407 989.46756 1011.23993 0.00099
1134 24.22707 958.31736 979.68994 0.00102
1135 24.24007 930.93329 912.04004 0.00110
1136 24.25307 909.60123 894.00995 0.00112
1137 24.26607 895.74292 906.01001 0.00110
1138 24.27907 888.51891 906.01001 0.00110
1139 24.29207 883.63391 876.16003 0.00114
1140 24.30507 880.38076 870.25000 0.00115
1141 24.31807 878.14288 912.04004 0.00110
1142 24.33107 876.64888 924.15997 0.00108
1143 24.34407 875.51568 882.09003 0.00113
1144 24.35707 874.64761 906.01001 0.00110
1145 24.37007 873.99442 912.04004 0.00110
1146 24.38307 873.53817 912.04004 0.00110
1147 24.39607 873.17937 912.04004 0.00110
1148 24.40907 872.89692 924.15997 0.00108
1149 24.42207 872.70817 936.36005 0.00107
1150 24.43507 872.55088 858.48993 0.00116
1151 24.44807 872.44258 876.16003 0.00114
1152 24.46107 872.36654 918.08997 0.00109
1153 24.47407 872.31580 936.36005 0.00107
1154 24.48707 872.30751 948.63995 0.00105
1155 24.50007 872.43298 906.01001 0.00110
1156 24.51307 872.64180 894.00995 0.00112
1157 24.52607 872.89179 930.25000 0.00107
1158 24.53907 873.16422 936.36005 0.00107
1159 24.55207 873.51436 924.15997 0.00108
1160 24.56507 873.97796 894.00995 0.00112
1161 24.57807 874.61894 894.00995 0.00112
1162 24.59107 875.61152 948.63995 0.00105
1163 24.60407 877.05133 900.00000 0.00111
1164 24.61707 879.08759 918.08997 0.00109
1165 24.63007 881.85751 936.36005 0.00107
1166 24.64307 885.67315 948.63995 0.00105
1167 24.65607 889.40680 992.25000 0.00101
1168 24.66907 892.04974 967.21002 0.00103
1169 24.68207 892.72527 979.68994 0.00102
1170 24.69507 890.32983 942.49005 0.00106
1171 24.70807 888.17605 906.01001 0.00110
1172 24.72107 886.64009 906.01001 0.00110
1173 24.73407 885.70485 961.00000 0.00104
1174 24.74707 884.55269 906.01001 0.00110
1175 24.76007 882.97181 918.08997 0.00109
1176 24.77307 881.54528 900.00000 0.00111
1177 24.78607 880.48570 888.03998 0.00113
1178 24.79907 880.03664 930.25000 0.00107
1179 24.81207 880.10375 858.48993 0.00116
1180 24.82507 880.43938 876.16003 0.00114
1181 24.83807 880.92146 930.25000 0.00107
1182 24.85107 881.44984 846.81000 0.00118
1183 24.86407 881.95675 918.08997 0.00109
1184 24.87707 882.49461 948.63995 0.00105
1185 24.89007 883.09794 918.08997 0.00109
1186 24.90307 883.77445 936.36005 0.00107
1187 24.91607 884.52583 942.49005 0.00106
1188 24.92907 885.34043 942.49005 0.00106
1189 24.94207 886.15103 948.63995 0.00105
1190 24.95507 887.00386 900.00000 0.00111
1191 24.96807 887.91019 924.15997 0.00108
1192 24.98107 888.87611 924.15997 0.00108
1193 24.99407 889.92439 961.00000 0.00104
1194 25.00707 891.04940 930.25000 0.00107
1195 25.02007 892.25073 924.15997 0.00108
1196 25.03307 893.53279 948.63995 0.00105
1197 25.04607 894.91640 948.63995 0.00105
1198 25.05907 896.41450 973.44006 0.00103
1199 25.07207 898.02412 936.36005 0.00107
1200 25.08507 899.76884 936.36005 0.00107
1201 25.09807 901.77386 961.00000 0.00104
1202 25.11107 904.03638 961.00000 0.00104
1203 25.12407 906.47812 942.49005 0.00106
1204 25.13707 909.12489 961.00000 0.00104
1205 25.15007 912.01447 936.36005 0.00107
1206 25.16307 915.23565 942.49005 0.00106
1207 25.17607 918.80655 954.81000 0.00105
1208 25.18907 922.78182 954.81000 0.00105
1209 25.20207 927.22822 967.21002 0.00103
1210 25.21507 932.44724 992.25000 0.00101
1211 25.22807 938.52670 992.25000 0.00101
1212 25.24107 945.55846 973.44006 0.00103
1213 25.25407 953.72234 967.21002 0.00103
1214 25.26707 963.64868 998.56000 0.00100
1215 25.28007 976.28905 1004.89008 0.00100
1216 25.29307 992.27466 1011.23993 0.00099
1217 25.30607 1012.79586 1062.75989 0.00094
1218 25.31907 1040.39556 1089.00000 0.00092
1219 25.33207 1082.65248 1135.69006 0.00088
1220 25.34507 1143.46906 1232.00989 0.00081
1221 25.35807 1230.58405 1354.23999 0.00074
1222 25.37107 1352.93942 1521.00000 0.00066
1223 25.38407 1564.62095 1705.68994 0.00059
1224 25.39707 1876.08828 1998.09009 0.00050
1225 25.41007 2292.88281 2460.15991 0.00041
1226 25.42307 2806.61194 2959.36011 0.00034
1227 25.43607 3303.76881 3422.25000 0.00029
1228 25.44907 3493.76732 3672.35986 0.00027
1229 25.46207 3373.29287 3612.00977 0.00028
1230 25.47507 3001.59033 3226.23999 0.00031
1231 25.48807 2659.15095 2809.00000 0.00036
1232 25.50107 2463.97440 2530.08984 0.00040
1233 25.51407 2283.39841 2313.60986 0.00043
1234 25.52707 2071.15442 2079.35986 0.00048
1235 25.54007 1789.67093 1806.25000 0.00055
1236 25.55307 1542.85539 1544.48999 0.00065
1237 25.56607 1356.73907 1369.00000 0.00073
1238 25.57907 1228.95123 1225.00000 0.00082
1239 25.59207 1150.90903 1156.00000 0.00087
1240 25.60507 1111.42153 1082.41016 0.00092
1241 25.61807 1085.15508 1082.41016 0.00092
1242 25.63107 1068.66848 998.56000 0.00100
1243 25.64407 1058.94653 985.95996 0.00101
1244 25.65707 1055.18794 1043.28992 0.00096
1245 25.67007 1055.31502 1043.28992 0.00096
1246 25.68307 1058.72424 1056.25000 0.00095
1247 25.69607 1065.37068 1056.25000 0.00095
1248 25.70907 1075.79279 1062.75989 0.00094
1249 25.72207 1091.32770 1069.29004 0.00094
1250 25.73507 1112.12435 1095.60986 0.00091
1251 25.74807 1139.69219 1142.43994 0.00088
1252 25.76107 1175.91186 1128.95984 0.00089
1253 25.77407 1230.48000 1218.01013 0.00082
1254 25.78707 1310.36150 1339.55994 0.00075
1255 25.80007 1425.94169 1451.60986 0.00069
1256 25.81307 1591.56710 1640.25000 0.00061
1257 25.82607 1846.11618 1883.56018 0.00053
1258 25.83907 2266.98719 2265.75977 0.00044
1259 25.85207 2887.56630 2872.95972 0.00035
1260 25.86507 3727.66970 3794.55981 0.00026
1261 25.87807 4797.19876 4802.49023 0.00021
1262 25.89107 5818.32752 5990.76025 0.00017
1263 25.90407 6258.94820 6496.35986 0.00015
1264 25.91707 6058.87503 6177.95996 0.00016
1265 25.93007 5294.95567 5505.63965 0.00018
1266 25.94307 4579.09569 4624.00000 0.00022
1267 25.95607 4172.40065 4264.09033 0.00023
1268 25.96907 3823.44730 3868.84009 0.00026
1269 25.98207 3418.81127 3364.00000 0.00030
1270 25.99507 2859.71558 2714.40991 0.00037
1271 26.00807 2335.44428 2088.48999 0.00048
1272 26.02107 1934.05980 1764.00000 0.00057
1273 26.03407 1654.23756 1513.21008 0.00066
1274 26.04707 1483.89681 1413.75989 0.00071
1275 26.06007 1401.12231 1324.96008 0.00075
1276 26.07307 1358.52734 1267.35986 0.00079
1277 26.08607 1345.14481 1267.35986 0.00079
1278 26.09907 1365.88350 1391.28992 0.00072
1279 26.11207 1424.99836 1528.80994 0.00065
1280 26.12507 1530.97348 1584.03992 0.00063
1281 26.13807 1695.84196 1764.00000 0.00057
1282 26.15107 1972.57243 2106.81006 0.00047
1283 26.16407 2413.28124 2480.04004 0.00040
1284 26.17707 3000.23128 3047.04004 0.00033
1285 26.19007 3685.72218 3806.89014 0.00026
1286 26.20307 4346.92185 4356.00000 0.00023
1287 26.21607 4525.62258 4502.40967 0.00022
1288 26.22907 4277.75216 4342.81006 0.00023
1289 26.24207 3779.48781 3806.89014 0.00026
1290 26.25507 3307.43851 3469.21021 0.00029
1291 26.26807 3074.67703 3136.00000 0.00032
1292 26.28107 2842.13137 2830.23999 0.00035
1293 26.29407 2559.20650 2550.25000 0.00039
1294 26.30707 2192.41234 2171.55981 0.00046
1295 26.32007 1848.74814 1722.25000 0.00058
1296 26.33307 1595.46111 1544.48999 0.00065
1297 26.34607 1419.09575 1361.61011 0.00073
1298 26.35907 1309.35615 1239.04004 0.00081
1299 26.37207 1252.47896 1176.48999 0.00085
1300 26.38507 1222.41515 1218.01013 0.00082
1301 26.39807 1211.11126 1225.00000 0.00082
1302 26.41107 1216.09713 1225.00000 0.00082
1303 26.42407 1237.88711 1274.49011 0.00078
1304 26.43707 1280.59583 1296.00000 0.00077
1305 26.45007 1361.04370 1383.84009 0.00072
1306 26.46307 1488.00566 1513.21008 0.00066
1307 26.47607 1678.34779 1713.96008 0.00058
1308 26.48907 1961.35990 2043.04004 0.00049
1309 26.50207 2431.74991 2460.15991 0.00041
1310 26.51507 3044.87386 3047.04004 0.00033
1311 26.52807 3729.15168 3696.63989 0.00027
1312 26.54107 4391.74314 4290.25000 0.00023
1313 26.55407 4527.79098 4596.84033 0.00022
1314 26.56707 4238.99186 4303.35986 0.00023
1315 26.58007 3741.87219 3806.89014 0.00026
1316 26.59307 3270.13287 3410.56006 0.00029
1317 26.60607 3043.19864 3158.44019 0.00032
1318 26.61907 2808.94988 2926.80981 0.00034
1319 26.63207 2523.82155 2570.48999 0.00039
1320 26.64507 2154.82458 2152.96021 0.00046
1321 26.65807 1809.20395 1780.84009 0.00056
1322 26.67107 1550.10928 1505.43994 0.00066
1323 26.68407 1364.71730 1339.55994 0.00075
1324 26.69707 1243.86484 1239.04004 0.00081
1325 26.71007 1174.89364 1128.95984 0.00089
1326 26.72307 1123.79764 1095.60986 0.00091
1327 26.73607 1085.60594 1122.25000 0.00089
1328 26.74907 1056.57318 1036.84009 0.00096
1329 26.76207 1035.08834 1043.28992 0.00096
1330 26.77507 1017.09600 1082.41016 0.00092
1331 26.78807 1000.89039 1004.89008 0.00100
1332 26.80107 986.65242 961.00000 0.00104
1333 26.81407 974.67783 973.44006 0.00103
1334 26.82707 964.83143 979.68994 0.00102
1335 26.84007 956.67733 948.63995 0.00105
1336 26.85307 949.75802 936.36005 0.00107
1337 26.86607 943.98708 924.15997 0.00108
1338 26.87907 939.10337 985.95996 0.00101
1339 26.89207 934.85460 942.49005 0.00106
1340 26.90507 931.10040 948.63995 0.00105
1341 26.91807 927.84812 979.68994 0.00102
1342 26.93107 925.03181 954.81000 0.00105
1343 26.94407 922.51920 888.03998 0.00113
1344 26.95707 920.23944 918.08997 0.00109
1345 26.97007 918.15515 930.25000 0.00107
1346 26.98307 916.17678 906.01001 0.00110
1347 26.99607 914.30010 906.01001 0.00110
1348 27.00907 912.58974 979.68994 0.00102
1349 27.02207 911.16776 924.15997 0.00108
1350 27.03507 909.93722 888.03998 0.00113
1351 27.04807 908.81302 936.36005 0.00107
1352 27.06107 907.81364 900.00000 0.00111
1353 27.07407 906.91739 924.15997 0.00108
1354 27.08707 906.09875 992.25000 0.00101
1355 27.10007 905.30559 936.36005 0.00107
1356 27.11307 904.55531 942.49005 0.00106
1357 27.12607 903.84414 985.95996 0.00101
1358 27.13907 903.15854 912.04004 0.00110
1359 27.15207 902.50006 900.00000 0.00111
1360 27.16507 901.97605 912.04004 0.00110
1361 27.17807 901.56040 900.00000 0.00111
1362 27.19107 901.21842 864.35999 0.00116
1363 27.20407 900.90052 912.04004 0.00110
1364 27.21707 900.58023 912.04004 0.00110
1365 27.23007 900.27166 967.21002 0.00103
1366 27.24307 899.98852 876.16003 0.00114
1367 27.25607 899.72517 912.04004 0.00110
1368 27.26907 899.53284 888.03998 0.00113
1369 27.28207 899.36951 930.25000 0.00107
1370 27.29507 899.22434 870.25000 0.00115
1371 27.30807 899.06410 876.16003 0.00114
1372 27.32107 898.91228 918.08997 0.00109
1373 27.33407 898.85888 948.63995 0.00105
1374 27.34707 898.90031 942.49005 0.00106
1375 27.36007 898.99537 936.36005 0.00107
1376 27.37307 899.12989 918.08997 0.00109
1377 27.38607 899.30697 894.00995 0.00112
1378 27.39907 899.54376 888.03998 0.00113
1379 27.41207 899.83672 870.25000 0.00115
1380 27.42507 900.15274 930.25000 0.00107
1381 27.43807 900.47859 888.03998 0.00113
1382 27.45107 900.82804 882.09003 0.00113
1383 27.46407 901.16307 900.00000 0.00111
1384 27.47707 901.51691 900.00000 0.00111
1385 27.49007 901.97582 954.81000 0.00105
1386 27.50307 902.51344 912.04004 0.00110
1387 27.51607 903.13983 870.25000 0.00115
1388 27.52907 903.84141 906.01001 0.00110
1389 27.54207 904.61288 930.25000 0.00107
1390 27.55507 905.38307 924.15997 0.00108
1391 27.56807 906.21671 924.15997 0.00108
1392 27.58107 907.12359 882.09003 0.00113
1393 27.59407 908.10149 888.03998 0.00113
1394 27.60707 909.15440 936.36005 0.00107
1395 27.62007 910.28412 924.15997 0.00108
1396 27.63307 911.50463 930.25000 0.00107
1397 27.64607 912.78958 948.63995 0.00105
1398 27.65907 914.13075 924.15997 0.00108
1399 27.67207 915.55933 906.01001 0.00110
1400 27.68507 917.24776 948.63995 0.00105
1401 27.69807 919.13612 942.49005 0.00106
1402 27.71107 921.18967 924.15997 0.00108
1403 27.72407 923.37938 930.25000 0.00107
1404 27.73707 925.82550 924.15997 0.00108
1405 27.75007 928.58972 894.00995 0.00112
1406 27.76307 931.71064 918.08997 0.00109
1407 27.77607 935.10833 948.63995 0.00105
1408 27.78907 938.89337 961.00000 0.00104
1409 27.80207 943.06716 967.21002 0.00103
1410 27.81507 947.60187 936.36005 0.00107
1411 27.82807 952.60651 942.49005 0.00106
1412 27.84107 958.30450 936.36005 0.00107
1413 27.85407 964.89583 936.36005 0.00107
1414 27.86707 972.34687 942.49005 0.00106
1415 27.88007 980.81498 967.21002 0.00103
1416 27.89307 990.53789 979.68994 0.00102
1417 27.90607 1002.31928 998.56000 0.00100
1418 27.91907 1016.27549 1043.28992 0.00096
1419 27.93207 1032.99762 1036.84009 0.00096
1420 27.94507 1053.16904 1036.84009 0.00096
1421 27.95807 1079.69428 1089.00000 0.00092
1422 27.97107 1114.91111 1135.69006 0.00088
1423 27.98407 1161.91495 1218.01013 0.00082
1424 27.99707 1225.05674 1274.49011 0.00078
1425 28.01007 1319.31106 1310.44006 0.00076
1426 28.02307 1467.52699 1489.95984 0.00067
1427 28.03607 1688.06048 1755.61011 0.00057
1428 28.04907 2005.56007 2143.68994 0.00047
1429 28.06207 2476.96050 2601.00000 0.00038
1430 28.07507 3153.96209 3214.89014 0.00031
1431 28.08807 3903.13770 3981.60986 0.00025
1432 28.10107 4608.90886 4596.84033 0.00022
1433 28.11407 5098.06134 4970.25000 0.00020
1434 28.12707 5005.54144 4970.25000 0.00020
1435 28.14007 4697.08512 4719.68945 0.00021
1436 28.15307 4293.21046 4369.20996 0.00023
1437 28.16607 3928.87915 4044.95972 0.00025
1438 28.17907 3672.91530 3660.25000 0.00027
1439 28.19207 3332.00272 3271.84009 0.00031
1440 28.20507 2947.33349 2948.48999 0.00034
1441 28.21807 2533.63494 2490.01025 0.00040
1442 28.23107 2147.01928 2125.20996 0.00047
1443 28.24407 1850.37290 1764.00000 0.00057
1444 28.25707 1609.65736 1528.80994 0.00065
1445 28.27007 1428.12489 1459.24011 0.00069
1446 28.28307 1306.77727 1246.08997 0.00080
1447 28.29607 1222.63062 1149.21008 0.00087
1448 28.30907 1163.73616 1102.23999 0.00091
1449 28.32207 1124.36808 1115.56006 0.00090
1450 28.33507 1096.50151 1062.75989 0.00094
1451 28.34807 1077.00800 1024.00000 0.00098
1452 28.36107 1062.83442 1017.60999 0.00098
1453 28.37407 1053.02754 1024.00000 0.00098
1454 28.38707 1046.51754 1049.76013 0.00095
1455 28.40007 1043.19318 1036.84009 0.00096
1456 28.41307 1042.62492 985.95996 0.00101
1457 28.42607 1045.21021 1024.00000 0.00098
1458 28.43907 1051.07155 1043.28992 0.00096
1459 28.45207 1060.99752 1017.60999 0.00098
1460 28.46507 1075.90018 1082.41016 0.00092
1461 28.47807 1100.14044 1089.00000 0.00092
1462 28.49107 1136.12791 1128.95984 0.00089
1463 28.50407 1188.91815 1232.00989 0.00081
1464 28.51707 1267.46874 1369.00000 0.00073
1465 28.53007 1395.23250 1459.24011 0.00069
1466 28.54307 1593.31214 1689.20984 0.00059
1467 28.55607 1874.07168 1980.25000 0.00050
1468 28.56907 2238.55467 2323.23999 0.00043
1469 28.58207 2679.91527 2798.41016 0.00036
1470 28.59507 3071.45843 3180.96021 0.00031
1471 28.60807 3256.04380 3203.55981 0.00031
1472 28.62107 3201.17508 3294.76025 0.00030
1473 28.63407 2896.05876 2872.95972 0.00035
1474 28.64707 2592.39096 2621.44019 0.00038
1475 28.66007 2398.15524 2510.00977 0.00040
1476 28.67307 2264.10004 2304.00000 0.00043
1477 28.68607 2143.14164 2227.84009 0.00045
1478 28.69907 1951.41869 1909.69006 0.00052
1479 28.71207 1731.98663 1656.49011 0.00060
1480 28.72507 1532.04840 1505.43994 0.00066
1481 28.73807 1373.01582 1369.00000 0.00073
1482 28.75107 1270.81033 1211.03992 0.00083
1483 28.76407 1214.83910 1149.21008 0.00087
1484 28.77707 1183.41349 1156.00000 0.00087
1485 28.79007 1170.48415 1122.25000 0.00089
1486 28.80307 1170.93561 1190.25000 0.00084
1487 28.81607 1178.53146 1183.36011 0.00085
1488 28.82907 1190.64726 1176.48999 0.00085
1489 28.84207 1209.29451 1169.64001 0.00085
1490 28.85507 1247.90258 1253.16016 0.00080
1491 28.86807 1316.53665 1303.20984 0.00077
1492 28.88107 1423.60880 1406.25000 0.00071
1493 28.89407 1581.13228 1624.08997 0.00062
1494 28.90707 1839.62074 1953.64001 0.00051
1495 28.92007 2236.65339 2275.29004 0.00044
1496 28.93307 2751.65901 2787.83984 0.00036
1497 28.94607 3347.05820 3294.76025 0.00030
1498 28.95907 3903.82830 3806.89014 0.00026
1499 28.97207 4073.28383 4070.43994 0.00025
1500 28.98507 3896.10753 3918.75977 0.00026
1501 28.99807 3479.87493 3552.15991 0.00028
1502 29.01107 3062.56942 3147.20972 0.00032
1503 29.02407 2850.97893 2819.60986 0.00035
1504 29.03707 2692.50101 2704.00000 0.00037
1505 29.05007 2523.99436 2560.35986 0.00039
1506 29.06307 2274.25353 2237.29004 0.00045
1507 29.07607 1972.27909 1909.69006 0.00052
1508 29.08907 1714.57460 1664.63989 0.00060
1509 29.10207 1514.77416 1428.83997 0.00070
1510 29.11507 1384.53392 1332.25000 0.00075
1511 29.12807 1331.09474 1332.25000 0.00075
1512 29.14107 1320.20308 1332.25000 0.00075
1513 29.15407 1349.33111 1303.20984 0.00077
1514 29.16707 1429.61476 1421.29004 0.00070
1515 29.18007 1582.38086 1568.15991 0.00064
1516 29.19307 1788.78299 1747.23999 0.00057
1517 29.20607 2028.21068 2025.00000 0.00049
1518 29.21907 2253.93672 2171.55981 0.00046
1519 29.23207 2311.65810 2227.84009 0.00045
1520 29.24507 2224.81001 2162.25000 0.00046
1521 29.25807 2040.05369 1989.15991 0.00050
1522 29.27107 1855.45887 1874.88989 0.00053
1523 29.28407 1758.14006 1789.28992 0.00056
1524 29.29707 1684.18573 1681.00000 0.00059
1525 29.31007 1608.02779 1544.48999 0.00065
1526 29.32307 1495.64720 1428.83997 0.00070
1527 29.33607 1361.47734 1332.25000 0.00075
1528 29.34907 1242.82483 1225.00000 0.00082
1529 29.36207 1146.36194 1115.56006 0.00090
1530 29.37507 1078.33603 1062.75989 0.00094
1531 29.38807 1037.44579 1024.00000 0.00098
1532 29.40107 1008.13946 992.25000 0.00101
1533 29.41407 987.41028 985.95996 0.00101
1534 29.42707 972.54213 979.68994 0.00102
1535 29.44007 962.02573 992.25000 0.00101
1536 29.45307 953.35940 948.63995 0.00105
1537 29.46607 946.24120 900.00000 0.00111
1538 29.47907 940.36432 924.15997 0.00108
1539 29.49207 935.77394 912.04004 0.00110
1540 29.50507 931.88098 936.36005 0.00107
1541 29.51807 928.57550 961.00000 0.00104
1542 29.53107 925.80476 961.00000 0.00104
1543 29.54407 923.56679 948.63995 0.00105
1544 29.55707 921.69877 888.03998 0.00113
1545 29.57007 920.20755 888.03998 0.00113
1546 29.58307 919.10538 912.04004 0.00110
1547 29.59607 918.60350 876.16003 0.00114
1548 29.60907 918.67402 858.48993 0.00116
1549 29.62207 919.44347 912.04004 0.00110
1550 29.63507 921.06493 954.81000 0.00105
1551 29.64807 924.66106 924.15997 0.00108
1552 29.66107 930.96710 967.21002 0.00103
1553 29.67407 940.99598 973.44006 0.00103
1554 29.68707 955.79559 948.63995 0.00105
1555 29.70007 978.96327 985.95996 0.00101
1556 29.71307 1009.34257 979.68994 0.00102
1557 29.72607 1039.95454 1036.84009 0.00096
1558 29.73907 1064.42897 1069.29004 0.00094
1559 29.75207 1069.42588 1128.95984 0.00089
1560 29.76507 1049.98311 1075.83997 0.00093
1561 29.77807 1027.04514 1082.41016 0.00092
1562 29.79107 1007.07984 1036.84009 0.00096
1563 29.80407 995.91413 992.25000 0.00101
1564 29.81707 988.69585 998.56000 0.00100
1565 29.83007 977.92028 979.68994 0.00102
1566 29.84307 963.77621 882.09003 0.00113
1567 29.85607 947.03301 948.63995 0.00105
1568 29.86907 932.72357 888.03998 0.00113
1569 29.88207 921.96743 936.36005 0.00107
1570 29.89507 914.14404 888.03998 0.00113
1571 29.90807 908.81034 894.00995 0.00112
1572 29.92107 905.51956 924.15997 0.00108
1573 29.93407 903.24405 900.00000 0.00111
1574 29.94707 901.52670 888.03998 0.00113
1575 29.96007 900.20611 852.64001 0.00117
1576 29.97307 899.18346 876.16003 0.00114
1577 29.98607 898.38673 870.25000 0.00115
1578 29.99907 897.77710 900.00000 0.00111
1579 30.01207 897.29726 967.21002 0.00103
1580 30.02507 896.91970 894.00995 0.00112
1581 30.03807 896.64450 906.01001 0.00110
1582 30.05107 896.43528 888.03998 0.00113
1583 30.06407 896.27865 829.43994 0.00121
1584 30.07707 896.16337 888.03998 0.00113
1585 30.09007 896.10091 858.48993 0.00116
1586 30.10307 896.07991 876.16003 0.00114
1587 30.11607 896.15903 906.01001 0.00110
1588 30.12907 896.31010 882.09003 0.00113
1589 30.14207 896.49203 918.08997 0.00109
1590 30.15507 896.71036 894.00995 0.00112
1591 30.16807 896.94380 876.16003 0.00114
1592 30.18107 897.21359 888.03998 0.00113
1593 30.19407 897.55609 841.00000 0.00119
1594 30.20707 898.01501 912.04004 0.00110
1595 30.22007 898.61126 912.04004 0.00110
1596 30.23307 899.25488 942.49005 0.00106
1597 30.24607 899.97176 900.00000 0.00111
1598 30.25907 900.79193 900.00000 0.00111
1599 30.27207 901.74226 894.00995 0.00112
1600 30.28507 902.84506 924.15997 0.00108
1601 30.29807 904.07897 936.36005 0.00107
1602 30.31107 905.39541 912.04004 0.00110
1603 30.32407 906.87410 888.03998 0.00113
1604 30.33707 908.62735 906.01001 0.00110
1605 30.35007 910.67321 882.09003 0.00113
1606 30.36307 913.11059 924.15997 0.00108
1607 30.37607 916.04044 930.25000 0.00107
1608 30.38907 919.92990 942.49005 0.00106
1609 30.40207 925.02481 930.25000 0.00107
1610 30.41507 931.80629 936.36005 0.00107
1611 30.42807 940.93049 948.63995 0.00105
1612 30.44107 954.97899 967.21002 0.00103
1613 30.45407 976.66124 1004.89008 0.00100
1614 30.46707 1007.22900 1049.76013 0.00095
1615 30.48007 1047.39626 1056.25000 0.00095
1616 30.49307 1098.26010 1108.88989 0.00090
1617 30.50607 1145.22419 1197.15991 0.00084
1618 30.51907 1171.75338 1218.01013 0.00082
1619 30.53207 1172.75067 1211.03992 0.00083
1620 30.54507 1144.18628 1197.15991 0.00084
1621 30.55807 1114.35754 1162.80994 0.00086
1622 30.57107 1096.47435 1122.25000 0.00089
1623 30.58407 1088.05684 1115.56006 0.00090
1624 30.59707 1085.32454 1122.25000 0.00089
1625 30.61007 1076.56841 1135.69006 0.00088
1626 30.62307 1064.17303 1115.56006 0.00090
1627 30.63607 1052.82951 1089.00000 0.00092
1628 30.64907 1046.85751 1102.23999 0.00091
1629 30.66207 1052.91090 1122.25000 0.00089
1630 30.67507 1071.01731 1149.21008 0.00087
1631 30.68807 1101.99476 1204.09009 0.00083
1632 30.70107 1150.86563 1310.44006 0.00076
1633 30.71407 1235.43668 1383.84009 0.00072
1634 30.72707 1357.33132 1466.88989 0.00068
1635 30.74007 1516.64298 1608.00989 0.00062
1636 30.75307 1712.87593 1747.23999 0.00057
1637 30.76607 1893.51498 1840.41016 0.00054
1638 30.77907 1986.84868 1944.80981 0.00051
1639 30.79207 1983.92117 1998.09009 0.00050
1640 30.80507 1881.41368 1874.88989 0.00053
1641 30.81807 1778.02647 1823.29004 0.00055
1642 30.83107 1734.06608 1814.75989 0.00055
1643 30.84407 1739.01868 1814.75989 0.00055
1644 30.85707 1782.06361 1797.76013 0.00056
1645 30.87007 1826.92316 1874.88989 0.00053
1646 30.88307 1901.06877 1989.15991 0.00050
1647 30.89607 2043.80298 2209.00000 0.00045
1648 30.90907 2258.45934 2440.36011 0.00041
1649 30.92207 2548.97978 2777.29004 0.00036
1650 30.93507 2871.77856 3214.89014 0.00031
1651 30.94807 3124.31011 3481.00000 0.00029
1652 30.96107 3214.28860 3410.56006 0.00029
1653 30.97407 3132.11801 3249.00000 0.00031
1654 30.98707 2867.90753 2840.88989 0.00035
1655 31.00007 2601.44588 2662.55981 0.00038
1656 31.01307 2404.63376 2490.01025 0.00040
1657 31.02607 2258.95450 2381.43994 0.00042
1658 31.03907 2136.92570 2162.25000 0.00046
1659 31.05207 1969.18483 2061.16016 0.00049
1660 31.06507 1777.01595 1814.75989 0.00055
1661 31.07807 1581.88280 1505.43994 0.00066
1662 31.09107 1407.34299 1288.81006 0.00078
1663 31.10407 1287.48701 1225.00000 0.00082
1664 31.11707 1198.54278 1183.36011 0.00085
1665 31.13007 1135.14472 1095.60986 0.00091
1666 31.14307 1091.82478 1036.84009 0.00096
1667 31.15607 1065.39387 1095.60986 0.00091
1668 31.16907 1046.26896 1011.23993 0.00099
1669 31.18207 1032.63231 1043.28992 0.00096
1670 31.19507 1023.56458 985.95996 0.00101
1671 31.20807 1019.11382 1024.00000 0.00098
1672 31.22107 1019.94237 1030.40991 0.00097
1673 31.23407 1027.79184 998.56000 0.00100
1674 31.24707 1044.41605 1011.23993 0.00099
1675 31.26007 1072.01534 1043.28992 0.00096
1676 31.27307 1114.69848 1075.83997 0.00093
1677 31.28607 1172.02124 1183.36011 0.00085
1678 31.29907 1227.47985 1232.00989 0.00081
1679 31.31207 1267.10787 1260.25000 0.00079
1680 31.32507 1275.83718 1211.03992 0.00083
1681 31.33807 1235.87717 1190.25000 0.00084
1682 31.35107 1193.67682 1122.25000 0.00089
1683 31.36407 1160.57906 1128.95984 0.00089
1684 31.37707 1142.16211 1115.56006 0.00090
1685 31.39007 1134.22028 1069.29004 0.00094
1686 31.40307 1120.37817 1095.60986 0.00091
1687 31.41607 1100.01244 1095.60986 0.00091
1688 31.42907 1075.38824 1049.76013 0.00095
1689 31.44207 1051.66610 1024.00000 0.00098
1690 31.45507 1036.07073 998.56000 0.00100
1691 31.46807 1027.13512 1017.60999 0.00098
1692 31.48107 1024.05063 998.56000 0.00100
1693 31.49407 1026.01202 1036.84009 0.00096
1694 31.50707 1032.63263 1062.75989 0.00094
1695 31.52007 1043.38225 1030.40991 0.00097
1696 31.53307 1059.02414 1082.41016 0.00092
1697 31.54607 1080.27474 1115.56006 0.00090
1698 31.55907 1108.93693 1135.69006 0.00088
1699 31.57207 1148.88955 1204.09009 0.00083
1700 31.58507 1212.04932 1246.08997 0.00080
1701 31.59807 1305.95822 1346.89001 0.00074
1702 31.61107 1442.93430 1436.41016 0.00070
1703 31.62407 1638.30663 1632.16016 0.00061
1704 31.63707 1948.98688 1927.21008 0.00052
1705 31.65007 2331.62020 2284.83984 0.00044
1706 31.66307 2732.73677 2652.25000 0.00038
1707 31.67607 3090.59433 2981.15991 0.00034
1708 31.68907 3173.77180 3047.04004 0.00033
1709 31.70207 3011.57517 2926.80981 0.00034
1710 31.71507 2761.01064 2704.00000 0.00037
1711 31.72807 2526.25045 2520.04004 0.00040
1712 31.74107 2431.63696 2440.36011 0.00041
1713 31.75407 2418.26427 2410.80981 0.00041
1714 31.76707 2420.30127 2410.80981 0.00041
1715 31.78007 2447.04200 2420.64014 0.00041
1716 31.79307 2494.75451 2470.09009 0.00040
1717 31.80607 2643.10390 2631.68994 0.00038
1718 31.81907 2943.76402 2937.64014 0.00034
1719 31.83207 3430.43779 3398.88989 0.00029
1720 31.84507 3911.09766 3819.23999 0.00026
1721 31.85807 4247.29614 4096.00000 0.00024
1722 31.87107 4292.96438 4147.36035 0.00024
1723 31.88407 3869.25918 3881.28979 0.00026
1724 31.89707 3425.69620 3410.56006 0.00029
1725 31.91007 3067.86487 3080.25000 0.00032
1726 31.92307 2854.31395 2916.00000 0.00034
1727 31.93607 2747.57442 2766.75977 0.00036
1728 31.94907 2583.61211 2550.25000 0.00039
1729 31.96207 2353.06927 2284.83984 0.00044
1730 31.97507 2064.45001 2007.03992 0.00050
1731 31.98807 1778.78573 1730.55981 0.00058
1732 32.00107 1556.71062 1489.95984 0.00067
1733 32.01407 1387.58855 1288.81006 0.00078
1734 32.02707 1266.66778 1232.00989 0.00081
1735 32.04007 1188.15829 1149.21008 0.00087
1736 32.05307 1137.11640 1089.00000 0.00092
1737 32.06607 1099.35106 1036.84009 0.00096
1738 32.07907 1071.53597 1017.60999 0.00098
1739 32.09207 1051.07730 1011.23993 0.00099
1740 32.10507 1036.72132 992.25000 0.00101
1741 32.11807 1025.94749 967.21002 0.00103
1742 32.13107 1018.70264 1017.60999 0.00098
1743 32.14407 1014.98979 1004.89008 0.00100
1744 32.15707 1016.53013 961.00000 0.00104
1745 32.17007 1024.97614 992.25000 0.00101
1746 32.18307 1042.11806 1036.84009 0.00096
1747 32.19607 1069.90154 1036.84009 0.00096
1748 32.20907 1111.34414 1089.00000 0.00092
1749 32.22207 1167.24191 1115.56006 0.00090
1750 32.23507 1219.48154 1162.80994 0.00086
1751 32.24807 1253.72503 1149.21008 0.00087
1752 32.26107 1257.70921 1162.80994 0.00086
1753 32.27407 1218.10047 1197.15991 0.00084
1754 32.28707 1175.10339 1183.36011 0.00085
1755 32.30007 1142.18665 1149.21008 0.00087
1756 32.31307 1122.93847 1075.83997 0.00093
1757 32.32607 1114.34593 1089.00000 0.00092
1758 32.33907 1101.14018 1108.88989 0.00090
1759 32.35207 1080.67142 1011.23993 0.00099
1760 32.36507 1055.71323 1030.40991 0.00097
1761 32.37807 1030.29062 998.56000 0.00100
1762 32.39107 1011.57280 961.00000 0.00104
1763 32.40407 999.57681 979.68994 0.00102
1764 32.41707 993.63995 1017.60999 0.00098
1765 32.43007 993.23458 1011.23993 0.00099
1766 32.44307 997.96435 967.21002 0.00103
1767 32.45607 1007.40175 985.95996 0.00101
1768 32.46907 1021.12977 992.25000 0.00101
1769 32.48207 1036.10279 1004.89008 0.00100
1770 32.49507 1049.89753 1036.84009 0.00096
1771 32.50807 1062.07417 1089.00000 0.00092
1772 32.52107 1072.14988 1069.29004 0.00094
1773 32.53407 1086.85747 1122.25000 0.00089
1774 32.54707 1110.39106 1169.64001 0.00085
1775 32.56007 1147.42504 1176.48999 0.00085
1776 32.57307 1210.04458 1183.36011 0.00085
1777 32.58607 1303.97976 1288.81006 0.00078
1778 32.59907 1441.34134 1482.25000 0.00067
1779 32.61207 1639.05198 1730.55981 0.00058
1780 32.62507 1954.74508 1989.15991 0.00050
1781 32.63807 2342.77962 2294.41016 0.00044
1782 32.65107 2747.21918 2652.25000 0.00038
1783 32.66407 3103.46515 2840.88989 0.00035
1784 32.67707 3174.52059 3080.25000 0.00032
1785 32.69007 2991.06546 2916.00000 0.00034
1786 32.70307 2707.35424 2570.48999 0.00039
1787 32.71607 2425.04673 2352.25000 0.00043
1788 32.72907 2273.31837 2246.76025 0.00045
1789 32.74207 2198.37010 2143.68994 0.00047
1790 32.75507 2120.96342 2079.35986 0.00048
1791 32.76807 2009.21245 1998.09009 0.00050
1792 32.78107 1834.47976 1722.25000 0.00058
1793 32.79407 1649.61742 1505.43994 0.00066
1794 32.80707 1496.98651 1428.83997 0.00070
1795 32.82007 1388.35823 1310.44006 0.00076
1796 32.83307 1331.87005 1232.00989 0.00081
1797 32.84607 1332.09532 1253.16016 0.00080
1798 32.85907 1379.74052 1332.25000 0.00075
1799 32.87207 1463.58734 1376.40991 0.00073
1800 32.88507 1555.42979 1451.60986 0.00069
1801 32.89807 1632.72791 1568.15991 0.00064
1802 32.91107 1641.82803 1584.03992 0.00063
1803 32.92407 1571.10867 1489.95984 0.00067
1804 32.93707 1482.91164 1391.28992 0.00072
1805 32.95007 1401.63608 1332.25000 0.00075
1806 32.96307 1355.44822 1296.00000 0.00077
1807 32.97607 1334.32734 1296.00000 0.00077
1808 32.98907 1311.15374 1267.35986 0.00079
1809 33.00207 1279.51927 1267.35986 0.00079
1810 33.01507 1233.42397 1190.25000 0.00084
1811 33.02807 1186.82402 1122.25000 0.00089
1812 33.04107 1153.60814 1082.41016 0.00092
1813 33.05407 1140.83185 1135.69006 0.00088
1814 33.06707 1151.75653 1149.21008 0.00087
1815 33.08007 1190.13802 1142.43994 0.00088
1816 33.09307 1255.80284 1225.00000 0.00082
1817 33.10607 1347.84326 1317.68994 0.00076
1818 33.11907 1438.08749 1369.00000 0.00073
1819 33.13207 1507.11659 1428.83997 0.00070
1820 33.14507 1523.58042 1474.56006 0.00068
1821 33.15807 1465.20958 1413.75989 0.00071
1822 33.17107 1397.66144 1332.25000 0.00075
1823 33.18407 1338.30457 1296.00000 0.00077
1824 33.19707 1306.15308 1253.16016 0.00080
1825 33.21007 1296.52333 1239.04004 0.00081
1826 33.22307 1284.48713 1310.44006 0.00076
1827 33.23607 1265.43742 1288.81006 0.00078
1828 33.24907 1235.43873 1211.03992 0.00083
1829 33.26207 1205.49135 1169.64001 0.00085
1830 33.27507 1188.20578 1176.48999 0.00085
1831 33.28807 1187.83450 1211.03992 0.00083
1832 33.30107 1208.28215 1239.04004 0.00081
1833 33.31407 1255.91026 1288.81006 0.00078
1834 33.32707 1332.82410 1428.83997 0.00070
1835 33.34007 1475.47149 1576.09009 0.00063
1836 33.35307 1697.09764 1789.28992 0.00056
1837 33.36607 2015.09902 2162.25000 0.00046
1838 33.37907 2437.73805 2550.25000 0.00039
1839 33.39207 2968.68904 3003.03979 0.00033
1840 33.40507 3445.79160 3457.43994 0.00029
1841 33.41807 3717.03382 3831.61011 0.00026
1842 33.43107 3722.84933 3794.55981 0.00026
1843 33.44407 3434.56535 3540.25000 0.00028
1844 33.45707 3105.50058 3158.44019 0.00032
1845 33.47007 2911.11182 2894.43994 0.00035
1846 33.48307 2817.38259 2830.23999 0.00035
1847 33.49607 2771.11932 2756.25000 0.00036
1848 33.50907 2668.98313 2631.68994 0.00038
1849 33.52207 2442.54867 2440.36011 0.00041
1850 33.53507 2167.96265 2134.44019 0.00047
1851 33.54807 1899.48158 1831.83997 0.00055
1852 33.56107 1673.86902 1560.25000 0.00064
1853 33.57407 1519.63058 1383.84009 0.00072
1854 33.58707 1401.07554 1246.08997 0.00080
1855 33.60007 1302.25105 1128.95984 0.00089
1856 33.61307 1221.60572 1095.60986 0.00091
1857 33.62607 1157.94216 1069.29004 0.00094
1858 33.63907 1107.45711 1004.89008 0.00100
1859 33.65207 1070.45679 992.25000 0.00101
1860 33.66507 1042.53413 1011.23993 0.00099
1861 33.67807 1021.85535 948.63995 0.00105
1862 33.69107 1007.09879 985.95996 0.00101
1863 33.70407 996.39089 912.04004 0.00110
1864 33.71707 988.39474 888.03998 0.00113
1865 33.73007 982.59061 948.63995 0.00105
1866 33.74307 978.92619 954.81000 0.00105
1867 33.75607 976.99370 870.25000 0.00115
1868 33.76907 976.63525 930.25000 0.00107
1869 33.78207 977.88042 936.36005 0.00107
1870 33.79507 981.30172 954.81000 0.00105
1871 33.80807 986.95489 948.63995 0.00105
1872 33.82107 995.12785 924.15997 0.00108
1873 33.83407 1006.25460 985.95996 0.00101
1874 33.84707 1023.66199 979.68994 0.00102
1875 33.86007 1048.97584 1036.84009 0.00096
1876 33.87307 1085.67228 1011.23993 0.00099
1877 33.88607 1137.99024 1062.75989 0.00094
1878 33.89907 1224.07588 1183.36011 0.00085
1879 33.91207 1359.81546 1310.44006 0.00076
1880 33.92507 1550.66205 1528.80994 0.00065
1881 33.93807 1798.84939 1823.29004 0.00055
1882 33.95107 2105.44160 2275.29004 0.00044
1883 33.96407 2377.56397 2601.00000 0.00038
1884 33.97707 2524.65620 2662.55981 0.00038
1885 33.99007 2516.07031 2714.40991 0.00037
1886 34.00307 2325.64548 2410.80981 0.00041
1887 34.01607 2105.48820 2162.25000 0.00046
1888 34.02907 1950.29325 1962.48999 0.00051
1889 34.04207 1859.24126 1883.56018 0.00053
1890 34.05507 1820.82775 1883.56018 0.00053
1891 34.06807 1770.91387 1814.75989 0.00055
1892 34.08107 1683.18864 1672.81018 0.00060
1893 34.09407 1574.26744 1513.21008 0.00066
1894 34.10707 1460.54061 1339.55994 0.00075
1895 34.12007 1376.93032 1253.16016 0.00080
1896 34.13307 1333.57278 1218.01013 0.00082
1897 34.14607 1308.59339 1253.16016 0.00080
1898 34.15907 1288.00227 1211.03992 0.00083
1899 34.17207 1260.59175 1190.25000 0.00084
1900 34.18507 1208.35812 1162.80994 0.00086
1901 34.19807 1157.58767 1089.00000 0.00092
1902 34.21107 1116.99824 1082.41016 0.00092
1903 34.22407 1089.93746 1082.41016 0.00092
1904 34.23707 1075.52979 1017.60999 0.00098
1905 34.25007 1060.52772 985.95996 0.00101
1906 34.26307 1041.31341 1004.89008 0.00100
1907 34.27607 1017.44512 954.81000 0.00105
1908 34.28907 991.25829 930.25000 0.00107
1909 34.30207 968.75397 924.15997 0.00108
1910 34.31507 950.50195 882.09003 0.00113
1911 34.32807 936.47337 870.25000 0.00115
1912 34.34107 926.54350 894.00995 0.00112
1913 34.35407 919.90312 900.00000 0.00111
1914 34.36707 914.90356 870.25000 0.00115
1915 34.38007 911.16266 894.00995 0.00112
1916 34.39307 908.39704 900.00000 0.00111
1917 34.40607 906.48164 876.16003 0.00114
1918 34.41907 905.04627 846.81000 0.00118
1919 34.43207 904.07581 852.64001 0.00117
1920 34.44507 903.54321 852.64001 0.00117
1921 34.45807 903.45450 841.00000 0.00119
1922 34.47107 903.71608 846.81000 0.00118
1923 34.48407 904.33571 841.00000 0.00119
1924 34.49707 905.44688 835.20996 0.00120
1925 34.51007 907.03080 876.16003 0.00114
1926 34.52307 909.08627 882.09003 0.00113
1927 34.53607 911.66182 852.64001 0.00117
1928 34.54907 915.03172 894.00995 0.00112
1929 34.56207 919.36651 918.08997 0.00109
1930 34.57507 924.74533 912.04004 0.00110
1931 34.58807 931.38027 918.08997 0.00109
1932 34.60107 939.67448 924.15997 0.00108
1933 34.61407 951.09146 918.08997 0.00109
1934 34.62707 966.21270 918.08997 0.00109
1935 34.64007 986.63797 918.08997 0.00109
1936 34.65307 1014.41869 961.00000 0.00104
1937 34.66607 1058.01153 1024.00000 0.00098
1938 34.67907 1127.12344 1062.75989 0.00094
1939 34.69207 1229.89383 1176.48999 0.00085
1940 34.70507 1374.62079 1339.55994 0.00075
1941 34.71807 1574.73996 1505.43994 0.00066
1942 34.73107 1826.38998 1789.28992 0.00056
1943 34.74407 2058.17487 2034.00989 0.00049
1944 34.75707 2213.67513 2088.48999 0.00048
1945 34.77007 2241.67338 2125.20996 0.00047
1946 34.78307 2085.61699 1962.48999 0.00051
1947 34.79607 1904.39247 1814.75989 0.00055
1948 34.80907 1756.94343 1764.00000 0.00057
1949 34.82207 1665.56128 1624.08997 0.00062
1950 34.83507 1629.29785 1560.25000 0.00064
1951 34.84807 1592.80505 1544.48999 0.00065
1952 34.86107 1525.70188 1451.60986 0.00069
1953 34.87407 1429.81524 1296.00000 0.00077
1954 34.88707 1313.75388 1190.25000 0.00084
1955 34.90007 1207.45228 1135.69006 0.00088
1956 34.91307 1123.06728 1056.25000 0.00095
1957 34.92607 1058.30395 1011.23993 0.00099
1958 34.93907 1011.29888 930.25000 0.00107
1959 34.95207 979.80615 948.63995 0.00105
1960 34.96507 958.85685 924.15997 0.00108
1961 34.97807 943.31114 829.43994 0.00121
1962 34.99107 931.69971 876.16003 0.00114
1963 35.00407 922.93601 841.00000 0.00119
1964 35.01707 916.58852 829.43994 0.00121
1965 35.03007 911.53406 835.20996 0.00120
1966 35.04307 907.56373 870.25000 0.00115
1967 35.05607 904.49891 846.81000 0.00118
1968 35.06907 902.33554 876.16003 0.00114
1969 35.08207 901.02952 864.35999 0.00116
1970 35.09507 900.40021 870.25000 0.00115
1971 35.10807 900.44688 894.00995 0.00112
1972 35.12107 901.25788 864.35999 0.00116
1973 35.13407 903.32590 829.43994 0.00121
1974 35.14707 906.65909 876.16003 0.00114
1975 35.16007 911.70086 882.09003 0.00113
1976 35.17307 918.96634 835.20996 0.00120
1977 35.18607 931.45890 894.00995 0.00112
1978 35.19907 951.19292 906.01001 0.00110
1979 35.21207 980.48583 936.36005 0.00107
1980 35.22507 1021.72746 998.56000 0.00100
1981 35.23807 1082.24327 1069.29004 0.00094
1982 35.25107 1156.39654 1176.48999 0.00085
1983 35.26407 1228.34892 1183.36011 0.00085
1984 35.27707 1284.54621 1211.03992 0.00083
1985 35.29007 1297.28975 1267.35986 0.00079
1986 35.30307 1256.87182 1274.49011 0.00078
1987 35.31607 1203.86262 1197.15991 0.00084
1988 35.32907 1153.49394 1128.95984 0.00089
1989 35.34207 1121.63303 1089.00000 0.00092
1990 35.35507 1110.12854 1062.75989 0.00094
1991 35.36807 1099.51349 1069.29004 0.00094
1992 35.38107 1083.84212 1011.23993 0.00099
1993 35.39407 1058.12563 1049.76013 0.00095
1994 35.40707 1023.27001 954.81000 0.00105
1995 35.42007 990.82212 930.25000 0.00107
1996 35.43307 963.02808 930.25000 0.00107
1997 35.44607 941.34912 912.04004 0.00110
1998 35.45907 927.11877 906.01001 0.00110
1999 35.47207 917.68940 894.00995 0.00112
2000 35.48507 911.30595 900.00000 0.00111
2001 35.49807 907.30369 876.16003 0.00114
2002 35.51107 905.20760 852.64001 0.00117
2003 35.52407 904.45239 841.00000 0.00119
2004 35.53707 904.52101 846.81000 0.00118
2005 35.55007 905.33777 858.48993 0.00116
2006 35.56307 906.84892 841.00000 0.00119
2007 35.57607 909.29179 858.48993 0.00116
2008 35.58907 912.52880 906.01001 0.00110
2009 35.60207 916.63014 924.15997 0.00108
2010 35.61507 921.69720 912.04004 0.00110
2011 35.62807 928.07510 930.25000 0.00107
2012 35.64107 936.21601 918.08997 0.00109
2013 35.65407 946.30458 906.01001 0.00110
2014 35.66707 958.85861 942.49005 0.00106
2015 35.68007 974.58520 979.68994 0.00102
2016 35.69307 997.23205 985.95996 0.00101
2017 35.70607 1028.52620 1011.23993 0.00099
2018 35.71907 1072.71690 1082.41016 0.00092
2019 35.73207 1135.00251 1122.25000 0.00089
2020 35.74507 1234.82112 1232.00989 0.00081
2021 35.75807 1390.32301 1444.00000 0.00069
2022 35.77107 1605.53764 1705.68994 0.00059
2023 35.78407 1879.55012 1971.36011 0.00051
2024 35.79707 2206.27409 2256.25000 0.00044
2025 35.81007 2487.86549 2500.00000 0.00040
2026 35.82307 2623.93078 2641.96021 0.00038
2027 35.83607 2592.78972 2621.44019 0.00038
2028 35.84907 2394.31385 2480.04004 0.00040
2029 35.86207 2151.68105 2275.29004 0.00044
2030 35.87507 1985.56390 2043.04004 0.00049
2031 35.88807 1887.32740 1927.21008 0.00052
2032 35.90107 1841.15051 1840.41016 0.00054
2033 35.91407 1803.23533 1789.28992 0.00056
2034 35.92707 1714.65660 1764.00000 0.00057
2035 35.94007 1590.84405 1616.04004 0.00062
2036 35.95307 1448.00220 1413.75989 0.00071
2037 35.96607 1308.24652 1239.04004 0.00081
2038 35.97907 1201.53238 1128.95984 0.00089
2039 35.99207 1119.61044 1017.60999 0.00098
2040 36.00507 1058.95343 942.49005 0.00106
2041 36.01807 1015.85672 954.81000 0.00105
2042 36.03107 987.75207 924.15997 0.00108
2043 36.04407 967.83061 882.09003 0.00113
2044 36.05707 952.90149 924.15997 0.00108
2045 36.07007 941.74805 954.81000 0.00105
2046 36.08307 933.63196 924.15997 0.00108
2047 36.09607 928.24631 852.64001 0.00117
2048 36.10907 925.19473 882.09003 0.00113
2049 36.12207 924.52908 906.01001 0.00110
2050 36.13507 926.33502 900.00000 0.00111
2051 36.14807 930.99533 882.09003 0.00113
2052 36.16107 938.20908 864.35999 0.00116
2053 36.17407 945.04172 912.04004 0.00110
2054 36.18707 949.46960 948.63995 0.00105
2055 36.20007 949.59490 973.44006 0.00103
2056 36.21307 942.83314 942.49005 0.00106
2057 36.22607 935.32705 985.95996 0.00101
2058 36.23907 929.03042 882.09003 0.00113
2059 36.25207 925.15216 930.25000 0.00107
2060 36.26507 924.14345 906.01001 0.00110
2061 36.27807 923.67918 894.00995 0.00112
2062 36.29107 922.66411 900.00000 0.00111
2063 36.30407 920.79207 882.09003 0.00113
2064 36.31707 918.08187 870.25000 0.00115
2065 36.33007 915.90339 900.00000 0.00111
2066 36.34307 914.69796 900.00000 0.00111
2067 36.35607 914.59538 894.00995 0.00112
2068 36.36907 915.71286 948.63995 0.00105
2069 36.38207 918.26592 894.00995 0.00112
2070 36.39507 921.81326 930.25000 0.00107
2071 36.40807 926.35815 900.00000 0.00111
2072 36.42107 932.04335 918.08997 0.00109
2073 36.43407 939.47536 948.63995 0.00105
2074 36.44707 948.58241 918.08997 0.00109
2075 36.46007 959.71355 942.49005 0.00106
2076 36.47307 973.39738 985.95996 0.00101
2077 36.48607 992.01520 1036.84009 0.00096
2078 36.49907 1017.17450 1011.23993 0.00099
2079 36.51207 1051.41459 1024.00000 0.00098
2080 36.52507 1098.17093 1075.83997 0.00093
2081 36.53807 1172.04734 1204.09009 0.00083
2082 36.55107 1282.28554 1310.44006 0.00076
2083 36.56407 1431.78708 1451.60986 0.00069
2084 36.57707 1624.26016 1713.96008 0.00058
2085 36.59007 1861.21452 1900.95984 0.00053
2086 36.60307 2077.21444 2218.40991 0.00045
2087 36.61607 2222.64392 2352.25000 0.00043
2088 36.62907 2279.87485 2352.25000 0.00043
2089 36.64207 2211.95229 2284.83984 0.00044
2090 36.65507 2146.77152 2190.23999 0.00046
2091 36.66807 2144.39393 2125.20996 0.00047
2092 36.68107 2253.28375 2275.29004 0.00044
2093 36.69407 2450.37420 2480.04004 0.00040
2094 36.70707 2654.62089 2693.61011 0.00037
2095 36.72007 2809.03076 2905.21021 0.00034
2096 36.73307 2778.22525 2937.64014 0.00034
2097 36.74607 2586.67685 2590.81006 0.00039
2098 36.75907 2331.41465 2332.88989 0.00043
2099 36.77207 2072.64556 2097.63989 0.00048
2100 36.78507 1900.65622 1892.25000 0.00053
2101 36.79807 1798.45641 1780.84009 0.00056
2102 36.81107 1733.79642 1713.96008 0.00058
2103 36.82407 1678.46400 1672.81018 0.00060
2104 36.83707 1589.88187 1584.03992 0.00063
2105 36.85007 1479.60198 1406.25000 0.00071
2106 36.86307 1365.97753 1296.00000 0.00077
2107 36.87607 1259.06595 1183.36011 0.00085
2108 36.88907 1177.04745 1102.23999 0.00091
2109 36.90207 1117.08852 1108.88989 0.00090
2110 36.91507 1072.60388 1069.29004 0.00094
2111 36.92807 1039.94594 1036.84009 0.00096
2112 36.94107 1016.78905 1011.23993 0.00099
2113 36.95407 996.65075 1004.89008 0.00100
2114 36.96707 980.01360 1004.89008 0.00100
2115 36.98007 966.67595 992.25000 0.00101
2116 36.99307 956.78864 942.49005 0.00106
2117 37.00607 949.64802 912.04004 0.00110
2118 37.01907 943.97014 942.49005 0.00106
2119 37.03207 938.90387 936.36005 0.00107
2120 37.04507 934.27167 894.00995 0.00112
2121 37.05807 929.83022 973.44006 0.00103
2122 37.07107 925.86661 954.81000 0.00105
2123 37.08407 922.65242 882.09003 0.00113
2124 37.09707 920.26046 894.00995 0.00112
2125 37.11007 918.65007 882.09003 0.00113
2126 37.12307 917.76357 888.03998 0.00113
2127 37.13607 917.44066 918.08997 0.00109
2128 37.14907 917.62654 961.00000 0.00104
2129 37.16207 918.25246 954.81000 0.00105
2130 37.17507 919.30932 936.36005 0.00107
2131 37.18807 920.75272 906.01001 0.00110
2132 37.20107 922.60306 894.00995 0.00112
2133 37.21407 924.88259 924.15997 0.00108
2134 37.22707 927.62491 918.08997 0.00109
2135 37.24007 930.87310 942.49005 0.00106
2136 37.25307 934.67833 924.15997 0.00108
2137 37.26607 939.15884 912.04004 0.00110
2138 37.27907 944.39590 967.21002 0.00103
2139 37.29207 950.57042 973.44006 0.00103
2140 37.30507 957.78128 948.63995 0.00105
2141 37.31807 966.55953 985.95996 0.00101
2142 37.33107 977.20180 1017.60999 0.00098
2143 37.34407 990.74053 1011.23993 0.00099
2144 37.35707 1007.88509 1030.40991 0.00097
2145 37.37007 1031.39596 1036.84009 0.00096
2146 37.38307 1063.80341 1030.40991 0.00097
2147 37.39607 1112.21013 1142.43994 0.00088
2148 37.40907 1180.51904 1218.01013 0.00082
2149 37.42207 1278.04254 1332.25000 0.00075
2150 37.43507 1409.40112 1482.25000 0.00067
2151 37.44807 1566.94923 1672.81018 0.00060
2152 37.46107 1723.05741 1797.76013 0.00056
2153 37.47407 1844.91654 1892.25000 0.00053
2154 37.48707 1877.99893 1874.88989 0.00053
2155 37.50007 1822.60708 1866.24011 0.00054
2156 37.51307 1725.01221 1722.25000 0.00058
2157 37.52607 1626.12078 1640.25000 0.00061
2158 37.53907 1569.12204 1608.00989 0.00062
2159 37.55207 1548.42310 1608.00989 0.00062
2160 37.56507 1546.15785 1624.08997 0.00062
2161 37.57807 1544.10768 1616.04004 0.00062
2162 37.59107 1523.93467 1536.64001 0.00065
2163 37.60407 1488.72349 1489.95984 0.00067
2164 37.61707 1452.52159 1466.88989 0.00068
2165 37.63007 1427.49011 1354.23999 0.00074
2166 37.64307 1424.47024 1413.75989 0.00071
2167 37.65607 1454.21159 1436.41016 0.00070
2168 37.66907 1526.26554 1576.09009 0.00063
2169 37.68207 1644.54538 1780.84009 0.00056
2170 37.69507 1816.07197 1962.48999 0.00051
2171 37.70807 2060.36791 2134.44019 0.00047
2172 37.72107 2362.89948 2430.48999 0.00041
2173 37.73407 2670.03115 2714.40991 0.00037
2174 37.74707 2949.93294 3080.25000 0.00032
2175 37.76007 3147.76065 3249.00000 0.00031
2176 37.77307 3234.70506 3340.83984 0.00030
2177 37.78607 3358.30951 3469.21021 0.00029
2178 37.79907 3592.60592 3612.00977 0.00028
2179 37.81207 4000.37421 4032.25000 0.00025
2180 37.82507 4509.72191 4651.23975 0.00021
2181 37.83807 5012.10995 5055.20996 0.00020
2182 37.85107 5389.37905 5520.49023 0.00018
2183 37.86407 5530.77225 5595.04053 0.00018
2184 37.87707 5594.98155 5685.16016 0.00018
2185 37.89007 5742.66934 5565.15967 0.00018
2186 37.90307 6002.06276 5836.96045 0.00017
2187 37.91607 6270.51191 6037.28955 0.00017
2188 37.92907 6462.23179 6320.25000 0.00016
2189 37.94207 6394.41512 6241.00000 0.00016
2190 37.95507 6102.98775 6037.28955 0.00017
2191 37.96807 5763.90026 5565.15967 0.00018
2192 37.98107 5483.56410 5402.25000 0.00019
2193 37.99407 5396.29095 5097.96045 0.00020
2194 38.00707 5410.26135 5184.00000 0.00019
2195 38.02007 5380.36997 5227.29053 0.00019
2196 38.03307 5250.76748 5126.55957 0.00020
2197 38.04607 4964.61991 4956.16016 0.00020
2198 38.05907 4595.36107 4733.44043 0.00021
2199 38.07207 4281.79599 4462.24023 0.00022
2200 38.08507 4022.32356 4212.01025 0.00024
2201 38.09807 3805.66821 3969.00000 0.00025
2202 38.11107 3608.76393 3856.40991 0.00026
2203 38.12407 3393.86329 3612.00977 0.00028
2204 38.13707 3159.25846 3352.41016 0.00030
2205 38.15007 2923.04203 3003.03979 0.00033
2206 38.16307 2701.50397 2830.23999 0.00035
2207 38.17607 2507.61165 2641.96021 0.00038
2208 38.18907 2335.81732 2480.04004 0.00040
2209 38.20207 2177.10049 2323.23999 0.00043
2210 38.21507 2020.80776 2209.00000 0.00045
2211 38.22807 1877.83785 2016.01013 0.00050
2212 38.24107 1747.54630 1857.60986 0.00054
2213 38.25407 1630.72478 1697.44006 0.00059
2214 38.26707 1533.80947 1544.48999 0.00065
2215 38.28007 1453.75836 1474.56006 0.00068
2216 38.29307 1387.81946 1444.00000 0.00069
2217 38.30607 1334.07439 1406.25000 0.00071
2218 38.31907 1292.34013 1317.68994 0.00076
2219 38.33207 1260.21128 1296.00000 0.00077
2220 38.34507 1235.63164 1310.44006 0.00076
2221 38.35807 1218.84576 1239.04004 0.00081
2222 38.37107 1210.78486 1156.00000 0.00087
2223 38.38407 1212.39956 1183.36011 0.00085
2224 38.39707 1224.65650 1232.00989 0.00081
2225 38.41007 1252.98830 1253.16016 0.00080
2226 38.42307 1310.25528 1317.68994 0.00076
2227 38.43607 1400.95158 1459.24011 0.00069
2228 38.44907 1529.63722 1656.49011 0.00060
2229 38.46207 1703.41839 1866.24011 0.00054
2230 38.47507 1918.47872 2097.63989 0.00048
2231 38.48807 2112.20008 2275.29004 0.00044
2232 38.50107 2242.44885 2420.64014 0.00041
2233 38.51407 2270.20179 2490.01025 0.00040
2234 38.52707 2140.25851 2304.00000 0.00043
2235 38.54007 1982.55557 2088.48999 0.00048
2236 38.55307 1842.16575 1953.64001 0.00051
2237 38.56607 1747.26817 1831.83997 0.00055
2238 38.57907 1715.54755 1857.60986 0.00054
2239 38.59207 1705.70817 1814.75989 0.00055
2240 38.60507 1690.46041 1806.25000 0.00055
2241 38.61807 1660.38705 1797.76013 0.00056
2242 38.63107 1610.96617 1672.81018 0.00060
2243 38.64407 1567.68948 1600.00000 0.00063
2244 38.65707 1555.56471 1560.25000 0.00064
2245 38.67007 1591.19375 1592.01013 0.00063
2246 38.68307 1695.88303 1689.20984 0.00059
2247 38.69607 1852.20624 1883.56018 0.00053
2248 38.70907 2033.68366 2061.16016 0.00049
2249 38.72207 2209.05469 2180.89014 0.00046
2250 38.73507 2266.49762 2237.29004 0.00045
2251 38.74807 2224.78193 2246.76025 0.00045
2252 38.76107 2103.36321 2088.48999 0.00048
2253 38.77407 1933.22368 1883.56018 0.00053
2254 38.78707 1805.80520 1780.84009 0.00056
2255 38.80007 1720.60616 1713.96008 0.00058
2256 38.81307 1669.52680 1705.68994 0.00059
2257 38.82607 1641.95424 1705.68994 0.00059
2258 38.83907 1597.08382 1624.08997 0.00062
2259 38.85207 1526.37848 1482.25000 0.00067
2260 38.86507 1439.51038 1428.83997 0.00070
2261 38.87807 1340.48157 1369.00000 0.00073
2262 38.89107 1250.41331 1190.25000 0.00084
2263 38.90407 1176.77999 1122.25000 0.00089
2264 38.91707 1117.70279 1089.00000 0.00092
2265 38.93007 1074.22992 1043.28992 0.00096
2266 38.94307 1044.10278 1004.89008 0.00100
2267 38.95607 1023.68652 992.25000 0.00101
2268 38.96907 1009.51113 954.81000 0.00105
2269 38.98207 1000.69860 979.68994 0.00102
2270 38.99507 996.34359 979.68994 0.00102
2271 39.00807 996.31517 948.63995 0.00105
2272 39.02107 1000.11149 998.56000 0.00100
2273 39.03407 1007.96776 1011.23993 0.00099
2274 39.04707 1020.37593 1095.60986 0.00091
2275 39.06007 1036.70627 1011.23993 0.00099
2276 39.07307 1053.30171 1043.28992 0.00096
2277 39.08607 1067.52264 1108.88989 0.00090
2278 39.09907 1076.95520 985.95996 0.00101
2279 39.11207 1078.10468 1062.75989 0.00094
2280 39.12507 1080.13043 1043.28992 0.00096
2281 39.13807 1086.25378 1069.29004 0.00094
2282 39.15107 1099.61420 1075.83997 0.00093
2283 39.16407 1122.18422 1135.69006 0.00088
2284 39.17707 1155.63042 1239.04004 0.00081
2285 39.19007 1203.43946 1246.08997 0.00080
2286 39.20307 1270.25710 1310.44006 0.00076
2287 39.21607 1361.45378 1451.60986 0.00069
2288 39.22907 1490.43886 1521.00000 0.00066
2289 39.24207 1673.64735 1730.55981 0.00058
2290 39.25507 1892.25509 1866.24011 0.00054
2291 39.26807 2128.59229 2171.55981 0.00046
2292 39.28107 2357.86664 2332.88989 0.00043
2293 39.29407 2476.25679 2550.25000 0.00039
2294 39.30707 2525.95058 2570.48999 0.00039
2295 39.32007 2591.12285 2580.63989 0.00039
2296 39.33307 2723.39167 2809.00000 0.00036
2297 39.34607 3003.92126 3080.25000 0.00032
2298 39.35907 3444.01714 3481.00000 0.00029
2299 39.37207 4016.08767 3956.41016 0.00025
2300 39.38507 4526.71774 4342.81006 0.00023
2301 39.39807 4833.48740 4664.89063 0.00021
2302 39.41107 4828.35265 4664.89063 0.00021
2303 39.42407 4404.54849 4303.35986 0.00023
2304 39.43707 3886.42494 3745.44019 0.00027
2305 39.45007 3423.19883 3249.00000 0.00031
2306 39.46307 3092.06987 2948.48999 0.00034
2307 39.47607 2930.37291 2724.84009 0.00037
2308 39.48907 2845.35439 2683.23999 0.00037
2309 39.50207 2747.15125 2693.61011 0.00037
2310 39.51507 2602.74932 2590.81006 0.00039
2311 39.52807 2376.62965 2342.56006 0.00043
2312 39.54107 2106.73265 1998.09009 0.00050
2313 39.55407 1852.98659 1689.20984 0.00059
2314 39.56707 1630.02620 1474.56006 0.00068
2315 39.58007 1448.68992 1310.44006 0.00076
2316 39.59307 1323.34595 1183.36011 0.00085
2317 39.60607 1228.09335 1162.80994 0.00086
2318 39.61907 1156.84629 1128.95984 0.00089
2319 39.63207 1104.60787 1049.76013 0.00095
2320 39.64507 1068.60236 1011.23993 0.00099
2321 39.65807 1041.64840 1017.60999 0.00098
2322 39.67107 1021.24279 998.56000 0.00100
2323 39.68407 1006.75093 973.44006 0.00103
2324 39.69707 997.39490 961.00000 0.00104
2325 39.71007 992.05488 967.21002 0.00103
2326 39.72307 989.08797 1017.60999 0.00098
2327 39.73607 985.84252 1011.23993 0.00099
2328 39.74907 982.68671 992.25000 0.00101
2329 39.76207 978.47133 1011.23993 0.00099
2330 39.77507 972.07832 992.25000 0.00101
2331 39.78807 964.59749 979.68994 0.00102
2332 39.80107 954.92025 936.36005 0.00107
2333 39.81407 945.60197 906.01001 0.00110
2334 39.82707 937.96055 930.25000 0.00107
2335 39.84007 931.55052 948.63995 0.00105
2336 39.85307 926.45568 936.36005 0.00107
2337 39.86607 922.19756 930.25000 0.00107
2338 39.87907 917.82735 912.04004 0.00110
2339 39.89207 913.44051 906.01001 0.00110
2340 39.90507 908.93473 924.15997 0.00108
2341 39.91807 904.69048 930.25000 0.00107
2342 39.93107 901.47539 918.08997 0.00109
2343 39.94407 899.33476 888.03998 0.00113
2344 39.95707 898.33423 835.20996 0.00120
2345 39.97007 898.65514 876.16003 0.00114
2346 39.98307 900.32496 846.81000 0.00118
2347 39.99607 903.24016 888.03998 0.00113
2348 40.00907 907.41629 918.08997 0.00109
2349 40.02207 912.94601 936.36005 0.00107
2350 40.03507 920.08381 936.36005 0.00107
2351 40.04807 929.08505 936.36005 0.00107
2352 40.06107 940.24545 961.00000 0.00104
2353 40.07407 954.33429 961.00000 0.00104
2354 40.08707 973.15128 948.63995 0.00105
2355 40.10007 1001.96293 1043.28992 0.00096
2356 40.11307 1043.68891 1108.88989 0.00090
2357 40.12607 1103.34903 1183.36011 0.00085
2358 40.13907 1186.42966 1246.08997 0.00080
2359 40.15207 1319.16611 1332.25000 0.00075
2360 40.16507 1494.06203 1505.43994 0.00066
2361 40.17807 1701.21371 1780.84009 0.00056
2362 40.19107 1926.01963 1989.15991 0.00050
2363 40.20407 2113.59362 2209.00000 0.00045
2364 40.21707 2180.52594 2304.00000 0.00043
2365 40.23007 2134.73694 2143.68994 0.00047
2366 40.24307 1996.82169 2061.16016 0.00049
2367 40.25607 1822.02578 1849.00000 0.00054
2368 40.26907 1698.05515 1747.23999 0.00057
2369 40.28207 1622.98391 1672.81018 0.00060
2370 40.29507 1587.92709 1616.04004 0.00062
2371 40.30807 1578.27767 1648.35986 0.00061
2372 40.32107 1552.48341 1513.21008 0.00066
2373 40.33407 1497.99981 1505.43994 0.00066
2374 40.34707 1421.42747 1406.25000 0.00071
2375 40.36007 1329.19558 1303.20984 0.00077
2376 40.37307 1239.91811 1075.83997 0.00093
2377 40.38607 1163.98994 1095.60986 0.00091
2378 40.39907 1099.59332 998.56000 0.00100
2379 40.41207 1048.55304 1062.75989 0.00094
2380 40.42507 1012.61152 942.49005 0.00106
2381 40.43807 988.31625 967.21002 0.00103
2382 40.45107 971.38237 936.36005 0.00107
2383 40.46407 960.15238 973.44006 0.00103
2384 40.47707 952.41019 936.36005 0.00107
2385 40.49007 947.29751 967.21002 0.00103
2386 40.50307 943.30666 924.15997 0.00108
2387 40.51607 940.55103 985.95996 0.00101
2388 40.52907 940.01784 973.44006 0.00103
2389 40.54207 941.94283 906.01001 0.00110
2390 40.55507 946.37438 936.36005 0.00107
2391 40.56807 953.84781 948.63995 0.00105
2392 40.58107 966.32593 924.15997 0.00108
2393 40.59407 984.56158 1004.89008 0.00100
2394 40.60707 1010.47047 1017.60999 0.00098
2395 40.62007 1046.55880 1043.28992 0.00096
2396 40.63307 1106.49305 1075.83997 0.00093
2397 40.64607 1191.71048 1162.80994 0.00086
2398 40.65907 1304.88590 1317.68994 0.00076
2399 40.67207 1448.12363 1497.69006 0.00067
2400 40.68507 1619.61824 1697.44006 0.00059
2401 40.69807 1771.86408 1857.60986 0.00054
2402 40.71107 1874.98677 1927.21008 0.00052
2403 40.72407 1904.99321 1900.95984 0.00053
2404 40.73707 1824.10680 1866.24011 0.00054
2405 40.75007 1721.34949 1722.25000 0.00058
2406 40.76307 1633.55933 1616.04004 0.00062
2407 40.77607 1582.68363 1584.03992 0.00063
2408 40.78907 1589.71517 1632.16016 0.00061
2409 40.80207 1631.96275 1722.25000 0.00058
2410 40.81507 1710.53834 1738.89001 0.00058
2411 40.82807 1817.20402 1866.24011 0.00054
2412 40.84107 1940.86136 1980.25000 0.00050
2413 40.85407 2092.76926 2061.16016 0.00049
2414 40.86707 2279.46778 2323.23999 0.00043
2415 40.88007 2432.54352 2391.21021 0.00042
2416 40.89307 2500.90950 2420.64014 0.00041
2417 40.90607 2461.66174 2420.64014 0.00041
2418 40.91907 2292.92586 2304.00000 0.00043
2419 40.93207 2078.85770 2079.35986 0.00048
2420 40.94507 1907.52068 1883.56018 0.00053
2421 40.95807 1790.80642 1772.40991 0.00056
2422 40.97107 1731.12309 1755.61011 0.00057
2423 40.98407 1714.68509 1755.61011 0.00057
2424 40.99707 1691.87309 1747.23999 0.00057
2425 41.01007 1646.92708 1672.81018 0.00060
2426 41.02307 1574.93101 1600.00000 0.00063
2427 41.03607 1479.47080 1521.00000 0.00066
2428 41.04907 1388.30669 1376.40991 0.00073
2429 41.06207 1312.70673 1281.63989 0.00078
2430 41.07507 1252.06387 1225.00000 0.00082
2431 41.08807 1204.99673 1190.25000 0.00084
2432 41.10107 1170.13905 1149.21008 0.00087
2433 41.11407 1135.14168 1149.21008 0.00087
2434 41.12707 1106.37683 1169.64001 0.00085
2435 41.14007 1085.64299 1128.95984 0.00089
2436 41.15307 1074.36188 1049.76013 0.00095
2437 41.16607 1073.27255 1056.25000 0.00095
2438 41.17907 1078.77534 1095.60986 0.00091
2439 41.19207 1091.06481 1122.25000 0.00089
2440 41.20507 1108.87424 1156.00000 0.00087
2441 41.21807 1132.37641 1260.25000 0.00079
2442 41.23107 1163.78531 1253.16016 0.00080
2443 41.24407 1215.49243 1303.20984 0.00077
2444 41.25707 1297.53800 1369.00000 0.00073
2445 41.27007 1420.33774 1466.88989 0.00068
2446 41.28307 1595.88701 1664.63989 0.00060
2447 41.29607 1857.69981 1944.80981 0.00051
2448 41.30907 2220.17681 2256.25000 0.00044
2449 41.32207 2642.57043 2611.20996 0.00038
2450 41.33507 3083.29948 3014.01025 0.00033
2451 41.34807 3463.00975 3398.88989 0.00029
2452 41.36107 3577.53245 3492.80981 0.00029
2453 41.37407 3470.27388 3398.88989 0.00029
2454 41.38707 3204.80766 3214.89014 0.00031
2455 41.40007 2867.22679 2937.64014 0.00034
2456 41.41307 2622.71816 2580.63989 0.00039
2457 41.42607 2466.76346 2430.48999 0.00041
2458 41.43907 2381.25885 2420.64014 0.00041
2459 41.45207 2342.01429 2323.23999 0.00043
2460 41.46507 2286.41165 2265.75977 0.00044
2461 41.47807 2172.61758 2162.25000 0.00046
2462 41.49107 2014.51823 2007.03992 0.00050
2463 41.50407 1825.24712 1789.28992 0.00056
2464 41.51707 1635.65972 1560.25000 0.00064
2465 41.53007 1473.47841 1451.60986 0.00069
2466 41.54307 1338.36790 1190.25000 0.00084
2467 41.55607 1229.90900 1197.15991 0.00084
2468 41.56907 1148.00228 1095.60986 0.00091
2469 41.58207 1089.51710 1082.41016 0.00092
2470 41.59507 1042.92621 1030.40991 0.00097
2471 41.60807 1006.37305 973.44006 0.00103
2472 41.62107 978.18378 1017.60999 0.00098
2473 41.63407 957.73817 992.25000 0.00101
2474 41.64707 941.33241 906.01001 0.00110
2475 41.66007 928.08357 942.49005 0.00106
2476 41.67307 916.98381 942.49005 0.00106
2477 41.68607 907.85267 930.25000 0.00107
2478 41.69907 899.80141 912.04004 0.00110
2479 41.71207 892.46276 852.64001 0.00117
2480 41.72507 886.06579 888.03998 0.00113
2481 41.73807 880.71365 924.15997 0.00108
2482 41.75107 876.32949 924.15997 0.00108
2483 41.76407 872.76649 888.03998 0.00113
2484 41.77707 869.92023 888.03998 0.00113
2485 41.79007 867.75125 900.00000 0.00111
2486 41.80307 866.29421 912.04004 0.00110
2487 41.81607 865.41703 876.16003 0.00114
2488 41.82907 865.07141 841.00000 0.00119
2489 41.84207 865.25391 906.01001 0.00110
2490 41.85507 866.06342 864.35999 0.00116
2491 41.86807 867.54999 900.00000 0.00111
2492 41.88107 869.66013 876.16003 0.00114
2493 41.89407 872.44265 870.25000 0.00115
2494 41.90707 876.02114 906.01001 0.00110
2495 41.92007 880.83666 900.00000 0.00111
2496 41.93307 886.98126 894.00995 0.00112
2497 41.94607 894.58552 942.49005 0.00106
2498 41.95907 903.96019 954.81000 0.00105
2499 41.97207 915.94778 967.21002 0.00103
2500 41.98507 932.10484 1004.89008 0.00100
2501 41.99807 953.35543 1030.40991 0.00097
2502 42.01107 981.72488 1024.00000 0.00098
2503 42.02407 1019.58348 1082.41016 0.00092
2504 42.03707 1080.75566 1142.43994 0.00088
2505 42.05007 1170.05207 1225.00000 0.00082
2506 42.06307 1295.08144 1346.89001 0.00074
2507 42.07607 1462.29251 1513.21008 0.00066
2508 42.08907 1687.50463 1697.44006 0.00059
2509 42.10207 1945.71118 1989.15991 0.00050
2510 42.11507 2183.07868 2143.68994 0.00047
2511 42.12807 2354.90617 2294.41016 0.00044
2512 42.14107 2400.34128 2352.25000 0.00043
2513 42.15407 2264.63749 2284.83984 0.00044
2514 42.16707 2080.24167 2106.81006 0.00047
2515 42.18007 1895.94524 1874.88989 0.00053
2516 42.19307 1752.70165 1747.23999 0.00057
2517 42.20607 1685.25786 1681.00000 0.00059
2518 42.21907 1659.04258 1632.16016 0.00061
2519 42.23207 1642.33411 1632.16016 0.00061
2520 42.24507 1615.08174 1616.04004 0.00062
2521 42.25807 1552.78151 1544.48999 0.00065
2522 42.27107 1452.75405 1376.40991 0.00073
2523 42.28407 1343.90271 1260.25000 0.00079
2524 42.29707 1237.23075 1190.25000 0.00084
2525 42.31007 1142.37361 1095.60986 0.00091
2526 42.32307 1070.45773 1043.28992 0.00096
2527 42.33607 1014.75507 1004.89008 0.00100
2528 42.34907 971.98707 942.49005 0.00106
2529 42.36207 939.94518 942.49005 0.00106
2530 42.37507 917.19286 942.49005 0.00106
2531 42.38807 900.64061 906.01001 0.00110
2532 42.40107 887.63368 924.15997 0.00108
2533 42.41407 877.37364 924.15997 0.00108
2534 42.42707 869.22600 900.00000 0.00111
2535 42.44007 863.10183 870.25000 0.00115
2536 42.45307 858.14743 900.00000 0.00111
2537 42.46607 854.20731 918.08997 0.00109
2538 42.47907 851.19036 882.09003 0.00113
2539 42.49207 849.17626 858.48993 0.00116
2540 42.50507 848.27595 864.35999 0.00116
2541 42.51807 848.54020 846.81000 0.00118
2542 42.53107 850.21140 882.09003 0.00113
2543 42.54407 853.55434 930.25000 0.00107
2544 42.55707 859.88153 930.25000 0.00107
2545 42.57007 868.80097 924.15997 0.00108
2546 42.58307 880.14491 967.21002 0.00103
2547 42.59607 893.08744 973.44006 0.00103
2548 42.60907 904.99807 1004.89008 0.00100
2549 42.62207 912.06614 1056.25000 0.00095
2550 42.63507 913.60511 1004.89008 0.00100
2551 42.64807 909.31612 998.56000 0.00100
2552 42.66107 901.59341 954.81000 0.00105
2553 42.67407 894.53612 918.08997 0.00109
2554 42.68707 889.24484 936.36005 0.00107
2555 42.70007 886.90869 918.08997 0.00109
2556 42.71307 887.37657 912.04004 0.00110
2557 42.72607 888.97143 948.63995 0.00105
2558 42.73907 890.55425 948.63995 0.00105
2559 42.75207 891.53916 967.21002 0.00103
2560 42.76507 892.05301 912.04004 0.00110
2561 42.77807 892.96957 948.63995 0.00105
2562 42.79107 895.24343 979.68994 0.00102
2563 42.80407 899.61963 961.00000 0.00104
2564 42.81707 907.50562 998.56000 0.00100
2565 42.83007 920.62512 961.00000 0.00104
2566 42.84307 939.89651 1011.23993 0.00099
2567 42.85607 967.13613 1030.40991 0.00097
2568 42.86907 1007.47609 1095.60986 0.00091
2569 42.88207 1071.02726 1162.80994 0.00086
2570 42.89507 1159.51295 1253.16016 0.00080
2571 42.90807 1275.79308 1260.25000 0.00079
2572 42.92107 1426.20933 1459.24011 0.00069
2573 42.93407 1600.71769 1672.81018 0.00060
2574 42.94707 1758.05132 1789.28992 0.00056
2575 42.96007 1871.32204 1840.41016 0.00054
2576 42.97307 1903.60805 1883.56018 0.00053
2577 42.98607 1816.73741 1918.43994 0.00052
2578 42.99907 1698.71470 1738.89001 0.00058
2579 43.01207 1577.78195 1584.03992 0.00063
2580 43.02507 1482.06216 1505.43994 0.00066
2581 43.03807 1441.66364 1482.25000 0.00067
2582 43.05107 1425.37093 1413.75989 0.00071
2583 43.06407 1419.92400 1428.83997 0.00070
2584 43.07707 1412.48138 1544.48999 0.00065
2585 43.09007 1377.37867 1376.40991 0.00073
2586 43.10307 1323.78580 1428.83997 0.00070
2587 43.11607 1262.16750 1346.89001 0.00074
2588 43.12907 1200.47075 1232.00989 0.00081
2589 43.14207 1151.73419 1142.43994 0.00088
2590 43.15507 1119.58901 1089.00000 0.00092
2591 43.16807 1106.25101 1108.88989 0.00090
2592 43.18107 1113.22564 1169.64001 0.00085
2593 43.19407 1144.52155 1156.00000 0.00087
2594 43.20707 1201.06876 1218.01013 0.00082
2595 43.22007 1298.64969 1361.61011 0.00073
2596 43.23307 1430.52785 1482.25000 0.00067
2597 43.24607 1587.74852 1632.16016 0.00061
2598 43.25907 1756.60145 1840.41016 0.00054
2599 43.27207 1897.30443 1962.48999 0.00051
2600 43.28507 1950.38254 2061.16016 0.00049
2601 43.29807 1926.18748 2007.03992 0.00050
2602 43.31107 1843.78140 1918.43994 0.00052
2603 43.32407 1739.86681 1840.41016 0.00054
2604 43.33707 1678.98733 1789.28992 0.00056
2605 43.35007 1672.32633 1705.68994 0.00059
2606 43.36307 1718.76613 1755.61011 0.00057
2607 43.37607 1801.33866 1789.28992 0.00056
2608 43.38907 1890.28233 1883.56018 0.00053
2609 43.40207 1951.65728 2016.01013 0.00050
2610 43.41507 1941.95846 2025.00000 0.00049
2611 43.42807 1873.97856 1953.64001 0.00051
2612 43.44107 1771.42449 1814.75989 0.00055
2613 43.45407 1660.25543 1624.08997 0.00062
2614 43.46707 1568.31339 1536.64001 0.00065
2615 43.48007 1501.31874 1421.29004 0.00070
2616 43.49307 1455.44627 1444.00000 0.00069
2617 43.50607 1435.68021 1451.60986 0.00069
2618 43.51907 1435.45797 1482.25000 0.00067
2619 43.53207 1440.83414 1513.21008 0.00066
2620 43.54507 1452.21336 1466.88989 0.00068
2621 43.55807 1467.91210 1552.36011 0.00064
2622 43.57107 1473.81455 1544.48999 0.00065
2623 43.58407 1474.88547 1474.56006 0.00068
2624 43.59707 1471.75206 1497.69006 0.00067
2625 43.61007 1455.02217 1474.56006 0.00068
2626 43.62307 1425.45788 1421.29004 0.00070
2627 43.63607 1384.33703 1383.84009 0.00072
2628 43.64907 1329.13940 1339.55994 0.00075
2629 43.66207 1270.36962 1281.63989 0.00078
2630 43.67507 1222.46894 1232.00989 0.00081
2631 43.68807 1182.82444 1183.36011 0.00085
2632 43.70107 1151.60349 1183.36011 0.00085
2633 43.71407 1127.66105 1218.01013 0.00082
2634 43.72707 1104.40942 1190.25000 0.00084
2635 43.74007 1079.70808 1149.21008 0.00087
2636 43.75307 1051.93740 1075.83997 0.00093
2637 43.76607 1019.81497 1004.89008 0.00100
2638 43.77907 987.92111 1004.89008 0.00100
2639 43.79207 959.11816 985.95996 0.00101
2640 43.80507 934.00470 942.49005 0.00106
2641 43.81807 913.33356 918.08997 0.00109
2642 43.83107 898.19796 918.08997 0.00109
2643 43.84407 886.60421 900.00000 0.00111
2644 43.85707 877.89455 924.15997 0.00108
2645 43.87007 871.66927 967.21002 0.00103
2646 43.88307 867.67237 906.01001 0.00110
2647 43.89607 865.13451 912.04004 0.00110
2648 43.90907 863.68854 930.25000 0.00107
2649 43.92207 863.31008 936.36005 0.00107
2650 43.93507 863.92881 918.08997 0.00109
2651 43.94807 865.38924 876.16003 0.00114
2652 43.96107 867.61126 876.16003 0.00114
2653 43.97407 870.66976 876.16003 0.00114
2654 43.98707 874.62460 948.63995 0.00105
2655 44.00007 879.44320 967.21002 0.00103
2656 44.01307 885.17670 942.49005 0.00106
2657 44.02607 891.99479 954.81000 0.00105
2658 44.03907 900.15039 954.81000 0.00105
2659 44.05207 909.57473 967.21002 0.00103
2660 44.06507 920.40160 973.44006 0.00103
2661 44.07807 932.89552 1030.40991 0.00097
2662 44.09107 947.87903 1062.75989 0.00094
2663 44.10407 965.32943 1036.84009 0.00096
2664 44.11707 985.62475 1089.00000 0.00092
2665 44.13007 1009.42576 1115.56006 0.00090
2666 44.14307 1038.99403 1095.60986 0.00091
2667 44.15607 1075.09955 1082.41016 0.00092
2668 44.16907 1118.51984 1183.36011 0.00085
2669 44.18207 1171.04167 1197.15991 0.00084
2670 44.19507 1236.60169 1274.49011 0.00078
2671 44.20807 1316.40220 1354.23999 0.00074
2672 44.22107 1408.64525 1383.84009 0.00072
2673 44.23407 1514.42705 1505.43994 0.00066
2674 44.24707 1633.99723 1616.04004 0.00062
2675 44.26007 1753.87346 1747.23999 0.00057
2676 44.27307 1872.36401 1918.43994 0.00052
2677 44.28607 1988.99868 2007.03992 0.00050
2678 44.29907 2085.17038 2052.08984 0.00049
2679 44.31207 2144.93540 2162.25000 0.00046
2680 44.32507 2194.18254 2246.76025 0.00045
2681 44.33807 2228.51088 2332.88989 0.00043
2682 44.35107 2267.90352 2430.48999 0.00041
2683 44.36407 2336.42947 2470.09009 0.00040
2684 44.37707 2398.92161 2580.63989 0.00039
2685 44.39007 2401.41975 2510.00977 0.00040
2686 44.40307 2348.54188 2440.36011 0.00041
2687 44.41607 2233.67576 2391.21021 0.00042
2688 44.42907 2077.19215 2125.20996 0.00047
2689 44.44207 1928.45366 2007.03992 0.00050
2690 44.45507 1790.18009 1764.00000 0.00057
2691 44.46807 1678.26199 1764.00000 0.00057
2692 44.48107 1598.08948 1664.63989 0.00060
2693 44.49407 1535.81762 1689.20984 0.00059
2694 44.50707 1472.02453 1640.25000 0.00061
2695 44.52007 1403.32613 1513.21008 0.00066
2696 44.53307 1327.13129 1406.25000 0.00071
2697 44.54607 1246.16257 1288.81006 0.00078
2698 44.55907 1172.40794 1239.04004 0.00081
2699 44.57207 1109.36673 1128.95984 0.00089
2700 44.58507 1057.18255 1108.88989 0.00090
2701 44.59807 1015.39378 1089.00000 0.00092
2702 44.61107 985.18774 1030.40991 0.00097
2703 44.62407 961.85223 1011.23993 0.00099
2704 44.63707 944.14702 948.63995 0.00105
2705 44.65007 930.96085 936.36005 0.00107
2706 44.66307 921.71883 954.81000 0.00105
2707 44.67607 915.62931 918.08997 0.00109
2708 44.68907 912.15120 942.49005 0.00106
2709 44.70207 911.11110 979.68994 0.00102
2710 44.71507 912.39370 998.56000 0.00100
2711 44.72807 916.68147 942.49005 0.00106
2712 44.74107 924.37806 954.81000 0.00105
2713 44.75407 936.02969 1011.23993 0.00099
2714 44.76707 952.73930 1011.23993 0.00099
2715 44.78007 977.92756 1049.76013 0.00095
2716 44.79307 1018.32255 1062.75989 0.00094
2717 44.80607 1075.05867 1122.25000 0.00089
2718 44.81907 1149.61319 1176.48999 0.00085
2719 44.83207 1244.54045 1253.16016 0.00080
2720 44.84507 1353.78615 1332.25000 0.00075
2721 44.85807 1450.42382 1361.61011 0.00073
2722 44.87107 1517.31141 1391.28992 0.00072
2723 44.88407 1537.47008 1428.83997 0.00070
2724 44.89707 1483.30350 1413.75989 0.00071
2725 44.91007 1410.78136 1339.55994 0.00075
2726 44.92307 1339.13663 1267.35986 0.00079
2727 44.93607 1284.36726 1260.25000 0.00079
2728 44.94907 1265.02166 1274.49011 0.00078
2729 44.96207 1268.79426 1267.35986 0.00079
2730 44.97507 1284.02789 1232.00989 0.00081
2731 44.98807 1302.47615 1232.00989 0.00081
2732 45.00107 1305.34384 1281.63989 0.00078
2733 45.01407 1283.72529 1267.35986 0.00079
2734 45.02707 1245.23472 1211.03992 0.00083
2735 45.04007 1193.97400 1156.00000 0.00087
2736 45.05307 1140.60717 1128.95984 0.00089
2737 45.06607 1098.88006 1156.00000 0.00087
2738 45.07907 1069.26249 1135.69006 0.00088
2739 45.09207 1052.30754 1095.60986 0.00091
2740 45.10507 1048.46936 1082.41016 0.00092
2741 45.11807 1055.86299 1082.41016 0.00092
2742 45.13107 1072.77246 1122.25000 0.00089
2743 45.14407 1101.68982 1169.64001 0.00085
2744 45.15707 1143.90676 1218.01013 0.00082
2745 45.17007 1205.74897 1253.16016 0.00080
2746 45.18307 1292.48156 1324.96008 0.00075
2747 45.19607 1416.42591 1421.29004 0.00070
2748 45.20907 1567.31878 1521.00000 0.00066
2749 45.22207 1734.05765 1713.96008 0.00058
2750 45.23507 1900.82927 1831.83997 0.00055
2751 45.24807 2029.15421 1944.80981 0.00051
2752 45.26107 2071.90883 2007.03992 0.00050
2753 45.27407 2032.26064 1980.25000 0.00050
2754 45.28707 1922.51606 1797.76013 0.00056
2755 45.30007 1776.38412 1713.96008 0.00058
2756 45.31307 1657.66111 1600.00000 0.00063
2757 45.32607 1574.96300 1528.80994 0.00065
2758 45.33907 1526.52056 1536.64001 0.00065
2759 45.35207 1507.02336 1536.64001 0.00065
2760 45.36507 1498.85616 1536.64001 0.00065
2761 45.37807 1477.15663 1489.95984 0.00067
2762 45.39107 1436.94877 1398.76013 0.00071
2763 45.40407 1376.27391 1317.68994 0.00076
2764 45.41707 1299.36728 1288.81006 0.00078
2765 45.43007 1225.28003 1211.03992 0.00083
2766 45.44307 1159.81293 1197.15991 0.00084
2767 45.45607 1106.40966 1183.36011 0.00085
2768 45.46907 1068.66883 1075.83997 0.00093
2769 45.48207 1046.74865 1069.29004 0.00094
2770 45.49507 1036.85934 1069.29004 0.00094
2771 45.50807 1039.12487 1082.41016 0.00092
2772 45.52107 1055.46815 1115.56006 0.00090
2773 45.53407 1092.30783 1156.00000 0.00087
2774 45.54707 1148.54569 1232.00989 0.00081
2775 45.56007 1226.40564 1332.25000 0.00075
2776 45.57307 1329.26708 1451.60986 0.00069
2777 45.58607 1456.86452 1552.36011 0.00064
2778 45.59907 1582.80011 1656.49011 0.00060
2779 45.61207 1689.73558 1789.28992 0.00056
2780 45.62507 1761.59500 1789.28992 0.00056
2781 45.63807 1755.60548 1780.84009 0.00056
2782 45.65107 1715.15546 1831.83997 0.00055
2783 45.66407 1669.74066 1697.44006 0.00059
2784 45.67707 1649.99547 1755.61011 0.00057
2785 45.69007 1683.23601 1730.55981 0.00058
2786 45.70307 1771.65335 1789.28992 0.00056
2787 45.71607 1905.41998 1874.88989 0.00053
2788 45.72907 2069.06278 2034.00989 0.00049
2789 45.74207 2207.05720 2106.81006 0.00047
2790 45.75507 2278.66373 2171.55981 0.00046
2791 45.76807 2264.37723 2180.89014 0.00046
2792 45.78107 2127.80436 2125.20996 0.00047
2793 45.79407 1954.20037 1918.43994 0.00052
2794 45.80707 1786.17265 1738.89001 0.00058
2795 45.82007 1647.43407 1632.16016 0.00061
2796 45.83307 1562.35960 1544.48999 0.00065
2797 45.84607 1516.73228 1428.83997 0.00070
2798 45.85907 1492.38012 1451.60986 0.00069
2799 45.87207 1472.02876 1451.60986 0.00069
2800 45.88507 1436.78051 1413.75989 0.00071
2801 45.89807 1375.70291 1376.40991 0.00073
2802 45.91107 1301.65041 1324.96008 0.00075
2803 45.92407 1222.02234 1225.00000 0.00082
2804 45.93707 1145.51058 1108.88989 0.00090
2805 45.95007 1081.97426 1030.40991 0.00097
2806 45.96307 1029.83575 954.81000 0.00105
2807 45.97607 988.02469 961.00000 0.00104
2808 45.98907 954.98202 967.21002 0.00103
2809 46.00207 931.01619 961.00000 0.00104
2810 46.01507 911.24806 924.15997 0.00108
2811 46.02807 894.98287 912.04004 0.00110
2812 46.04107 881.98753 912.04004 0.00110
2813 46.05407 872.26534 876.16003 0.00114
2814 46.06707 864.63583 876.16003 0.00114
2815 46.08007 858.96371 906.01001 0.00110
2816 46.09307 854.85457 888.03998 0.00113
2817 46.10607 852.36035 864.35999 0.00116
2818 46.11907 851.18993 894.00995 0.00112
2819 46.13207 851.17062 882.09003 0.00113
2820 46.14507 852.31547 870.25000 0.00115
2821 46.15807 854.71265 876.16003 0.00114
2822 46.17107 858.30341 876.16003 0.00114
2823 46.18407 862.78899 858.48993 0.00116
2824 46.19707 868.32789 876.16003 0.00114
2825 46.21007 875.29909 918.08997 0.00109
2826 46.22307 885.80892 930.25000 0.00107
2827 46.23607 901.60896 961.00000 0.00104
2828 46.24907 924.54883 998.56000 0.00100
2829 46.26207 956.88404 1011.23993 0.00099
2830 46.27507 1004.95034 1017.60999 0.00098
2831 46.28807 1074.37989 1095.60986 0.00091
2832 46.30107 1162.85771 1197.15991 0.00084
2833 46.31407 1267.88720 1274.49011 0.00078
2834 46.32707 1386.59845 1324.96008 0.00075
2835 46.34007 1488.06929 1413.75989 0.00071
2836 46.35307 1547.30770 1513.21008 0.00066
2837 46.36607 1557.15953 1497.69006 0.00067
2838 46.37907 1511.21280 1466.88989 0.00068
2839 46.39207 1425.30265 1361.61011 0.00073
2840 46.40507 1343.37060 1296.00000 0.00077
2841 46.41807 1276.00792 1274.49011 0.00078
2842 46.43107 1230.14578 1176.48999 0.00085
2843 46.44407 1210.86288 1162.80994 0.00086
2844 46.45707 1204.76137 1176.48999 0.00085
2845 46.47007 1197.99528 1169.64001 0.00085
2846 46.48307 1184.51128 1162.80994 0.00086
2847 46.49607 1157.61308 1115.56006 0.00090
2848 46.50907 1115.31432 1069.29004 0.00094
2849 46.52207 1069.35324 1069.29004 0.00094
2850 46.53507 1023.74639 1030.40991 0.00097
2851 46.54807 982.36839 979.68994 0.00102
2852 46.56107 949.74727 948.63995 0.00105
2853 46.57407 925.37960 942.49005 0.00106
2854 46.58707 907.76142 912.04004 0.00110
2855 46.60007 896.57561 924.15997 0.00108
2856 46.61307 893.15526 942.49005 0.00106
2857 46.62607 896.82618 930.25000 0.00107
2858 46.63907 907.28065 973.44006 0.00103
2859 46.65207 925.29864 954.81000 0.00105
2860 46.66507 955.69113 992.25000 0.00101
2861 46.67807 996.06499 1036.84009 0.00096
2862 46.69107 1042.94774 1095.60986 0.00091
2863 46.70407 1092.60793 1162.80994 0.00086
2864 46.71707 1133.14689 1225.00000 0.00082
2865 46.73007 1148.25473 1204.09009 0.00083
2866 46.74307 1139.74088 1162.80994 0.00086
2867 46.75607 1110.95457 1162.80994 0.00086
2868 46.76907 1070.96238 1115.56006 0.00090
2869 46.78207 1037.92670 1024.00000 0.00098
2870 46.79507 1015.10915 1049.76013 0.00095
2871 46.80807 1002.80224 1049.76013 0.00095
2872 46.82107 1000.80153 961.00000 0.00104
2873 46.83407 1004.52945 1030.40991 0.00097
2874 46.84707 1006.73880 1056.25000 0.00095
2875 46.86007 1005.61381 1024.00000 0.00098
2876 46.87307 1000.78646 1011.23993 0.00099
2877 46.88607 992.30347 979.68994 0.00102
2878 46.89907 986.22684 1030.40991 0.00097
2879 46.91207 984.69236 1004.89008 0.00100
2880 46.92507 990.24643 936.36005 0.00107
2881 46.93807 1004.39447 998.56000 0.00100
2882 46.95107 1026.76037 998.56000 0.00100
2883 46.96407 1057.80362 1069.29004 0.00094
2884 46.97707 1102.07254 1142.43994 0.00088
2885 46.99007 1169.59499 1162.80994 0.00086
2886 47.00307 1258.07366 1274.49011 0.00078
2887 47.01607 1364.83928 1361.61011 0.00073
2888 47.02907 1485.67884 1489.95984 0.00067
2889 47.04207 1586.04842 1576.09009 0.00063
2890 47.05507 1641.40073 1656.49011 0.00060
2891 47.06807 1644.41324 1656.49011 0.00060
2892 47.08107 1588.28951 1505.43994 0.00066
2893 47.09407 1501.32313 1497.69006 0.00067
2894 47.10707 1427.28222 1406.25000 0.00071
2895 47.12007 1375.82385 1361.61011 0.00073
2896 47.13307 1356.43970 1361.61011 0.00073
2897 47.14607 1379.66644 1346.89001 0.00074
2898 47.15907 1421.08030 1391.28992 0.00072
2899 47.17207 1470.21646 1536.64001 0.00065
2900 47.18507 1516.42821 1474.56006 0.00068
2901 47.19807 1530.42943 1536.64001 0.00065
2902 47.21107 1506.53334 1552.36011 0.00064
2903 47.22407 1450.45270 1459.24011 0.00069
2904 47.23707 1368.78406 1369.00000 0.00073
2905 47.25007 1278.91562 1288.81006 0.00078
2906 47.26307 1203.43469 1225.00000 0.00082
2907 47.27607 1145.19898 1183.36011 0.00085
2908 47.28907 1104.89312 1122.25000 0.00089
2909 47.30207 1082.52694 1082.41016 0.00092
2910 47.31507 1071.42679 1056.25000 0.00095
2911 47.32807 1061.31918 1102.23999 0.00091
2912 47.34107 1048.85296 1095.60986 0.00091
2913 47.35407 1031.46550 1043.28992 0.00096
2914 47.36707 1007.39532 1056.25000 0.00095
2915 47.38007 982.50284 1017.60999 0.00098
2916 47.39307 959.54076 985.95996 0.00101
2917 47.40607 940.35548 985.95996 0.00101
2918 47.41907 926.78583 936.36005 0.00107
2919 47.43207 919.20447 906.01001 0.00110
2920 47.44507 916.90308 924.15997 0.00108
2921 47.45807 921.50981 985.95996 0.00101
2922 47.47107 933.47689 973.44006 0.00103
2923 47.48407 954.23233 954.81000 0.00105
2924 47.49707 984.68806 985.95996 0.00101
2925 47.51007 1035.24284 1089.00000 0.00092
2926 47.52307 1104.66912 1197.15991 0.00084
2927 47.53607 1193.19182 1274.49011 0.00078
2928 47.54907 1299.84535 1332.25000 0.00075
2929 47.56207 1418.65723 1428.83997 0.00070
2930 47.57507 1518.18408 1544.48999 0.00065
2931 47.58807 1578.40468 1576.09009 0.00063
2932 47.60107 1587.23535 1560.25000 0.00064
2933 47.61407 1527.88525 1489.95984 0.00067
2934 47.62707 1439.77161 1413.75989 0.00071
2935 47.64007 1354.92202 1361.61011 0.00073
2936 47.65307 1285.26661 1303.20984 0.00077
2937 47.66607 1242.07525 1253.16016 0.00080
2938 47.67907 1227.14259 1225.00000 0.00082
2939 47.69207 1223.21970 1239.04004 0.00081
2940 47.70507 1222.73824 1253.16016 0.00080
2941 47.71807 1217.77803 1260.25000 0.00079
2942 47.73107 1193.26316 1218.01013 0.00082
2943 47.74407 1157.99522 1149.21008 0.00087
2944 47.75707 1117.16861 1142.43994 0.00088
2945 47.77007 1075.80031 1089.00000 0.00092
2946 47.78307 1041.61112 1011.23993 0.00099
2947 47.79607 1018.33389 936.36005 0.00107
2948 47.80907 1005.64904 961.00000 0.00104
2949 47.82207 1004.50199 1011.23993 0.00099
2950 47.83507 1015.75583 1011.23993 0.00099
2951 47.84807 1038.00317 1043.28992 0.00096
2952 47.86107 1067.41936 1062.75989 0.00094
2953 47.87407 1104.32291 1075.83997 0.00093
2954 47.88707 1144.35820 1122.25000 0.00089
2955 47.90007 1182.35262 1128.95984 0.00089
2956 47.91307 1223.07855 1108.88989 0.00090
2957 47.92607 1256.23953 1169.64001 0.00085
2958 47.93907 1274.98040 1239.04004 0.00081
2959 47.95207 1280.36173 1253.16016 0.00080
2960 47.96507 1273.08345 1211.03992 0.00083
2961 47.97807 1262.38720 1288.81006 0.00078
2962 47.99107 1266.17438 1267.35986 0.00079
2963 48.00407 1286.79470 1211.03992 0.00083
2964 48.01707 1327.09873 1288.81006 0.00078
2965 48.03007 1384.24689 1391.28992 0.00072
2966 48.04307 1437.57702 1436.41016 0.00070
2967 48.05607 1474.80596 1406.25000 0.00071
2968 48.06907 1484.11793 1466.88989 0.00068
2969 48.08207 1445.44472 1398.76013 0.00071
2970 48.09507 1391.60483 1346.89001 0.00074
2971 48.10807 1337.40021 1303.20984 0.00077
2972 48.12107 1295.29466 1274.49011 0.00078
2973 48.13407 1280.56806 1288.81006 0.00078
2974 48.14707 1293.18984 1190.25000 0.00084
2975 48.16007 1327.79022 1324.96008 0.00075
2976 48.17307 1382.98448 1369.00000 0.00073
2977 48.18607 1451.65790 1513.21008 0.00066
2978 48.19907 1519.26590 1552.36011 0.00064
2979 48.21207 1576.49386 1624.08997 0.00062
2980 48.22507 1611.11276 1624.08997 0.00062
2981 48.23807 1610.09334 1648.35986 0.00061
2982 48.25107 1569.25728 1672.81018 0.00060
2983 48.26407 1514.45669 1568.15991 0.00064
2984 48.27707 1460.53273 1466.88989 0.00068
2985 48.29007 1426.84825 1436.41016 0.00070
2986 48.30307 1426.21315 1505.43994 0.00066
2987 48.31607 1451.68961 1466.88989 0.00068
2988 48.32907 1500.28453 1608.00989 0.00062
2989 48.34207 1565.24435 1568.15991 0.00064
2990 48.35507 1626.97423 1672.81018 0.00060
2991 48.36807 1683.63428 1772.40991 0.00056
2992 48.38107 1746.47013 1831.83997 0.00055
2993 48.39407 1814.99462 1900.95984 0.00053
2994 48.40707 1892.66173 1971.36011 0.00051
2995 48.42007 1979.13619 2088.48999 0.00048
2996 48.43307 2054.82683 2134.44019 0.00047
2997 48.44607 2119.60681 2284.83984 0.00044
2998 48.45907 2208.05637 2294.41016 0.00044
2999 48.47207 2307.91815 2332.88989 0.00043
3000 48.48507 2412.25151 2500.00000 0.00040
3001 48.49807 2510.96331 2560.35986 0.00039
3002 48.51107 2514.68652 2590.81006 0.00039
3003 48.52407 2444.05504 2520.04004 0.00040
3004 48.53707 2321.99474 2440.36011 0.00041
3005 48.55007 2166.24736 2265.75977 0.00044
3006 48.56307 2025.30129 1980.25000 0.00050
3007 48.57607 1920.86603 1840.41016 0.00054
3008 48.58907 1849.58840 1883.56018 0.00053
3009 48.60207 1808.51235 1840.41016 0.00054
3010 48.61507 1793.08555 1840.41016 0.00054
3011 48.62807 1772.76204 1797.76013 0.00056
3012 48.64107 1727.63041 1730.55981 0.00058
3013 48.65407 1656.46215 1648.35986 0.00061
3014 48.66707 1559.22637 1482.25000 0.00067
3015 48.68007 1451.34112 1332.25000 0.00075
3016 48.69307 1352.31512 1260.25000 0.00079
3017 48.70607 1267.40010 1225.00000 0.00082
3018 48.71907 1200.85682 1176.48999 0.00085
3019 48.73207 1155.25585 1095.60986 0.00091
3020 48.74507 1124.47088 1069.29004 0.00094
3021 48.75807 1104.41679 1049.76013 0.00095
3022 48.77107 1096.89554 1049.76013 0.00095
3023 48.78407 1100.72540 1056.25000 0.00095
3024 48.79707 1112.07688 1102.23999 0.00091
3025 48.81007 1132.06294 1128.95984 0.00089
3026 48.82307 1158.95925 1135.69006 0.00088
3027 48.83607 1181.05221 1162.80994 0.00086
3028 48.84907 1191.07326 1162.80994 0.00086
3029 48.86207 1183.77709 1135.69006 0.00088
3030 48.87507 1150.28356 1115.56006 0.00090
3031 48.88807 1107.43149 1095.60986 0.00091
3032 48.90107 1065.87213 1056.25000 0.00095
3033 48.91407 1030.51175 1049.76013 0.00095
3034 48.92707 1007.08954 1030.40991 0.00097
3035 48.94007 994.80064 967.21002 0.00103
3036 48.95307 988.52236 954.81000 0.00105
3037 48.96607 985.51417 985.95996 0.00101
3038 48.97907 981.65055 992.25000 0.00101
3039 48.99207 971.67689 967.21002 0.00103
3040 49.00507 957.35782 954.81000 0.00105
3041 49.01807 939.81918 942.49005 0.00106
3042 49.03107 920.83966 894.00995 0.00112
3043 49.04407 903.92541 906.01001 0.00110
3044 49.05707 890.20856 942.49005 0.00106
3045 49.07007 879.81122 894.00995 0.00112
3046 49.08307 872.96522 858.48993 0.00116
3047 49.09607 870.22568 841.00000 0.00119
3048 49.10907 870.78199 858.48993 0.00116
3049 49.12207 874.11073 894.00995 0.00112
3050 49.13507 880.20739 900.00000 0.00111
3051 49.14807 889.54328 906.01001 0.00110
3052 49.16107 903.90873 924.15997 0.00108
3053 49.17407 926.19619 948.63995 0.00105
3054 49.18707 958.15033 954.81000 0.00105
3055 49.20007 1001.74348 1049.76013 0.00095
3056 49.21307 1060.98491 1115.56006 0.00090
3057 49.22607 1138.01937 1218.01013 0.00082
3058 49.23907 1222.19437 1281.63989 0.00078
3059 49.25207 1304.26698 1383.84009 0.00072
3060 49.26507 1373.13768 1436.41016 0.00070
3061 49.27807 1390.33456 1383.84009 0.00072
3062 49.29107 1367.21742 1406.25000 0.00071
3063 49.30407 1316.34882 1339.55994 0.00075
3064 49.31707 1250.76426 1274.49011 0.00078
3065 49.33007 1193.62465 1190.25000 0.00084
3066 49.34307 1155.90447 1211.03992 0.00083
3067 49.35607 1135.86653 1156.00000 0.00087
3068 49.36907 1131.97937 1162.80994 0.00086
3069 49.38207 1141.11431 1169.64001 0.00085
3070 49.39507 1152.07441 1176.48999 0.00085
3071 49.40807 1159.26541 1190.25000 0.00084
3072 49.42107 1160.80341 1183.36011 0.00085
3073 49.43407 1155.64567 1156.00000 0.00087
3074 49.44707 1146.80976 1246.08997 0.00080
3075 49.46007 1139.64381 1128.95984 0.00089
3076 49.47307 1137.06094 1102.23999 0.00091
3077 49.48607 1145.40476 1122.25000 0.00089
3078 49.49907 1162.77119 1156.00000 0.00087
3079 49.51207 1184.69687 1260.25000 0.00079
3080 49.52507 1207.10268 1232.00989 0.00081
3081 49.53807 1209.16257 1281.63989 0.00078
3082 49.55107 1196.73339 1211.03992 0.00083
3083 49.56407 1175.01857 1267.35986 0.00079
3084 49.57707 1149.86326 1218.01013 0.00082
3085 49.59007 1132.61554 1135.69006 0.00088
3086 49.60307 1126.55440 1102.23999 0.00091
3087 49.61607 1129.21162 1149.21008 0.00087
3088 49.62907 1136.92634 1128.95984 0.00089
3089 49.64207 1142.50691 1197.15991 0.00084
3090 49.65507 1141.78758 1204.09009 0.00083
3091 49.66807 1133.86071 1211.03992 0.00083
3092 49.68107 1120.96945 1149.21008 0.00087
3093 49.69407 1107.95404 1089.00000 0.00092
3094 49.70707 1097.55005 1075.83997 0.00093
3095 49.72007 1091.83914 1108.88989 0.00090
3096 49.73307 1089.76702 1102.23999 0.00091
3097 49.74607 1087.30067 1108.88989 0.00090
3098 49.75907 1085.56311 1142.43994 0.00088
3099 49.77207 1087.21493 1082.41016 0.00092
3100 49.78507 1094.03905 1075.83997 0.00093
3101 49.79807 1110.52012 1049.76013 0.00095
3102 49.81107 1142.72653 1169.64001 0.00085
3103 49.82407 1192.96411 1190.25000 0.00084
3104 49.83707 1252.97242 1260.25000 0.00079
3105 49.85007 1316.47363 1310.44006 0.00076
3106 49.86307 1371.75956 1383.84009 0.00072
3107 49.87607 1389.30379 1383.84009 0.00072
3108 49.88907 1378.20737 1346.89001 0.00074
3109 49.90207 1348.03287 1296.00000 0.00077
3110 49.91507 1309.14140 1288.81006 0.00078
3111 49.92807 1283.62790 1274.49011 0.00078
3112 49.94107 1277.71253 1267.35986 0.00079
3113 49.95407 1289.24924 1260.25000 0.00079
3114 49.96707 1307.87703 1253.16016 0.00080
3115 49.98007 1325.13272 1303.20984 0.00077
3116 49.99307 1325.48121 1296.00000 0.00077
3117 50.00607 1299.10489 1232.00989 0.00081
3118 50.01907 1256.09810 1183.36011 0.00085
3119 50.03207 1202.66738 1162.80994 0.00086
3120 50.04507 1149.78156 1162.80994 0.00086
3121 50.05807 1104.73073 1095.60986 0.00091
3122 50.07107 1071.33204 1049.76013 0.00095
3123 50.08407 1047.62837 1056.25000 0.00095
3124 50.09707 1031.54973 1056.25000 0.00095
3125 50.11007 1019.85714 1024.00000 0.00098
3126 50.12307 1007.49263 1030.40991 0.00097
3127 50.13607 995.09948 1030.40991 0.00097
3128 50.14907 984.88699 992.25000 0.00101
3129 50.16207 977.97807 998.56000 0.00100
3130 50.17507 977.53246 1030.40991 0.00097
3131 50.18807 986.80762 1036.84009 0.00096
3132 50.20107 1012.87280 1024.00000 0.00098
3133 50.21407 1053.97307 1036.84009 0.00096
3134 50.22707 1109.99466 1122.25000 0.00089
3135 50.24007 1180.17460 1190.25000 0.00084
3136 50.25307 1258.59594 1260.25000 0.00079
3137 50.26607 1323.88207 1346.89001 0.00074
3138 50.27907 1362.94832 1369.00000 0.00073
3139 50.29207 1367.81972 1376.40991 0.00073
3140 50.30507 1326.87470 1346.89001 0.00074
3141 50.31807 1264.17909 1274.49011 0.00078
3142 50.33107 1201.62748 1204.09009 0.00083
3143 50.34407 1147.28686 1162.80994 0.00086
3144 50.35707 1109.15720 1135.69006 0.00088
3145 50.37007 1091.48550 1102.23999 0.00091
3146 50.38307 1083.80818 1102.23999 0.00091
3147 50.39607 1081.64673 1108.88989 0.00090
3148 50.40907 1080.28686 1082.41016 0.00092
3149 50.42207 1068.71372 1095.60986 0.00091
3150 50.43507 1047.74074 1075.83997 0.00093
3151 50.44807 1020.08691 1004.89008 0.00100
3152 50.46107 988.26438 973.44006 0.00103
3153 50.47407 957.26944 961.00000 0.00104
3154 50.48707 931.26750 888.03998 0.00113
3155 50.50007 910.82454 918.08997 0.00109
3156 50.51307 896.57201 906.01001 0.00110
3157 50.52607 890.17017 906.01001 0.00110
3158 50.53907 892.04967 918.08997 0.00109
3159 50.55207 900.33980 882.09003 0.00113
3160 50.56507 914.46615 894.00995 0.00112
3161 50.57807 933.31687 961.00000 0.00104
3162 50.59107 951.60510 1017.60999 0.00098
3163 50.60407 966.09468 973.44006 0.00103
3164 50.61707 975.57134 1004.89008 0.00100
3165 50.63007 977.54600 998.56000 0.00100
3166 50.64307 974.11395 979.68994 0.00102
3167 50.65607 969.24887 992.25000 0.00101
3168 50.66907 959.16805 954.81000 0.00105
3169 50.68207 946.23739 998.56000 0.00100
3170 50.69507 933.14309 954.81000 0.00105
3171 50.70807 919.02336 936.36005 0.00107
3172 50.72107 907.16930 906.01001 0.00110
3173 50.73407 897.79067 888.03998 0.00113
3174 50.74707 888.81544 948.63995 0.00105
3175 50.76007 880.16428 954.81000 0.00105
3176 50.77307 872.31519 870.25000 0.00115
3177 50.78607 863.64094 806.56000 0.00124
3178 50.79907 854.41904 864.35999 0.00116
3179 50.81207 844.85649 817.96002 0.00122
3180 50.82507 833.86636 835.20996 0.00120
3181 50.83807 822.89468 846.81000 0.00118
3182 50.85107 812.66257 778.40997 0.00128
3183 50.86407 803.51258 789.61005 0.00127
3184 50.87707 795.81805 806.56000 0.00124
3185 50.89007 789.50898 789.61005 0.00127
3186 50.90307 784.40709 817.96002 0.00122
3187 50.91607 780.38114 767.29004 0.00130
3188 50.92907 777.32595 761.76001 0.00131
3189 50.94207 774.97612 806.56000 0.00124
3190 50.95507 773.13443 806.56000 0.00124
3191 50.96807 771.73725 784.00000 0.00128
3192 50.98107 770.70267 778.40997 0.00128
3193 50.99407 769.95275 767.29004 0.00130
3194 51.00707 769.43010 767.29004 0.00130
3195 51.02007 769.12620 750.75995 0.00133
3196 51.03307 769.01767 772.83997 0.00129
3197 51.04607 769.10972 767.29004 0.00130
3198 51.05907 769.36751 761.76001 0.00131
3199 51.07207 769.80173 795.24005 0.00126
3200 51.08507 770.42464 789.61005 0.00127
3201 51.09807 771.32191 778.40997 0.00128
3202 51.11107 772.48650 750.75995 0.00133
3203 51.12407 773.97007 795.24005 0.00126
3204 51.13707 775.83000 761.76001 0.00131
3205 51.15007 778.43747 767.29004 0.00130
3206 51.16307 781.85760 817.96002 0.00122
3207 51.17607 786.24735 784.00000 0.00128
3208 51.18907 791.78125 772.83997 0.00129
3209 51.20207 799.15593 784.00000 0.00128
3210 51.21507 808.23958 846.81000 0.00118
3211 51.22807 818.56564 876.16003 0.00114
3212 51.24107 829.76862 864.35999 0.00116
3213 51.25407 840.77218 870.25000 0.00115
3214 51.26707 850.35392 806.56000 0.00124
3215 51.28007 859.06579 841.00000 0.00119
3216 51.29307 867.83157 876.16003 0.00114
3217 51.30607 878.33702 906.01001 0.00110
3218 51.31907 894.49976 924.15997 0.00108
3219 51.33207 914.49545 906.01001 0.00110
3220 51.34507 936.67794 912.04004 0.00110
3221 51.35807 959.24096 979.68994 0.00102
3222 51.37107 974.91347 985.95996 0.00101
3223 51.38407 981.32556 967.21002 0.00103
3224 51.39707 979.30096 992.25000 0.00101
3225 51.41007 969.10066 998.56000 0.00100
3226 51.42307 951.28540 961.00000 0.00104
3227 51.43607 933.55891 924.15997 0.00108
3228 51.44907 917.85148 912.04004 0.00110
3229 51.46207 905.68975 930.25000 0.00107
3230 51.47507 899.02377 906.01001 0.00110
3231 51.48807 895.74536 900.00000 0.00111
3232 51.50107 893.72554 912.04004 0.00110
3233 51.51407 891.95466 900.00000 0.00111
3234 51.52707 888.97868 924.15997 0.00108
3235 51.54007 883.85221 942.49005 0.00106
3236 51.55307 877.78215 900.00000 0.00111
3237 51.56607 871.29915 870.25000 0.00115
3238 51.57907 865.08547 858.48993 0.00116
3239 51.59207 860.74133 864.35999 0.00116
3240 51.60507 858.52579 870.25000 0.00115
3241 51.61807 858.90196 846.81000 0.00118
3242 51.63107 862.09025 835.20996 0.00120
3243 51.64407 868.31839 864.35999 0.00116
3244 51.65707 877.57621 906.01001 0.00110
3245 51.67007 890.94188 918.08997 0.00109
3246 51.68307 907.87086 918.08997 0.00109
3247 51.69607 927.84332 985.95996 0.00101
3248 51.70907 950.47304 1011.23993 0.00099
3249 51.72207 975.12652 992.25000 0.00101
3250 51.73507 998.21078 1049.76013 0.00095
3251 51.74807 1020.43210 1049.76013 0.00095
3252 51.76107 1042.27814 1069.29004 0.00094
3253 51.77407 1065.71466 1095.60986 0.00091
3254 51.78707 1092.97756 1122.25000 0.00089
3255 51.80007 1128.16087 1162.80994 0.00086
3256 51.81307 1173.04935 1218.01013 0.00082
3257 51.82607 1235.05548 1303.20984 0.00077
3258 51.83907 1315.23673 1354.23999 0.00074
3259 51.85207 1413.14808 1466.88989 0.00068
3260 51.86507 1527.32985 1576.09009 0.00063
3261 51.87807 1652.30807 1640.25000 0.00061
3262 51.89107 1758.97814 1747.23999 0.00057
3263 51.90407 1831.74313 1823.29004 0.00055
3264 51.91707 1863.03074 1900.95984 0.00053
3265 51.93007 1844.60176 1883.56018 0.00053
3266 51.94307 1802.95841 1849.00000 0.00054
3267 51.95607 1780.91740 1831.83997 0.00055
3268 51.96907 1787.01845 1789.28992 0.00056
3269 51.98207 1823.01681 1780.84009 0.00056
3270 51.99507 1891.71431 1936.00000 0.00052
3271 52.00807 1961.84551 1980.25000 0.00050
3272 52.02107 1997.40480 2034.00989 0.00049
3273 52.03407 1994.68850 2007.03992 0.00050
3274 52.04707 1946.26335 1909.69006 0.00052
3275 52.06007 1858.01448 1831.83997 0.00055
3276 52.07307 1760.72387 1814.75989 0.00055
3277 52.08607 1668.10592 1730.55981 0.00058
3278 52.09907 1591.26574 1584.03992 0.00063
3279 52.11207 1538.80977 1459.24011 0.00069
3280 52.12507 1514.76396 1451.60986 0.00069
3281 52.13807 1511.50670 1505.43994 0.00066
3282 52.15107 1524.39341 1421.29004 0.00070
3283 52.16407 1551.48482 1560.25000 0.00064
3284 52.17707 1588.65326 1576.09009 0.00063
3285 52.19007 1639.77033 1648.35986 0.00061
3286 52.20307 1697.51850 1640.25000 0.00061
3287 52.21607 1755.39279 1697.44006 0.00059
3288 52.22907 1801.31903 1697.44006 0.00059
3289 52.24207 1797.25771 1697.44006 0.00059
3290 52.25507 1753.44454 1697.44006 0.00059
3291 52.26807 1678.13426 1600.00000 0.00063
3292 52.28107 1582.54679 1497.69006 0.00067
3293 52.29407 1494.20038 1482.25000 0.00067
3294 52.30707 1421.14521 1369.00000 0.00073
3295 52.32007 1366.74271 1260.25000 0.00079
3296 52.33307 1331.95947 1288.81006 0.00078
3297 52.34607 1316.65916 1190.25000 0.00084
3298 52.35907 1307.94536 1232.00989 0.00081
3299 52.37207 1298.70359 1239.04004 0.00081
3300 52.38507 1284.26284 1232.00989 0.00081
3301 52.39807 1259.65830 1218.01013 0.00082
3302 52.41107 1228.43693 1232.00989 0.00081
3303 52.42407 1196.78941 1176.48999 0.00085
3304 52.43707 1168.39371 1075.83997 0.00093
3305 52.45007 1148.23786 1115.56006 0.00090
3306 52.46307 1136.19919 1082.41016 0.00092
3307 52.47607 1128.83455 1062.75989 0.00094
3308 52.48907 1123.77926 1069.29004 0.00094
3309 52.50207 1111.17742 1069.29004 0.00094
3310 52.51507 1093.47677 1024.00000 0.00098
3311 52.52807 1073.53950 1075.83997 0.00093
3312 52.54107 1054.48164 1036.84009 0.00096
3313 52.55407 1040.19813 1030.40991 0.00097
3314 52.56707 1032.58588 1004.89008 0.00100
3315 52.58007 1028.69096 1043.28992 0.00096
3316 52.59307 1023.52650 1095.60986 0.00091
3317 52.60607 1017.28315 1004.89008 0.00100
3318 52.61907 1009.73798 985.95996 0.00101
3319 52.63207 1000.62512 973.44006 0.00103
3320 52.64507 991.60248 992.25000 0.00101
3321 52.65807 983.68400 961.00000 0.00104
3322 52.67107 978.23935 930.25000 0.00107
3323 52.68407 978.67289 967.21002 0.00103
3324 52.69707 985.36193 973.44006 0.00103
3325 52.71007 998.43343 973.44006 0.00103
3326 52.72307 1017.39699 1043.28992 0.00096
3327 52.73607 1042.90618 1075.83997 0.00093
3328 52.74907 1068.87240 1102.23999 0.00091
3329 52.76207 1091.96699 1149.21008 0.00087
3330 52.77507 1109.33086 1176.48999 0.00085
3331 52.78807 1109.61529 1149.21008 0.00087
3332 52.80107 1094.73086 1115.56006 0.00090
3333 52.81407 1072.00293 1082.41016 0.00092
3334 52.82707 1046.36330 1075.83997 0.00093
3335 52.84007 1025.28605 1062.75989 0.00094
3336 52.85307 1015.14110 1004.89008 0.00100
3337 52.86607 1014.91067 1011.23993 0.00099
3338 52.87907 1024.40133 1043.28992 0.00096
3339 52.89207 1043.37885 1049.76013 0.00095
3340 52.90507 1068.44837 1108.88989 0.00090
3341 52.91807 1093.04048 1149.21008 0.00087
3342 52.93107 1114.72698 1156.00000 0.00087
3343 52.94407 1130.97628 1162.80994 0.00086
3344 52.95707 1136.57928 1169.64001 0.00085
3345 52.97007 1138.34429 1156.00000 0.00087
3346 52.98307 1140.47770 1122.25000 0.00089
3347 52.99607 1143.43366 1142.43994 0.00088
3348 53.00907 1147.66100 1135.69006 0.00088
3349 53.02207 1161.02163 1149.21008 0.00087
3350 53.03507 1187.56628 1204.09009 0.00083
3351 53.04807 1222.17496 1267.35986 0.00079
3352 53.06107 1261.27751 1324.96008 0.00075
3353 53.07407 1297.17555 1332.25000 0.00075
3354 53.08707 1310.89310 1310.44006 0.00076
3355 53.10007 1299.21984 1246.08997 0.00080
3356 53.11307 1269.19271 1232.00989 0.00081
3357 53.12607 1224.87044 1253.16016 0.00080
3358 53.13907 1176.22470 1183.36011 0.00085
3359 53.15207 1135.43938 1128.95984 0.00089
3360 53.16507 1103.19275 1075.83997 0.00093
3361 53.17807 1082.10226 1089.00000 0.00092
3362 53.19107 1073.07817 1082.41016 0.00092
3363 53.20407 1071.96081 1043.28992 0.00096
3364 53.21707 1073.71664 1004.89008 0.00100
3365 53.23007 1077.51245 1075.83997 0.00093
3366 53.24307 1078.60696 1115.56006 0.00090
3367 53.25607 1073.33707 1115.56006 0.00090
3368 53.26907 1065.17051 1082.41016 0.00092
3369 53.28207 1052.33323 998.56000 0.00100
3370 53.29507 1034.61566 1049.76013 0.00095
3371 53.30807 1015.86009 1004.89008 0.00100
3372 53.32107 996.74797 998.56000 0.00100
3373 53.33407 978.33335 967.21002 0.00103
3374 53.34707 963.93236 930.25000 0.00107
3375 53.36007 954.92884 998.56000 0.00100
3376 53.37307 951.18309 1024.00000 0.00098
3377 53.38607 952.06467 942.49005 0.00106
3378 53.39907 955.78013 948.63995 0.00105
3379 53.41207 961.15376 979.68994 0.00102
3380 53.42507 968.20449 992.25000 0.00101
3381 53.43807 976.52756 1030.40991 0.00097
3382 53.45107 985.94013 967.21002 0.00103
3383 53.46407 996.97735 1011.23993 0.00099
3384 53.47707 1008.58127 1024.00000 0.00098
3385 53.49007 1019.76928 1017.60999 0.00098
3386 53.50307 1033.47157 998.56000 0.00100
3387 53.51607 1051.82442 1036.84009 0.00096
3388 53.52907 1078.18539 1075.83997 0.00093
3389 53.54207 1119.18723 1115.56006 0.00090
3390 53.55507 1180.71858 1162.80994 0.00086
3391 53.56807 1258.38694 1274.49011 0.00078
3392 53.58107 1349.35722 1267.35986 0.00079
3393 53.59407 1448.43926 1354.23999 0.00074
3394 53.60707 1528.67690 1474.56006 0.00068
3395 53.62007 1573.07115 1489.95984 0.00067
3396 53.63307 1576.45611 1568.15991 0.00064
3397 53.64607 1536.11964 1474.56006 0.00068
3398 53.65907 1462.06542 1482.25000 0.00067
3399 53.67207 1384.78964 1383.84009 0.00072
3400 53.68507 1314.28915 1239.04004 0.00081
3401 53.69807 1257.53731 1239.04004 0.00081
3402 53.71107 1220.76892 1176.48999 0.00085
3403 53.72407 1203.24214 1135.69006 0.00088
3404 53.73707 1195.04500 1135.69006 0.00088
3405 53.75007 1191.67807 1183.36011 0.00085
3406 53.76307 1187.10698 1176.48999 0.00085
3407 53.77607 1170.20545 1156.00000 0.00087
3408 53.78907 1144.27613 1142.43994 0.00088
3409 53.80207 1111.91392 1024.00000 0.00098
3410 53.81507 1075.85293 1036.84009 0.00096
3411 53.82807 1041.32461 998.56000 0.00100
3412 53.84107 1012.62740 973.44006 0.00103
3413 53.85407 992.20074 942.49005 0.00106
3414 53.86707 980.76595 930.25000 0.00107
3415 53.88007 979.30526 942.49005 0.00106
3416 53.89307 988.32288 961.00000 0.00104
3417 53.90607 1007.64459 967.21002 0.00103
3418 53.91907 1031.50288 979.68994 0.00102
3419 53.93207 1054.99221 998.56000 0.00100
3420 53.94507 1073.60131 1004.89008 0.00100
3421 53.95807 1074.44063 1036.84009 0.00096
3422 53.97107 1057.99862 992.25000 0.00101
3423 53.98407 1031.53094 948.63995 0.00105
3424 53.99707 999.59573 942.49005 0.00106
3425 54.01007 969.20030 918.08997 0.00109
3426 54.02307 946.32113 888.03998 0.00113
3427 54.03607 930.22505 882.09003 0.00113
3428 54.04907 920.50763 894.00995 0.00112
3429 54.06207 916.64771 888.03998 0.00113
3430 54.07507 915.85246 900.00000 0.00111
3431 54.08807 914.13031 888.03998 0.00113
3432 54.10107 910.00510 876.16003 0.00114
3433 54.11407 902.17204 870.25000 0.00115
3434 54.12707 889.06926 852.64001 0.00117
3435 54.14007 874.22764 870.25000 0.00115
3436 54.15307 858.82483 858.48993 0.00116
3437 54.16607 843.80682 806.56000 0.00124
3438 54.17907 830.69030 800.88995 0.00125
3439 54.19207 819.66268 784.00000 0.00128
3440 54.20507 810.47225 750.75995 0.00133
3441 54.21807 803.08738 739.84003 0.00135
3442 54.23107 797.58092 750.75995 0.00133
3443 54.24407 793.74767 778.40997 0.00128
3444 54.25707 791.17688 772.83997 0.00129
3445 54.27007 789.70899 789.61005 0.00127
3446 54.28307 789.22104 800.88995 0.00125
3447 54.29607 789.67094 789.61005 0.00127
3448 54.30907 790.52214 800.88995 0.00125
3449 54.32207 791.28868 778.40997 0.00128
3450 54.33507 791.64389 772.83997 0.00129
3451 54.34807 791.01998 812.25000 0.00123
3452 54.36107 789.02017 784.00000 0.00128
3453 54.37407 786.46377 761.76001 0.00131
3454 54.38707 783.68361 795.24005 0.00126
3455 54.40007 781.09881 806.56000 0.00124
3456 54.41307 779.17261 772.83997 0.00129
3457 54.42607 777.79177 784.00000 0.00128
3458 54.43907 776.91162 761.76001 0.00131
3459 54.45207 776.49771 734.41003 0.00136
3460 54.46507 776.37643 723.60999 0.00138
3461 54.47807 776.23999 756.25000 0.00132
3462 54.49107 776.00881 778.40997 0.00128
3463 54.50407 775.58466 761.76001 0.00131
3464 54.51707 774.86042 739.84003 0.00135
3465 54.53007 774.08270 772.83997 0.00129
3466 54.54307 773.36149 784.00000 0.00128
3467 54.55607 772.78227 772.83997 0.00129
3468 54.56907 772.49202 745.28998 0.00134
3469 54.58207 772.48852 772.83997 0.00129
3470 54.59507 772.80171 756.25000 0.00132
3471 54.60807 773.47857 739.84003 0.00135
3472 54.62107 774.52671 745.28998 0.00134
3473 54.63407 775.92748 795.24005 0.00126
3474 54.64707 777.66146 767.29004 0.00130
3475 54.66007 779.70162 761.76001 0.00131
3476 54.67307 781.85068 756.25000 0.00132
3477 54.68607 784.01888 778.40997 0.00128
3478 54.69907 786.09230 835.20996 0.00120
3479 54.71207 787.99666 823.69006 0.00121
3480 54.72507 790.15731 778.40997 0.00128
3481 54.73807 792.80974 761.76001 0.00131
3482 54.75107 796.18266 784.00000 0.00128
3483 54.76407 800.80261 829.43994 0.00121
3484 54.77707 807.33546 778.40997 0.00128
3485 54.79007 816.03076 806.56000 0.00124
3486 54.80307 827.39776 812.25000 0.00123
3487 54.81607 842.32979 823.69006 0.00121
3488 54.82907 863.11234 918.08997 0.00109
3489 54.84207 888.98893 870.25000 0.00115
3490 54.85507 919.97547 924.15997 0.00108
3491 54.86807 955.75955 924.15997 0.00108
3492 54.88107 993.80847 924.15997 0.00108
3493 54.89407 1026.63791 967.21002 0.00103
3494 54.90707 1050.61931 1017.60999 0.00098
3495 54.92007 1062.37635 1036.84009 0.00096
3496 54.93307 1056.39309 1102.23999 0.00091
3497 54.94607 1043.97242 1043.28992 0.00096
3498 54.95907 1034.56428 998.56000 0.00100
3499 54.97207 1032.65546 979.68994 0.00102
3500 54.98507 1041.76202 998.56000 0.00100
3501 54.99807 1061.42496 1030.40991 0.00097
3502 55.01107 1083.73198 1011.23993 0.00099
3503 55.02407 1094.03009 1069.29004 0.00094
3504 55.03707 1091.14634 1043.28992 0.00096
3505 55.05007 1074.22856 1049.76013 0.00095
3506 55.06307 1047.43689 998.56000 0.00100
3507 55.07607 1022.73431 992.25000 0.00101
3508 55.08907 1002.43094 992.25000 0.00101
3509 55.10207 987.26002 973.44006 0.00103
3510 55.11507 978.94583 967.21002 0.00103
3511 55.12807 978.60953 936.36005 0.00107
3512 55.14107 980.81615 961.00000 0.00104
3513 55.15407 981.02757 930.25000 0.00107
3514 55.16707 977.02127 906.01001 0.00110
3515 55.18007 962.39934 918.08997 0.00109
3516 55.19307 938.86575 894.00995 0.00112
3517 55.20607 913.08085 870.25000 0.00115
3518 55.21907 888.38473 835.20996 0.00120
3519 55.23207 868.06020 846.81000 0.00118
3520 55.24507 853.21667 852.64001 0.00117
3521 55.25807 842.98556 823.69006 0.00121
3522 55.27107 835.67086 817.96002 0.00122
3523 55.28407 830.30336 823.69006 0.00121
3524 55.29707 826.03691 812.25000 0.00123
3525 55.31007 821.26701 806.56000 0.00124
3526 55.32307 816.08958 823.69006 0.00121
3527 55.33607 810.65390 800.88995 0.00125
3528 55.34907 805.21185 761.76001 0.00131
3529 55.36207 800.02926 778.40997 0.00128
3530 55.37507 795.47780 772.83997 0.00129
3531 55.38807 791.54111 778.40997 0.00128
3532 55.40107 788.24487 800.88995 0.00125
3533 55.41407 785.63220 772.83997 0.00129
3534 55.42707 783.61184 784.00000 0.00128
3535 55.44007 782.02407 806.56000 0.00124
3536 55.45307 780.82188 745.28998 0.00134
3537 55.46607 779.97588 723.60999 0.00138
3538 55.47907 779.42974 761.76001 0.00131
3539 55.49207 779.09448 767.29004 0.00130
3540 55.50507 778.94794 756.25000 0.00132
3541 55.51807 778.98375 767.29004 0.00130
3542 55.53107 779.18952 772.83997 0.00129
3543 55.54407 779.53488 767.29004 0.00130
3544 55.55707 780.01521 778.40997 0.00128
3545 55.57007 780.64736 778.40997 0.00128
3546 55.58307 781.43665 784.00000 0.00128
3547 55.59607 782.38884 750.75995 0.00133
3548 55.60907 783.50059 723.60999 0.00138
3549 55.62207 784.79152 756.25000 0.00132
3550 55.63507 786.28177 767.29004 0.00130
3551 55.64807 787.99077 800.88995 0.00125
3552 55.66107 789.94785 789.61005 0.00127
3553 55.67407 792.20736 756.25000 0.00132
3554 55.68707 794.83873 761.76001 0.00131
3555 55.70007 797.87420 800.88995 0.00125
3556 55.71307 801.38829 795.24005 0.00126
3557 55.72607 805.48137 778.40997 0.00128
3558 55.73907 810.35802 789.61005 0.00127
3559 55.75207 816.19869 817.96002 0.00122
3560 55.76507 823.31922 800.88995 0.00125
3561 55.77807 832.08837 823.69006 0.00121
3562 55.79107 843.32790 864.35999 0.00116
3563 55.80407 857.97668 900.00000 0.00111
3564 55.81707 877.51933 864.35999 0.00116
3565 55.83007 903.10815 888.03998 0.00113
3566 55.84307 936.93378 906.01001 0.00110
3567 55.85607 981.49268 992.25000 0.00101
3568 55.86907 1038.44683 1082.41016 0.00092
3569 55.88207 1107.06721 1162.80994 0.00086
3570 55.89507 1184.88852 1281.63989 0.00078
3571 55.90807 1265.74351 1354.23999 0.00074
3572 55.92107 1338.27488 1398.76013 0.00071
3573 55.93407 1388.63939 1505.43994 0.00066
3574 55.94707 1406.15243 1528.80994 0.00065
3575 55.96007 1385.87882 1346.89001 0.00074
3576 55.97307 1337.98872 1324.96008 0.00075
3577 55.98607 1277.25014 1310.44006 0.00076
3578 55.99907 1219.09837 1204.09009 0.00083
3579 56.01207 1172.09106 1156.00000 0.00087
3580 56.02507 1140.09172 1169.64001 0.00085
3581 56.03807 1124.04597 1062.75989 0.00094
3582 56.05107 1119.26000 1128.95984 0.00089
3583 56.06407 1121.97062 1162.80994 0.00086
3584 56.07707 1126.58858 1149.21008 0.00087
3585 56.09007 1127.73134 1169.64001 0.00085
3586 56.10307 1121.83784 1197.15991 0.00084
3587 56.11607 1108.46992 1142.43994 0.00088
3588 56.12907 1089.02493 1089.00000 0.00092
3589 56.14207 1067.54645 998.56000 0.00100
3590 56.15507 1047.35493 973.44006 0.00103
3591 56.16807 1031.29736 954.81000 0.00105
3592 56.18107 1020.65249 930.25000 0.00107
3593 56.19407 1016.13825 979.68994 0.00102
3594 56.20707 1017.69463 979.68994 0.00102
3595 56.22007 1024.39568 961.00000 0.00104
3596 56.23307 1035.16675 992.25000 0.00101
3597 56.24607 1052.77857 1011.23993 0.00099
3598 56.25907 1075.32784 998.56000 0.00100
3599 56.27207 1100.85328 1102.23999 0.00091
3600 56.28507 1127.90864 1156.00000 0.00087
3601 56.29807 1150.23758 1122.25000 0.00089
3602 56.31107 1166.76903 1183.36011 0.00085
3603 56.32407 1184.36544 1183.36011 0.00085
3604 56.33707 1202.59017 1204.09009 0.00083
3605 56.35007 1222.19243 1169.64001 0.00085
3606 56.36307 1243.30323 1183.36011 0.00085
3607 56.37607 1252.91672 1197.15991 0.00084
3608 56.38907 1253.48614 1253.16016 0.00080
3609 56.40207 1244.09628 1190.25000 0.00084
3610 56.41507 1224.76473 1169.64001 0.00085
3611 56.42807 1198.90886 1122.25000 0.00089
3612 56.44107 1168.18628 1075.83997 0.00093
3613 56.45407 1135.33477 1102.23999 0.00091
3614 56.46707 1103.65827 1089.00000 0.00092
3615 56.48007 1077.68865 1017.60999 0.00098
3616 56.49307 1056.51716 992.25000 0.00101
3617 56.50607 1040.34352 967.21002 0.00103
3618 56.51907 1027.33198 998.56000 0.00100
3619 56.53207 1014.25068 979.68994 0.00102
3620 56.54507 999.94030 942.49005 0.00106
3621 56.55807 983.88068 954.81000 0.00105
3622 56.57107 965.50172 954.81000 0.00105
3623 56.58407 945.43298 906.01001 0.00110
3624 56.59707 924.84154 870.25000 0.00115
3625 56.61007 904.06119 870.25000 0.00115
3626 56.62307 884.98879 841.00000 0.00119
3627 56.63607 868.23637 823.69006 0.00121
3628 56.64907 853.95284 823.69006 0.00121
3629 56.66207 842.16370 841.00000 0.00119
3630 56.67507 832.49282 858.48993 0.00116
3631 56.68807 824.66790 829.43994 0.00121
3632 56.70107 818.37107 789.61005 0.00127
3633 56.71407 813.30971 789.61005 0.00127
3634 56.72707 809.06703 789.61005 0.00127
3635 56.74007 805.40388 784.00000 0.00128
3636 56.75307 802.29063 789.61005 0.00127
3637 56.76607 799.63264 778.40997 0.00128
3638 56.77907 797.33960 778.40997 0.00128
3639 56.79207 795.37138 778.40997 0.00128
3640 56.80507 793.72559 756.25000 0.00132
3641 56.81807 792.34044 778.40997 0.00128
3642 56.83107 791.19143 789.61005 0.00127
3643 56.84407 790.26246 795.24005 0.00126
3644 56.85707 789.54592 800.88995 0.00125
3645 56.87007 789.00027 784.00000 0.00128
3646 56.88307 788.60478 778.40997 0.00128
3647 56.89607 788.34949 750.75995 0.00133
3648 56.90907 788.24152 767.29004 0.00130
3649 56.92207 788.26579 795.24005 0.00126
3650 56.93507 788.42978 789.61005 0.00127
3651 56.94807 788.73171 795.24005 0.00126
3652 56.96107 789.17278 767.29004 0.00130
3653 56.97407 789.73757 789.61005 0.00127
3654 56.98707 790.42999 812.25000 0.00123
3655 57.00007 791.24300 800.88995 0.00125
3656 57.01307 792.17092 772.83997 0.00129
3657 57.02607 793.20750 778.40997 0.00128
3658 57.03907 794.45084 784.00000 0.00128
3659 57.05207 795.89543 800.88995 0.00125
3660 57.06507 797.60796 784.00000 0.00128
3661 57.07807 799.61173 829.43994 0.00121
3662 57.09107 802.03381 835.20996 0.00120
3663 57.10407 804.89501 812.25000 0.00123
3664 57.11707 808.36199 750.75995 0.00133
3665 57.13007 812.48621 750.75995 0.00133
3666 57.14307 817.63439 789.61005 0.00127
3667 57.15607 824.07513 817.96002 0.00122
3668 57.16907 832.41558 858.48993 0.00116
3669 57.18207 843.06241 870.25000 0.00115
3670 57.19507 857.25013 852.64001 0.00117
3671 57.20807 876.11648 858.48993 0.00116
3672 57.22107 900.91976 948.63995 0.00105
3673 57.23407 932.44262 888.03998 0.00113
3674 57.24707 971.76140 954.81000 0.00105
3675 57.26007 1018.64619 1049.76013 0.00095
3676 57.27307 1070.34739 1062.75989 0.00094
3677 57.28607 1121.89791 1128.95984 0.00089
3678 57.29907 1165.93128 1162.80994 0.00086
3679 57.31207 1190.94469 1169.64001 0.00085
3680 57.32507 1195.38943 1156.00000 0.00087
3681 57.33807 1179.02292 1169.64001 0.00085
3682 57.35107 1150.90754 1156.00000 0.00087
3683 57.36407 1120.86706 1142.43994 0.00088
3684 57.37707 1096.04084 1089.00000 0.00092
3685 57.39007 1080.08384 998.56000 0.00100
3686 57.40307 1072.46841 1075.83997 0.00093
3687 57.41607 1072.85301 1056.25000 0.00095
3688 57.42907 1074.10165 1062.75989 0.00094
3689 57.44207 1075.14772 1049.76013 0.00095
3690 57.45507 1072.50244 1056.25000 0.00095
3691 57.46807 1063.51472 1011.23993 0.00099
3692 57.48107 1049.35741 1069.29004 0.00094
3693 57.49407 1030.72124 1049.76013 0.00095
3694 57.50707 1010.03429 973.44006 0.00103
3695 57.52007 989.59953 930.25000 0.00107
3696 57.53307 971.69880 954.81000 0.00105
3697 57.54607 955.99753 924.15997 0.00108
3698 57.55907 942.37124 876.16003 0.00114
3699 57.57207 930.21923 894.00995 0.00112
3700 57.58507 917.92659 930.25000 0.00107
3701 57.59807 905.98165 912.04004 0.00110
3702 57.61107 894.67064 894.00995 0.00112
3703 57.62407 884.14804 882.09003 0.00113
3704 57.63707 875.20988 858.48993 0.00116
3705 57.65007 868.18549 835.20996 0.00120
3706 57.66307 862.97807 841.00000 0.00119
3707 57.67607 859.53015 870.25000 0.00115
3708 57.68907 857.98192 846.81000 0.00118
3709 57.70207 858.05403 858.48993 0.00116
3710 57.71507 859.01740 870.25000 0.00115
3711 57.72807 860.46250 876.16003 0.00114
3712 57.74107 862.03427 870.25000 0.00115
3713 57.75407 862.79225 864.35999 0.00116
3714 57.76707 863.13537 841.00000 0.00119
3715 57.78007 863.69045 864.35999 0.00116
3716 57.79307 865.18971 900.00000 0.00111
3717 57.80607 868.55935 888.03998 0.00113
3718 57.81907 874.87503 858.48993 0.00116
3719 57.83207 884.54949 852.64001 0.00117
3720 57.84507 898.78762 888.03998 0.00113
3721 57.85807 917.90934 924.15997 0.00108
3722 57.87107 943.15271 930.25000 0.00107
3723 57.88407 973.41958 973.44006 0.00103
3724 57.89707 1007.46173 1030.40991 0.00097
3725 57.91007 1042.45891 1062.75989 0.00094
3726 57.92307 1074.92378 1062.75989 0.00094
3727 57.93607 1099.46878 1075.83997 0.00093
3728 57.94907 1111.85151 1108.88989 0.00090
3729 57.96207 1113.11276 1122.25000 0.00089
3730 57.97507 1102.27461 1108.88989 0.00090
3731 57.98807 1088.11221 1082.41016 0.00092
3732 58.00107 1076.43931 1082.41016 0.00092
3733 58.01407 1070.77352 1089.00000 0.00092
3734 58.02707 1073.30353 1049.76013 0.00095
3735 58.04007 1084.43650 1049.76013 0.00095
3736 58.05307 1101.48815 1062.75989 0.00094
3737 58.06607 1121.59711 1082.41016 0.00092
3738 58.07907 1141.23658 1142.43994 0.00088
3739 58.09207 1158.38395 1169.64001 0.00085
3740 58.10507 1169.30199 1169.64001 0.00085
3741 58.11807 1172.97766 1176.48999 0.00085
3742 58.13107 1170.16896 1169.64001 0.00085
3743 58.14407 1160.57265 1142.43994 0.00088
3744 58.15707 1150.18602 1169.64001 0.00085
3745 58.17007 1147.11423 1162.80994 0.00086
3746 58.18307 1151.92031 1135.69006 0.00088
3747 58.19607 1165.66284 1122.25000 0.00089
3748 58.20907 1189.00264 1142.43994 0.00088
3749 58.22207 1215.18098 1190.25000 0.00084
3750 58.23507 1236.96858 1246.08997 0.00080
3751 58.24807 1249.97536 1253.16016 0.00080
3752 58.26107 1249.87536 1218.01013 0.00082
3753 58.27407 1227.72751 1204.09009 0.00083
3754 58.28707 1197.21944 1156.00000 0.00087
3755 58.30007 1163.07613 1115.56006 0.00090
3756 58.31307 1129.31863 1122.25000 0.00089
3757 58.32607 1103.46542 1095.60986 0.00091
3758 58.33907 1085.90319 1075.83997 0.00093
3759 58.35207 1074.70284 1056.25000 0.00095
3760 58.36507 1069.00506 1004.89008 0.00100
3761 58.37807 1067.24031 1030.40991 0.00097
3762 58.39107 1063.59675 1004.89008 0.00100
3763 58.40407 1056.96583 1017.60999 0.00098
3764 58.41707 1046.70722 1036.84009 0.00096
3765 58.43007 1030.80114 1043.28992 0.00096
3766 58.44307 1011.43097 979.68994 0.00102
3767 58.45607 991.77758 936.36005 0.00107
3768 58.46907 972.99835 998.56000 0.00100
3769 58.48207 956.68868 930.25000 0.00107
3770 58.49507 944.65846 900.00000 0.00111
3771 58.50807 936.02857 912.04004 0.00110
3772 58.52107 930.64154 882.09003 0.00113
3773 58.53407 928.58357 888.03998 0.00113
3774 58.54707 930.86103 906.01001 0.00110
3775 58.56007 936.69458 942.49005 0.00106
3776 58.57307 946.46299 876.16003 0.00114
3777 58.58607 960.52787 942.49005 0.00106
3778 58.59907 980.28485 985.95996 0.00101
3779 58.61207 1004.96237 967.21002 0.00103
3780 58.62507 1031.84009 1062.75989 0.00094
3781 58.63807 1058.77710 1017.60999 0.00098
3782 58.65107 1081.83193 1089.00000 0.00092
3783 58.66407 1092.43531 1095.60986 0.00091
3784 58.67707 1093.07580 1049.76013 0.00095
3785 58.69007 1086.47483 1056.25000 0.00095
3786 58.70307 1075.56714 1043.28992 0.00096
3787 58.71607 1067.47421 998.56000 0.00100
3788 58.72907 1066.34267 1089.00000 0.00092
3789 58.74207 1072.24543 1062.75989 0.00094
3790 58.75507 1084.48887 1036.84009 0.00096
3791 58.76807 1105.90318 1142.43994 0.00088
3792 58.78107 1133.40626 1115.56006 0.00090
3793 58.79407 1162.39950 1115.56006 0.00090
3794 58.80707 1190.18405 1122.25000 0.00089
3795 58.82007 1210.42204 1162.80994 0.00086
3796 58.83307 1211.57534 1108.88989 0.00090
3797 58.84607 1197.24832 1162.80994 0.00086
3798 58.85907 1170.39199 1122.25000 0.00089
3799 58.87207 1134.34259 1043.28992 0.00096
3800 58.88507 1097.79899 1024.00000 0.00098
3801 58.89807 1066.13764 1049.76013 0.00095
3802 58.91107 1040.09760 1017.60999 0.00098
3803 58.92407 1020.25235 998.56000 0.00100
3804 58.93707 1008.62402 948.63995 0.00105
3805 58.95007 1001.68095 930.25000 0.00107
3806 58.96307 997.54233 961.00000 0.00104
3807 58.97607 995.01795 961.00000 0.00104
3808 58.98907 991.65928 998.56000 0.00100
3809 59.00207 985.59579 992.25000 0.00101
3810 59.01507 977.56206 954.81000 0.00105
3811 59.02807 968.20691 912.04004 0.00110
3812 59.04107 958.53643 954.81000 0.00105
3813 59.05407 950.95057 948.63995 0.00105
3814 59.06707 947.00097 930.25000 0.00107
3815 59.08007 947.24191 961.00000 0.00104
3816 59.09307 952.59674 954.81000 0.00105
3817 59.10607 964.70306 961.00000 0.00104
3818 59.11907 983.98178 979.68994 0.00102
3819 59.13207 1009.07118 1004.89008 0.00100
3820 59.14507 1039.14624 1017.60999 0.00098
3821 59.15807 1074.18685 1075.83997 0.00093
3822 59.17107 1106.92149 1095.60986 0.00091
3823 59.18407 1134.09535 1135.69006 0.00088
3824 59.19707 1154.22136 1142.43994 0.00088
3825 59.21007 1165.76830 1162.80994 0.00086
3826 59.22307 1165.83669 1149.21008 0.00087
3827 59.23607 1159.26947 1162.80994 0.00086
3828 59.24907 1145.98719 1128.95984 0.00089
3829 59.26207 1122.54879 1115.56006 0.00090
3830 59.27507 1098.56922 1095.60986 0.00091
3831 59.28807 1076.25298 1082.41016 0.00092
3832 59.30107 1057.04330 1082.41016 0.00092
3833 59.31407 1043.81615 1056.25000 0.00095
3834 59.32707 1035.87462 1017.60999 0.00098
3835 59.34007 1030.34673 1004.89008 0.00100
3836 59.35307 1026.25116 1024.00000 0.00098
3837 59.36607 1023.26384 1017.60999 0.00098
3838 59.37907 1019.00221 1043.28992 0.00096
3839 59.39207 1013.32461 1036.84009 0.00096
3840 59.40507 1006.74424 1011.23993 0.00099
3841 59.41807 998.87394 1017.60999 0.00098
3842 59.43107 990.21774 1004.89008 0.00100
3843 59.44407 982.50291 1017.60999 0.00098
3844 59.45707 975.90329 979.68994 0.00102
3845 59.47007 970.70691 948.63995 0.00105
3846 59.48307 966.45501 924.15997 0.00108
3847 59.49607 962.49955 924.15997 0.00108
3848 59.50907 958.16413 967.21002 0.00103
3849 59.52207 953.10319 936.36005 0.00107
3850 59.53507 948.52884 918.08997 0.00109
3851 59.54807 946.14868 936.36005 0.00107
3852 59.56107 946.47409 948.63995 0.00105
3853 59.57407 950.30485 979.68994 0.00102
3854 59.58707 959.16220 979.68994 0.00102
3855 59.60007 973.61262 979.68994 0.00102
3856 59.61307 993.23640 1036.84009 0.00096
3857 59.62607 1018.27673 1056.25000 0.00095
3858 59.63907 1048.85966 1024.00000 0.00098
3859 59.65207 1084.26769 1069.29004 0.00094
3860 59.66507 1120.55660 1075.83997 0.00093
3861 59.67807 1155.87058 1128.95984 0.00089
3862 59.69107 1187.66359 1176.48999 0.00085
3863 59.70407 1207.85989 1246.08997 0.00080
3864 59.71707 1221.51396 1218.01013 0.00082
3865 59.73007 1235.31248 1211.03992 0.00083
3866 59.74307 1254.07829 1281.63989 0.00078
3867 59.75607 1284.02033 1310.44006 0.00076
3868 59.76907 1332.69371 1346.89001 0.00074
3869 59.78207 1402.76113 1369.00000 0.00073
3870 59.79507 1493.47048 1444.00000 0.00069
3871 59.80807 1599.22834 1624.08997 0.00062
3872 59.82107 1714.09641 1664.63989 0.00060
3873 59.83407 1820.27165 1772.40991 0.00056
3874 59.84707 1893.96534 1866.24011 0.00054
3875 59.86007 1935.90611 1936.00000 0.00052
3876 59.87307 1935.94027 1989.15991 0.00050
3877 59.88607 1901.29830 1840.41016 0.00054
3878 59.89907 1852.63802 1840.41016 0.00054
3879 59.91207 1798.90026 1689.20984 0.00059
3880 59.92507 1746.91837 1697.44006 0.00059
3881 59.93807 1704.49099 1656.49011 0.00060
3882 59.95107 1673.89238 1689.20984 0.00059
3883 59.96407 1652.25672 1624.08997 0.00062
3884 59.97707 1643.28954 1632.16016 0.00061
3885 59.99007 1643.64535 1664.63989 0.00060
3886 60.00307 1644.22088 1672.81018 0.00060
3887 60.01607 1639.79313 1584.03992 0.00063
3888 60.02907 1624.84190 1584.03992 0.00063
3889 60.04207 1593.50620 1552.36011 0.00064
3890 60.05507 1548.42753 1513.21008 0.00066
3891 60.06807 1492.88196 1459.24011 0.00069
3892 60.08107 1431.83786 1383.84009 0.00072
3893 60.09407 1370.69212 1354.23999 0.00074
3894 60.10707 1313.81574 1303.20984 0.00077
3895 60.12007 1263.19004 1232.00989 0.00081
3896 60.13307 1219.91520 1211.03992 0.00083
3897 60.14607 1185.13178 1115.56006 0.00090
3898 60.15907 1157.20671 1122.25000 0.00089
3899 60.17207 1136.57935 1108.88989 0.00090
3900 60.18507 1120.53250 1115.56006 0.00090
3901 60.19807 1107.56070 1089.00000 0.00092
3902 60.21107 1096.41862 1102.23999 0.00091
3903 60.22407 1086.14003 1082.41016 0.00092
3904 60.23707 1074.90573 1043.28992 0.00096
3905 60.25007 1062.35322 1043.28992 0.00096
3906 60.26307 1048.79654 1075.83997 0.00093
3907 60.27607 1034.15728 1017.60999 0.00098
3908 60.28907 1020.63196 985.95996 0.00101
3909 60.30207 1010.25162 998.56000 0.00100
3910 60.31507 1003.88392 998.56000 0.00100
3911 60.32807 1002.73263 992.25000 0.00101
3912 60.34107 1008.78298 1011.23993 0.00099
3913 60.35407 1021.74113 1089.00000 0.00092
3914 60.36707 1041.17632 1095.60986 0.00091
3915 60.38007 1066.98359 1062.75989 0.00094
3916 60.39307 1098.84220 1062.75989 0.00094
3917 60.40607 1132.48525 1135.69006 0.00088
3918 60.41907 1163.76460 1156.00000 0.00087
3919 60.43207 1189.26422 1142.43994 0.00088
3920 60.44507 1201.63981 1162.80994 0.00086
3921 60.45807 1201.80999 1218.01013 0.00082
3922 60.47107 1196.38852 1176.48999 0.00085
3923 60.48407 1189.62873 1190.25000 0.00084
3924 60.49707 1187.45422 1204.09009 0.00083
3925 60.51007 1196.37176 1204.09009 0.00083
3926 60.52307 1216.36030 1183.36011 0.00085
3927 60.53607 1245.15221 1239.04004 0.00081
3928 60.54907 1282.94664 1253.16016 0.00080
3929 60.56207 1328.49359 1288.81006 0.00078
3930 60.57507 1373.53542 1376.40991 0.00073
3931 60.58807 1416.72377 1413.75989 0.00071
3932 60.60107 1455.41022 1391.28992 0.00072
3933 60.61407 1477.13411 1436.41016 0.00070
3934 60.62707 1476.30008 1466.88989 0.00068
3935 60.64007 1455.38900 1451.60986 0.00069
3936 60.65307 1415.24681 1436.41016 0.00070
3937 60.66607 1360.28335 1369.00000 0.00073
3938 60.67907 1306.93210 1288.81006 0.00078
3939 60.69207 1259.76504 1267.35986 0.00079
3940 60.70507 1220.53982 1274.49011 0.00078
3941 60.71807 1192.60237 1211.03992 0.00083
3942 60.73107 1174.57824 1156.00000 0.00087
3943 60.74407 1161.71310 1128.95984 0.00089
3944 60.75707 1152.49150 1135.69006 0.00088
3945 60.77007 1145.35883 1169.64001 0.00085
3946 60.78307 1136.07158 1156.00000 0.00087
3947 60.79607 1122.88049 1115.56006 0.00090
3948 60.80907 1105.71267 1082.41016 0.00092
3949 60.82207 1084.24092 1108.88989 0.00090
3950 60.83507 1059.75211 1102.23999 0.00091
3951 60.84807 1035.63634 1069.29004 0.00094
3952 60.86107 1013.17602 1056.25000 0.00095
3953 60.87407 993.18143 992.25000 0.00101
3954 60.88707 977.24170 961.00000 0.00104
3955 60.90007 965.12305 979.68994 0.00102
3956 60.91307 956.44161 948.63995 0.00105
3957 60.92607 951.30642 954.81000 0.00105
3958 60.93907 950.69150 992.25000 0.00101
3959 60.95207 954.23906 936.36005 0.00107
3960 60.96507 961.82715 973.44006 0.00103
3961 60.97807 974.24935 1017.60999 0.00098
3962 60.99107 993.00679 1024.00000 0.00098
3963 61.00407 1017.41811 1089.00000 0.00092
3964 61.01707 1046.99247 1069.29004 0.00094
3965 61.03007 1081.07606 1115.56006 0.00090
3966 61.04307 1117.60294 1149.21008 0.00087
3967 61.05607 1155.28957 1183.36011 0.00085
3968 61.06907 1192.57890 1267.35986 0.00079
3969 61.08207 1228.06518 1260.25000 0.00079
3970 61.09507 1263.46651 1303.20984 0.00077
3971 61.10807 1297.83486 1274.49011 0.00078
3972 61.12107 1325.49282 1376.40991 0.00073
3973 61.13407 1343.40237 1421.29004 0.00070
3974 61.14707 1343.14871 1310.44006 0.00076
3975 61.16007 1320.67148 1303.20984 0.00077
3976 61.17307 1287.11032 1303.20984 0.00077
3977 61.18607 1247.20539 1225.00000 0.00082
3978 61.19907 1207.24422 1176.48999 0.00085
3979 61.21207 1173.94965 1142.43994 0.00088
3980 61.22507 1147.23946 1115.56006 0.00090
3981 61.23807 1126.66704 1128.95984 0.00089
3982 61.25107 1111.99431 1128.95984 0.00089
3983 61.26407 1103.32667 1108.88989 0.00090
3984 61.27707 1096.57624 1089.00000 0.00092
3985 61.29007 1090.21483 1128.95984 0.00089
3986 61.30307 1082.56977 1089.00000 0.00092
3987 61.31607 1069.52767 1082.41016 0.00092
3988 61.32907 1052.14859 1024.00000 0.00098
3989 61.34207 1031.35102 1075.83997 0.00093
3990 61.35507 1008.14920 979.68994 0.00102
3991 61.36807 984.53364 979.68994 0.00102
3992 61.38107 962.45833 961.00000 0.00104
3993 61.39407 942.30088 979.68994 0.00102
3994 61.40707 924.50977 942.49005 0.00106
3995 61.42007 910.09607 900.00000 0.00111
3996 61.43307 897.98322 954.81000 0.00105
3997 61.44607 887.89835 930.25000 0.00107
3998 61.45907 879.66721 954.81000 0.00105
3999 61.47207 873.49498 841.00000 0.00119
4000 61.48507 868.58982 864.35999 0.00116
4001 61.49807 864.71962 888.03998 0.00113
4002 61.51107 861.77008 806.56000 0.00124
4003 61.52407 859.78329 864.35999 0.00116
4004 61.53707 858.50481 894.00995 0.00112
4005 61.55007 857.83736 858.48993 0.00116
4006 61.56307 857.77127 870.25000 0.00115
4007 61.57607 858.38300 870.25000 0.00115
4008 61.58907 859.81136 888.03998 0.00113
4009 61.60207 862.12306 858.48993 0.00116
4010 61.61507 865.45173 882.09003 0.00113
4011 61.62807 870.04256 900.00000 0.00111
4012 61.64107 876.53642 900.00000 0.00111
4013 61.65407 885.45282 918.08997 0.00109
4014 61.66707 896.94862 924.15997 0.00108
4015 61.68007 911.38023 948.63995 0.00105
4016 61.69307 929.70547 961.00000 0.00104
4017 61.70607 952.08532 930.25000 0.00107
4018 61.71907 977.07179 979.68994 0.00102
4019 61.73207 1003.47283 1011.23993 0.00099
4020 61.74507 1030.07260 1030.40991 0.00097
4021 61.75807 1051.66665 1082.41016 0.00092
4022 61.77107 1066.77335 1115.56006 0.00090
4023 61.78407 1074.80647 1082.41016 0.00092
4024 61.79707 1074.15651 1069.29004 0.00094
4025 61.81007 1064.29390 1049.76013 0.00095
4026 61.82307 1048.84051 1075.83997 0.00093
4027 61.83607 1030.53483 1024.00000 0.00098
4028 61.84907 1011.09436 1004.89008 0.00100
4029 61.86207 994.55713 985.95996 0.00101
4030 61.87507 982.34326 954.81000 0.00105
4031 61.88807 973.75685 967.21002 0.00103
4032 61.90107 968.70698 985.95996 0.00101
4033 61.91407 966.69641 973.44006 0.00103
4034 61.92707 965.54713 979.68994 0.00102
4035 61.94007 964.03473 1004.89008 0.00100
4036 61.95307 961.57852 961.00000 0.00104
4037 61.96607 957.18329 954.81000 0.00105
4038 61.97907 950.28516 973.44006 0.00103
4039 61.99207 941.76084 942.49005 0.00106
4040 62.00507 932.13240 948.63995 0.00105
4041 62.01807 921.71077 936.36005 0.00107
4042 62.03107 911.85045 900.00000 0.00111
4043 62.04407 902.96322 918.08997 0.00109
4044 62.05707 895.26109 936.36005 0.00107
4045 62.07007 888.98536 924.15997 0.00108
4046 62.08307 884.34583 936.36005 0.00107
4047 62.09607 881.19075 906.01001 0.00110
4048 62.10907 879.52404 894.00995 0.00112
4049 62.12207 879.30536 900.00000 0.00111
4050 62.13507 880.59178 948.63995 0.00105
4051 62.14807 883.32545 930.25000 0.00107
4052 62.16107 888.03802 900.00000 0.00111
4053 62.17407 894.59208 918.08997 0.00109
4054 62.18707 903.04900 900.00000 0.00111
4055 62.20007 913.42978 924.15997 0.00108
4056 62.21307 925.92752 948.63995 0.00105
4057 62.22607 939.84865 967.21002 0.00103
4058 62.23907 954.37903 973.44006 0.00103
4059 62.25207 968.93276 1011.23993 0.00099
4060 62.26507 981.11628 998.56000 0.00100
4061 62.27807 992.64543 985.95996 0.00101
4062 62.29107 1005.41329 1030.40991 0.00097
4063 62.30407 1020.19401 1075.83997 0.00093
4064 62.31707 1038.58232 1082.41016 0.00092
4065 62.33007 1062.55296 1056.25000 0.00095
4066 62.34307 1091.43485 1089.00000 0.00092
4067 62.35607 1122.11075 1149.21008 0.00087
4068 62.36907 1152.18088 1156.00000 0.00087
4069 62.38207 1178.38907 1204.09009 0.00083
4070 62.39507 1191.26474 1218.01013 0.00082
4071 62.40807 1194.05930 1190.25000 0.00084
4072 62.42107 1190.42884 1197.15991 0.00084
4073 62.43407 1182.78887 1225.00000 0.00082
4074 62.44707 1176.18727 1156.00000 0.00087
4075 62.46007 1176.61017 1190.25000 0.00084
4076 62.47307 1184.05276 1149.21008 0.00087
4077 62.48607 1196.37474 1225.00000 0.00082
4078 62.49907 1211.76642 1239.04004 0.00081
4079 62.51207 1227.18800 1246.08997 0.00080
4080 62.52507 1231.63337 1232.00989 0.00081
4081 62.53807 1226.11729 1176.48999 0.00085
4082 62.55107 1211.64437 1253.16016 0.00080
4083 62.56407 1188.17397 1190.25000 0.00084
4084 62.57707 1159.68060 1162.80994 0.00086
4085 62.59007 1131.49684 1176.48999 0.00085
4086 62.60307 1104.87064 1082.41016 0.00092
4087 62.61607 1081.21238 1056.25000 0.00095
4088 62.62907 1062.73750 1043.28992 0.00096
4089 62.64207 1049.84310 1049.76013 0.00095
4090 62.65507 1040.56967 1036.84009 0.00096
4091 62.66807 1034.10218 1056.25000 0.00095
4092 62.68107 1029.76304 1115.56006 0.00090
4093 62.69407 1024.71444 1108.88989 0.00090
4094 62.70707 1018.46126 998.56000 0.00100
4095 62.72007 1011.21196 1049.76013 0.00095
4096 62.73307 1003.35837 1036.84009 0.00096
4097 62.74607 995.73605 973.44006 0.00103
4098 62.75907 990.30302 1043.28992 0.00096
4099 62.77207 987.74225 1004.89008 0.00100
4100 62.78507 988.73735 1011.23993 0.00099
4101 62.79807 994.11067 998.56000 0.00100
4102 62.81107 1006.43385 985.95996 0.00101
4103 62.82407 1024.83208 1102.23999 0.00091
4104 62.83707 1049.43404 1102.23999 0.00091
4105 62.85007 1080.34556 1082.41016 0.00092
4106 62.86307 1118.00075 1183.36011 0.00085
4107 62.87607 1158.57119 1253.16016 0.00080
4108 62.88907 1197.92369 1239.04004 0.00081
4109 62.90207 1232.75609 1332.25000 0.00075
4110 62.91507 1255.62381 1346.89001 0.00074
4111 62.92807 1265.17410 1317.68994 0.00076
4112 62.94107 1266.75323 1274.49011 0.00078
4113 62.95407 1262.07433 1246.08997 0.00080
4114 62.96707 1254.28043 1288.81006 0.00078
4115 62.98007 1245.31837 1303.20984 0.00077
4116 62.99307 1237.17241 1274.49011 0.00078
4117 63.00607 1231.36090 1253.16016 0.00080
4118 63.01907 1228.67236 1253.16016 0.00080
4119 63.03207 1231.38212 1296.00000 0.00077
4120 63.04507 1236.10535 1317.68994 0.00076
4121 63.05807 1239.69014 1288.81006 0.00078
4122 63.07107 1241.60741 1274.49011 0.00078
4123 63.08407 1239.98602 1324.96008 0.00075
4124 63.09707 1236.13592 1281.63989 0.00078
4125 63.11007 1233.50947 1218.01013 0.00082
4126 63.12307 1233.67636 1246.08997 0.00080
4127 63.13607 1237.85834 1274.49011 0.00078
4128 63.14907 1248.34973 1281.63989 0.00078
4129 63.16207 1265.10354 1310.44006 0.00076
4130 63.17507 1284.11476 1303.20984 0.00077
4131 63.18807 1302.98594 1288.81006 0.00078
4132 63.20107 1317.34808 1317.68994 0.00076
4133 63.21407 1317.10895 1346.89001 0.00074
4134 63.22707 1304.36633 1346.89001 0.00074
4135 63.24007 1280.81262 1354.23999 0.00074
4136 63.25307 1249.22176 1296.00000 0.00077
4137 63.26607 1215.13139 1176.48999 0.00085
4138 63.27907 1184.23607 1156.00000 0.00087
4139 63.29207 1157.78961 1156.00000 0.00087
4140 63.30507 1136.28208 1128.95984 0.00089
4141 63.31807 1122.49326 1128.95984 0.00089
4142 63.33107 1113.76984 1102.23999 0.00091
4143 63.34407 1109.31195 1095.60986 0.00091
4144 63.35707 1109.12757 1115.56006 0.00090
4145 63.37007 1111.80528 1128.95984 0.00089
4146 63.38307 1114.94661 1176.48999 0.00085
4147 63.39607 1118.17993 1197.15991 0.00084
4148 63.40907 1122.19397 1162.80994 0.00086
4149 63.42207 1126.50157 1162.80994 0.00086
4150 63.43507 1132.77901 1135.69006 0.00088
4151 63.44807 1142.42225 1135.69006 0.00088
4152 63.46107 1155.77784 1183.36011 0.00085
4153 63.47407 1172.72845 1218.01013 0.00082
4154 63.48707 1194.05845 1232.00989 0.00081
4155 63.50007 1220.09976 1246.08997 0.00080
4156 63.51307 1249.98469 1303.20984 0.00077
4157 63.52607 1280.93910 1332.25000 0.00075
4158 63.53907 1312.33461 1354.23999 0.00074
4159 63.55207 1341.13778 1391.28992 0.00072
4160 63.56507 1363.14997 1436.41016 0.00070
4161 63.57807 1375.25469 1398.76013 0.00071
4162 63.59107 1375.32639 1369.00000 0.00073
4163 63.60407 1362.14120 1339.55994 0.00075
4164 63.61707 1336.51625 1391.28992 0.00072
4165 63.63007 1306.15967 1369.00000 0.00073
4166 63.64307 1275.42650 1339.55994 0.00075
4167 63.65607 1249.12445 1332.25000 0.00075
4168 63.66907 1231.26339 1281.63989 0.00078
4169 63.68207 1222.40431 1176.48999 0.00085
4170 63.69507 1222.25449 1267.35986 0.00079
4171 63.70807 1231.44900 1296.00000 0.00077
4172 63.72107 1249.46571 1317.68994 0.00076
4173 63.73407 1272.99880 1324.96008 0.00075
4174 63.74707 1299.50223 1354.23999 0.00074
4175 63.76007 1327.54996 1376.40991 0.00073
4176 63.77307 1352.12541 1391.28992 0.00072
4177 63.78607 1367.22038 1428.83997 0.00070
4178 63.79907 1370.64887 1466.88989 0.00068
4179 63.81207 1359.96042 1436.41016 0.00070
4180 63.82507 1329.03322 1413.75989 0.00071
4181 63.83807 1290.16342 1267.35986 0.00079
4182 63.85107 1248.53238 1225.00000 0.00082
4183 63.86407 1208.17418 1204.09009 0.00083
4184 63.87707 1174.28676 1225.00000 0.00082
4185 63.89007 1148.63263 1135.69006 0.00088
4186 63.90307 1129.75668 1142.43994 0.00088
4187 63.91607 1117.10077 1142.43994 0.00088
4188 63.92907 1110.66288 1095.60986 0.00091
4189 63.94207 1108.15843 1149.21008 0.00087
4190 63.95507 1107.19029 1142.43994 0.00088
4191 63.96807 1106.97367 1183.36011 0.00085
4192 63.98107 1105.98126 1142.43994 0.00088
4193 63.99407 1101.96160 1183.36011 0.00085
4194 64.00707 1096.31943 1142.43994 0.00088
4195 64.02007 1089.12293 1089.00000 0.00092
4196 64.03307 1080.94369 1128.95984 0.00089
4197 64.04607 1073.22764 1128.95984 0.00089
4198 64.05907 1066.51483 1062.75989 0.00094
4199 64.07207 1061.48428 1108.88989 0.00090
4200 64.08507 1058.42318 1069.29004 0.00094
4201 64.09807 1057.78163 1049.76013 0.00095
4202 64.11107 1058.60664 1024.00000 0.00098
4203 64.12407 1060.35236 1102.23999 0.00091
4204 64.13707 1062.70432 1089.00000 0.00092
4205 64.15007 1065.39729 1122.25000 0.00089
4206 64.16307 1069.97049 1108.88989 0.00090
4207 64.17607 1077.26211 1062.75989 0.00094
4208 64.18907 1087.55010 1095.60986 0.00091
4209 64.20207 1101.66042 1128.95984 0.00089
4210 64.21507 1118.70060 1183.36011 0.00085
4211 64.22807 1138.00079 1128.95984 0.00089
4212 64.24107 1158.61335 1135.69006 0.00088
4213 64.25407 1178.70063 1183.36011 0.00085
4214 64.26707 1197.50256 1253.16016 0.00080
4215 64.28007 1218.12205 1260.25000 0.00079
4216 64.29307 1241.99707 1260.25000 0.00079
4217 64.30607 1269.62159 1253.16016 0.00080
4218 64.31907 1302.76652 1253.16016 0.00080
4219 64.33207 1342.95893 1281.63989 0.00078
4220 64.34507 1391.10954 1303.20984 0.00077
4221 64.35807 1444.15264 1376.40991 0.00073
4222 64.37107 1500.56600 1413.75989 0.00071
4223 64.38407 1557.37407 1466.88989 0.00068
4224 64.39707 1603.31051 1544.48999 0.00065
4225 64.41007 1635.96219 1568.15991 0.00064
4226 64.42307 1656.60040 1568.15991 0.00064
4227 64.43607 1663.97772 1584.03992 0.00063
4228 64.44907 1656.23389 1592.01013 0.00063
4229 64.46207 1643.42760 1600.00000 0.00063
4230 64.47507 1622.45339 1544.48999 0.00065
4231 64.48807 1594.28755 1560.25000 0.00064
4232 64.50107 1563.19661 1544.48999 0.00065
4233 64.51407 1533.29600 1497.69006 0.00067
4234 64.52707 1507.12409 1482.25000 0.00067
4235 64.54007 1486.92129 1489.95984 0.00067
4236 64.55307 1473.32194 1466.88989 0.00068
4237 64.56607 1464.13085 1413.75989 0.00071
4238 64.57907 1457.13747 1398.76013 0.00071
4239 64.59207 1453.08769 1428.83997 0.00070
4240 64.60507 1450.21266 1451.60986 0.00069
4241 64.61807 1445.86169 1451.60986 0.00069
4242 64.63107 1445.22299 1428.83997 0.00070
4243 64.64407 1450.45116 1421.29004 0.00070
4244 64.65707 1459.09548 1489.95984 0.00067
4245 64.67007 1472.13014 1536.64001 0.00065
4246 64.68307 1488.98742 1489.95984 0.00067
4247 64.69607 1506.68977 1466.88989 0.00068
4248 64.70907 1519.00494 1505.43994 0.00066
4249 64.72207 1522.94107 1536.64001 0.00065
4250 64.73507 1515.77012 1544.48999 0.00065
4251 64.74807 1492.33445 1528.80994 0.00065
4252 64.76107 1460.30472 1482.25000 0.00067
4253 64.77407 1430.65628 1466.88989 0.00068
4254 64.78707 1406.24185 1383.84009 0.00072
4255 64.80007 1391.16331 1324.96008 0.00075
4256 64.81307 1389.32845 1339.55994 0.00075
4257 64.82607 1396.62986 1346.89001 0.00074
4258 64.83907 1408.61301 1383.84009 0.00072
4259 64.85207 1422.64606 1451.60986 0.00069
4260 64.86507 1436.56108 1459.24011 0.00069
4261 64.87807 1441.15782 1428.83997 0.00070
4262 64.89107 1439.99513 1482.25000 0.00067
4263 64.90407 1434.89672 1552.36011 0.00064
4264 64.91707 1421.62722 1513.21008 0.00066
4265 64.93007 1402.99367 1459.24011 0.00069
4266 64.94307 1382.04731 1413.75989 0.00071
4267 64.95607 1359.01813 1398.76013 0.00071
4268 64.96907 1335.82462 1310.44006 0.00076
4269 64.98207 1318.49926 1391.28992 0.00072
4270 64.99507 1307.46484 1339.55994 0.00075
4271 65.00807 1302.22460 1281.63989 0.00078
4272 65.02107 1303.35300 1346.89001 0.00074
4273 65.03407 1307.84600 1281.63989 0.00078
4274 65.04707 1311.13868 1260.25000 0.00079
4275 65.06007 1313.66917 1296.00000 0.00077
4276 65.07307 1311.31295 1332.25000 0.00075
4277 65.08607 1302.16364 1324.96008 0.00075
4278 65.09907 1285.57548 1317.68994 0.00076
4279 65.11207 1260.65324 1361.61011 0.00073
4280 65.12507 1228.75447 1246.08997 0.00080
4281 65.13807 1195.82738 1190.25000 0.00084
4282 65.15107 1164.65909 1115.56006 0.00090
4283 65.16407 1136.77230 1115.56006 0.00090
4284 65.17707 1114.73052 1135.69006 0.00088
4285 65.19007 1097.78617 1122.25000 0.00089
4286 65.20307 1085.50033 1082.41016 0.00092
4287 65.21607 1077.28765 1043.28992 0.00096
4288 65.22907 1072.83688 1056.25000 0.00095
4289 65.24207 1069.99804 1142.43994 0.00088
4290 65.25507 1067.58110 1069.29004 0.00094
4291 65.26807 1064.74686 1089.00000 0.00092
4292 65.28107 1059.57447 1069.29004 0.00094
4293 65.29407 1052.65129 1062.75989 0.00094
4294 65.30707 1045.04246 1075.83997 0.00093
4295 65.32007 1037.02127 1069.29004 0.00094
4296 65.33307 1029.10393 1108.88989 0.00090
4297 65.34607 1022.31523 1069.29004 0.00094
4298 65.35907 1016.11021 992.25000 0.00101
4299 65.37207 1010.57555 1030.40991 0.00097
4300 65.38507 1006.68650 1030.40991 0.00097
4301 65.39807 1005.00336 998.56000 0.00100
4302 65.41107 1005.69499 1030.40991 0.00097
4303 65.42407 1008.85815 1017.60999 0.00098
4304 65.43707 1014.19031 973.44006 0.00103
4305 65.45007 1020.87315 1056.25000 0.00095
4306 65.46307 1029.93316 1043.28992 0.00096
4307 65.47607 1040.94124 1030.40991 0.00097
4308 65.48907 1053.48104 1056.25000 0.00095
4309 65.50207 1067.53620 1062.75989 0.00094
4310 65.51507 1081.75385 1082.41016 0.00092
4311 65.52807 1092.35225 1082.41016 0.00092
4312 65.54107 1097.34907 1108.88989 0.00090
4313 65.55407 1095.64840 1128.95984 0.00089
4314 65.56707 1085.47318 1056.25000 0.00095
4315 65.58007 1069.00893 1069.29004 0.00094
4316 65.59307 1050.87335 1089.00000 0.00092
4317 65.60607 1032.83653 1030.40991 0.00097
4318 65.61907 1016.33909 1030.40991 0.00097
4319 65.63207 1003.56218 1011.23993 0.00099
4320 65.64507 993.72244 1024.00000 0.00098
4321 65.65807 986.57056 1004.89008 0.00100
4322 65.67107 981.90452 1036.84009 0.00096
4323 65.68407 979.75949 985.95996 0.00101
4324 65.69707 978.60082 992.25000 0.00101
4325 65.71007 977.54269 992.25000 0.00101
4326 65.72307 975.93456 1011.23993 0.00099
4327 65.73607 972.67474 1017.60999 0.00098
4328 65.74907 967.27937 985.95996 0.00101
4329 65.76207 960.65515 992.25000 0.00101
4330 65.77507 953.28718 985.95996 0.00101
4331 65.78807 945.68398 985.95996 0.00101
4332 65.80107 938.74312 930.25000 0.00107
4333 65.81407 932.89591 936.36005 0.00107
4334 65.82707 928.62217 954.81000 0.00105
4335 65.84007 925.98697 930.25000 0.00107
4336 65.85307 925.37236 918.08997 0.00109
4337 65.86607 926.58789 942.49005 0.00106
4338 65.87907 930.01969 936.36005 0.00107
4339 65.89207 935.33496 942.49005 0.00106
4340 65.90507 942.20806 973.44006 0.00103
4341 65.91807 950.19685 1004.89008 0.00100
4342 65.93107 958.34807 1004.89008 0.00100
4343 65.94407 964.83275 998.56000 0.00100
4344 65.95707 968.85860 992.25000 0.00101
4345 65.97007 970.00441 961.00000 0.00104
4346 65.98307 967.50997 954.81000 0.00105
4347 65.99607 962.56430 954.81000 0.00105
4348 66.00907 957.31724 954.81000 0.00105
4349 66.02207 952.72340 961.00000 0.00104
4350 66.03507 949.94318 992.25000 0.00101
4351 66.04807 950.01279 998.56000 0.00100
4352 66.06107 952.69755 948.63995 0.00105
4353 66.07407 958.21313 973.44006 0.00103
4354 66.08707 967.01427 1004.89008 0.00100
4355 66.10007 978.78093 1043.28992 0.00096
4356 66.11307 992.39921 1030.40991 0.00097
4357 66.12607 1007.08393 1004.89008 0.00100
4358 66.13907 1021.32061 1049.76013 0.00095
4359 66.15207 1032.68207 1056.25000 0.00095
4360 66.16507 1039.96049 1056.25000 0.00095
4361 66.17807 1042.09446 1069.29004 0.00094
4362 66.19107 1038.05973 1030.40991 0.00097
4363 66.20407 1029.92531 1017.60999 0.00098
4364 66.21707 1019.12989 1030.40991 0.00097
4365 66.23007 1007.82972 992.25000 0.00101
4366 66.24307 997.83473 1017.60999 0.00098
4367 66.25607 990.52404 1036.84009 0.00096
4368 66.26907 986.30224 1024.00000 0.00098
4369 66.28207 985.43979 973.44006 0.00103
4370 66.29507 988.12597 992.25000 0.00101
4371 66.30807 994.67464 1004.89008 0.00100
4372 66.32107 1004.56161 1004.89008 0.00100
4373 66.33407 1017.45631 1043.28992 0.00096
4374 66.34707 1032.78570 1062.75989 0.00094
4375 66.36007 1050.55620 1108.88989 0.00090
4376 66.37307 1070.51319 1089.00000 0.00092
4377 66.38607 1091.85335 1122.25000 0.00089
4378 66.39907 1113.90381 1142.43994 0.00088
4379 66.41207 1136.10779 1156.00000 0.00087
4380 66.42507 1155.67128 1162.80994 0.00086
4381 66.43807 1174.61217 1218.01013 0.00082
4382 66.45107 1192.85109 1204.09009 0.00083
4383 66.46407 1210.94868 1204.09009 0.00083
4384 66.47707 1228.61263 1232.00989 0.00081
4385 66.49007 1243.67398 1288.81006 0.00078
4386 66.50307 1253.27182 1239.04004 0.00081
4387 66.51607 1254.86913 1310.44006 0.00076
4388 66.52907 1247.29278 1253.16016 0.00080
4389 66.54207 1232.31600 1267.35986 0.00079
4390 66.55507 1213.28647 1267.35986 0.00079
4391 66.56807 1192.61605 1267.35986 0.00079
4392 66.58107 1173.79104 1183.36011 0.00085
4393 66.59407 1157.24538 1176.48999 0.00085
4394 66.60707 1143.40300 1183.36011 0.00085
4395 66.62007 1131.83034 1183.36011 0.00085
4396 66.63307 1122.56848 1095.60986 0.00091
4397 66.64607 1114.35023 1142.43994 0.00088
4398 66.65907 1107.53274 1108.88989 0.00090
4399 66.67207 1101.07760 1089.00000 0.00092
4400 66.68507 1093.70421 1075.83997 0.00093
4401 66.69807 1084.39349 1102.23999 0.00091
4402 66.71107 1072.73503 1169.64001 0.00085
4403 66.72407 1058.89583 1049.76013 0.00095
4404 66.73707 1043.25878 1030.40991 0.00097
4405 66.75007 1027.04581 1011.23993 0.00099
4406 66.76307 1011.23012 1030.40991 0.00097
4407 66.77607 996.24091 1004.89008 0.00100
4408 66.78907 982.38164 948.63995 0.00105
4409 66.80207 970.07708 948.63995 0.00105
4410 66.81507 959.08342 973.44006 0.00103
4411 66.82807 949.49294 967.21002 0.00103
4412 66.84107 941.16406 930.25000 0.00107
4413 66.85407 934.02677 930.25000 0.00107
4414 66.86707 927.98021 918.08997 0.00109
4415 66.88007 922.92109 942.49005 0.00106
4416 66.89307 918.60785 906.01001 0.00110
4417 66.90607 914.95297 918.08997 0.00109
4418 66.91907 911.85724 942.49005 0.00106
4419 66.93207 909.15513 924.15997 0.00108
4420 66.94507 906.64445 912.04004 0.00110
4421 66.95807 904.24274 894.00995 0.00112
4422 66.97107 901.77126 906.01001 0.00110
4423 66.98407 899.39534 906.01001 0.00110
4424 66.99707 897.22382 918.08997 0.00109
4425 67.01007 895.30572 912.04004 0.00110
4426 67.02307 893.75622 906.01001 0.00110
4427 67.03607 892.61139 912.04004 0.00110
4428 67.04907 891.85001 924.15997 0.00108
4429 67.06207 891.43939 894.00995 0.00112
4430 67.07507 891.40310 870.25000 0.00115
4431 67.08807 891.70016 894.00995 0.00112
4432 67.10107 892.30569 888.03998 0.00113
4433 67.11407 893.20288 858.48993 0.00116
4434 67.12707 894.37059 936.36005 0.00107
4435 67.14007 895.75583 954.81000 0.00105
4436 67.15307 897.46203 936.36005 0.00107
4437 67.16607 899.60180 936.36005 0.00107
4438 67.17907 902.14333 930.25000 0.00107
4439 67.19207 905.12886 948.63995 0.00105
4440 67.20507 908.63080 930.25000 0.00107
4441 67.21807 912.66197 924.15997 0.00108
4442 67.23107 916.85491 954.81000 0.00105
4443 67.24407 920.99950 948.63995 0.00105
4444 67.25707 924.81829 961.00000 0.00104
4445 67.27007 927.61013 979.68994 0.00102
4446 67.28307 929.51676 954.81000 0.00105
4447 67.29607 931.00149 954.81000 0.00105
4448 67.30907 932.36593 973.44006 0.00103
4449 67.32207 934.19963 961.00000 0.00104
4450 67.33507 937.21721 967.21002 0.00103
4451 67.34807 941.72753 967.21002 0.00103
4452 67.36107 948.08033 967.21002 0.00103
4453 67.37407 956.79040 961.00000 0.00104
4454 67.38707 968.70050 930.25000 0.00107
4455 67.40007 983.70739 973.44006 0.00103
4456 67.41307 1002.45172 979.68994 0.00102
4457 67.42607 1025.20023 992.25000 0.00101
4458 67.43907 1052.71739 1036.84009 0.00096
4459 67.45207 1083.84538 1128.95984 0.00089
4460 67.46507 1118.56489 1122.25000 0.00089
4461 67.47807 1155.54152 1128.95984 0.00089
4462 67.49107 1190.33863 1204.09009 0.00083
4463 67.50407 1221.21641 1190.25000 0.00084
4464 67.51707 1248.25011 1183.36011 0.00085
4465 67.53007 1268.71102 1246.08997 0.00080
4466 67.54307 1282.15260 1232.00989 0.00081
4467 67.55607 1292.76582 1253.16016 0.00080
4468 67.56907 1300.27697 1296.00000 0.00077
4469 67.58207 1303.26083 1354.23999 0.00074
4470 67.59507 1303.87411 1317.68994 0.00076
4471 67.60807 1301.92477 1303.20984 0.00077
4472 67.62107 1292.90349 1346.89001 0.00074
4473 67.63407 1280.69943 1288.81006 0.00078
4474 67.64707 1267.58410 1303.20984 0.00077
4475 67.66007 1254.00739 1253.16016 0.00080
4476 67.67307 1241.00378 1246.08997 0.00080
4477 67.68607 1231.27650 1288.81006 0.00078
4478 67.69907 1223.56586 1288.81006 0.00078
4479 67.71207 1216.03063 1260.25000 0.00079
4480 67.72507 1209.67686 1239.04004 0.00081
4481 67.73807 1203.88682 1204.09009 0.00083
4482 67.75107 1197.09176 1156.00000 0.00087
4483 67.76407 1189.50529 1156.00000 0.00087
4484 67.77707 1182.16827 1156.00000 0.00087
4485 67.79007 1173.42598 1211.03992 0.00083
4486 67.80307 1163.65101 1135.69006 0.00088
4487 67.81607 1153.42381 1162.80994 0.00086
4488 67.82907 1142.74103 1122.25000 0.00089
4489 67.84207 1132.31506 1102.23999 0.00091
4490 67.85507 1123.59315 1197.15991 0.00084
4491 67.86807 1117.01329 1122.25000 0.00089
4492 67.88107 1113.01944 1135.69006 0.00088
4493 67.89407 1113.00293 1108.88989 0.00090
4494 67.90707 1117.81701 1075.83997 0.00093
4495 67.92007 1126.86823 1135.69006 0.00088
4496 67.93307 1139.86392 1176.48999 0.00085
4497 67.94607 1156.65096 1204.09009 0.00083
4498 67.95907 1176.26171 1149.21008 0.00087
4499 67.97207 1194.95013 1190.25000 0.00084
4500 67.98507 1209.90004 1162.80994 0.00086
4501 67.99807 1219.48994 1232.00989 0.00081
4502 68.01107 1217.04613 1204.09009 0.00083
4503 68.02407 1203.97936 1225.00000 0.00082
4504 68.03707 1183.65523 1197.15991 0.00084
4505 68.05007 1158.34904 1149.21008 0.00087
4506 68.06307 1131.20031 1122.25000 0.00089
4507 68.07607 1106.54249 1075.83997 0.00093
4508 68.08907 1085.56714 1030.40991 0.00097
4509 68.10207 1068.79415 1017.60999 0.00098
4510 68.11507 1056.47295 1043.28992 0.00096
4511 68.12807 1049.44445 1069.29004 0.00094
4512 68.14107 1045.49906 1095.60986 0.00091
4513 68.15407 1043.66857 1036.84009 0.00096
4514 68.16707 1043.11702 1056.25000 0.00095
4515 68.18007 1042.40330 1024.00000 0.00098
4516 68.19307 1039.81361 979.68994 0.00102
4517 68.20607 1034.86644 1036.84009 0.00096
4518 68.21907 1027.45814 1017.60999 0.00098
4519 68.23207 1017.37186 1036.84009 0.00096
4520 68.24507 1005.54658 1011.23993 0.00099
4521 68.25807 993.37557 1004.89008 0.00100
4522 68.27107 981.42104 998.56000 0.00100
4523 68.28407 970.14155 967.21002 0.00103
4524 68.29707 960.31447 936.36005 0.00107
4525 68.31007 951.81898 973.44006 0.00103
4526 68.32307 944.63747 979.68994 0.00102
4527 68.33607 938.70899 973.44006 0.00103
4528 68.34907 934.17700 942.49005 0.00106
4529 68.36207 930.79603 930.25000 0.00107
4530 68.37507 928.32355 912.04004 0.00110
4531 68.38807 926.67746 894.00995 0.00112
4532 68.40107 925.76409 894.00995 0.00112
4533 68.41407 925.53184 942.49005 0.00106
4534 68.42707 925.78694 973.44006 0.00103
4535 68.44007 926.57466 961.00000 0.00104
4536 68.45307 927.79818 930.25000 0.00107
4537 68.46607 929.47003 912.04004 0.00110
4538 68.47907 931.49649 912.04004 0.00110
4539 68.49207 934.21644 924.15997 0.00108
4540 68.50507 937.68134 930.25000 0.00107
4541 68.51807 942.08564 930.25000 0.00107
4542 68.53107 947.78127 961.00000 0.00104
4543 68.54407 955.68923 961.00000 0.00104
4544 68.55707 966.15166 954.81000 0.00105
4545 68.57007 979.43641 985.95996 0.00101
4546 68.58307 996.10828 992.25000 0.00101
4547 68.59607 1017.56203 1030.40991 0.00097
4548 68.60907 1044.09877 1095.60986 0.00091
4549 68.62207 1075.01489 1149.21008 0.00087
4550 68.63507 1110.14931 1142.43994 0.00088
4551 68.64807 1149.09339 1176.48999 0.00085
4552 68.66107 1187.69328 1232.00989 0.00081
4553 68.67407 1221.89397 1232.00989 0.00081
4554 68.68707 1248.66203 1288.81006 0.00078
4555 68.70007 1262.32225 1317.68994 0.00076
4556 68.71307 1257.91733 1317.68994 0.00076
4557 68.72607 1242.77852 1296.00000 0.00077
4558 68.73907 1219.47873 1253.16016 0.00080
4559 68.75207 1190.84475 1162.80994 0.00086
4560 68.76507 1163.87896 1075.83997 0.00093
4561 68.77807 1140.28034 1082.41016 0.00092
4562 68.79107 1120.53409 1089.00000 0.00092
4563 68.80407 1105.88075 1102.23999 0.00091
4564 68.81707 1097.58273 1095.60986 0.00091
4565 68.83007 1093.36718 1115.56006 0.00090
4566 68.84307 1092.43075 1115.56006 0.00090
4567 68.85607 1094.36689 1128.95984 0.00089
4568 68.86907 1097.36026 1095.60986 0.00091
4569 68.88207 1099.11577 1089.00000 0.00092
4570 68.89507 1099.17554 1082.41016 0.00092
4571 68.90807 1096.95525 1075.83997 0.00093
4572 68.92107 1091.88680 1115.56006 0.00090
4573 68.93407 1085.29488 1089.00000 0.00092
4574 68.94707 1078.62922 1082.41016 0.00092
4575 68.96007 1072.73293 1056.25000 0.00095
4576 68.97307 1068.60368 1049.76013 0.00095
4577 68.98607 1066.53967 1056.25000 0.00095
4578 68.99907 1065.91784 1056.25000 0.00095
4579 69.01207 1066.75967 1102.23999 0.00091
4580 69.02507 1068.70699 1049.76013 0.00095
4581 69.03807 1070.66446 1049.76013 0.00095
4582 69.05107 1072.79328 1043.28992 0.00096
4583 69.06407 1074.92856 1049.76013 0.00095
4584 69.07707 1075.29761 1075.83997 0.00093
4585 69.09007 1074.02443 1108.88989 0.00090
4586 69.10307 1070.82948 1115.56006 0.00090
4587 69.11607 1065.72264 1030.40991 0.00097
4588 69.12907 1059.16508 1049.76013 0.00095
4589 69.14207 1054.33988 1043.28992 0.00096
4590 69.15507 1051.76039 1062.75989 0.00094
4591 69.16807 1051.83904 1030.40991 0.00097
4592 69.18107 1055.37109 1108.88989 0.00090
4593 69.19407 1062.12610 1011.23993 0.00099
4594 69.20707 1070.09771 1036.84009 0.00096
4595 69.22007 1078.16345 1082.41016 0.00092
4596 69.23307 1085.23056 1108.88989 0.00090
4597 69.24607 1087.73392 1095.60986 0.00091
4598 69.25907 1085.94253 1043.28992 0.00096
4599 69.27207 1080.56278 1102.23999 0.00091
4600 69.28507 1072.08142 1036.84009 0.00096
4601 69.29807 1061.19913 1011.23993 0.00099
4602 69.31107 1050.18515 979.68994 0.00102
4603 69.32407 1039.80716 1082.41016 0.00092
4604 69.33707 1030.57367 1069.29004 0.00094
4605 69.35007 1023.49269 967.21002 0.00103
4606 69.36307 1019.03722 985.95996 0.00101
4607 69.37607 1016.91345 1043.28992 0.00096
4608 69.38907 1017.04255 1011.23993 0.00099
4609 69.40207 1019.70381 1024.00000 0.00098
4610 69.41507 1024.36537 1075.83997 0.00093
4611 69.42807 1030.52077 1036.84009 0.00096
4612 69.44107 1037.88145 1024.00000 0.00098
4613 69.45407 1046.81912 1036.84009 0.00096
4614 69.46707 1056.63488 1089.00000 0.00092
4615 69.48007 1067.64198 1049.76013 0.00095
4616 69.49307 1079.49889 1024.00000 0.00098
4617 69.50607 1091.88980 1069.29004 0.00094
4618 69.51907 1102.81646 1102.23999 0.00091
4619 69.53207 1112.31301 1095.60986 0.00091
4620 69.54507 1119.61732 1102.23999 0.00091
4621 69.55807 1123.95313 1102.23999 0.00091
4622 69.57107 1124.77098 1115.56006 0.00090
4623 69.58407 1121.92110 1128.95984 0.00089
4624 69.59707 1115.78792 1102.23999 0.00091
4625 69.61007 1106.34400 1122.25000 0.00089
4626 69.62307 1096.01978 1056.25000 0.00095
4627 69.63607 1086.16042 1115.56006 0.00090
4628 69.64907 1077.66463 1135.69006 0.00088
4629 69.66207 1071.07632 1075.83997 0.00093
4630 69.67507 1067.01068 1069.29004 0.00094
4631 69.68807 1064.92737 1056.25000 0.00095
4632 69.70107 1064.49761 1017.60999 0.00098
4633 69.71407 1065.15145 1075.83997 0.00093
4634 69.72707 1065.63000 1089.00000 0.00092
4635 69.74007 1064.93175 1089.00000 0.00092
4636 69.75307 1062.54873 1082.41016 0.00092
4637 69.76607 1058.25219 1062.75989 0.00094
4638 69.77907 1051.56675 1089.00000 0.00092
4639 69.79207 1043.79051 1089.00000 0.00092
4640 69.80507 1035.35019 1049.76013 0.00095
4641 69.81807 1026.92127 1024.00000 0.00098
4642 69.83107 1019.07209 1024.00000 0.00098
4643 69.84407 1012.48501 1011.23993 0.00099
4644 69.85707 1007.14798 985.95996 0.00101
4645 69.87007 1003.16493 992.25000 0.00101
4646 69.88307 1000.58556 998.56000 0.00100
4647 69.89607 999.20633 1011.23993 0.00099
4648 69.90907 998.46025 992.25000 0.00101
4649 69.92207 998.20780 973.44006 0.00103
4650 69.93507 998.35100 1011.23993 0.00099
4651 69.94807 998.30235 1011.23993 0.00099
4652 69.96107 998.67791 1011.23993 0.00099
4653 69.97407 1000.02065 998.56000 0.00100
4654 69.98707 1003.13342 992.25000 0.00101
4655 70.00007 1008.15499 948.63995 0.00105
4656 70.01307 1015.34408 992.25000 0.00101
4657 70.02607 1024.79820 1030.40991 0.00097
4658 70.03907 1036.53239 1043.28992 0.00096
4659 70.05207 1049.44664 1069.29004 0.00094
4660 70.06507 1062.51623 1095.60986 0.00091
4661 70.07807 1074.68017 1142.43994 0.00088
4662 70.09107 1083.42064 1089.00000 0.00092
4663 70.10407 1089.75444 1142.43994 0.00088
4664 70.11707 1094.61584 1142.43994 0.00088
4665 70.13007 1098.95760 1128.95984 0.00089
4666 70.14307 1104.22785 1102.23999 0.00091
4667 70.15607 1113.17579 1095.60986 0.00091
4668 70.16907 1125.26095 1102.23999 0.00091
4669 70.18207 1139.82404 1102.23999 0.00091
4670 70.19507 1156.18085 1156.00000 0.00087
4671 70.20807 1171.87647 1142.43994 0.00088
4672 70.22107 1182.83166 1204.09009 0.00083
4673 70.23407 1188.23049 1211.03992 0.00083
4674 70.24707 1187.45210 1232.00989 0.00081
4675 70.26007 1179.64397 1232.00989 0.00081
4676 70.27307 1166.19868 1232.00989 0.00081
4677 70.28607 1150.77838 1169.64001 0.00085
4678 70.29907 1134.74357 1197.15991 0.00084
4679 70.31207 1119.15422 1142.43994 0.00088
4680 70.32507 1106.56675 1089.00000 0.00092
4681 70.33807 1097.02271 1089.00000 0.00092
4682 70.35107 1090.93339 1176.48999 0.00085
4683 70.36407 1088.73573 1108.88989 0.00090
4684 70.37707 1090.81300 1108.88989 0.00090
4685 70.39007 1095.74116 1069.29004 0.00094
4686 70.40307 1102.92424 1142.43994 0.00088
4687 70.41607 1111.90721 1156.00000 0.00087
4688 70.42907 1120.86970 1082.41016 0.00092
4689 70.44207 1128.52182 1095.60986 0.00091
4690 70.45507 1134.54332 1190.25000 0.00084
4691 70.46807 1136.54236 1115.56006 0.00090
4692 70.48107 1134.15906 1135.69006 0.00088
4693 70.49407 1127.81645 1162.80994 0.00086
4694 70.50707 1118.08697 1162.80994 0.00086
4695 70.52007 1105.21256 1115.56006 0.00090
4696 70.53307 1092.68105 1095.60986 0.00091
4697 70.54607 1082.21920 1089.00000 0.00092
4698 70.55907 1074.55623 1036.84009 0.00096
4699 70.57207 1071.03225 1030.40991 0.00097
4700 70.58507 1071.81324 1049.76013 0.00095
4701 70.59807 1077.51528 1115.56006 0.00090
4702 70.61107 1088.46178 1102.23999 0.00091
4703 70.62407 1104.41028 1162.80994 0.00086
4704 70.63707 1124.75315 1149.21008 0.00087
4705 70.65007 1149.30737 1128.95984 0.00089
4706 70.66307 1178.60128 1183.36011 0.00085
4707 70.67607 1210.26507 1211.03992 0.00083
4708 70.68907 1243.25916 1267.35986 0.00079
4709 70.70207 1276.66273 1274.49011 0.00078
4710 70.71507 1307.37786 1310.44006 0.00076
4711 70.72807 1329.90028 1296.00000 0.00077
4712 70.74107 1342.07899 1361.61011 0.00073
4713 70.75407 1342.77069 1369.00000 0.00073
4714 70.76707 1329.68798 1339.55994 0.00075
4715 70.78007 1306.26136 1281.63989 0.00078
4716 70.79307 1280.23691 1225.00000 0.00082
4717 70.80607 1255.03581 1260.25000 0.00079
4718 70.81907 1233.03132 1225.00000 0.00082
4719 70.83207 1217.79787 1218.01013 0.00082
4720 70.84507 1209.02150 1183.36011 0.00085
4721 70.85807 1205.18595 1190.25000 0.00084
4722 70.87107 1204.59655 1162.80994 0.00086
4723 70.88407 1206.52963 1197.15991 0.00084
4724 70.89707 1208.63254 1246.08997 0.00080
4725 70.91007 1207.72565 1218.01013 0.00082
4726 70.92307 1203.67713 1190.25000 0.00084
4727 70.93607 1196.56192 1197.15991 0.00084
4728 70.94907 1185.22464 1197.15991 0.00084
4729 70.96207 1170.69440 1156.00000 0.00087
4730 70.97507 1154.57378 1156.00000 0.00087
4731 70.98807 1137.30948 1176.48999 0.00085
4732 71.00107 1119.55601 1149.21008 0.00087
4733 71.01407 1102.94528 1122.25000 0.00089
4734 71.02707 1088.08854 1069.29004 0.00094
4735 71.04007 1074.72699 1049.76013 0.00095
4736 71.05307 1062.91810 1069.29004 0.00094
4737 71.06607 1052.39665 1062.75989 0.00094
4738 71.07907 1042.36734 1056.25000 0.00095
4739 71.09207 1032.19962 1069.29004 0.00094
4740 71.10507 1021.87669 1056.25000 0.00095
4741 71.11807 1011.75560 1004.89008 0.00100
4742 71.13107 1001.85198 1011.23993 0.00099
4743 71.14407 992.39380 1030.40991 0.00097
4744 71.15707 983.78180 1017.60999 0.00098
4745 71.17007 976.28943 985.95996 0.00101
4746 71.18307 969.85862 930.25000 0.00107
4747 71.19607 964.46508 930.25000 0.00107
4748 71.20907 960.01633 973.44006 0.00103
4749 71.22207 956.42544 967.21002 0.00103
4750 71.23507 953.60805 930.25000 0.00107
4751 71.24807 951.43489 942.49005 0.00106
4752 71.26107 949.70847 979.68994 0.00102
4753 71.27407 948.21889 954.81000 0.00105
4754 71.28707 946.65104 900.00000 0.00111
4755 71.30007 944.89595 924.15997 0.00108
4756 71.31307 943.11726 954.81000 0.00105
4757 71.32607 941.37760 973.44006 0.00103
4758 71.33907 939.90521 967.21002 0.00103
4759 71.35207 938.98252 954.81000 0.00105
4760 71.36507 938.81226 936.36005 0.00107
4761 71.37807 939.42642 936.36005 0.00107
4762 71.39107 940.92915 936.36005 0.00107
4763 71.40407 943.57038 930.25000 0.00107
4764 71.41707 947.63817 954.81000 0.00105
4765 71.43007 953.01017 985.95996 0.00101
4766 71.44307 959.75609 961.00000 0.00104
4767 71.45607 968.07469 985.95996 0.00101
4768 71.46907 978.28378 979.68994 0.00102
4769 71.48207 989.59321 948.63995 0.00105
4770 71.49507 1001.54804 973.44006 0.00103
4771 71.50807 1013.64690 1011.23993 0.00099
4772 71.52107 1023.77577 1062.75989 0.00094
4773 71.53407 1030.88957 1069.29004 0.00094
4774 71.54707 1034.42570 1056.25000 0.00095
4775 71.56007 1033.98418 1036.84009 0.00096
4776 71.57307 1028.68910 1056.25000 0.00095
4777 71.58607 1021.38980 1011.23993 0.00099
4778 71.59907 1013.36067 998.56000 0.00100
4779 71.61207 1005.40917 1024.00000 0.00098
4780 71.62507 998.74670 942.49005 0.00106
4781 71.63807 993.78558 1024.00000 0.00098
4782 71.65107 990.17027 985.95996 0.00101
4783 71.66407 987.81287 973.44006 0.00103
4784 71.67707 986.83413 936.36005 0.00107
4785 71.69007 986.74605 973.44006 0.00103
4786 71.70307 987.10869 1011.23993 0.00099
4787 71.71607 987.88183 948.63995 0.00105
4788 71.72907 988.79447 954.81000 0.00105
4789 71.74207 989.29817 1017.60999 0.00098
4790 71.75507 989.48786 961.00000 0.00104
4791 71.76807 989.39299 1043.28992 0.00096
4792 71.78107 989.06039 998.56000 0.00100
4793 71.79407 988.65070 1017.60999 0.00098
4794 71.80707 988.95808 1011.23993 0.00099
4795 71.82007 990.25066 942.49005 0.00106
4796 71.83307 992.65711 961.00000 0.00104
4797 71.84607 996.41192 1049.76013 0.00095
4798 71.85907 1001.18163 948.63995 0.00105
4799 71.87207 1006.77539 948.63995 0.00105
4800 71.88507 1013.16643 992.25000 0.00101
4801 71.89807 1020.14103 1017.60999 0.00098
4802 71.91107 1026.95930 1011.23993 0.00099
4803 71.92407 1033.90610 979.68994 0.00102
4804 71.93707 1040.30821 1004.89008 0.00100
4805 71.95007 1044.92578 1017.60999 0.00098
4806 71.96307 1047.21576 985.95996 0.00101
4807 71.97607 1046.63536 1043.28992 0.00096
4808 71.98907 1041.84439 1017.60999 0.00098
4809 72.00207 1034.65016 998.56000 0.00100
4810 72.01507 1026.51011 1024.00000 0.00098
4811 72.02807 1018.30014 1004.89008 0.00100
4812 72.04107 1010.94097 1017.60999 0.00098
4813 72.05407 1005.08666 992.25000 0.00101
4814 72.06707 1000.68594 967.21002 0.00103
4815 72.08007 997.50198 979.68994 0.00102
4816 72.09307 995.49287 992.25000 0.00101
4817 72.10607 994.55078 1004.89008 0.00100
4818 72.11907 994.36037 973.44006 0.00103
4819 72.13207 994.68357 967.21002 0.00103
4820 72.14507 995.44647 954.81000 0.00105
4821 72.15807 996.52870 1004.89008 0.00100
4822 72.17107 997.52025 1030.40991 0.00097
4823 72.18407 998.37909 1024.00000 0.00098
4824 72.19707 999.18476 992.25000 0.00101
4825 72.21007 1000.04449 1004.89008 0.00100
4826 72.22307 1001.25602 1036.84009 0.00096
4827 72.23607 1002.88758 1036.84009 0.00096
4828 72.24907 1005.02173 973.44006 0.00103
4829 72.26207 1007.40313 979.68994 0.00102
4830 72.27507 1009.15957 1004.89008 0.00100
4831 72.28807 1009.98226 998.56000 0.00100
4832 72.30107 1009.77393 1011.23993 0.00099
4833 72.31407 1008.37477 1036.84009 0.00096
4834 72.32707 1005.91633 1024.00000 0.00098
4835 72.34007 1003.68095 985.95996 0.00101
4836 72.35307 1002.06497 948.63995 0.00105
4837 72.36607 1001.45048 992.25000 0.00101
4838 72.37907 1002.11220 1017.60999 0.00098
4839 72.39207 1003.81131 992.25000 0.00101
4840 72.40507 1006.23618 973.44006 0.00103
4841 72.41807 1009.04880 985.95996 0.00101
4842 72.43107 1012.27178 1030.40991 0.00097
4843 72.44407 1015.43571 1043.28992 0.00096
4844 72.45707 1018.19291 1011.23993 0.00099
4845 72.47007 1019.92444 1024.00000 0.00098
4846 72.48307 1020.46802 1049.76013 0.00095
4847 72.49607 1020.11617 1017.60999 0.00098
4848 72.50907 1019.21340 998.56000 0.00100
4849 72.52207 1018.39134 1004.89008 0.00100
4850 72.53507 1018.11778 1004.89008 0.00100
4851 72.54807 1018.63881 1030.40991 0.00097
4852 72.56107 1020.22751 1024.00000 0.00098
4853 72.57407 1023.20518 1011.23993 0.00099
4854 72.58707 1027.92901 1004.89008 0.00100
4855 72.60007 1034.22818 1004.89008 0.00100
4856 72.61307 1042.10742 1069.29004 0.00094
4857 72.62607 1051.84080 1049.76013 0.00095
4858 72.63907 1063.58330 1043.28992 0.00096
4859 72.65207 1076.43251 1056.25000 0.00095
4860 72.66507 1089.95400 1095.60986 0.00091
4861 72.67807 1103.16533 1095.60986 0.00091
4862 72.69107 1114.82407 1075.83997 0.00093
4863 72.70407 1124.84973 1128.95984 0.00089
4864 72.71707 1132.65735 1169.64001 0.00085
4865 72.73007 1137.73179 1095.60986 0.00091
4866 72.74307 1139.97097 1102.23999 0.00091
4867 72.75607 1137.95926 1183.36011 0.00085
4868 72.76907 1133.06169 1082.41016 0.00092
4869 72.78207 1126.17829 1049.76013 0.00095
4870 72.79507 1118.62756 1082.41016 0.00092
4871 72.80807 1111.46080 1122.25000 0.00089
4872 72.82107 1107.08211 1062.75989 0.00094
4873 72.83407 1106.02365 1049.76013 0.00095
4874 72.84707 1109.18401 1062.75989 0.00094
4875 72.86007 1116.67694 1036.84009 0.00096
4876 72.87307 1128.82964 1095.60986 0.00091
4877 72.88607 1144.87838 1183.36011 0.00085
4878 72.89907 1164.51211 1204.09009 0.00083
4879 72.91207 1186.71016 1197.15991 0.00084
4880 72.92507 1210.23918 1169.64001 0.00085
4881 72.93807 1232.15645 1169.64001 0.00085
4882 72.95107 1251.44109 1288.81006 0.00078
4883 72.96407 1266.21483 1296.00000 0.00077
4884 72.97707 1274.14932 1310.44006 0.00076
4885 72.99007 1274.32343 1281.63989 0.00078
4886 73.00307 1268.07652 1303.20984 0.00077
4887 73.01607 1254.44797 1211.03992 0.00083
4888 73.02907 1236.58440 1197.15991 0.00084
4889 73.04207 1217.08359 1176.48999 0.00085
4890 73.05507 1197.90413 1169.64001 0.00085
4891 73.06807 1181.19160 1128.95984 0.00089
4892 73.08107 1168.76563 1169.64001 0.00085
4893 73.09407 1161.60918 1156.00000 0.00087
4894 73.10707 1160.42053 1149.21008 0.00087
4895 73.12007 1166.65479 1089.00000 0.00092
4896 73.13307 1179.71346 1246.08997 0.00080
4897 73.14607 1199.72608 1142.43994 0.00088
4898 73.15907 1227.19457 1303.20984 0.00077
4899 73.17207 1265.37268 1190.25000 0.00084
4900 73.18507 1309.49562 1246.08997 0.00080
4901 73.19807 1355.22742 1274.49011 0.00078
4902 73.21107 1397.86463 1260.25000 0.00079
4903 73.22407 1418.68566 1239.04004 0.00081
4904 73.23707 1418.22384 1232.00989 0.00081
4905 73.25007 1402.11067 1267.35986 0.00079
4906 73.26307 1375.72701 1281.63989 0.00078
4907 73.27607 1348.50244 1260.25000 0.00079
4908 73.28907 1324.03268 1317.68994 0.00076
4909 73.30207 1301.29445 1225.00000 0.00082
4910 73.31507 1279.56023 1197.15991 0.00084
4911 73.32807 1257.74238 1267.35986 0.00079
4912 73.34107 1236.09253 1246.08997 0.00080
4913 73.35407 1216.86684 1169.64001 0.00085
4914 73.36707 1201.13670 1128.95984 0.00089
4915 73.38007 1190.62329 1162.80994 0.00086
4916 73.39307 1187.63578 1128.95984 0.00089
4917 73.40607 1188.69206 1122.25000 0.00089
4918 73.41907 1191.27157 1162.80994 0.00086
4919 73.43207 1192.58448 1190.25000 0.00084
4920 73.44507 1184.77459 1156.00000 0.00087
4921 73.45807 1171.06312 1156.00000 0.00087
4922 73.47107 1153.92896 1128.95984 0.00089
4923 73.48407 1135.60662 1142.43994 0.00088
4924 73.49707 1119.41497 1115.56006 0.00090
4925 73.51007 1105.56396 1089.00000 0.00092
4926 73.52307 1093.07496 1089.00000 0.00092
4927 73.53607 1081.26636 1108.88989 0.00090
4928 73.54907 1069.54778 1089.00000 0.00092
4929 73.56207 1057.63947 1095.60986 0.00091
4930 73.57507 1045.43612 1115.56006 0.00090
4931 73.58807 1033.25333 1069.29004 0.00094
4932 73.60107 1021.55604 998.56000 0.00100
4933 73.61407 1010.84825 973.44006 0.00103
4934 73.62707 1001.07983 967.21002 0.00103
4935 73.64007 992.41242 961.00000 0.00104
4936 73.65307 984.86496 979.68994 0.00102
4937 73.66607 978.72104 961.00000 0.00104
4938 73.67907 973.60870 942.49005 0.00106
4939 73.69207 969.51898 985.95996 0.00101
4940 73.70507 966.31958 985.95996 0.00101
4941 73.71807 964.07866 948.63995 0.00105
4942 73.73107 962.56179 967.21002 0.00103
4943 73.74407 961.73165 967.21002 0.00103
4944 73.75707 961.48659 961.00000 0.00104
4945 73.77007 961.86470 992.25000 0.00101
4946 73.78307 962.80255 985.95996 0.00101
4947 73.79607 964.35694 979.68994 0.00102
4948 73.80907 966.58926 998.56000 0.00100
4949 73.82207 969.51738 1017.60999 0.00098
4950 73.83507 973.07765 1011.23993 0.00099
4951 73.84807 977.18858 954.81000 0.00105
4952 73.86107 981.44095 961.00000 0.00104
4953 73.87407 985.52517 985.95996 0.00101
4954 73.88707 989.04115 998.56000 0.00100
4955 73.90007 991.48294 1056.25000 0.00095
4956 73.91307 992.26936 1030.40991 0.00097
4957 73.92607 991.95289 1036.84009 0.00096
4958 73.93907 990.72655 998.56000 0.00100
4959 73.95207 988.90764 973.44006 0.00103
4960 73.96507 987.02527 979.68994 0.00102
4961 73.97807 985.44683 973.44006 0.00103
4962 73.99107 984.53300 973.44006 0.00103
4963 74.00407 984.44094 967.21002 0.00103
4964 74.01707 985.37935 998.56000 0.00100
4965 74.03007 987.39337 998.56000 0.00100
4966 74.04307 990.28055 985.95996 0.00101
4967 74.05607 993.91612 979.68994 0.00102
4968 74.06907 998.23936 936.36005 0.00107
4969 74.08207 1003.08900 985.95996 0.00101
4970 74.09507 1008.20558 1043.28992 0.00096
4971 74.10807 1013.08180 1004.89008 0.00100
4972 74.12107 1017.26937 998.56000 0.00100
4973 74.13407 1020.22208 1036.84009 0.00096
4974 74.14707 1020.82893 1036.84009 0.00096
4975 74.16007 1019.79894 1043.28992 0.00096
4976 74.17307 1017.39433 1030.40991 0.00097
4977 74.18607 1014.00822 1004.89008 0.00100
4978 74.19907 1010.26668 973.44006 0.00103
4979 74.21207 1007.10175 1043.28992 0.00096
4980 74.22507 1004.58626 973.44006 0.00103
4981 74.23807 1002.84852 992.25000 0.00101
4982 74.25107 1002.13146 1049.76013 0.00095
4983 74.26407 1002.20797 1004.89008 0.00100
4984 74.27707 1002.85737 1011.23993 0.00099
4985 74.29007 1004.19673 1004.89008 0.00100
4986 74.30307 1006.33263 1049.76013 0.00095
4987 74.31607 1009.22137 1030.40991 0.00097
4988 74.32907 1012.57210 1043.28992 0.00096
4989 74.34207 1016.26695 1017.60999 0.00098
4990 74.35507 1020.15859 1069.29004 0.00094
4991 74.36807 1024.04873 1030.40991 0.00097
4992 74.38107 1028.05574 1082.41016 0.00092
4993 74.39407 1032.13865 1056.25000 0.00095
4994 74.40707 1036.22851 998.56000 0.00100
4995 74.42007 1039.91792 1062.75989 0.00094
4996 74.43307 1042.82734 1082.41016 0.00092
4997 74.44607 1044.54889 1030.40991 0.00097
4998 74.45907 1044.82888 1049.76013 0.00095
4999 74.47207 1043.08604 1011.23993 0.00099
5000 74.48507 1040.43069 1036.84009 0.00096
5001 74.49807 1037.77211 967.21002 0.00103
5002 74.51107 1035.62834 1049.76013 0.00095
5003 74.52407 1034.74387 1030.40991 0.00097
5004 74.53707 1035.72135 1011.23993 0.00099
5005 74.55007 1039.22589 967.21002 0.00103
5006 74.56307 1045.09588 1043.28992 0.00096
5007 74.57607 1053.55758 1049.76013 0.00095
5008 74.58907 1064.61596 1062.75989 0.00094
5009 74.60207 1078.57141 1089.00000 0.00092
5010 74.61507 1094.71716 1089.00000 0.00092
5011 74.62807 1112.24094 1115.56006 0.00090
5012 74.64107 1130.29883 1142.43994 0.00088
5013 74.65407 1147.57209 1135.69006 0.00088
5014 74.66707 1161.72111 1128.95984 0.00089
5015 74.68007 1172.29853 1183.36011 0.00085
5016 74.69307 1178.90178 1204.09009 0.00083
5017 74.70607 1181.72066 1218.01013 0.00082
5018 74.71907 1180.50106 1162.80994 0.00086
5019 74.73207 1178.79281 1162.80994 0.00086
5020 74.74507 1177.83682 1183.36011 0.00085
5021 74.75807 1178.69618 1197.15991 0.00084
5022 74.77107 1182.60808 1197.15991 0.00084
5023 74.78407 1189.34549 1232.00989 0.00081
5024 74.79707 1197.65632 1281.63989 0.00078
5025 74.81007 1206.05190 1288.81006 0.00078
5026 74.82307 1212.50558 1253.16016 0.00080
5027 74.83607 1215.29940 1239.04004 0.00081
5028 74.84907 1213.86251 1260.25000 0.00079
5029 74.86207 1208.78225 1197.15991 0.00084
5030 74.87507 1201.23843 1169.64001 0.00085
5031 74.88807 1192.29288 1204.09009 0.00083
5032 74.90107 1183.50319 1211.03992 0.00083
5033 74.91407 1176.21669 1183.36011 0.00085
5034 74.92707 1171.31744 1183.36011 0.00085
5035 74.94007 1169.26504 1169.64001 0.00085
5036 74.95307 1170.83417 1211.03992 0.00083
5037 74.96607 1176.60844 1253.16016 0.00080
5038 74.97907 1186.89902 1197.15991 0.00084
5039 74.99207 1201.50008 1183.36011 0.00085
5040 75.00507 1219.46751 1232.00989 0.00081
5041 75.01807 1239.85875 1253.16016 0.00080
5042 75.03107 1261.17655 1281.63989 0.00078
5043 75.04407 1280.17959 1288.81006 0.00078
5044 75.05707 1294.43515 1274.49011 0.00078
5045 75.07007 1302.09512 1260.25000 0.00079
5046 75.08307 1299.04632 1296.00000 0.00077
5047 75.09607 1285.69925 1317.68994 0.00076
5048 75.10907 1265.14344 1253.16016 0.00080
5049 75.12207 1239.58867 1218.01013 0.00082
5050 75.13507 1211.38758 1190.25000 0.00084
5051 75.14807 1184.31575 1149.21008 0.00087
5052 75.16107 1160.12978 1108.88989 0.00090
5053 75.17407 1139.44744 1089.00000 0.00092
5054 75.18707 1123.08098 1122.25000 0.00089
5055 75.20007 1111.20184 1156.00000 0.00087
5056 75.21307 1103.27144 1115.56006 0.00090
5057 75.22607 1098.54087 1095.60986 0.00091
5058 75.23907 1096.62691 1115.56006 0.00090
5059 75.25207 1096.80868 1069.29004 0.00094
5060 75.26507 1097.78886 1082.41016 0.00092
5061 75.27807 1098.61433 1135.69006 0.00088
5062 75.29107 1098.61262 1156.00000 0.00087
5063 75.30407 1096.51286 1149.21008 0.00087
5064 75.31707 1092.07250 1095.60986 0.00091
5065 75.33007 1085.65867 1095.60986 0.00091
5066 75.34307 1077.85100 1082.41016 0.00092
5067 75.35607 1068.97887 1108.88989 0.00090
5068 75.36907 1060.03805 1062.75989 0.00094
5069 75.38207 1051.70260 1036.84009 0.00096
5070 75.39507 1044.48296 1011.23993 0.00099
5071 75.40807 1038.65696 1004.89008 0.00100
5072 75.42107 1034.28891 998.56000 0.00100
5073 75.43407 1031.34696 1043.28992 0.00096
5074 75.44707 1029.44891 1056.25000 0.00095
5075 75.46007 1027.95340 1011.23993 0.00099
5076 75.47307 1026.72105 1043.28992 0.00096
5077 75.48607 1025.74402 1036.84009 0.00096
5078 75.49907 1024.66479 1017.60999 0.00098
5079 75.51207 1023.36787 985.95996 0.00101
5080 75.52507 1022.63162 1017.60999 0.00098
5081 75.53807 1022.65534 1024.00000 0.00098
5082 75.55107 1023.20120 1011.23993 0.00099
5083 75.56407 1024.18926 1004.89008 0.00100
5084 75.57707 1025.45715 1062.75989 0.00094
5085 75.59007 1026.22155 1043.28992 0.00096
5086 75.60307 1025.69758 1011.23993 0.00099
5087 75.61607 1024.19971 1024.00000 0.00098
5088 75.62907 1021.89703 1030.40991 0.00097
5089 75.64207 1018.76673 1043.28992 0.00096
5090 75.65507 1015.25532 1011.23993 0.00099
5091 75.66807 1012.10917 1024.00000 0.00098
5092 75.68107 1009.42601 998.56000 0.00100
5093 75.69407 1007.27238 1011.23993 0.00099
5094 75.70707 1005.99645 1036.84009 0.00096
5095 75.72007 1005.53750 1004.89008 0.00100
5096 75.73307 1005.98685 1017.60999 0.00098
5097 75.74607 1007.34296 1004.89008 0.00100
5098 75.75907 1009.76560 992.25000 0.00101
5099 75.77207 1013.13356 1017.60999 0.00098
5100 75.78507 1017.43059 1024.00000 0.00098
5101 75.79807 1022.51336 1017.60999 0.00098
5102 75.81107 1028.13629 1056.25000 0.00095
5103 75.82407 1033.95497 1004.89008 0.00100
5104 75.83707 1040.06291 1036.84009 0.00096
5105 75.85007 1046.20266 1069.29004 0.00094
5106 75.86307 1051.87485 1030.40991 0.00097
5107 75.87607 1056.67806 1056.25000 0.00095
5108 75.88907 1060.03482 1030.40991 0.00097
5109 75.90207 1060.63414 1017.60999 0.00098
5110 75.91507 1059.18820 1056.25000 0.00095
5111 75.92807 1056.03145 1049.76013 0.00095
5112 75.94107 1051.60631 1024.00000 0.00098
5113 75.95407 1046.72038 1049.76013 0.00095
5114 75.96707 1042.93447 1017.60999 0.00098
5115 75.98007 1040.55474 1062.75989 0.00094
5116 75.99307 1039.97525 1056.25000 0.00095
5117 76.00607 1041.69789 1043.28992 0.00096
5118 76.01907 1045.91682 1089.00000 0.00092
5119 76.03207 1052.18469 1108.88989 0.00090
5120 76.04507 1060.31811 1075.83997 0.00093
5121 76.05807 1070.04815 1049.76013 0.00095
5122 76.07107 1080.66968 1128.95984 0.00089
5123 76.08407 1090.71247 1108.88989 0.00090
5124 76.09707 1099.31416 1128.95984 0.00089
5125 76.11007 1105.55454 1108.88989 0.00090
5126 76.12307 1107.62906 1102.23999 0.00091
5127 76.13607 1105.52826 1108.88989 0.00090
5128 76.14907 1100.24661 1108.88989 0.00090
5129 76.16207 1092.64765 1102.23999 0.00091
5130 76.17507 1083.59963 1128.95984 0.00089
5131 76.18807 1074.80758 1102.23999 0.00091
5132 76.20107 1066.91041 1049.76013 0.00095
5133 76.21407 1060.14233 1043.28992 0.00096
5134 76.22707 1054.89630 1049.76013 0.00095
5135 76.24007 1051.57955 1024.00000 0.00098
5136 76.25307 1049.84366 1024.00000 0.00098
5137 76.26607 1049.55510 1069.29004 0.00094
5138 76.27907 1050.84583 1095.60986 0.00091
5139 76.29207 1053.72423 1069.29004 0.00094
5140 76.30507 1057.64323 1089.00000 0.00092
5141 76.31807 1062.28432 1135.69006 0.00088
5142 76.33107 1067.40611 1108.88989 0.00090
5143 76.34407 1072.44668 1062.75989 0.00094
5144 76.35707 1076.74345 1030.40991 0.00097
5145 76.37007 1080.33742 1069.29004 0.00094
5146 76.38307 1083.80823 1095.60986 0.00091
5147 76.39607 1087.20298 1089.00000 0.00092
5148 76.40907 1090.90908 1108.88989 0.00090
5149 76.42207 1095.62600 1089.00000 0.00092
5150 76.43507 1102.24411 1102.23999 0.00091
5151 76.44807 1110.62937 1149.21008 0.00087
5152 76.46107 1120.26564 1149.21008 0.00087
5153 76.47407 1131.00363 1142.43994 0.00088
5154 76.48707 1142.29576 1142.43994 0.00088
5155 76.50007 1152.61245 1128.95984 0.00089
5156 76.51307 1160.69613 1149.21008 0.00087
5157 76.52607 1166.19327 1218.01013 0.00082
5158 76.53907 1167.97755 1211.03992 0.00083
5159 76.55207 1164.22134 1149.21008 0.00087
5160 76.56507 1157.89793 1176.48999 0.00085
5161 76.57807 1150.03742 1204.09009 0.00083
5162 76.59107 1141.80945 1135.69006 0.00088
5163 76.60407 1134.83260 1095.60986 0.00091
5164 76.61707 1130.31059 1128.95984 0.00089
5165 76.63007 1128.64363 1162.80994 0.00086
5166 76.64307 1130.37227 1156.00000 0.00087
5167 76.65607 1136.28653 1169.64001 0.00085
5168 76.66907 1146.01104 1176.48999 0.00085
5169 76.68207 1158.95842 1225.00000 0.00082
5170 76.69507 1174.95157 1225.00000 0.00082
5171 76.70807 1193.20460 1183.36011 0.00085
5172 76.72107 1211.85418 1204.09009 0.00083
5173 76.73407 1229.20672 1232.00989 0.00081
5174 76.74707 1243.30723 1303.20984 0.00077
5175 76.76007 1251.63791 1267.35986 0.00079
5176 76.77307 1253.45399 1260.25000 0.00079
5177 76.78607 1249.94079 1246.08997 0.00080
5178 76.79907 1241.64860 1274.49011 0.00078
5179 76.81207 1229.54216 1239.04004 0.00081
5180 76.82507 1215.60620 1225.00000 0.00082
5181 76.83807 1201.01953 1225.00000 0.00082
5182 76.85107 1186.51378 1190.25000 0.00084
5183 76.86407 1172.81910 1190.25000 0.00084
5184 76.87707 1160.82128 1183.36011 0.00085
5185 76.89007 1150.61085 1169.64001 0.00085
5186 76.90307 1142.55721 1135.69006 0.00088
5187 76.91607 1137.01256 1149.21008 0.00087
5188 76.92907 1133.90635 1142.43994 0.00088
5189 76.94207 1132.68023 1115.56006 0.00090
5190 76.95507 1132.99170 1115.56006 0.00090
5191 76.96807 1134.28089 1162.80994 0.00086
5192 76.98107 1135.88162 1176.48999 0.00085
5193 76.99407 1137.39818 1190.25000 0.00084
5194 77.00707 1138.88997 1075.83997 0.00093
5195 77.02007 1140.22596 1095.60986 0.00091
5196 77.03307 1141.25299 1218.01013 0.00082
5197 77.04607 1142.43595 1239.04004 0.00081
5198 77.05907 1144.00427 1183.36011 0.00085
5199 77.07207 1146.33426 1135.69006 0.00088
5200 77.08507 1149.41259 1176.48999 0.00085
5201 77.09807 1153.56942 1156.00000 0.00087
5202 77.11107 1158.92275 1169.64001 0.00085
5203 77.12407 1166.64292 1176.48999 0.00085
5204 77.13707 1176.77630 1225.00000 0.00082
5205 77.15007 1189.51238 1246.08997 0.00080
5206 77.16307 1204.95011 1288.81006 0.00078
5207 77.17607 1224.05840 1296.00000 0.00077
5208 77.18907 1245.81781 1332.25000 0.00075
5209 77.20207 1269.83004 1281.63989 0.00078
5210 77.21507 1295.79941 1339.55994 0.00075
5211 77.22807 1323.97006 1383.84009 0.00072
5212 77.24107 1354.72047 1361.61011 0.00073
5213 77.25407 1389.10464 1413.75989 0.00071
5214 77.26707 1427.96970 1444.00000 0.00069
5215 77.28007 1473.38263 1489.95984 0.00067
5216 77.29307 1526.71877 1421.29004 0.00070
5217 77.30607 1584.96471 1451.60986 0.00069
5218 77.31907 1645.71338 1513.21008 0.00066
5219 77.33207 1705.69662 1528.80994 0.00065
5220 77.34507 1753.67668 1560.25000 0.00064
5221 77.35807 1786.29371 1608.00989 0.00062
5222 77.37107 1801.26992 1624.08997 0.00062
5223 77.38407 1797.23882 1697.44006 0.00059
5224 77.39707 1771.24528 1689.20984 0.00059
5225 77.41007 1735.02468 1681.00000 0.00059
5226 77.42307 1693.21516 1616.04004 0.00062
5227 77.43607 1649.52571 1672.81018 0.00060
5228 77.44907 1608.86441 1521.00000 0.00066
5229 77.46207 1572.83971 1536.64001 0.00065
5230 77.47507 1542.54004 1497.69006 0.00067
5231 77.48807 1518.61693 1413.75989 0.00071
5232 77.50107 1502.08410 1466.88989 0.00068
5233 77.51407 1493.60315 1451.60986 0.00069
5234 77.52707 1490.82336 1466.88989 0.00068
5235 77.54007 1492.41751 1444.00000 0.00069
5236 77.55307 1497.06226 1376.40991 0.00073
5237 77.56607 1501.35473 1369.00000 0.00073
5238 77.57907 1502.41900 1376.40991 0.00073
5239 77.59207 1498.36784 1369.00000 0.00073
5240 77.60507 1488.02681 1376.40991 0.00073
5241 77.61807 1468.44412 1436.41016 0.00070
5242 77.63107 1444.97850 1436.41016 0.00070
5243 77.64407 1419.32841 1391.28992 0.00072
5244 77.65707 1393.26134 1376.40991 0.00073
5245 77.67007 1369.27537 1354.23999 0.00074
5246 77.68307 1348.25331 1339.55994 0.00075
5247 77.69607 1329.44333 1332.25000 0.00075
5248 77.70907 1312.60605 1303.20984 0.00077
5249 77.72207 1297.54579 1288.81006 0.00078
5250 77.73507 1282.18506 1303.20984 0.00077
5251 77.74807 1266.39291 1303.20984 0.00077
5252 77.76107 1250.61959 1260.25000 0.00079
5253 77.77407 1235.19903 1260.25000 0.00079
5254 77.78707 1221.21198 1239.04004 0.00081
5255 77.80007 1209.54075 1225.00000 0.00082
5256 77.81307 1200.67061 1239.04004 0.00081
5257 77.82607 1194.81058 1211.03992 0.00083
5258 77.83907 1192.68676 1190.25000 0.00084
5259 77.85207 1194.06931 1197.15991 0.00084
5260 77.86507 1198.95227 1218.01013 0.00082
5261 77.87807 1206.98453 1232.00989 0.00081
5262 77.89107 1218.33135 1253.16016 0.00080
5263 77.90407 1232.96898 1274.49011 0.00078
5264 77.91707 1251.98872 1288.81006 0.00078
5265 77.93007 1274.87946 1339.55994 0.00075
5266 77.94307 1301.78343 1324.96008 0.00075
5267 77.95607 1332.52671 1332.25000 0.00075
5268 77.96907 1367.12934 1391.28992 0.00072
5269 77.98207 1403.46078 1413.75989 0.00071
5270 77.99507 1438.90910 1466.88989 0.00068
5271 78.00807 1471.84813 1560.25000 0.00064
5272 78.02107 1498.14194 1600.00000 0.00063
5273 78.03407 1514.07301 1608.00989 0.00062
5274 78.04707 1519.83497 1600.00000 0.00063
5275 78.06007 1515.44138 1576.09009 0.00063
5276 78.07307 1499.56178 1536.64001 0.00065
5277 78.08607 1476.75890 1482.25000 0.00067
5278 78.09907 1450.67898 1489.95984 0.00067
5279 78.11207 1423.04150 1474.56006 0.00068
5280 78.12507 1396.34679 1391.28992 0.00072
5281 78.13807 1374.03520 1339.55994 0.00075
5282 78.15107 1355.74999 1346.89001 0.00074
5283 78.16407 1342.22530 1376.40991 0.00073
5284 78.17707 1334.29722 1354.23999 0.00074
5285 78.19007 1331.90359 1346.89001 0.00074
5286 78.20307 1333.02368 1346.89001 0.00074
5287 78.21607 1336.65466 1303.20984 0.00077
5288 78.22907 1342.35919 1369.00000 0.00073
5289 78.24207 1348.06613 1346.89001 0.00074
5290 78.25507 1352.32604 1354.23999 0.00074
5291 78.26807 1355.08276 1391.28992 0.00072
5292 78.28107 1356.43080 1436.41016 0.00070
5293 78.29407 1355.91743 1421.29004 0.00070
5294 78.30707 1354.60921 1339.55994 0.00075
5295 78.32007 1353.38086 1354.23999 0.00074
5296 78.33307 1352.20739 1376.40991 0.00073
5297 78.34607 1351.22450 1413.75989 0.00071
5298 78.35907 1350.37499 1383.84009 0.00072
5299 78.37207 1349.99659 1303.20984 0.00077
5300 78.38507 1349.59110 1296.00000 0.00077
5301 78.39807 1348.13205 1310.44006 0.00076
5302 78.41107 1345.47030 1296.00000 0.00077
5303 78.42407 1341.11207 1296.00000 0.00077
5304 78.43707 1333.86026 1332.25000 0.00075
5305 78.45007 1323.46138 1260.25000 0.00079
5306 78.46307 1310.77399 1332.25000 0.00075
5307 78.47607 1294.88278 1310.44006 0.00076
5308 78.48907 1277.34060 1274.49011 0.00078
5309 78.50207 1260.65837 1310.44006 0.00076
5310 78.51507 1246.29295 1218.01013 0.00082
5311 78.52807 1234.53275 1183.36011 0.00085
5312 78.54107 1226.50086 1239.04004 0.00081
5313 78.55407 1222.48916 1218.01013 0.00082
5314 78.56707 1222.49968 1218.01013 0.00082
5315 78.58007 1225.32615 1149.21008 0.00087
5316 78.59307 1230.75361 1176.48999 0.00085
5317 78.60607 1237.75660 1211.03992 0.00083
5318 78.61907 1243.83725 1225.00000 0.00082
5319 78.63207 1248.09245 1225.00000 0.00082
5320 78.64507 1250.41955 1253.16016 0.00080
5321 78.65807 1250.16665 1211.03992 0.00083
5322 78.67107 1246.20608 1274.49011 0.00078
5323 78.68407 1239.98041 1260.25000 0.00079
5324 78.69707 1231.90765 1176.48999 0.00085
5325 78.71007 1221.07158 1149.21008 0.00087
5326 78.72307 1208.33523 1169.64001 0.00085
5327 78.73607 1194.41052 1176.48999 0.00085
5328 78.74907 1179.42654 1190.25000 0.00084
5329 78.76207 1163.58773 1183.36011 0.00085
5330 78.77507 1148.54035 1190.25000 0.00084
5331 78.78807 1135.11110 1135.69006 0.00088
5332 78.80107 1123.27945 1176.48999 0.00085
5333 78.81407 1113.48802 1162.80994 0.00086
5334 78.82707 1105.87185 1108.88989 0.00090
5335 78.84007 1099.87819 1102.23999 0.00091
5336 78.85307 1095.17390 1089.00000 0.00092
5337 78.86607 1091.73018 1089.00000 0.00092
5338 78.87907 1089.49713 1049.76013 0.00095
5339 78.89207 1087.62592 1043.28992 0.00096
5340 78.90507 1086.37380 1089.00000 0.00092
5341 78.91807 1085.89647 1089.00000 0.00092
5342 78.93107 1086.08837 1115.56006 0.00090
5343 78.94407 1086.56685 1142.43994 0.00088
5344 78.95707 1087.34083 1108.88989 0.00090
5345 78.97007 1088.24731 1102.23999 0.00091
5346 78.98307 1088.50654 1135.69006 0.00088
5347 78.99607 1087.93879 1156.00000 0.00087
5348 79.00907 1086.47011 1135.69006 0.00088
5349 79.02207 1083.77682 1108.88989 0.00090
5350 79.03507 1079.12970 1102.23999 0.00091
5351 79.04807 1073.75127 1069.29004 0.00094
5352 79.06107 1067.99957 1075.83997 0.00093
5353 79.07407 1062.10835 1056.25000 0.00095
5354 79.08707 1056.77446 1004.89008 0.00100
5355 79.10007 1052.36415 1082.41016 0.00092
5356 79.11307 1048.88907 1108.88989 0.00090
5357 79.12607 1046.41400 1069.29004 0.00094
5358 79.13907 1045.18509 1102.23999 0.00091
5359 79.15207 1044.91468 1069.29004 0.00094
5360 79.16507 1045.23803 1075.83997 0.00093
5361 79.17807 1045.99264 1082.41016 0.00092
5362 79.19107 1046.92339 1049.76013 0.00095
5363 79.20407 1047.74280 1056.25000 0.00095
5364 79.21707 1048.55246 1082.41016 0.00092
5365 79.23007 1049.46541 1102.23999 0.00091
5366 79.24307 1050.50080 1075.83997 0.00093
5367 79.25607 1051.96631 1089.00000 0.00092
5368 79.26907 1053.99447 1069.29004 0.00094
5369 79.28207 1056.65027 1102.23999 0.00091
5370 79.29507 1060.02409 1095.60986 0.00091
5371 79.30807 1064.51780 1102.23999 0.00091
5372 79.32107 1069.97690 1095.60986 0.00091
5373 79.33407 1076.23536 1108.88989 0.00090
5374 79.34707 1083.27450 1115.56006 0.00090
5375 79.36007 1091.08801 1108.88989 0.00090
5376 79.37307 1099.05689 1135.69006 0.00088
5377 79.38607 1106.69284 1115.56006 0.00090
5378 79.39907 1113.56206 1122.25000 0.00089
5379 79.41207 1118.89468 1115.56006 0.00090
5380 79.42507 1121.23683 1128.95984 0.00089
5381 79.43807 1121.32087 1108.88989 0.00090
5382 79.45107 1119.48802 1128.95984 0.00089
5383 79.46407 1116.20274 1102.23999 0.00091
5384 79.47707 1111.94862 1149.21008 0.00087
5385 79.49007 1107.98163 1162.80994 0.00086
5386 79.50307 1104.54808 1162.80994 0.00086
5387 79.51607 1101.67305 1183.36011 0.00085
5388 79.52907 1100.09550 1169.64001 0.00085
5389 79.54207 1099.78222 1128.95984 0.00089
5390 79.55507 1100.70637 1108.88989 0.00090
5391 79.56807 1103.24003 1115.56006 0.00090
5392 79.58107 1108.00067 1135.69006 0.00088
5393 79.59407 1114.81964 1011.23993 0.00099
5394 79.60707 1123.53518 1095.60986 0.00091
5395 79.62007 1134.36254 1122.25000 0.00089
5396 79.63307 1147.29693 1115.56006 0.00090
5397 79.64607 1161.39026 1183.36011 0.00085
5398 79.65907 1176.16333 1183.36011 0.00085
5399 79.67207 1191.26073 1274.49011 0.00078
5400 79.68507 1205.08405 1267.35986 0.00079
5401 79.69807 1217.40802 1190.25000 0.00084
5402 79.71107 1228.19665 1246.08997 0.00080
5403 79.72407 1237.39481 1183.36011 0.00085
5404 79.73707 1244.78566 1274.49011 0.00078
5405 79.75007 1252.63257 1310.44006 0.00076
5406 79.76307 1261.01890 1197.15991 0.00084
5407 79.77607 1270.05282 1232.00989 0.00081
5408 79.78907 1280.26528 1332.25000 0.00075
5409 79.80207 1290.55037 1296.00000 0.00077
5410 79.81507 1299.59486 1361.61011 0.00073
5411 79.82807 1306.73605 1354.23999 0.00074
5412 79.84107 1311.58788 1346.89001 0.00074
5413 79.85407 1311.17235 1310.44006 0.00076
5414 79.86707 1309.08335 1376.40991 0.00073
5415 79.88007 1306.44660 1346.89001 0.00074
5416 79.89307 1304.54523 1339.55994 0.00075
5417 79.90607 1304.40056 1339.55994 0.00075
5418 79.91907 1306.99994 1332.25000 0.00075
5419 79.93207 1311.81909 1317.68994 0.00076
5420 79.94507 1317.91261 1354.23999 0.00074
5421 79.95807 1324.70536 1303.20984 0.00077
5422 79.97107 1331.77272 1346.89001 0.00074
5423 79.98407 1337.82622 1383.84009 0.00072
5424 79.99707 1341.94224 1413.75989 0.00071
5425 80.01007 1344.28023 1346.89001 0.00074
5426 80.02307 1343.55926 1361.61011 0.00073
5427 80.03607 1339.83553 1346.89001 0.00074
5428 80.04907 1333.59777 1376.40991 0.00073
5429 80.06207 1324.92450 1354.23999 0.00074
5430 80.07507 1313.45705 1346.89001 0.00074
5431 80.08807 1300.34489 1332.25000 0.00075
5432 80.10107 1286.09359 1296.00000 0.00077
5433 80.11407 1271.21158 1253.16016 0.00080
5434 80.12707 1256.76377 1253.16016 0.00080
5435 80.14007 1244.20651 1253.16016 0.00080
5436 80.15307 1233.86789 1274.49011 0.00078
5437 80.16607 1226.31634 1260.25000 0.00079
5438 80.17907 1221.93291 1246.08997 0.00080
5439 80.19207 1220.82238 1232.00989 0.00081
5440 80.20507 1222.90915 1211.03992 0.00083
5441 80.21807 1227.48244 1211.03992 0.00083
5442 80.23107 1234.34087 1253.16016 0.00080
5443 80.24407 1243.06802 1253.16016 0.00080
5444 80.25707 1252.74821 1239.04004 0.00081
5445 80.27007 1262.26389 1253.16016 0.00080
5446 80.28307 1271.18393 1274.49011 0.00078
5447 80.29607 1278.94523 1281.63989 0.00078
5448 80.30907 1284.17478 1288.81006 0.00078
5449 80.32207 1286.47869 1310.44006 0.00076
5450 80.33507 1286.11640 1296.00000 0.00077
5451 80.34807 1282.84433 1267.35986 0.00079
5452 80.36107 1275.84061 1246.08997 0.00080
5453 80.37407 1266.02756 1232.00989 0.00081
5454 80.38707 1254.11849 1225.00000 0.00082
5455 80.40007 1240.54565 1239.04004 0.00081
5456 80.41307 1225.27553 1218.01013 0.00082
5457 80.42607 1210.57655 1211.03992 0.00083
5458 80.43907 1196.64622 1190.25000 0.00084
5459 80.45207 1183.81496 1162.80994 0.00086
5460 80.46507 1172.59941 1183.36011 0.00085
5461 80.47807 1163.63181 1162.80994 0.00086
5462 80.49107 1156.40428 1102.23999 0.00091
5463 80.50407 1150.88258 1075.83997 0.00093
5464 80.51707 1147.11431 1102.23999 0.00091
5465 80.53007 1144.59592 1156.00000 0.00087
5466 80.54307 1142.78682 1115.56006 0.00090
5467 80.55607 1141.71223 1108.88989 0.00090
5468 80.56907 1141.15279 1128.95984 0.00089
5469 80.58207 1140.69343 1162.80994 0.00086
5470 80.59507 1140.05393 1162.80994 0.00086
5471 80.60807 1139.19356 1135.69006 0.00088
5472 80.62107 1137.75564 1122.25000 0.00089
5473 80.63407 1135.35054 1069.29004 0.00094
5474 80.64707 1132.23891 1122.25000 0.00089
5475 80.66007 1127.80557 1102.23999 0.00091
5476 80.67307 1122.51442 1102.23999 0.00091
5477 80.68607 1116.70301 1128.95984 0.00089
5478 80.69907 1111.12354 1128.95984 0.00089
5479 80.71207 1105.99033 1115.56006 0.00090
5480 80.72507 1102.00044 1142.43994 0.00088
5481 80.73807 1099.55575 1089.00000 0.00092
5482 80.75107 1099.42361 1095.60986 0.00091
5483 80.76407 1101.58319 1108.88989 0.00090
5484 80.77707 1106.09062 1128.95984 0.00089
5485 80.79007 1113.00944 1115.56006 0.00090
5486 80.80307 1122.61194 1082.41016 0.00092
5487 80.81607 1134.46138 1095.60986 0.00091
5488 80.82907 1147.85695 1169.64001 0.00085
5489 80.84207 1162.15675 1190.25000 0.00084
5490 80.85507 1176.34612 1190.25000 0.00084
5491 80.86807 1187.92423 1197.15991 0.00084
5492 80.88107 1196.20773 1204.09009 0.00083
5493 80.89407 1200.66578 1183.36011 0.00085
5494 80.90707 1200.75128 1190.25000 0.00084
5495 80.92007 1195.74463 1246.08997 0.00080
5496 80.93307 1188.26787 1253.16016 0.00080
5497 80.94607 1179.04678 1149.21008 0.00087
5498 80.95907 1168.96777 1218.01013 0.00082
5499 80.97207 1159.50032 1142.43994 0.00088
5500 80.98507 1151.38958 1176.48999 0.00085
5501 80.99807 1144.76285 1156.00000 0.00087
5502 81.01107 1139.89462 1115.56006 0.00090
5503 81.02407 1136.89081 1197.15991 0.00084
5504 81.03707 1135.69872 1128.95984 0.00089
5505 81.05007 1135.67525 1183.36011 0.00085
5506 81.06307 1136.53367 1162.80994 0.00086
5507 81.07607 1137.92503 1128.95984 0.00089
5508 81.08907 1139.64259 1162.80994 0.00086
5509 81.10207 1141.27955 1218.01013 0.00082
5510 81.11507 1142.60922 1176.48999 0.00085
5511 81.12807 1143.55618 1183.36011 0.00085
5512 81.14107 1143.94394 1204.09009 0.00083
5513 81.15407 1143.84857 1211.03992 0.00083
5514 81.16707 1143.68282 1142.43994 0.00088
5515 81.18007 1143.74784 1156.00000 0.00087
5516 81.19307 1144.54843 1095.60986 0.00091
5517 81.20607 1146.36411 1176.48999 0.00085
5518 81.21907 1149.19412 1149.21008 0.00087
5519 81.23207 1153.19828 1156.00000 0.00087
5520 81.24507 1158.74009 1204.09009 0.00083
5521 81.25807 1166.03792 1197.15991 0.00084
5522 81.27107 1174.64221 1169.64001 0.00085
5523 81.28407 1184.81808 1197.15991 0.00084
5524 81.29707 1196.63351 1169.64001 0.00085
5525 81.31007 1209.21214 1183.36011 0.00085
5526 81.32307 1221.88825 1281.63989 0.00078
5527 81.33607 1234.29952 1246.08997 0.00080
5528 81.34907 1246.34282 1211.03992 0.00083
5529 81.36207 1256.26952 1211.03992 0.00083
5530 81.37507 1265.46538 1225.00000 0.00082
5531 81.38807 1274.33810 1239.04004 0.00081
5532 81.40107 1283.85019 1267.35986 0.00079
5533 81.41407 1293.14836 1239.04004 0.00081
5534 81.42707 1303.56642 1260.25000 0.00079
5535 81.44007 1315.43893 1296.00000 0.00077
5536 81.45307 1328.78776 1288.81006 0.00078
5537 81.46607 1343.40905 1288.81006 0.00078
5538 81.47907 1359.12865 1303.20984 0.00077
5539 81.49207 1375.31924 1296.00000 0.00077
5540 81.50507 1389.72300 1317.68994 0.00076
5541 81.51807 1404.51905 1354.23999 0.00074
5542 81.53107 1421.27399 1310.44006 0.00076
5543 81.54407 1439.08435 1310.44006 0.00076
5544 81.55707 1456.93247 1317.68994 0.00076
5545 81.57007 1471.82151 1332.25000 0.00075
5546 81.58307 1473.97109 1354.23999 0.00074
5547 81.59607 1463.20851 1317.68994 0.00076
5548 81.60907 1440.60135 1317.68994 0.00076
5549 81.62207 1409.75346 1303.20984 0.00077
5550 81.63507 1378.21661 1274.49011 0.00078
5551 81.64807 1350.21511 1267.35986 0.00079
5552 81.66107 1326.65993 1274.49011 0.00078
5553 81.67407 1308.78895 1303.20984 0.00077
5554 81.68707 1296.90720 1303.20984 0.00077
5555 81.70007 1288.54089 1274.49011 0.00078
5556 81.71307 1283.39956 1267.35986 0.00079
5557 81.72607 1280.39969 1260.25000 0.00079
5558 81.73907 1279.01026 1239.04004 0.00081
5559 81.75207 1278.40874 1253.16016 0.00080
5560 81.76507 1277.98070 1218.01013 0.00082
5561 81.77807 1277.40313 1246.08997 0.00080
5562 81.79107 1277.52943 1281.63989 0.00078
5563 81.80407 1277.72996 1239.04004 0.00081
5564 81.81707 1275.93401 1183.36011 0.00085
5565 81.83007 1271.12933 1176.48999 0.00085
5566 81.84307 1261.20223 1169.64001 0.00085
5567 81.85607 1245.11867 1183.36011 0.00085
5568 81.86907 1227.44843 1176.48999 0.00085
5569 81.88207 1209.13172 1128.95984 0.00089
5570 81.89507 1191.99415 1156.00000 0.00087
5571 81.90807 1177.93635 1211.03992 0.00083
5572 81.92107 1166.16672 1190.25000 0.00084
5573 81.93407 1156.34675 1183.36011 0.00085
5574 81.94707 1148.91815 1122.25000 0.00089
5575 81.96007 1144.15488 1142.43994 0.00088
5576 81.97307 1141.51244 1128.95984 0.00089
5577 81.98607 1140.48344 1089.00000 0.00092
5578 81.99907 1140.81907 1128.95984 0.00089
5579 82.01207 1142.16860 1142.43994 0.00088
5580 82.02507 1143.11421 1108.88989 0.00090
5581 82.03807 1143.12361 1162.80994 0.00086
5582 82.05107 1142.23168 1135.69006 0.00088
5583 82.06407 1140.44936 1128.95984 0.00089
5584 82.07707 1137.28266 1108.88989 0.00090
5585 82.09007 1133.73805 1102.23999 0.00091
5586 82.10307 1130.53145 1128.95984 0.00089
5587 82.11607 1127.97480 1156.00000 0.00087
5588 82.12907 1126.05326 1190.25000 0.00084
5589 82.14207 1124.90375 1122.25000 0.00089
5590 82.15507 1124.07133 1122.25000 0.00089
5591 82.16807 1122.64040 1128.95984 0.00089
5592 82.18107 1120.37387 1108.88989 0.00090
5593 82.19407 1117.68153 1075.83997 0.00093
5594 82.20707 1114.27767 1128.95984 0.00089
5595 82.22007 1110.08997 1122.25000 0.00089
5596 82.23307 1105.92551 1102.23999 0.00091
5597 82.24607 1102.46256 1043.28992 0.00096
5598 82.25907 1099.55039 1075.83997 0.00093
5599 82.27207 1097.26643 1102.23999 0.00091
5600 82.28507 1095.77651 1095.60986 0.00091
5601 82.29807 1094.52840 1089.00000 0.00092
5602 82.31107 1093.06619 1030.40991 0.00097
5603 82.32407 1091.51293 1069.29004 0.00094
5604 82.33707 1090.06548 1030.40991 0.00097
5605 82.35007 1088.20852 1043.28992 0.00096
5606 82.36307 1085.75163 1056.25000 0.00095
5607 82.37607 1083.17385 1082.41016 0.00092
5608 82.38907 1080.47537 1102.23999 0.00091
5609 82.40207 1077.38932 1075.83997 0.00093
5610 82.41507 1074.07593 1089.00000 0.00092
5611 82.42807 1070.57000 1089.00000 0.00092
5612 82.44107 1066.59332 1049.76013 0.00095
5613 82.45407 1062.04522 1030.40991 0.00097
5614 82.46707 1057.55490 1043.28992 0.00096
5615 82.48007 1053.11602 1024.00000 0.00098
5616 82.49307 1048.79399 1049.76013 0.00095
5617 82.50607 1044.78297 1069.29004 0.00094
5618 82.51907 1041.30449 1043.28992 0.00096
5619 82.53207 1038.30942 1024.00000 0.00098
5620 82.54507 1035.70899 1095.60986 0.00091
5621 82.55807 1033.55296 1056.25000 0.00095
5622 82.57107 1031.79351 1030.40991 0.00097
5623 82.58407 1030.52953 1030.40991 0.00097
5624 82.59707 1029.84708 1043.28992 0.00096
5625 82.61007 1029.86298 1030.40991 0.00097
5626 82.62307 1030.53559 1036.84009 0.00096
5627 82.63607 1031.95490 1004.89008 0.00100
5628 82.64907 1034.36936 1043.28992 0.00096
5629 82.66207 1037.61419 1056.25000 0.00095
5630 82.67507 1041.60695 1030.40991 0.00097
5631 82.68807 1046.29534 1049.76013 0.00095
5632 82.70107 1051.64530 1062.75989 0.00094
5633 82.71407 1057.08254 1089.00000 0.00092
5634 82.72707 1062.23184 1049.76013 0.00095
5635 82.74007 1066.74359 1082.41016 0.00092
5636 82.75307 1069.53517 1075.83997 0.00093
5637 82.76607 1069.98037 1069.29004 0.00094
5638 82.77907 1068.27941 1069.29004 0.00094
5639 82.79207 1064.55722 1069.29004 0.00094
5640 82.80507 1058.89795 1049.76013 0.00095
5641 82.81807 1052.07088 1043.28992 0.00096
5642 82.83107 1045.10637 1030.40991 0.00097
5643 82.84407 1038.39582 1043.28992 0.00096
5644 82.85707 1032.27581 1043.28992 0.00096
5645 82.87007 1027.37104 1043.28992 0.00096
5646 82.88307 1023.57472 1030.40991 0.00097
5647 82.89607 1020.89227 1043.28992 0.00096
5648 82.90907 1019.34740 1069.29004 0.00094
5649 82.92207 1019.13628 1062.75989 0.00094
5650 82.93507 1020.09898 1043.28992 0.00096
5651 82.94807 1022.00567 1030.40991 0.00097
5652 82.96107 1024.83741 1030.40991 0.00097
5653 82.97407 1028.51359 1030.40991 0.00097
5654 82.98707 1032.88113 1036.84009 0.00096
5655 83.00007 1037.66760 1043.28992 0.00096
5656 83.01307 1042.87485 1043.28992 0.00096
5657 83.02607 1048.40078 1036.84009 0.00096
5658 83.03907 1053.98181 1049.76013 0.00095
5659 83.05207 1059.63453 1069.29004 0.00094
5660 83.06507 1065.40852 1075.83997 0.00093
5661 83.07807 1071.17056 1075.83997 0.00093
5662 83.09107 1076.27011 1089.00000 0.00092
5663 83.10407 1080.55576 1122.25000 0.00089
5664 83.11707 1084.10367 1122.25000 0.00089
5665 83.13007 1086.48039 1102.23999 0.00091
5666 83.14307 1087.53664 1082.41016 0.00092
5667 83.15607 1087.61978 1056.25000 0.00095
5668 83.16907 1086.84202 1122.25000 0.00089
5669 83.18207 1084.64284 1102.23999 0.00091
5670 83.19507 1082.13319 1089.00000 0.00092
5671 83.20807 1079.76225 1095.60986 0.00091
5672 83.22107 1077.43862 1075.83997 0.00093
5673 83.23407 1075.55165 1075.83997 0.00093
5674 83.24707 1074.66189 1095.60986 0.00091
5675 83.26007 1074.80611 1108.88989 0.00090
5676 83.27307 1075.59237 1062.75989 0.00094
5677 83.28607 1076.94107 1017.60999 0.00098
5678 83.29907 1078.28426 1043.28992 0.00096
5679 83.31207 1078.82695 1082.41016 0.00092
5680 83.32507 1078.70043 1069.29004 0.00094
5681 83.33807 1077.90917 1043.28992 0.00096
5682 83.35107 1076.34377 1102.23999 0.00091
5683 83.36407 1074.10877 1069.29004 0.00094
5684 83.37707 1071.85438 1075.83997 0.00093
5685 83.39007 1069.74056 1069.29004 0.00094
5686 83.40307 1067.65735 1036.84009 0.00096
5687 83.41607 1065.94477 1089.00000 0.00092
5688 83.42907 1064.38510 1102.23999 0.00091
5689 83.44207 1062.74404 1062.75989 0.00094
5690 83.45507 1060.87317 1049.76013 0.00095
5691 83.46807 1059.04865 1102.23999 0.00091
5692 83.48107 1056.97709 1043.28992 0.00096
5693 83.49407 1054.55366 1089.00000 0.00092
5694 83.50707 1052.05499 1095.60986 0.00091
5695 83.52007 1049.48534 1062.75989 0.00094
5696 83.53307 1046.57287 1011.23993 0.00099
5697 83.54607 1043.51250 1036.84009 0.00096
5698 83.55907 1040.35740 1049.76013 0.00095
5699 83.57207 1037.01345 1004.89008 0.00100
5700 83.58507 1033.49768 1011.23993 0.00099
5701 83.59807 1030.33753 967.21002 0.00103
5702 83.61107 1027.61743 985.95996 0.00101
5703 83.62407 1025.41370 1089.00000 0.00092
5704 83.63707 1023.89397 979.68994 0.00102
5705 83.65007 1023.18098 1011.23993 0.00099
5706 83.66307 1023.23916 1004.89008 0.00100
5707 83.67607 1024.03411 1056.25000 0.00095
5708 83.68907 1025.49864 1036.84009 0.00096
5709 83.70207 1027.38309 1056.25000 0.00095
5710 83.71507 1029.36384 1024.00000 0.00098
5711 83.72807 1031.45122 985.95996 0.00101
5712 83.74107 1033.63768 1036.84009 0.00096
5713 83.75407 1035.82435 1069.29004 0.00094
5714 83.76707 1038.05053 1004.89008 0.00100
5715 83.78007 1040.62202 954.81000 0.00105
5716 83.79307 1043.63063 1062.75989 0.00094
5717 83.80607 1046.92334 1075.83997 0.00093
5718 83.81907 1050.45074 1036.84009 0.00096
5719 83.83207 1053.98858 1036.84009 0.00096
5720 83.84507 1056.70794 1049.76013 0.00095
5721 83.85807 1058.52202 992.25000 0.00101
5722 83.87107 1059.37989 1082.41016 0.00092
5723 83.88407 1059.15938 1082.41016 0.00092
5724 83.89707 1057.59117 1095.60986 0.00091
5725 83.91007 1055.73784 1036.84009 0.00096
5726 83.92307 1053.70692 1056.25000 0.00095
5727 83.93607 1051.63512 1075.83997 0.00093
5728 83.94907 1049.85584 998.56000 0.00100
5729 83.96207 1048.39854 1024.00000 0.00098
5730 83.97507 1046.96442 1011.23993 0.00099
5731 83.98807 1045.70803 1069.29004 0.00094
5732 84.00107 1044.77034 1062.75989 0.00094
5733 84.01407 1044.16130 1049.76013 0.00095
5734 84.02707 1043.83141 1049.76013 0.00095
5735 84.04007 1043.95411 1011.23993 0.00099
5736 84.05307 1044.56157 1043.28992 0.00096
5737 84.06607 1045.59192 1043.28992 0.00096
5738 84.07907 1046.87040 1062.75989 0.00094
5739 84.09207 1048.33795 1069.29004 0.00094
5740 84.10507 1049.70105 1036.84009 0.00096
5741 84.11807 1050.27761 1036.84009 0.00096
5742 84.13107 1050.18788 1017.60999 0.00098
5743 84.14407 1049.48226 1030.40991 0.00097
5744 84.15707 1047.92016 1056.25000 0.00095
5745 84.17007 1045.59293 1056.25000 0.00095
5746 84.18307 1042.88079 1043.28992 0.00096
5747 84.19607 1039.84771 1024.00000 0.00098
5748 84.20907 1036.40179 1017.60999 0.00098
5749 84.22207 1033.04506 1062.75989 0.00094
5750 84.23507 1029.93419 1056.25000 0.00095
5751 84.24807 1027.01626 1004.89008 0.00100
5752 84.26107 1024.43077 1024.00000 0.00098
5753 84.27407 1022.51442 1024.00000 0.00098
5754 84.28707 1021.40400 985.95996 0.00101
5755 84.30007 1021.02948 1004.89008 0.00100
5756 84.31307 1021.52749 1036.84009 0.00096
5757 84.32607 1022.96333 1062.75989 0.00094
5758 84.33907 1025.32661 1043.28992 0.00096
5759 84.35207 1028.46414 998.56000 0.00100
5760 84.36507 1032.27848 1004.89008 0.00100
5761 84.37807 1036.59559 1043.28992 0.00096
5762 84.39107 1040.85615 1082.41016 0.00092
5763 84.40407 1045.00071 1069.29004 0.00094
5764 84.41707 1048.76889 1062.75989 0.00094
5765 84.43007 1051.87141 1043.28992 0.00096
5766 84.44307 1053.68873 1056.25000 0.00095
5767 84.45607 1055.02280 1089.00000 0.00092
5768 84.46907 1055.92571 1095.60986 0.00091
5769 84.48207 1056.31922 1082.41016 0.00092
5770 84.49507 1056.40116 1089.00000 0.00092
5771 84.50807 1056.33052 1122.25000 0.00089
5772 84.52107 1055.50696 1082.41016 0.00092
5773 84.53407 1054.02678 1095.60986 0.00091
5774 84.54707 1052.07356 1062.75989 0.00094
5775 84.56007 1049.63441 1082.41016 0.00092
5776 84.57307 1046.53192 1069.29004 0.00094
5777 84.58607 1043.65814 1089.00000 0.00092
5778 84.59907 1041.42583 1095.60986 0.00091
5779 84.61207 1039.98870 1049.76013 0.00095
5780 84.62507 1039.57855 1049.76013 0.00095
5781 84.63807 1040.53552 1049.76013 0.00095
5782 84.65107 1042.86095 1043.28992 0.00096
5783 84.66407 1046.37511 1049.76013 0.00095
5784 84.67707 1051.11340 1075.83997 0.00093
5785 84.69007 1057.24243 1024.00000 0.00098
5786 84.70307 1064.61233 1075.83997 0.00093
5787 84.71607 1072.83150 1142.43994 0.00088
5788 84.72907 1081.79763 1089.00000 0.00092
5789 84.74207 1091.22562 1128.95984 0.00089
5790 84.75507 1100.54643 1122.25000 0.00089
5791 84.76807 1109.10567 1135.69006 0.00088
5792 84.78107 1116.33051 1142.43994 0.00088
5793 84.79407 1121.59015 1108.88989 0.00090
5794 84.80707 1123.68029 1156.00000 0.00087
5795 84.82007 1123.41696 1082.41016 0.00092
5796 84.83307 1121.36196 1135.69006 0.00088
5797 84.84607 1118.02729 1246.08997 0.00080
5798 84.85907 1113.99256 1108.88989 0.00090
5799 84.87207 1110.81963 1095.60986 0.00091
5800 84.88507 1108.90574 1135.69006 0.00088
5801 84.89807 1108.38763 1069.29004 0.00094
5802 84.91107 1109.52159 1156.00000 0.00087
5803 84.92407 1112.57418 1082.41016 0.00092
5804 84.93707 1116.55927 1135.69006 0.00088
5805 84.95007 1120.94225 1115.56006 0.00090
5806 84.96307 1125.23562 1095.60986 0.00091
5807 84.97607 1128.69902 1089.00000 0.00092
5808 84.98907 1129.44666 1128.95984 0.00089
loop_
_refln_index_h
_refln_index_k
_refln_index_l
_refln_d_spacing
_refln_F_squared_calc
_refln_F_squared_meas
_refln_F_squared_sigma
_refln_observed_status
0 0 2 8.77697 393.00 380.53 0.00 o
0 1 1 6.79122 968.02 959.13 0.00 o
1 0 0 6.23933 497.56 495.49 0.00 o
0 1 2 5.64170 184.57 188.64 0.00 o
1 0 2 5.50415 983.18 990.24 0.00 o
1 1 0 4.76057 33.86 33.57 0.00 o
1 0 -2 4.74957 81.38 80.70 0.00 o
1 1 1 4.73835 494.52 490.70 0.00 o
0 1 3 4.58136 4.63 4.67 0.00 o
1 -1 -1 4.46321 930.88 942.39 0.00 o
1 1 2 4.40888 763.94 759.81 0.00 o
0 0 4 4.38849 11.12 10.81 0.00 o
1 -1 -2 3.99150 248.71 250.47 0.00 o
1 1 3 3.92713 437.67 448.60 0.00 o
1 0 4 3.88396 542.90 571.47 0.00 o
0 1 4 3.76993 42.84 43.02 0.00 o
0 2 0 3.68235 50.47 51.49 0.00 o
0 2 1 3.60391 3.42 3.62 0.00 o
1 -1 -3 3.49592 531.71 555.64 0.00 o
1 1 4 3.43548 1137.19 1145.78 0.00 o
0 2 2 3.39561 775.29 782.18 0.00 o
1 0 -4 3.35326 810.20 818.48 0.00 o
1 2 0 3.17124 525.51 528.23 0.00 o
0 1 5 3.16912 526.80 527.44 0.00 o
1 2 1 3.16464 121.34 120.84 0.00 o
2 0 0 3.11966 46.06 47.10 0.00 o
0 2 3 3.11656 584.12 592.47 0.00 o
2 0 2 3.09477 11.16 11.10 0.00 o
1 -2 -1 3.07858 860.25 859.72 0.00 o
1 2 2 3.06058 2.15 2.11 0.00 o
1 -1 -4 3.05181 377.04 370.65 0.00 o
1 1 5 3.00009 49.22 49.58 0.00 o
0 0 6 2.92566 77.80 80.40 0.00 o
1 -2 -2 2.91016 1.93 2.03 0.00 o
2 1 1 2.90163 309.18 317.81 0.00 o
1 2 3 2.88492 576.97 599.70 0.00 o
2 1 0 2.87257 2.54 2.50 0.00 o
2 1 2 2.85310 103.77 101.52 0.00 o
1 0 6 2.82239 1.90 1.87 0.00 o
0 2 4 2.82085 714.51 703.71 0.00 o
2 0 -2 2.80548 1095.85 1080.13 0.00 o
2 -1 -1 2.77250 108.90 105.41 0.00 o
2 0 4 2.75207 17.57 17.52 0.00 o
2 1 3 2.73780 805.88 782.35 0.00 o
0 1 6 2.71897 234.72 224.81 0.00 o
1 -2 -3 2.70039 202.93 197.53 0.00 o
1 -1 -5 2.67828 1044.16 1048.88 0.00 o
1 2 4 2.67224 132.27 128.60 0.00 o
1 1 6 2.63549 645.04 654.07 0.00 o
2 -1 -2 2.62170 103.55 98.71 0.00 o
2 1 4 2.57796 562.32 538.35 0.00 o
0 2 5 2.54099 180.16 175.08 0.00 o
1 0 -6 2.50392 781.66 788.22 0.00 o
1 -2 -4 2.47931 24.45 24.03 0.00 o
1 2 5 2.45134 571.64 583.91 0.00 o
2 -1 -3 2.44429 637.90 641.20 0.00 o
0 3 1 2.43124 11.17 11.10 0.00 o
2 1 5 2.39721 172.96 176.88 0.00 o
2 2 1 2.39674 264.15 269.83 0.00 o
2 2 0 2.38029 720.90 735.72 0.00 o
2 0 -4 2.37478 964.97 968.38 0.00 o
0 1 7 2.37386 365.95 366.15 0.00 o
1 -1 -6 2.37065 636.20 631.05 0.00 o
2 2 2 2.36917 1137.56 1129.40 0.00 o
0 3 2 2.36416 731.98 738.95 0.00 o
1 1 7 2.33552 654.18 690.92 0.00 o
2 -2 -1 2.32241 556.44 557.85 0.00 o
2 0 6 2.32109 137.91 137.82 0.00 o
2 2 3 2.30190 43.51 43.50 0.00 o
0 2 6 2.29068 634.28 634.14 0.00 o
1 3 0 2.28443 1872.08 1822.25 0.00 o
1 3 1 2.28197 0.43 0.42 0.00 o
1 -2 -5 2.26619 14.83 14.79 0.00 o
0 3 3 2.26374 21.70 21.71 0.00 o
2 -1 -4 2.26019 0.61 0.60 0.00 o
1 -3 -1 2.24906 2.34 2.37 0.00 o
1 3 2 2.24201 7.25 7.41 0.00 o
1 2 6 2.24009 756.42 767.96 0.00 o
2 -2 -2 2.23160 20.93 20.49 0.00 o
2 1 6 2.21375 573.20 580.88 0.00 o
2 2 4 2.20444 878.02 880.50 0.00 o
0 0 8 2.19424 58.92 59.74 0.00 o
1 -3 -2 2.18082 1626.20 1621.99 0.00 o
1 0 8 2.17833 62.91 62.49 0.00 o
1 3 3 2.17014 9.21 9.14 0.00 o
0 3 4 2.14247 993.57 994.53 0.00 o
2 -2 -3 2.11910 42.03 44.96 0.00 o
1 -1 -7 2.11783 13.97 14.90 0.00 o
0 1 8 2.10289 704.39 723.44 0.00 o
3 0 2 2.09801 2.71 2.78 0.00 o
1 1 8 2.08888 16.57 17.10 0.00 o
1 -3 -3 2.08824 24.96 25.75 0.00 o
2 2 5 2.08820 660.66 681.58 0.00 o
2 -1 -5 2.08233 378.56 385.95 0.00 o
3 0 0 2.07978 93.19 94.49 0.00 o
1 3 4 2.07514 141.10 144.38 0.00 o
0 2 7 2.07272 229.25 234.32 0.00 o
1 -2 -6 2.07058 11.80 12.08 0.00 o
1 2 7 2.04704 1.77 1.82 0.00 o
2 1 7 2.03878 623.17 651.96 0.00 o
3 1 1 2.02287 5.05 5.15 0.00 o
3 1 2 2.01773 498.82 490.62 0.00 o
0 3 5 2.01185 97.07 97.31 0.00 o
3 0 4 2.00341 97.04 96.68 0.00 o
3 1 0 2.00150 851.92 843.67 0.00 o
2 -2 -4 1.99575 5.74 5.83 0.00 o
3 1 3 1.98669 351.41 359.58 0.00 o
2 0 -6 1.98597 282.01 287.33 0.00 o
1 -3 -4 1.98081 827.58 818.98 0.00 o
1 0 -8 1.97632 29.78 29.57 0.00 o
1 3 5 1.96646 1.40 1.43 0.00 o
2 2 6 1.96356 7.25 7.38 0.00 o
3 0 -2 1.95683 472.91 466.89 0.00 o
3 -1 -1 1.95604 136.79 134.87 0.00 o
2 0 8 1.94198 268.29 275.77 0.00 o
2 3 1 1.93794 0.27 0.28 0.00 o
3 1 4 1.93316 44.55 44.63 0.00 o
2 3 0 1.92921 644.59 645.05 0.00 o
2 3 2 1.92328 316.63 320.20 0.00 o
2 -1 -6 1.91748 4.62 4.73 0.00 o
1 -1 -8 1.90878 648.71 653.38 0.00 o
2 -3 -1 1.89801 93.05 91.17 0.00 o
1 -2 -7 1.89570 274.03 268.00 0.00 o
3 -1 -2 1.89121 360.95 357.89 0.00 o
2 3 3 1.88676 25.13 25.42 0.00 o
0 1 9 1.88544 9.10 9.28 0.00 o
0 2 8 1.88496 296.31 302.74 0.00 o
1 1 9 1.88472 161.71 165.37 0.00 o
0 3 6 1.88057 170.80 175.70 0.00 o
2 1 8 1.87779 512.79 526.33 0.00 o
1 2 8 1.87485 1088.99 1102.58 0.00 o
2 -2 -5 1.87011 148.21 146.21 0.00 o
1 -3 -5 1.86695 8.36 8.16 0.00 o
3 1 5 1.86241 277.86 274.90 0.00 o
1 3 6 1.85227 10.23 10.41 0.00 o
2 -3 -2 1.84747 524.32 536.97 0.00 o
0 4 0 1.84117 63.09 64.25 0.00 o
2 2 7 1.83837 280.07 286.06 0.00 o
3 0 6 1.83472 118.47 120.24 0.00 o
2 3 4 1.83197 11.60 11.67 0.00 o
0 4 1 1.83113 86.33 86.64 0.00 o
3 2 1 1.82668 445.23 441.43 0.00 o
3 2 2 1.82290 253.48 251.46 0.00 o
3 -1 -3 1.81278 537.03 541.95 0.00 o
3 2 0 1.81090 7.73 7.80 0.00 o
0 4 2 1.80195 128.90 130.80 0.00 o
3 2 3 1.79991 97.95 99.18 0.00 o
2 -3 -3 1.78210 0.23 0.23 0.00 o
3 1 6 1.78030 50.58 51.07 0.00 o
3 -2 -1 1.77703 111.24 112.32 0.00 o
3 0 -4 1.77590 81.40 82.25 0.00 o
2 -1 -7 1.76824 4.88 4.96 0.00 o
1 4 0 1.76589 33.66 34.45 0.00 o
1 4 1 1.76475 75.73 77.43 0.00 o
2 3 5 1.76361 20.31 20.73 0.00 o
1 0 10 1.76251 63.62 64.80 0.00 o
3 2 4 1.75982 846.03 852.94 0.00 o
0 4 3 1.75628 640.10 637.58 0.00 o
0 0 10 1.75539 88.15 87.50 0.00 o
0 3 7 1.75425 17.32 17.09 0.00 o
1 -3 -6 1.75295 25.42 24.90 0.00 o
1 -4 -1 1.74940 756.39 731.98 0.00 o
2 -2 -6 1.74796 78.27 75.58 0.00 o
1 4 2 1.74608 27.49 26.52 0.00 o
1 -2 -8 1.74137 157.01 153.76 0.00 o
1 3 7 1.73860 96.65 96.35 0.00 o
1 -1 -9 1.73431 14.03 14.17 0.00 o
2 1 9 1.73264 259.52 263.83 0.00 o
3 -2 -2 1.72799 111.08 112.35 0.00 o
3 -1 -4 1.72641 126.44 127.18 0.00 o
0 2 9 1.72359 295.52 296.04 0.00 o
1 2 9 1.72304 127.88 127.94 0.00 o
2 2 8 1.71774 74.70 74.78 0.00 o
1 -4 -2 1.71670 52.76 52.79 0.00 o
1 1 10 1.71411 37.68 37.66 0.00 o
1 4 3 1.71148 87.65 86.70 0.00 o
0 1 10 1.70756 714.83 696.32 0.00 o
2 -3 -4 1.70685 84.63 82.38 0.00 o
3 2 5 1.70594 31.32 30.44 0.00 o
0 4 4 1.69780 293.81 281.90 0.00 o
3 1 7 1.69223 2.26 2.20 0.00 o
2 3 6 1.68658 21.86 21.59 0.00 o
2 0 -8 1.67663 7.95 7.87 0.00 o
1 -4 -3 1.67043 296.44 289.17 0.00 o
3 -2 -3 1.66755 9.36 9.07 0.00 o
1 4 4 1.66371 82.45 80.09 0.00 o
1 -3 -7 1.64299 14.61 14.85 0.00 o
2 0 10 1.64250 96.80 98.23 0.00 o
3 2 6 1.64217 330.37 334.57 0.00 o
3 0 8 1.64187 308.94 312.06 0.00 o
3 -1 -5 1.63690 9.32 9.14 0.00 o
0 3 8 1.63598 10.99 10.69 0.00 o
2 -1 -8 1.63480 62.49 60.57 0.00 o
2 -2 -7 1.63269 232.62 226.42 0.00 o
0 4 5 1.63055 283.36 274.51 0.00 o
1 3 8 1.62936 162.06 156.47 0.00 o
2 -3 -5 1.62624 1.06 1.02 0.00 o
1 0 -10 1.62539 9.13 8.86 0.00 o
1 -4 -4 1.61390 0.81 0.81 0.00 o
1 4 5 1.60611 281.98 278.83 0.00 o
1 -2 -9 1.60587 210.74 208.28 0.00 o
2 3 7 1.60524 3.25 3.21 0.00 o
2 2 9 1.60454 0.47 0.46 0.00 o
2 1 10 1.60312 96.47 95.00 0.00 o
3 1 8 1.60253 13.22 13.02 0.00 o
3 -2 -4 1.59959 30.16 29.76 0.00 o
3 3 1 1.59744 3.69 3.66 0.00 o
3 3 2 1.59491 27.62 27.55 0.00 o
2 4 1 1.59046 119.24 118.60 0.00 o
1 2 10 1.58979 237.10 235.74 0.00 o
1 -1 -10 1.58719 67.90 67.14 0.00 o
3 3 0 1.58686 28.76 28.44 0.00 o
2 4 0 1.58562 185.91 183.76 0.00 o
0 2 10 1.58456 0.38 0.38 0.00 o
3 0 -6 1.58319 37.37 36.72 0.00 o
2 4 2 1.58232 372.58 365.48 0.00 o
3 3 3 1.57945 49.65 48.46 0.00 o
4 0 2 1.57850 36.40 35.54 0.00 o
3 2 7 1.57228 300.80 293.67 0.00 o
1 1 11 1.57005 57.93 56.41 0.00 o
2 -4 -1 1.56816 348.57 338.08 0.00 o
3 -3 -1 1.56392 1.83 1.80 0.00 o
2 4 3 1.56180 0.23 0.23 0.00 o
4 0 0 1.55983 27.73 27.59 0.00 o
0 1 11 1.55962 235.32 234.18 0.00 o
0 4 6 1.55828 251.90 251.09 0.00 o
3 3 4 1.55215 69.84 69.51 0.00 o
1 -4 -5 1.55050 0.09 0.09 0.00 o
3 -1 -6 1.54783 42.26 42.02 0.00 o
4 0 4 1.54739 272.66 271.00 0.00 o
2 -3 -6 1.54399 770.08 761.22 0.00 o
4 1 2 1.54344 427.31 421.94 0.00 o
1 4 6 1.54207 318.04 313.52 0.00 o
4 1 1 1.54054 110.12 108.65 0.00 o
1 -3 -8 1.53944 131.06 129.23 0.00 o
2 -4 -2 1.53929 118.65 116.98 0.00 o
4 1 3 1.53450 83.86 83.25 0.00 o
2 4 4 1.53029 135.37 134.58 0.00 o
3 -3 -2 1.53018 226.47 225.15 0.00 o
3 -2 -5 1.52761 154.84 154.14 0.00 o
0 3 9 1.52712 28.89 28.77 0.00 o
1 3 9 1.52674 20.42 20.35 0.00 o
4 1 0 1.52598 184.56 184.39 0.00 o
2 -2 -8 1.52591 417.62 417.38 0.00 o
2 3 8 1.52305 19.89 20.03 0.00 o
2 -1 -9 1.51620 222.09 225.45 0.00 o
3 3 5 1.51481 41.10 41.54 0.00 o
3 1 9 1.51433 231.21 233.19 0.00 o
4 1 4 1.51432 340.95 343.86 0.00 o
2 -4 -3 1.50087 9.19 9.30 0.00 o
4 -1 -1 1.50074 146.40 148.08 0.00 o
2 2 10 1.50004 106.17 107.32 0.00 o
3 2 8 1.49956 131.18 132.53 0.00 o
4 0 -2 1.49633 0.97 0.99 0.00 o
2 4 5 1.48977 115.89 117.90 0.00 o
2 1 11 1.48807 10.63 10.78 0.00 o
3 -3 -3 1.48774 12.82 12.99 0.00 o
1 -2 -10 1.48697 386.28 390.91 0.00 o
4 1 5 1.48419 294.24 297.97 0.00 o
0 4 7 1.48411 56.22 56.93 0.00 o
1 -4 -6 1.48333 4.75 4.82 0.00 o
1 0 12 1.47596 442.70 456.94 0.00 o
1 4 7 1.47460 0.66 0.68 0.00 o
4 0 6 1.47457 201.51 207.08 0.00 o
1 2 11 1.47285 185.72 190.45 0.00 o
3 3 6 1.46963 460.32 468.89 0.00 o
0 5 1 1.46778 47.72 48.52 0.00 o
4 -1 -2 1.46637 0.67 0.69 0.00 o
0 2 11 1.46423 89.26 91.66 0.00 o
0 0 12 1.46283 198.84 204.57 0.00 o
2 -3 -7 1.46282 43.91 45.18 0.00 o
1 -1 -11 1.46186 232.69 239.35 0.00 o
3 -1 -7 1.46164 270.44 278.17 0.00 o
3 0 10 1.45740 486.55 500.06 0.00 o
2 -4 -4 1.45508 40.21 41.05 0.00 o
3 -2 -6 1.45446 0.23 0.24 0.00 o
0 5 2 1.45263 35.59 36.24 0.00 o
4 2 2 1.45082 80.76 81.36 0.00 o
4 2 1 1.44840 150.63 149.91 0.00 o
1 1 12 1.44718 47.28 46.65 0.00 o
4 1 6 1.44588 93.45 91.53 0.00 o
1 -3 -9 1.44344 17.71 17.49 0.00 o
4 2 3 1.44339 193.39 191.06 0.00 o
2 3 9 1.44247 0.51 0.51 0.00 o
2 4 6 1.44246 40.49 40.16 0.00 o
3 -3 -4 1.43887 646.88 650.82 0.00 o
2 0 -10 1.43757 11.17 11.23 0.00 o
4 2 0 1.43629 369.10 372.33 0.00 o
0 1 12 1.43480 214.67 217.80 0.00 o
1 5 0 1.43353 12.18 12.31 0.00 o
1 5 1 1.43292 75.64 76.38 0.00 o
1 3 10 1.43172 325.44 329.02 0.00 o
3 1 10 1.42968 0.29 0.30 0.00 o
0 5 3 1.42838 14.58 14.76 0.00 o
2 -2 -9 1.42812 18.46 18.69 0.00 o
0 3 10 1.42790 2.67 2.71 0.00 o
3 2 9 1.42656 43.01 43.59 0.00 o
4 2 4 1.42655 15.60 15.81 0.00 o
4 -1 -3 1.42478 48.62 49.15 0.00 o
1 -5 -1 1.42467 14.22 14.37 0.00 o
1 5 2 1.42287 297.88 301.61 0.00 o
3 3 7 1.41890 2.95 3.01 0.00 o
4 -2 -1 1.41518 7.00 7.12 0.00 o
1 -4 -7 1.41491 133.80 136.15 0.00 o
2 0 12 1.41120 31.41 31.96 0.00 o
2 -1 -10 1.41094 132.67 134.92 0.00 o
0 4 8 1.41043 54.88 55.76 0.00 o
1 -5 -2 1.40684 2.70 2.75 0.00 o
1 4 8 1.40617 212.45 216.14 0.00 o
3 0 -8 1.40467 231.79 235.43 0.00 o
2 2 11 1.40454 136.81 138.96 0.00 o
2 -4 -5 1.40417 107.23 108.92 0.00 o
1 5 3 1.40396 34.20 34.74 0.00 o
4 0 -4 1.40274 59.89 60.67 0.00 o
4 1 7 1.40137 30.15 30.44 0.00 o
4 2 5 1.40128 2.06 2.07 0.00 o
0 5 4 1.39638 16.19 16.40 0.00 o
2 4 7 1.39059 48.86 49.62 0.00 o
4 -2 -2 1.38625 300.80 300.95 0.00 o
2 1 12 1.38598 23.66 23.67 0.00 o
3 -3 -5 1.38581 8.12 8.12 0.00 o
3 4 1 1.38551 156.00 156.16 0.00 o
2 -3 -8 1.38453 310.65 312.16 0.00 o
3 4 2 1.38385 133.90 134.86 0.00 o
1 -2 -11 1.38244 1.48 1.48 0.00 o
3 -2 -7 1.38225 75.55 75.96 0.00 o
1 -5 -3 1.38104 49.62 49.68 0.00 o
3 -1 -8 1.37980 44.42 44.46 0.00 o
3 4 0 1.37858 14.14 14.14 0.00 o
4 -1 -4 1.37797 53.49 53.45 0.00 o
1 0 -12 1.37755 2.72 2.72 0.00 o
1 5 4 1.37723 441.64 440.95 0.00 o
4 0 8 1.37604 0.02 0.02 0.00 o
3 4 3 1.37372 7.76 7.77 0.00 o
1 2 12 1.37000 2.43 2.44 0.00 o
4 2 6 1.36890 10.10 10.16 0.00 o
2 3 10 1.36513 536.20 540.85 0.00 o
3 3 8 1.36476 132.77 133.63 0.00 o
3 -4 -1 1.36346 31.56 31.53 0.00 o
0 2 12 1.35949 91.05 90.69 0.00 o
0 5 5 1.35824 190.06 189.35 0.00 o
3 4 4 1.35564 192.15 191.17 0.00 o
1 -3 -10 1.35525 4.01 3.98 0.00 o
3 2 10 1.35513 5.34 5.31 0.00 o
1 -1 -12 1.35407 8.94 8.90 0.00 o
4 1 8 1.35263 12.69 12.68 0.00 o
4 -2 -3 1.35095 135.91 135.68 0.00 o
2 -4 -6 1.35020 91.47 91.45 0.00 o
3 1 11 1.34975 167.71 167.87 0.00 o
1 -5 -4 1.34857 38.12 38.24 0.00 o
1 -4 -8 1.34715 83.86 84.30 0.00 o
1 3 11 1.34454 5.45 5.47 0.00 o
1 5 5 1.34402 37.90 38.06 0.00 o
1 1 13 1.34137 210.84 213.44 0.00 o
3 -4 -2 1.34093 9.08 9.19 0.00 o
2 -2 -10 1.33914 230.35 232.87 0.00 o
0 4 9 1.33887 118.45 119.85 0.00 o
1 4 9 1.33861 63.86 64.66 0.00 o
0 3 11 1.33797 10.89 11.03 0.00 o
2 4 8 1.33612 4.60 4.64 0.00 o
2 5 1 1.33480 216.76 218.01 0.00 o
2 5 0 1.33194 55.73 55.87 0.00 o
4 2 7 1.33095 14.93 14.95 0.00 o
3 4 5 1.33055 132.95 133.06 0.00 o
3 -3 -6 1.33050 543.87 544.31 0.00 o
2 5 2 1.32999 11.27 11.27 0.00 o
0 1 13 1.32816 153.86 154.10 0.00 o
4 -1 -5 1.32782 38.69 38.78 0.00 o
4 3 2 1.32771 16.05 16.09 0.00 o
4 3 1 1.32586 31.20 31.33 0.00 o
4 3 3 1.32201 0.05 0.05 0.00 o
2 -5 -1 1.32154 13.69 13.71 0.00 o
2 2 12 1.31774 0.96 0.96 0.00 o
2 5 3 1.31773 125.85 125.81 0.00 o
2 -1 -11 1.31746 111.10 111.02 0.00 o
4 3 0 1.31655 0.78 0.78 0.00 o
0 5 6 1.31561 28.90 28.66 0.00 o
3 -2 -8 1.31243 18.15 17.92 0.00 o
3 -4 -3 1.31209 42.48 41.91 0.00 o
1 -5 -5 1.31092 66.04 65.21 0.00 o
4 -2 -4 1.31085 146.87 145.04 0.00 o
2 -3 -9 1.31025 0.18 0.18 0.00 o
3 3 9 1.30904 1.58 1.57 0.00 o
4 3 4 1.30904 15.93 15.80 0.00 o
1 5 6 1.30581 110.98 110.51 0.00 o
2 -5 -2 1.30413 40.33 40.09 0.00 o
3 -1 -9 1.30309 84.16 83.63 0.00 o
4 1 9 1.30143 26.27 26.00 0.00 o
4 -3 -1 1.30024 11.02 10.89 0.00 o
3 4 6 1.29962 145.11 143.39 0.00 o
2 5 4 1.29864 238.38 234.95 0.00 o
4 0 -6 1.29558 230.86 226.91 0.00 o
2 1 13 1.29527 12.42 12.19 0.00 o
2 -4 -7 1.29490 197.72 193.64 0.00 o
3 0 12 1.29465 133.72 130.78 0.00 o
2 3 11 1.29197 0.04 0.04 0.00 o
1 -2 -12 1.29022 394.46 384.16 0.00 o
4 3 5 1.28943 19.88 19.48 0.00 o
4 2 8 1.28898 7.50 7.37 0.00 o
3 2 11 1.28649 34.03 34.06 0.00 o
1 -4 -9 1.28140 83.47 83.97 0.00 o
2 4 9 1.28072 34.04 34.19 0.00 o
2 -5 -3 1.28051 1.16 1.16 0.00 o
1 2 13 1.27923 23.53 23.56 0.00 o
3 -4 -4 1.27820 5.49 5.51 0.00 o
4 -3 -2 1.27769 109.92 110.36 0.00 o
4 -1 -6 1.27599 29.16 29.30 0.00 o
3 1 12 1.27510 0.38 0.39 0.00 o
1 -3 -11 1.27471 32.54 32.73 0.00 o
3 -3 -7 1.27456 1.25 1.26 0.00 o
2 5 5 1.27360 12.80 12.84 0.00 o
1 4 10 1.27319 129.30 129.49 0.00 o
0 4 10 1.27049 2.64 2.65 0.00 o
0 5 7 1.27006 170.56 171.61 0.00 o
1 -5 -6 1.26957 199.95 201.50 0.00 o
1 0 14 1.26782 123.26 124.61 0.00 o
0 2 13 1.26776 24.67 24.93 0.00 o
4 0 10 1.26764 159.96 161.63 0.00 o
4 -2 -5 1.26746 66.43 67.08 0.00 o
1 3 12 1.26494 37.39 37.54 0.00 o
3 4 7 1.26414 188.81 189.05 0.00 o
1 5 7 1.26408 124.72 124.85 0.00 o
4 3 6 1.26407 250.58 250.83 0.00 o
5 0 2 1.26302 0.23 0.23 0.00 o
1 -1 -13 1.26051 26.57 26.67 0.00 o
2 -2 -11 1.25844 81.15 81.18 0.00 o
0 3 12 1.25664 110.56 110.72 0.00 o
0 0 14 1.25385 19.97 20.03 0.00 o
3 3 10 1.25320 6.63 6.64 0.00 o
5 0 4 1.25244 181.67 182.00 0.00 o
2 0 -12 1.25196 1.08 1.08 0.00 o
2 -5 -4 1.25172 0.05 0.05 0.00 o
4 -3 -3 1.24990 28.89 29.17 0.00 o
1 1 14 1.24944 25.96 26.19 0.00 o
3 0 -10 1.24939 156.99 158.40 0.00 o
4 1 10 1.24927 35.43 35.74 0.00 o
5 0 0 1.24787 25.40 25.60 0.00 o
3 -2 -9 1.24590 75.58 76.29 0.00 o
5 1 2 1.24485 1.07 1.08 0.00 o
4 2 9 1.24445 61.02 61.66 0.00 o
2 5 6 1.24366 327.50 331.09 0.00 o
5 1 3 1.24285 1.19 1.21 0.00 o
5 1 1 1.24061 101.89 103.11 0.00 o
3 -4 -5 1.24057 204.41 206.86 0.00 o
2 -3 -10 1.24052 61.11 61.84 0.00 o
2 -4 -8 1.23966 114.13 115.45 0.00 o
2 2 13 1.23905 36.65 37.06 0.00 o
0 1 14 1.23607 33.49 33.55 0.00 o
5 1 4 1.23471 2.61 2.60 0.00 o
2 -1 -12 1.23425 216.93 214.93 0.00 o
4 3 7 1.23400 0.45 0.45 0.00 o
3 -1 -10 1.23179 124.11 120.41 0.00 o
2 0 14 1.23131 122.93 119.72 0.00 o
5 1 0 1.23033 85.64 83.82 0.00 o
0 6 0 1.22745 219.22 220.55 0.00 o
1 -5 -7 1.22587 0.16 0.16 0.00 o
2 4 10 1.22567 11.19 11.35 0.00 o
3 4 8 1.22540 71.93 72.99 0.00 o
0 6 1 1.22446 5.65 5.75 0.00 o
4 -1 -7 1.22379 159.22 161.97 0.00 o
2 3 12 1.22345 626.61 637.14 0.00 o
0 5 8 1.22295 333.62 338.41 0.00 o
4 -2 -6 1.22214 53.70 54.16 0.00 o
3 2 12 1.22136 30.12 30.28 0.00 o
5 1 5 1.22078 122.08 122.61 0.00 o
1 5 8 1.22018 6.30 6.32 0.00 o
3 -3 -8 1.21920 158.91 158.55 0.00 o
2 -5 -5 1.21887 0.55 0.55 0.00 o
1 -4 -10 1.21851 176.15 175.22 0.00 o
5 0 6 1.21796 133.48 132.76 0.00 o
4 -3 -4 1.21793 169.07 168.18 0.00 o
0 6 2 1.21562 233.57 232.83 0.00 o
2 1 14 1.21446 100.08 100.38 0.00 o
5 -1 -1 1.21444 78.24 78.49 0.00 o
1 4 11 1.21070 135.78 138.28 0.00 o
2 5 7 1.20995 14.11 14.37 0.00 o
5 0 -2 1.20959 3.46 3.52 0.00 o
1 -2 -13 1.20853 62.29 63.53 0.00 o
3 5 1 1.20660 34.93 35.54 0.00 o
0 4 11 1.20590 26.17 26.56 0.00 o
3 1 13 1.20588 0.34 0.34 0.00 o
3 5 2 1.20551 212.75 215.79 0.00 o
1 6 0 1.20436 55.48 56.31 0.00 o
1 6 1 1.20400 12.96 13.14 0.00 o
3 5 0 1.20202 252.91 255.83 0.00 o
5 1 6 1.20164 12.48 12.63 0.00 o
1 -3 -12 1.20133 57.70 58.40 0.00 o
0 6 3 1.20130 0.33 0.33 0.00 o
3 -4 -6 1.20042 0.71 0.72 0.00 o
4 3 8 1.20033 488.60 495.60 0.00 o
1 -6 -1 1.19909 5.55 5.63 0.00 o
3 5 3 1.19879 119.75 121.21 0.00 o
1 2 14 1.19876 48.52 49.11 0.00 o
4 2 10 1.19860 6.02 6.09 0.00 o
4 4 2 1.19837 34.50 34.88 0.00 o
3 3 11 1.19832 4.29 4.34 0.00 o
1 6 2 1.19802 264.55 267.22 0.00 o
4 1 11 1.19730 88.49 89.16 0.00 o
4 4 1 1.19701 68.43 68.87 0.00 o
5 2 2 1.19470 168.25 167.81 0.00 o
4 4 3 1.19417 86.50 86.16 0.00 o
1 0 -14 1.19405 97.39 96.97 0.00 o
5 -1 -2 1.19360 206.31 205.22 0.00 o
5 2 3 1.19294 73.39 72.94 0.00 o
1 3 13 1.19244 5.79 5.75 0.00 o
3 -5 -1 1.19195 26.49 26.32 0.00 o
5 2 1 1.19096 4.52 4.50 0.00 o
4 4 0 1.19014 96.36 96.31 0.00 o
1 -6 -2 1.18840 2.02 2.03 0.00 o
4 0 -8 1.18739 381.40 384.26 0.00 o
0 2 14 1.18693 16.73 16.87 0.00 o
3 5 4 1.18672 24.48 24.67 0.00 o
1 6 3 1.18667 53.70 54.12 0.00 o
5 2 4 1.18573 9.90 9.96 0.00 o
2 -4 -9 1.18548 18.97 19.10 0.00 o
2 -2 -12 1.18533 54.80 55.15 0.00 o
3 4 9 1.18459 14.38 14.43 0.00 o
4 4 4 1.18459 19.92 19.99 0.00 o
3 -2 -10 1.18314 24.28 24.04 0.00 o
0 3 13 1.18314 15.39 15.24 0.00 o
2 -5 -6 1.18306 15.39 15.22 0.00 o
4 -3 -5 1.18289 1.40 1.38 0.00 o
0 6 4 1.18208 6.53 6.40 0.00 o
5 2 0 1.18185 253.83 248.01 0.00 o
1 -5 -8 1.18101 193.81 188.20 0.00 o
1 -1 -14 1.17866 52.25 50.27 0.00 o
4 -4 -1 1.17805 0.01 0.01 0.00 o
5 1 7 1.17803 85.21 82.55 0.00 o
3 -5 -2 1.17682 114.07 111.41 0.00 o
4 -2 -7 1.17605 1.34 1.31 0.00 o
2 -3 -11 1.17555 5.73 5.63 0.00 o
0 5 9 1.17542 1.89 1.86 0.00 o
1 5 9 1.17525 101.89 100.21 0.00 o
2 5 8 1.17356 154.03 152.48 0.00 o
5 2 5 1.17338 60.12 59.54 0.00 o
1 -6 -3 1.17273 0.93 0.92 0.00 o
4 -1 -8 1.17225 3.32 3.30 0.00 o
2 4 11 1.17190 174.15 172.99 0.00 o
1 6 4 1.17039 42.32 42.00 0.00 o
4 4 5 1.17000 15.68 15.57 0.00 o
3 5 5 1.16978 51.46 51.16 0.00 o
1 1 15 1.16893 49.40 49.28 0.00 o
5 -1 -3 1.16858 3.12 3.12 0.00 o
2 2 14 1.16776 0.49 0.49 0.00 o
5 -2 -1 1.16775 27.77 27.83 0.00 o
3 -1 -11 1.16587 11.10 11.15 0.00 o
3 -3 -9 1.16531 1.16 1.16 0.00 o
5 0 8 1.16510 222.98 224.03 0.00 o
4 3 9 1.16412 0.20 0.20 0.00 o
4 -4 -2 1.16121 129.53 130.12 0.00 o
4 0 12 1.16055 116.43 116.89 0.00 o
3 2 13 1.16012 45.70 45.83 0.00 o
2 -1 -13 1.15995 1.27 1.27 0.00 o
2 3 13 1.15970 0.74 0.74 0.00 o
1 -4 -11 1.15897 4.96 4.95 0.00 o
3 -4 -7 1.15885 147.52 147.27 0.00 o
0 6 5 1.15867 0.21 0.21 0.00 o
3 -5 -3 1.15718 60.89 60.88 0.00 o
5 2 6 1.15635 47.17 47.04 0.00 o
3 0 14 1.15594 0.10 0.10 0.00 o
0 1 15 1.15576 2.33 2.32 0.00 o
5 0 -4 1.15414 62.25 62.01 0.00 o
1 -6 -4 1.15265 171.57 171.07 0.00 o
4 2 11 1.15248 0.36 0.36 0.00 o
1 4 12 1.15161 52.58 52.49 0.00 o
4 4 6 1.15095 38.22 38.20 0.00 o
5 1 8 1.15079 1.37 1.37 0.00 o
1 6 5 1.14981 67.00 67.13 0.00 o
5 -2 -2 1.14918 42.99 43.15 0.00 o
3 5 6 1.14859 21.84 21.97 0.00 o
4 1 12 1.14640 116.04 117.63 0.00 o
4 -3 -6 1.14580 12.78 12.99 0.00 o
0 4 12 1.14534 0.97 0.98 0.00 o
2 -5 -7 1.14533 0.37 0.38 0.00 o
3 3 12 1.14516 133.67 135.97 0.00 o
2 6 1 1.14402 0.16 0.16 0.00 o
3 4 10 1.14273 42.82 43.32 0.00 o
2 1 15 1.14223 216.24 218.59 0.00 o
2 6 0 1.14222 56.78 57.39 0.00 o
3 1 14 1.14196 0.74 0.75 0.00 o
2 6 2 1.14098 25.64 25.76 0.00 o
5 -1 -4 1.14023 158.82 159.04 0.00 o
4 -4 -3 1.14022 144.84 145.04 0.00 o
1 -5 -9 1.13596 77.96 78.36 0.00 o
1 -2 -14 1.13583 74.13 74.52 0.00 o
2 -6 -1 1.13564 28.51 28.66 0.00 o
2 5 9 1.13549 33.35 33.52 0.00 o
5 2 7 1.13527 28.57 28.72 0.00 o
