#------------------------------------------------------------------------------
#$Date: 2022-08-06 22:37:59 +0300 (Sat, 06 Aug 2022) $
#$Revision: 277147 $
#$URL: file:///home/coder/svn-repositories/cod/cif/1/56/74/1567431.cif $
#------------------------------------------------------------------------------
#
# This file is available in the Crystallography Open Database (COD),
# http://www.crystallography.net/
#
# All data on this site have been placed in the public domain by the
# contributors.
#
data_1567431
loop_
_publ_author_name
'Seidel, Anne'
'Weigel, Mareike'
'Ehrlich, Lisa'
'Gericke, Robert'
'Brendler, Erica'
'Wagler, J\"org'
_publ_section_title
;
 Molecular Structures of the Silicon Pyridine-2-(thi)olates Me3Si(pyX),
 Me2Si(pyX)2 and Ph2Si(pyX)2 (py = 2-Pyridyl, X = O, S), and Their Intra-
 and Intermolecular Ligand Exchange in Solution
;
_journal_issue                   8
_journal_name_full               Crystals
_journal_page_first              1054
_journal_paper_doi               10.3390/cryst12081054
_journal_volume                  12
_journal_year                    2022
_chemical_formula_moiety         'C8 H13 N S Si'
_chemical_formula_sum            'C8 H13 N S Si'
_chemical_formula_weight         183.34
_space_group_crystal_system      monoclinic
_space_group_IT_number           11
_space_group_name_Hall           '-P 2yb'
_space_group_name_H-M_alt        'P 1 21/m 1'
_atom_sites_solution_hydrogens   geom
_audit_creation_method           SHELXL-2014/7
_cell_angle_alpha                90
_cell_angle_beta                 97.954(9)
_cell_angle_gamma                90
_cell_formula_units_Z            2
_cell_length_a                   6.6079(7)
_cell_length_b                   7.2078(6)
_cell_length_c                   11.1025(12)
_cell_measurement_reflns_used    1404
_cell_measurement_temperature    220(2)
_cell_measurement_theta_max      28.33
_cell_measurement_theta_min      2.83
_cell_volume                     523.71(9)
_computing_cell_refinement       'STOE X-AREA'
_computing_data_collection       'STOE X-AREA'
_computing_data_reduction        'STOE X-RED'
_computing_structure_refinement  'SHELXL-2014/7 (Sheldrick, 2014)'
_computing_structure_solution    SHELXS97
_diffrn_ambient_temperature      220(2)
_diffrn_measured_fraction_theta_full 0.998
_diffrn_measured_fraction_theta_max 0.999
_diffrn_measurement_device_type  'Stoe IPDS-2T'
_diffrn_measurement_method       'omega scans'
_diffrn_radiation_type           MoK\a
_diffrn_radiation_wavelength     0.71073
_diffrn_reflns_av_R_equivalents  0.0573
_diffrn_reflns_av_unetI/netI     0.0273
_diffrn_reflns_Laue_measured_fraction_full 0.998
_diffrn_reflns_Laue_measured_fraction_max 0.999
_diffrn_reflns_limit_h_max       8
_diffrn_reflns_limit_h_min       -8
_diffrn_reflns_limit_k_max       9
_diffrn_reflns_limit_k_min       -9
_diffrn_reflns_limit_l_max       14
_diffrn_reflns_limit_l_min       -14
_diffrn_reflns_number            7376
_diffrn_reflns_point_group_measured_fraction_full 0.998
_diffrn_reflns_point_group_measured_fraction_max 0.999
_diffrn_reflns_theta_full        25.242
_diffrn_reflns_theta_max         27.997
_diffrn_reflns_theta_min         3.113
_exptl_absorpt_coefficient_mu    0.367
_exptl_absorpt_correction_T_max  0.6556
_exptl_absorpt_correction_T_min  0.1135
_exptl_absorpt_correction_type   integration
_exptl_absorpt_process_details   XShape
_exptl_crystal_colour            colorless
_exptl_crystal_density_diffrn    1.163
_exptl_crystal_description       column
_exptl_crystal_F_000             196
_exptl_crystal_size_max          25
_exptl_crystal_size_mid          1.000
_exptl_crystal_size_min          1.000
_refine_diff_density_max         0.254
_refine_diff_density_min         -0.244
_refine_diff_density_rms         0.045
_refine_ls_extinction_coef       0.127(14)
_refine_ls_extinction_expression Fc^*^=kFc[1+0.001xFc^2^\l^3^/sin(2\q)]^-1/4^
_refine_ls_extinction_method     'SHELXL-2014/7 (Sheldrick 2014'
_refine_ls_goodness_of_fit_ref   1.106
_refine_ls_hydrogen_treatment    constr
_refine_ls_matrix_type           full
_refine_ls_number_parameters     67
_refine_ls_number_reflns         1356
_refine_ls_number_restraints     0
_refine_ls_restrained_S_all      1.106
_refine_ls_R_factor_all          0.0354
_refine_ls_R_factor_gt           0.0330
_refine_ls_shift/su_max          0.001
_refine_ls_shift/su_mean         0.000
_refine_ls_structure_factor_coef Fsqd
_refine_ls_weighting_details
'w=1/[\s^2^(Fo^2^)+(0.0463P)^2^+0.1160P] where P=(Fo^2^+2Fc^2^)/3'
_refine_ls_weighting_scheme      calc
_refine_ls_wR_factor_gt          0.0914
_refine_ls_wR_factor_ref         0.0948
_reflns_Friedel_coverage         0.000
_reflns_number_gt                1255
_reflns_number_total             1356
_reflns_threshold_expression     'I > 2\s(I)'
_cod_data_source_file
CIFs_all-in-one_SeidelWeigelEhrlichGerickeBrendlerWagler_pyOpyS-silanes.cif
_cod_data_source_block           pyssime3_01
_cod_original_sg_symbol_H-M      'P 21/m'
_cod_database_code               1567431
_shelx_shelxl_version_number     2014/7
_shelx_space_group_comment
;
The symmetry employed for this shelxl refinement is uniquely defined
by the following loop, which should always be used as a source of
symmetry information in preference to the above space-group names.
They are only intended as comments.
;
_shelx_estimated_absorpt_t_min   0.039
_shelx_estimated_absorpt_t_max   0.710
_shelx_res_file
;

    pyssime3_01.res created by SHELXL-2014/7


TITL pyssime3_01
CELL  0.71073    6.6079   7.2078  11.1025   90.000   97.954   90.000
ZERR     2.00    0.0007   0.0006   0.0012    0.000    0.009    0.000
LATT 1
SYMM -X, Y+ 0.50000, -Z
SFAC C  H  N  Si S
UNIT 16  26  2  2  2
omit 0 2 0
OMIT 0 56
L.S. 4
ACTA
BOND $H
CONF
TEMP -53
SIZE 1.0 1.0 1.0
FMAP 2
PLAN 20
WGHT    0.046300    0.116000
EXTI    0.127397
FVAR       1.74674
MOLE 1
S1    5    0.463042    0.250000    0.214538    10.50000    0.03142    0.07310 =
         0.03880    0.00000    0.00415    0.00000
SI1   4    0.749730    0.250000    0.141256    10.50000    0.03397    0.03442 =
         0.03940    0.00000    0.00700    0.00000
N1    3    0.739523    0.250000    0.414648    10.50000    0.04429    0.07109 =
         0.04041    0.00000    0.00360    0.00000
C1    1    0.540994    0.250000    0.374124    10.50000    0.04111    0.04148 =
         0.03895    0.00000    0.00903    0.00000
C2    1    0.390223    0.250000    0.450217    10.50000    0.05062    0.05579 =
         0.05020    0.00000    0.01838    0.00000
AFIX  43
H2    2    0.250779    0.250000    0.418428    10.50000   -1.20000
AFIX   0
C3    1    0.453321    0.250000    0.574358    10.50000    0.08125    0.06274 =
         0.04728    0.00000    0.02876    0.00000
AFIX  43
H3    2    0.356248    0.250000    0.628767    10.50000   -1.20000
AFIX   0
C4    1    0.657825    0.250000    0.617709    10.50000    0.08626    0.06744 =
         0.03813    0.00000    0.00596    0.00000
AFIX  43
H4    2    0.703170    0.250000    0.701779    10.50000   -1.20000
AFIX   0
C5    1    0.793747    0.250000    0.536059    10.50000    0.05790    0.08233 =
         0.04248    0.00000   -0.00251    0.00000
AFIX  43
H5    2    0.933840    0.250000    0.566287    10.50000   -1.20000
AFIX   0
C6    1    0.899140    0.035771    0.183726    11.00000    0.05194    0.04363 =
         0.06876    0.00223    0.00682    0.00934
AFIX 137
H6A   2    1.025050    0.038797    0.148042    11.00000   -1.50000
H6B   2    0.819473   -0.071833    0.153757    11.00000   -1.50000
H6C   2    0.930893    0.028514    0.271550    11.00000   -1.50000
AFIX   0
C7    1    0.659038    0.250000   -0.025634    10.50000    0.06509    0.05710 =
         0.03985    0.00000    0.01149    0.00000
AFIX 137
H7A   2    0.615102    0.126033   -0.051284    10.50000   -1.50000
H7B   2    0.769551    0.288573   -0.069092    10.50000   -1.50000
H7C   2    0.545337    0.335394   -0.043240    10.50000   -1.50000
AFIX   0
HKLF 4

REM  pyssime3_01
REM R1 =  0.0330 for    1255 Fo > 4sig(Fo)  and  0.0354 for all    1356 data
REM     67 parameters refined using      0 restraints

END

WGHT      0.0455      0.1175

REM Highest difference peak  0.254,  deepest hole -0.244,  1-sigma level  0.045
Q1    1   0.4401  0.2500  0.5043  10.50000  0.05    0.25
Q2    1   0.4608  0.2500  0.4056  10.50000  0.05    0.21
Q3    1   0.8644  0.1409  0.1738  11.00000  0.05    0.21
Q4    1   0.7630  0.2500  0.0335  10.50000  0.05    0.17
Q5    1   0.7962  0.0884  0.1608  11.00000  0.05    0.16
Q6    1   0.7407  0.2500  0.4572  10.50000  0.05    0.16
Q7    1   0.5097  0.1531  0.2415  11.00000  0.05    0.16
Q8    1   0.5631  0.1881  0.1594  11.00000  0.05    0.15
Q9    1   0.4934  0.2500  0.3206  10.50000  0.05    0.14
Q10   1   0.7717  0.1646  0.3931  11.00000  0.05    0.14
Q11   1   0.8723 -0.0687  0.1158  11.00000  0.05    0.14
Q12   1   0.6421  0.2500  0.0551  10.50000  0.05    0.13
Q13   1   0.2007  0.2500  0.3743  10.50000  0.05    0.12
Q14   1   0.8267 -0.0592  0.2436  11.00000  0.05    0.12
Q15   1   0.2544  0.2500  0.5953  10.50000  0.05    0.12
Q16   1   0.7854 -0.1076  0.2190  11.00000  0.05    0.11
Q17   1   0.7797  0.1858  0.4795  11.00000  0.05    0.11
Q18   1   0.2310  0.1414  0.4007  11.00000  0.05    0.11
Q19   1   0.7104  0.2500  0.5697  10.50000  0.05    0.11
Q20   1   0.3308  0.1581  0.1644  11.00000  0.05    0.11
;
_shelx_res_checksum              14165
_shelx_hkl_file
;
  -3  -3  13    0.05    2.99   0
  -3   4  11    0.75    0.69   0
  -2   0   4 3165.25    7.88   0
  -2   1   4  435.92    2.64   0
  -2   5   7    4.94    0.75   0
  -1   4   3   90.89    1.21   0
  -1   5   4  163.59    1.44   0
   0   8   7    0.58    0.66   0
   2   8   3    0.92    0.71   0
   4   8   1   -0.04    0.84   0
   5  -7   1    0.37    0.73   0
   5   3  -4  614.93    4.09   0
   6  -5  -2  164.77    1.52   0
   7  -4  -3   11.91    0.84   0
   8  -2  -4   -0.33    0.79   0
  -3   2   8   50.19    0.97   0
  -3   3   9  109.50    1.19   0
  -3   4  12   20.52    0.88   0
  -3   4  13   40.14    1.09   0
  -2   6  11    0.29    0.77   0
  -1  -1   2  347.27    5.42   0
   0  -7   8   -0.10    0.84   0
   2  -8   6   -0.42    0.77   0
   4  -3  -3    0.68    0.82   0
   4   0  -4   13.20    0.92   0
   4   1  -4    0.74    1.00   0
   5  -2  -4    0.97    0.77   0
  -3   3  10    1.25    0.57   0
  -1   6   6   50.41    1.03   0
  -1   7   9    0.89    0.68   0
   0   8   8    0.08    0.60   0
   4  -7   1  103.54    1.46   0
   5  -6  -1   48.56    1.00   0
   5  -5  -2   -1.10    0.51   0
   5  -4  -3  451.98    2.42   0
   7  -3  -4    1.19    0.67   0
   7   4  -4   97.81    1.95   0
  -3   2   9   39.18    0.83   0
  -3   3  11    0.33    0.64   0
  -1   7  10    8.39    0.84   0
   2  -5   0  135.65    1.50   0
   3  -8   4    0.61    0.59   0
   3  -5  -1  210.46    1.69   0
   4  -1  -4    0.57    0.78   0
   4   4  -3    5.21    1.10   0
   6  -3  -4  157.78    1.34   0
   7   1  -5   54.26    1.06   0
   8  -3  -4    0.44    0.59   0
   8   0  -5   78.64    1.17   0
   8   1  -5    2.95    0.88   0
  -3   3  12   25.93    0.78   0
  -3   3  13    3.68    0.83   0
  -2   5   9   -0.35    0.57   0
  -1  -6   8   46.79    2.35   0
  -1   6   7  118.61    1.25   0
   0  -5   3   19.28    1.16   0
   0   6   4  118.88    1.33   0
   0   7   6   19.31    0.81   0
   1  -2  -1   83.41    1.52   0
   1   6   2  275.00    2.03   0
   2  -8   5    8.11    1.06   0
   2   7   2   93.80    1.34   0
   2   8   4   26.31    0.89   0
   3  -6   0   20.29    0.80   0
   3  -4  -2 1224.69    3.69   0
   4  -5  -2   13.20    0.76   0
   4   2  -4   29.32    1.21   0
   5  -7   0   11.96    0.63   0
   6   0  -5    2.95    0.71   0
   6   1  -5  440.73    2.60   0
   7  -5  -3  162.61    1.58   0
   7  -1  -5   49.59    1.01   0
   8  -1  -5    1.22    0.78   0
  -3   0   9   -0.06    0.55   0
  -2   2   5   69.12    1.08   0
  -2   5  10   25.11    0.76   0
  -1  -4   4   39.11    1.92   0
  -1   1   2  367.41    2.93   0
   0  -7   7   19.32    1.13   0
   0  -3   1 1275.09    5.84   0
   2  -6   1   15.21    0.68   0
   4  -6  -1    6.59    0.77   0
   4   7   0    3.56    0.77   0
   5  -3  -4  631.23    2.62   0
   6  -6  -2   34.09    1.01   0
   6  -5  -3  121.04    1.35   0
   6  -1  -5  447.67    2.39   0
   6   4  -4  139.21    2.36   0
   7  -4  -4  115.15    1.28   0
   7  -2  -5    0.29    0.59   0
   7   2  -5    0.38    0.62   0
   8   2  -5   49.52    1.21   0
  -3   2  11   26.64    0.72   0
  -3   2  12    8.96    0.69   0
  -2   3   6  559.06    2.44   0
  -2   5  11  105.27    1.11   0
  -2   5  12    9.41    0.79   0
  -1  -3   3  260.33    5.26   0
  -1   3   3  245.14    1.83   0
  -1   4   4   39.55    0.97   0
  -1   6   8   65.74    1.07   0
   0   7   7   21.34    0.79   0
   1  -8   7    0.10    0.96   0
   1  -5   1  319.85    2.37   0
   1  -4   0 1324.24    4.56   0
   1   5   1  313.27    2.36   0
   1   8   7   -0.22    0.72   0
   3  -8   3    1.01    0.73   0
   3  -7   1    0.25    0.67   0
   3   7   1    1.27    0.65   0
   3   8   3    0.17    0.83   0
   4  -8   2    1.61    0.61   0
   4  -7   0    8.74    0.71   0
   4  -4  -3    8.71    0.57   0
   4  -2  -4   29.01    0.96   0
   6  -7  -1   -0.44    0.78   0
   6  -4  -4  158.31    1.42   0
   8  -2  -5   49.46    1.08   0
  -3  -1  10    1.58    0.60   0
  -3  -1  14  123.45    1.96   0
  -3   1  10    3.08    0.42   0
  -3   1  14  137.93    1.71   0
  -2   4   8   55.04    0.94   0
   0   3   1 1364.60    5.02   0
   0   5   3   19.90    0.90   0
   1  -7   4  358.46    2.65   0
   2  -3  -2  264.51    1.95   0
   3  -3  -3 2696.80    5.47   0
   4   8   2    1.15    0.74   0
   5  -6  -2    2.12    0.70   0
   5  -5  -3    3.88    0.67   0
   6  -2  -5   45.56    0.86   0
   6   2  -5   46.90    1.09   0
  -3  -1  11    2.25    0.70   0
  -3  -1  13    1.39    1.00   0
  -3   0  11   13.22    0.71   0
  -3   0  14   38.05    1.29   0
  -3   1  11    1.68    0.45   0
  -3   1  13    2.52    0.71   0
  -1   0   2 3012.17   10.16   0
  -1   5   6   16.82    0.70   0
  -1   6   9   42.74    0.76   0
   0   6   5  136.86    1.35   0
   0   7   8    1.29    0.64   0
   2  -8   4   36.58    1.01   0
   2  -7   2  130.94    1.48   0
   2   6   1   29.83    1.02   0
   2   8   5    7.21    0.71   0
   5  -7  -1    6.25    0.79   0
   5  -1  -5  394.67    2.24   0
   5   1  -5  390.49    2.55   0
   7  -3  -5   14.43    0.75   0
   8  -3  -5    3.76    0.84   0
  -2   3   7    9.19    0.75   0
  -1   6  11   30.19    0.87   0
   0  -6   4  112.52    1.85   0
   0   4   2   22.13    0.72   0
   0   7   9   25.18    0.83   0
   1   7   5    9.72    0.73   0
   4  -8   1   11.83    0.77   0
   4  -3  -4   32.31    0.89   0
   5  -4  -4    0.31    0.54   0
   6  -3  -5  296.55    1.82   0
   8   3  -5    2.83    0.89   0
  -2   2   6  569.70    2.47   0
  -2   4  11   -0.34    0.60   0
  -2   4  12   15.19    0.78   0
  -2   4  13   -0.03    0.68   0
  -1   5   7  301.72    1.80   0
   0   7  10   18.32    0.80   0
   1  -8   6   23.15    1.20   0
   1  -3  -1 1072.88    4.13   0
   1   6   3  114.23    1.37   0
   2   7   3   26.61    0.86   0
   3  -8   2   30.85    0.98   0
   3  -6  -1  330.92    1.88   0
   3  -5  -2   18.58    0.69   0
   3   8   4   28.93    1.00   0
   5  -2  -5  191.35    1.45   0
   6  -7  -2   50.83    1.03   0
   6  -6  -3  248.08    1.81   0
   7   3  -5   14.43    0.90   0
  -2   3   8 1391.61    3.66   0
  -1   4   5   17.11    0.70   0
   0  -7   6   22.28    1.13   0
   0  -1   0   13.67    0.87   0
   0   6   6    0.32    0.62   0
   2  -6   0   55.36    1.06   0
   2  -5  -1   -0.14    0.56   0
   3  -7   0  464.06    2.39   0
   3   6   0   19.06    0.96   0
   4  -5  -3   12.21    0.56   0
   4   6  -1    5.91    1.00   0
   7  -4  -5    9.90    0.77   0
   7  -1  -6    2.84    0.61   0
   7   0  -6    8.97    0.69   0
   8  -1  -6  177.40    1.67   0
  -1   2   3   20.65    0.87   0
  -1   3   4    8.15    0.63   0
  -1   5   8  466.93    2.19   0
   0   5   4  703.09    2.78   0
   1  -7   3   78.42    1.42   0
   1   7   6   85.24    1.13   0
   2  -4  -2  705.43    2.89   0
   2  -1  -3 7337.33   10.56   0
   2   0  -3  390.86    2.87   0
   2   5   0  130.78    1.72   0
   3  -4  -3  280.56    1.77   0
   3  -1  -4   67.95    1.11   0
   3   0  -4  747.96    3.64   0
   3   3  -3 2803.64   15.44   0
   4   8   3   70.13    1.35   0
   5  -6  -3  241.24    1.74   0
   5   2  -5  195.74    2.06   0
   7  -2  -6    0.04    0.63   0
   7   1  -6    2.82    0.68   0
   8  -2  -6   29.01    0.94   0
   8   1  -6  177.43    1.72   0
  -2   1   6 1314.26    4.02   0
  -2   2   7 1247.90    3.72   0
  -2   3   9   61.41    0.84   0
  -2   3  13   -0.04    0.74   0
  -2   3  14   36.93    0.85   0
  -1  -5   5    9.10    1.29   0
  -1   5   9   55.74    0.92   0
   0   6   7   38.78    0.82   0
   2  -8   3   27.48    0.94   0
   2  -7   1    0.07    0.64   0
   2   4  -1  619.14    4.45   0
   3  -2  -4 1971.29    4.67   0
   3   7   2   31.85    0.91   0
   4  -4  -4    5.10    0.48   0
   5  -7  -2   11.31    0.63   0
   5  -5  -4  128.61    1.16   0
   6  -1  -6   47.35    1.00   0
   6   3  -5  268.86    2.56   0
  -2   3  10   53.78    0.79   0
  -2   3  11  150.62    1.32   0
  -2   3  12    1.17    0.58   0
  -1   4   6  527.01    2.34   0
  -1   5  10   61.31    0.96   0
  -1   5  11   86.27    1.12   0
  -1   5  12    0.20    0.74   0
   1  -8   5  179.65    2.15   0
   1  -5   0  990.84    3.81   0
   1   5   2   -0.14    0.86   0
   1   7   7  114.65    1.23   0
   2   7   4    0.45    0.61   0
   3   8   5    1.90    0.65   0
   4  -8   0   68.59    1.01   0
   4  -1  -5   18.16    0.89   0
   4   0  -5   84.81    1.26   0
   5   7   0   11.89    0.96   0
   6  -2  -6  219.30    1.65   0
   7  -5  -5   10.22    0.78   0
   7  -3  -6    8.08    0.73   0
  -2   2   8   34.47    0.91   0
  -2   2  14    0.23    0.82   0
   0  -5   2  692.28    3.90   0
   0  -4   1   44.94    1.28   0
   0   6   8   28.12    0.76   0
   1  -6   1  141.47    1.61   0
   1   2  -1   79.91    2.73   0
   1   6   4   24.33    0.76   0
   1   7   8    5.28    0.69   0
   4  -2  -5    0.65    0.70   0
   4   7   1  143.34    1.79   0
   5  -4  -5   28.13    0.80   0
   6  -6  -4   82.70    1.09   0
   6   1  -6   48.04    1.02   0
   8   2  -6   27.37    0.97   0
  -2  -4  13    0.00    3.14   0
  -2   2  13    2.16    0.70   0
  -1   4   7  277.80    1.69   0
   0   4   3 1021.88    3.47   0
   0   5   5  229.14    1.64   0
   0   6   9   14.22    0.53   0
   0   6  10   14.32    0.74   0
   0   6  11   36.85    0.91   0
   1   7   9   12.42    0.72   0
   2   6   2   29.78    0.87   0
   3  -7  -1  100.68    1.22   0
   3  -6  -2  513.61    2.29   0
   3  -5  -3  684.40    2.69   0
   3  -3  -4   54.34    1.05   0
   3   5  -1  206.75    2.57   0
   4  -7  -2  108.57    1.24   0
   4  -6  -3   39.04    0.76   0
   6  -5  -5  122.39    1.21   0
   6  -3  -6   72.77    1.04   0
   7  -4  -6    0.55    0.66   0
   7   2  -6    0.35    0.58   0
  -2   1   7   22.64    0.70   0
  -2   2  10   39.64    0.80   0
  -2   2  11    3.66    0.59   0
  -2   2  12    8.27    0.69   0
  -1   3   5   49.41    0.90   0
   0  -7   5   38.99    1.26   0
   0  -6   3  185.44    2.18   0
   1  -4  -1   25.95    0.77   0
   2  -8   2    0.74    0.69   0
   2  -6  -1  132.49    1.42   0
   2  -3  -3 2267.11    5.02   0
   2   7   5  145.34    1.45   0
   4  -5  -4    5.60    0.65   0
   4  -3  -5   18.95    0.79   0
   4   1  -5   18.18    0.89   0
   4   3  -4   28.64    1.33   0
   5  -7  -3   14.94    0.80   0
   5  -1  -6    5.15    0.74   0
  -2  -4  11    0.24    1.90   0
  -2   1  14   85.00    1.20   0
  -1   1   3  435.73    2.81   0
  -1   4   8  277.31    1.70   0
  -1   4  13    2.75    0.76   0
   0   3   2  632.76    3.08   0
   1  -7   2   48.45    1.06   0
   1   4   1  795.33    3.70   0
   1   6   5  774.50    2.91   0
   2  -5  -2  310.58    1.96   0
   2   1  -3 7212.39   14.30   0
   3   7   3  196.28    1.80   0
   4  -8  -1    6.87    0.79   0
   4   5  -2   14.81    1.34   0
   5  -2  -6  565.99    2.40   0
   5   0  -6  389.83    2.23   0
   5   4  -4    0.45    1.20   0
   6  -4  -6  124.99    1.23   0
   8  -2  -7   55.01    1.05   0
   8  -1  -7   17.41    0.85   0
   8   0  -7  109.35    1.36   0
  -2   1   8 2298.66    5.10   0
  -2   1  13    5.69    0.76   0
  -1   2   4   12.28    0.68   0
  -1   4   9  171.07    1.36   0
  -1   4  10   79.75    0.99   0
  -1   4  11  140.50    1.30   0
  -1   4  12  173.22    1.33   0
   0   5   6    3.85    0.50   0
   1  -8   4    5.54    0.79   0
   1  -2  -2  223.86    2.00   0
   1  -1  -2  348.94    2.77   0
   2  -7   0    8.63    0.68   0
   2   7   6  235.68    1.71   0
   3  -8   0    6.91    0.74   0
   3  -4  -4  353.13    1.95   0
   5  -5  -5   52.72    0.79   0
   6   6  -2   34.16    1.88   0
   7  -5  -6    0.05    0.71   0
   7  -2  -7    7.26    0.68   0
   7  -1  -7    0.83    0.65   0
   7   0  -7    2.53    0.66   0
  -2  -3  13    0.25    1.54   0
  -2  -2  14   -0.04    1.16   0
  -2  -1  14   77.78    1.42   0
  -2   0  14    0.19    0.63   0
  -2   1   9   68.26    1.03   0
  -2   1  10   68.04    1.00   0
  -2   1  11  334.60    1.97   0
  -2   1  12    1.79    0.60   0
  -1   3   6   72.39    1.04   0
   0   5   7   -0.76    0.55   0
   1   5   3  343.68    2.09   0
   1   6   6   71.09    1.04   0
   4  -4  -5   21.65    0.59   0
   6  -6  -5    3.35    0.58   0
   6   2  -6  206.54    1.96   0
   7  -3  -7    1.79    0.65   0
   8   1  -7   17.24    0.96   0
  -2   0  13    0.13    0.75   0
  -1   3  14   -0.15    0.72   0
   0   4   4  241.79    1.73   0
   1   3   0 1874.41    6.80   0
   2  -4  -3  243.97    1.78   0
   2   6   3   40.39    0.89   0
   2   7   7    0.15    0.57   0
   2   7   8   61.14    1.02   0
   3  -6  -3   39.29    0.86   0
   3   6   1  197.72    1.89   0
   4  -7  -3    1.35    0.63   0
   4   7   2  106.14    1.54   0
   5  -4  -6  172.42    1.40   0
   5   1  -6    5.43    0.69   0
   6  -5  -6    9.09    0.73   0
   6  -2  -7  272.47    1.75   0
   6  -1  -7  109.38    1.23   0
   7   4  -5   10.26    1.00   0
  -2  -3  12    0.07    1.10   0
  -2  -2  13    1.30    0.98   0
  -2  -1  13    3.61    0.83   0
  -2   0  12   51.14    1.00   0
  -1   3   7  317.52    1.81   0
   0  -3   0    2.51    0.66   0
   0   5   8    3.65    0.45   0
   0   5   9    2.00    0.57   0
   0   5  11   -0.06    0.57   0
   1  -6   0  454.83    2.57   0
   1  -3  -2    2.70    0.67   0
   1   6   7   -0.06    0.51   0
   2  -8   1   17.39    0.77   0
   2   5   1   26.79    1.03   0
   3  -7  -2   23.20    0.68   0
   3   7   4   27.44    0.82   0
   4  -8  -2   30.50    0.90   0
   5  -7  -4  154.61    1.45   0
   5  -6  -5   46.81    0.86   0
   6  -3  -7   38.02    0.85   0
   6   0  -7  151.14    1.57   0
   7  -4  -7   -0.10    0.74   0
   7   1  -7    1.31    0.60   0
  -2  -1  12    2.57    0.69   0
  -2   0  10  176.77    1.56   0
  -2   0  11    2.86    0.62   0
  -1   3  12   -0.04    0.65   0
   0  -7   4   24.66    1.16   0
   1  -8   3   23.52    0.98   0
   1  -5  -1    6.49    0.82   0
   1   0  -2 3145.21    9.93   0
   1   6   8   79.73    0.94   0
   1   6   9    0.90    0.62   0
   1   6  10    1.89    0.69   0
   1   6  11    8.91    0.62   0
   2  -9   3   -0.11    0.86   0
   3  -5  -4   70.71    1.04   0
   3  -1  -5    6.57    0.70   0
   3   4  -2 1215.67    8.15   0
   4  -5  -5    0.65    0.60   0
   4  -2  -6   16.95    0.73   0
   5   3  -5  285.22    2.80   0
   5   7   1   -0.13    0.71   0
   7   3  -6    2.88    0.92   0
  -1   2   5  233.06    1.64   0
  -1   2  14   -0.28    0.78   0
  -1   3   8 1288.32    3.36   0
  -1   3   9   16.71    0.69   0
  -1   3  10  101.55    1.12   0
  -1   3  11  271.35    1.67   0
   0  -5   1 1298.75    5.06   0
   0   4   5  946.98    3.09   0
   1  -7   1  249.92    2.05   0
   1   5   4  539.77    2.52   0
   2  -7  -1   69.31    1.05   0
   2  -6  -2   61.51    0.92   0
   3  -3  -5   62.12    1.08   0
   3   7   5   13.71    0.74   0
   4  -1  -6   -0.42    0.68   0
   5  -5  -6    0.97    0.56   0
   6  -4  -7   83.64    1.11   0
  -2  -1  10   59.35    1.06   0
  -1   0   3  711.16    4.13   0
   0  -6   2    0.86    0.71   0
   0   3   3   11.40    0.69   0
   0   4  13   15.66    0.80   0
   2  -5  -3 1285.71    3.63   0
   2  -2  -4  644.95    2.77   0
   2   6   4  139.89    1.37   0
   4  -3  -6   -0.05    0.46   0
   4   2  -5    0.66    0.66   0
   4   6   0  292.98    2.60   0
   5  -2  -7   75.71    1.06   0
   6  -6  -6   41.92    0.78   0
   8   2  -7   48.35    1.13   0
  -1   1   4   46.05    1.01   0
  -1   2  13    7.51    0.72   0
   0   4   6    5.75    0.68   0
   1  -4  -2  344.09    2.12   0
   2  -9   2    3.14    0.74   0
   2  -8   0   25.11    0.83   0
   2  -1  -4  471.61    2.56   0
   3  -9   0   23.34    0.99   0
   3   0  -5  341.21    2.24   0
   3   2  -4 1824.82    7.29   0
   3   7   6    5.36    0.65   0
   4  -7  -4    7.83    0.67   0
   4  -4  -6    3.21    0.57   0
   4   0  -6  101.66    1.29   0
   4   7   3    4.20    0.66   0
   5  -1  -7  641.12    2.66   0
   5   6  -1   47.83    1.41   0
   6   1  -7  111.56    1.34   0
   7  -3  -8    1.01    0.63   0
   7  -2  -8    2.58    0.65   0
   7  -1  -8    0.51    0.59   0
  -1   1  14    0.05    0.76   0
  -1   2   6  731.10    2.74   0
  -1   2  12  367.22    1.98   0
   0   4  12  105.96    1.03   0
   1   4   2  680.87    3.04   0
   1   5   5   57.11    0.99   0
   2  -3  -4  362.09    1.95   0
   2   6   5  176.06    1.46   0
   3  -7  -3  403.56    2.10   0
   3  -6  -4  160.39    1.42   0
   3  -4  -5  216.91    1.46   0
   3   6   2   85.47    1.21   0
   3   7   7   43.87    0.91   0
   4  -8  -3   10.57    0.62   0
   4  -6  -5    0.38    0.61   0
   5  -7  -5   29.33    0.73   0
   6  -5  -7   34.37    0.74   0
   7   2  -7    6.64    0.74   0
  -1   2   7 1114.45    3.35   0
  -1   2  11  200.72    1.51   0
   0   4   7   53.74    0.89   0
   0   4   8   14.02    0.65   0
   0   4  10    9.27    0.61   0
   0   4  11   62.52    0.83   0
   1  -8   2   72.24    1.25   0
   1   5  12   19.80    0.67   0
   3  -8  -2  170.77    1.56   0
   4   7   4   69.30    1.22   0
   5  -6  -6   79.96    0.95   0
   5  -4  -7   67.60    0.98   0
   5   0  -7  142.71    1.39   0
   5   2  -6  556.25    3.17   0
   5   7   2   -0.08    0.72   0
   7  -4  -8    0.81    0.76   0
   7   0  -8    1.55    0.70   0
  -1   1  13  216.47    1.62   0
  -1   2   8  206.56    1.53   0
  -1   2   9  256.89    1.65   0
  -1   2  10  325.31    1.82   0
   0  -8   6   -0.19    1.21   0
   0  -7   3    2.86    0.73   0
   0   4   9   35.59    0.67   0
   1  -7   0  139.73    1.57   0
   1  -6  -1   18.38    0.83   0
   1   5   6  265.87    1.66   0
   1   5  11    0.39    0.59   0
   2  -7  -2   78.22    1.09   0
   2  -4  -4  989.61    3.18   0
   2   5   2    3.07    0.65   0
   2   6   6    9.44    0.53   0
   2   6   7  202.69    1.56   0
   2   6   9   21.05    0.78   0
   4  -5  -6    2.60    0.58   0
   6  -3  -8  198.47    1.48   0
   6  -2  -8   13.05    0.57   0
  -1   0  14    4.58    0.79   0
  -1   1   5   37.04    0.91   0
   0   2   2 1096.65    4.33   0
   0   3   4  686.05    2.76   0
   0   3  13  201.89    1.55   0
   1  -5  -2    8.30    0.78   0
   1   5   7  122.17    1.20   0
   1   5   8   15.68    0.70   0
   1   5   9   29.31    0.73   0
   1   5  10    6.72    0.48   0
   2  -9   1    0.32    0.82   0
   2  -6  -3   96.56    1.15   0
   2   0  -4 3434.09    7.46   0
   2   6   8   43.67    0.87   0
   3  -9  -1   16.67    0.92   0
   3  -5  -5    9.46    0.50   0
   4   7   5   88.66    1.21   0
   6  -6  -7   55.07    0.91   0
   6  -4  -8   21.87    0.77   0
   6   3  -6   68.31    1.49   0
  -1   1  12    7.21    0.68   0
   1  -9   4   21.97    1.09   0
   2  -8  -1   46.04    0.96   0
   2   4   0   52.04    1.20   0
   3   5   0  578.49    3.31   0
   3   6   3    8.25    0.68   0
   4  -8  -4   17.14    0.81   0
   4  -7  -5   37.70    0.87   0
   4   1  -6    0.14    0.65   0
   4   7   6    8.01    0.73   0
   5  -7  -6    7.83    0.69   0
   6   0  -8   87.05    1.15   0
   6   4  -5    0.16    0.95   0
   7   1  -8    0.05    0.66   0
  -1  -1  14    0.23    0.81   0
  -1   0  13   -0.25    0.65   0
  -1   1  11  346.09    1.99   0
   0  -6   1   -0.45    0.72   0
   0   3  12  141.84    1.22   0
   1  -8   1   40.92    1.08   0
   1  -3  -3  228.43    1.72   0
   1  -2  -3   23.12    0.83   0
   1   4   3   89.94    1.20   0
   2  -5  -4   53.40    0.96   0
   3  -8  -3   13.30    0.71   0
   3  -7  -4   17.35    0.78   0
   3  -3  -6  783.77    2.72   0
   3  -2  -6   29.55    0.88   0
   3   1  -5    7.39    0.84   0
   4  -6  -6   10.19    0.63   0
   4  -3  -7   65.94    0.95   0
   4  -2  -7   15.08    0.71   0
   4   6   1   87.14    1.43   0
   5   1  -7  597.09    2.99   0
   5   7   3    7.78    0.75   0
   6  -5  -8   73.04    1.04   0
   6   2  -7  261.99    2.20   0
  -1  -3  14    0.04    1.07   0
  -1  -2  14    0.04    0.90   0
  -1   1   6   12.23    0.63   0
   0  -8   5    5.60    1.23   0
   0  -5   0    0.16    0.70   0
   0   3   5  212.17    1.55   0
   0   3  11   -0.23    0.60   0
   2   5   3   -0.02    0.60   0
   3  -6  -5   97.80    1.10   0
   4  -4  -7    4.60    0.63   0
   4  -1  -7  235.03    1.66   0
   5  -6  -7   13.57    0.73   0
   5  -3  -8  214.11    1.53   0
   7  -3  -9   14.94    0.66   0
   7  -2  -9   10.71    0.58   0
   7  -1  -9   15.39    0.81   0
  -1  -1  13  202.17    1.78   0
  -1   0   4  264.23    2.26   0
  -1   0  12  375.79    2.13   0
  -1   1   7  641.26    2.69   0
  -1   1   9   89.50    1.15   0
  -1   1  10  181.63    1.38   0
   0   3   6    4.48    0.66   0
   0   3  10  223.84    1.48   0
   1  -9   3   20.82    1.20   0
   1  -4  -3   92.37    1.15   0
   1   3   1 1947.09    5.87   0
   1   4  12    4.12    0.52   0
   2  -9   0    4.68    0.82   0
   3  -4  -6   34.47    0.67   0
   3  -1  -6 1018.25    3.38   0
   3   6   4   61.36    0.98   0
   5  -4  -8  338.05    1.83   0
   5  -1  -8  277.66    1.82   0
   5   7   4   44.04    1.00   0
  -1  -5  12    0.11    1.50   0
  -1  -4  13    0.03    1.10   0
  -1   1   8 1794.69    4.45   0
   0  -3  -1 1119.34    4.39   0
   0   1   1 4197.30   11.62   0
   0   3   7  134.64    1.28   0
   0   3   8   28.17    0.79   0
   0   3   9   26.66    0.73   0
   1  -6  -2   53.96    0.99   0
   1  -1  -3  435.29    2.74   0
   1   4   4  161.83    1.46   0
   1   4  11   15.52    0.67   0
   2  -8  -2    4.15    0.61   0
   2  -7  -3  106.13    1.18   0
   2  -3  -5  353.17    1.92   0
   2  -2  -5   74.38    1.02   0
   2   5  11   58.23    0.96   0
   3   6   5    9.46    0.64   0
   3   6   9   32.75    0.85   0
   4  -5  -7   83.73    1.00   0
   6  -3  -9    6.22    0.56   0
  -1  -2  13    5.18    0.80   0
  -1   0  11  424.80    2.24   0
   0   1  14    1.85    0.75   0
   0   2  12  243.44    1.67   0
   1   4  10    1.28    0.51   0
   2  -6  -4  203.74    1.40   0
   2  -4  -5  189.77    1.49   0
   2   5   4   56.90    0.98   0
   2   5  10   21.88    0.74   0
   3  -5  -6  221.14    1.49   0
   3   6   6   34.65    0.85   0
   3   6   7   20.26    0.74   0
   3   6   8    5.51    0.61   0
   4  -8  -5    1.61    0.58   0
   4  -7  -6    2.18    0.66   0
   4   0  -7    0.61    0.63   0
   5  -5  -8   82.01    1.04   0
   5   6   0    0.64    0.66   0
   6  -4  -9   13.19    0.72   0
   6  -2  -9   36.91    0.71   0
   6   1  -8  238.53    1.85   0
   7   0  -9    1.27    0.65   0
  -1  -1  12    7.20    0.74   0
   0  -4  -1   39.26    0.98   0
   0   2   3  197.10    1.75   0
   1  -8   0   79.48    1.25   0
   1  -5  -3   25.35    0.82   0
   1   4   5 1989.50    4.40   0
   1   4   9   32.85    0.75   0
   2   5   5   90.74    1.15   0
   2   5   9  105.00    1.11   0
   3  -8  -4   34.61    0.85   0
   3  -7  -5    8.70    0.64   0
   4   6   2    7.36    0.66   0
   5   0  -8  636.13    2.79   0
   6  -1  -9    0.55    0.53   0
   6   6  -1   32.76    1.22   0
  -1  -4  12  168.04    2.32   0
  -1   0   5   99.95    1.32   0
  -1   0  10  160.86    1.45   0
   0   1  13  230.68    1.72   0
   0   2  11  262.31    1.65   0
   1  -9   2    1.91    0.86   0
   1   4   6   26.32    0.82   0
   1   4   7   20.03    0.71   0
   1   4   8  194.00    1.39   0
   2  -9  -1    0.15    0.80   0
   2  -5  -5  340.17    1.88   0
   2  -1  -5  727.43    3.00   0
   2   5   6  462.88    2.13   0
   2   5   7   35.63    0.81   0
   2   5   8   55.97    0.87   0
   3   0  -6   45.18    1.03   0
   3   5   1   75.79    1.22   0
   4  -6  -7    5.19    0.47   0
   5  -6  -8  158.54    1.39   0
   7   2  -8    2.04    0.71   0
   7   3  -7    1.20    0.74   0
  -1  -5  11   80.17    2.20   0
  -1  -2  12  322.68    2.35   0
  -1  -1  11  349.32    2.19   0
  -1   0   9  332.92    2.03   0
   1   3  12   31.86    0.77   0
   2   4   1   37.72    1.09   0
   3  -6  -6    7.31    0.49   0
   4  -4  -8  348.61    1.81   0
   4  -3  -8   19.33    0.70   0
   4  -2  -8  390.37    1.96   0
   4   5  -1  376.28    3.12   0
   4   6   3  294.60    2.15   0
  -1   0   6 1564.36    4.55   0
  -1   0   7  827.76    3.23   0
  -1   0   8  760.76    3.06   0
   0   2   4  305.42    2.01   0
   0   2  10   26.89    0.73   0
   1  -7  -2    0.86    0.57   0
   2  -8  -3   41.51    0.91   0
   2  -7  -4   47.62    0.87   0
   2   4  12    2.94    0.51   0
   3  -4  -7   67.24    0.93   0
   3  -3  -7   83.07    0.95   0
   3  -2  -7  363.38    1.92   0
   5  -4  -9  112.39    1.15   0
   5  -3  -9   81.52    0.95   0
   5  -2  -9  255.63    1.65   0
   6   0  -9   42.74    0.89   0
  -1  -6   5    0.04    1.29   0
  -1  -2  11  187.33    1.91   0
  -1  -1  10  194.99    1.70   0
   0  -8   3   18.52    1.14   0
   0   1  12  159.96    1.36   0
   0   2   9  202.81    1.44   0
   1  -9   1   16.05    0.93   0
   1  -8  -1   11.41    0.81   0
   1  -6  -3   16.84    0.67   0
   1  -3  -4    6.31    0.55   0
   1   3   2  806.08    3.51   0
   1   3  11    0.55    0.61   0
   2  -6  -5   30.65    0.76   0
   2   1  -4  450.73    3.24   0
   2   4  11   61.28    0.98   0
   3  -8  -5   35.45    0.83   0
   4  -7  -7   -1.48    0.70   0
   4  -5  -8    0.40    0.62   0
   4  -1  -8    4.15    0.58   0
   4   6   4  183.96    1.56   0
   4   6   7   24.69    0.82   0
   4   6   8    4.17    0.64   0
   5  -5  -9   11.20    0.65   0
   5   2  -7   63.45    1.27   0
   5   6   1   11.05    0.77   0
   7  -1 -10    2.66    0.70   0
   7   1  -9   11.75    0.72   0
  -1  -5   3   14.67    1.04   0
  -1  -4  11  138.67    2.07   0
   0  -1  14    1.30    0.71   0
   0   2   5 1231.78    3.67   0
   0   2   8  137.08    1.28   0
   1  -4  -4   36.16    0.86   0
   1   2  13   21.58    0.72   0
   2  -9  -2   49.94    1.08   0
   3  -7  -6  122.86    1.20   0
   3  -5  -7  118.12    1.05   0
   3   5   2   10.47    0.70   0
   3   5  10   29.25    0.72   0
   4   2  -6   16.27    0.83   0
   4   6   5   30.10    0.80   0
   4   6   6    9.16    0.62   0
   5  -1  -9   88.59    1.10   0
   6  -4 -10    0.59    0.73   0
   6  -3 -10   -0.03    0.64   0
   6  -2 -10    0.19    0.60   0
  -1  -5  10   56.77    1.87   0
  -1  -1   9   97.62    1.29   0
   0   1  11    0.29    0.63   0
   0   2   6  210.36    1.52   0
   0   2   7   83.32    1.08   0
   1  -2  -4   12.37    0.67   0
   1   1  14    1.99    0.79   0
   1   3  10   43.79    0.84   0
   2  -4  -6  424.54    2.03   0
   2  -3  -6  559.60    2.29   0
   2   3  13    4.23    0.74   0
   2   4  10  157.15    1.29   0
   3  -1  -7  172.64    1.46   0
   3   5   9   35.81    0.81   0
   4  -6  -8  101.81    1.08   0
   4   1  -7  227.26    1.84   0
   5  -6  -9   42.77    0.94   0
   5   1  -8  272.55    1.99   0
   5   3  -6   19.67    1.10   0
   7   4  -6    0.34    1.01   0
  -1  -2  10  313.64    2.25   0
   0  -8   2    0.00    0.85   0
   0  -2  14   66.81    1.37   0
   0  -1  -1 4013.65   11.20   0
   1  -5  -4  170.59    1.34   0
   1   0  -3  729.37    4.04   0
   1   2  12    3.05    0.61   0
   1   3   9  107.21    1.12   0
   2  -8  -4   54.48    0.93   0
   2  -5  -6  502.84    2.20   0
   2  -2  -6  633.26    2.50   0
   2   0  -5  659.39    3.07   0
   2   4   2   85.74    1.25   0
   3  -6  -7   53.72    0.87   0
   3   5   8   22.02    0.74   0
   5   6   2   22.18    0.86   0
   6  -1 -10   12.49    0.60   0
   6   2  -8   12.73    0.80   0
   6   6   0   39.03    1.10   0
   7   0 -10   83.84    1.15   0
  -1  -1   8 1913.78    5.16   0
   0  -7   0    0.31    0.66   0
   0  -6  -1    0.10    0.57   0
   0  -4  -2   29.81    0.84   0
   0   1  10  242.85    1.63   0
   1  -7  -3    0.88    0.54   0
   1   3   3  715.13    2.99   0
   2  -7  -5   39.26    0.79   0
   2   3  12   12.93    0.72   0
   2   4   9   46.86    0.82   0
   3   5   3  111.03    1.25   0
   3   5   7  109.01    1.16   0
   4  -4  -9   44.80    0.82   0
   4  -3  -9  268.37    1.64   0
   4   4  -3    7.97    1.44   0
   5   5  -2    0.29    0.88   0
   6   1  -9    0.15    0.59   0
  -1  -4  10   72.46    1.50   0
  -1  -1   6   11.32    0.75   0
  -1  -1   7  659.29    3.15   0
   0   1   2 2090.41    6.81   0
   1  -8  -2   22.51    0.78   0
   1  -6  -4    3.90    0.57   0
   1   1  13   33.61    0.83   0
   1   3   8    5.21    0.61   0
   2  -9  -3   68.48    1.13   0
   2   2  -3  280.08    4.55   0
   2   3  -1  220.56    2.73   0
   2   4   8  111.18    1.16   0
   3  -8  -6    7.77    0.75   0
   3  -4  -8   45.58    0.84   0
   3  -3  -8   88.28    1.03   0
   3   1  -6  988.43    4.04   0
   3   4  -1  449.45    3.37   0
   3   5   4   13.69    0.66   0
   3   5   5    1.17    0.61   0
   3   5   6  259.95    1.67   0
   4  -7  -8    7.87    0.57   0
   4  -5  -9  156.33    1.28   0
   4   0  -8  832.53    3.08   0
   4   5   0  220.86    2.08   0
   5  -4 -10   21.88    0.76   0
   5  -3 -10  194.60    1.42   0
   5   0  -9  201.09    1.60   0
   5   6   3   99.81    1.28   0
   5   6   4    0.01    0.70   0
   5   6   6   22.10    0.82   0
   6   3  -7   33.60    1.19   0
  -1  -6   4    0.63    1.04   0
  -1  -5   9   46.95    1.84   0
  -1  -3   2    3.85    0.98   0
  -1  -2   9  255.39    2.12   0
   0  -5  -2  532.42    2.66   0
   0  -2  13   51.97    1.18   0
   0   1   9   -0.34    0.64   0
   1  -1  -4   51.69    1.04   0
   1   0  14  147.35    1.40   0
   1   2  11   58.34    0.89   0
   1   3   4 2832.95    5.46   0
   1   3   6  594.88    2.50   0
   1   3   7  644.41    2.45   0
   2  -6  -6  108.56    1.06   0
   2  -1  -6 1399.84    3.85   0
   2   4   7  408.33    2.00   0
   3  -7  -7   25.97    0.75   0
   3  -5  -8    0.86    0.54   0
   3   4  11    0.55    0.53   0
   4  -2  -9   21.21    0.63   0
   4   3  -5   18.00    1.25   0
   5  -5 -10   51.12    0.92   0
   5  -2 -10   16.90    0.68   0
   5   6   5   89.74    1.23   0
  -1  -2   3   17.85    1.42   0
   0  -8   1    0.25    0.83   0
   0  -1  12  147.90    1.48   0
   1  -4  -5   16.26    0.74   0
   1   1  -2  348.93    4.90   0
   1   3   5    3.61    0.50   0
   2   2  13   14.56    0.76   0
   2   3  11  216.38    1.50   0
   2   4   4  155.99    1.39   0
   2   4   5  400.83    2.08   0
   2   4   6   -0.98    0.62   0
   3  -2  -8   60.74    0.93   0
   3   0  -7  131.80    1.40   0
   3   2  -5  331.19    2.99   0
   4  -6  -9    3.99    0.67   0
   4   5   9    0.97    0.63   0
   6   0 -10    1.05    0.56   0
   6   6   1    0.67    0.64   0
  -1  -4   9  161.34    2.28   0
  -1  -3   9   16.81    0.90   0
   0  -3  13  176.11    1.79   0
   0   1   8   47.65    0.98   0
   1  -5  -5   10.41    0.63   0
   1  -3  -5   50.67    0.87   0
   1   2  10    2.51    0.57   0
   2  -9  -4    1.94    0.74   0
   2  -8  -5    2.76    0.67   0
   2  -7  -6   57.05    0.89   0
   2  -4  -7 1083.42    3.05   0
   3  -6  -8   11.91    0.63   0
   3   4  10  173.48    1.39   0
   4  -1  -9  432.61    2.13   0
   4   5   8   56.90    0.95   0
   6  -2 -11    1.16    0.66   0
   6   5  -3  113.47    2.38   0
   6   6   2   35.53    0.99   0
   7   1 -10    3.73    0.78   0
   7   2  -9    8.52    0.85   0
   0  -6  -2    0.23    0.52   0
   1  -8  -3    3.53    0.62   0
   1  -7  -4    5.00    0.55   0
   1  -1  14    3.90    0.78   0
   2  -5  -7    6.50    0.68   0
   2  -3  -7    8.98    0.54   0
   2   3  10    6.71    0.63   0
   3  -8  -7    6.90    0.82   0
   3   3  12    1.69    0.70   0
   4   5   1  116.93    1.48   0
   5  -1 -10  217.00    1.59   0
   6   6   3   -0.06    0.75   0
   6   6   4    5.94    0.83   0
   0  -9   4    7.60    1.53   0
   0  -2  12  265.12    1.98   0
   0   0  10    3.17    0.46   0
   0   1   3  600.06    3.20   0
   0   1   7   87.94    1.10   0
   1  -6  -5    2.58    0.49   0
   1  -2  -5  239.26    1.64   0
   1   2   9    7.57    0.65   0
   2  -2  -7 1235.28    3.51   0
   2   2  12   38.23    0.82   0
   3  -7  -8    7.56    0.63   0
   3  -1  -8   63.10    1.02   0
   3   4   9   99.31    1.07   0
   4  -4 -10   35.82    0.78   0
   4   5   7    4.21    0.59   0
   6  -1 -11   26.56    0.85   0
  -1  -5   8  419.74    4.72   0
  -1  -3   8 1277.77    5.34   0
   0  -9   3    0.08    1.31   0
   0  -1  11    2.21    0.64   0
   0   1   6   30.80    0.76   0
   1  -9  -2   -0.67    0.80   0
   1   1  11    0.70    0.55   0
   2  -6  -7  297.16    1.66   0
   2   3   9  265.51    1.62   0
   3  -4  -9    1.24    0.56   0
   4  -5 -10  117.78    1.20   0
   4  -3 -10  158.77    1.35   0
   4   5   6    0.86    0.67   0
   5  -4 -11   47.80    0.78   0
   5  -3 -11   12.31    0.66   0
   7   3  -8    0.98    0.77   0
   0  -5  -3   14.24    0.72   0
   0  -3  -3    9.16    0.61   0
   0  -3  12  133.92    1.54   0
   0   0   9   69.18    1.05   0
   0   1   4 3013.24    6.46   0
   0   1   5  666.79    2.86   0
   1  -2  14   72.32    1.11   0
   2  -8  -6   28.19    0.87   0
   2   1  13    8.59    0.66   0
   3  -5  -9   74.29    0.98   0
   3  -3  -9  130.34    1.17   0
   3   3  11  268.29    1.64   0
   3   4   8   -0.22    0.57   0
   4  -6 -10   10.50    0.77   0
   4  -2 -10   50.93    0.83   0
   4   1  -8    4.05    0.73   0
   4   4  10    1.37    0.69   0
   4   5   2  294.29    2.02   0
   4   5   3  113.03    1.39   0
   4   5   4   73.18    1.17   0
   4   5   5  343.17    1.93   0
   5   1  -9   90.64    1.21   0
   5   2  -8  838.37    3.85   0
   5   5   8    5.56    0.75   0
  -1  -4   8  258.00    2.90   0
  -1  -2   4   10.65    1.01   0
  -1  -2   5  229.90    2.55   0
   0  -5  12   27.65    1.16   0
   1  -8  -4    1.48    0.64   0
   1  -7  -5    4.55    0.55   0
   1  -4  -6  483.36    2.14   0
   1  -1  13   31.87    0.87   0
   1   2   8  553.19    2.28   0
   2  -7  -7    1.50    0.60   0
   2   0  -6 1267.85    3.97   0
   2   2  11   82.95    1.02   0
   2   3   8  366.09    1.88   0
   3  -6  -9    1.02    0.60   0
   3   4   0  133.90    1.69   0
   4   0  -9  154.63    1.41   0
   5  -2 -11  166.92    1.36   0
   5   0 -10   44.65    0.94   0
   5   5  -1   32.53    1.04   0
   6   1 -10    5.33    0.67   0
   0  -8  -1   -0.35    0.72   0
   0  -6  -3  152.88    1.41   0
   0  -2  11  263.71    1.97   0
   1  -9  -3   10.77    0.87   0
   1  -5  -6   15.84    0.67   0
   1  -3  -6   63.64    0.96   0
   1   1  10   14.54    0.64   0
   1   2   7    0.25    0.69   0
   2  -5  -8  744.15    2.62   0
   2  -4  -8   53.42    0.88   0
   3  -2  -9   47.84    0.81   0
   3   4   7  149.36    1.31   0
   4   2  -7   14.19    0.86   0
   5   5   7  144.03    1.34   0
   6   2  -9   36.67    1.04   0
  -1  -5   1    2.56    0.57   0
  -1  -3   7  297.98    2.74   0
   0   0   8    0.51    0.75   0
   1  -6  -6  157.70    1.36   0
   2  -3  -8 1396.17    3.43   0
   2  -1  -7   26.84    0.71   0
   2   1  -5  705.04    3.68   0
   2   1  12   21.29    0.73   0
   2   3   0    4.48    0.79   0
   2   3   7   24.83    0.83   0
   3  -7  -9   11.21    0.77   0
   3   2  12  105.08    1.16   0
   3   3  10   52.56    0.91   0
   3   4   6   51.40    0.91   0
   4   4   9   -0.89    0.57   0
   5   5   6   55.35    0.99   0
   6   0 -11   -0.08    0.63   0
  -1  -6   6  148.98    6.23   0
   0  -6  11   31.07    1.37   0
   0  -2  -3  181.63    1.67   0
   1  -2  13   25.38    0.85   0
   1  -1  -5   40.96    0.80   0
   1   0  11   10.68    0.67   0
   1   2   1   11.39    0.83   0
   1   2   6  284.94    1.78   0
   2  -8  -7  102.71    1.19   0
   2  -6  -8   15.77    0.56   0
   2   2  10  399.36    1.97   0
   3   0  -8  103.92    1.22   0
   3   1  -7  161.19    1.74   0
   3   4   1  280.14    2.23   0
   3   4   5    2.59    0.63   0
   4  -5 -11    0.82    0.68   0
   4  -4 -11  204.26    1.46   0
   4  -1 -10  337.40    1.96   0
   4   3  11   64.23    1.03   0
   5  -1 -11   16.23    0.69   0
  -1  -5   7  263.96    3.93   0
  -1  -4   7  251.22    3.11   0
   0  -8  -2   -0.07    0.75   0
   0  -7  -3    4.12    0.56   0
   0  -3  11    0.32    0.66   0
   0  -1  -2 2062.54    6.68   0
   1  -8  -5    2.82    0.66   0
   1  -2  -6  713.09    2.70   0
   1   0  -4  296.19    2.31   0
   2  -7  -8  120.59    1.18   0
   2   3   6 1474.66    3.68   0
   3  -5 -10   21.87    0.73   0
   3  -4 -10   72.77    0.97   0
   3  -1  -9  230.04    1.58   0
   3   4   4   48.85    0.96   0
   4  -3 -11   10.44    0.65   0
   4   4   8    8.57    0.63   0
   5  -3 -12   21.57    0.79   0
   5   5   0   20.56    0.81   0
   5   5   5   57.48    0.97   0
   6  -1 -12    0.22    0.64   0
  -1  -3   6   68.84    1.63   0
   0  -9   0   -0.02    0.98   0
   0  -5  11   -0.01    0.90   0
   0  -1   9    1.21    0.66   0
   0   0   7   78.54    1.14   0
   1  -7  -6    2.65    0.46   0
   1  -3  13   10.17    0.83   0
   1   2   5 5146.49    7.36   0
   3  -6 -10   16.95    0.73   0
   3  -3 -10    1.00    0.51   0
   3   2  11    6.19    0.70   0
   3   3   9   35.33    0.68   0
   3   4   2   17.28    0.78   0
   3   4   3   78.44    1.11   0
   5   4   9   62.71    1.04   0
   5   5   1   67.84    1.21   0
   5   5   4  378.67    2.14   0
   6   5  -2  167.17    2.19   0
   6   5   6   14.73    0.81   0
  -1  -4   0  840.33    4.36   0
   1  -5  -7  264.31    1.60   0
   1  -4  -7  260.01    1.58   0
   1   2   2 1816.47    5.44   0
   1   2   3 1475.42    4.53   0
   1   2   4   17.70    0.78   0
   2  -5  -9   -0.09    0.48   0
   2  -4  -9   75.63    0.94   0
   2   1  11  274.22    1.60   0
   2   2   9  241.88    1.47   0
   2   3   1  116.71    1.56   0
   2   3   5  737.31    2.80   0
   4  -2 -11  265.13    1.68   0
   4   3  10    7.99    0.70   0
   4   4   7   63.02    0.93   0
   5  -2 -12    0.81    0.65   0
   5   5   2   55.36    1.00   0
   5   5   3   62.14    1.02   0
   7   5  -3  159.37    2.46   0
  -1  -7   3   -0.10    1.22   0
   0   0   6    1.06    0.59   0
   1  -6  -7  106.75    1.09   0
   1  -3  -7  270.89    1.69   0
   1  -2  12    3.03    0.65   0
   1   0  10   -0.03    0.55   0
   2  -6  -9    7.99    0.63   0
   2  -1  13    7.89    0.69   0
   2   3   4   56.33    1.01   0
   3  -2 -10   70.25    0.94   0
   3   1  12    4.62    0.70   0
   3   3   8    2.76    0.60   0
   5   1 -10  204.46    1.82   0
   5   3  -7  530.36    4.09   0
   6   3  -8  165.84    2.30   0
   6   5   5    4.11    0.70   0
  -1  -7   2    0.10    0.91   0
   0  -8  -3   30.19    0.88   0
   0  -7  -4   23.01    0.73   0
   1  -9  -5    0.00    0.90   0
   1  -8  -6   35.59    0.74   0
   1  -1  11   -0.59    0.61   0
   2  -3  -9   63.39    0.88   0
   2   3   2  335.81    2.18   0
   2   3   3  104.48    1.24   0
   3   0  13   22.25    0.88   0
   4  -4 -12   -0.08    0.59   0
   4   0 -10   55.37    0.93   0
   4   1  -9  429.91    2.47   0
   4   4   6    5.51    0.66   0
   5   0 -11  110.26    1.23   0
   5   4   8  149.40    1.30   0
   0  -4  -5  761.26    2.83   0
   0  -3  10  224.52    1.96   0
   0  -1   8   45.54    1.02   0
   1  -7  -7   38.61    0.82   0
   2  -7  -9    0.74    0.71   0
   2  -1  -8 2644.35    5.08   0
   2   0  -7 3002.77    5.95   0
   2   1  10   24.73    0.78   0
   2   2   8  193.13    1.36   0
   3  -5 -11   10.11    0.69   0
   3  -4 -11    2.16    0.60   0
   3   2  10  191.08    1.37   0
   4  -3 -12   92.50    1.08   0
   4  -1 -11    8.56    0.60   0
   4   2  11   23.68    0.83   0
   4   3   9    8.00    0.66   0
   4   4  -2  379.30    3.38   0
   5  -1 -12   34.49    0.78   0
   6   0 -12    7.41    0.69   0
   6   1 -11   26.16    0.83   0
   6   5  -1   48.43    1.14   0
   6   5   4    0.52    0.57   0
  -1  -4   6  537.46    4.78   0
  -1  -3   5   54.15    1.60   0
   0  -6  -5   99.27    1.11   0
   0  -6  10   10.61    1.10   0
   0  -2  -4  310.80    2.01   0
   0  -2   9  210.27    1.80   0
   0   0   5 4767.65    8.27   0
   1  -3  12   30.07    0.90   0
   1  -1  -6   12.49    0.63   0
   2  -2  -9   91.81    1.05   0
   2  -2  13   11.18    0.82   0
   3  -6 -11    0.02    0.56   0
   3  -3 -11    0.22    0.50   0
   3   0  -9    1.42    0.56   0
   3   2  -6   26.20    1.12   0
   3   3   7  213.39    1.54   0
   4   4   5   64.89    1.04   0
   5   2  -9  240.78    2.17   0
   5   4   7    1.57    0.64   0
   6   5   0   15.89    0.87   0
   6   5   2    5.82    0.76   0
   6   5   3    3.22    0.64   0
   0  -8  -4   25.53    0.84   0
   0  -3  -5  184.01    1.47   0
   1  -8  -7   20.52    0.81   0
   1  -6  -8   65.11    0.94   0
   1  -5  -8  410.98    1.89   0
   1  -4  -8  268.87    1.62   0
   1  -2  -7 1039.78    3.11   0
   2  -5 -10   22.44    0.69   0
   2  -1  12   18.19    0.78   0
   2   0  11  124.80    1.24   0
   2   2   7 1406.16    3.70   0
   3  -1 -10    7.36    0.60   0
   3   1  11  490.90    2.21   0
   4   1  12   12.26    0.82   0
   6   2 -10    3.13    0.72   0
   6   5   1  132.58    1.48   0
   7   3  -9   13.70    1.10   0
   7   5  -2   45.89    1.27   0
  -1  -5   6   16.02    1.65   0
   0  -9  -3    0.09    1.05   0
   0  -7  -5   31.14    0.66   0
   0  -5  10   27.38    1.03   0
   1  -4  12    3.28    0.72   0
   1  -2  11   60.64    1.03   0
   1  -1  10   14.41    0.68   0
   2  -6 -10   20.71    0.76   0
   2  -4 -10   83.14    0.89   0
   2  -3  13    5.66    0.85   0
   3  -1  13   38.02    0.98   0
   3   0  12  195.70    1.51   0
   3   1  -8   64.14    1.17   0
   3   2   9  122.08    1.20   0
   3   3   6  330.28    1.90   0
   4  -2 -12    9.24    0.67   0
   4   3   8   61.15    0.92   0
   4   4   4  487.29    2.32   0
   5   3   9   36.01    0.90   0
   5   4   6  111.67    1.26   0
   6   4   7   73.38    1.12   0
   0  -5  -6    0.33    0.56   0
   0  -1  -3  548.83    3.11   0
   0  -1   7   88.98    1.18   0
   0   0   4  707.20    3.54   0
   1  -7  -8  168.26    1.39   0
   1  -3  -8 1236.56    3.33   0
   1   0  -5  104.24    1.36   0
   2  -3 -10   67.00    0.91   0
   2   1  -6 1385.40    4.77   0
   2   1   9  365.26    1.84   0
   3  -2 -11   31.08    0.73   0
   4   2  -8  392.48    2.68   0
   4   2  10   27.39    0.78   0
   4   4   3  656.11    2.93   0
   7   5  -1   39.45    1.11   0
   7   5   2   70.86    1.22   0
  -1  -5  -2   -0.72    0.58   0
   0  -8  -5    7.78    0.70   0
   0  -6  -6    0.38    0.39   0
   0  -4  -6    5.37    0.61   0
   0  -3   9   28.45    0.91   0
   2   2   6   31.56    0.97   0
   3  -5 -12    9.76    0.79   0
   3  -4 -12   22.77    0.73   0
   4   4  -1   12.54    0.93   0
   7   5   0  130.59    1.61   0
   7   5   1   41.38    1.06   0
   0  -9  -4   -2.16    1.16   0
   0  -7  -6   16.90    0.70   0
   0  -7   9   20.14    1.33   0
   0  -2   8  144.11    1.62   0
   0   0   3 4905.69   10.38   0
   1  -5  -9   48.64    0.83   0
   1  -3  11    0.89    0.69   0
   1   0   8  455.53    2.28   0
   2  -2  12   35.93    0.87   0
   2  -1  -9   74.89    1.04   0
   2   0  10  329.84    1.88   0
   3   1  10   88.35    1.10   0
   3   2   8    8.89    0.65   0
   3   3   5  132.14    1.36   0
   4  -3 -13   28.99    0.95   0
   4   0 -11  497.41    2.39   0
   4   1  11   81.94    1.13   0
   4   4   0  504.88    3.05   0
   4   4   1  242.08    2.06   0
   4   4   2    1.48    0.63   0
   5   0 -12    0.28    0.61   0
   5   1 -11   15.95    0.81   0
   5   4   5  320.74    1.94   0
   6   4   6    7.02    0.75   0
  -1  -3  -1 1707.30    5.87   0
   0  -3  -6    2.55    0.63   0
   0  -2  -5 1189.84    3.67   0
   1  -6  -9   55.25    0.79   0
   1  -4  -9  165.13    1.31   0
   1  -2  -8  193.89    1.49   0
   1  -1  -7  670.25    2.68   0
   1   1  -3  446.73    4.05   0
   2  -6 -11    0.16    0.70   0
   2  -5 -11  114.53    1.15   0
   2  -2 -10   40.63    0.78   0
   2  -1  11  266.39    1.79   0
   2   0  -8  171.05    1.55   0
   2   1   8  420.65    2.12   0
   3  -3 -12   31.12    0.77   0
   3  -1  12    4.15    0.75   0
   3   0  11    0.91    0.72   0
   4  -1 -12  164.53    1.38   0
   4   0  12   29.06    1.02   0
   4   1 -10  338.49    2.23   0
   4   2   9    0.58    0.64   0
   5   2  10   11.41    0.77   0
   5   3   8    2.89    0.54   0
   0  -5  -7   -0.02    0.47   0
   0  -1   6   30.81    0.93   0
   1  -7  -9   -0.07    0.71   0
   1  -2  10    2.91    0.69   0
   1   1   5  188.02    1.57   0
   2  -4 -11    0.17    0.40   0
   2   2   5  997.70    3.34   0
   3  -1 -11    6.42    0.57   0
   3   0 -10  182.13    1.48   0
   3   3   4   29.86    0.92   0
   4  -2 -13   28.26    0.79   0
   5   4   4    3.56    0.65   0
   6   1 -12   -0.08    0.76   0
   6   4   5   15.34    0.75   0
   6   3   8    9.65    0.63   0
  -8   0   6    5.33    1.02   0
  -8   4   2    0.17    0.74   0
  -7  -1   6    0.24    0.88   0
  -7   0   4  223.79    1.94   0
  -6   3   0  114.82    1.27   0
  -5  -2   5  181.89    2.25   0
  -5  -1   3    1.07    0.80   0
  -5   3  -1    7.08    0.68   0
  -4  -2   4   26.92    1.39   0
  -4   2  -1  291.54    2.06   0
  -4   4  -2    2.44    0.75   0
  -3  -4  11    3.83    1.21   0
  -1  -4  11  141.91    1.88   0
  -1  -4  12  162.99    2.06   0
  -1  -4  13    0.67    1.00   0
  -1   8  -3   23.14    0.93   0
   0  -3   6    3.04    0.91   0
   1  -3   7  630.63    3.15   0
   2  -3  10    7.93    0.68   0
   2  -3  11  217.70    1.75   0
   2  -3  12   14.32    0.85   0
   2  -3  13    6.16    0.86   0
   2  -2   5  973.04    3.73   0
   2   2  -1   92.65    2.25   0
   4   0   4 1006.41    3.58   0
   5   0   7    4.32    0.75   0
   5   2   3  451.45    2.57   0
   5   3   2   53.06    1.15   0
   6   5   3    1.29    1.10   0
   6   6   3   -0.16    1.24   0
  -7  -2   9    3.14    1.12   0
  -7   1   3  350.12    2.21   0
  -7   2   2  107.47    1.30   0
  -4   8  -2   -0.24    0.78   0
  -3   3  -2  176.92    1.75   0
  -2  -4  10   92.29    1.90   0
  -2   0   0   10.48    1.12   0
  -2   1  -1 1129.93    4.76   0
  -2   5  -3   -0.45    0.79   0
  -2   7  -3   25.30    0.90   0
   2  -3   9  249.33    1.89   0
   3  -2   7  111.98    1.38   0
   3  -1   4   12.58    0.69   0
   4   2   1  315.08    2.49   0
   6   2   6   73.68    1.06   0
  -8   1   5    0.72    0.98   0
  -8   2   4    0.14    0.96   0
  -8   3   3    0.00    0.68   0
  -7   4   1  143.09    1.40   0
  -6   0   3 1270.36    4.40   0
  -6   2   1  143.05    1.42   0
  -5   2   0    1.50    0.77   0
  -4   0   1  202.98    1.93   0
  -4   1   0  691.67    3.16   0
  -4   5  -2  282.89    1.92   0
  -4   7  -2  101.25    1.32   0
  -2   6  -3   32.09    0.91   0
  -1  -4  10   78.68    1.57   0
  -1   5  -3  332.87    2.63   0
  -1   7  -3   76.20    1.43   0
   0   5  -3   17.95    1.26   0
   0   7  -3    7.17    0.87   0
   2   0   1 1848.70    6.39   0
   3   0   2   21.54    0.77   0
   4  -1   6  140.52    1.35   0
   4   1   2  931.30    3.76   0
   5   0   6  249.97    1.87   0
   5   1   4  990.20    3.56   0
   5   4   1   -0.33    0.72   0
   6   3   4   41.46    1.08   0
  -8   0   7   74.78    1.63   0
  -7   5   1   29.27    0.98   0
  -6  -2   7  242.55    2.54   0
  -6   1   2  383.59    2.35   0
  -6   4   0   92.83    1.16   0
  -5   0   2  408.55    2.60   0
  -5   4  -1    0.84    0.50   0
  -4   6  -2    6.19    0.67   0
  -1   6  -3  109.46    1.67   0
   0  -4  11   64.28    1.35   0
   0  -4  12  109.43    1.57   0
   0  -4  13   12.43    0.99   0
   0   1  -1 6642.69   23.28   0
   0   6  -3  212.84    2.43   0
   2  -3   8  367.80    2.28   0
   3   3  -1  663.78    4.79   0
   4  -2  11   24.69    0.92   0
   4   3   0  234.00    2.44   0
   6   2   5   43.02    1.07   0
   6   4   3   -1.30    0.87   0
  -7   0   5   16.87    1.05   0
  -7   3   2   82.09    1.19   0
  -6   5   0   12.56    0.75   0
  -5   1   1   85.63    1.34   0
  -5   7  -1    0.27    0.77   0
  -3   8  -2   24.15    0.95   0
  -2   9  -2    2.14    0.87   0
  -1   1  -1 2514.47    8.89   0
   0  -2   3  219.43    2.85   0
   1   9  -2   -0.02    0.96   0
   2   8  -2    5.02    1.23   0
   3  -2   6   28.35    0.86   0
   4  -2   9    0.24    0.73   0
   4  -2  10   22.17    0.75   0
   4   0   3 1447.84    4.47   0
   5  -1   9   80.76    1.20   0
   5  -1  10   43.92    0.93   0
  -7  -1   7    0.79    0.88   0
  -6  -1   5  395.42    2.80   0
  -6   6   0   31.39    0.77   0
  -5   6  -1    8.24    0.56   0
  -4  -3   7   62.32    2.21   0
  -4   3  -1  759.07    3.14   0
  -3  -4  10   73.53    2.80   0
  -3   4  -2   15.28    0.97   0
  -2   3  -2  321.55    2.35   0
  -1  -4   9  173.81    2.27   0
  -1   0   0 3281.34   12.85   0
   0  -4  10    7.37    0.77   0
   1  -3   6  620.53    3.33   0
   3  -3  11  230.38    1.86   0
   3  -3  12    1.64    0.81   0
   4  -1   5  944.11    3.32   0
   4   6  -1    5.21    1.20   0
   5  -1   8    2.58    0.77   0
   5   0   5  868.96    3.24   0
   5   2   2   25.90    1.07   0
   6   1   6   72.67    1.17   0
   6   5   2    4.41    1.14   0
   6   6   2   32.44    1.36   0
  -8   1   6  116.72    1.62   0
  -8   2   5   26.14    1.15   0
  -8   3   4    0.15    0.70   0
  -7   1   4    0.32    0.74   0
  -7   2   3   18.40    0.86   0
  -6   3   1    3.81    0.67   0
  -3  -3   6  773.82   10.07   0
  -3   2  -1 1526.48    4.74   0
  -3   7  -2   27.31    0.90   0
  -2  -4   9   87.27    2.13   0
  -1  -3   5   57.44    1.97   0
  -1   9  -2    3.99    0.90   0
   0   9  -2   53.87    1.47   0
   1  -4  12    3.89    0.98   0
   2  -3   7   30.74    1.10   0
   2  -2   4 1381.46    4.62   0
   3  -3  10   49.69    1.05   0
   3  -1   3  594.82    2.97   0
   4  -2   8  110.49    1.17   0
   4   5  -1  385.08    3.90   0
   5   1   3  100.08    1.43   0
   5   3   1    7.48    0.92   0
   6   0   9    1.09    0.98   0
   6   2   4   17.57    0.88   0
   6   3   3    1.66    0.77   0
  -7   4   2  119.08    1.27   0
  -5   3   0    6.50    0.52   0
  -4   8  -1    9.29    0.91   0
  -3   5  -2    8.73    0.83   0
  -3   6  -2   76.39    1.22   0
   0  -4   9   36.62    1.14   0
   1  -4  11   14.22    0.90   0
   2  -1   2    0.14    0.93   0
   3  -3   9   35.72    0.95   0
   3  -2   5   18.18    1.08   0
   5  -1   7  378.07    2.16   0
   5   6   0    0.15    1.11   0
   6   0   8   59.17    1.19   0
   6   1   5   -0.24    0.70   0
   6   4   2   61.96    1.48   0
  -7   5   2   36.88    0.85   0
  -6   0   4  280.13    2.22   0
  -6   2   2  301.19    2.04   0
  -6   4   1   41.91    0.93   0
  -5  -3   9   76.36    2.16   0
  -5  -1   4  565.08    3.39   0
  -4   4  -1  237.16    1.83   0
  -2   8  -2    0.08    0.68   0
   0  -3   5  221.49    2.51   0
   1  -4  10    0.11    0.73   0
   4  -2   7   32.36    0.82   0
   4  -1   4  505.59    2.68   0
   4   7  -1  170.33    3.66   0
   5   0   4   10.56    0.98   0
   5   5   0   19.03    1.14   0
   6   0   7  154.57    1.58   0
  -8   3   5    0.57    1.07   0
  -7   0   6    3.97    0.87   0
  -7   3   3  163.20    1.55   0
  -6  -2   8   11.13    1.08   0
  -6   1   3  551.02    2.84   0
  -6   7   1   -0.14    0.87   0
  -5  -2   6  534.88    3.79   0
  -5   4   0   50.03    0.98   0
  -4   2   0 1834.57    4.97   0
  -4   7  -1  123.57    1.42   0
  -3   1   0 3375.89    7.52   0
  -1   3  -2  890.20    4.45   0
   1  -2   3 1608.84    5.95   0
   3  -3   8    5.32    0.81   0
   4   1   1  890.52    3.87   0
   5  -1   6  138.05    1.45   0
   7   2   6    1.60    0.93   0
   7   3   5    9.63    0.88   0
   7   4   4   37.39    1.35   0
  -8   2   6   14.98    1.15   0
  -6   5   1   41.55    0.80   0
  -6   6   1   27.94    0.79   0
  -5   2   1   70.12    1.10   0
  -5   5   0   17.63    0.80   0
  -5   6   0    0.55    0.71   0
  -5   7   0    7.86    0.66   0
  -4   5  -1  106.41    1.22   0
  -4   6  -1   81.80    1.17   0
  -3   0   1  695.54    3.84   0
  -2   4  -2   80.22    1.26   0
  -2   7  -2  117.40    1.47   0
  -1  -4   8  301.36    3.14   0
  -1   8  -2   81.58    1.46   0
   0  -4   8   15.95    1.05   0
   1  -4   9   31.83    1.03   0
   1   3  -2    5.57    1.63   0
   2  -4  12    2.85    0.84   0
   2  -3   6 1441.30    4.60   0
   4  -2   6   38.37    1.06   0
   4   0   2   22.10    1.10   0
   5  -2  10   16.02    1.01   0
   5   7   0    9.32    1.29   0
   6   0   6   32.40    1.00   0
   6   1   4   36.45    0.98   0
   6   2   3   69.70    1.29   0
   6   3   2   28.25    0.99   0
  -7   1   5   35.64    1.05   0
  -7   2   4   67.52    1.15   0
  -7   4   3   10.94    0.85   0
  -6  -1   6   37.48    1.16   0
  -5   0   3  994.93    4.07   0
  -5   1   2   49.58    1.21   0
  -3   3  -1  187.16    1.81   0
  -2   5  -2    3.78    0.85   0
  -2   6  -2   26.82    0.95   0
   1  -3   5    3.62    1.05   0
   1   8  -2   31.09    1.38   0
   2  -4  11   63.58    1.24   0
   3  -3   7  218.21    1.85   0
   3   0   1  550.71    3.24   0
   3   1   0 3559.28    8.85   0
   4  -3  11   63.24    1.26   0
   4   2   0 1877.68    6.18   0
   4   4  -1   12.59    1.27   0
   5  -2   9   53.42    1.14   0
   5   1   2  199.74    1.90   0
   5   2   1    0.85    1.06   0
   5   4   0   45.42    1.28   0
   6  -1   9  136.35    1.54   0
   7   1   7   -0.47    1.09   0
   7   3   4    3.05    0.95   0
  -7   5   3  135.56    1.47   0
  -6   3   2  212.19    1.75   0
  -4   0   2  929.81    4.08   0
  -4   1   1 1381.28    4.55   0
  -3   8  -1   50.29    1.08   0
  -2   2  -1  249.01    2.26   0
  -2   9  -1    0.40    0.92   0
   0   3  -2  665.29    4.88   0
   0   8  -2    0.32    0.84   0
   2  -4  10  152.76    1.62   0
   3  -2   4  444.67    2.60   0
   4  -3  10    3.54    0.67   0
   5  -2   8  196.54    1.67   0
   5  -1   5  143.47    1.53   0
   6  -1   8   29.98    1.07   0
   6   5   1  128.36    1.88   0
   6   6   1    1.38    1.30   0
   7   2   5    1.14    1.02   0
  -5   3   1    2.66    0.75   0
  -4  -2   5    0.35    1.01   0
   1  -4   8  193.56    1.92   0
   2  -4   9   43.11    1.07   0
   4  -3   9    8.45    0.63   0
   4  -2   5  454.15    2.49   0
   4  -1   3  205.64    1.94   0
   5   0   3 1153.68    3.84   0
   6   0   5   24.95    0.77   0
   7   1   6    0.20    1.00   0
  -7   0   7    0.30    0.81   0
  -7   3   4   -0.21    0.70   0
  -6  -2   9   29.53    1.49   0
  -6   0   5    5.44    0.80   0
  -6   2   3  771.91    3.26   0
  -4   3   0  210.40    1.77   0
  -3  -2   4 1932.33    9.09   0
  -3   4  -1  261.52    2.11   0
  -3   7  -1    1.21    0.70   0
  -1   4  -2  656.19    3.70   0
  -1   7  -2   49.36    1.19   0
   1   0   0 3670.64   13.76   0
   2  -3   5  730.14    3.50   0
   2  -2   3  138.82    1.62   0
   3  -3   6  336.29    2.24   0
   3  -1   2   95.44    1.48   0
   5  -2   7    0.81    0.78   0
   6   1   3    2.28    0.78   0
   6   2   2  119.25    1.57   0
   6   4   1    0.26    0.84   0
  -7   1   6    0.45    0.83   0
  -7   2   5    0.46    0.79   0
  -7   4   4   78.76    1.21   0
  -6   1   4  359.68    2.37   0
  -6   5   2  136.63    1.34   0
  -6   6   2   25.53    0.79   0
  -5   7   1    3.01    0.83   0
  -4   7   0    7.53    0.79   0
  -3   6  -1  180.42    1.70   0
  -1   9  -1   24.68    1.16   0
   2   7  -2   76.68    2.40   0
   3  -4  11    1.05    0.95   0
   3   2  -1 2419.71    8.43   0
   5  -1   4 1068.89    3.68   0
   5   3   0    6.43    0.91   0
   7   1   5   52.97    1.16   0
   7   2   4   31.68    0.91   0
   7   3   3   88.50    1.50   0
  -7   5   4    1.39    0.96   0
  -5  -3  10  166.57    3.01   0
  -5   4   1   85.45    1.07   0
  -5   5   1   26.34    0.89   0
  -5   6   1   39.55    0.98   0
  -4   4   0  483.12    2.53   0
  -3   5  -1   70.55    1.11   0
  -2  -4   8   59.88    2.34   0
  -2   8  -1   16.82    0.86   0
  -1   5  -2   -0.68    0.96   0
  -1   6  -2  281.36    2.38   0
   0  -4   7   57.87    1.44   0
   0   7  -2   62.94    1.50   0
   2  -4   8  112.40    1.53   0
   3  -4  10  167.83    1.73   0
   4  -3   7    0.36    0.75   0
   4   3  -1 1155.89    5.66   0
   5  -2   6   90.00    1.25   0
   6  -1   6   74.07    1.19   0
   6   0   4   89.24    1.31   0
   6   3   1  120.84    1.64   0
   7   0   7   -0.91    0.81   0
  -6   3   3  438.82    2.46   0
  -5  -2   7   65.07    1.61   0
  -5   2   2   45.40    1.15   0
  -4   5   0  204.46    1.72   0
  -4   6   0  254.18    1.80   0
  -3   2   0  132.80    1.63   0
   1  -4   7   16.84    1.04   0
   1  -1   1 2543.64    9.27   0
   2   9  -1    0.33    1.42   0
   3  -4   9   87.44    1.34   0
   7   0   6   27.22    1.01   0
   7   5   2   65.19    1.65   0
  -7   0   8   -0.21    1.02   0
  -7   3   5    6.65    0.87   0
  -4   2   1   17.51    1.03   0
  -3   8   0    5.10    0.83   0
  -2   1   0  289.07    2.75   0
  -2   3  -1  108.80    1.55   0
  -1  -4   7  291.24    3.49   0
   0   9  -1  103.86    1.70   0
   1   7  -2    0.20    0.90   0
   2   0   0    8.35    1.19   0
   3  -3   5  125.88    1.59   0
   3  -2   3  273.64    2.12   0
   3   5  -2   15.43    2.56   0
   4  -2   4  602.09    2.83   0
   4   0   1  507.36    2.92   0
   5  -3   9   34.26    1.07   0
   5   0   2  168.70    1.78   0
   5   1   1   87.02    1.28   0
   6  -2   8   87.68    1.36   0
   6  -1   5    1.69    0.70   0
   7   1   4    2.08    0.83   0
   7   2   3    5.21    0.94   0
   7   4   2  168.47    2.03   0
  -7   1   7    0.86    0.95   0
  -7   2   6   -0.25    0.83   0
  -6  -2  10    1.77    1.18   0
  -6   4   3  495.92    2.51   0
  -6   6   3  199.26    1.67   0
  -5   0   4    0.43    0.89   0
  -5   1   3    0.07    0.63   0
  -4   8   1    5.59    0.88   0
  -2   7  -1    0.05    0.73   0
  -2   9   0    5.40    1.05   0
   0  -5  12   27.82    1.25   0
   0   4  -2   34.75    1.41   0
   1  -3   4 3012.51    7.83   0
   1   9  -1   11.14    1.19   0
   2  -4   7  430.77    2.65   0
   2  -1   1 1174.47    5.11   0
   3  -4   8    0.62    0.72   0
   4  -3   6  152.83    1.63   0
   4   1   0  753.13    3.77   0
   5  -3   8    3.76    0.80   0
   5  -2   5  412.76    2.42   0
   6   1   2   10.16    0.93   0
  -7   4   5    4.80    0.67   0
  -7   5   5    4.33    0.96   0
  -6   0   6  264.30    2.25   0
  -6   2   4  334.76    2.19   0
  -6   5   3   92.82    1.13   0
  -5   3   2   84.77    1.29   0
  -5   7   2    8.76    0.90   0
  -1  -5  12    1.36    1.11   0
  -1   2  -1   14.83    1.18   0
  -1   8  -1   45.64    1.26   0
   0  -5  11    0.60    0.97   0
   0  -3   4  713.49    4.75   0
   0   6  -2   -0.05    0.87   0
   1  -5  12   19.59    1.15   0
   4  -4  10    1.17    0.97   0
   4  -1   2  946.93    3.65   0
   5  -1   3   89.96    1.22   0
   5   2   0    0.88    0.94   0
   6  -2   7   94.85    1.35   0
   6   0   3    8.38    0.71   0
   6   2   1  101.24    1.52   0
   6   5   0   13.75    1.11   0
   7  -1   7    0.45    0.95   0
   7   0   5    6.09    0.91   0
   7   3   2   82.62    1.55   0
  -7   0   9    0.01    1.19   0
  -6   1   5  341.75    2.37   0
  -4  -3   8   18.64    1.48   0
  -4   1   2   41.84    1.17   0
  -4   7   1  164.02    1.64   0
  -3   1   1  604.38    3.42   0
  -3   7   0  374.64    2.35   0
  -3   9   1   14.48    1.08   0
  -2   4  -1   35.48    1.16   0
  -2   6  -1   25.68    1.01   0
   0   5  -2  708.21    4.26   0
   1  -5  11    0.11    0.89   0
   2  -3   4   57.95    1.38   0
   4  -4   9    1.36    0.79   0
   5  -3   7  178.91    1.61   0
   5   5  -1   30.41    1.34   0
   6   4   0  110.82    1.80   0
   6   6   0   37.02    1.47   0
  -7   3   6    3.46    0.90   0
  -5  -3  11    8.54    1.47   0
  -5   4   2   67.87    1.11   0
  -5   5   2    0.36    0.75   0
  -5   6   2    1.22    0.60   0
  -4   0   3    3.87    0.95   0
  -4   3   1 1055.69    3.74   0
  -3   3   0 2844.63    6.31   0
  -2   0   1 2251.77    8.32   0
  -2   5  -1   26.28    1.06   0
   1  -4   6   25.53    1.21   0
   2  -5  11   55.09    1.43   0
   3  -4   7  159.53    1.68   0
   5   4  -1  101.46    1.84   0
   6  -2   6   87.02    1.28   0
   6  -1   4   31.03    0.85   0
   7  -1   6    1.11    0.98   0
   7   1   3  174.12    1.77   0
  -7   1   8    0.00    1.00   0
  -7   2   7    1.67    0.96   0
  -7   4   6   -0.02    0.95   0
  -6  -2  11    0.18    1.26   0
  -6   6   4   71.91    1.25   0
  -5   2   3 1276.31    4.24   0
  -4   4   1   13.67    0.89   0
  -4   6   1    4.69    0.76   0
  -3   6   0   18.48    0.82   0
  -1  -5  11   90.26    1.96   0
   0  -5  10   29.02    1.12   0
   0  -4   6    5.63    1.23   0
   1  -5  10    5.00    0.89   0
   1   6  -2   59.71    1.69   0
   2  -4   6    1.18    0.89   0
   2  -2   2  891.24    4.11   0
   3  -1   1 1075.85    4.30   0
   3   0   0  623.22    3.63   0
   4  -4   8   10.68    0.86   0
   4  -3   5  614.11    2.77   0
   4  -2   3 1803.52    4.82   0
   4   2  -1   18.51    1.45   0
   5  -2   4    3.06    0.86   0
   5   6  -1   44.46    1.77   0
   7   0   4  137.74    1.56   0
   7   2   2  187.98    1.79   0
   7   4   1  171.42    2.19   0
   7   5   1   38.69    1.43   0
  -7   0  10   39.63    1.57   0
  -7   5   6    0.00    0.78   0
  -6   4   4  109.82    1.31   0
  -6   5   4  131.56    1.41   0
  -5  -2   8  796.47    4.99   0
  -4   5   1  356.78    2.18   0
  -4   8   2   22.16    1.00   0
  -3   0   2 2621.28    7.59   0
  -3   4   0  119.75    1.59   0
  -2   8   0   25.54    0.94   0
  -1   7  -1  257.23    2.32   0
  -1   9   0   81.23    1.46   0
   0   8  -1    2.65    0.99   0
   2  -5  10   19.46    1.01   0
   2   1  -1   34.13    1.51   0
   2   6  -2   68.33    2.43   0
   3  -3   4   28.44    0.97   0
   3   4  -2 1157.82    9.27   0
   5  -3   6   57.87    1.16   0
   5   0   1   25.87    1.12   0
   6   0   2  157.13    1.67   0
   6   3   0  120.98    1.75   0
  -7   3   7    0.26    0.93   0
  -6   2   5   35.62    0.95   0
  -5   7   3    8.18    0.89   0
  -4  -2   6   16.07    1.30   0
  -3   8   1   79.01    1.27   0
   1  -5   9   23.09    1.16   0
   1   4  -2  360.71    4.40   0
   5  -1   2  210.27    1.86   0
   5   1   0    8.24    0.93   0
   5   3  -1    4.26    1.07   0
   6  -3   8    9.46    0.81   0
   6  -2   5   40.90    0.91   0
   7  -1   5   52.41    1.25   0
   7   3   1   90.30    1.52   0
  -6   1   6   31.95    0.99   0
  -5   0   5    9.48    0.92   0
  -5   1   4  494.31    2.75   0
  -5   3   3    3.72    0.83   0
  -4   2   2  848.91    3.60   0
  -2   9   1    0.49    0.93   0
   0  -5   9    1.96    0.93   0
   1   5  -2    9.69    1.28   0
   2  -5   9  101.19    1.52   0
   3  -5  10   25.29    1.10   0
   3  -4   6   50.40    1.02   0
   3  -2   2  341.98    2.32   0
   4  -4   7   62.66    1.01   0
   6  -3   7   64.44    1.22   0
   6  -1   3    3.71    0.68   0
   7   0   3   35.56    1.01   0
   7   1   2  221.69    2.05   0
  -7   2   8    0.01    0.75   0
  -7   4   7    0.03    0.76   0
  -6   3   5  215.19    1.72   0
  -6   6   5    1.29    0.94   0
  -5   6   3  183.99    1.51   0
  -4   7   2   86.18    1.27   0
  -2   2   0  493.91    3.14   0
  -1  -5  10   65.32    1.78   0
  -1   3  -1 2050.60    6.86   0
   3   1  -1  692.98    4.21   0
   4  -3   4  515.86    2.70   0
   4  -1   1  934.48    3.75   0
   4   0   0 1164.61    4.38   0
   5  -4   8  160.19    1.72   0
   5  -3   5   80.84    1.34   0
   5  -2   3  474.51    2.54   0
   6   2   0   68.87    1.32   0
  -6   4   5    0.22    0.76   0
  -6   5   5   92.88    1.27   0
  -5   5   3    2.33    0.50   0
  -3   2   1 2352.27    6.07   0
  -3   7   1   95.27    1.33   0
  -2   7   0    6.11    0.75   0
  -1   6  -1  136.44    1.73   0
   0   9   0   -0.03    1.00   0
   1   8  -1   13.03    1.03   0
   3  -5   9   33.70    1.09   0
   6  -2   4   19.77    0.91   0
   7  -2   6    3.92    0.74   0
   7  -1   4    2.69    0.90   0
   8   3   2  101.12    1.74   0
  -7   1  10    0.21    1.35   0
  -7   3   8    0.06    0.76   0
  -6   2   6  150.01    1.61   0
  -5   7   4  120.59    1.45   0
  -4   3   2  187.35    1.80   0
  -4   6   2  148.52    1.53   0
  -4   8   3    5.84    0.96   0
  -1   8   0   95.81    1.57   0
   1  -5   8   14.39    0.97   0
   1  -4   5 2084.13    6.49   0
   2  -5   8   56.08    1.23   0
   2  -4   5  385.70    2.66   0
   2  -3   3  108.52    1.59   0
   4  -4   6    6.43    0.65   0
   4  -2   2  103.04    1.64   0
   5  -4   7    0.57    0.81   0
   6  -3   6   51.25    0.99   0
   8   0   4   96.48    1.46   0
   8   1   3  130.14    1.68   0
  -7   4   8    0.08    0.83   0
  -5  -2   9  213.77    2.75   0
  -5   2   4    1.66    0.76   0
  -4   1   3   17.90    0.99   0
  -4   5   2    9.78    0.78   0
  -2   6   0   46.21    1.13   0
  -1   4  -1  850.95    4.08   0
  -1   5  -1  301.93    2.48   0
   0   7  -1  126.88    1.77   0
   1  -3   3  806.80    4.28   0
   3  -5   8   24.09    0.94   0
   3  -4   5    3.94    0.91   0
   3  -3   3  740.61    3.39   0
   3   8  -1   78.62    2.59   0
   5   2  -1   82.31    1.54   0
   5   7  -1    4.24    1.62   0
   6  -1   2    9.80    0.99   0
   6   0   1   12.40    0.90   0
   7  -2   5    0.53    0.97   0
   7   0   2  326.86    2.28   0
   7   4   0   -0.25    1.08   0
   8   2   2   39.49    1.32   0
  -7   3   9    3.17    1.19   0
  -5   6   4    3.50    0.74   0
  -4   4   2  325.56    2.03   0
  -3   3   1  613.55    3.04   0
  -3   6   1  287.18    1.91   0
  -3   8   2  155.88    1.58   0
  -2   3   0    4.03    0.81   0
  -2   8   1   48.82    1.07   0
   2   5  -2  303.37    4.97   0
   2   8  -1   45.49    1.52   0
   3   3  -2   23.26    1.66   0
   4  -5   9    1.49    0.99   0
   4   1  -1 1460.99    5.39   0
   5  -3   4  484.87    2.49   0
   5  -1   1   87.79    1.47   0
   6  -3   5    0.58    0.74   0
   6   1   0  165.79    1.76   0
   6   4  -1   46.70    1.38   0
   7  -1   3  181.34    1.76   0
   7   1   1  121.10    1.58   0
   7   5   0  125.44    1.96   0
  -6   4   6   82.60    1.20   0
  -6   5   6    2.94    0.82   0
  -5   0   6  307.64    2.58   0
  -5   1   5  320.53    2.32   0
  -5   3   4  509.31    2.58   0
  -4  -3   9  264.26    3.78   0
  -4   0   4   11.21    1.09   0
  -4   7   3    1.18    0.75   0
  -3   5   1  182.59    1.74   0
  -2   5   0  136.01    1.64   0
  -1   1   0 5115.43   13.55   0
  -1   9   1   10.49    0.97   0
   0  -5   8    2.24    0.83   0
   1   9   0   77.28    1.67   0
   2  -5   7   37.06    1.27   0
   4  -4   5   67.25    1.29   0
   4  -3   3   41.87    1.19   0
   4   4  -2  387.11    4.12   0
   5  -4   6  116.91    1.43   0
   5  -2   2   26.32    1.09   0
   5   0   0  166.59    1.83   0
   6  -2   3   73.41    1.26   0
   6   5  -1   47.83    1.50   0
   7   3   0  167.54    1.89   0
  -5   4   4   -0.87    0.72   0
  -5   5   4  101.78    1.14   0
  -5   7   5   20.19    1.02   0
  -3   1   2   14.05    1.02   0
  -3   4   1  406.15    2.41   0
  -2   4   0   47.83    1.24   0
  -2   9   2   48.50    1.13   0
  -1  -5   9   55.56    1.88   0
  -1  -3   4    7.53    1.51   0
   3  -5   7  106.72    1.49   0
   4  -5   8   59.23    1.24   0
   4   5  -2   14.40    1.60   0
   6  -4   7   72.89    1.26   0
   6   3  -1    3.18    0.88   0
   7  -2   4   33.09    1.04   0
   8   0   3   90.63    1.50   0
   8   1   2  129.77    1.67   0
   8   3   1    0.24    1.14   0
  -4   2   3  226.73    2.00   0
  -4   8   4   11.40    0.87   0
  -3  -2   5  336.89    3.91   0
  -3   7   2   24.16    0.86   0
  -2  -5  11  120.35    3.58   0
  -1   7   0  135.80    1.75   0
   0  -4   5 1008.07    5.49   0
   0   2  -1 2166.88   10.24   0
   1  -5   7  125.60    1.78   0
   3  -2   1 1684.31    5.19   0
   3  -1   0 3890.16    8.23   0
   7   2   0    1.76    0.90   0
   8  -1   4   40.30    1.09   0
  -6   5   7   20.27    1.02   0
  -4  -2   7   13.01    1.17   0
  -2   1   1   32.72    1.33   0
  -2   7   1   55.98    1.14   0
   0   6  -1    0.78    0.95   0
   0   8   0  426.33    3.09   0
   2  -4   4  168.00    1.91   0
   2  -2   1  267.24    2.40   0
   2   9   0    5.54    1.26   0
   3  -4   4   60.18    1.31   0
   4  -5   7    2.99    0.89   0
   4   3  -2  217.11    2.82   0
   5  -4   5  354.72    2.21   0
   5   1  -1   98.94    1.60   0
   6  -3   4   46.84    0.93   0
   6  -1   1  259.03    2.01   0
   6   6  -1   29.50    1.46   0
   7  -1   2  224.95    2.01   0
   8   2   1  124.72    1.69   0
  -5  -2  10   10.87    1.11   0
  -5   2   5  141.10    1.46   0
  -5   6   5   35.74    0.82   0
  -4   5   3    6.23    0.73   0
  -3   8   3   10.38    0.85   0
   1  -6  11    8.76    1.24   0
   1   7  -1   34.51    1.32   0
   4  -4   4  470.07    2.58   0
   4  -2   1  330.19    2.33   0
   4  -1   0  754.82    3.35   0
   5  -5   8    4.37    0.81   0
   6  -4   6    7.06    0.74   0
   6  -2   2  121.42    1.53   0
   6   2  -1  158.63    1.81   0
   7  -3   5   13.25    1.05   0
   8   0   2   10.71    0.98   0
  -6   0  10    0.13    1.08   0
  -5   5   5   41.52    0.93   0
  -5   7   6    2.48    0.93   0
  -4   3   3    0.96    0.62   0
  -4   4   3    5.70    0.75   0
  -4   7   4    3.25    0.81   0
  -3   0   3 1436.20    5.67   0
   0   9   1  107.59    1.67   0
   2  -6  10   74.17    1.48   0
   2  -5   6  484.08    2.88   0
   3  -5   6  263.35    2.15   0
   3  -3   2  201.89    1.99   0
   3   0  -1  698.01    3.89   0
   3   9   0   23.47    1.61   0
   7  -2   3    4.10    0.71   0
   8  -1   3  124.00    1.57   0
  -6   1   9   -0.02    0.88   0
  -6   5   8   43.38    1.16   0
  -5   1   6    2.90    0.76   0
  -5   4   5   17.21    0.75   0
  -4   1   4    0.14    0.93   0
  -4   8   5    0.06    0.86   0
  -3  -3   7   87.85    2.88   0
  -3   2   2 2248.63    5.97   0
  -2   8   2    3.73    0.71   0
  -2   9   3   66.55    1.28   0
  -1   8   1   13.04    0.88   0
   0  -5   7    0.30    0.93   0
   0  -3   3   12.46    1.12   0
   1  -6  10    2.20    1.08   0
   1  -4   4  172.86    2.16   0
   2   4  -2  734.85    9.90   0
   4  -3   2  679.74    3.08   0
   4   0  -1  215.31    2.10   0
   5  -5   7  145.77    1.62   0
   5  -2   1    3.42    0.93   0
   5  -1   0    8.83    0.97   0
   5   4  -2   78.30    1.78   0
   6  -4   5   14.63    0.88   0
   6  -3   3    1.71    0.73   0
   8   1   1   -0.07    0.71   0
  -6   0  11    0.00    1.51   0
  -5   6   6   54.81    1.07   0
  -2   6   1  123.72    1.50   0
  -1   6   0  447.46    2.79   0
  -1   9   2    0.39    0.86   0
   0   5  -1 1475.22    5.69   0
   1  -5   6  268.99    2.57   0
   2  -6   9   19.31    1.16   0
   3  -6   9   31.05    1.17   0
   3   2  -2 3252.89   10.60   0
   4   2  -2 1015.05    5.14   0
   5  -4   4    5.89    0.84   0
   5   3  -2   94.10    1.88   0
   6   1  -1   51.09    1.23   0
   7  -3   4    6.24    0.98   0
   7   3  -1   25.13    1.13   0
   7   4  -1  170.62    2.10   0
   8   3   0   22.04    1.20   0
  -4   0   5   65.62    1.45   0
  -4   6   4   12.38    0.72   0
  -3   5   2   13.44    0.73   0
  -3   7   3  326.66    2.12   0
   0  -6  11   33.01    1.42   0
   5  -5   6   55.07    1.19   0
   5   0  -1  188.51    1.94   0
   7  -2   2  186.47    1.72   0
   7  -1   1  128.03    1.50   0
   7   5  -1   34.27    1.40   0
   8  -1   2  135.09    1.56   0
   8   2   0    9.73    0.98   0
  -6   1  10    0.37    1.05   0
  -5   5   6   -0.07    0.75   0
  -4  -3  10  137.66    2.68   0
  -3   3   2   15.26    0.76   0
  -3   4   2  969.49    3.53   0
  -3   8   4   25.72    0.95   0
  -2   2   1   83.04    1.45   0
   0   3  -1 1527.93    6.94   0
   0   4  -1   46.40    1.48   0
   1  -6   9   -0.43    1.01   0
   1  -2   1   12.09    0.94   0
   1   8   0   99.03    1.75   0
   2   0  -1 2425.96    8.45   0
   3  -5   5    0.47    0.91   0
   3  -4   3   83.17    1.41   0
   4  -4   3  676.20    3.07   0
   5   5  -2    1.28    1.13   0
   6  -2   1  104.99    1.37   0
   6  -1   0  165.47    1.65   0
   7   0   0    1.67    0.86   0
   7   2  -1  193.55    1.98   0
   8  -2   3   74.61    1.35   0
   8   0   1   87.59    1.42   0
  -6   3   9    0.43    0.66   0
  -4   5   4    3.14    0.67   0
  -2   5   1    0.16    0.83   0
  -2   7   2   66.84    1.21   0
  -1  -5   8  506.84    4.88   0
  -1   2   0 8465.16   14.73   0
  -1   5   0  941.38    4.02   0
   1   9   1   25.38    1.22   0
   2  -6   8   47.90    1.34   0
   2  -5   5   96.98    1.57   0
   3  -6   8    3.79    0.93   0
   4  -6   8    3.06    0.89   0
   4  -5   5  341.46    2.28   0
   5   2  -2   51.05    1.37   0
   6  -4   4   46.72    0.93   0
   7  -3   3   90.59    1.30   0
  -6   2  10    1.63    0.98   0
  -5  -2  12    0.11    1.43   0
  -5   6   7    6.17    0.65   0
  -4   3   4   28.22    0.97   0
  -4   4   4    8.36    0.74   0
  -2   0   2 5336.20   12.45   0
  -2   4   1  533.41    2.88   0
  -2   9   4    1.43    0.97   0
  -1   7   1   33.89    1.04   0
   0  -6  10    9.48    1.30   0
   1  -3   2  983.11    4.77   0
   1  -1   0 5517.16   13.94   0
   2  -4   3    0.29    1.04   0
   2   7  -1   61.07    1.65   0
   5  -5   5   58.90    1.17   0
   5  -4   3  469.87    2.54   0
   6  -5   6   17.41    1.12   0
   6  -3   2   24.55    0.94   0
   6   0  -1  120.18    1.54   0
   8   1   0   22.46    1.09   0
  -6   3  10   -0.05    1.00   0
  -6   4  10   -0.45    0.98   0
  -4  -2   8  333.98    3.34   0
  -4   6   5    0.78    0.68   0
  -2   3   1  188.86    1.79   0
  -2   8   3   37.88    0.85   0
  -1   4   0 1146.50    4.59   0
   1   6  -1   15.96    1.12   0
   3  -2   0  146.39    1.73   0
   4  -2   0 1994.01    5.31   0
   4   1  -2   42.40    1.44   0
   6   3  -2  254.12    2.43   0
   6   4  -2   46.83    1.52   0
   7   1  -1   76.65    1.37   0
  -6   1  12    0.26    1.47   0
  -6   2  11    0.09    1.16   0
  -5   2   7   50.44    1.06   0
  -5   6   8  110.61    1.39   0
  -4   7   6    1.20    0.84   0
  -3   1   3 3218.69    7.47   0
  -3   8   5   32.52    1.02   0
  -1   3   0 2030.25    6.45   0
  -1   8   2   26.92    0.95   0
  -1   9   3   18.51    0.92   0
   0   8   1    3.04    0.83   0
   0   9   2   60.52    1.27   0
   1  -6   8   86.22    1.66   0
   3  -6   7   18.17    0.96   0
   3  -3   1  206.95    1.96   0
   4  -6   7   27.86    1.07   0
   4  -3   1  811.46    3.27   0
   4  -1  -1 1621.79    4.96   0
   5  -2   0    1.17    0.96   0
   5   1  -2   51.20    1.47   0
   6  -4   3   -2.50    0.87   0
   6   2  -2  326.11    2.59   0
   7  -2   1  199.12    1.78   0
   8  -2   2   38.72    1.19   0
   8  -1   1    0.40    0.70   0
  -5   4   7   40.90    0.89   0
  -2   6   2   56.22    1.13   0
   1  -5   5   53.42    1.54   0
   2  -6   7  202.29    2.10   0
   3  -5   4   13.45    0.97   0
   4  -5   4   83.72    1.38   0
   5  -3   1    7.57    0.69   0
   5  -1  -1  100.18    1.48   0
   6  -5   5    4.97    0.72   0
   7  -3   2   88.11    1.35   0
   8   0   0   26.23    1.08   0
   8   3  -1   34.09    1.27   0
  -4  -3  11    5.50    1.38   0
  -4   5   5    1.11    0.49   0
   0  -5   6    5.64    1.14   0
   0  -4   4  262.95    3.09   0
   2   8   0   27.54    1.18   0
   3  -1  -1  671.37    3.55   0
   3   1  -2   18.49    1.13   0
   4  -4   2    1.74    0.93   0
   5  -5   4  399.36    2.40   0
   6  -2   0   75.19    1.24   0
   6   5  -2  155.80    2.46   0
   7   0  -1  479.55    2.68   0
   8   2  -1   29.71    1.14   0
  -5   6   9   28.62    1.04   0
  -4   0   6   87.14    1.48   0
  -4   2   5    1.26    0.75   0
  -4   6   6    6.66    0.75   0
  -4   7   7   -0.32    0.87   0
  -3   2   3  169.96    1.75   0
  -3   4   3  238.91    1.93   0
  -2   7   3   91.32    1.28   0
  -1   6   1   16.59    0.98   0
   0  -6   9   16.15    1.21   0
   0   6   0 1904.51    5.83   0
   1  -4   3   97.14    1.70   0
   2  -5   4   53.77    1.41   0
   2  -3   1  126.22    1.66   0
   2   9   1    1.35    0.93   0
   3  -6   6   34.61    1.11   0
   3  -4   2   20.56    1.14   0
   4  -6   6    9.30    0.94   0
   5  -4   2   67.05    1.08   0
   6  -3   1  125.17    1.34   0
   6  -1  -1   50.60    1.16   0
   6   1  -2  421.67    2.70   0
   7  -4   3    5.10    0.95   0
  -4   3   5   21.52    0.83   0
  -3   0   4  629.07    3.84   0
  -3   8   6    5.83    0.83   0
  -2  -2   4  631.51    6.70   0
  -2  -1   3 7123.27   17.05   0
  -2   8   4   49.09    0.93   0
   2  -2   0  486.36    3.08   0
   5  -6   6   20.62    1.03   0
   6  -5   4    1.01    0.92   0
   6  -4   2   64.62    1.18   0
   7   2  -2  118.44    1.60   0
   7   3  -2   97.16    1.56   0
   7   4  -2  141.03    2.09   0
   8  -2   1  126.23    1.53   0
   8  -1   0   22.83    1.03   0
   8   1  -1   45.56    1.20   0
  -5   5   9    4.38    0.89   0
  -3  -2   6   27.02    1.47   0
  -3   7   5    7.06    0.58   0
  -1   9   4   28.45    0.95   0
   1  -6   7    0.07    0.90   0
   1   7   0  139.09    1.92   0
   2  -6   6   11.32    1.04   0
   3   7  -1   93.31    2.29   0
   5   0  -2  450.77    2.75   0
   7  -3   1   97.50    1.36   0
   7  -2   0    1.49    0.89   0
   8  -3   2  103.21    1.32   0
  -4   5   6    1.84    0.60   0
  -4   6   7    5.08    0.76   0
  -4   7   8    5.39    0.85   0
  -2   1   2  420.48    3.14   0
  -1   7   2    1.07    0.71   0
  -1   8   3    4.98    0.74   0
   0   9   3   -0.10    0.87   0
   1   5  -1    5.21    1.20   0
   1   9   2    5.09    0.90   0
   2  -4   2   95.81    1.58   0
   2   2  -2  411.52    5.76   0
   4  -6   5   36.96    1.00   0
   4  -5   3  121.84    1.37   0
   5  -5   3   61.44    1.17   0
   6   0  -2  113.20    1.54   0
   7   1  -2  173.52    1.83   0
   8   0  -1    5.63    0.90   0
  -4   1   6    0.13    0.70   0
  -3   5   4   56.64    1.07   0
  -3   8   7    5.91    0.98   0
   0   7   1  126.40    1.61   0
   0   8   2   -0.73    0.85   0
   1   8   1   47.31    1.18   0
   3  -6   5   10.55    0.90   0
   3  -5   3  114.26    1.50   0
   3   5  -2   15.45    2.50   0
   4  -3   0  235.75    2.06   0
   5  -6   5  106.58    1.49   0
   5  -3   0    7.26    0.66   0
   5  -2  -1   86.81    1.41   0
   6  -5   3    2.59    0.83   0
   7  -4   2  172.48    1.69   0
  -4   4   6    2.50    0.43   0
  -3   7   6  108.39    1.31   0
  -2   6   3   87.36    1.26   0
  -2   8   5    2.57    0.80   0
  -1   5   1    3.86    0.98   0
   2  -7   9   42.75    1.33   0
   2  -1  -1   34.99    1.37   0
   3  -7   8   -0.01    1.01   0
   4  -2  -1   18.56    0.88   0
   5  -4   1   -0.06    0.86   0
   6  -2  -1  175.49    1.63   0
   7   5  -2   43.99    1.49   0
   8  -3   1   -0.32    0.89   0
   8  -2   0   12.53    1.01   0
  -4   0   7    1.18    0.71   0
  -4   2   6   11.11    0.63   0
  -4   3   6    0.17    0.50   0
  -4   6   8   73.72    1.14   0
  -3   4   4  274.29    1.94   0
  -2   2   2  346.76    2.54   0
  -2   7   4   39.22    0.92   0
  -1  -4   5   19.00    1.89   0
  -1   9   5   -0.04    0.95   0
   0  -6   8   28.46    1.39   0
   0   5   0    0.35    0.96   0
   1  -5   4  606.63    3.70   0
   3  -3   0 3418.00    6.90   0
   3   0  -2 2788.75    7.53   0
   3   8   0    5.45    1.03   0
   6  -4   1   -0.72    0.81   0
   7   0  -2  350.10    2.32   0
   8  -1  -1   46.15    1.09   0
   8   2  -2   18.13    1.04   0
   8   3  -2   15.56    1.07   0
  -5   0  12    0.00    1.24   0
  -5   2  10    4.90    0.74   0
  -3  -4  11    1.79    1.74   0
  -1  -5   7  301.90    4.27   0
   2  -6   5  176.17    2.01   0
   2  -5   3   -0.05    0.92   0
   2   6  -1  124.58    2.27   0
   3  -4   1  319.34    2.30   0
   3  -2  -1 2577.57    6.26   0
   4  -6   4  194.08    1.85   0
   5  -6   4   -0.70    0.88   0
   5  -5   2   55.00    1.20   0
   5  -1  -2   52.61    1.28   0
   6  -1  -2  420.95    2.50   0
   8   1  -2   22.32    1.04   0
  -5   0  13    0.00    1.55   0
  -4   4   7    3.17    0.64   0
  -3   3   4   44.23    1.08   0
  -3   7   7   21.38    0.89   0
  -2   8   6   25.59    0.98   0
  -1   6   2   52.09    1.14   0
  -1   8   4    4.22    0.78   0
   0   9   4   39.93    1.11   0
   1  -6   6   67.07    1.46   0
   2  -7   8   57.49    1.36   0
   3  -7   7   43.94    1.22   0
   4  -5   2  303.47    2.16   0
   4  -1  -2   42.83    1.16   0
   5   2  -3 1505.74    5.58   0
   5   3  -3    4.30    1.15   0
   6  -6   4    6.34    1.02   0
   6  -5   2    4.75    0.88   0
   6   2  -3  862.36    4.23   0
   7  -4   1  188.61    1.69   0
  -4   5   8    0.68    0.71   0
  -4   6   9    2.03    0.65   0
  -3   5   5    7.49    0.70   0
  -3   6   6    4.99    0.70   0
  -2   5   3 1132.69    3.76   0
  -1   4   1   21.01    0.99   0
  -1   7   3    2.74    0.67   0
   0  -5   5  246.23    2.92   0
   2   9   2    3.71    0.92   0
   3  -6   4   70.31    1.30   0
   5   1  -3    0.04    0.83   0
   6   3  -3  496.89    3.42   0
   6   6  -2   29.59    1.97   0
   7  -1  -2  178.79    1.75   0
   8   0  -2    6.51    0.90   0
  -5   2  12    0.25    1.03   0
  -2   6   4  185.41    1.61   0
  -2   7   5   37.84    0.93   0
   1  -7   9   -1.15    1.30   0
   1  -3   1 2250.03    7.06   0
   1   9   3   25.16    1.04   0
   2   1  -2  502.95    4.61   0
   3  -5   2    8.20    0.97   0
   4  -7   6    6.32    1.04   0
   4   2  -3  271.35    2.85   0
   5  -4   0   46.49    1.04   0
   5  -3  -1    1.93    0.89   0
   6   1  -3  632.48    3.26   0
   7  -5   2   68.01    1.46   0
   7   2  -3   23.44    1.09   0
  -1  -6  10   36.51    2.30   0
   0  -3   2  654.11    4.92   0
   0   6   1    0.19    0.89   0
   0   8   3   51.43    1.07   0
   1  -4   2  714.57    3.89   0
   1   0  -1   29.43    1.25   0
   1   6   0  456.78    3.29   0
   2  -7   7    0.56    1.03   0
   2   8   1   16.45    1.07   0
   3  -7   6    6.14    0.88   0
   4   3  -3    3.85    1.23   0
   5  -6   3  106.85    1.43   0
   6  -6   3   -0.33    0.86   0
   6  -4   0  119.63    1.42   0
   6  -3  -1    1.20    0.68   0
   6   4  -3  582.98    4.28   0
   7   1  -3  376.56    2.55   0
   7   3  -3  191.57    2.23   0
  -1   1   1  615.81    4.41   0
  -1   3   1  909.19    4.12   0
   0  -6   7   35.78    1.49   0
   0   4   0 8466.94   13.31   0
   0   7   2   62.62    1.18   0
   1  -2   0 9320.62   15.32   0
   1   4  -1   22.64    1.32   0
   1   8   2   80.26    1.34   0
   2  -4   1   39.39    1.21   0
   2   7   0   10.07    0.95   0
   3  -1  -2   19.55    1.06   0
   4  -6   3  311.12    2.07   0
   4  -4   0  544.59    2.59   0
   4  -3  -1 1197.40    3.94   0
   4   7  -1  172.07    3.28   0
   4   8   0   60.11    1.86   0
   5  -5   1   74.12    1.21   0
   5  -2  -2   53.98    1.28   0
   5   0  -3 1059.96    4.06   0
   5   4  -3  461.16    4.28   0
   6  -5   1  133.64    1.48   0
   6   0  -3 1471.04    4.63   0
   7  -4   0    1.57    0.86   0
   7  -3  -1   23.80    0.96   0
   8  -1  -2   20.83    1.02   0
  -4   1   8    3.00    0.64   0
  -3   6   7   33.87    0.80   0
  -1   8   5    5.37    0.71   0
   0   9   5   27.89    1.00   0
   1   7   1  250.91    2.34   0
   2  -6   4  146.72    1.78   0
   4  -7   5   91.78    1.48   0
   4  -5   1  120.67    1.51   0
   7   0  -3   35.83    1.05   0
  -2   7   6   61.75    1.06   0
  -1   5   2    8.73    0.93   0
   0  -4   3 1106.63    5.91   0
   1  -7   8    4.20    1.13   0
   1  -6   5  761.15    4.23   0
   3  -6   3    8.86    0.89   0
   4  -2  -2  997.68    3.79   0
   7  -5   1   43.49    0.99   0
   7   4  -3   14.40    1.15   0
   8   1  -3    1.81    0.88   0
   8   2  -3    2.86    0.93   0
  -4   5  11   -0.03    0.83   0
  -3   6   8   10.75    0.76   0
  -2   6   5   30.00    0.87   0
  -1   7   4    5.85    0.69   0
   0  -2   1 2208.60   10.21   0
   1  -5   3  350.84    2.91   0
   1   9   4   30.59    1.11   0
   2  -7   6  221.84    2.31   0
   2  -5   2    4.45    0.95   0
   2  -2  -1   93.90    1.55   0
   3  -7   5   11.38    0.97   0
   3  -4   0  155.14    1.77   0
   3  -3  -1  686.09    3.18   0
   4   0  -3    2.97    0.94   0
   5  -7   4   47.18    1.18   0
   5  -6   2   22.87    0.99   0
   6  -6   2   41.58    1.11   0
   6  -1  -3  657.14    3.03   0
   8  -2  -2   21.75    0.96   0
   8   3  -3    1.62    0.96   0
  -3   4   6   33.23    0.97   0
  -1   8   6   45.49    1.06   0
   0   8   4   43.31    1.02   0
   2   9   3   -0.05    0.93   0
   3  -5   1   81.33    1.39   0
   4  -7   4   75.12    1.31   0
   4  -6   2    5.63    0.87   0
   5  -4  -1   97.55    1.32   0
   5  -1  -3   -0.36    0.94   0
   6  -4  -1   52.54    1.08   0
   8   0  -3   -0.19    0.84   0
  -3   6   9    0.39    0.74   0
  -2   2   3  252.12    2.11   0
  -2   7   7    1.74    0.73   0
   0   3   0    0.93    0.97   0
   2   0  -2 5653.07   12.35   0
   5  -5   0   21.18    0.96   0
   5  -3  -2  101.27    1.40   0
   6  -3  -2  265.14    1.85   0
   7  -4  -1  197.64    1.74   0
   7  -3  -2  101.23    1.39   0
  -4   4  12    0.14    0.92   0
   0   5   1 1359.09    4.78   0
   4  -4  -1   10.89    0.95   0
   7  -5   0  137.66    1.47   0
   8  -4  -1    0.62    0.93   0
   8  -1  -3    5.52    0.87   0
  -4   3  11    5.36    0.82   0
  -3   5   8    1.67    0.63   0
  -2   4   4  859.88    3.31   0
  -2   6   6  110.73    1.27   0
  -2   7   8  121.22    1.42   0
  -1   4   2  327.62    2.29   0
  -1   7   5    7.81    0.70   0
  -1   8   7   19.24    0.96   0
   0   7   3    6.63    0.70   0
   1  -7   7  120.14    1.88   0
   1   8   3   25.36    0.91   0
   2  -6   3   40.46    1.13   0
   3  -7   4   27.04    0.99   0
   3  -6   2   87.46    1.32   0
   3  -2  -2 2563.52    6.08   0
   3   8   1   49.55    1.37   0
   4  -5   0  244.85    1.87   0
   4  -1  -3   22.01    1.02   0
   5  -7   3    9.95    1.02   0
   5  -6   1   10.60    0.80   0
   6  -6   1    2.11    0.92   0
   6  -2  -3  943.82    3.50   0
   7  -2  -3   25.80    0.95   0
  -3   4   7   56.95    0.99   0
  -3   6  11   -0.10    0.98   0
  -2   5   5  325.59    2.02   0
   0  -6   6    0.77    1.13   0
   0   6   2    0.12    0.74   0
   0   8   5   15.13    0.87   0
   2  -7   5  147.74    1.81   0
   2   8   2    0.12    0.71   0
   3   1  -3 3876.58    9.84   0
   4  -7   3    4.63    0.83   0
   4  -3  -2  220.09    1.78   0
   5  -2  -3 1586.91    4.45   0
   6   1  -4  410.35    2.67   0
   6   2  -4  433.90    3.13   0
   7   1  -4    2.90    0.78   0
  -4   0  12   -0.11    1.01   0
  -4   1  11    1.77    0.82   0
  -4   3  13   19.69    1.06   0
  -2   7   9    1.66    0.88   0
  -1   5   3   27.47    0.99   0
  -1   6   4    6.77    0.73   0
  -1   8   8   16.02    1.00   0
   0  -5   4  677.95    4.44   0
   1  -6   4   27.66    1.18   0
   1   5   0  978.96    4.73   0
   3   2  -3  181.33    2.87   0
   4  -6   1   98.48    1.37   0
   6   0  -4  329.54    2.28   0
   7   0  -4  288.94    2.18   0
   8  -2  -3    4.11    0.67   0
  -4   0  14   50.39    1.85   0
  -4   2  12    3.38    0.68   0
  -3  -3  10    0.00    1.10   0
  -3   3   7   67.17    1.09   0
  -2   6   7  329.93    2.00   0
  -1   7   6    3.94    0.73   0
   1   7   2   49.95    1.11   0
   2  -5   1   27.61    1.07   0
   2  -4   0   50.88    1.08   0
   2   5  -1    2.02    1.07   0
   3   0  -3 1553.95    5.48   0
   3   7   0  394.83    3.37   0
   5   1  -4  584.97    3.26   0
   6  -5  -1   54.04    1.13   0
   6  -4  -2   53.32    0.96   0
   7  -4  -2  165.79    1.60   0
   8   1  -4    0.94    0.81   0
   8   2  -4    0.13    1.01   0
  -3   4   8   35.33    0.77   0
  -3   5  10   16.26    0.78   0
   0   2   0 9799.47   18.70   0
   1  -4   1  882.61    4.18   0
   1  -1  -1  667.74    4.59   0
   1   6   1  132.35    1.71   0
   2  -3  -1  224.52    2.02   0
   2  -1  -2  496.02    3.29   0
   3  -5   0  626.16    3.01   0
   3  -4  -1  487.37    2.70   0
   5  -7   2   -0.44    0.91   0
   5  -5  -1   38.70    1.03   0
   5  -4  -2   89.73    1.30   0
   5   0  -4    0.37    0.89   0
   5   2  -4    0.06    0.88   0
   6  -1  -4  418.66    2.52   0
   7  -3  -3  213.58    1.76   0
   7   3  -4    0.29    0.80   0
   8  -4  -2    7.20    1.06   0
   8   0  -4   16.53    0.95   0
   0  -8  -7    6.52    0.96   0
   0  -6  -8   19.21    0.80   0
   0  -5  -8    1.17    0.57   0
   0  -3  -7  108.86    1.16   0
   0  -2  -6  180.42    1.48   0
   1  -3  10   46.99    1.18   0
   1  -2  -9  233.47    1.69   0
   2  -4 -12   13.02    0.76   0
   2  -1 -10   71.36    1.07   0
   2  -1  10   21.62    0.75   0
   2   1  -7   25.45    1.08   0
   2   1   7  108.77    1.26   0
   2   2   4 1360.68    4.21   0
   3  -3 -13    1.29    0.81   0
   3  -1  11  494.59    2.51   0
   3   0  10  451.66    2.35   0
   4  -1 -13   71.21    1.13   0
   4   0 -12    1.08    0.61   0
   4   0  11   57.10    0.94   0
   4   3   5  608.53    2.82   0
   5   0 -13    0.20    0.80   0
   5   3  -8  194.26    2.93   0
   5   4   2   62.02    1.18   0
   6   3   7   61.13    1.18   0
   7   4   4   38.61    1.10   0
  -1  -8   4    3.80    2.87   0
  -1  -7  -4  171.01    1.72   0
   0  -7  -8    0.07    0.74   0
   0  -4  -8   10.96    0.67   0
   1  -3 -10   90.86    1.09   0
   1  -1  -8 1795.63    4.60   0
   2   0  -9  281.33    2.00   0
   3   3   2  186.09    1.94   0
   4   2  -9   23.37    0.97   0
   5   1  10   43.40    1.05   0
   5   3   6   54.99    1.02   0
   6   4   3    1.56    0.80   0
  -1  -3  -3  610.30    3.14   0
   2  -3 -12    0.84    0.64   0
   2  -3  11  232.08    1.95   0
   3  -3  12   -0.92    0.92   0
   3  -1 -12   49.36    0.98   0
   3   0 -11   18.37    0.74   0
   3   1   8   38.58    0.93   0
   3   2   6   30.95    0.89   0
   4   1 -11    7.44    0.86   0
   5   2   8  208.67    1.65   0
   5   4  -3  463.16    4.04   0
   5   4   1   -0.33    0.71   0
  -1  -9  -2    0.01    1.80   0
  -1  -9   2    0.03    3.95   0
  -1  -7  -5    3.02    0.72   0
   0  -8  -8    3.00    1.02   0
   0  -4   8   16.46    1.03   0
   0  -1  -5  623.98    3.03   0
   1  -4  10    0.54    0.76   0
   1   0   6    7.20    0.62   0
   1   1   3 1435.36    5.22   0
   2   2   3  155.59    1.68   0
   3  -2 -13   74.12    1.10   0
   3   3   1  191.45    2.06   0
   4   2   7   37.19    0.99   0
   4   3   4  478.08    2.58   0
   5   4   0   49.68    1.25   0
   6   3   6   53.39    1.10   0
   7   4   3    4.70    0.86   0
  -1  -4  -5 1431.53    4.35   0
   0  -7  -9   12.30    0.83   0
   0  -7   8    0.06    1.04   0
   0  -5  -9   -0.01    0.61   0
   0  -3  -8   26.15    0.82   0
   0  -2  -7   76.10    1.18   0
   1   0  -7  823.63    3.43   0
   1   1  -4   48.49    1.39   0
   2  -2  10  433.16    2.51   0
   2  -1   9  373.63    2.27   0
   2   1   6 1816.35    4.72   0
   3  -2  11    5.03    0.87   0
   3   0   9  243.93    1.86   0
   4  -1  11   88.61    1.32   0
   4   0  10    5.51    0.73   0
   5   3   5   74.39    1.25   0
   5   4  -2   81.85    1.67   0
   5   4  -1   97.53    1.67   0
   6   2   8   87.95    1.29   0
   7   3   6   -0.13    0.86   0
  -1  -8  -5   77.44    1.46   0
  -1  -5   5   13.71    1.97   0
  -1  -3  -4 2260.28    5.64   0
   0  -5   8    1.65    1.05   0
   0  -4  -9   28.89    0.80   0
   0  -2   6  225.90    2.41   0
   1  -6  10    0.99    0.94   0
   1  -2 -10  304.00    1.87   0
   2  -4 -13    0.11    0.80   0
   2  -4  11   57.11    1.20   0
   2  -2 -12   10.27    0.70   0
   2  -1 -11  338.59    2.05   0
   3  -1  10   96.06    1.28   0
   3   1 -10    5.38    0.82   0
   3   2   5   19.10    1.05   0
   3   3   0 3157.20    8.35   0
   5   1   9   91.40    1.27   0
   7   4   2  153.51    1.78   0
  -1  -2  -1   11.35    1.02   0
   0  -6   8   31.11    1.42   0
   1  -3 -11  257.19    1.74   0
   1  -3   9  118.65    1.60   0
   1  -1  -9   93.79    1.25   0
   2  -5  11   52.00    1.28   0
   2   1  -8 2456.82    6.29   0
   2   2   2  805.30    4.01   0
   3   1   7  314.24    2.08   0
   3   3  -2   20.94    1.50   0
   3   3  -1  691.88    4.59   0
   4   0 -13   42.16    1.01   0
   5   0  10   39.09    1.05   0
   5   2 -11  152.19    2.01   0
   5   2   7    0.91    0.75   0
   6   1   9  146.43    1.59   0
   6   3   5    2.28    0.76   0
   6   4   1    0.86    0.72   0
  -1  -4  -6   19.20    0.83   0
  -1  -2  -2 1644.08    5.98   0
   0  -6 -10    7.14    0.76   0
   0  -1  -6   23.64    0.84   0
   0   0  -2   99.52    1.96   0
   1  -5 -12    0.57    0.84   0
   1   1   2  869.26    4.77   0
   2  -3 -13    0.47    0.78   0
   2   0 -10  184.56    1.66   0
   3  -1 -13    4.02    0.75   0
   3   2  -8   59.63    1.48   0
   4   1   8  109.33    1.21   0
   4   2   6   41.29    1.03   0
   4   3   3   37.33    1.08   0
   6   4  -5    0.06    1.19   0
   7   3   5   13.02    0.97   0
   7   4   1  166.24    1.97   0
  -1  -6  -7    0.08    0.62   0
  -1  -6   5    3.52    1.85   0
  -1  -5  -7   81.85    1.09   0
  -1  -3  -5    1.25    0.53   0
   0  -7 -10    7.76    1.08   0
   0  -3  -9   21.33    0.75   0
   0  -2  -8  125.55    1.40   0
   0  -1   4 3035.15    8.80   0
   1  -4 -12  165.85    1.46   0
   2  -3  10    4.09    0.81   0
   2   1   5  604.85    2.92   0
   2   2  -5   73.85    1.96   0
   3  -3  11  239.14    1.85   0
   3  -2 -14   55.52    1.13   0
   3   0 -12   54.46    1.05   0
   4  -2  11   26.16    0.95   0
   4   0   9    0.62    0.75   0
   4   2 -10   49.27    1.23   0
   5   1 -13   11.99    1.08   0
   5   3   4  520.33    2.71   0
   6   2   7   88.09    1.17   0
   6   4   0  118.79    1.59   0
  -1  -2  -3 1316.30    4.84   0
   0  -4 -10    6.42    0.69   0
   1  -4   9   36.16    1.11   0
   1  -2 -11  174.78    1.52   0
   1   0  -8  703.23    3.18   0
   1   1  -5   40.48    1.23   0
   3   0   8    2.48    0.82   0
   3   2   4  418.05    2.54   0
   4  -1  10   14.98    0.83   0
   4   1 -12  165.10    1.75   0
   4   3  -7   60.46    2.05   0
   5   1   8    3.00    0.83   0
   7   4  -6    0.36    1.45   0
   7   4   0   -1.18    0.94   0
  -1  -8  -7   -0.06    0.95   0
  -1  -4  -7   15.13    0.74   0
   0   0  -3 4488.79   10.94   0
   1  -3 -12    0.27    0.69   0
   1  -1 -10  177.23    1.59   0
   2  -2 -13    1.08    0.73   0
   2  -2   9  257.76    2.01   0
   2  -1 -12    2.48    0.69   0
   2   2   1  248.53    2.50   0
   3  -4  11    0.98    0.92   0
   3  -2  10  192.42    1.64   0
   3  -1   9  130.01    1.49   0
   4   3   2  647.52    3.18   0
   5   2   6   95.29    1.30   0
   6   1   8   29.21    1.05   0
   6   3 -10    0.34    1.18   0
   6   3   4   44.54    1.07   0
   6   4  -1   52.14    1.25   0
   7   3   4    5.92    0.86   0
  -1  -7  -8    0.67    0.81   0
  -1  -5  -8    7.89    0.65   0
  -1  -3  -6  477.48    2.46   0
  -1  -2  -4   14.02    0.88   0
   0  -6 -11   24.82    0.98   0
   0  -5 -11    0.05    0.68   0
   0  -4   7   60.14    1.67   0
   0  -1  -7   74.56    1.08   0
   2  -4  10  154.10    1.74   0
   2   1  -9   71.87    1.38   0
   3   1 -11    4.64    0.66   0
   3   1   6 1025.09    3.63   0
   4  -3  11   55.34    1.24   0
   4   1   7    4.86    0.80   0
   4   2   5  489.09    2.56   0
   5  -1  10   53.01    1.11   0
   5   0   9  103.96    1.35   0
   5   3  -9   77.73    1.99   0
   5   3   3   49.13    1.10   0
   6   2   6   81.63    1.31   0
   6   4  -4  133.93    2.38   0
   6   4  -2   48.14    1.40   0
   7   4  -1  168.12    2.10   0
  -1  -2   1   80.74    3.19   0
   0  -3 -10  177.25    1.41   0
   0  -2  -9  166.39    1.50   0
   0   0  -4  662.86    3.80   0
   1  -7   9    9.17    1.10   0
   1  -6   9   -0.18    1.08   0
   1  -4 -13    0.18    0.85   0
   2   0 -11    3.01    0.72   0
   3  -1 -14  167.53    1.67   0
   6   0   9    2.21    0.71   0
   6   4  -3  581.72    4.17   0
   7   2   6    1.55    0.87   0
  -1  -3   3  246.48    6.43   0
   0  -4 -11   54.62    1.01   0
   1  -3   8    5.00    0.90   0
   1   0  -9  304.46    2.13   0
   2  -6  10   76.33    1.56   0
   2  -5  10   23.64    1.01   0
   2   1   4  275.48    2.19   0
   3  -3  10   55.74    1.19   0
   3   0 -13  107.42    1.38   0
   4  -2  10   31.33    1.01   0
   4   0   8   42.92    1.08   0
   4   3   1  764.39    3.77   0
   6   3   3    1.71    0.75   0
   7   4  -2  139.32    2.00   0
  -2  -6  -3   22.58    0.87   0
  -2  -6  -1   21.59    1.17   0
  -1  -7  -9    3.17    1.01   0
  -1  -6  -9   -0.15    0.81   0
  -1  -5  -9   15.75    0.71   0
  -1  -2  -5 4186.63    7.59   0
   0  -1  -8   39.76    1.10   0
   1  -3 -13  119.51    1.33   0
   1  -2 -12  312.81    2.05   0
   1  -2   7    0.11    1.08   0
   1  -1 -11  318.17    2.03   0
   1   1  -6   13.23    0.88   0
   1   1   1 2409.28    9.29   0
   2  -3   9  293.81    2.21   0
   2   2  -6  613.21    4.40   0
   3   0   7  535.17    2.69   0
   3   2  -9   45.85    1.20   0
   3   2   3  259.45    2.11   0
   4  -1   9    4.84    0.76   0
   5   1   7  382.78    2.19   0
   5   2 -12    1.02    0.85   0
   5   2   5  442.23    2.45   0
   7   1   7    0.22    1.02   0
   7   3   3   80.45    1.34   0
   7   4  -5    8.81    1.24   0
   7   4  -3   14.03    1.13   0
  -2  -7  -1    0.18    0.97   0
  -2  -6   0   45.00    1.61   0
  -2  -5  -3   -0.43    0.66   0
  -2  -5  -2    3.68    0.75   0
   0  -7   7   22.92    1.48   0
   0  -5 -12   24.41    1.00   0
   0  -5   7    1.36    0.96   0
   0  -3 -11    1.42    0.66   0
   0  -2 -10   21.25    0.76   0
   0   0  -5 4140.93    8.59   0
   2  -2 -14    0.15    0.63   0
   2  -1 -13    6.29    0.79   0
   2   2   0  499.87    4.03   0
   3  -2   9  125.31    1.50   0
   4   1 -13   72.53    1.33   0
   4   2 -11  249.64    2.43   0
   4   2   4  624.03    3.01   0
   5  -2  10   15.36    0.93   0
   5   0   8  430.63    2.43   0
   5   3   2   53.96    1.17   0
   6   1   7   69.05    1.06   0
   6   2   5   45.63    1.09   0
   7   2   5    3.91    0.93   0
   7   4  -4   94.70    1.88   0
  -2  -7  -4    0.17    0.85   0
  -2  -7   0    6.79    1.29   0
  -1  -3  -8    4.34    0.73   0
  -1  -2  -6  245.26    1.92   0
   0  -6   7   37.14    1.62   0
   0  -4 -12   84.18    1.16   0
   2  -2   8  218.96    1.98   0
   2  -1   7  110.44    1.54   0
   2   0 -12   50.80    0.99   0
   2   1 -10   67.44    1.26   0
   3  -4  10  165.48    1.77   0
   3  -1   8   40.17    0.91   0
   3   1   5   95.02    1.46   0
   4  -3  10    6.93    0.92   0
   4   1   6  156.33    1.47   0
   5  -1   9   85.31    1.29   0
   6  -1   9  141.00    1.60   0
   6   0   8   63.28    1.20   0
   8   3   2  101.25    1.51   0
  -2  -8  -3    1.46    1.35   0
  -2  -8  -2    0.00    1.47   0
  -2  -5   0  116.63    2.23   0
  -1  -6 -10   -0.15    0.92   0
  -1  -5 -10    2.49    0.71   0
   1  -4   8  207.01    2.09   0
   1   1  -7  662.74    3.50   0
   3   1 -12   49.34    1.06   0
   4   3   0  234.61    2.37   0
   6   3   2   22.31    0.89   0
   7   3   2   80.66    1.33   0
  -2  -4  -3    0.65    0.75   0
  -1  -2  -7    0.34    0.83   0
   0  -1  -9   -0.45    0.60   0
   0   0  -6    1.62    0.53   0
   1  -3 -14    0.21    0.86   0
   1  -2 -13    4.34    0.79   0
   1   0 -10  149.11    1.44   0
   2  -4   9   46.49    1.16   0
   3  -5  10   25.78    1.14   0
   3   0 -14   44.90    1.12   0
   4  -2   9    0.77    0.86   0
   4   0   7  139.01    1.51   0
   4   3  -8   19.30    1.46   0
   5  -3  10   20.45    1.15   0
   5   1   6  151.50    1.56   0
   5   2   4    0.12    0.83   0
   5   3   1    7.55    0.87   0
  -2  -8  -5    2.33    1.29   0
  -2  -6   1  125.33    2.78   0
  -2  -4  -2   73.78    1.51   0
  -1  -4 -10    0.42    0.65   0
  -1  -3  -9   90.22    1.17   0
   0  -3 -12  116.08    1.32   0
   0  -2 -11  228.86    1.73   0
   1  -1 -12    6.81    0.59   0
   2  -1 -14   88.51    1.32   0
   2   0   5  986.60    3.94   0
   2   1   3   10.15    0.95   0
   2   2  -7 1275.42    5.79   0
   3  -3   9   37.27    1.05   0
   3   2 -10   66.86    1.48   0
   3   2   2  344.06    2.54   0
   4  -4  10    1.69    0.96   0
   4  -1   8  119.59    1.47   0
   6   1   6   74.39    1.25   0
   7   1   6   -0.03    0.70   0
   7   2   4   32.31    1.07   0
   8   3   1    0.09    0.98   0
  -2  -9  -3    0.00    2.49   0
  -2  -9  -2    0.04    3.58   0
  -2  -8  -6    0.05    1.29   0
  -2  -7  -7    0.02    0.98   0
  -2  -7   1   64.05    2.19   0
  -2  -4  -1   34.05    1.30   0
  -1  -5 -11   -0.07    0.77   0
   0  -4 -13    9.29    0.98   0
   0   0  -7   73.96    1.30   0
   1  -3   7  735.11    3.76   0
   1  -1   5  199.89    2.14   0
   2  -5   9  107.22    1.55   0
   3   0   6   65.08    1.36   0
   4   2   3 1896.47    5.22   0
   5  -2   9   52.80    1.15   0
   5   0   7    7.12    0.86   0
   5   3 -10  176.69    2.82   0
   6   2   4   17.51    0.75   0
   6   3   1  126.84    1.62   0
   7   0   7    0.06    1.04   0
   7   3   1   91.34    1.39   0
  -2  -9  -1   -0.39    3.70   0
  -1  -2  -8  489.19    2.55   0
   0  -4   6    6.98    1.39   0
   0  -1 -10  221.48    1.76   0
   1  -7   8    2.53    1.10   0
   1  -6   8   86.69    1.71   0
   1  -2   6  306.53    2.56   0
   1   0 -11  381.06    2.32   0
   1   1  -8 1783.11    5.42   0
   2  -6   9   19.57    1.10   0
   2  -3   8  420.80    2.65   0
   2   0 -13    0.38    0.75   0
   2   1 -11  338.14    2.32   0
   3  -2   8    8.38    0.87   0
   4   1   5 1021.15    3.75   0
   4   2 -12    1.23    1.03   0
   4   3  -1 1199.02    5.47   0
   5  -1   8    3.89    0.79   0
   6  -1   8   27.08    1.08   0
   6   0   7  166.99    1.63   0
  -2  -5   1    1.17    1.39   0
  -1  -1  -5  164.36    1.77   0
  -1  -1  -4 3234.46    7.53   0
  -1  -1  -3 1248.44    5.14   0
   0  -3 -13  148.06    1.50   0
   0  -2 -12  201.39    1.67   0
   1  -2 -14   -0.65    0.92   0
   1   0   3  102.98    1.90   0
   2  -1   6 1922.03    5.44   0
   2   2  -1   94.09    2.32   0
   3  -1   7  315.54    2.11   0
   3   1 -13    0.34    0.85   0
   3   1   4   12.52    0.98   0
   4  -3   9    6.90    0.89   0
   5   3   0    7.52    0.93   0
  -2  -8   1   50.51    2.46   0
  -2  -4   0   49.47    1.68   0
  -1  -5 -12   -1.07    1.13   0
  -1  -2  -9    6.33    0.74   0
  -1  -1  -2  839.89    4.82   0
   0   0  -8   -1.02    0.91   0
   1  -1 -13  184.48    1.58   0
   2  -2   7 1519.03    4.65   0
   2   2  -8   34.74    1.27   0
   3  -4   9   86.73    1.23   0
   5   1   5  151.14    1.58   0
   5   2   3  467.59    2.69   0
   6   1   5   -0.71    0.79   0
   7   2   3    4.37    0.91   0
  -2  -9   0    2.67    2.61   0
  -1  -1  -6  688.25    3.09   0
   0  -1 -11    1.02    0.69   0
   1   1  -9   91.01    1.41   0
   1   1   0 5769.78   18.78   0
   3   2 -11   32.27    1.12   0
   3   2   1 1622.12    5.79   0
   4  -2   8  128.41    1.47   0
   4   0   6   11.91    0.90   0
   5  -3   9   27.04    0.93   0
   6   2   3   68.38    1.26   0
   6   3   0  125.19    1.66   0
   7   3   0  156.06    1.81   0
  -2  -3  -6 1138.64    3.97   0
  -2  -3  -2  299.52    2.61   0
  -1  -4 -12    1.64    0.90   0
  -1  -3 -11    1.13    0.52   0
  -1  -1  -7  506.61    2.70   0
   1  -4   7   18.89    1.13   0
   1   0 -12  330.60    2.20   0
   2  -4   8  119.17    1.64   0
   2   0 -14    0.01    0.79   0
   2   1 -12    3.93    0.72   0
   3  -5   9   30.01    1.09   0
   4  -4   9    0.86    0.89   0
   4  -1   7    2.72    0.78   0
   4   2   2  104.99    1.66   0
   4   3  -9  256.74    3.37   0
   4   3  -2  208.88    2.78   0
   5  -2   8  189.96    1.76   0
   5   0   6  277.04    2.04   0
   7  -1   7    0.13    1.06   0
   7   0   6   31.53    1.05   0
   8   2   2   41.81    1.25   0
   8   3  -1   33.52    1.27   0
  -1  -2 -10    1.29    0.72   0
   0  -8   6    0.86    1.36   0
   0  -5   6    1.46    1.14   0
   0  -2 -13   47.89    1.05   0
   0   0  -9   55.28    1.01   0
   1  -1 -14   -0.45    0.77   0
   3  -6   9   22.36    1.20   0
   3  -3   8    3.12    0.81   0
   3   0   5   84.86    1.50   0
   4   1   4  537.28    2.87   0
   4   2 -13   25.31    1.21   0
   5  -4   9   51.40    1.30   0
   5  -1   7  411.72    2.39   0
   5   3  -1    1.87    1.01   0
   6  -1   7   70.53    1.24   0
   6   0   6   31.91    0.85   0
  -2  -5 -10   11.88    0.90   0
  -2  -4  -9   29.69    0.90   0
  -2  -3  -7   18.20    0.72   0
  -1  -1  -8   93.98    1.35   0
   0  -1 -12  124.75    1.40   0
   1   1 -10  179.88    1.78   0
   2   0   4  282.72    2.24   0
   2   1   2    1.36    0.61   0
   2   2  -9   94.89    1.57   0
   3   1 -14  166.33    1.82   0
   4  -5   9    0.80    0.99   0
   7   1   4    2.55    0.88   0
   7   2   2  185.43    1.85   0
   7   3  -1   22.12    1.01   0
  -2  -3  -8  297.04    2.01   0
  -2  -3  -1  111.47    1.91   0
  -1  -3 -12   18.80    0.73   0
  -1  -1  -1 2373.13    9.47   0
   0   0 -10    4.65    0.79   0
   2  -5   8   51.52    1.19   0
   2  -3   7   26.90    1.23   0
   3  -2   7  123.57    1.52   0
   3  -1   6 1037.31    3.87   0
   3   1   3  638.99    3.25   0
   4  -3   8   59.05    1.20   0
   5   1   4 1110.06    3.88   0
   5   2   2   29.08    1.06   0
   5   3 -11   10.12    1.34   0
   6   1   4   33.68    1.03   0
   6   2   2  117.17    1.56   0
   8   3  -2   15.58    1.13   0
  -2  -9   1   -0.11    2.30   0
  -2  -7   2   86.61    3.15   0
  -2  -6   2   69.21    2.96   0
  -2  -5 -11   33.89    1.07   0
  -2  -4 -10  110.92    1.31   0
  -1  -2 -11   45.06    0.86   0
  -1  -1  -9  142.01    1.52   0
   0  -7   6   26.79    1.60   0
   0  -6   6    1.26    1.11   0
   0  -2 -14   85.27    1.29   0
   1  -8   7    0.47    1.18   0
   1  -3   6  663.38    3.80   0
   1  -1   4 3953.96    9.22   0
   1   0 -13   -0.04    0.80   0
   2  -6   8   45.31    1.26   0
   2   1 -13    6.80    0.77   0
   3  -4   8   -0.41    0.85   0
   3   2 -12    8.90    0.83   0
   5  -3   8    4.36    0.91   0
   6  -3   8    7.20    1.05   0
   7   0   5    4.21    0.90   0
   8   1   3  129.21    1.69   0
   8   2   1  110.07    1.61   0
  -2  -3  -9  209.98    1.72   0
  -1  -3 -13    7.91    0.89   0
   1  -2   5 5579.60   10.72   0
   2  -2   6   35.26    1.41   0
   2  -1   5  608.48    3.24   0
   2   2 -10   36.76    1.10   0
   4  -2   7   33.75    1.09   0
   4   0   5  194.32    1.78   0
   7  -1   6    0.10    0.97   0
   7   3  -2   88.31    1.65   0
  -3  -7  -3  135.24    2.35   0
  -3  -6  -4   41.57    1.22   0
  -2  -4 -11   43.34    1.06   0
  -2  -2  -6   26.17    1.18   0
  -2  -2  -5  832.56    3.51   0
  -2  -2  -4 1153.32    4.40   0
  -1  -2 -12    0.41    0.76   0
  -1  -1 -10   10.22    0.71   0
   0  -1 -13  209.01    1.67   0
   0   0 -11  130.38    1.48   0
   1  -7   7  115.74    2.04   0
   1  -6   7   -0.53    0.89   0
   1   1 -11  324.65    2.31   0
   3   2   0  137.98    2.09   0
   4  -1   6  157.11    1.69   0
   4   2   1  328.47    2.62   0
   4   3 -10  149.49    2.48   0
   4   3  -3    1.14    1.15   0
   5  -2   7    1.45    0.87   0
   5   0   5  845.74    3.45   0
   5   3  -2   91.12    1.72   0
   6  -2   7   87.00    1.34   0
   6  -1   6   72.88    1.28   0
   6   0   5   26.54    0.81   0
   7   2   1  178.64    1.93   0
   8   3  -3   -0.10    1.02   0
  -3  -8  -5   -0.48    1.71   0
  -3  -8  -4    5.06    1.81   0
  -3  -5  -6  167.39    1.74   0
  -3  -5  -5    1.22    0.78   0
  -3  -5  -4   11.44    0.80   0
  -2  -4   1  633.23    5.85   0
  -2  -3 -10    1.43    0.74   0
  -2  -2  -7 1147.21    3.94   0
  -2  -2  -3  125.24    1.72   0
  -1  -5   4  219.44    4.69   0
   0   1  -6   26.04    1.01   0
   1   0 -14    4.20    0.83   0
   3  -5   8   23.84    1.03   0
   4  -4   8    7.33    0.71   0
   4   1   3  212.84    2.07   0
   5  -4   8  149.96    1.68   0
   5  -1   6  134.01    1.45   0
   6   3  -2  248.64    2.46   0
   7   1   3  152.89    1.59   0
   8   0   4   67.82    1.45   0
  -3  -8  -3    0.12    1.83   0
  -3  -7  -8    0.00    1.36   0
  -3  -7  -2   23.20    1.58   0
  -3  -6  -2   67.84    1.68   0
  -3  -5  -3   87.17    1.64   0
  -2  -8   2    4.50    1.96   0
  -2  -2  -8  157.61    1.57   0
   0   1  -7   82.49    1.46   0
   0   1  -5  653.58    3.90   0
   1   0   2 1453.41    6.78   0
   2  -4   7  460.02    2.88   0
   2   1 -14   79.78    1.34   0
   2   2 -11    3.44    0.91   0
   3  -7   8    0.13    1.13   0
   3  -6   8    3.29    0.96   0
   3  -3   7  222.40    1.96   0
   3   0   4   37.07    1.17   0
   3   2 -13   68.94    1.46   0
   5   1   3   93.34    1.51   0
   5   2   1    3.10    0.94   0
   6   1   3    3.77    0.85   0
   6   2   1   96.66    1.52   0
   8   1   2  125.89    1.66   0
   8   2   0   10.60    0.96   0
   8   3  -4   -0.13    1.19   0
  -3  -6  -9   13.17    1.08   0
  -2  -4 -12   -0.02    0.73   0
  -2  -3 -11  173.84    1.60   0
  -2  -2  -9  190.66    1.66   0
  -1  -8   4    4.47    2.08   0
  -1  -2 -13   14.42    0.94   0
  -1  -1 -11    0.55    0.68   0
  -1   0  -6    6.98    0.86   0
  -1   0  -5 5254.58    9.59   0
   0  -4   5  984.93    5.83   0
   0  -1 -14    0.29    0.95   0
   0   0 -12  222.86    1.81   0
   0   1  -8   43.65    1.27   0
   1   1 -12    6.98    0.82   0
   3   3  -7   82.64    2.60   0
   4  -5   8   51.11    1.18   0
   5  -5   8    3.08    1.10   0
   5   3 -12   20.59    1.56   0
   6  -3   7   58.91    1.29   0
   7  -2   6    3.32    1.04   0
   7   0   4  124.65    1.59   0
   7   3  -3  184.08    2.15   0
  -3  -8  -2   21.62    1.96   0
  -3  -5  -9   15.65    0.92   0
  -3  -4  -5    3.46    0.78   0
  -2  -3   0    6.68    1.01   0
  -2  -2  -2  788.24    4.27   0
  -1   0  -7   82.36    1.26   0
   0   1  -4 2602.48    8.56   0
   1  -4   6   27.18    1.38   0
   2   0   3   95.64    1.61   0
   2   2  -2  403.99    5.96   0
   3  -2   6   32.56    1.26   0
   3  -1   5   99.33    1.62   0
   3   1   2   91.39    1.56   0
   4  -6   8    1.45    1.05   0
   5  -3   7  192.47    1.77   0
   7  -1   5   55.33    1.24   0
  -3  -7  -1    1.59    1.29   0
  -3  -5  -2    7.48    1.02   0
  -3  -4  -8    0.23    0.68   0
  -3  -4  -4   45.06    1.25   0
  -2  -3 -12    7.94    0.86   0
  -2  -2 -10  333.87    2.12   0
  -1  -1 -12   49.72    1.08   0
  -1   0  -8  375.51    2.32   0
  -1   0  -4 1100.77    4.77   0
   0   1  -9    0.68    0.88   0
   1   2  -7 1042.73    5.07   0
   1   2  -6  739.63    4.70   0
   2  -5   7   38.55    1.28   0
   2   1   1 1142.56    5.68   0
   3   3  -8   89.88    2.28   0
   3   3  -6  741.66    9.70   0
   4   0   4 1099.66    4.07   0
   4   3 -11    8.33    1.17   0
   6  -2   6   88.97    1.34   0
   6   0   4   88.75    1.34   0
   6   3  -3  496.51    3.67   0
   7   1   2  223.07    2.02   0
   7   2   0   -0.08    0.81   0
   8   0   3   88.91    1.46   0
   8   2  -1   32.00    1.22   0
  -3  -6  -1  184.56    2.60   0
  -2  -5   2  332.58    5.94   0
  -1   0  -9  155.23    1.61   0
   0   0 -13   31.34    1.02   0
   1   1 -13  190.59    1.84   0
   1   2  -8  191.65    2.19   0
   2  -3   6 1520.49    5.12   0
   2   2 -12    9.35    0.87   0
   3  -4   7  150.85    1.76   0
   3   2 -14   53.70    1.50   0
   4  -2   6   40.53    1.11   0
   4  -1   5 1055.03    3.90   0
   4   2   0 1936.25    6.39   0
   5  -2   6   92.67    1.38   0
   5   0   4    9.96    0.83   0
   6  -4   7   64.65    1.36   0
   6  -1   5    1.55    0.62   0
   7   3  -4   -0.27    1.02   0
   8  -1   4   40.44    1.26   0
   8   1   1    0.36    1.01   0
  -3  -8  -1   49.52    2.21   0
  -2  -2 -11   58.25    1.17   0
  -2  -1  -6 1533.55    4.82   0
   0   1 -10  228.87    1.94   0
   1   2  -9  237.37    2.36   0
   1   2  -5  249.36    3.15   0
   2  -6   7  197.99    2.10   0
   3   3  -9  121.53    2.26   0
   4  -4   7   60.83    1.26   0
   4   3  -4   29.11    1.71   0
   5  -4   7   -0.19    0.94   0
   5  -1   5  138.97    1.46   0
   5   2   0    2.66    1.15   0
   6   1   2    9.53    0.97   0
   6   2   0   65.59    1.33   0
   7  -3   6    0.60    1.02   0
  -3  -5  -1   75.58    1.92   0
  -3  -3  -6  275.00    2.14   0
  -2  -3 -13    2.99    0.83   0
  -2  -1  -8  347.98    2.26   0
  -2  -1  -7   82.64    1.24   0
  -2  -1  -5  516.09    2.92   0
  -1  -1 -13   25.52    1.00   0
  -1   0 -10    0.39    0.50   0
  -1   0  -3   99.05    1.90   0
   2  -2   5 1063.56    4.34   0
   2  -1   4  276.58    2.31   0
   3  -5   7  108.36    1.56   0
   4   1   2  923.65    3.92   0
   5   1   2  198.73    2.01   0
   7  -2   5    0.56    1.02   0
   7   0   3   33.88    1.08   0
  -3  -4  -2   16.93    1.16   0
  -3  -3  -8    2.14    0.73   0
  -3  -3  -4   28.39    1.18   0
  -2  -2 -12   27.23    1.00   0
  -2  -1  -9  309.43    2.08   0
  -1   0 -11    8.64    0.76   0
   0  -3   4  712.40    5.06   0
   0   0 -14   65.77    1.30   0
   0   1 -11    0.27    0.76   0
   0   1  -3  586.00    4.81   0
   1  -8   6   23.90    1.50   0
   1  -3   5    2.08    1.18   0
   1   1 -14    0.47    0.92   0
   1   2 -10  273.73    2.34   0
   2   2 -13    1.39    0.78   0
   3  -3   6  349.63    2.48   0
   3   2  -1 2646.02    9.15   0
   3   3 -10    1.69    1.00   0
   4   3 -12   86.14    1.91   0
   5  -5   7  136.53    1.66   0
   6  -3   6   53.31    1.26   0
   6   3  -4  156.94    2.38   0
   7  -1   4    3.98    0.88   0
   7   2  -1  193.71    2.01   0
   8   0   2   10.99    1.12   0
   8   2  -2   17.76    1.13   0
  -3  -4 -11   -0.17    0.80   0
  -2  -2  -1  245.05    2.75   0
  -2  -1 -10   17.71    0.88   0
  -1  -6   4    7.35    1.76   0
  -1  -1 -14    1.24    0.92   0
   0  -5   5  253.16    3.16   0
   1  -1   3 1431.62    6.22   0
   3  -7   7   38.51    1.31   0
   3  -6   7   16.38    1.04   0
   3   0   3  381.11    2.63   0
   4  -5   7    3.35    0.67   0
   5  -3   6   57.59    1.20   0
   6   0   3    9.11    0.98   0
   7   1   1  118.96    1.60   0
   7   3  -5   11.70    1.15   0
   8  -1   3  123.94    1.67   0
  -3  -7   0  439.05    4.60   0
  -3  -3 -10   30.63    0.98   0
  -2  -2 -13    7.08    1.04   0
  -1  -7   4    7.25    1.72   0
  -1   0 -12   24.42    0.93   0
   0  -8   5   16.71    1.50   0
   0   1 -12  140.15    1.59   0
   1  -7   6   86.96    1.71   0
   1  -6   6   65.67    1.55   0
   1  -2   4   20.04    1.26   0
   1   2 -11  176.98    2.06   0
   2  -4   6   -1.91    1.01   0
   3  -2   5   18.21    1.32   0
   4  -6   7   22.02    1.08   0
   4  -3   6  149.37    1.54   0
   5   3  -4  553.47    4.50   0
   6  -2   5   40.59    0.96   0
   6  -1   4   34.56    1.10   0
   8   1   0   19.23    1.03   0
  -4  -7  -6    0.88    1.75   0
  -3  -6   0   16.64    1.51   0
  -3  -3 -11  186.53    1.69   0
  -3  -3  -3  659.57    3.66   0
  -2  -1 -11  224.03    1.82   0
  -1  -1   0 5814.39   19.64   0
   3  -1   4   13.74    1.14   0
   3   3 -11    0.68    0.91   0
   4   0   3 1569.89    5.02   0
   5  -2   5  407.07    2.50   0
   5   0   3 1123.01    4.00   0
   6  -4   6    6.04    0.98   0
   6   2  -1  151.92    1.86   0
   7  -3   5   13.48    1.10   0
  -4  -6  -8    0.05    1.32   0
  -4  -6  -5   19.67    1.15   0
  -3  -8   0    4.59    1.74   0
  -3  -2  -8    6.66    0.77   0
  -3  -2  -7  102.79    1.42   0
  -3  -2  -6   27.88    1.16   0
  -2  -1  -3    8.28    0.77   0
   0  -6   5  142.52    2.49   0
   2   2 -14   -0.07    0.99   0
   3  -4   6   50.28    1.30   0
   3   1   1 1004.85    4.66   0
   4  -2   5  453.64    2.55   0
   4  -1   4  538.71    3.00   0
   4   3 -13   31.95    1.71   0
   5  -4   6  111.74    1.51   0
   5  -1   4 1018.75    3.83   0
   6   1   1  236.40    2.11   0
   7   0   2  313.76    2.35   0
   7   2  -2  116.17    1.83   0
   7   3  -6    4.50    1.18   0
   8   2  -3    1.87    1.05   0
  -4  -7  -4   46.65    2.02   0
  -4  -5  -8   30.71    1.22   0
  -4  -5  -7    0.52    0.97   0
  -4  -5  -6    1.31    0.97   0
  -3  -4  -1  294.99    3.05   0
  -3  -3 -12    0.28    1.09   0
  -3  -2  -9   87.12    1.30   0
  -3  -2  -5   14.58    1.15   0
  -2  -1 -12   14.32    0.93   0
  -1   0 -13   25.95    1.00   0
   0  -7   5   46.35    1.67   0
   0   1 -13  210.66    1.94   0
   1   2 -12  311.89    2.48   0
   1   2  -4   12.72    1.53   0
   2  -5   6  493.31    3.10   0
   4  -4   6    5.45    0.99   0
   4   2  -1   17.62    1.30   0
   5   1   1   90.54    1.59   0
   5   2  -1   78.78    1.60   0
   6  -5   6   12.43    1.07   0
   6   3  -5  242.59    2.96   0
   7  -2   4   28.96    0.96   0
   7  -1   3  165.63    1.80   0
   8   0   1   76.18    1.39   0
  -4  -5  -9    0.11    1.17   0
  -4  -5  -5  254.73    2.37   0
  -3  -5   0  614.54    4.90   0
  -3  -3  -2  165.70    2.22   0
  -3  -2 -10  143.66    1.58   0
  -1   0  -2 1361.51    6.64   0
  -1   1  -9  138.22    1.62   0
  -1   1  -8   96.69    1.47   0
  -1   1  -7  517.58    3.03   0
   1  -4   5 2067.06    7.20   0
   2  -3   5  773.90    3.90   0
   2   0   2  207.79    2.44   0
   3   3 -12   26.83    1.27   0
   4   1   1  878.33    4.07   0
   6  -3   5    1.01    0.64   0
   7   1   0  348.11    2.52   0
   8  -2   3   72.36    1.50   0
   8  -1   2  125.15    1.68   0
   8   1  -1   43.13    1.29   0
  -4  -7  -3    2.59    1.61   0
  -4  -5  -4   59.41    1.43   0
  -3  -2 -11    2.95    0.92   0
  -3  -2  -4  378.99    2.69   0
  -2  -1 -13    4.31    1.00   0
  -2   0  -9   89.09    1.35   0
  -2   0  -8  190.33    1.82   0
  -2   0  -7  791.65    3.49   0
  -1   0 -14  125.26    1.54   0
  -1   1 -10   11.29    0.76   0
  -1   1  -6  729.04    3.64   0
   0   1 -14    1.09    0.99   0
   1   2 -13    6.50    0.91   0
   2  -7   6  209.53    2.27   0
   2  -6   6   10.19    1.01   0
   3  -5   6  249.80    2.24   0
   5  -5   6   51.10    1.22   0
   6  -2   4   17.53    0.98   0
   6   0   2  147.59    1.69   0
  -4  -6  -3  301.60    2.99   0
  -4  -4  -9   -0.07    1.00   0
  -4  -4  -6    3.34    0.70   0
  -2   0 -10  273.46    2.03   0
  -2   0  -6   47.72    1.35   0
   3  -3   5  125.82    1.80   0
   4  -5   6    1.10    0.70   0
   4   3  -5   18.20    1.80   0
   5  -6   6   16.56    1.07   0
   5  -3   5   71.77    1.16   0
   5   3  -5  260.13    3.46   0
   6  -1   3    3.63    0.94   0
   6   2  -2  325.48    2.69   0
   7  -3   4    4.91    1.02   0
   7   3  -7    0.74    1.16   0
   8   2  -4   -0.59    1.12   0
  -4  -8  -3   50.77    2.47   0
  -4  -4 -10    0.54    0.82   0
  -3  -2 -12   72.35    1.12   0
  -2  -1  -2    1.30    1.05   0
  -2   0 -11  103.70    1.39   0
  -1   1 -11    0.17    0.57   0
   0   2 -10   22.67    1.08   0
   0   2  -9  166.31    1.89   0
   0   2  -8  123.38    1.74   0
   2  -2   4 1367.77    5.17   0
   2  -1   3    8.40    1.10   0
   2   1   0  291.51    3.55   0
   2   3 -10   61.25    1.55   0
   2   3  -9   59.53    1.50   0
   2   3  -8 1285.60    6.80   0
   3  -7   6    5.89    1.03   0
   3  -6   6   33.51    1.20   0
   3   3 -13    3.91    1.19   0
   4  -7   6    6.33    1.08   0
   4  -6   6    9.46    1.01   0
   4  -3   5  610.67    3.09   0
   5   0   2  163.28    1.90   0
   6  -4   5   13.95    0.79   0
   6   1   0  161.95    1.83   0
   7   0   1  426.73    2.72   0
   7   2  -3   23.07    1.18   0
   8   0   0   27.11    1.19   0
  -4  -5  -3  105.28    1.79   0
  -4  -4  -4  409.41    2.89   0
  -3  -2  -3  246.81    2.33   0
  -3  -1  -9   93.84    1.32   0
  -3  -1  -8   30.74    0.97   0
  -3  -1  -7  267.71    2.12   0
  -2  -3   1  240.75    3.89   0
  -2   0  -5  839.71    3.73   0
  -1   1 -12   52.92    1.14   0
  -1   1  -5  172.65    2.08   0
   0   2  -7   78.51    1.64   0
   1   2 -14    0.07    1.04   0
   2   3 -11  147.55    2.10   0
   3   0   2   23.88    1.16   0
   4   0   2   23.24    1.29   0
   5  -2   4    1.75    0.71   0
   5  -1   3  101.55    1.58   0
   6   3  -6   67.55    1.85   0
   7  -2   3    0.85    0.92   0
   7  -1   2  208.34    2.01   0
   8   1  -2   17.76    1.14   0
  -4  -7  -2  104.85    2.29   0
  -4  -6  -2    4.93    1.28   0
  -4  -3 -10    3.22    0.91   0
  -4  -3  -9    5.10    0.89   0
  -4  -3  -7    0.40    0.57   0
  -3  -1 -10   73.03    1.22   0
  -3  -1  -6  842.94    3.65   0
  -2   0 -12    6.60    0.90   0
   0  -4   4  260.86    3.40   0
   0   2 -11  224.61    2.05   0
   1   0   1 4698.46   14.54   0
   2  -4   5  387.27    2.89   0
   3  -2   4  426.35    2.85   0
   4  -2   4  616.87    3.20   0
   5  -4   5  326.17    2.33   0
   5   2  -2   46.81    1.70   0
   6  -5   5    2.93    0.81   0
   7  -4   4   41.38    1.25   0
   7   1  -1   73.00    1.43   0
   7   3  -8    0.47    1.38   0
   8  -2   2   34.83    1.08   0
   8  -1   1   -0.22    0.78   0
   8   2  -5   33.54    1.55   0
  -4  -8  -2    0.05    1.99   0
  -4  -3  -5  520.37    3.04   0
  -3  -3  -1  200.22    2.54   0
  -3  -1 -11  369.31    2.33   0
  -2  -2   0  511.25    4.57   0
  -2   0 -13    4.08    0.93   0
  -1   1 -13   28.53    1.05   0
   0   2 -12  216.75    2.06   0
   0   2  -6  199.12    2.36   0
   1  -8   5  184.16    2.57   0
   1  -3   4 2981.94    8.51   0
   2   3 -12    1.76    0.97   0
   2   3  -7    9.65    1.33   0
   3  -1   3  600.72    3.35   0
   3   2  -2 2734.50   10.41   0
   4  -4   5   71.73    1.40   0
   4  -1   3  201.94    2.13   0
   5   1   0    8.90    1.09   0
   6  -3   4   43.64    1.03   0
  -4  -5  -2  277.70    2.94   0
  -4  -4  -3  590.72    3.62   0
  -3  -7   1  100.88    2.97   0
  -3  -4   0  144.15    2.52   0
  -3  -1 -12    1.14    1.03   0
  -3  -1  -5   79.60    1.34   0
  -2   0  -4  254.70    2.23   0
   3  -4   5    2.15    1.04   0
   4   2  -2  953.63    5.39   0
   5  -5   5   53.41    1.23   0
   6  -2   3   66.97    1.29   0
   6   0   1   11.72    0.76   0
  -3  -6   1  353.05    4.63   0
  -1  -4   3  105.31    3.54   0
  -1   1 -14    2.19    1.09   0
  -1   1  -4 3398.65    8.80   0
   0   1  -2 2117.74   11.39   0
   0   2 -13   46.46    1.19   0
   1  -7   5    9.45    1.06   0
   3   1   0 3550.01    9.52   0
   4   1   0  733.15    3.97   0
   5  -6   5   89.43    1.54   0
   5  -3   4  486.33    2.83   0
   6  -1   2    9.48    1.00   0
   6   2  -3  822.37    4.39   0
   7  -3   3   73.46    1.19   0
   7   0   0    3.87    0.99   0
   7   2  -4   74.83    1.61   0
   7   3  -9    9.47    1.74   0
   8  -3   2   94.01    1.59   0
   8   0  -1    3.63    0.96   0
   8   1  -3    3.54    1.10   0
  -4  -3  -4  411.62    2.70   0
  -4  -2 -10   16.93    1.03   0
  -4  -2  -9   -0.68    0.88   0
  -4  -2  -8   91.37    1.22   0
  -4  -2  -7   28.51    1.06   0
  -3  -2  -2  330.30    2.80   0
  -3  -1  -4   11.79    1.06   0
   2  -5   5   97.95    1.71   0
   2   3 -13    0.21    1.02   0
   4  -5   5  318.92    2.42   0
   6  -4   4   34.36    0.96   0
   6   1  -1   50.42    1.34   0
   6   3  -7   30.01    1.62   0
   7  -2   2  180.74    1.84   0
   7  -1   1  123.28    1.60   0
   8  -2   1  117.96    1.66   0
   8  -1   0   20.28    1.15   0
   8   2  -6   19.75    1.39   0
  -5  -6  -6    9.60    1.57   0
  -5  -5  -8    3.16    1.40   0
  -4  -7  -1  142.99    2.64   0
  -4  -2  -6   31.86    1.07   0
  -2   1 -10   17.90    0.99   0
  -2   1  -9  322.69    2.24   0
  -2   1  -8  359.77    2.48   0
   0   2 -14   80.39    1.48   0
   0   2  -5 1243.75    5.86   0
   1  -2   3 1592.45    6.65   0
   2  -6   5  162.90    2.14   0
   2  -3   4   56.91    1.61   0
   3  -8   5    1.02    1.08   0
   3  -5   5   -0.93    0.91   0
   4  -7   5   81.56    1.51   0
   4  -6   5   33.84    1.17   0
   4  -3   4  493.04    2.86   0
   5  -2   3  450.60    2.67   0
   5   0   1   28.33    1.22   0
   5   3  -6   19.84    1.53   0
   6  -5   4    0.36    1.04   0
   7  -4   3    3.53    1.09   0
   7   1  -2  155.82    1.93   0
  -5  -6  -5   78.70    1.92   0
  -4  -6  -1   94.76    2.02   0
  -4  -4  -2    2.27    1.06   0
  -3  -8   1   78.22    3.02   0
  -3   0 -10  369.72    2.35   0
  -3   0  -9  197.28    1.85   0
  -3   0  -8    3.26    0.83   0
  -2   1 -11  228.48    1.95   0
  -2   1  -7   95.56    1.59   0
   1  -1   2  886.67    5.58   0
   1   3 -11  256.83    2.52   0
   1   3 -10   91.53    1.65   0
   1   3  -9   16.22    1.24   0
   2  -7   5  129.63    1.83   0
   3  -7   5   12.09    1.10   0
   3  -6   5    8.57    0.96   0
   3  -3   4   31.11    1.35   0
   5  -4   4    5.06    0.98   0
   5  -1   2  199.46    1.98   0
   6  -6   4    3.52    1.20   0
   6  -3   3    2.64    0.92   0
  -5  -5  -5   43.95    1.42   0
  -5  -4  -9   32.91    1.14   0
  -5  -4  -7    0.70    1.08   0
  -4  -8  -1    3.89    1.80   0
  -4  -3  -3   35.41    1.41   0
  -4  -2  -5  402.97    2.68   0
  -3   0 -11    4.12    0.90   0
  -3   0  -7  451.99    2.70   0
  -2  -1  -1 1165.00    5.95   0
  -2   0  -3   82.75    1.46   0
  -2   1 -12   10.92    0.98   0
  -1   2 -11   48.30    1.13   0
  -1   2 -10    1.92    0.85   0
  -1   2  -9    7.78    0.94   0
  -1   2  -8  506.59    3.11   0
   0  -8   4   47.05    1.70   0
   0  -5   4  728.26    5.15   0
   1   3 -12   -0.78    1.01   0
   7   2  -5    0.35    1.07   0
   8   0  -2    3.17    1.11   0
  -5  -7  -4   30.04    2.17   0
  -5  -6  -4    0.29    1.35   0
  -5  -4  -6   93.03    1.61   0
  -4  -5  -1  118.88    2.10   0
  -3  -5   1  203.11    3.45   0
  -3  -1  -3  563.07    3.34   0
  -3   0 -12  105.94    1.68   0
  -3   0  -6   46.14    1.37   0
  -2   1 -13    3.84    1.05   0
  -2   1  -6 1640.04    5.27   0
  -1   2 -12    1.85    0.83   0
   1  -4   4  166.24    2.57   0
   1   1  -1  636.53   10.08   0
   1   3  -8 1262.24    5.88   0
   2   0   1 1913.71    7.39   0
   4  -2   3 1745.68    5.30   0
   4   0   1  466.09    2.96   0
   5   1  -1   96.33    1.73   0
   5   2  -3 1322.83    5.88   0
   6  -2   2  117.64    1.59   0
   6   0   0  251.72    2.09   0
   7  -3   2   75.77    1.37   0
   7   0  -1  442.07    2.83   0
   8  -3   1   -0.36    1.05   0
   8   1  -4    0.22    1.03   0
  -5  -5  -4  327.63    2.88   0
  -5  -3  -9   24.70    1.14   0
  -4  -2  -4  537.75    3.19   0
  -4  -1 -11   59.48    1.26   0
  -4  -1 -10   10.58    0.98   0
  -4  -1  -9    4.13    0.62   0
  -4  -1  -8   85.41    1.37   0
  -3   0 -13   13.80    1.23   0
  -1   0  -1 4708.61   14.50   0
  -1   2  -7    3.05    1.17   0
   0  -3   3   11.45    1.49   0
   1  -9   4   26.73    1.42   0
   1   3 -13  121.44    1.81   0
   2  -2   3  143.45    1.96   0
   2   3  -6  574.03    6.65   0
   3  -2   3  266.85    2.35   0
   3   0   1  518.04    3.47   0
   4  -4   4  455.23    2.79   0
   4  -1   2  943.95    4.12   0
   5  -5   4  347.30    2.33   0
   6  -4   3    2.51    0.94   0
   6  -1   1  240.63    2.06   0
   6   2  -4  388.18    3.27   0
   7  -2   1  185.56    1.89   0
   8  -2   0   11.03    1.22   0
   8  -1  -1   45.07    1.24   0
  -5  -4  -5  273.78    2.42   0
  -5  -3  -8    1.56    0.76   0
  -5  -3  -7  149.69    1.72   0
  -4  -1 -12    5.42    1.24   0
  -4  -1  -7    0.73    0.59   0
  -2  -4   2  764.94   11.33   0
  -1   1  -3 1362.40    6.18   0
  -1   2 -13   16.33    1.08   0
   0  -7   4   33.92    1.58   0
   0  -6   4  116.56    2.34   0
   2  -1   2    1.73    1.20   0
   5  -7   4   35.39    1.23   0
   5  -6   4    0.40    0.72   0
   5  -3   3   45.53    1.24   0
   6   1  -2  402.93    2.96   0
   6   3  -8  154.23    2.98   0
   7  -1   0  338.30    2.32   0
   7   1  -3  369.92    2.90   0
  -5  -7  -3    6.62    1.62   0
  -5  -6  -3   92.58    2.02   0
  -5  -3  -6   47.27    1.21   0
  -4  -3  -2  616.12    3.77   0
  -4  -1  -6  140.22    1.67   0
  -3  -3   0 3301.16   10.33   0
  -3  -2  -1 1677.30    6.48   0
  -3   0  -5   68.77    1.26   0
  -2   1  -5  529.55    3.16   0
   1   3 -14   -0.01    1.16   0
   1   3  -7  310.94    3.40   0
   2  -4   4  155.07    2.09   0
   3  -4   4   48.31    1.20   0
   3  -1   2   87.13    1.44   0
   4  -5   4   74.54    1.52   0
   6  -5   3    2.85    1.01   0
   7  -4   2  145.70    1.57   0
  -5  -4  -4    3.54    1.05   0
  -4  -4  -1  242.06    2.76   0
  -1   2  -6  273.29    2.55   0
   1  -8   4    6.18    1.30   0
   4  -7   4   74.54    1.45   0
   4  -6   4  175.24    1.91   0
   4   1  -1 1563.88    6.09   0
   4   3  -6    0.85    1.54   0
   5  -2   2   29.50    1.20   0
   5   0   0  162.60    2.00   0
   6  -6   3    0.61    1.10   0
   6  -3   2   19.95    1.04   0
   7  -5   2   60.90    1.45   0
   7   2  -6   -0.41    1.13   0
   8   0  -3    0.33    0.78   0
   8   1  -5    0.84    1.12   0
  -5  -5  -3   54.03    1.53   0
  -5  -3  -5   82.94    1.49   0
  -5  -2 -10    7.40    1.17   0
  -4  -2  -3 1644.11    5.54   0
  -4  -1  -5  885.20    3.82   0
  -3   1 -11  379.68    2.46   0
  -3   1 -10   73.59    1.30   0
  -3   1  -9   97.36    1.45   0
   0   2  -4  340.94    3.65   0
   0   3 -12  124.90    1.73   0
   0   3 -11    0.54    0.81   0
   0   3 -10  193.21    2.13   0
   0   3  -9   23.03    1.22   0
   3  -8   4   19.82    1.22   0
   3  -5   4   13.56    1.07   0
   4  -3   3   37.56    1.37   0
   4   2  -3  247.57    3.02   0
   5  -4   3  431.83    2.67   0
   5  -1   1   90.52    1.60   0
   7  -3   1   84.75    1.42   0
   7   0  -2  322.14    2.58   0
   8  -3   0   22.91    1.00   0
   8  -1  -2   12.73    1.17   0
  -5  -2  -7    0.61    0.88   0
  -4  -7   0    6.93    1.56   0
  -4  -6   0  300.50    3.69   0
  -4   0 -10    3.16    0.85   0
  -4   0  -9    0.66    0.81   0
  -3  -1  -2   91.02    1.67   0
  -3   0  -4   36.95    1.24   0
  -3   1 -12    1.21    1.07   0
  -3   1  -8   35.85    1.09   0
  -2   0  -2  210.99    2.51   0
  -2   2 -11   70.53    1.30   0
  -2   2 -10  351.53    2.46   0
   0   3 -13  160.39    1.91   0
   1  -7   4  385.18    3.36   0
   2  -8   4   33.06    1.30   0
   2  -5   4   55.93    1.52   0
   3  -7   4   24.91    1.15   0
   3  -6   4   67.19    1.41   0
   5   3  -7  507.05    5.39   0
   6  -2   1   92.53    1.55   0
   6   0  -1  119.01    1.74   0
   8  -2  -1   29.53    1.03   0
  -5  -4  -3  398.05    3.08   0
  -4   0 -12   25.10    1.31   0
  -4   0 -11   50.50    1.09   0
  -4   0  -8   30.71    1.13   0
  -3   1  -7  273.51    2.25   0
  -2   1  -4  258.85    2.40   0
  -2   2 -12   29.64    1.12   0
  -2   2  -9  217.35    1.99   0
  -1  -8   3    6.59    1.46   0
   0   3  -8   25.81    1.26   0
   2  -7   4   -0.50    0.95   0
   2  -6   4  141.78    2.05   0
   5  -5   3   54.54    1.29   0
   6  -4   2   65.11    1.37   0
   6  -1   0  158.26    1.79   0
   6   2  -5   39.40    1.51   0
   6   3  -9    3.80    1.46   0
   7  -2   0   -0.82    0.78   0
   7  -1  -1   69.92    1.47   0
   7   1  -4    2.79    1.03   0
   8   1  -6  137.94    2.27   0
  -5  -7  -2    0.07    1.46   0
  -5  -6  -2   20.02    1.39   0
  -5  -3  -4  443.85    3.04   0
  -4  -1  -4  496.75    3.04   0
  -4   0  -7  117.98    1.52   0
  -3  -4   1  496.61    4.99   0
  -2   2 -13    6.35    1.14   0
  -2   2  -8  183.64    1.95   0
  -1   2  -5 5102.53   10.55   0
   1  -3   3  763.69    4.68   0
   3  -3   3  716.76    3.54   0
   3   1  -1  659.72    4.52   0
   4  -2   2  102.59    1.79   0
   5  -7   3    5.29    1.15   0
   5  -6   3   88.39    1.53   0
   5   1  -2   50.64    1.54   0
   6   1  -3  596.07    3.77   0
   7  -4   1  156.63    1.78   0
   7   2  -7    3.40    1.35   0
   8   0  -4   13.22    1.25   0
  -6  -5  -6    8.02    1.66   0
  -6  -4  -7   44.33    1.61   0
  -5  -5  -2   52.11    1.59   0
  -5  -2  -5  349.93    2.59   0
  -5  -1 -10   33.46    1.30   0
  -5  -1  -9   72.84    1.29   0
  -4  -8   0   63.74    2.63   0
  -4  -5   0  230.34    2.97   0
   0  -9   3    0.15    1.39   0
   2  -3   3  107.43    1.80   0
   3   2  -3  182.45    3.41   0
   4  -4   3  635.98    3.13   0
   4  -1   1  871.09    4.04   0
   4   0   0 1075.72    4.60   0
   5  -3   2   52.72    1.27   0
   6  -5   2    5.73    1.04   0
   7  -5   1   36.06    1.33   0
   8  -3  -1   36.37    1.36   0
  -5  -1  -8    2.01    0.92   0
  -4  -3  -1  822.08    4.58   0
  -4  -2  -2  102.89    1.91   0
  -4   0  -6    8.06    1.01   0
  -3   1  -6  847.45    3.65   0
  -2   2  -7 1270.89    4.73   0
  -1  -5   3   34.55    2.19   0
   0   3  -7  127.12    2.16   0
   1   3  -6   69.66    2.13   0
   2   1  -1   34.64    1.81   0
   4  -8   3   57.11    1.46   0
   6  -6   2   28.35    1.14   0
   6  -3   1  118.44    1.56   0
   7  -3   0  156.64    1.79   0
   8  -2  -2   18.17    1.24   0
   8  -1  -3    2.24    1.05   0
  -6  -5  -5    1.58    1.51   0
  -6  -4  -6    4.63    0.98   0
  -6  -3  -8    4.75    1.38   0
  -5  -3  -3   41.16    1.33   0
  -5  -1  -7  354.35    2.38   0
  -3   0  -3  376.86    2.75   0
  -1   3 -12   20.54    1.10   0
  -1   3 -11    1.00    0.92   0
  -1   3 -10   41.50    1.23   0
   3  -2   2  342.39    2.73   0
   4  -7   3    2.89    1.05   0
   4  -5   3  118.46    1.70   0
   7   0  -3   35.77    1.21   0
  -6  -6  -4    1.61    1.65   0
  -6  -4  -5    9.32    1.14   0
  -5  -4  -2   66.21    1.58   0
  -5  -2  -4    0.95    0.90   0
  -4  -1  -3  197.73    2.23   0
  -1   3 -13    8.57    1.15   0
  -1   3  -9   99.40    1.62   0
   1  -9   3   25.57    1.40   0
   3  -4   3   79.03    1.54   0
   4  -6   3  297.22    2.34   0
   5  -4   2   67.21    1.39   0
   5   0  -1  184.28    2.13   0
   6  -2   0   62.89    1.40   0
   6   0  -2  117.56    1.81   0
   7  -2  -1  190.40    1.99   0
   7  -1  -2  167.41    1.92   0
   7   1  -5   41.54    1.41   0
   8  -4  -1    0.30    0.99   0
   8   0  -5   56.12    1.56   0
  -5  -1  -6  114.16    1.45   0
  -4   0  -5  179.53    1.88   0
  -3   1  -5   82.35    1.40   0
  -2   2  -6   28.52    1.10   0
   5  -1   0    8.29    0.89   0
  -5  -7   4  131.43    1.58   0
  -4  -7   7    0.13    0.70   0
  -4  -6   6    9.41    0.82   0
  -4  -5   5    0.17    0.51   0
  -4  -4   3    7.75    0.77   0
  -3  -6   8   13.71    0.86   0
  -3  -5   7  129.10    1.41   0
  -2  -3   6  621.08    2.83   0
  -1  -3 -12   23.00    0.92   0
   2   0  -9  276.87    1.87   0
   3  -2 -14   51.56    0.95   0
   6  -1 -12   -0.01    0.90   0
   6  -1   4   32.60    1.66   0
   7   0  -7    0.32    0.62   0
   7   0  -2  302.00    2.19   0
  -5  -6  -5   64.76    1.59   0
  -5  -6   2    0.60    0.76   0
  -4  -4  -6    4.12    1.05   0
  -1  -6  10   42.45    1.07   0
   0  -3   8   31.60    1.02   0
   0  -2 -12  212.73    2.01   0
   1  -6  11    9.71    1.03   0
   1  -2 -13    6.25    0.72   0
   1  -2   7    0.16    0.92   0
   1  -1 -11  331.04    2.12   0
   1  -1   5  183.61    2.37   0
   1   0  -8  714.01    3.13   0
   2  -1 -12    3.56    0.63   0
   3   0 -10  174.03    1.45   0
   4   0 -10   49.63    0.82   0
   5  -3   8    3.82    1.14   0
   5   0 -10   43.25    0.93   0
   6   0  -9   39.24    0.76   0
   6   0   1    9.08    0.94   0
  -5  -7   3    6.14    0.95   0
  -4  -5  -8   38.37    2.10   0
  -4  -4   2  342.60    2.27   0
  -2  -6   9   10.19    0.66   0
  -2  -4 -12    1.39    0.94   0
  -2  -4   7 1221.79    3.81   0
  -1  -3   7  320.51    2.04   0
   0  -4   9   37.33    1.04   0
   0  -1 -10  222.39    1.99   0
   2  -2 -14   -0.23    0.80   0
   4  -1 -13   73.43    1.12   0
   4   1  -4    0.06    0.79   0
   4   1  -3   17.67    0.86   0
   5  -4   9   57.31    1.74   0
   5  -1 -13   11.19    0.91   0
   7  -2   5    2.09    1.77   0
   7   0  -8    0.18    0.72   0
   7   0  -1  384.91    2.61   0
   8  -1   1    0.21    0.99   0
  -5  -6   1   37.63    1.04   0
  -4  -7   6    1.83    0.81   0
  -4  -5   4    6.46    0.66   0
  -3  -7   8    8.78    0.73   0
  -3  -4   5  230.09    1.78   0
  -3  -3   3 2665.14    5.91   0
  -2  -5   8  878.82    3.15   0
  -1  -5   9   57.42    1.12   0
  -1  -4   8  316.56    2.12   0
  -1  -2   5  267.51    2.08   0
  -1  -1  -8  100.16    1.71   0
   0  -1   4 3259.95    8.49   0
   0   0  -6    2.36    0.69   0
   3  -1 -13    4.43    0.71   0
   3   1  -5    6.93    0.75   0
   3   1  -4   60.08    0.97   0
   3   1  -3 3139.74    6.75   0
   4  -2   7   33.93    1.50   0
   4   0 -11  452.17    2.19   0
   4   1  -6    1.72    0.68   0
   4   1  -5   17.44    0.72   0
   6   0 -10    1.01    0.53   0
   7  -1   3  153.85    2.48   0
   7   0  -9    0.23    0.82   0
  -5  -7   2    5.03    0.98   0
  -5  -6  -4   -0.07    0.90   0
  -5  -6   0    0.22    0.74   0
  -4  -6   5    0.37    0.52   0
  -3  -6   7   50.06    1.09   0
  -2  -7   9    0.77    0.94   0
  -2  -2   3  274.32    2.12   0
  -1  -7  10    9.98    0.93   0
   0  -2   6  222.87    2.01   0
   1  -5  10    6.16    0.77   0
   2   0 -10  184.52    1.56   0
   3   1  -6  948.82    3.33   0
   3   1  -2   15.35    0.88   0
   4   0   3 1418.97    9.02   0
   4   1  -2   40.82    1.08   0
   5   0 -11  103.29    1.08   0
   5   1  -6    4.56    0.72   0
   5   1  -5  325.76    2.03   0
   5   1  -4  505.40    2.46   0
   5   1  -3   -0.11    0.79   0
   8   0  -6    5.99    0.90   0
   8   0  -5   56.48    1.14   0
   8   0  -4   12.97    0.92   0
  -5  -6  -3   66.29    1.34   0
  -5  -6  -1    6.94    0.78   0
  -4  -4   1   11.19    0.89   0
  -3  -5   6  213.21    1.61   0
  -2  -3   5  354.70    2.23   0
  -1  -2 -11   48.50    1.18   0
  -1  -1   2  359.69    3.14   0
   0  -6  10   13.01    0.91   0
   1  -4   9   31.61    1.02   0
   1  -3   8    5.15    0.84   0
   1  -1 -12    6.99    0.80   0
   1   0  -9  321.34    2.12   0
   2  -2   7 1453.28    5.57   0
   2  -1 -13    6.05    0.68   0
   3   0 -11   15.81    0.58   0
   4   1  -7  203.27    1.59   0
   5   1  -7  563.67    2.48   0
   5   1  -2   48.46    1.24   0
   6   0 -11    0.27    0.79   0
   7   0 -10   71.11    1.16   0
   7   0   0    3.33    0.73   0
   8   0  -7   90.08    1.30   0
   8   0  -3    0.01    0.80   0
  -5  -7   1    2.89    0.86   0
  -4  -7   5   35.97    1.08   0
  -4  -5   3    7.74    0.72   0
  -3  -7   7   25.14    0.99   0
   0   0  -7   73.86    1.32   0
   1  -2 -14    0.33    0.82   0
   2  -5  10   22.41    0.90   0
   2   1  -5  714.29    3.11   0
   2   1  -4  430.66    2.55   0
   3  -5  10   28.64    1.17   0
   3  -2   7  117.71    2.06   0
   3   1  -7  157.60    1.52   0
   4   1  -8    2.78    0.66   0
   4   1  -1 1370.25    4.86   0
   5   0 -12   -0.04    0.66   0
   6   1  -6   36.36    0.89   0
   6   1  -5  388.32    2.21   0
   6   1  -4  363.24    2.24   0
   8   0  -2    4.96    0.93   0
  -5  -7   0    4.90    0.99   0
  -4  -8   5   -0.11    1.13   0
  -4  -6   4   13.82    0.67   0
  -4  -4   0  463.85    2.78   0
  -3  -4   4  344.37    2.20   0
  -3  -3   2   19.07    0.93   0
  -2  -5   7    4.69    0.92   0
  -2  -4   6  447.28    2.48   0
  -2  -3 -11  184.83    2.60   0
  -1  -6   9   66.61    1.02   0
  -1  -3 -13    7.93    0.99   0
   0  -7  10   20.38    1.09   0
   0  -5   9    1.30    0.73   0
   0  -2 -13   47.44    1.18   0
   2   1  -6 1384.44    4.12   0
   3  -1 -14  188.11    1.64   0
   3   1  -1  632.40    3.55   0
   4  -4   9   -0.60    0.95   0
   4   0 -12    1.47    0.50   0
   5   1  -8  250.98    1.77   0
   6   0 -12    4.75    0.81   0
   6   1  -7   98.09    1.19   0
   6   1  -3  573.23    2.86   0
  -5  -7  -4   21.68    1.31   0
  -5  -7  -1   -0.19    0.96   0
  -4  -5   2   11.29    0.82   0
  -3  -8   7    7.16    0.84   0
  -3  -6   6    7.52    0.80   0
  -1  -5   8  509.63    2.65   0
  -1  -3   6   73.15    1.33   0
   0  -4   8   17.12    0.90   0
   0  -3   7  147.85    1.66   0
   0  -1 -11    1.30    0.63   0
   1  -6  10    2.44    0.87   0
   2  -4   9   47.53    1.14   0
   2  -3   8  402.63    2.72   0
   2   1  -2  470.71    3.10   0
   3  -4   9   92.74    1.60   0
   3   0 -12   50.18    0.96   0
   3   1  -8   60.09    0.93   0
   4  -3   8   59.41    1.49   0
   4   1  -9  400.28    2.12   0
   5   1  -9   81.47    1.08   0
   5   1  -1   89.46    1.41   0
   6   0   2  141.10    2.15   0
   6   1  -8  221.55    1.62   0
   8  -1   2  105.63    1.98   0
  -5  -7  -2    0.00    0.96   0
  -4  -7   4    6.70    0.91   0
  -3  -5   5   10.58    0.63   0
  -2  -2  -9  207.02    2.82   0
  -2  -2   2  411.35    2.74   0
  -1  -7   9   -0.21    0.81   0
  -1  -4   7  290.87    2.05   0
  -1  -1  -9  148.90    1.94   0
   1   0 -10  149.71    1.50   0
   2  -1   5  568.99    4.54   0
   2   1  -7   25.27    0.98   0
   3  -3   8    2.99    0.90   0
   5   0 -13    0.43    0.78   0
   6   1  -2  374.46    2.44   0
   7   0   1  428.04    3.27   0
   7   1  -6    0.66    0.64   0
   7   1  -5   41.85    0.96   0
   8   0  -1    2.51    0.84   0
  -4  -8   4   10.32    1.21   0
  -4  -6   3   34.19    0.84   0
  -4  -4  -4  369.47    3.18   0
  -4  -4  -3  534.26    3.58   0
  -3  -7   6  136.23    1.51   0
  -2  -3   4  390.62    2.39   0
  -1  -2   4   13.72    0.86   0
   0   0  -8    1.37    0.79   0
   1  -1 -13  185.30    1.69   0
   2  -6  10   75.20    1.32   0
   2  -1 -14   70.11    1.35   0
   3   1  -9  215.67    1.63   0
   4   0 -13   39.13    0.99   0
   4   1 -10  325.53    1.92   0
   5   1 -10  191.40    1.57   0
   6   1  -9    0.30    0.46   0
   7   1  -7    1.55    0.71   0
   7   1  -4    2.92    0.68   0
  -4  -5   1  360.70    2.40   0
  -3  -8   6    4.78    1.08   0
  -3  -4   3  265.63    2.09   0
  -3  -3   1  636.81    3.26   0
  -2  -6   7  380.37    2.26   0
   0  -6   9   18.11    0.80   0
   1  -5   9   25.32    0.95   0
   1  -2   6  288.75    2.49   0
   2   0 -12   51.20    0.98   0
   2   1  -8 2540.05    5.39   0
   3   0 -13  108.96    1.26   0
   4   1   0  686.00    3.78   0
   6  -3   7   56.53    2.28   0
   6   1 -10    2.73    0.71   0
   7   1  -8    0.16    0.54   0
   7   1  -3  353.18    2.33   0
  -4  -7   3    1.00    0.77   0
  -4  -6   2  157.73    1.69   0
  -3  -6   5  101.50    1.33   0
  -2  -5   6  587.18    2.75   0
  -1  -6   8   74.16    1.17   0
  -1  -2 -12    2.28    0.76   0
   1   0 -11  379.83    2.28   0
   2   1  -1   33.90    1.21   0
   3   1 -10    6.11    0.66   0
   5   0   3 1084.17    6.97   0
   5   1 -11   14.96    0.76   0
   5   1   0    6.36    1.01   0
   6   1  -1   45.92    1.09   0
   7   1  -9   11.20    0.67   0
  -4  -8   3    7.13    1.07   0
  -4  -5  -7    1.09    1.02   0
  -4  -5   0  197.95    1.88   0
  -3  -5   4   65.17    1.07   0
  -2  -7   7    1.64    0.78   0
   0  -7   9   30.04    0.96   0
   0  -1 -12  137.28    1.57   0
   0   0  -9   57.68    1.16   0
   1  -4   8  192.74    1.79   0
   1   1  -5   43.05    1.07   0
   1   1  -4   47.24    1.17   0
   2  -5   9  101.19    1.54   0
   2   1  -9   75.40    1.15   0
   4   1 -11    5.64    0.75   0
   6   1 -11   24.73    0.92   0
   7   1 -10    1.69    0.90   0
   7   1  -2  153.04    1.69   0
   8   0   0   23.70    1.06   0
   8   1  -6  146.98    1.55   0
  -4  -7   2   90.82    1.42   0
  -3  -7   5    9.16    0.80   0
  -3  -3   0 2517.66    6.77   0
  -2  -8   7   98.45    1.29   0
  -1  -8   8   14.98    1.15   0
  -1  -7   8  185.22    1.61   0
  -1  -5   7  328.44    2.14   0
  -1  -3   5   59.24    1.16   0
   0  -5   8    2.81    0.57   0
   0  -1   3  643.61    4.26   0
   1  -6   9   -0.43    0.83   0
   1  -3   7  651.84    3.26   0
   1   1  -6   12.57    0.64   0
   4  -5   9    0.96    1.12   0
   8   1  -5    1.00    0.89   0
   8   1  -4   -0.18    0.78   0
  -4  -8   2   18.55    1.24   0
  -4  -6   1    6.62    0.84   0
  -3  -8   5   29.90    1.00   0
  -3  -4   2 1119.76    4.08   0
  -2  -2   1   96.08    1.54   0
  -1  -1 -10   11.46    0.75   0
  -1  -1   1  694.38    4.70   0
   0  -4   7   57.64    1.20   0
   1  -1 -14   -0.12    0.77   0
   1  -1   4 4011.88   10.90   0
   1   1  -7  685.20    3.07   0
   1   1  -3  432.05    3.06   0
   2   0 -13    0.48    0.68   0
   2   1 -10   68.08    1.02   0
   3  -5   9   29.07    1.12   0
   3   0 -14   50.74    1.09   0
   3   1 -11    5.90    0.50   0
   4   1 -12  166.98    1.45   0
   5   1 -12   26.48    0.81   0
   6   1 -12    0.16    0.92   0
  -3  -6   4  169.18    1.66   0
  -3  -5   3  636.13    2.99   0
  -2  -3   3 2131.83    5.55   0
   0  -3   6    2.99    0.69   0
   1  -7   9    8.94    0.97   0
   1   0 -12  328.02    2.17   0
   2  -4   8  111.06    1.62   0
   3  -1   5   93.47    2.42   0
   5   2  -6  497.17    2.44   0
   6   1   0  145.54    1.76   0
   7   1  -1   68.13    1.34   0
   8   1  -3    2.73    0.83   0
  -4  -8   1    3.30    1.19   0
  -4  -7   1  159.78    1.78   0
  -4  -6   0  261.83    2.20   0
  -4  -5  -6    0.65    0.89   0
  -4  -5  -2  247.69    2.24   0
  -3  -7   4   16.64    0.99   0
  -2  -7   6   70.17    1.20   0
  -1  -6   7  132.27    1.45   0
   0  -6   8   30.49    0.94   0
   0   0 -10    3.35    0.63   0
   1   1  -8 1858.74    4.94   0
   2  -6   9   22.34    0.97   0
   2  -2   6   33.30    1.47   0
   3   1 -12   50.40    0.96   0
   4   2  -7   14.43    0.77   0
   4   2  -6   12.34    0.84   0
   4   2  -5    1.37    0.76   0
   5  -4   8  143.34    2.21   0
   5   1 -13   12.73    0.94   0
   5   2  -8  806.62    2.97   0
   5   2  -7   61.20    0.95   0
   5   2  -5  163.88    1.57   0
   6   2  -7  233.83    1.70   0
   6   2  -6  177.62    1.56   0
   7   0   2  292.97    3.09   0
  -3  -8   4   31.59    1.16   0
  -2  -8   6   32.42    0.91   0
  -2  -4   4 1000.68    3.59   0
  -2  -3 -12   10.03    1.28   0
  -2  -2 -10  343.50    3.70   0
  -1  -2   3   23.49    1.05   0
   0  -7   8   -0.45    0.79   0
   0  -1 -13  203.17    1.95   0
   1  -5   8   13.47    0.87   0
   2  -3   7   27.12    1.13   0
   2   0 -14   -0.69    0.72   0
   2   1 -11  332.27    2.00   0
   3  -6   9   27.03    1.18   0
   4  -1   5 1010.68    9.04   0
   4   1 -13   72.08    1.14   0
   4   1   1  833.64    4.72   0
   4   2  -8  366.28    2.01   0
   4   2  -4   26.10    0.97   0
   5   2  -9  230.07    1.62   0
   5   2  -4    0.70    0.61   0
   6   2  -8   12.32    0.81   0
   6   2  -5   39.74    0.97   0
   8   0   1   70.96    1.59   0
   8   1  -2   17.80    1.06   0
  -4  -8   0   52.87    1.51   0
  -4  -7   0    4.26    0.94   0
  -4  -6  -1   73.74    1.32   0
  -4  -5  -5  231.57    2.59   0
  -4  -5  -4   60.64    1.39   0
  -3  -6   3   40.97    1.08   0
  -3  -4   1  434.06    2.73   0
  -1  -8   7   24.28    1.05   0
  -1  -7   7   48.78    0.95   0
  -1  -2 -13   19.88    1.04   0
   0  -8   8    7.64    0.92   0
   1   1  -9   93.91    1.30   0
   1   1  -2  350.73    3.02   0
   2  -7   9   38.61    1.11   0
   3  -4   8   -0.73    0.76   0
   3   2  -7  354.83    2.06   0
   3   2  -6   25.81    1.01   0
   3   2  -5  331.28    2.13   0
   4  -4   8   10.09    0.95   0
   4   2  -9   20.88    0.82   0
   5   1   1   81.76    1.70   0
   5   2 -10   11.58    0.70   0
   5   2  -3 1350.59    4.27   0
   6   2  -9   31.52    0.72   0
   6   2  -4  408.27    2.36   0
   7   2  -7    9.07    0.72   0
   8  -1   3  108.42    2.49   0
  -3  -5   2   17.04    0.98   0
  -2  -6   5   33.73    1.06   0
  -1  -5   6   17.77    0.92   0
  -1  -1 -11    0.27    0.68   0
   0  -5   7   -1.02    0.73   0
   1   0 -13    0.07    0.67   0
   2   1   0  284.65    3.04   0
   3   1 -13    2.47    0.73   0
   3   2  -8   61.12    1.07   0
   3   2  -4 1714.70    4.65   0
   4   2 -10   45.81    0.89   0
   4   2  -3  240.17    1.86   0
   5  -3   7  179.95    2.62   0
   6   2 -10    2.67    0.77   0
   7  -1   4    2.27    1.56   0
   7   2  -9    8.02    0.88   0
   7   2  -8    0.48    0.60   0
   7   2  -6    0.55    0.51   0
   7   2  -5    0.18    0.68   0
  -4  -8  -1    3.84    1.40   0
  -4  -7  -1  116.93    1.64   0
  -4  -6  -2    5.09    0.82   0
  -3  -8   3    9.75    1.01   0
  -3  -7   3  388.95    2.51   0
  -2  -7   5   42.44    1.04   0
  -1  -3   4    7.14    0.80   0
  -1   0  -6    6.08    0.95   0
   0   0 -11  133.70    1.53   0
   1  -6   8   86.52    1.27   0
   1  -4   7   18.84    0.97   0
   1   1 -10  176.98    1.63   0
   2  -5   8   55.72    1.26   0
   2   1 -12    3.60    0.65   0
   3  -3   7  223.53    2.37   0
   3   2  -9   46.12    0.92   0
   5   2 -11  160.11    1.40   0
   6   0   3    7.90    1.19   0
   6   2 -11    0.30    0.83   0
   6   2  -3  807.10    3.36   0
   7   1   0  329.50    2.63   0
  -2  -8   5    3.22    0.67   0
  -2  -5   4   55.61    1.22   0
  -2  -3   2  260.92    2.08   0
  -2  -2   0  448.98    3.29   0
  -1  -6   6  214.05    1.81   0
   0  -2   4  347.68    2.71   0
   1  -7   8    1.59    0.85   0
   1  -2   5 5542.68   10.65   0
   3  -2   6   35.31    1.47   0
   3   1   1  934.76    5.48   0
   3   2  -3  184.87    1.75   0
   4   2 -11  257.94    1.74   0
   5  -2   6   88.48    2.39   0
   5   2  -2   47.15    1.14   0
   6   1   1  239.02    2.45   0
   7   2  -4   77.33    1.09   0
   8   1  -1   40.01    1.15   0
   8   2  -7   45.02    1.17   0
  -4  -8  -2    0.01    1.42   0
  -4  -6  -5   20.16    1.16   0
  -3  -6   2  521.40    2.78   0
  -3  -4   0  133.27    1.73   0
  -2  -4   3  240.23    2.03   0
  -1  -8   6   51.11    1.15   0
  -1  -7   6    1.46    0.86   0
  -1   0  -7   83.53    1.73   0
  -1   0  -4 1119.18    7.00   0
   0  -6   7   38.86    0.82   0
   0  -4   6    6.10    0.72   0
   0  -1 -14    0.41    0.92   0
   1  -3   6  640.77    3.36   0
   2   2  -7 1270.74    3.94   0
   2   2  -6  625.53    2.78   0
   3   1 -14  131.72    1.76   0
   3   2 -10   61.84    0.88   0
   4  -3   7    0.62    0.77   0
   4   2  -2  902.66    3.63   0
   5  -5   8    3.16    1.12   0
   5   2 -12    1.13    0.82   0
   7   2  -3   21.40    1.00   0
   8   2  -6   23.48    1.03   0
  -4  -7  -3    0.71    1.04   0
  -3  -8   2  166.60    1.87   0
  -3  -7   2   24.24    0.98   0
  -3  -5   1  186.44    1.88   0
  -2  -9   4    1.62    1.14   0
   0  -8   7    2.10    1.07   0
   0  -7   7   22.97    0.88   0
   0  -3   5  222.68    2.01   0
   1   1 -11  322.47    2.09   0
   2  -6   8   45.83    1.11   0
   2   1 -13    2.94    0.75   0
   2   2  -8   35.01    1.01   0
   2   2  -5   73.14    1.18   0
   3  -5   8   25.83    0.97   0
   3   2 -11   29.01    0.76   0
   4  -5   8   54.99    1.35   0
   4  -2   6   37.29    1.57   0
   4   2 -12    7.33    0.80   0
   6   2  -2  307.26    2.21   0
  -4  -7  -6    1.60    1.12   0
  -2  -8   4   59.41    1.22   0
  -2  -7   4   48.10    1.11   0
  -2  -6   4  224.18    1.75   0
  -1  -5   5   11.76    0.98   0
  -1   0  -8  397.25    3.07   0
   0   0 -12  220.56    1.93   0
   0   1  -6   27.50    0.96   0
   1  -5   7  122.35    1.46   0
   2  -7   8   57.66    1.22   0
   2   2  -9   95.79    1.22   0
   2   2  -4  629.02    2.97   0
   8   2  -4   -0.36    0.87   0
  -3  -9   1   11.96    1.46   0
  -1  -2 -14   56.87    1.49   0
  -1  -1 -12   50.72    1.29   0
   0   1  -7   80.66    1.38   0
   0   1  -5  662.37    3.64   0
   2  -4   7  418.59    2.64   0
   3  -6   8    4.21    0.85   0
   3   2  -2 2627.86    6.45   0
   4   2 -13   27.00    0.94   0
   5   2  -1   75.52    1.36   0
   7   2  -2  108.75    1.55   0
  -3  -8   1   88.16    1.53   0
  -3  -7   1   95.27    1.47   0
  -3  -6   1  304.44    2.17   0
  -3  -4  -1  274.70    2.41   0
  -3  -3  -4   25.69    1.39   0
  -2  -5   3 1394.27    4.34   0
  -2  -2 -11   60.66    1.82   0
  -2  -1  -6 1640.68   11.47   0
  -1  -9   5    0.08    0.77   0
  -1  -2   2  232.28    2.32   0
   0  -5   6    1.34    0.60   0
   0   1  -8   40.62    1.13   0
   1  -6   7    1.38    0.74   0
   1   1 -12    8.34    0.71   0
   1   1  -1  674.56    4.65   0
   2   1 -14   84.43    1.25   0
   2   2 -10   37.34    0.90   0
   3  -7   8    0.34    0.96   0
   3   2 -12    9.40    0.54   0
   4  -6   8    2.63    0.94   0
   4   2  -1   17.57    1.05   0
   6  -4   7   61.12    1.66   0
   8   0   2    9.98    1.30   0
   8   1   0   18.72    1.13   0
   8   2  -3    3.19    0.78   0
  -3  -5   0  568.56    3.15   0
  -2  -9   3   63.72    1.28   0
  -2  -4   2  681.36    3.26   0
  -2  -3   1  211.99    2.05   0
  -1  -8   5    4.02    0.78   0
  -1  -7   5    5.19    0.79   0
  -1  -6   5    1.35    0.60   0
  -1   0  -9  150.20    1.94   0
   0  -6   6    1.89    0.85   0
   0   1  -9    3.12    0.83   0
   0   1  -4 3183.34    8.32   0
   1  -8   7    0.24    0.81   0
   1  -7   7  129.76    1.47   0
   2   2  -3  281.08    2.17   0
   5   3  -9   79.13    1.12   0
   5   3  -8  182.63    1.44   0
   5   3  -7  506.14    2.32   0
   5   3  -6   22.49    0.87   0
   6   2  -1  141.30    1.64   0
   6   3  -9    3.74    0.73   0
   6   3  -8  153.90    1.35   0
   6   3  -7   30.60    0.88   0
   6   3  -6   65.80    1.08   0
   7   1   1  108.12    1.73   0
  -2  -8   3   44.36    1.14   0
  -2  -6   3  105.61    1.39   0
  -2  -1  -7   90.75    2.51   0
  -1  -3   3  263.20    2.13   0
   0  -8   6    1.36    0.64   0
   0  -7   6   29.37    0.98   0
   0  -1   2 2369.41    9.00   0
   0   0 -13   31.97    0.97   0
   2  -5   7   34.08    1.15   0
   2  -3   6 1412.58    5.03   0
   2   2 -11    4.41    0.64   0
   3  -4   7  151.01    1.76   0
   3   2 -13   73.47    1.12   0
   4   3  -9  248.61    1.72   0
   4   3  -8   21.04    0.83   0
   4   3  -7   56.89    1.01   0
   4   3  -6    2.04    0.71   0
   5   3 -10  167.85    1.45   0
   5   3  -5  265.09    1.83   0
   6   3 -11    7.93    0.83   0
   6   3 -10    1.10    0.60   0
   6   3  -5  240.64    1.77   0
   7   3  -9   10.30    0.97   0
   7   3  -8    0.25    0.86   0
   7   3  -7    0.11    0.78   0
  -3  -8   0    4.37    1.05   0
  -3  -7   0  409.95    2.79   0
  -3  -6   0   16.22    0.95   0
  -3  -3  -6  262.24    3.84   0
  -2  -7   3  109.90    1.29   0
   0  -4   5  977.76    3.77   0
   1   1 -13  186.42    1.68   0
   4   3 -10  154.12    1.44   0
   4   3  -5   17.38    0.85   0
   5  -4   7   -0.10    1.00   0
   5   1   2  183.58    2.65   0
   5   3 -11    8.67    0.80   0
   7   3  -6    5.72    0.80   0
  -3  -5  -1   70.76    1.40   0
  -3  -4  -2   15.73    0.98   0
  -2  -9   2   46.02    1.31   0
  -1  -9   4   26.85    0.89   0
  -1  -5   4  207.99    1.84   0
  -1  -1 -13   25.21    1.08   0
  -1   0 -10    0.05    0.69   0
   0   1 -10  222.12    1.87   0
   1   2  -8  193.96    1.72   0
   1   2  -7 1005.15    3.56   0
   1   2  -6  765.83    3.23   0
   2  -6   7  203.40    1.83   0
   2  -1   4  277.00    3.35   0
   2   2 -12   11.68    0.73   0
   3   2 -14   55.02    1.10   0
   3   2  -1 2288.68    6.35   0
   4  -4   7   60.35    1.28   0
   4   3 -11    9.28    0.70   0
   5   3 -12   18.96    0.91   0
   5   3  -4  548.68    2.69   0
   6   3  -4  153.34    1.57   0
   7   0   3   33.96    1.69   0
   7   2  -1  174.46    1.84   0
   7   3  -5   11.96    0.84   0
   8   2  -2   12.98    0.94   0
  -3  -8  -1   52.30    1.58   0
  -2  -5   2  314.13    2.31   0
  -2  -1  -8  357.59    4.15   0
  -1  -8   4    5.90    0.80   0
  -1   0  -3   97.60    2.85   0
   0  -9   5   30.07    1.08   0
   1   2  -9  251.77    1.85   0
   1   2  -5  251.16    1.96   0
   2  -7   7    0.05    0.61   0
   2  -2   5 1021.68    4.90   0
   3   3  -9  124.05    1.29   0
   3   3  -8   87.43    1.04   0
   3   3  -7   75.75    1.02   0
   3   3  -6  745.16    2.92   0
   4   1   2  896.95    5.76   0
   4   3  -4   28.01    0.95   0
   5   2   0    1.34    0.84   0
  -3  -7  -1    1.16    0.95   0
  -3  -6  -1  178.20    1.93   0
  -2  -8   2    3.92    0.68   0
  -2  -7   2   82.78    1.34   0
  -2  -6   2   65.21    1.27   0
  -1  -7   4    7.54    0.81   0
  -1  -6   4    8.98    0.80   0
   0  -8   5   17.78    0.92   0
   0  -5   5  253.32    1.99   0
   0  -3   4  684.29    3.37   0
   0   0 -14   65.70    1.30   0
   0   1 -11    1.25    0.65   0
   0   1  -3  616.67    4.09   0
   1  -8   6   25.21    1.05   0
   1  -5   6  263.34    1.91   0
   1  -3   5    2.67    0.97   0
   1   1 -14    0.05    0.88   0
   1   2 -10  276.52    1.96   0
   2   2 -13    2.63    0.72   0
   2   2  -2  387.48    2.59   0
   3  -5   7  103.85    1.43   0
   3   3 -10    2.00    0.65   0
   3   3  -5   63.20    1.22   0
   4   3 -12   96.94    1.21   0
   5   3  -3    4.23    0.85   0
   6   1   2   10.44    1.07   0
   6   2   0   65.68    1.41   0
   7   3  -4    0.20    0.73   0
   8   3  -5    0.74    0.86   0
  -3  -8  -2   19.23    1.56   0
  -2  -9   1    0.11    1.10   0
  -2  -4   1  611.72    3.18   0
  -2  -3   0    4.33    0.79   0
  -1  -9   3   14.31    1.09   0
   0  -7   5   49.65    1.04   0
   0  -6   5  137.73    1.49   0
   0  -2   3  208.17    2.21   0
   1  -7   6   78.64    1.29   0
   1  -6   6   67.19    1.20   0
   3  -7   7   44.80    1.13   0
   3  -6   7   16.86    0.91   0
   3  -3   6  331.96    2.78   0
   3   3 -11    0.26    0.65   0
   4  -5   7    3.25    0.86   0
   4   2   0 1667.72    5.73   0
   5  -5   7  134.17    1.84   0
   6   3  -3  463.27    2.61   0
   7  -2   5    2.24    1.61   0
   8   1   1   -0.01    0.99   0
  -3  -5  -2    6.49    0.84   0
  -1  -4   3   99.18    1.30   0
  -1   0 -11    8.45    0.74   0
   1  -2   4   17.27    1.05   0
   1  -1   3 1415.22    7.12   0
   1   2 -11  180.89    1.61   0
   1   2  -4   11.70    0.66   0
   2  -4   6    3.14    0.90   0
   3   3  -4   47.46    1.11   0
   4   3 -13   38.79    0.88   0
   4   3  -3    1.70    0.78   0
   6  -3   6   49.94    1.66   0
   7   3  -3  170.69    1.68   0
   8   2  -1   30.61    1.07   0
   8   3  -4    0.36    1.03   0
  -3  -8  -3   -0.12    1.65   0
  -3  -7  -2   22.82    1.12   0
  -3  -6  -2   72.13    1.43   0
  -2  -8   1   49.00    1.19   0
  -2  -2 -12   26.38    1.48   0
  -2  -1  -9  300.67    3.61   0
  -1  -8   3    4.54    0.80   0
   0  -9   4   50.10    1.15   0
   0   1 -12  127.58    1.52   0
   2   2 -14    0.24    0.81   0
   2   3  -8 1322.21    3.84   0
   2   3  -7    6.98    0.84   0
   3   3 -12   27.95    0.87   0
   4  -6   7   22.90    0.94   0
   7   2   0   -0.50    0.86   0
  -3  -4  -4   41.11    1.37   0
  -2  -9   0    2.27    1.08   0
  -2  -7   1   67.66    1.31   0
  -2  -5   1    1.60    0.95   0
  -1  -7   3    2.29    0.80   0
  -1  -5   3   31.66    1.07   0
  -1  -3   2    5.23    0.85   0
  -1  -2   1   80.51    1.71   0
  -1  -1 -14    1.58    1.00   0
   1   2 -12  305.41    2.08   0
   2   3 -10   58.53    1.00   0
   2   3  -9   60.24    1.04   0
   2   3  -6  580.22    2.72   0
   4  -3   6  147.84    2.10   0
   5   3  -2   85.98    1.34   0
   5   4  -9   93.78    1.17   0
   5   4  -8  270.06    1.85   0
   6   3  -2  232.65    1.99   0
   6   4 -10   -0.27    0.91   0
   6   4  -9   13.25    0.87   0
   6   4  -8   18.08    0.86   0
  -3  -8  -4    6.80    2.06   0
  -3  -7  -3  152.38    2.15   0
  -3  -5  -3   89.83    1.56   0
  -2  -6   1  125.39    1.57   0
  -2  -2  -2  697.69    5.02   0
  -1  -9   2    1.17    0.87   0
  -1  -6   3   19.59    0.94   0
   0  -8   4   48.66    1.06   0
   0  -4   4  255.86    2.12   0
   1  -8   5  208.09    1.74   0
   1  -4   5 2026.33    5.45   0
   2  -7   6  215.88    1.79   0
   2  -6   6    8.54    0.86   0
   2  -5   6  445.87    2.53   0
   3   3 -13    4.70    0.62   0
   5  -3   6   54.35    1.48   0
   5   4 -11   45.49    0.99   0
   5   4 -10   21.52    0.86   0
   5   4  -7   55.93    1.02   0
   6   4  -7   76.96    1.03   0
   7   1   2  199.66    2.76   0
   7   4  -7   -0.11    0.79   0
   8   3  -3    0.19    0.81   0
  -3  -8  -5    0.00    2.33   0
  -2  -9  -1   -0.07    1.28   0
  -2  -8   0   26.54    1.12   0
  -1   0 -12   25.83    0.96   0
   0  -7   4   34.14    0.98   0
   0   1 -13  196.39    1.85   0
   1   2  -3   20.24    0.84   0
   2   2  -1   84.10    1.46   0
   2   3 -11  144.69    1.37   0
   2   3  -5  316.19    2.09   0
   3  -4   6   52.30    1.28   0
   3   2   0  137.25    1.86   0
   3   3  -3 2443.89    5.56   0
   4   3  -2  193.16    1.87   0
   4   4  -9   43.55    0.91   0
   4   4  -8  329.68    1.92   0
   5   4  -6  159.31    1.48   0
   6   4  -6   97.40    1.14   0
   7   3  -2   86.57    1.33   0
   7   4  -6   -0.20    0.75   0
  -3  -4  -5    2.22    0.74   0
  -2  -4   0   48.59    1.25   0
  -1  -8   2   24.04    0.99   0
   0  -9   3    0.43    0.89   0
   0  -5   4  704.03    3.11   0
   1  -7   5   11.31    0.68   0
   1  -6   5  742.26    3.13   0
   1  -5   5   55.36    1.24   0
   1   2 -13    6.68    0.77   0
   2   3 -12    0.49    0.66   0
   3  -2   5   17.16    1.29   0
   4   4 -11  188.87    1.57   0
   4   4 -10   28.89    0.71   0
   4   4  -7    3.86    0.55   0
   5   4  -5   21.93    0.81   0
   6   4  -5   -0.36    0.74   0
  -3  -7  -5    2.63    1.49   0
  -3  -6  -4   45.64    1.36   0
  -2  -7   0    4.88    0.90   0
  -2  -3  -1  114.59    1.78   0
  -2  -1 -10   18.18    1.19   0
  -1  -9   1   10.72    1.04   0
  -1  -4   2  357.28    2.47   0
   0   2  -8  113.02    1.43   0
   1  -9   4   33.66    0.87   0
   2  -3   5  738.78    3.74   0
   2   3  -4  354.99    2.21   0
   3  -7   6    6.90    0.78   0
   3  -5   6  238.92    2.04   0
   4   4 -12    0.56    0.74   0
   4   4  -6    3.05    0.50   0
   5   2   1    1.62    0.98   0
   6  -4   6    8.78    1.11   0
   7   4  -5    7.82    0.85   0
   8   2   0    9.99    1.09   0
  -3  -5  -5    0.57    0.97   0
  -3  -4  -8    0.06    0.91   0
  -2  -9  -2    0.93    1.20   0
  -2  -8  -1   11.61    1.08   0
  -2  -6   0   51.84    1.25   0
  -2  -5   0  126.25    1.71   0
  -1  -7   2   -1.44    0.85   0
   0  -3   3   11.12    0.94   0
   0   2  -9  165.89    1.64   0
   0   2  -7   75.63    1.31   0
   1   2 -14   -0.02    0.74   0
   2   3 -13    0.33    0.76   0
   3  -6   6   32.06    0.99   0
   3   1   2   91.16    2.33   0
   3   4  -9    1.61    0.63   0
   3   4  -8   41.49    0.98   0
   4  -7   6    6.54    0.94   0
   4  -4   6    5.08    0.95   0
   4   4  -5   21.01    0.83   0
   5   3  -1    3.00    0.76   0
   6   2   1   89.82    1.56   0
   6   3  -1    3.13    0.76   0
   6   4  -4  121.93    1.42   0
   8   3  -2   14.97    1.01   0
  -1  -6   2   58.73    1.26   0
  -1  -5   2    9.67    1.13   0
  -1   0 -13   24.86    1.09   0
  -1   1  -8   91.25    1.62   0
   0  -8   3   52.33    0.95   0
   0   1 -14    1.00    0.84   0
   0   1  -2 2312.33    8.74   0
   0   2 -10   22.53    0.83   0
   0   2  -6  200.47    1.90   0
   1  -8   4    6.50    0.84   0
   1  -3   4 2732.41    6.82   0
   1   3  -8 1203.16    3.86   0
   3   3  -2   21.79    0.99   0
   3   4 -11    5.90    0.68   0
   3   4 -10   65.69    0.96   0
   3   4  -7   62.65    1.04   0
   5  -4   6  106.90    1.69   0
   5   4  -4    0.38    0.73   0
   6  -5   6   16.79    1.24   0
   7   4  -4   86.91    1.30   0
  -2  -9  -3    0.07    1.36   0
  -2  -7  -1    1.21    0.95   0
  -1  -9   0   79.07    1.38   0
  -1  -8   1   14.08    0.98   0
  -1   1  -9  137.35    1.72   0
  -1   1  -7  515.39    3.35   0
   0  -9   2   58.64    1.13   0
   0   2 -11  219.54    1.91   0
   1   3 -10   89.12    1.21   0
   1   3  -9   14.56    0.65   0
   1   3  -7  299.57    2.05   0
   2  -7   5  137.97    1.55   0
   3   4 -12   21.64    0.83   0
   3   4  -6   33.68    0.95   0
   4  -6   6   10.64    0.84   0
   4  -5   6    2.60    0.84   0
   4   2   1  300.94    2.77   0
   4   3  -1 1131.22    4.24   0
   5  -6   6   20.95    0.99   0
   7   3  -1   20.72    0.93   0
  -2  -8  -2   -0.05    0.99   0
  -2  -4  -1   36.31    1.25   0
  -1   1 -10   11.68    0.85   0
  -1   1  -6  708.11    4.14   0
   0  -7   3    7.45    0.63   0
   0   2  -5 1236.57    4.56   0
   1  -9   3   28.23    0.96   0
   1  -7   4  376.90    2.22   0
   1   2  -2  231.49    2.27   0
   1   3 -11  253.95    1.81   0
   1   3  -6   68.14    1.23   0
   2  -6   5  170.97    1.66   0
   2  -4   5  359.28    2.46   0
   2   3  -3 2121.66    5.28   0
   3  -8   5    2.97    0.80   0
   4  -2   5  436.45    3.81   0
   4   4  -4    1.90    0.51   0
   5  -5   6   51.85    1.25   0
   6   4  -3  553.43    2.83   0
   7   2   1  177.26    2.15   0
  -2  -6  -1   26.96    1.15   0
  -2  -5  -1   23.80    1.16   0
  -2  -1 -11  198.34    2.90   0
  -1  -7   1   34.46    1.07   0
  -1  -3   1 1030.32    4.45   0
   0  -6   3  216.24    1.78   0
   0  -4   3 1037.64    3.85   0
   0   2 -12  198.19    1.87   0
   2  -5   5   90.53    1.32   0
   3   4 -13   43.73    1.09   0
   3   4  -5  209.83    1.69   0
   5   4  -3  455.06    2.47   0
   5   5 -10   42.57    0.95   0
   5   5  -9    9.64    0.79   0
   6  -2   5   41.69    1.66   0
   6   5  -8   59.59    1.11   0
   7   4  -3   13.10    0.80   0
   8   0   3   80.54    2.97   0
  -2  -8  -3   20.47    1.41   0
  -2  -7  -2  121.20    1.74   0
  -1  -9  -1   17.94    1.09   0
  -1  -8   0   97.64    1.42   0
  -1   0 -14  105.62    1.74   0
  -1   1 -11    0.93    0.73   0
   0  -9   1  102.94    1.42   0
   0  -5   3   18.27    0.90   0
   0  -2   2 1090.48    5.12   0
   1  -5   4  560.27    2.82   0
   1  -4   4  158.31    1.62   0
   1   3 -12   -0.46    0.69   0
   1   3  -5   49.22    1.07   0
   2  -8   4   35.29    0.99   0
   2   4 -10   77.77    1.09   0
   2   4  -9   76.39    1.15   0
   2   4  -8   52.27    1.06   0
   3  -7   5   10.07    0.92   0
   3  -3   5  126.02    1.89   0
   3  -1   4   15.35    1.42   0
   5   5  -8   66.64    1.11   0
   6   5  -7   29.44    0.99   0
   8   1   2  114.37    2.38   0
   8   3  -1   32.95    1.27   0
  -2  -2  -3  122.64    2.44   0
  -1  -6   1   19.27    1.06   0
  -1  -4   1   22.72    1.08   0
   1  -8   3   25.16    0.86   0
   2  -2   4 1261.56    5.47   0
   2   4 -11   -0.97    0.66   0
   2   4  -7 1122.87    3.51   0
   3   4  -4  318.15    2.08   0
   4   4  -3    6.97    0.82   0
   4   5 -10   95.70    1.23   0
   4   5  -9  148.96    1.39   0
   5  -2   5  389.25    3.77   0
   5   5  -7  126.25    1.25   0
   6   3   0  117.01    1.70   0
   6   5  -6    5.30    0.71   0
  -2  -8  -4   18.49    1.65   0
  -1  -5   1    1.82    1.15   0
  -1  -2   0 8589.81   15.35   0
  -1   1  -5  166.94    2.29   0
   0  -7   2   60.15    1.20   0
   0   2 -13   45.18    1.05   0
   0   2  -4  311.66    2.49   0
   1  -9   2    4.25    0.80   0
   1   3 -13  115.37    1.37   0
   2  -9   3    0.01    0.83   0
   2   4 -12   14.47    0.80   0
   2   4  -6  403.58    2.26   0
   3  -6   5    8.54    0.82   0
   3   3  -1  649.82    3.26   0
   4  -7   5   85.21    1.33   0
   4   5 -11    3.85    0.81   0
   4   5  -8    1.55    0.73   0
   5   3   0    5.88    0.81   0
   5   5  -6   -0.11    0.75   0
   6   4  -2   43.09    1.04   0
   7  -3   5   12.02    1.24   0
   7   5  -6   -0.08    0.95   0
  -2  -7  -3   25.54    1.31   0
  -2  -6  -2   28.13    0.98   0
  -1  -9  -2    1.25    1.06   0
  -1  -7   0  148.21    1.68   0
  -1   1 -12   48.95    1.11   0
   1  -2   3 1476.01    5.83   0
   1   3  -4    6.86    0.70   0
   2  -7   4    0.12    0.67   0
   2   2   0  487.18    3.40   0
   2   3  -2  262.44    2.09   0
   3  -8   4   25.77    1.01   0
   3  -5   5    0.37    0.83   0
   3  -4   5    1.41    0.86   0
   4   5  -7   72.80    0.98   0
   5   4  -2   80.04    1.27   0
   6   5  -5  107.71    1.32   0
   7   3   0  156.63    1.96   0
   7   4  -2  128.61    1.70   0
   8   2   1  105.84    1.98   0
  -2  -8  -5    9.38    1.96   0
  -2  -5  -2    4.49    0.99   0
  -2  -4  -2   85.49    1.69   0
  -1  -8  -1   45.44    1.08   0
   0  -9   0    0.04    0.80   0
   0  -8   1    1.94    0.82   0
   0  -1   1 5115.02   14.97   0
   1  -7   3   74.65    1.06   0
   1   3 -14    0.12    0.89   0
   2   4 -13    0.13    0.60   0
   2   4  -5  184.32    1.66   0
   3   2   1 1533.43    6.30   0
   4  -6   5   30.75    0.98   0
   4   3   0  218.40    2.13   0
   4   5  -6    1.74    0.71   0
   5   5  -5   48.54    0.98   0
   7   5  -5    6.89    0.91   0
  -2  -8  -6    0.22    2.32   0
  -2  -1 -12   10.64    1.16   0
  -1  -9  -3   17.76    1.19   0
   0  -6   2    1.39    0.61   0
   0  -3   2  645.88    3.50   0
   0   2 -14   82.07    1.33   0
   1  -8   2   86.96    1.20   0
   2  -8   3   28.01    0.96   0
   2  -6   4  140.94    1.56   0
   3   4  -3  254.61    1.98   0
   3   5 -11    6.98    0.84   0
   3   5 -10   17.32    0.83   0
   3   5  -9   68.92    1.10   0
   3   5  -8   -0.04    0.64   0
   4  -3   5  588.51    3.56   0
   4   4  -2  373.71    2.34   0
  -2  -7  -4    1.77    1.24   0
  -2  -6  -3   36.18    1.24   0
  -1  -6   0  477.04    2.80   0
  -1   1 -13   24.77    1.11   0
   0  -5   2  737.81    3.28   0
   0   3 -10  179.06    1.74   0
   0   3  -9   23.28    0.85   0
   0   3  -8   23.98    0.90   0
   1  -9   1   26.63    0.94   0
   1  -6   3  115.25    1.45   0
   2  -9   2    1.80    0.88   0
   2  -3   4   57.06    1.38   0
   3  -7   4   28.57    0.93   0
   3   5 -12    7.32    0.91   0
   3   5  -7  116.98    1.29   0
   4  -5   5  318.70    2.32   0
   4  -4   5   61.52    1.42   0
   4   5  -5    0.06    0.72   0
   5  -6   5   90.93    1.40   0
   5   1   3   94.27    2.81   0
   5   5  -4  110.97    1.34   0
   6  -3   5    1.91    0.94   0
   6   1   3    4.14    1.33   0
   6   5  -4  147.80    1.56   0
   7   5  -4    4.74    0.83   0
  -1  -9  -4   19.48    1.27   0
  -1  -8  -2   72.74    1.31   0
  -1  -7  -1  260.01    2.13   0
   0  -9  -1   89.23    1.39   0
   0  -7   1  128.33    1.50   0
   0  -4   2   33.45    0.92   0
   0   3 -11   -0.27    0.62   0
   0   3  -7  112.99    1.45   0
   1   2  -1   73.47    1.63   0
   1   4 -10   70.26    1.06   0
   1   4  -8  261.41    1.88   0
   2  -5   4   51.17    1.03   0
   2  -4   4  154.52    1.75   0
   2   4  -4  938.49    3.42   0
   3   5  -6  189.71    1.58   0
   5  -5   5   53.63    1.20   0
   5  -3   5   72.59    1.49   0
   5   2   2   26.56    1.35   0
   6  -5   5    5.17    0.89   0
   6  -4   5   13.61    1.06   0
   6   2   2  113.48    2.04   0
   6   4  -1   45.46    1.20   0
   8   3   0   23.08    1.32   0
  -2  -7  -5  113.57    2.44   0
  -2  -5  -3   -0.89    1.01   0
  -1  -5   0 1032.78    4.05   0
  -1  -3   0 2031.26    6.61   0
   0  -8   0  405.98    2.38   0
   0   2  -3  196.92    2.12   0
   1  -5   3  347.63    2.15   0
   1  -4   3   88.98    1.44   0
   1  -3   3  672.25    3.46   0
   1   3  -3  246.87    2.02   0
   1   4  -7  259.51    1.85   0
   5  -4   5  317.24    2.50   0
   5   4  -1   91.85    1.36   0
  -2  -6  -4  130.87    2.18   0
  -2  -4  -3   -1.04    1.02   0
  -1  -4   0 1213.47    4.63   0
  -1   1 -14    1.97    1.01   0
  -1   1  -4 3222.56    9.79   0
  -1   2  -9    6.72    0.88   0
   0   3 -12  113.50    1.37   0
   1  -9   0   78.27    1.28   0
   1  -7   2   47.00    1.04   0
   1   4 -12  149.54    1.53   0
   2  -7   3   28.45    0.78   0
   2   5 -10   23.57    0.77   0
   3  -8   3    1.89    0.63   0
   3  -6   4   60.92    1.14   0
   3   4  -2 1075.23    3.88   0
   4  -7   4   67.52    1.18   0
   4   5  -4    4.33    0.51   0
   5   6  -8  131.82    1.51   0
   6   5  -3  111.51    1.41   0
   7   4  -1  160.33    1.84   0
  -2   0 -10  222.52    2.90   0
  -2   0  -8  172.48    2.81   0
  -1  -8  -3   18.85    0.96   0
  -1  -6  -1  133.44    1.69   0
  -1   2 -10    1.65    0.66   0
  -1   2  -8  496.69    3.04   0
   0  -9  -2   52.15    1.19   0
   0  -6   1    1.24    0.95   0
   0   3 -13  151.96    1.72   0
   1  -8   1   38.69    1.00   0
   1   4 -13    0.29    0.82   0
   1   4  -6  516.95    2.57   0
   2  -9   1    0.82    0.89   0
   2  -8   2    2.00    0.77   0
   2   3  -1  231.07    2.06   0
   2   5 -12    7.88    0.78   0
   2   5 -11  107.35    1.27   0
   2   5  -8  789.13    3.00   0
   3   3   0 3109.44    7.35   0
   3   5  -5    7.73    0.58   0
   4   6 -10   11.65    0.95   0
   4   6  -9    5.26    0.83   0
   5  -7   4   47.93    1.16   0
   5   5  -3    3.21    0.77   0
   5   6  -7    8.96    0.85   0
   6   3   1  121.62    1.84   0
   6   6  -6   32.97    0.97   0
   7  -1   4    2.35    1.49   0
   7   2   2  173.59    2.59   0
   7   5  -3  145.72    1.72   0
  -2  -7  -7   -0.08    3.33   0
  -1  -7  -2   45.58    1.17   0
  -1   2 -11   44.39    1.04   0
  -1   2  -7    0.68    0.87   0
   0  -8  -1    3.33    0.86   0
   2  -1   3   10.45    1.23   0
   2   4  -3  229.99    1.91   0
   2   5  -7    6.93    0.85   0
   3  -5   4   13.04    0.87   0
   3  -2   4  407.35    3.37   0
   4  -8   3   63.93    1.25   0
   4   4  -1   11.67    0.92   0
   4   6  -8   91.48    1.21   0
   5   3   1    8.28    0.91   0
   5   6  -6   63.41    1.09   0
  -2  -6  -5  147.54    2.57   0
  -2  -5  -4   52.49    1.58   0
  -2  -2  -4 1113.89    7.91   0
  -2   0  -7  704.06    6.01   0
  -1  -8  -4    2.53    1.01   0
  -1   2 -12    1.57    0.76   0
   0  -7   0    0.08    0.66   0
   0   3  -5  195.91    1.84   0
   1  -6   2  283.76    2.02   0
   1   4  -5   17.55    1.03   0
   2  -6   3   35.22    0.96   0
   3  -7   3  181.77    1.67   0
   3   5  -4   60.19    1.15   0
   4  -6   4  176.80    1.72   0
   4  -1   4  485.81    4.71   0
   4   2   2  100.51    2.11   0
   4   5  -3    9.25    0.79   0
   4   6  -7    3.24    0.74   0
   7   3   1   86.54    1.67   0
  -2   0 -11   86.51    1.92   0
  -1  -5  -1  331.91    2.60   0
   0  -9  -3    0.20    0.70   0
   0  -5   1 1438.03    4.58   0
   0   1  -1 5357.12   15.18   0
   1  -9  -1   11.22    0.87   0
   1  -1   2  789.71    5.90   0
   2   5  -6  492.30    2.34   0
   3  -4   4   51.53    1.22   0
   3  -3   4   31.51    1.34   0
   3   6 -10   18.26    0.90   0
   3   6  -9    0.18    0.68   0
   4   6  -6    9.97    0.70   0
   5  -6   4    0.35    0.83   0
   5   6  -5   39.91    0.94   0
   6  -6   4    5.97    0.96   0
   6   5  -2  167.11    1.70   0
   6   6  -5    0.36    0.68   0
   7   1   3  150.06    3.77   0
  -1  -8  -5  134.22    1.78   0
  -1  -7  -3   68.36    1.37   0
  -1   2  -6  256.66    2.36   0
   0  -2   1 2054.10    7.40   0
   1  -8   0   91.79    1.37   0
   1  -7   1  246.45    1.87   0
   1   3  -2    3.39    0.87   0
   2  -9   0    6.88    0.90   0
   2  -7   2  118.04    1.35   0
   2  -5   3   -0.15    0.91   0
   3  -8   2   25.45    0.76   0
   3   6  -8   13.84    0.80   0
   4   3   1  772.27    4.17   0
   5   5  -2    0.72    0.75   0
   6   4   0  107.06    1.53   0
   7   5  -2   41.41    1.15   0
  -2  -5  -5  101.67    2.26   0
  -2  -3  -4   52.56    1.86   0
  -1  -6  -2  268.82    2.30   0
  -1   2 -13   16.01    0.90   0
   0  -9  -4   35.39    1.14   0
   0  -8  -2    2.04    0.74   0
   0  -6   0 1940.50    5.10   0
   0  -4   1   45.69    1.22   0
   1  -5   2   -0.28    1.05   0
   1   4  -4   40.04    1.09   0
   2  -8   1   15.20    0.68   0
   2   5  -5  336.65    2.09   0
   3   4  -1  452.07    2.72   0
   3   6  -7   41.57    1.01   0
   4  -7   3    7.01    0.85   0
   4  -5   4   75.83    1.33   0
   4   6  -5    2.32    0.64   0
   5   4   0   44.08    1.14   0
   6   6  -4   77.48    1.32   0
   7   4   0    0.23    0.95   0
  -2   0 -12    5.59    1.13   0
  -1  -4  -1  843.78    4.05   0
  -1  -2  -1   15.36    1.29   0
   0  -7  -1  121.57    1.47   0
   0  -3   1 1506.80    5.49   0
   0   3  -4  642.95    3.17   0
   0   4 -11   56.52    1.04   0
   0   4 -10    7.38    0.71   0
   0   4  -9   30.35    0.93   0
   0   4  -8   11.44    0.78   0
   1  -9  -2   -0.71    0.88   0
   1   5 -11   81.77    1.17   0
   1   5 -10   54.59    1.03   0
   1   5  -9   49.72    0.97   0
   1   5  -8  421.18    2.31   0
   2   4  -2  689.31    3.13   0
   3  -6   3    8.01    0.83   0
   3   5  -3  646.11    2.88   0
   4  -8   2    0.53    0.91   0
   4   5  -2   11.35    0.88   0
   5  -7   3    7.76    0.92   0
   5  -5   4  351.28    2.58   0
   5   6  -4    5.17    0.74   0
   6  -5   4    0.86    0.93   0
   8   3   1   -0.06    1.09   0
  -1  -8  -7   -0.12    1.29   0
  -1  -7  -4  306.67    2.47   0
  -1  -3  -1 2148.67    7.20   0
   0  -9  -5   20.09    1.18   0
   0   2  -2 1100.83    5.03   0
   0   4 -12   90.75    1.31   0
   1  -4   2  662.74    3.24   0
   1   5 -12   -0.34    0.86   0
   2  -9  -1    0.29    0.90   0
   2  -4   3    1.24    0.94   0
   3   6  -6    6.26    0.75   0
   4  -4   4  458.98    2.80   0
   4   1   3  208.02    4.53   0
   7  -4   4   40.75    1.30   0
  -1  -5  -2    1.29    1.10   0
  -1   2  -5 4379.51    9.53   0
   0  -8  -3   44.48    1.05   0
   0   4  -7   49.52    1.11   0
   1  -8  -1   10.13    0.84   0
   1  -6   1  135.20    1.55   0
   1   5  -7  265.97    1.76   0
   2  -6   2   25.48    1.01   0
   2  -3   3  106.30    1.62   0
   2  -2   3  140.65    2.01   0
   2   2   1  255.22    2.77   0
   2   5  -4   51.97    1.10   0
   2   6 -11    0.77    0.87   0
   2   6 -10   22.58    0.90   0
   2   6  -9    6.30    0.79   0
   3  -7   2   28.68    0.92   0
   4  -2   4  570.77    4.02   0
   4   4   0  480.91    2.91   0
   4   6  -4   15.24    0.79   0
   5  -1   4 1001.85    6.99   0
   6  -1   4   34.64    1.77   0
   7  -2   4   26.22    1.57   0
  -1  -6  -3  101.12    1.42   0
  -1   3  -9   91.14    1.31   0
   0  -5   0    2.31    1.10   0
   1  -7   0  132.47    1.38   0
   1  -3   2  859.25    4.04   0
   1  -2   2 1643.10    6.39   0
   1   5  -6   15.07    0.85   0
   2  -7   1    1.11    0.77   0
   2   3   0    3.84    0.86   0
   2   6  -8   15.24    0.67   0
   3   6  -5   95.48    1.24   0
   4  -6   3  311.33    2.13   0
   4  -3   4  459.16    3.12   0
   4   7  -8    2.14    0.95   0
   5  -4   4    2.86    0.85   0
   5   5  -1   20.99    1.08   0
   5   6  -3  198.40    1.79   0
   6  -4   4   33.58    1.31   0
   7  -3   4    3.40    1.03   0
   7   5  -1   32.03    1.20   0
  -2   0  -6   46.33    2.24   0
  -1  -7  -5    7.93    0.91   0
  -1   1  -3 1145.63    6.79   0
  -1   3 -11   -0.29    0.72   0
  -1   3  -8    6.06    0.77   0
   0  -7  -2   57.61    1.14   0
   0  -6  -1   -1.59    0.99   0
   0   4  -6    6.49    0.89   0
   1   4  -3   96.70    1.39   0
   2   6  -7  330.26    2.03   0
   3  -5   3  102.48    1.39   0
   3   5  -2   16.06    1.01   0
   4   7  -7    0.65    0.76   0
   5   7  -6    5.82    0.94   0
  -2   0 -13    4.34    1.19   0
  -2   1 -10   22.20    1.07   0
  -2   1  -9  260.48    2.84   0
  -1   3 -12   22.31    0.93   0
  -1   3  -7  549.40    3.14   0
   0  -8  -4   37.52    0.90   0
   1  -9  -4   25.59    1.08   0
   1  -8  -2   25.25    0.96   0
   1   2   0 9562.79   16.05   0
   2  -9  -2   45.26    0.95   0
   2   5  -3 1249.38    3.99   0
   3  -9  -1   18.96    1.05   0
   3   3   1  199.52    2.24   0
   3   7  -9   10.77    0.86   0
   4  -8   1    9.13    0.93   0
   4  -7   2  105.48    1.33   0
   4   5  -1  373.20    2.42   0
   5  -6   3   87.81    1.30   0
   5  -3   4  478.31    3.33   0
   6  -6   3    0.64    0.87   0
   6  -3   4   43.14    1.30   0
  -2  -3  -5  669.26    5.76   0
  -2   1 -11  187.07    2.48   0
  -1  -6  -4   25.80    1.10   0
  -1  -4  -2  717.96    4.00   0
  -1   3 -13    6.95    1.02   0
   0   3  -3   10.51    0.89   0
   0   4  -5  825.25    3.48   0
   1  -5   1  315.65    2.28   0
   1   3  -1 1065.42    4.39   0
   1   5  -5   12.95    0.89   0
   2  -5   2    3.86    0.90   0
   2   4  -1  594.86    3.04   0
   2   6  -6  109.73    1.19   0
   3   6  -4  155.98    1.59   0
   3   7  -8    7.05    0.85   0
   4   6  -3   37.71    0.87   0
   4   7  -6   -1.00    0.86   0
   5  -7   2   -0.35    0.83   0
   5  -2   4    2.01    0.96   0
   5   7  -5   23.24    1.00   0
   6  -2   4   18.35    1.13   0
  -2  -4  -6    0.84    1.20   0
  -2   1  -8  318.38    3.26   0
  -1  -5  -3  340.37    2.79   0
   0  -8  -5   13.00    0.97   0
   0  -7  -3    5.79    0.85   0
   0  -4   0 7845.99   11.35   0
   1  -7  -1   33.96    1.05   0
   1  -6   0  458.82    2.53   0
   2  -8  -1   52.36    1.08   0
   3  -8   0    5.37    0.82   0
   3  -7   1    1.51    0.81   0
   3  -6   2   75.91    1.09   0
   3  -4   3   76.45    1.35   0
   3   0   3  378.36    6.91   0
   3   2   2  342.22    3.55   0
   3   4   0  139.82    1.83   0
   3   7  -7   24.10    0.85   0
   4  -5   3  113.47    1.49   0
   5   3   2   52.50    1.50   0
   5   4   1   -0.04    0.89   0
   5   6  -2    1.40    0.75   0
   6   3   2   28.88    1.27   0
   6   4   1    0.83    0.80   0
   6   6  -2   33.23    1.09   0
  -2  -2  -5  876.01    7.93   0
  -1   2  -4   16.23    1.07   0
  -1   3  -6  536.39    3.11   0
   0   5 -11   -0.06    0.75   0
   0   5 -10   27.84    0.86   0
   0   5  -9    2.41    0.67   0
   1   6 -11   28.15    0.99   0
   1   6 -10   35.18    0.82   0
   1   6  -9   61.47    1.07   0
   2  -9  -3   67.65    1.05   0
   2  -7   0    8.84    0.88   0
   2  -6   1   30.40    1.01   0
   2   6  -5   31.59    1.01   0
   4   7  -5   37.30    1.02   0
   7   4   1  167.67    2.24   0
  -2   1 -12   10.40    1.06   0
  -1  -7  -9    1.44    1.68   0
  -1  -7  -8    0.37    1.12   0
   0  -8  -6    0.39    0.93   0
   0  -6  -2    1.15    0.94   0
   0  -5  -1 1480.88    4.75   0
   0   5 -12   26.53    1.00   0
   0   5  -8    1.64    0.73   0
   1  -8  -3    3.79    0.62   0
   1   4  -2  359.45    2.36   0
   1   5  -4  207.51    1.80   0
   1   6  -8   63.89    1.13   0
   3   6  -3   40.63    1.11   0
   3   7  -6  118.98    1.34   0
   4  -8   0   67.65    1.20   0
   5  -5   3   56.42    1.17   0
   5   5   0   20.19    1.10   0
   5   7  -4  135.61    1.56   0
   6  -5   3    2.67    0.83   0
   6   5   0   17.71    0.91   0
   7   3   2   77.90    1.83   0
  -2  -4  -7  335.62    4.88   0
  -2   1  -7   82.72    1.94   0
  -1  -3  -2  940.69    5.12   0
  -1   0  -2 1470.63   17.14   0
   0  -8  -7    9.93    1.13   0
   0  -7  -4   30.23    1.05   0
   0  -3   0    1.60    0.98   0
   0   4  -4  248.20    2.05   0
   0   5  -7    1.18    0.74   0
   1  -4   1  835.97    3.61   0
   1   6  -7  120.83    1.36   0
   2  -9  -4    1.49    1.00   0
   2  -4   2   95.90    1.53   0
   2   5  -2  304.43    2.16   0
   2   7  -9   -0.69    0.88   0
   3  -3   3  722.38    3.70   0
   3   5  -1  195.49    1.90   0
   4  -7   1  141.27    1.49   0
   4  -6   2    4.79    0.81   0
   4   4   1  242.96    2.39   0
   4   6  -2  164.41    1.70   0
   7   5   0  129.55    1.82   0
  -1   4 -11    9.78    0.82   0
  -1   4 -10    0.11    0.67   0
  -1   4  -9   23.71    0.88   0
   1  -8  -4    2.12    0.83   0
   1  -7  -2    1.67    0.81   0
   1   1   1 2584.92   12.81   0
   2  -8  -2    5.33    0.61   0
   2   6  -4  207.83    1.62   0
   2   7  -8  115.67    1.26   0
   3  -8  -1   75.80    1.21   0
   3  -5   2    9.32    0.94   0
   3   7  -5    9.26    0.74   0
   4  -4   3  615.98    3.17   0
   4   3   2  635.30    4.10   0
   4   7  -4   10.12    0.82   0
   5  -6   2   22.69    0.95   0
  -2  -3  -6 1265.54    8.80   0
  -2   1 -13    3.45    1.12   0
  -1  -5  -4  505.31    3.44   0
  -1  -4  -3   86.17    1.78   0
  -1   3  -5    2.39    0.97   0
  -1   4 -12    1.41    0.87   0
  -1   4  -8  163.16    1.65   0
   0  -8  -8    3.09    1.08   0
   0   5  -6    2.99    0.81   0
   1   6  -6  186.00    1.65   0
   2   7  -7    0.46    0.76   0
   3  -7   0  407.54    2.27   0
   4   5   0  229.14    2.01   0
   5  -7   1   -0.19    0.77   0
   5   6  -1   44.68    1.08   0
   5   7  -3   12.13    0.91   0
   6  -6   2   33.67    1.02   0
   7  -4   3    5.34    0.89   0
  -2   2 -10  286.05    2.77   0
  -2   2  -9  180.06    2.20   0
   0  -7  -5   41.21    1.12   0
   0  -6  -3  192.48    1.85   0
   0   2  -1 2109.10    7.45   0
   0   3  -2  640.88    3.51   0
   1  -6  -1   23.18    0.86   0
   1  -5   0  911.22    3.54   0
   1   5  -3   27.51    1.10   0
   2  -7  -1   55.92    0.95   0
   2  -5   1   27.67    1.11   0
   3  -6   1  177.85    1.65   0
   3  -2   3  257.58    2.65   0
   3   6  -2  509.98    2.67   0
   5  -4   3  427.44    2.82   0
   6   2   3   70.52    2.34   0
  -2   2 -11   52.61    1.29   0
  -1  -6  -7    0.80    0.97   0
  -1   4  -7   15.83    0.92   0
   0  -4  -1   49.60    1.30   0
   0  -2   0 9999.99   17.23   0
   1  -8  -5    2.31    0.80   0
   1  -3   1 1826.13    6.01   0
   1   6  -5    2.88    0.74   0
   2  -8  -3   41.84    1.00   0
   2  -6   0   49.33    1.10   0
   2  -3   2  325.11    2.52   0
   2   4   0   50.77    1.29   0
   2   6  -3   97.43    1.33   0
   2   7  -6   58.19    0.97   0
   3   7  -4   16.84    0.91   0
   4  -8  -1    6.07    0.70   0
   4   7  -3   -0.40    0.79   0
   5   2   3  460.80    4.94   0
   6  -4   3    1.39    0.81   0
  -2   1  -6 1401.24    7.78   0
  -2   2  -8  153.63    2.18   0
   0  -7  -6   20.20    1.02   0
   0  -5  -2  664.47    3.24   0
   0   4  -3 1042.05    3.93   0
   0   5  -5  231.38    1.92   0
   0   6 -11   27.71    1.02   0
   0   6 -10    9.53    0.85   0
   0   6  -9   14.50    0.76   0
   1  -7  -3    3.36    0.78   0
   1   7 -10    6.78    0.99   0
   1   7  -9    0.08    0.77   0
   2   3   1  128.34    1.91   0
   3  -8  -2  143.90    1.41   0
   3  -1   3  629.29    4.97   0
   3   8  -7    7.50    1.01   0
   4  -7   0    8.25    0.89   0
   4  -5   2  296.55    2.11   0
   4  -3   3   34.29    1.41   0
   4   6  -1    2.85    0.95   0
   8  -2   3   68.81    1.81   0
   8   0   3   85.65    3.25   0
  -2  -3  -7   21.66    2.36   0
  -1  -5  -5   42.20    1.38   0
  -1   2  -3 1320.92    5.82   0
  -1   4  -6   33.12    1.14   0
   0   6  -8   25.75    0.94   0
   1  -8  -6   41.64    1.16   0
   1   3   0 2226.52    6.67   0
   1   4  -1   26.67    1.12   0
   1   7  -8  185.15    1.63   0
   2   5  -1    1.48    0.99   0
   2   7  -5   37.42    0.99   0
   3  -4   2   17.30    1.07   0
   3   4   1  299.69    2.55   0
   3   5   0  607.99    3.16   0
   4  -6   1   84.85    1.32   0
   4   8  -5    0.92    0.99   0
   5   7  -2    5.97    0.94   0
   7  -5   2   68.31    1.39   0
   7  -3   3   73.99    1.62   0
  -2   2 -13    4.79    1.12   0
  -1  -6  -9   -0.11    1.14   0
  -1   3  -4 2387.10    6.67   0
   0  -6  -4  104.11    1.52   0
   0  -1   0   13.37    0.87   0
   1  -6  -2   60.10    1.23   0
   1   6  -4    4.83    0.76   0
   1   7  -7   45.52    0.96   0
   2  -8  -4   52.43    1.12   0
   2  -7  -2   75.82    1.21   0
   3  -7  -1   94.65    1.33   0
   3   7  -3  389.82    2.34   0
   4  -8  -2   28.26    1.04   0
   5  -7   0    1.91    0.92   0
   5  -5   2   52.98    1.23   0
   5   5   1   68.65    1.36   0
   6  -5   2    2.95    0.92   0
   6   5   1  131.28    1.77   0
  -2  -2  -6   33.74    2.46   0
  -2   2  -7 1065.04    5.25   0
  -1  -4  -4  146.56    2.20   0
  -1   5 -11   -0.09    0.83   0
  -1   5 -10    3.26    0.80   0
  -1   5  -9   20.63    0.87   0
   0   5  -4  671.92    3.07   0
   0   6  -7   29.23    0.93   0
   1  -8  -7   17.90    1.01   0
   1  -7  -4    6.14    0.86   0
   1  -4   0 1130.94    4.23   0
   1   5  -2    8.19    1.10   0
   2   6  -2   62.31    1.21   0
   2   7  -4   44.77    1.03   0
   3  -8  -3   12.52    0.83   0
   3  -6   0   17.51    0.94   0
   3   6  -1  337.43    2.26   0
   4   7  -2  104.77    1.41   0
   5  -6   1    9.08    0.81   0
   5  -3   3   48.42    1.28   0
   5   4   2   64.15    1.61   0
   5   6   0    1.53    0.75   0
   6  -6   1    2.73    0.90   0
   6  -3   3    0.85    0.91   0
   6   4   2   65.37    1.64   0
   6   6   0   38.40    1.19   0
   7   5   1   41.29    1.52   0
  -2   3 -10    3.35    0.85   0
  -1  -5  -6  202.48    2.36   0
  -1  -3  -3  742.02    4.76   0
  -1  -1  -2  926.09    9.29   0
  -1   4  -5 1725.42    5.22   0
  -1   5 -12   12.68    1.03   0
  -1   5  -8   10.90    0.81   0
   0  -7  -8    0.15    0.98   0
   1  -8  -8   11.96    1.15   0
   1  -5  -1    3.39    1.08   0
   1   7  -6    3.32    0.82   0
   2  -8  -5    3.65    0.92   0
   2  -6  -1  124.30    1.49   0
   2  -4   1   36.76    1.17   0
   2  -2   2  873.89    4.69   0
   2   8  -7  100.06    1.38   0
   3  -5   1   72.98    1.19   0
   3   3   2  199.05    2.47   0
   3   8  -5   33.27    1.09   0
   4   8  -4   15.06    0.78   0
   7   2   3    5.51    1.65   0
  -2  -3 -12   -0.05    1.71   0
  -2  -3  -8  254.48    5.95   0
  -2   3 -11  154.18    1.91   0
  -2   3  -9  203.13    2.11   0
   0  -7 -10    5.41    1.33   0
   0  -7  -9   13.12    1.17   0
   0  -6  -5  121.23    1.60   0
   0  -5  -3   17.39    1.14   0
   0   6  -6    0.97    0.59   0
   1  -2   1   11.94    1.28   0
   2  -5   0  131.56    1.64   0
   4  -7  -1  173.37    1.61   0
   4  -2   3 1763.58    6.61   0
   4   5   1  120.33    1.64   0
   4   6   0  293.51    2.30   0
   6   7  -1    0.11    1.08   0
   7  -2   3    5.31    1.04   0
   7   4   2  160.64    2.46   0
  -2   3 -12    6.67    0.92   0
  -2   3  -8  296.85    2.51   0
  -1  -5  -7   88.22    1.85   0
  -1   5  -7  102.18    1.42   0
   0  -3  -1 1439.96    5.64   0
   0   4  -2   35.25    1.15   0
   1  -7  -5    6.56    0.80   0
   1   6  -3   17.12    0.71   0
   1   7  -5    6.22    0.71   0
   2  -8  -6   27.57    1.08   0
   2  -7  -3   98.86    1.18   0
   2   8  -6   30.08    1.05   0
   3  -8  -4   33.80    1.00   0
   3  -7  -2   23.86    0.95   0
   3   7  -2   26.63    1.01   0
   4  -8  -3    8.68    0.75   0
   4  -4   2    0.71    0.87   0
   4   2   3 1897.40    9.60   0
   4   4   2    3.05    1.08   0
   5  -7  -1    9.01    0.90   0
   5   7  -1    4.50    0.93   0
   7  -4   2  165.28    1.97   0
  -2   0  -5  971.83   12.28   0
  -2   2  -6   30.09    1.36   0
  -1   1  -2  922.89    6.85   0
   0   3  -1 1566.13    5.59   0
   0   5  -3   17.14    1.16   0
   0   6  -5  131.07    1.48   0
   0   7  -9   19.67    0.99   0
   1  -6  -3   16.16    0.79   0
   2   5   0  138.05    1.76   0
   2   7  -3  110.14    1.41   0
   3  -3   2  186.89    2.09   0
   3   8  -4   31.31    0.86   0
   4  -6   0  266.93    1.88   0
   4  -5   1  118.64    1.48   0
   4   7  -1  179.90    1.83   0
   4   8  -3   11.84    1.00   0
   6  -7  -1    0.08    0.98   0
  -2  -3 -10    0.07    2.12   0
  -2   3 -13    2.23    1.07   0
  -2   3  -7   23.12    1.20   0
  -1  -5  -8    8.41    1.25   0
  -1  -4  -5 1743.31    6.79   0
  -1   3  -3  686.18    3.76   0
  -1   4  -4  150.64    1.83   0
  -1   5  -6  235.18    1.99   0
   0  -6  -6    1.15    0.84   0
   0   7  -8   -0.09    0.79   0
   1  -7  -6    3.43    0.92   0
   1   2   1   12.48    1.26   0
   1   5  -1    2.83    1.12   0
   1   8  -8   14.83    1.08   0
   2  -8  -7   95.69    1.48   0
   2   4   1   40.34    1.28   0
   2   6  -1  137.12    1.63   0
   2   8  -5    3.41    0.88   0
   3  -8  -5   42.74    1.13   0
   5  -6   0    0.85    0.85   0
   5  -4   2   62.42    1.27   0
   5  -2   3  431.63    3.46   0
   6  -4   2   62.77    1.33   0
   6  -2   3   62.32    1.96   0
   7  -5   1   39.33    1.20   0
  -2   1  -5  534.05    5.21   0
  -1  -5 -12    4.11    1.70   0
  -1   6 -11    7.01    1.02   0
  -1   6 -10    0.53    0.89   0
   0  -5  -4  637.56    3.34   0
   0   7  -7   19.96    0.85   0
   1  -5  -2   10.00    1.18   0
   1   4   0 1311.26    4.77   0
   1   7  -4    5.61    0.80   0
   1   8  -7   22.73    0.99   0
   2  -7  -4   42.40    1.03   0
   2  -6  -2   60.78    1.18   0
   2   2   2  891.33    5.74   0
   3  -6  -1  306.86    1.96   0
   3   5   1   86.09    1.51   0
   3   6   0   21.66    0.99   0
   4  -8  -4   16.04    0.81   0
   4  -7  -2   88.53    1.38   0
   5  -5   1   67.88    1.25   0
   6  -6   0   37.73    1.06   0
   6  -5   1  132.25    1.55   0
  -2   4 -11   43.43    1.20   0
  -2   4 -10  116.85    1.60   0
  -2   4  -9   35.77    1.14   0
  -1  -5 -11   -0.47    1.46   0
  -1   6  -9    0.29    0.60   0
  -1   6  -8   71.61    1.19   0
   0  -6  -7   28.63    1.09   0
   0   1   0   16.71    0.95   0
   0   6  -4  118.10    1.48   0
   1  -7  -7   44.60    1.14   0
   1  -6  -4    4.44    0.93   0
   1  -3   0 1912.94    6.14   0
   1   6  -2   62.49    1.27   0
   2  -1   2    3.49    1.22   0
   2   8  -4   57.67    1.12   0
   3  -8  -6    6.60    0.97   0
   3  -7  -3  359.67    2.21   0
   3  -5   0  603.30    2.91   0
   3  -4   1  295.65    2.31   0
   3   8  -3   12.01    0.78   0
   4  -1   3  203.83    3.03   0
   4   8  -2   21.22    1.01   0
   5   3   3   48.84    1.75   0
   5   6   1   11.36    0.85   0
   6   3   3    1.98    1.14   0
   6   6   1   -0.84    1.02   0
   7  -1   3  163.48    2.61   0
  -2   3  -6 1133.30    5.14   0
  -2   4 -12    1.14    0.97   0
  -2   4  -8  110.43    1.63   0
  -1   2  -2 1707.20    7.06   0
  -1   5  -5   51.76    1.06   0
   0   7  -6   27.46    0.98   0
   1  -4  -1   21.99    1.10   0
   1   8  -6   50.57    1.15   0
   2  -5  -1    1.99    1.00   0
   2  -3   1  116.39    1.68   0
   2   7  -2   78.51    1.16   0
   3   7  -1   96.17    1.27   0
   4  -8  -5    0.87    0.99   0
   5  -7  -2   13.57    0.73   0
   5   7   0    9.94    0.97   0
   6  -7  -2   40.25    1.23   0
   6   5   2    5.92    1.09   0
  -1  -4  -6   18.92    1.30   0
  -1   6  -7    1.03    0.73   0
   0  -6  -8   23.83    1.14   0
   0   5  -2  792.10    3.51   0
   1  -7  -8  153.27    1.73   0
   1  -1   1 2554.45   11.12   0
   1   7  -3    4.13    0.75   0
   2  -7  -5   38.60    0.88   0
   2  -4   0   50.72    1.28   0
   3  -8  -7    6.44    1.09   0
   3   4   2   16.55    1.16   0
   4  -6  -1    5.61    0.86   0
   4  -3   2  640.66    3.44   0
   4   6   1   96.35    1.54   0
   5   5   2   56.02    1.41   0
   0   4  -1   51.37    1.16   0
   4  -7  -3    0.72    0.64   0
  -4   3 -10    0.02    1.92   0
  -4   3  -7    0.02    3.52   0
  -3   4  -1  291.62    2.60   0
  -1  -1  -4 3447.77   13.07   0
  -1   6   3   16.02    1.04   0
   0   3   3   10.75    0.99   0
   1  -3 -12   -0.18    0.76   0
   2  -3  -5  328.63    2.29   0
   2   6   5  167.00    1.97   0
   3  -3  -4   47.36    1.23   0
   4  -4 -11  186.31    1.56   0
   4  -4 -10   33.26    0.96   0
   5  -4 -11   47.26    1.15   0
   5  -4 -10   20.71    0.99   0
   5  -4  -9   98.23    1.20   0
   5   6   5   94.91    2.00   0
   6  -1   0  151.75    1.85   0
   8   1   1   -0.28    1.00   0
  -4   6  -3  271.55    2.45   0
  -4   7  -3    0.57    0.94   0
  -3   6   0   16.73    1.00   0
  -3   7   0  415.25    2.57   0
  -2   9   1    0.39    1.04   0
  -1  -1 -14    1.22    1.30   0
  -1   5   3   32.61    1.17   0
  -1   7   3   -0.65    0.69   0
   0  -2  -5 1161.02    5.05   0
   0   6   4  116.02    1.57   0
   0   7   4   41.81    1.10   0
   1  -3 -11  254.35    2.12   0
   1  -3 -10  103.99    1.48   0
   1  -3  -9   14.67    0.94   0
   1  -3  -8 1193.27    4.29   0
   1  -2  -3   25.13    1.14   0
   1   9   4   32.69    1.24   0
   2  -2  -2  428.18    2.78   0
   2   7   5  150.68    1.74   0
   3   8   5    0.87    1.02   0
   5  -3  -4  572.08    2.69   0
   6  -2  -2  329.46    2.25   0
   8  -2  -4    0.66    0.85   0
  -4   4  -4  400.28    3.75   0
  -4   5  -3  103.08    1.72   0
  -3   5   0  610.16    3.24   0
  -3   8   0    5.31    0.87   0
  -2   6   2   70.49    1.31   0
  -2   7   2   85.57    1.38   0
  -1   8   3    5.76    0.89   0
   0   5   4  697.99    3.32   0
   0   8   4   43.58    1.14   0
   2  -1   0  292.00    2.94   0
   2   5   5   93.77    1.57   0
   5   5   5   55.98    1.68   0
   6  -3  -5  264.93    1.88   0
   7  -3  -6    6.35    0.63   0
   7  -2  -3   24.51    0.93   0
   8  -1  -2   18.09    0.96   0
  -4   8  -3   58.26    1.43   0
  -2   0 -13    2.99    1.48   0
  -2   5   2  313.10    2.29   0
   0  -1  -2 1654.57    8.34   0
   2  -3 -13    1.12    0.93   0
   2  -3  -6  570.21    2.90   0
   3  -3  -5   62.81    1.26   0
   3   4   5    2.30    1.00   0
   7  -3  -7    1.99    0.81   0
   7  -1  -1   67.26    1.24   0
  -4   6  -2    5.55    0.97   0
  -4   7  -2  101.89    1.56   0
  -2   3   1  220.17    2.05   0
  -1   4   3  105.73    1.48   0
  -1   9   3   20.46    0.87   0
   0   9   4   52.05    1.22   0
   1   3   4 2717.96    7.61   0
   1   6   5  753.31    3.47   0
   1   7   5   11.57    0.91   0
   2  -3 -12    1.77    0.82   0
   4  -3  -5   18.69    0.93   0
   4   4   5   64.40    1.75   0
   5  -3  -5  258.09    1.75   0
   5  -2  -2   49.63    1.16   0
   5  -1   0    7.80    1.02   0
   6  -3  -6   68.93    1.14   0
   8  -2  -5   42.46    1.10   0
  -4   4  -3  560.13    4.05   0
  -4   8  -2    0.46    1.08   0
  -3   1  -5   68.00    2.45   0
  -3   3  -1  186.86    2.21   0
  -3   4   0  142.60    1.87   0
  -3   6   1  324.16    2.28   0
  -3   7   1   97.27    1.48   0
  -2   2   0  458.60    3.30   0
  -2   9   2   49.80    1.25   0
  -1  -1 -13   24.31    1.28   0
   0  -2  -6  189.13    2.09   0
   0   4   4  254.26    2.20   0
   1   5   5   47.74    1.23   0
   1   8   5  201.51    1.92   0
   2  -3  -7   10.62    0.71   0
   3  -2  -2 3166.62    6.90   0
   4  -2  -2  973.55    3.75   0
   6   0   1    9.33    0.90   0
   7  -3  -9   12.39    1.00   0
   7  -3  -8    1.26    0.65   0
  -4   5  -2  276.17    2.55   0
  -3   1 -11  218.33    7.00   0
  -2   4   2  711.37    3.30   0
  -1   7   4   10.26    0.86   0
   2  -3 -11  127.21    1.34   0
   2  -3 -10   66.02    1.17   0
   2  -3  -8 1312.77    4.11   0
   2   4   5  362.56    2.82   0
   3  -3 -13    3.48    0.96   0
   3  -3  -6  733.11    2.95   0
   4  -3  -6    0.78    0.76   0
   5  -3  -6   19.89    0.89   0
   6  -3  -7   33.22    0.92   0
   6  -2  -3  919.52    3.44   0
   7  -2  -4   82.48    1.22   0
   8  -2  -6   29.67    1.00   0
   8   0  -1    5.94    0.91   0
  -4   6  -1   81.29    1.49   0
  -4   7  -1  129.78    1.65   0
  -4   8  -1    7.98    1.02   0
  -3   5   1  201.73    1.93   0
  -3   9   1   18.11    1.09   0
  -2   6   3  102.63    1.38   0
  -2   7   3  115.20    1.40   0
  -2   8   3   45.81    1.05   0
  -1   6   4    5.82    0.61   0
  -1   8   4    5.23    0.83   0
   0  -2  -7   78.35    1.49   0
   0   7   5   52.28    1.05   0
   1  -2 -14    0.08    0.98   0
   1  -2  -4   13.36    0.89   0
   1  -1  -1  678.46    4.64   0
   3  -3 -12   33.54    1.01   0
   3  -3  -7   87.77    1.26   0
   3  -1   0 4076.41    9.14   0
   4  -3 -13   36.60    1.12   0
   4  -1   0  731.81    3.69   0
   6  -3  -8  177.64    1.56   0
   7   0   0    2.54    0.89   0
   8  -1  -3    4.77    0.73   0
  -4   3  -4  349.93    3.62   0
  -1  -1 -12   50.71    1.48   0
  -1   5   4  203.95    1.87   0
   0  -2 -10   22.41    0.92   0
   0  -2  -9  179.19    1.97   0
   0  -2  -8  129.06    1.71   0
   0   6   5  143.18    1.55   0
   0   8   5   20.61    0.99   0
   2  -2  -3  260.77    2.15   0
   3  -3 -11    0.92    0.75   0
   3  -3  -8   94.79    1.24   0
   3   7   6    6.00    1.00   0
   4  -3 -12   99.45    1.33   0
   4  -3  -7   61.62    1.06   0
   5  -3 -12   20.90    1.00   0
   5  -3  -7  515.34    2.31   0
   6  -3 -11    8.44    0.89   0
   6  -3 -10    0.01    0.77   0
   6  -3  -9    5.58    0.59   0
   6  -1  -1   47.25    1.12   0
   6   1   2   10.51    1.18   0
   6   2   3   65.07    2.19   0
   7  -1  -2  172.73    1.68   0
   8  -2  -7   50.17    1.15   0
  -4   4  -2    1.88    0.94   0
  -4   5  -1  115.50    1.65   0
  -3   7   2   26.24    1.01   0
  -2   0 -12    7.38    1.32   0
  -2   5   3 1348.63    4.24   0
  -2   9   3   73.69    1.39   0
   1  -2 -13    2.93    0.91   0
   2   7   6  219.06    2.02   0
   3  -3 -10    2.19    0.51   0
   3  -3  -9  119.94    1.27   0
   3   6   6   33.11    1.23   0
   4  -3 -11    7.13    0.83   0
   4  -3  -8   19.15    0.90   0
   4   7   6    4.58    1.12   0
   5  -3 -11   11.63    0.86   0
   5  -3 -10  188.09    1.59   0
   5  -3  -9   79.16    1.22   0
   5  -3  -8  188.35    1.46   0
   5  -2  -3 1572.00    4.40   0
   7  -2  -5    0.79    0.51   0
  -5   5  -8    0.13    1.70   0
  -5   7  -4   26.13    1.35   0
  -4   7   0    5.90    0.97   0
  -4   8   0   65.43    1.28   0
  -3   4   1  411.22    2.70   0
  -3   6   2  530.57    2.82   0
  -3   8   2  164.92    1.59   0
  -1  -1  -5  163.38    2.61   0
  -1   3   3  241.46    2.07   0
   0   5   5  238.41    2.01   0
   1   4   5 1840.32    5.62   0
   2   6   6   10.34    0.86   0
   2   8   6    1.38    1.01   0
   3  -2  -3  174.09    1.71   0
   3   2   4  389.38    5.58   0
   4  -3 -10  151.27    1.36   0
   4  -3  -9  258.19    1.71   0
   4  -2  -3  249.78    1.95   0
   5   4   5  299.16    4.41   0
   6  -2  -4  414.34    2.19   0
   8  -1  -4    0.27    0.77   0
   8   1   0   19.33    1.05   0
  -5   6  -4    0.05    1.33   0
  -4   6   0  288.68    2.35   0
  -3   3   0 3032.59    7.30   0
  -1  -1 -11   -0.04    0.87   0
  -1   2   2  216.71    2.18   0
   1  -2 -12  326.80    2.45   0
   1  -2  -5  247.73    2.09   0
   1   7   6   85.79    1.32   0
   1   8   6   25.48    0.99   0
   2  -2 -14   -0.09    0.94   0
   4   6   6    8.80    0.88   0
   5   0   1   26.48    1.20   0
   7  -2  -6    0.26    0.50   0
   7   1   1  108.09    1.74   0
   7   3   3   80.89    2.41   0
  -5   7  -3    2.83    1.30   0
  -4   3  -3   27.86    1.19   0
  -3   5   2   17.88    1.05   0
  -2   1  -1 1026.02    5.87   0
  -2   3   2  249.13    2.05   0
  -2   7   4   50.09    1.05   0
  -2   8   4   58.50    1.17   0
  -1   4   4   38.96    1.14   0
  -1   7   5    6.06    0.77   0
  -1   8   5    5.33    0.84   0
   0   2   3  191.89    2.15   0
   0   3   4  618.40    3.31   0
   1   6   6   61.69    1.21   0
   2  -2  -4  612.00    2.99   0
   3   5   6  238.20    2.45   0
   5  -2  -4   -0.36    0.86   0
   5  -1  -1   94.51    1.38   0
   6  -2  -5   43.16    1.03   0
   6   5   5    4.64    1.67   0
   7  -2  -7    5.91    0.75   0
   7  -1  -3  374.46    2.27   0
   8   0  -2    4.93    0.79   0
   8   2   1  108.55    1.88   0
  -5   6  -3   72.24    1.75   0
  -4   4  -1  223.36    2.20   0
  -4   5   0  213.53    2.01   0
  -4   7   1  183.02    1.79   0
  -4   8   1    3.89    0.94   0
  -2   4   3  234.63    1.98   0
  -2   6   4  224.52    1.84   0
  -2   9   4    3.76    1.05   0
  -1   6   5    4.23    0.77   0
   1  -2 -11  189.79    1.84   0
   2   5   6  445.71    2.87   0
   6  -1  -2  399.35    2.40   0
   7  -2  -8    2.15    0.79   0
   7   2   2  169.61    2.45   0
   8  -1  -5    1.27    0.76   0
  -5   5  -4  274.96    3.44   0
  -5   7  -2   -0.15    1.19   0
  -4   6   1    2.58    0.85   0
  -3   1  -4   10.54    1.26   0
  -3   7   3  373.63    2.21   0
  -3   8   3   13.90    0.74   0
  -2   2   1   81.82    1.41   0
  -1  -1 -10    9.53    0.92   0
  -1  -1  -6  704.67    4.77   0
   0   7   6   27.99    0.95   0
   0   8   6    2.53    0.85   0
   1  -2  -6  720.67    3.30   0
   2  -2 -13    1.79    0.74   0
   2   2   4 1261.91    7.05   0
   3  -2 -14   49.46    1.17   0
   3  -2  -4 1743.23    4.65   0
   4  -2  -4   25.17    1.01   0
   6  -2  -6  200.53    1.62   0
   6   0   0  247.52    2.32   0
   7  -2  -9    9.11    0.69   0
   7   0  -1  430.62    2.66   0
  -5   4  -7    0.00    2.25   0
  -3   2  -1 1401.52    5.52   0
  -3   6   3   38.84    0.91   0
  -2   0 -11   88.03    2.04   0
  -2   5   4   52.03    1.13   0
   0   4   5  869.87    3.67   0
   0   6   6   -0.02    0.71   0
   1  -2 -10  295.36    2.11   0
   1  -2  -9  257.17    2.04   0
   1  -2  -7 1074.95    4.00   0
   1   5   6  246.91    2.08   0
   2  -2 -12   10.99    0.80   0
   2  -1  -1   31.98    1.18   0
   2   3   5  704.43    4.34   0
   3   3   5  125.15    2.39   0
   4  -1  -1 1589.96    5.01   0
   4   5   6    2.13    0.94   0
   5  -2  -5  180.46    1.56   0
   6  -2  -7  255.33    1.76   0
   8  -1  -6  157.50    1.54   0
  -5   5  -3   42.06    1.74   0
  -5   7  -1    1.05    1.07   0
  -3   4   2 1140.54    4.04   0
  -1  -1  -9  142.63    1.99   0
  -1  -1  -7  521.94    3.93   0
  -1   0 -14  112.41    1.99   0
  -1   5   5   11.28    0.92   0
   1  -2  -8  193.28    1.86   0
   2  -2  -5   68.55    1.06   0
   3  -2 -13   74.50    1.08   0
   4  -2 -13   26.08    0.98   0
   5   6   6   19.10    1.26   0
   6  -2 -11    0.50    0.86   0
   6  -2 -10    3.24    0.79   0
   6  -2  -8   14.05    0.79   0
   7  -1  -4    2.73    0.63   0
   8  -1  -7   17.53    0.93   0
   8   0  -3    0.62    0.73   0
  -4   4   0  456.97    2.87   0
  -4   5   1  392.48    2.54   0
  -4   7   2  106.60    1.43   0
  -4   8   2   22.25    0.91   0
  -3   3   1  622.91    3.15   0
  -3   5   3  652.20    2.95   0
  -2   8   5    4.13    0.88   0
  -1  -1  -8   95.67    1.73   0
   2  -2 -11    4.13    0.72   0
   3  -2 -12    8.67    0.77   0
   3  -2  -5  341.71    2.15   0
   3  -1  -1  702.71    3.52   0
   4  -2  -5   -1.16    0.77   0
   4   0   1  448.57    3.30   0
   5  -2 -12    1.22    0.84   0
   5  -2  -6  535.03    2.46   0
   6  -2  -9   36.09    0.78   0
   8   1  -1   41.69    1.09   0
  -5   4  -4    0.68    1.65   0
  -5   6  -1    7.70    1.14   0
  -4   2  -9    0.12    1.92   0
  -4   6   2  162.55    1.72   0
  -3   7   4   16.27    0.91   0
  -3   8   4   30.37    0.85   0
  -1   1   1  669.03    4.54   0
  -1   7   6    1.93    0.83   0
  -1   8   6   51.82    0.97   0
   0   1   2 1653.28    7.80   0
   1  -1 -14    0.39    0.87   0
   1   8   7   -0.03    0.79   0
   2  -2 -10   40.24    0.95   0
   2  -2  -6  605.01    2.85   0
   2   7   7    0.42    0.79   0
   3   7   7   40.92    1.29   0
   4  -2 -12    8.16    0.75   0
   5  -2 -11  167.29    1.52   0
   5  -1  -2   51.80    1.13   0
   6  -1  -3  586.73    2.65   0
   7  -1  -5   44.88    0.99   0
  -5   7   0    6.30    1.12   0
  -2   0 -10  246.24    3.21   0
  -2   6   5   33.61    0.88   0
   0   5   6    1.71    0.77   0
   1  -1  -2  354.21    3.04   0
   1   3   5    3.27    0.90   0
   1   7   7  120.47    1.51   0
   2  -2  -9   97.05    1.28   0
   2  -2  -8   32.85    1.09   0
   2  -2  -7 1320.43    4.15   0
   3  -2 -11   30.73    0.83   0
   3  -2  -6   28.42    1.02   0
   4  -2 -11  279.15    1.87   0
   4  -2  -6   21.77    0.74   0
   5  -2 -10   14.04    0.62   0
   5  -2  -9  242.40    1.69   0
   5  -2  -8  793.62    2.85   0
   5   1   2  176.70    2.36   0
   7   0  -2  324.11    2.19   0
   8   0  -4   14.93    0.83   0
  -5   6   0    0.13    0.91   0
  -4   8   3   10.18    1.07   0
  -3   6   4  154.62    1.45   0
  -2   3   3 2068.97    5.31   0
  -2   4   4  953.64    3.57   0
  -1   6   6  196.60    1.59   0
   0   8   7   17.56    0.89   0
   1   2   4   17.77    1.01   0
   2   4   6    0.86    0.79   0
   2   6   7  195.53    1.96   0
   3  -2 -10   70.21    1.07   0
   3  -2  -9   46.53    0.96   0
   3  -2  -7  369.05    2.14   0
   4  -2 -10   49.20    0.93   0
   4  -2  -9   22.30    0.89   0
   4  -2  -8  403.78    2.09   0
   4  -2  -7   14.43    0.61   0
   7  -1  -6    1.93    0.61   0
   7   1   0  328.06    2.47   0
  -5   5  -1   64.11    1.46   0
  -4   4   1    9.71    0.86   0
  -4   5   2   10.59    0.84   0
  -4   7   3    1.00    0.63   0
  -3   1 -10   64.18    2.75   0
  -1   0 -13   25.41    1.16   0
  -1   4   5   16.87    0.76   0
   0   7   7   24.11    0.92   0
   1  -1 -13  192.72    2.11   0
   1   4   6   23.69    1.02   0
   1   6   7    0.05    0.69   0
   2  -1 -14   81.71    1.30   0
   2   0   1 1827.56    9.21   0
   3  -2  -8   55.01    0.93   0
   3   0   1  491.19    3.88   0
   3   4   6   51.25    1.42   0
   3   6   7   15.65    0.92   0
   4  -1  -2   39.23    1.06   0
   5   0   0  145.16    1.80   0
   6  -1  -4  371.88    2.05   0
   6   0  -1  113.31    1.46   0
   6   1   1  232.80    2.37   0
   7  -1  -7    1.43    0.69   0
   8   0  -5   68.13    1.13   0
   8   2   0   10.63    0.96   0
  -5   7   1    2.44    1.05   0
  -4   6   3   38.48    1.03   0
  -3   1  -3  504.09    4.45   0
  -3   2   0  124.99    1.72   0
  -3   4   3  259.01    1.98   0
  -3   5   4   58.83    1.10   0
  -3   8   5   40.01    1.10   0
  -2   5   5  349.66    2.05   0
  -2   7   6   67.47    1.09   0
  -2   8   6   34.23    1.08   0
  -1   2   3   26.96    1.03   0
   5  -1  -3    0.87    0.79   0
   7  -1 -10    1.22    0.66   0
   7  -1  -9   14.20    0.78   0
   7  -1  -8   -0.00    0.54   0
   8   1  -2   20.64    0.90   0
  -5   6   1   43.58    1.15   0
  -3   3   2   18.90    0.86   0
  -3   7   5    9.10    0.61   0
  -2   2   2  376.12    2.55   0
  -1   5   6   15.59    0.88   0
  -1   8   7   28.02    1.05   0
   0   6   7   39.21    0.96   0
   3  -1 -14  130.54    1.81   0
   6  -1  -5  377.56    2.15   0
   7   0  -3   33.52    0.95   0
   8   0  -6    4.79    0.87   0
  -6   6  -4    0.50    2.45   0
  -5   5   0   17.37    0.82   0
  -4   2  -3 1317.62    5.98   0
  -4   3   0  193.76    1.98   0
  -4   8   4   12.84    1.02   0
  -3   6   5   95.23    1.21   0
  -2   0  -9   87.38    2.02   0
  -2   1   0  262.19    2.73   0
  -2   6   6  119.87    1.38   0
  -1   7   7   50.72    1.06   0
   0  -1 -10  234.22    2.07   0
   0   3   5  201.22    1.92   0
   0   4   6    5.68    0.78   0
   1  -1 -12    9.44    0.75   0
   2  -1 -13    4.65    0.79   0
   2  -1  -2  464.28    2.99   0
   4   3   5  565.63    7.32   0
   5  -1 -13   12.38    0.97   0
   6  -1 -11   29.34    0.91   0
   6  -1  -6   43.55    0.95   0
   8   0  -7  117.88    1.35   0
   8   3   1   -0.06    1.01   0
  -6   6  -3    0.08    2.25   0
  -5   7   2    9.67    1.08   0
  -4   5   3    9.21    0.71   0
  -4   7   4    6.66    0.66   0
  -2   1 -13    5.61    1.11   0
   1   5   7  113.62    1.44   0
   2   5   7   34.26    1.01   0
   3  -1 -13    5.28    0.78   0
   4  -1 -13   77.46    1.16   0
   4   6   7   24.01    1.22   0
   5  -1  -4  558.48    2.58   0
   5   5   6   51.12    1.92   0
   6  -1 -10    6.00    0.72   0
   6  -1  -7  107.32    1.21   0
   7   2   1  175.58    2.13   0
   8   1  -3    4.30    0.74   0
  -6   6  -2   18.55    1.87   0
  -5   4  -1    0.45    0.75   0
  -4   4   2  346.60    2.25   0
  -4   6   4   14.47    0.78   0
  -3   8   6    6.15    0.87   0
  -1   0 -12   26.33    1.03   0
  -1   6   7  130.18    1.43   0
   0  -1  -9   -1.04    0.78   0
   0   2   4  323.18    2.58   0
   1  -1  -3  415.04    3.04   0
   4  -1  -3   18.91    0.84   0
   5  -1 -12   32.70    0.79   0
   6  -1  -9    0.57    0.46   0
   6  -1  -8  224.52    1.52   0
   6   0  -2  108.00    1.40   0
   7   0  -4  258.35    1.84   0
   7   1  -1   70.37    1.20   0
  -6   5  -5    0.03    3.09   0
  -5   5   1   26.40    1.02   0
  -5   6   2   -0.09    0.85   0
  -3   4   4  308.86    2.03   0
  -3   7   6  127.63    1.37   0
  -2   0  -8  191.21    2.96   0
  -2   3   4  345.01    2.20   0
  -2   4   5  185.63    1.56   0
  -2   8   7  104.52    1.35   0
   0  -1  -8   40.88    1.28   0
   0  -1  -5  617.12    3.69   0
   0   5   7   -0.77    0.65   0
   0   8   8    9.72    0.99   0
   1  -1 -11  332.78    2.21   0
   1   7   8    4.23    0.79   0
   2  -1 -12    3.11    0.64   0
   2   7   8   53.50    1.20   0
   3   5   7   99.98    1.61   0
   4  -1 -12  179.38    1.50   0
   5  -1 -11   16.94    0.75   0
   5  -1  -5  355.97    2.02   0
   8   2  -1   30.95    0.99   0
  -6   5  -4    0.22    3.55   0
  -6   6  -1    0.21    1.66   0
  -5   7   3    8.08    1.03   0
  -4   8   5    0.50    0.77   0
  -3   2   1 2544.90    6.32   0
  -3   5   5   13.23    0.83   0
  -2   5   6  538.39    2.56   0
  -2   7   7   -0.60    0.78   0
   0  -1  -7   79.16    1.40   0
   0  -1  -6   28.87    0.99   0
   0   7   8    0.11    0.76   0
   3  -1 -12   50.96    0.86   0
   3  -1  -3 3706.43    7.04   0
   4   0   0 1035.48    4.36   0
   4   4   6    5.13    1.14   0
   5  -1 -10  214.42    1.64   0
   5  -1  -6    4.25    0.72   0
   5   0  -1  166.03    1.70   0
   7   0  -5   18.39    0.77   0
   8   1  -4    1.52    0.72   0
  -5   4   0   40.87    1.05   0
  -4   3   1 1059.88    3.98   0
  -4   7   5   38.98    0.90   0
  -3   1  -2   78.89    1.71   0
  -3   3   3 2577.37    5.66   0
  -1   3   5   52.76    1.06   0
  -1   4   6  520.49    2.52   0
  -1   8   8   16.42    1.02   0
   1   0 -14    3.36    0.84   0
   2  -1 -11  355.78    2.15   0
   2  -1  -3 7139.12   10.49   0
   3  -1 -11    5.25    0.67   0
   4  -1 -11    8.94    0.71   0
   4  -1  -4    0.50    0.58   0
   5  -1  -9   83.49    1.00   0
   5  -1  -8  274.56    1.82   0
   5  -1  -7  603.76    2.52   0
   5   2   3  412.88    4.23   0
   6   2   2  113.98    1.83   0
   7   0 -10   92.94    1.20   0
   7   0  -6    6.48    0.71   0
  -6   6   0   29.02    1.41   0
  -5   3  -8    0.88    1.42   0
  -5   5   2   -0.03    0.77   0
  -5   6   3  236.65    1.93   0
  -4   4   3    4.96    0.72   0
  -4   5   4    3.34    0.72   0
  -3   6   6    7.44    0.58   0
  -2   6   7  356.86    2.15   0
  -1   0 -11   10.11    0.91   0
  -1   1 -14    2.12    1.15   0
  -1   5   7  292.32    1.98   0
  -1   7   8  187.12    1.65   0
   1   6   8   80.83    1.24   0
   2   6   8   44.98    1.12   0
   4  -1 -10  355.91    2.00   0
   4  -1  -5   15.89    0.89   0
   6   0  -3 1358.45    4.08   0
   6   1   0  150.20    1.67   0
   7   0  -7    2.93    0.61   0
   7   1  -2  158.01    1.67   0
   7   3   2   73.77    1.64   0
   8   1  -5    1.36    0.79   0
  -5   7   4  150.55    1.63   0
  -4   6   5    1.14    0.70   0
  -3   8   7    6.89    1.00   0
  -2   0  -7  776.30    6.07   0
   0   6   8   30.86    0.95   0
   1  -1  -9   94.74    1.37   0
   1  -1  -4   43.95    1.02   0
   2  -1 -10   74.73    1.11   0
   2   0 -14    0.46    0.81   0
   3  -1 -10    5.79    0.69   0
   3  -1  -4   62.34    1.07   0
   4  -1  -9  451.10    2.21   0
   4   1   2  884.90    5.37   0
   6   0 -12    6.17    0.82   0
   8   1  -6  168.22    1.54   0
   8   2  -2   16.44    0.93   0
  -5   4   1   80.02    1.23   0
  -4   2  -1  256.52    2.34   0
  -2   1 -12   12.88    1.08   0
  -2   2   3  269.66    2.03   0
   1  -1  -8 1875.36    5.12   0
   1   3   6  541.89    3.34   0
   1   4   7   19.12    0.97   0
   2  -1  -4  427.13    2.56   0
   3  -1  -9  222.65    1.68   0
   3   0 -14   51.54    1.12   0
   4  -1  -8    3.17    0.50   0
   4  -1  -7  221.19    1.63   0
   4  -1  -6    0.46    0.55   0
   5   0 -13    0.99    0.79   0
   5   1   1   78.53    1.52   0
   6   0 -11    0.09    0.79   0
   6   0  -4  298.65    1.93   0
   8   1  -7   17.00    0.83   0
   8   3   0   24.15    1.01   0
  -6   6   1   28.36    1.37   0
  -4   3   2  183.95    1.73   0
  -4   7   6    0.78    0.84   0
  -3   1  -9  112.72    3.02   0
  -3   4   5  218.35    1.69   0
  -3   5   6  219.96    1.69   0
  -2   0  -6   47.49    2.08   0
  -2   0  -5  826.62    8.85   0
  -2   4   6  420.67    2.29   0
  -2   7   8  131.09    1.44   0
  -1   1   2  335.27    2.88   0
  -1   2   4   11.43    0.78   0
  -1   6   8   70.19    1.20   0
   0   0 -12  234.55    2.02   0
   1  -1  -7  698.03    3.17   0
   1  -1  -6   13.08    0.77   0
   1  -1  -5   40.15    1.06   0
   1   0 -13   -0.15    0.73   0
   1   1   3 1259.83    7.87   0
   2  -1  -9   71.01    1.04   0
   3  -1  -8   60.51    1.09   0
   3  -1  -5    7.52    0.72   0
   3   6   8    3.84    0.91   0
   5   0  -2  433.67    2.44   0
   6   0 -10    1.31    0.69   0
   7   2   0    0.07    0.70   0
   7   4   3    5.92    1.08   0
  -6   5   0    5.70    1.09   0
  -5   3  -1    5.07    0.72   0
  -5   5   3    2.64    0.52   0
  -5   6   4    3.15    0.61   0
  -4   5   5    0.17    0.68   0
  -3   2   2 2872.73    6.37   0
  -2   5   7    7.82    0.79   0
   0   3   6    3.39    0.82   0
   0   4   7   49.23    1.07   0
   2  -1  -8 2703.61    5.68   0
   2  -1  -5  738.03    3.13   0
   2   3   6 1280.15    5.58   0
   2   4   7  397.01    2.83   0
   3  -1  -7  177.26    1.63   0
   3  -1  -6 1021.59    3.47   0
   3   0   0  550.72    3.60   0
   4   0 -13   43.31    0.98   0
   4   5   7    3.30    0.97   0
   6   0  -9   44.77    0.89   0
   6   0  -5    1.80    0.66   0
   7   1  -3  347.06    2.18   0
  -6   4  -3   -0.03    1.18   0
  -6   6   2   24.70    1.25   0
  -5   4   2   67.25    1.15   0
  -5   7   5   26.04    1.09   0
  -4   4   4    2.52    0.69   0
  -4   6   6    8.39    0.79   0
  -3   1  -1  873.39    4.65   0
  -3   3   4   44.80    1.08   0
  -3   6   7   43.57    0.87   0
  -2   3   5  310.40    1.98   0
   0   5   8    2.07    0.62   0
   0   7   9   26.79    0.97   0
   1   5   8   12.88    0.79   0
   1   7   9    8.51    0.87   0
   2  -1  -7   25.02    0.84   0
   2  -1  -6 1378.51    4.17   0
   2   0 -13   -0.17    0.65   0
   3   0 -13  112.81    1.30   0
   4   0  -1  196.88    1.85   0
   6   0  -8   88.10    1.09   0
   6   0  -7  146.98    1.35   0
   6   0  -6  276.20    1.71   0
   6   1  -1   43.46    1.11   0
  -6   5   1   36.76    1.13   0
  -4   2   0 1677.01    5.29   0
  -2   6   8   16.77    0.85   0
  -1   1 -13   27.79    1.19   0
  -1   4   7  270.88    1.95   0
   2   5   8   46.86    1.18   0
   4   0 -12    1.22    0.70   0
   5   0 -11  111.20    1.11   0
   5   0  -3 1045.92    3.51   0
   6   3   3    1.69    0.86   0
   7   1  -4    2.26    0.66   0
  -5   3   0    5.08    0.65   0
  -5   5   4  117.77    1.32   0
  -5   6   5   44.23    1.02   0
  -4   7   7    0.50    0.87   0
  -3   7   8    6.92    0.85   0
  -1   3   6   65.97    1.15   0
  -1   5   8  470.46    2.46   0
  -1   7   9    0.07    0.79   0
   0   0 -11  137.80    1.56   0
   0   1 -14    0.61    0.86   0
   1   0 -12  353.11    2.24   0
   5   0 -10   49.66    1.00   0
   7   1 -10    2.69    0.64   0
   7   1  -9   13.06    0.83   0
   7   1  -5   49.79    0.98   0
   8   2  -4   -0.16    0.69   0
   8   3  -1   34.54    1.05   0
  -6   4  -1   -0.02    0.86   0
  -6   6   3  223.65    2.00   0
  -5   7   6    6.93    0.91   0
  -4   3   3    0.99    0.75   0
  -3   5   7  119.85    1.31   0
   0   1   3  562.49    4.01   0
   0   6   9   15.23    0.73   0
   1   2   5 3943.14    9.54   0
   1   6   9    0.06    0.82   0
   2   0 -12   53.34    0.98   0
   3   0 -12   53.50    0.87   0
   4   0 -11  514.85    2.36   0
   5   0  -9  208.47    1.53   0
   5   0  -4    0.42    0.77   0
   6   1 -12   -0.11    0.90   0
   7   1  -8    0.01    0.67   0
   7   1  -7    0.09    0.70   0
   7   1  -6    1.43    0.64   0
   7   2  -1  187.61    1.75   0
   8   2  -5   43.00    1.03   0
  -6   5   2  145.43    1.64   0
  -5   4   3  433.82    2.37   0
  -4   4   5   18.38    0.73   0
  -4   5   6    3.61    0.69   0
  -3   4   6   31.77    0.74   0
  -2   1 -11  236.65    2.71   0
  -2   2   4  620.58    2.89   0
  -2   7   9    0.97    0.84   0
  -1   0  -9  163.62    2.03   0
   0   2   5 1261.87    4.70   0
   3   4   7  146.10    2.21   0
   5   0  -8  658.75    2.62   0
   5   0  -5   10.00    0.80   0
   5   1 -13    9.64    0.93   0
   6   1  -2  398.61    2.33   0
   6   2   1   88.43    1.51   0
   7   3   1   80.84    1.49   0
   8   2  -7   49.85    1.10   0
   8   2  -6   24.94    0.87   0
  -6   4   0   77.99    1.35   0
  -5   3   1    3.33    0.64   0
  -4   6   7    4.80    0.58   0
  -3   2   3  174.14    1.63   0
  -3   6   8   14.52    0.81   0
  -2   4   7 1110.85    3.53   0
  -2   5   8  811.93    3.09   0
  -1   6   9   62.55    1.11   0
   1   0 -11  425.74    2.43   0
   1   1 -14    1.16    0.81   0
   2   0   0    9.65    1.08   0
   2   6   9   14.76    1.02   0
   3   0 -11   20.11    0.77   0
   3   1 -14  143.83    1.74   0
   4   0 -10   55.88    0.97   0
   4   0  -2  916.60    3.51   0
   5   0  -7  132.21    1.27   0
   5   0  -6  348.60    1.95   0
   5   1   0   10.00    0.76   0
   6   1 -11   27.62    0.84   0
   8   3  -2   12.82    0.98   0
  -6   6   4   67.50    1.48   0
  -5   5   5   48.64    1.00   0
  -5   6   6   70.46    1.16   0
  -4   7   8    9.55    0.87   0
  -3   1   0 3653.94    8.53   0
  -3   3   5   59.42    0.98   0
  -2   3   6  559.91    2.66   0
   0   0 -10    4.45    0.72   0
   2   0 -11    4.05    0.70   0
   2   1 -14   74.14    1.35   0
   2   2   5  895.90    5.89   0
   3   5   8   23.73    1.15   0
   4   6   8    2.09    1.11   0
   6   1 -10    2.80    0.71   0
   7   2  -2  112.33    1.42   0
  -6   4   1   36.65    1.03   0
  -6   5   3  105.16    1.38   0
  -5   4   4    0.27    0.66   0
  -4   3   4   27.13    0.88   0
  -3   7   9   11.00    0.92   0
  -2   6   9    9.42    0.78   0
  -1   1 -12   52.92    1.31   0
  -1   2   5  246.73    1.96   0
   0   1 -13  218.72    1.97   0
   3   0 -10  188.04    1.52   0
   3   0  -1  744.84    3.67   0
   3   3   6  307.13    3.80   0
   4   0  -9  164.29    1.41   0
   4   0  -3    3.97    0.72   0
   4   1 -13   76.82    1.16   0
   5   1 -12   34.10    0.88   0
   6   1  -3  614.94    2.75   0
  -5   2  -4    1.85    0.74   0
  -5   3   2   76.60    1.21   0
  -4   5   7   80.84    1.05   0
  -2   1   2  456.90    2.88   0
  -2   2 -13    8.90    1.15   0
  -1   0  -8  411.53    3.13   0
  -1   7  10    6.17    0.90   0
   0   4   8   14.32    0.75   0
   0   5   9    1.84    0.71   0
   1   0 -10  163.26    1.59   0
   1   4   8  176.03    1.84   0
   4   0  -8  864.38    2.94   0
   5   3   4  459.29    5.01   0
   6   1  -9    0.14    0.45   0
   6   1  -4  390.31    2.17   0
   6   4   4   41.03    1.65   0
   8   3  -3    0.23    0.78   0
  -6   4   2   34.94    0.96   0
  -6   6   5    2.00    1.00   0
  -5   2  -5  316.93    3.48   0
  -4   2   2  923.19    3.54   0
  -4   4   6    3.73    0.61   0
  -4   6   8  101.08    1.23   0
  -3   4   7   68.67    1.03   0
  -3   5   8    0.91    0.67   0
  -1   1   3  445.16    3.01   0
  -1   4   8  291.74    2.01   0
  -1   5   9   50.67    0.96   0
   0   3   7  132.48    1.52   0
   1   1 -13  207.15    1.77   0
   1   5   9   21.54    0.91   0
   2   0 -10  190.05    1.56   0
   3   1 -13    3.54    0.68   0
   4   0  -7    1.13    0.67   0
   4   0  -4   11.55    0.83   0
   5   1 -11   16.35    0.75   0
   6   1  -8  224.94    1.53   0
   6   1  -7  106.00    1.15   0
   6   1  -6   40.53    0.93   0
   6   1  -5  400.78    2.13   0
   7   2  -3   22.20    0.81   0
   8   3  -4    0.29    0.79   0
  -6   3  -3    0.32    0.78   0
  -6   3  -2   15.24    0.99   0
  -6   5   4  138.43    1.41   0
  -5   5   6    0.72    0.74   0
  -5   6   7   10.38    0.89   0
  -3   6   9    0.94    0.71   0
  -1   3   7  297.19    2.04   0
   0   0  -9   65.52    1.24   0
   1   3   7  599.25    3.28   0
   2   1 -13    5.68    0.69   0
   3   0  -9    0.46    0.48   0
   4   0  -6   94.84    1.11   0
   4   0  -5   74.60    1.06   0
   4   1 -12  178.78    1.49   0
   4   1   1  803.78    4.25   0
   5   1  -1   90.86    1.33   0
   5   2   2   25.79    1.18   0
   6   2   0   62.47    1.18   0
   7   2  -9    9.16    0.65   0
   7   2  -8    0.72    0.73   0
   7   2  -4   81.76    1.15   0
   7   3   0  149.74    1.72   0
   7   4   2  144.62    2.00   0
   8   3  -5    0.81    0.83   0
  -5   2  -1    1.24    0.67   0
  -5   3   3    5.04    0.72   0
  -5   4   5   21.93    0.82   0
  -3   1   1  645.92    3.37   0
  -3   2   4 1694.97    4.48   0
  -3   3   6  751.98    2.87   0
  -2   2   5   75.78    1.13   0
  -2   4   8   59.88    1.05   0
  -2   5   9   -0.08    0.64   0
  -1   6  10   39.21    0.95   0
   0   6  10   12.14    0.80   0
   2   0  -9  294.22    1.94   0
   3   0  -8  109.75    1.28   0
   3   0  -2 2857.85    6.63   0
   3   6   9   28.46    1.22   0
   5   1 -10  210.46    1.59   0
   7   2  -7    5.03    0.72   0
   7   2  -6   -0.12    0.64   0
   7   2  -5    0.27    0.60   0
  -6   3  -5    0.11    1.03   0
  -6   4   3  512.50    2.63   0
  -6   6   6   39.92    1.10   0
  -4   3   5   19.19    0.78   0
  -3   1  -8   31.98    1.72   0
  -2   1 -10   20.21    1.05   0
  -1   0  -7   85.60    1.71   0
   0   1 -12  142.80    1.58   0
   1   0  -9  335.87    2.19   0
   1   0   0 5769.10   18.06   0
   1   6  10    1.19    0.70   0
   2   4   8  101.97    1.65   0
   3   1 -12   55.25    0.96   0
   4   1 -11    7.89    0.77   0
   5   1  -9   89.25    1.12   0
   6   2 -11    1.25    0.74   0
   6   5   5    4.17    1.41   0
  -7   5   2   28.94    1.28   0
  -6   5   5   97.60    1.30   0
  -5   2   0    1.75    0.66   0
  -4   2   3  244.03    1.83   0
  -4   5   8    1.56    0.70   0
  -2   3   7    9.61    0.81   0
  -2   6  10   23.81    0.87   0
  -1   1 -11    0.48    0.73   0
   0   0  -8    0.13    0.91   0
   0   2 -14   81.19    1.34   0
   2   1 -12    3.49    0.64   0
   2   5   9   97.46    1.56   0
   3   0  -7  127.79    1.42   0
   3   0  -3 1443.77    4.53   0
   3   2 -14   58.41    1.13   0
   5   1  -2   50.62    1.08   0
   6   3   2   21.34    0.96   0
  -7   4  -3    0.83    1.44   0
  -5   2  -6   71.85    2.06   0
  -5   5   7  131.42    1.24   0
  -5   6   8  152.20    1.52   0
  -4   1  -4  457.48    4.52   0
  -4   4   7    4.59    0.51   0
  -4   6   9    3.86    0.62   0
  -3   2 -11    5.20    1.09   0
  -3   4   8   50.49    0.94   0
  -3   5   9   73.67    1.11   0
   1   1 -12    9.11    0.68   0
   1   2 -14    0.06    0.83   0
   2   0  -8  165.30    1.59   0
   2   0  -1 2917.64    8.13   0
   2   2 -14   -0.28    0.83   0
   3   0  -6   46.94    1.03   0
   3   0  -4  695.32    3.01   0
   3   1   2   87.67    2.06   0
   4   2 -13   26.86    0.94   0
   5   1  -8  276.06    1.82   0
   5   2 -12    1.36    0.73   0
   6   2 -10    2.55    0.55   0
   6   2  -1  154.56    1.58   0
   7   3  -1   19.44    0.80   0
  -7   5   3  122.10    1.68   0
  -6   3   1    3.26    0.67   0
  -6   4   4  114.19    1.32   0
  -5   3   4  516.75    2.41   0
  -5   4   6  165.99    1.43   0
  -4   2  -9    0.63    1.41   0
  -3   6  10   17.38    0.88   0
  -2   1   3 7013.45   10.36   0
  -1   2 -13   18.26    1.01   0
  -1   2   6  763.44    3.20   0
   0   2   6  195.91    1.89   0
   1   0  -8  736.85    3.24   0
   2   3   7   23.43    1.17   0
   3   0  -5  316.17    1.93   0
   3   1 -11    4.08    0.66   0
   4   1 -10  349.18    1.87   0
   5   1  -7  625.51    2.52   0
   5   1  -3    0.32    0.71   0
   6   2  -9   34.50    0.87   0
  -7   4   0    0.03    1.02   0
  -6   5   6    4.58    0.82   0
  -5   2   1   68.33    1.18   0
  -4   1  -1  780.63    4.09   0
  -4   3   6    0.54    0.61   0
  -3   1   2   14.94    0.83   0
  -3   2   5  329.84    2.03   0
  -2   2 -12   31.28    1.19   0
  -1   4   9  171.35    1.56   0
  -1   5  10   64.43    1.08   0
   0   4   9   33.12    0.90   0
   0   5  10   28.33    0.92   0
   2   0  -7 3071.06    6.07   0
   2   6  10   72.60    1.48   0
   5   1  -6    6.05    0.72   0
   5   1  -5  354.44    2.02   0
   5   1  -4  574.75    2.61   0
   5   2 -11  171.58    1.45   0
   7   3  -9   12.61    0.84   0
   7   3  -2   87.03    1.23   0
   7   4   1  153.39    1.95   0
  -7   5   4    2.87    1.05   0
  -6   3   2  211.40    1.79   0
  -4   2   4   27.13    0.93   0
  -3   3   7   80.53    1.00   0
  -2   4   9   83.28    1.14   0
  -2   5  10   29.12    0.80   0
  -1   0  -6    6.11    0.76   0
   0   0  -7   76.27    1.34   0
   0   1 -11    0.45    0.67   0
   0   1   4 2844.92    8.02   0
   1   0  -7  867.12    3.51   0
   1   2   6  265.83    2.56   0
   2   1 -11  363.76    2.09   0
   4   1  -9  448.66    2.22   0
   4   1   0  701.53    3.58   0
   4   2 -12   10.16    0.78   0
   6   2  -8   11.92    0.59   0
   6   2  -2  321.77    2.10   0
   7   3  -8    0.78    0.82   0
  -7   4   2   93.56    1.42   0
  -6   4   5   -0.10    0.72   0
  -5   2   2   41.82    1.04   0
  -5   3   5  250.72    1.70   0
  -5   5   8   73.75    0.98   0
  -4   4   8  350.76    1.96   0
  -4   5   9  154.04    1.33   0
  -4   6  10   13.20    0.93   0
  -2   2   6  608.11    2.73   0
  -1   3   8 1332.22    4.03   0
  -1   6  11   27.15    0.95   0
   0   2 -13   47.64    1.15   0
   0   3   8   28.68    0.93   0
   1   1 -11  345.48    2.19   0
   1   4   9   29.36    0.98   0
   2   0  -6 1277.70    3.93   0
   2   0  -2 5462.80   10.06   0
   6   2  -7  256.14    1.69   0
   6   2  -3  854.25    3.24   0
   6   3 -11    7.87    0.93   0
   7   3  -7    3.86    0.74   0
   7   3  -3  167.60    1.59   0
  -6   3   3  421.63    2.43   0
  -6   5   7   23.77    1.03   0
  -5   4   7   57.27    0.88   0
  -4   1  -5  876.22    8.14   0
  -4   1   0  678.10    3.47   0
  -3   5  10   21.77    0.78   0
  -2   3   8 1396.99    3.92   0
  -2   6  11   -0.01    0.81   0
  -1   1 -10   13.91    0.88   0
   0   6  11   30.06    1.00   0
   1   2 -13    7.79    0.77   0
   1   5  10    5.02    0.69   0
   2   0  -5  687.74    3.02   0
   2   2 -13    1.79    0.53   0
   5   2 -10   14.89    0.59   0
   5   2   1    2.23    0.70   0
   6   2  -6  184.33    1.43   0
   6   2  -5   45.34    0.96   0
   6   2  -4  425.72    2.30   0
   7   3  -6    6.00    0.57   0
   7   3  -5   12.33    0.77   0
   7   3  -4   -0.59    0.61   0
  -7   4   3    8.87    0.84   0
  -7   5   5    0.07    0.79   0
  -3   4   9    0.52    0.62   0
  -2   1  -9  330.93    3.01   0
   0   0  -6    1.74    0.84   0
   1   0  -6 1676.54    4.90   0
   2   0  -4 3279.75    6.86   0
   2   0  -3  364.32    2.46   0
   3   2 -12    8.79    0.69   0
   4   2 -11  267.42    1.76   0
   4   2   3 1563.26    7.72   0
   5   3 -12   20.30    0.94   0
   6   3 -10   -0.25    0.79   0
   6   3   1  113.55    1.54   0
  -6   4   6  103.28    1.21   0
  -5   2   3 1397.46    4.10   0
  -4   1   1 1544.14    4.83   0
  -4   3   7   60.75    0.85   0
  -3   1   3 3555.04    6.85   0
  -3   2   6   27.23    0.91   0
  -2   1   4  446.89    2.54   0
  -1   0  -5 5156.57   12.70   0
   1   3   8    5.37    0.86   0
   1   6  11    8.78    0.90   0
   2   1 -10   73.08    0.97   0
   3   1  -9  230.61    1.63   0
   4   1  -7  215.16    1.51   0
   4   1  -1 1633.76    4.99   0
   4   3 -13   36.71    1.02   0
   5   2  -9  240.06    1.63   0
   7   4   0    0.05    0.72   0
  -7   4   4   74.48    1.17   0
  -7   5   6   -0.19    1.04   0
  -6   3   4  138.09    1.45   0
  -5   3   6   19.45    0.65   0
  -5   5   9    9.35    0.64   0
  -4   5  10  111.41    1.30   0
  -3   3   8   88.30    1.15   0
   0   1 -10  240.59    1.95   0
   1   0  -5  108.58    1.46   0
   1   0  -1   26.91    0.99   0
   3   5   9   28.93    1.26   0
   4   1  -6    0.68    0.68   0
   6   3  -9    3.27    0.72   0
   6   4   3    0.43    0.76   0
   7   5   2   56.19    1.45   0
  -6   5   8   58.24    0.95   0
  -5   4   8  286.03    1.74   0
  -4   4   9   45.39    0.98   0
  -2   3 -13    3.93    0.97   0
  -2   4  10   91.45    1.12   0
  -2   5  11  118.60    1.29   0
  -1   2   7 1083.54    3.74   0
  -1   4  10   77.82    1.12   0
  -1   5  11  101.26    1.28   0
   1   1   4 3041.55   10.56   0
   1   3 -14    0.05    0.80   0
   2   2 -12    9.46    0.67   0
   3   1  -8   64.67    1.04   0
   3   4   8   -0.17    0.80   0
   4   1  -5   18.33    0.84   0
   4   1  -2   40.55    1.00   0
   4   2 -10   50.81    0.95   0
   4   5   8   48.64    2.19   0
   5   2  -8  837.82    2.95   0
   5   2   0    0.45    0.80   0
   5   3 -11   10.97    0.80   0
   7   4  -8   -0.10    0.81   0
   7   4  -1  156.66    1.73   0
  -6   2   0   54.04    1.11   0
  -6   3   5  221.14    1.66   0
  -6   4   7   76.07    1.12   0
  -5   2   4    0.78    0.73   0
  -4   1   2   36.58    0.96   0
  -3   3 -12    0.88    1.10   0
  -2   2   7 1326.88    3.91   0
  -1   0   0 4694.06   16.42   0
   0   0  -5 4612.65    9.83   0
   0   2 -12  230.31    1.90   0
   0   2   7   81.78    1.32   0
   0   4  10    6.92    0.65   0
   0   5  11    0.32    0.78   0
   1   0  -4  323.48    2.49   0
   1   2 -12  367.58    2.24   0
   2   1  -9   85.16    1.19   0
   2   5  10   18.77    0.98   0
   3   2 -11   35.86    0.81   0
   3   3 -13    2.85    0.85   0
   4   1  -4    2.71    0.74   0
   4   1  -3   20.37    0.84   0
   4   3 -12   99.21    1.23   0
   5   2  -7   63.81    1.08   0
   6   3  -8  171.32    1.45   0
   6   3   0  112.02    1.45   0
   7   4  -7    0.59    0.83   0
  -7   3  -3   53.76    1.53   0
  -7   3   1   13.51    0.86   0
  -7   4   5    5.98    0.86   0
  -6   2   1  123.93    1.44   0
  -5   3   7  505.66    2.32   0
  -4   2   6   15.75    0.75   0
  -4   3   8   18.64    0.78   0
  -3   1   4   60.57    1.01   0
  -3   2 -10  163.49    2.49   0
  -3   4  10   72.94    1.05   0
  -3   5  11    8.43    0.81   0
  -2   2 -11   69.73    1.36   0
  -2   3   9   63.32    1.04   0
  -1   3   9   16.43    0.81   0
   1   0  -3  739.05    4.05   0
   1   0  -2 2882.10    8.71   0
   2   4   9   37.72    1.23   0
   5   3   3   42.50    1.35   0
   5   4   5  295.58    4.09   0
   6   3  -7   38.81    0.91   0
   7   4  -6   -0.12    0.79   0
   7   4  -2  128.01    1.48   0
  -7   3   2   74.29    1.21   0
  -5   4   9   99.77    1.18   0
  -5   5  10   48.78    0.88   0
  -3   2   7  363.57    2.02   0
  -1   1   5   39.16    1.02   0
   1   1  -9  100.99    1.33   0
   2   3 -13    0.04    0.78   0
   3   1  -7  167.46    1.55   0
   3   1   1  917.80    5.06   0
   4   2  -9   23.98    0.80   0
   5   2  -6  541.73    2.41   0
   5   2  -1   74.66    1.22   0
   5   3 -10  173.61    1.38   0
   6   3  -1    3.15    0.65   0
   6   4 -10    0.12    0.66   0
   7   4  -5    8.26    0.73   0
   7   4  -4   91.37    1.22   0
   7   4  -3   12.13    0.76   0
   7   5   1   32.39    1.18   0
  -7   3   3  143.40    1.51   0
  -7   4   6   -0.41    0.85   0
  -6   2   2  286.36    2.03   0
  -6   3   6   60.93    0.99   0
  -6   4   8   18.07    0.79   0
  -5   2   5  170.64    1.47   0
  -4   1   3   19.99    0.79   0
  -4   4  10   33.04    0.82   0
  -4   5  11    1.98    0.80   0
  -3   3   9  123.33    1.28   0
  -2   0  -2  194.41    4.09   0
  -2   1   5  726.83    3.07   0
  -1   0  -4 1061.29    6.64   0
   0   1  -9    1.99    0.73   0
   0   3   9   24.47    0.81   0
   2   1  -8 2640.39    5.48   0
   2   2 -11    3.41    0.67   0
   3   2 -10   68.91    1.03   0
   5   2  -5  184.41    1.53   0
   5   2  -2   46.62    1.07   0
   6   3  -6   65.21    0.92   0
  -7   3  -4    1.63    1.21   0
  -6   2   3  758.75    3.12   0
  -3   1  -7  281.43    4.11   0
  -2   0  -1 1688.21    8.60   0
   0   1   5  644.64    3.60   0
   0   3 -13  165.11    1.66   0
   1   3 -13  120.70    1.40   0
   1   4  10    1.23    0.68   0
   1   5  11    0.38    0.72   0
   3   1  -6 1045.19    3.43   0
   3   3 -12   30.12    0.83   0
   4   3 -11   12.12    0.60   0
   4   3   5  572.28    7.07   0
   5   2  -4    0.13    0.70   0
   5   2  -3 1493.49    4.21   0
   5   3  -9   84.83    1.14   0
   6   3  -5  246.98    1.64   0
   6   3  -4  152.76    1.49   0
   6   3  -3  481.87    2.49   0
   6   3  -2  219.83    1.79   0
   6   4  -9   13.37    0.80   0
  -7   3   4    0.30    0.73   0
  -5   1  -1   73.94    1.36   0
  -5   1   0    8.04    0.72   0
  -5   3   8  196.28    1.53   0
  -4   2   7   13.53    0.68   0
  -4   3   9  264.49    1.71   0
  -2   1  -8  380.33    3.25   0
  -2   4  11    0.81    0.61   0
  -2   5  12    9.61    0.83   0
   1   2 -11  198.15    1.70   0
   1   2   7   -0.07    0.89   0
   2   2   6   27.92    1.49   0
   4   2  -8  372.99    1.93   0
   5   4 -11   44.59    0.87   0
   6   4   2   59.85    1.24   0
   6   5   4    0.17    0.96   0
   7   5   0  117.02    1.52   0
  -7   4   7    0.36    0.89   0
  -6   2   4  365.91    2.17   0
  -6   3   7   30.27    0.88   0
  -5   1  -2  170.19    2.14   0
  -5   1   1   83.02    1.27   0
  -5   2   6  510.65    2.33   0
  -5   4  10   22.45    0.79   0
  -4   1   4    0.74    0.69   0
  -3   1   5    6.66    0.50   0
  -3   4  11    3.47    0.67   0
  -3   5  12    7.79    0.88   0
  -2   0   0    8.16    0.89   0
  -2   2   8   31.04    0.81   0
  -1   2   8  197.55    1.71   0
  -1   4  11  139.32    1.45   0
  -1   5  12    2.94    0.81   0
   0   2 -11  244.22    1.91   0
   2   3   8  341.82    3.01   0
   3   1  -5    7.03    0.71   0
   3   4 -13   45.73    1.11   0
   4   4 -12   -0.06    0.83   0
   5   3  -8  199.61    1.56   0
   6   4  -8   15.71    0.76   0
   7   5  -6    0.34    0.93   0
  -7   3   5    8.33    0.79   0
  -6   4   9   11.02    0.69   0
  -3   2   8   57.23    1.00   0
  -2   3 -12   11.44    0.90   0
  -2   3  10   66.77    1.05   0
  -1   0   1   29.38    1.01   0
   1   1  -8 1941.91    5.06   0
   1   3   9  102.44    1.51   0
   2   1  -7   26.56    1.01   0
   2   3 -12    1.03    0.62   0
   3   1   0 3550.27    8.71   0
   3   2  -9   48.06    0.90   0
   4   2  -7   16.73    0.76   0
   4   2   2   92.47    1.77   0
   4   3 -10  169.75    1.43   0
   5   4 -10   21.18    0.89   0
   7   5  -5    6.86    0.88   0
   7   5  -1   31.20    1.02   0
  -7   4   8   -0.01    0.88   0
  -4   4  11  207.43    1.62   0
  -3   3  10    0.90    0.59   0
  -2   1   6 1395.46    4.07   0
  -1   3  10   99.09    1.26   0
   0   2   8  124.67    1.56   0
   0   4  11   58.47    1.11   0
   0   5  12   31.48    1.00   0
   3   1  -4   62.07    1.05   0
   3   3 -11    1.89    0.62   0
   6   4  -7   75.91    1.10   0
   7   5  -4    3.71    0.78   0
   7   5  -3  154.22    1.58   0
   7   5  -2   40.81    1.04   0
  -7   3   6    6.60    0.79   0
  -6   2   5   38.31    0.88   0
  -6   3   8  163.75    1.43   0
  -5   1  -3   86.70    1.78   0
  -5   1   3   -0.19    0.70   0
  -5   2   7   58.22    1.03   0
  -5   3   9   71.29    0.96   0
  -4   1   5   14.24    0.84   0
  -4   2   8  379.88    1.98   0
  -2   0   1 2824.36    8.12   0
  -2   2 -10  375.89    2.95   0
  -1   1   6   13.03    0.60   0
   0   1  -8   45.08    1.13   0
   1   3 -12    0.72    0.66   0
   2   4 -13    0.03    0.75   0
   3   1  -3 3677.87    7.01   0
   3   1  -1  654.55    3.47   0
   4   2  -6   20.70    0.82   0
   5   3  -7  517.07    2.32   0
   5   3   2   49.93    1.17   0
   6   4  -6  119.44    1.29   0
   6   4   1    0.67    0.60   0
  -6   4  10   -0.02    0.90   0
  -5   4  11   48.16    1.00   0
  -4   3  10  164.28    1.45   0
  -3   1   6  986.05    3.25   0
  -1   0  -3   92.18    2.68   0
  -1   3 -12   23.55    0.94   0
   0   3 -12  128.35    1.46   0
   1   2 -10  321.88    2.05   0
   2   1  -6 1482.61    4.23   0
   3   1  -2   15.33    0.85   0
   3   2  -8   61.92    1.05   0
   3   4 -12   22.81    0.90   0
   4   3  -9  277.39    1.78   0
   4   4 -11  192.50    1.51   0
   5   4  -9  106.15    1.25   0
  -8   3  -1    0.00    1.27   0
  -8   3   3    0.01    0.91   0
  -7   2   0    0.05    0.75   0
  -7   2   2   96.46    1.30   0
  -6   2   6  175.50    1.47   0
  -5   1   4  515.49    2.52   0
  -3   3 -11  206.53    2.41   0
  -3   4  12   23.09    0.83   0
  -2   2   9   94.02    1.22   0
  -2   4  12   16.89    0.81   0
   0   3  10  200.02    1.78   0
   1   1  -7  703.73    3.10   0
   1   4 -13    0.18    0.83   0
   2   2  -9   95.91    1.21   0
   2   3 -11  160.33    1.44   0
   4   2  -5    2.51    0.74   0
   5   3  -6   19.16    0.66   0
   6   4  -5    0.07    0.63   0
   6   4   0   99.83    1.34   0
   6   5  -8   65.56    1.11   0
  -8   3   4   -0.03    0.91   0
  -7   2   3   18.28    0.84   0
  -7   3   7    0.73    0.59   0
  -6   3   9    8.62    0.69   0
  -5   3  10  176.58    1.45   0
  -4   1   6    0.23    0.67   0
  -4   4  12   -0.32    0.73   0
  -3   0   0  567.79    3.57   0
  -3   2   9   44.24    0.78   0
  -2   0   2 5365.70   10.00   0
  -1   2   9  251.81    1.89   0
  -1   4  12  173.22    1.60   0
   0   2 -10   23.07    0.81   0
   0   4 -13   10.41    0.92   0
   2   5  11   48.87    1.35   0
   3   3 -10    1.62    0.44   0
   3   3   7  193.56    3.77   0
   4   2   1  292.29    2.60   0
   5   3  -5  267.22    1.78   0
   5   3   1    7.28    0.85   0
   5   5 -10   46.80    1.07   0
   6   4  -4  121.12    1.36   0
   6   4  -3  551.50    2.70   0
   6   4  -2   40.23    1.08   0
   6   4  -1   43.29    0.99   0
   6   5   3    1.92    0.83   0
  -7   2   4   69.49    1.12   0
  -5   2   8  799.27    2.78   0
  -4   2   9   21.80    0.76   0
  -4   3 -10    3.86    1.15   0
  -3   0  -1  473.31    3.79   0
  -3   0   1  717.23    3.67   0
  -3   3  11   -0.60    0.67   0
  -2   1   7   26.92    0.96   0
  -2   3  11  158.76    1.44   0
  -1   0   2 2998.14    8.89   0
   1   1   5  173.98    2.42   0
   1   5  12   15.67    1.06   0
   2   1  -5  705.55    3.12   0
   2   4 -12   16.41    0.85   0
   2   4  10  136.22    1.93   0
   3   2  -7  355.91    2.07   0
   4   2  -4   25.81    0.91   0
   4   3  -8   20.53    0.77   0
   4   4 -10   32.57    0.90   0
   5   4  -8  295.45    1.88   0
   6   5  -7   26.52    0.90   0
  -8   3   5    0.74    1.02   0
  -7   3   8    0.59    0.87   0
  -6   1   1   43.49    0.97   0
  -6   2   7  227.79    1.53   0
  -5   1   5  316.86    1.86   0
  -4   3  11   10.10    0.73   0
  -3   0   2 2668.10    6.51   0
  -3   1   7  157.47    1.50   0
  -3   2  -9  103.19    1.88   0
  -1   3  11  279.33    1.94   0
   1   3 -11  280.82    1.93   0
   1   4  11   12.04    0.82   0
   3   4 -11    3.81    0.72   0
   3   5  10   25.08    1.50   0
   4   2  -3  247.62    1.91   0
   4   5 -11    0.27    0.85   0
   5   3  -4  536.64    2.56   0
   5   3   0    6.28    0.82   0
   5   5   6   50.32    1.94   0
  -7   2   5    0.48    0.67   0
  -6   1   0  145.21    1.63   0
  -6   1   2  373.25    2.31   0
  -5   1  -4  891.29    6.21   0
  -2   0   3  385.25    2.57   0
  -2   1  -7   97.55    1.87   0
  -2   3 -11  195.02    2.12   0
  -1   1   7  683.58    3.07   0
   0   1  -7   86.68    1.37   0
   1   2  -9  274.18    1.92   0
   2   2  -8   33.01    1.03   0
   3   3  -9  130.45    1.33   0
   3   5 -12    6.38    0.94   0
   4   2  -2  977.33    3.69   0
   4   2  -1   17.35    0.95   0
   4   2   0 1718.19    5.47   0
   5   3  -3    3.27    0.73   0
   5   3  -2   87.12    1.27   0
   5   3  -1    2.76    0.70   0
   5   4  -7   63.66    1.01   0
   5   4   4    3.92    0.94   0
   5   5  -9    7.56    0.87   0
   6   5  -6    6.81    0.71   0
  -6   1   3  552.23    2.57   0
  -6   2   8   13.50    0.70   0
  -6   3  10    0.12    0.58   0
  -5   1   6    5.72    0.68   0
  -5   2   9  244.27    1.64   0
  -5   3  11    8.13    0.80   0
  -4   1   7  211.61    1.58   0
  -3   0   3 1419.15    4.46   0
  -3   2  10   67.64    1.03   0
  -3   4  13   46.55    1.03   0
  -2   2  10   38.32    0.86   0
   0   2   9  179.29    1.73   0
   0   3 -11   -0.02    0.63   0
   0   4  12  100.39    1.38   0
   1   1  -6   12.95    0.75   0
   1   2   8  531.64    3.28   0
   1   4 -12  175.57    1.64   0
   2   3 -10   65.44    1.03   0
   4   3  -7   60.58    0.94   0
   4   4  -9   43.32    0.98   0
   6   5  -5  108.21    1.32   0
   6   5   2    4.65    0.76   0
  -7   2  -3    2.47    0.99   0
  -7   2   6    0.47    0.50   0
  -7   3   9    8.96    0.98   0
  -6   1   4  356.75    2.10   0
  -4   2  -8  101.19    2.45   0
  -4   2  10   50.21    0.90   0
  -3   0  -2   21.52    1.23   0
  -2   4  13   -0.42    0.81   0
  -1   0   3  761.25    4.04   0
  -1   3 -11    0.47    0.67   0
   1   3  10   42.66    1.16   0
   2   1  -4  436.30    2.59   0
   3   2  -6   26.42    0.77   0
   6   6   4    4.68    1.05   0
  -6   1   5  363.08    2.08   0
  -4   0   0  990.40    4.45   0
  -4   0   1  194.37    1.88   0
  -4   0   2  903.82    3.60   0
  -4   3  12   96.52    1.20   0
  -3   1   8   62.47    1.04   0
  -3   3  12   31.54    0.86   0
  -2   0   4 3266.13    6.77   0
  -2   1   8 2649.89    5.42   0
  -1   2  10  292.58    1.97   0
   0   2  -9  195.77    1.79   0
   0   3  11    0.63    0.63   0
   0   4 -12   97.38    1.31   0
   2   4 -11   -0.02    0.69   0
   3   4 -10   69.16    1.08   0
   4   5 -10  113.03    1.34   0
   5   4  -6  157.55    1.34   0
   5   5  -8   69.67    1.16   0
   6   5  -4  144.77    1.48   0
  -7   2   7    5.52    0.59   0
  -6   1  -2   10.14    0.83   0
  -6   2   9   33.36    0.86   0
  -6   3  11    7.62    0.92   0
  -5   1   7  543.92    2.33   0
  -5   2  10   14.91    0.70   0
  -4   0   3    4.20    0.67   0
  -4   1   8    3.14    0.71   0
  -3   0   4  675.09    2.97   0
  -2   2  -9  222.70    2.19   0
  -1   4 -12    2.91    0.76   0
  -1   4  13    0.23    0.77   0
   1   3 -10   96.56    1.28   0
   2   3   9  247.13    2.74   0
   2   5 -12    7.79    0.81   0
   3   4   9   80.51    2.25   0
   3   5 -11    7.11    0.88   0
   4   3  -6    0.51    0.46   0
   6   5  -3  101.05    1.33   0
   6   5  -2  146.28    1.57   0
   6   5   0   13.50    0.87   0
   6   6  -6   39.04    1.10   0
  -8   2   3    1.73    0.91   0
  -8   2   4    0.13    0.90   0
  -6   1   6   39.00    0.90   0
  -5   3  12   21.19    0.93   0
  -1   1   8 1897.59    4.96   0
   0   1   7   82.13    1.35   0
   1   2  -8  208.99    1.80   0
   2   1  -3 6641.54   10.26   0
   2   2  -7 1392.85    4.13   0
   2   3  -9   61.76    1.05   0
   3   2  -5  325.71    2.07   0
   4   4  -8  340.31    1.90   0
   5   4  -5   23.76    0.79   0
   6   5  -1   43.53    1.00   0
  -8   2   5   33.51    1.09   0
  -7   2   8   -0.39    0.78   0
  -5   1   8  250.10    1.70   0
  -4   0  -1  435.44    3.27   0
  -4   0   4   13.40    0.82   0
  -4   2  11  256.55    1.71   0
  -3   0   5  317.34    2.00   0
  -3   2  11   30.57    0.80   0
  -1   0   4  295.89    2.38   0
  -1   3  12    0.10    0.67   0
   0   1  -6   29.47    0.96   0
   1   1  -5   41.18    1.04   0
   1   4 -11  141.05    1.46   0
   2   2   7 1291.36    6.85   0
   4   3  -5   17.79    0.81   0
   4   5  -9  163.01    1.50   0
   5   4   3  383.96    3.08   0
   5   5  -7  126.28    1.26   0
   6   6  -5    2.89    0.83   0
   6   6   3   -0.05    0.97   0
  -8   2   6   19.78    0.92   0
  -7   1   2  144.04    1.58   0
  -7   1   3  347.31    2.23   0
  -6   1   7   98.47    1.16   0
  -6   2  10    1.71    0.76   0
  -4   1   9  423.36    2.13   0
  -3   1   9  224.15    1.65   0
  -3   3 -10   41.26    1.17   0
  -2   0   5  645.88    2.91   0
  -2   2  11    3.73    0.66   0
   0   3 -10  209.51    1.80   0
   1   5 -12    0.33    0.77   0
   3   4  -9    3.14    0.65   0
   4   6 -10   10.45    0.78   0
   5   4  -4    0.02    0.47   0
   5   6  -8  136.56    1.53   0
   6   6  -4   78.97    1.29   0
  -8   2  -1   84.27    1.58   0
  -7   1   1   63.15    1.15   0
  -7   1   4    2.55    0.65   0
  -7   2  -4   25.48    1.31   0
  -7   2   9    6.13    0.88   0
  -5   0   2  399.64    2.45   0
  -5   0   3  922.26    3.48   0
  -5   2  11  160.66    1.44   0
  -4   0   5   72.70    1.20   0
  -4   3  13   37.56    1.02   0
  -3   3  13    5.21    0.81   0
  -2   1   9   77.13    1.03   0
   0   2  10   24.57    0.83   0
   0   4  13   12.26    1.02   0
   1   4  12    3.83    0.80   0
   2   1  -2  472.02    3.04   0
   2   4 -10   91.74    1.15   0
   2   5 -11  114.59    1.33   0
   3   2  -4 1751.16    4.68   0
   3   3  -7   90.64    1.16   0
   3   5 -10   18.61    0.87   0
   4   3   4  422.36    4.02   0
   4   4  -7    3.47    0.63   0
   5   4  -3  438.18    2.39   0
   5   5  -6   -0.04    0.75   0
   6   6   2   27.02    1.19   0
  -8   2   7   36.83    1.15   0
  -7   1   5   39.89    0.93   0
  -6   1  -3    3.13    0.82   0
  -6   1   8  222.82    1.58   0
  -5   0   1  157.53    1.72   0
  -5   0   4    0.42    0.76   0
  -5   1   9   85.05    1.11   0
  -3   0   6   42.45    1.02   0
  -3   4 -11    0.49    0.86   0
  -2   3  13    0.70    0.77   0
  -1   2  11  186.65    1.68   0
  -1   3 -10   43.42    1.02   0
   0   0   2   92.04    2.08   0
   0   2  -8  134.77    1.56   0
   0   4 -11   61.22    1.15   0
   0   5 -12   25.39    1.01   0
   1   1   6  748.12    4.42   0
   2   2  -6  649.19    2.85   0
   4   3  -4   29.04    0.77   0
   5   4   2   57.73    1.31   0
   6   6  -3  186.77    1.76   0
  -7   1   6    1.18    0.66   0
  -6   2  11    1.00    0.83   0
  -5   0   0  151.24    1.78   0
  -4   0   6   97.26    1.23   0
  -4   2  12    8.42    0.70   0
  -3   1  -6  924.08    7.05   0
  -3   2  12    7.67    0.65   0
  -2   0   6 1270.93    3.96   0
  -1   0   5  106.03    1.45   0
  -1   5 -12   14.20    1.01   0
   0   3  12  128.81    1.64   0
   1   2   9    6.71    0.79   0
   2   3  -8 1462.34    4.08   0
   2   4  11   55.75    1.56   0
   3   2   4  380.37    5.32   0
   4   5  -8    0.29    0.68   0
   4   6  -9    2.35    0.87   0
   5   4  -2   71.74    1.13   0
   5   4  -1   86.93    1.30   0
   5   4   1    1.59    0.76   0
   5   5  -5   44.85    0.98   0
   5   5   5   47.43    1.51   0
   5   6  -7    8.76    0.69   0
   6   6  -2   24.87    0.94   0
   6   6  -1   26.31    0.98   0
   6   6   0   30.83    1.02   0
   6   6   1    0.58    0.83   0
  -7   1  -1   93.81    1.58   0
  -7   1   7    0.05    0.67   0
  -5   0   5    8.84    0.63   0
  -5   2  12    1.17    0.71   0
  -4   0  -2   20.72    1.25   0
  -4   1  10  345.03    1.93   0
  -3   1  10    5.33    0.70   0
  -1   1   9   94.27    1.28   0
  -1   4 -11   12.79    0.75   0
   0   1   8   43.06    1.12   0
   1   1  -4   47.52    1.16   0
   1   2  -7 1098.96    3.84   0
   1   3  11    0.74    0.82   0
   2   1  -1   32.52    1.15   0
   3   2  -3  174.84    1.71   0
   3   4  -8   45.57    0.98   0
   4   3  -3    2.04    0.77   0
   4   4  -6    3.86    0.62   0
   5   4   0   41.66    0.96   0
  -6   1   9   -0.13    0.65   0
  -5   0   6  353.21    2.01   0
  -5   1  10  213.77    1.61   0
  -4   0   7   -0.95    0.69   0
  -3   0   7  119.75    1.37   0
  -3   2  -8    7.36    0.89   0
  -2   1  10   74.55    1.11   0
  -2   2  12   11.83    0.73   0
  -1   3  13  130.21    1.48   0
   0   0   3 5467.36   13.11   0
   1   4 -10   75.29    1.14   0
   1   5 -11   88.16    1.23   0
   2   4  -9   86.13    1.21   0
   2   6 -11    0.14    0.91   0
   3   3  -6  738.92    2.89   0
   3   5  -9   74.57    1.13   0
   3   6 -10   12.73    0.96   0
   5   6  -6   66.76    1.17   0
  -7   1   8    0.22    0.73   0
  -6   0   3 1311.93    4.15   0
  -5   0  -1   24.26    1.11   0
  -4   3  -9    8.15    1.04   0
  -2   0   7 3078.11    5.99   0
  -2   1  -6 1738.91    7.39   0
   2   1   0  265.52    2.89   0
   2   5 -10   25.15    0.87   0
   3   2  -2 2784.44    6.52   0
   4   3  -2  208.45    1.85   0
   4   3   3   32.27    1.38   0
   4   5  -7   81.91    1.11   0
   5   5  -4  116.06    1.26   0
  -8   1   3    1.64    0.86   0
  -8   1   4    0.30    0.85   0
  -8   1   5    1.40    0.82   0
  -6   0   2   98.42    1.38   0
  -6   0   4  262.71    1.83   0
  -6   0   5    0.96    0.68   0
  -6   1  10    4.92    0.68   0
  -5   0   7  133.67    1.29   0
  -4   1  11    6.47    0.73   0
  -4   2  13   28.64    0.87   0
  -2   2  -8  189.91    2.10   0
  -1   0   6 1617.16    4.87   0
   0   1  -5  664.75    3.64   0
   0   3  -9   24.89    0.88   0
   2   2  -5   73.66    1.07   0
   4   4  -5   20.85    0.78   0
   4   6  -8   85.55    1.13   0
  -8   1   2   14.08    0.93   0
  -8   1   6  144.91    1.58   0
  -7   1   9   12.31    0.87   0
  -6   0   1  106.00    1.42   0
  -6   0   6  274.17    1.79   0
  -5   1  11   16.09    0.73   0
  -4   0   8  797.17    2.86   0
  -3   0   8  108.15    1.29   0
  -3   1  11    5.07    0.64   0
  -3   2  13   76.57    1.14   0
  -1   2  12  346.71    2.24   0
   0   2  11  246.91    2.01   0
   0   4 -10    6.44    0.74   0
   0   5 -11    0.03    0.75   0
   2   3  -7    9.23    0.85   0
   3   3  -5   65.46    1.19   0
   3   4  -7   70.03    1.06   0
   4   3  -1 1065.56    4.05   0
   5   5  -3    1.51    0.52   0
   5   6  -5   39.92    0.89   0
   5   7  -6    3.79    0.94   0
   1   3  -8 1315.63    4.00   0
;
_shelx_hkl_checksum              54259
loop_
_space_group_symop_operation_xyz
'x, y, z'
'-x, y+1/2, -z'
'-x, -y, -z'
'x, -y-1/2, z'
loop_
_atom_site_label
_atom_site_type_symbol
_atom_site_fract_x
_atom_site_fract_y
_atom_site_fract_z
_atom_site_U_iso_or_equiv
_atom_site_adp_type
_atom_site_occupancy
_atom_site_site_symmetry_order
_atom_site_calc_flag
_atom_site_refinement_flags_posn
_atom_site_refinement_flags_adp
_atom_site_refinement_flags_occupancy
_atom_site_disorder_assembly
_atom_site_disorder_group
S1 S 0.46304(7) 0.2500 0.21454(4) 0.04784(19) Uani 1 2 d S T P . .
Si1 Si 0.74973(7) 0.2500 0.14126(4) 0.03575(18) Uani 1 2 d S T P . .
N1 N 0.7395(3) 0.2500 0.41465(15) 0.0521(4) Uani 1 2 d S T P . .
C1 C 0.5410(3) 0.2500 0.37412(16) 0.0402(4) Uani 1 2 d S T P . .
C2 C 0.3902(3) 0.2500 0.45022(19) 0.0511(5) Uani 1 2 d S T P . .
H2 H 0.2508 0.2500 0.4184 0.061 Uiso 1 2 calc R U P . .
C3 C 0.4533(4) 0.2500 0.5744(2) 0.0619(6) Uani 1 2 d S T P . .
H3 H 0.3562 0.2500 0.6288 0.074 Uiso 1 2 calc R U P . .
C4 C 0.6578(4) 0.2500 0.6177(2) 0.0642(6) Uani 1 2 d S T P . .
H4 H 0.7032 0.2500 0.7018 0.077 Uiso 1 2 calc R U P . .
C5 C 0.7937(4) 0.2500 0.5361(2) 0.0618(6) Uani 1 2 d S T P . .
H5 H 0.9338 0.2500 0.5663 0.074 Uiso 1 2 calc R U P . .
C6 C 0.8991(2) 0.0358(2) 0.18373(15) 0.0549(4) Uani 1 1 d . . . . .
H6A H 1.0251 0.0388 0.1480 0.082 Uiso 1 1 calc R U . . .
H6B H 0.8195 -0.0718 0.1538 0.082 Uiso 1 1 calc R U . . .
H6C H 0.9309 0.0285 0.2716 0.082 Uiso 1 1 calc R U . . .
C7 C 0.6590(4) 0.2500 -0.02563(18) 0.0536(5) Uani 1 2 d S T P . .
H7A H 0.6151 0.1260 -0.0513 0.080 Uiso 0.5 1 calc R U P . .
H7B H 0.7696 0.2886 -0.0691 0.080 Uiso 0.5 1 calc R U P . .
H7C H 0.5453 0.3354 -0.0432 0.080 Uiso 0.5 1 calc R U P . .
loop_
_atom_site_aniso_label
_atom_site_aniso_U_11
_atom_site_aniso_U_22
_atom_site_aniso_U_33
_atom_site_aniso_U_23
_atom_site_aniso_U_13
_atom_site_aniso_U_12
S1 0.0314(3) 0.0731(4) 0.0388(3) 0.000 0.00415(18) 0.000
Si1 0.0340(3) 0.0344(3) 0.0394(3) 0.000 0.00700(19) 0.000
N1 0.0443(9) 0.0711(12) 0.0404(8) 0.000 0.0036(7) 0.000
C1 0.0411(9) 0.0415(9) 0.0389(9) 0.000 0.0090(7) 0.000
C2 0.0506(11) 0.0558(11) 0.0502(11) 0.000 0.0184(9) 0.000
C3 0.0813(16) 0.0627(13) 0.0473(11) 0.000 0.0288(11) 0.000
C4 0.0863(17) 0.0674(14) 0.0381(10) 0.000 0.0060(10) 0.000
C5 0.0579(12) 0.0823(16) 0.0425(10) 0.000 -0.0025(9) 0.000
C6 0.0519(8) 0.0436(7) 0.0688(9) 0.0022(6) 0.0068(7) 0.0093(6)
C7 0.0651(13) 0.0571(12) 0.0398(9) 0.000 0.0115(9) 0.000
loop_
_atom_type_symbol
_atom_type_description
_atom_type_scat_dispersion_real
_atom_type_scat_dispersion_imag
_atom_type_scat_source
C C 0.0033 0.0016 'International Tables Vol C Tables 4.2.6.8 and 6.1.1.4'
H H 0.0000 0.0000 'International Tables Vol C Tables 4.2.6.8 and 6.1.1.4'
N N 0.0061 0.0033 'International Tables Vol C Tables 4.2.6.8 and 6.1.1.4'
Si Si 0.0817 0.0704 'International Tables Vol C Tables 4.2.6.8 and 6.1.1.4'
S S 0.1246 0.1234 'International Tables Vol C Tables 4.2.6.8 and 6.1.1.4'
loop_
_geom_angle_atom_site_label_1
_geom_angle_atom_site_label_2
_geom_angle_atom_site_label_3
_geom_angle
_geom_angle_site_symmetry_1
_geom_angle_site_symmetry_3
_geom_angle_publ_flag
C1 S1 Si1 103.13(6) . . ?
C6 Si1 C6 112.41(10) . 4_565 ?
C6 Si1 C7 109.77(6) . . ?
C6 Si1 C7 109.77(6) 4_565 . ?
C6 Si1 S1 111.52(5) . . ?
C6 Si1 S1 111.52(5) 4_565 . ?
C7 Si1 S1 101.29(8) . . ?
C1 N1 C5 116.96(18) . . ?
N1 C1 C2 123.44(18) . . ?
N1 C1 S1 118.37(13) . . ?
C2 C1 S1 118.18(16) . . ?
C3 C2 C1 117.5(2) . . ?
C3 C2 H2 121.2 . . ?
C1 C2 H2 121.2 . . ?
C4 C3 C2 119.8(2) . . ?
C4 C3 H3 120.1 . . ?
C2 C3 H3 120.1 . . ?
C5 C4 C3 118.4(2) . . ?
C5 C4 H4 120.8 . . ?
C3 C4 H4 120.8 . . ?
N1 C5 C4 123.9(2) . . ?
N1 C5 H5 118.0 . . ?
C4 C5 H5 118.0 . . ?
Si1 C6 H6A 109.5 . . ?
Si1 C6 H6B 109.5 . . ?
H6A C6 H6B 109.5 . . ?
Si1 C6 H6C 109.5 . . ?
H6A C6 H6C 109.5 . . ?
H6B C6 H6C 109.5 . . ?
Si1 C7 H7A 109.5 . . ?
Si1 C7 H7B 109.5 . . ?
H7A C7 H7B 109.5 . . ?
Si1 C7 H7C 109.5 . . ?
H7A C7 H7C 109.5 . . ?
H7B C7 H7C 109.5 . . ?
loop_
_geom_bond_atom_site_label_1
_geom_bond_atom_site_label_2
_geom_bond_distance
_geom_bond_site_symmetry_2
_geom_bond_publ_flag
S1 C1 1.7754(19) . ?
S1 Si1 2.1627(6) . ?
Si1 C6 1.8581(15) . ?
Si1 C6 1.8581(15) 4_565 ?
Si1 C7 1.867(2) . ?
N1 C1 1.327(2) . ?
N1 C5 1.346(3) . ?
C1 C2 1.393(3) . ?
C2 C3 1.384(3) . ?
C2 H2 0.9400 . ?
C3 C4 1.370(4) . ?
C3 H3 0.9400 . ?
C4 C5 1.362(3) . ?
C4 H4 0.9400 . ?
C5 H5 0.9400 . ?
C6 H6A 0.9700 . ?
C6 H6B 0.9700 . ?
C6 H6C 0.9700 . ?
C7 H7A 0.9700 . ?
C7 H7B 0.9700 . ?
C7 H7C 0.9700 . ?
loop_
_geom_torsion_atom_site_label_1
_geom_torsion_atom_site_label_2
_geom_torsion_atom_site_label_3
_geom_torsion_atom_site_label_4
_geom_torsion
_geom_torsion_site_symmetry_1
_geom_torsion_site_symmetry_2
_geom_torsion_site_symmetry_3
_geom_torsion_site_symmetry_4
_geom_torsion_publ_flag
C5 N1 C1 C2 0.000(1) . . . . ?
C5 N1 C1 S1 180.000(0) . . . . ?
Si1 S1 C1 N1 0.000(0) . . . . ?
Si1 S1 C1 C2 180.000(0) . . . . ?
N1 C1 C2 C3 0.000(1) . . . . ?
S1 C1 C2 C3 180.000(1) . . . . ?
C1 C2 C3 C4 0.000(1) . . . . ?
C2 C3 C4 C5 0.000(1) . . . . ?
C1 N1 C5 C4 0.000(1) . . . . ?
C3 C4 C5 N1 0.000(1) . . . . ?
