#------------------------------------------------------------------------------
#$Date: 2022-07-28 01:06:24 +0300 (Thu, 28 Jul 2022) $
#$Revision: 276967 $
#$URL: file:///home/coder/svn-repositories/cod/cif/1/56/73/1567391.cif $
#------------------------------------------------------------------------------
#
# This file is available in the Crystallography Open Database (COD),
# http://www.crystallography.net/
#
# All data on this site have been placed in the public domain by the
# contributors.
#
data_1567391
loop_
_publ_author_name
'Hu, Yilei'
'Jiang, Xingxing'
'Wu, Tianhui'
'Xue, Yanyan'
'Wu, Chao'
'Huang, Zhipeng'
'Lin, Zheshuai'
'Xu, Jun'
'Humphrey, Mark G.'
'Zhang, Chi'
_publ_section_title
;
 Wide Bandgaps and Strong SHG Responses of Hetero-Oxyfluorides by
 Dual-Fluorination-Directed Bandgap Engineering
;
_journal_name_full               'Chemical Science'
_journal_paper_doi               10.1039/D2SC02137D
_journal_year                    2022
_chemical_formula_sum            'Cs2 F5 I O4 W'
_chemical_formula_weight         735.57
_space_group_crystal_system      orthorhombic
_space_group_IT_number           36
_space_group_name_Hall           'C 2c -2'
_space_group_name_H-M_alt        'C m c 21'
_audit_creation_method           SHELXL-2017/1
_audit_update_record
;
2022-04-02 deposited with the CCDC.	2022-07-26 downloaded from the CCDC.
;
_cell_angle_alpha                90
_cell_angle_beta                 90
_cell_angle_gamma                90
_cell_formula_units_Z            4
_cell_length_a                   12.1122(6)
_cell_length_b                   10.6192(6)
_cell_length_c                   7.8333(4)
_cell_measurement_reflns_used    2424
_cell_measurement_temperature    294(2)
_cell_measurement_theta_max      27.0656
_cell_measurement_theta_min      3.6438
_cell_volume                     1007.53(9)
_computing_structure_refinement  'SHELXL-2017/1 (Sheldrick, 2017)'
_diffrn_ambient_temperature      294(2)
_diffrn_measured_fraction_theta_full 0.998
_diffrn_measured_fraction_theta_max 0.998
_diffrn_measurement_device_type  'SADABS; Bruker, 2000''SADABS; Bruker, 2000'
_diffrn_radiation_type           MoK\a
_diffrn_radiation_wavelength     0.71073
_diffrn_reflns_av_R_equivalents  0.0342
_diffrn_reflns_av_unetI/netI     0.0498
_diffrn_reflns_Laue_measured_fraction_full 0.998
_diffrn_reflns_Laue_measured_fraction_max 0.998
_diffrn_reflns_limit_h_max       15
_diffrn_reflns_limit_h_min       -15
_diffrn_reflns_limit_k_max       10
_diffrn_reflns_limit_k_min       -13
_diffrn_reflns_limit_l_max       10
_diffrn_reflns_limit_l_min       -9
_diffrn_reflns_number            2933
_diffrn_reflns_point_group_measured_fraction_full 0.999
_diffrn_reflns_point_group_measured_fraction_max 0.999
_diffrn_reflns_theta_full        25.242
_diffrn_reflns_theta_max         27.083
_diffrn_reflns_theta_min         2.551
_exptl_absorpt_coefficient_mu    21.707
_exptl_crystal_colour            colorless
_exptl_crystal_density_diffrn    4.849
_exptl_crystal_description       rob-like
_exptl_crystal_F_000             1256
_refine_diff_density_max         1.367
_refine_diff_density_min         -1.188
_refine_diff_density_rms         0.265
_refine_ls_abs_structure_details
;
 Refined as an inversion twin.
;
_refine_ls_abs_structure_Flack   0.02(2)
_refine_ls_extinction_coef       0.0046(2)
_refine_ls_extinction_expression Fc^*^=kFc[1+0.001xFc^2^\l^3^/sin(2\q)]^-1/4^
_refine_ls_extinction_method     'SHELXL-2017/1 (Sheldrick 2017)'
_refine_ls_goodness_of_fit_ref   1.083
_refine_ls_hydrogen_treatment    undef
_refine_ls_matrix_type           full
_refine_ls_number_parameters     45
_refine_ls_number_reflns         1111
_refine_ls_number_restraints     1
_refine_ls_restrained_S_all      1.083
_refine_ls_R_factor_all          0.0291
_refine_ls_R_factor_gt           0.0279
_refine_ls_shift/su_max          0.001
_refine_ls_shift/su_mean         0.000
_refine_ls_structure_factor_coef Fsqd
_refine_ls_weighting_details
'w=1/[\s^2^(Fo^2^)+(0.0172P)^2^] where P=(Fo^2^+2Fc^2^)/3'
_refine_ls_weighting_scheme      calc
_refine_ls_wR_factor_gt          0.0599
_refine_ls_wR_factor_ref         0.0604
_reflns_Friedel_coverage         0.858
_reflns_Friedel_fraction_full    1.000
_reflns_Friedel_fraction_max     1.000
_reflns_number_gt                1085
_reflns_number_total             1111
_reflns_threshold_expression     'I > 2\s(I)'
_cod_data_source_file            d2sc02137d2.cif
_cod_data_source_block           2
_cod_database_code               1567391
_shelx_shelxl_version_number     2017/1
_shelx_space_group_comment
;
The symmetry employed for this shelxl refinement is uniquely defined
by the following loop, which should always be used as a source of
symmetry information in preference to the above space-group names.
They are only intended as comments.
;
_shelx_res_file
;
TITL 2 in Cmc2(1)                           New:Cmc21
    2.res
    created by SHELXL-2017/1 at 16:29:30 on 31-Mar-2022
CELL  0.71073   12.1122   10.6192    7.8333    90.000    90.000    90.000
ZERR        4    0.0006    0.0006    0.0004     0.000     0.000     0.000
LATT  -7
SYMM             - X ,            - Y ,    0.50000 + Z
SYMM             - X ,              Y ,              Z
SYMM               X ,            - Y ,    0.50000 + Z
SFAC Cs  F  I  O  W
UNIT     8    20   4  16   4
TEMP    21
L.S. 5
FMAP 2
PLAN -20
ACTA
CONF
TWIN
WGHT    0.017200
EXTI    0.004577
BASF   0.02474
FVAR       0.06867
RESI 0
W1    5    0.500000    1.180777    0.643472    10.50000    0.02791    0.01440 =
         0.01793   -0.00165    0.00000    0.00000
I1    3    0.500000    1.467376    0.939862    10.50000    0.02096    0.01442 =
         0.01661   -0.00390    0.00000    0.00000
O1    4    0.500000    1.352573    1.101756    10.50000    0.02711
F1    2    0.662966    1.463837    0.939049    11.00000    0.04090
O2    4    0.500000    1.380608    0.743902    10.50000    0.03722
F2    2    0.604630    1.264103    0.490985    11.00000    0.02908
O3    4    0.612612    1.154267    0.789129    11.00000    0.02387
F3    2    0.500000    1.036337    0.540615    10.50000    0.05039
CS1   1    0.813741    1.352746    0.665014    11.00000    0.02390    0.03616 =
         0.02590    0.00297    0.00277    0.00219
HKLF 4




REM  2 in Cmc2(1)                           New:Cmc21
REM R1 =  0.0279 for    1085 Fo > 4sig(Fo)  and  0.0291 for all    1111 data
REM     45 parameters refined using      1 restraints

END

WGHT      0.0100      0.0000

REM Highest difference peak  1.367,  deepest hole -1.188,  1-sigma level  0.265
Q1    1   0.5000  1.2778  0.6582  10.50000  0.05    1.37
Q2    1   0.3378  1.2298  0.1612  11.00000  0.05    1.06
Q3    1   0.5000  1.0380  0.6394  10.50000  0.05    1.03
Q4    1   0.4497  1.3742  0.7333  11.00000  0.05    0.98
Q5    1   0.4609  1.1002  0.6398  11.00000  0.05    0.96
Q6    1   0.5000  1.4380  0.4286  10.50000  0.05    0.91
Q7    1   0.3413  1.4854  0.8711  11.00000  0.05    0.91
Q8    1   0.4520  1.3590  0.5843  11.00000  0.05    0.84
Q9    1   0.6966  0.9481  0.6679  11.00000  0.05    0.82
Q10   1   0.1597  1.0898  0.4649  11.00000  0.05    0.81
Q11   1   0.3877  1.0542  1.1384  11.00000  0.05    0.78
Q12   1   0.4405  1.3979  0.4879  11.00000  0.05    0.76
Q13   1   0.5000  1.0572  1.0938  10.50000  0.05    0.72
Q14   1   0.4293  1.0172  0.6930  11.00000  0.05    0.71
Q15   1   0.4344  1.3090  0.8807  11.00000  0.05    0.70
Q16   1   0.3701  1.1237  0.7303  11.00000  0.05    0.69
Q17   1   0.5000  1.2662  0.1880  10.50000  0.05    0.68
Q18   1   0.3439  1.1286  0.1684  11.00000  0.05    0.66
Q19   1   0.4295  1.2121  1.1000  11.00000  0.05    0.66
Q20   1   0.3808  1.3250  0.4735  11.00000  0.05    0.65
;
_shelx_res_checksum              35923
_shelx_hkl_file
;
   0   2   0   60.08    4.01
   0  -2   0   61.99    4.08
   0  -4   0  150.37    9.35
   0  -6   0  604.49   30.13
   0  -8   0   20.51    3.58
   0  -8   0   21.34    3.91
   0 -10   0  115.19    9.79
   0 -12   0    0.79    1.53
   1   1   0    0.35    0.25
  -1  -3   0  621.08   26.24
   1  -3   0  550.94   27.02
  -1   3   0  609.27   27.36
  -1  -3   0  569.69   26.41
  -1  -5   0   47.80    4.41
   1  -5   0   48.25    5.04
  -1  -5   0   47.53    4.73
  -1   5   0   50.39    5.09
  -1  -7   0   21.71    3.55
   1  -7   0   10.60    2.77
  -1  -7   0   16.15    2.89
  -1  -9   0   80.98    8.06
   1  -9   0   83.77    8.38
  -1  -9   0   77.91    7.38
   1  -9   0   78.50    7.84
  -1 -11   0  116.34   12.90
  -1 -11   0  116.83   10.69
   1 -11   0   99.81   10.12
  -1 -13   0   -0.80    2.08
   1 -13   0    0.92    1.84
  -2   0   0  233.20   10.53
   2   0   0  255.77   10.45
  -2  -2   0   11.25    1.03
  -2   2   0   12.80    1.79
   2  -2   0   10.39    1.57
   2   2   0   11.02    1.12
  -2  -4   0  192.74   10.82
  -2  -4   0  205.63   10.38
   2  -6   0   47.19    5.34
  -2  -6   0   47.23    4.84
  -2  -6   0   42.70    4.19
  -2   6   0   42.73    5.13
  -2  -8   0  196.54   12.43
  -2  -8   0  203.26   13.58
   2  -8   0  188.14   13.72
   2 -10   0   35.59    5.42
   2 -10   0   37.46    5.78
  -2 -10   0   37.06    5.49
  -2 -10   0   40.83    7.25
   2 -12   0    1.75    1.92
  -2 -12   0   -1.06    1.05
   3   1   0  225.29    9.52
  -3   1   0  209.32   10.37
  -3  -1   0  233.53    9.53
   3  -1   0  211.11   10.19
  -3  -3   0    8.18    1.01
  -3   3   0    5.70    1.61
   3   3   0    9.02    1.22
   3  -3   0    9.75    1.76
  -3   5   0  116.76    8.85
  -3  -5   0  117.43    6.87
  -3  -5   0  108.24    7.51
   3  -5   0  108.69    8.37
  -3   7   0  306.55   18.09
  -3  -7   0  285.80   16.60
  -3  -7   0  271.24   15.14
   3  -7   0  273.82   17.25
  -3  -9   0    4.76    2.16
  -3  -9   0    3.05    1.66
   3  -9   0    1.92    1.56
  -3 -11   0  232.61   15.41
   3 -11   0  248.99   17.50
  -3 -11   0  247.65   17.01
   3 -13   0   14.78    4.42
  -3 -13   0   18.81    4.50
  -4   0   0  380.68   16.90
   4   0   0  397.97   16.75
  -4  -2   0   12.71    1.05
   4   2   0   12.51    1.10
   4  -2   0   12.14    1.65
  -4   2   0   11.45    1.78
  -4   4   0    4.41    1.73
   4  -4   0    5.00    1.63
  -4  -4   0    6.44    1.03
  -4   6   0  179.87   12.59
  -4  -6   0  176.23   11.04
  -4  -6   0  180.10    9.94
   4  -6   0  181.43   12.25
  -4  -8   0  121.66    8.44
   4  -8   0  121.96   10.31
  -4  -8   0  125.60    9.76
   4 -10   0    1.05    1.56
  -4 -10   0    3.40    1.73
  -4 -10   0    3.48    2.34
  -4 -12   0    2.87    2.26
   4 -12   0   -0.01    1.62
  -5   1   0   23.00    2.28
   5   1   0   24.42    1.68
  -5  -1   0   29.05    1.81
   5  -1   0   25.25    2.09
  -5  -3   0  844.36   33.60
  -5   3   0  750.48   36.26
   5  -3   0  749.44   35.47
   5   3   0  823.30   33.89
  -5  -5   0   40.82    3.12
   5  -5   0   38.61    4.55
  -5   5   0   40.47    4.95
   5  -7   0   40.90    5.29
  -5  -7   0   39.68    4.65
  -5  -7   0   36.81    3.67
  -5   7   0   45.78    5.85
   5  -9   0   66.92    7.45
  -5  -9   0   52.76    5.20
  -5  -9   0   69.25    6.92
  -5 -11   0   46.51    5.81
  -5 -11   0   38.23    5.02
   5 -11   0   51.68    6.42
   6   0   0 1000.00   40.19
  -6   0   0  903.89   40.44
  -6  -2   0    3.20    0.57
   6   2   0    3.10    0.55
   6  -2   0    1.91    0.78
  -6  -4   0   49.70    3.14
   6   4   0   47.81    3.51
   6  -4   0   45.11    4.53
  -6  -6   0  379.38   19.24
  -6  -6   0  376.42   17.68
  -6   6   0  375.49   21.74
   6  -6   0  374.91   20.77
  -6  -8   0   40.28    3.98
  -6   8   0   37.48    6.26
   6  -8   0   43.03    5.74
  -6  -8   0   43.10    5.11
  -6 -10   0   29.43    3.93
   6 -10   0   29.77    5.28
  -6 -10   0   38.60    5.08
   6 -12   0    1.16    1.92
  -6 -12   0   -1.45    1.90
   7  -1   0   66.58    4.23
  -7  -1   0   66.23    3.91
   7   1   0   63.88    3.66
  -7   1   0   69.42    4.83
  -7  -3   0  156.61    7.65
   7   3   0  160.30    7.92
   7  -3   0  161.38    9.46
  -7   3   0  165.32   10.49
   7  -5   0   38.82    4.45
  -7  -5   0   31.88    2.62
  -7   5   0   34.13    4.77
   7  -7   0   29.81    4.48
  -7  -7   0   30.15    3.89
  -7  -7   0   34.40    3.67
  -7   7   0   37.62    5.58
   7  -9   0   10.39    3.62
  -7  -9   0    6.51    1.94
   7 -11   0  108.68   10.47
  -7 -11   0  105.17    8.28
  -7 -11   0  112.74    9.91
   8   0   0   51.70    3.36
  -8   0   0   50.58    3.80
   8  -2   0    8.16    1.41
  -8   2   0    8.50    2.29
  -8  -2   0    6.81    1.00
   8   2   0    8.01    1.02
   8   4   0  174.71    9.20
   8  -4   0  177.54   10.94
  -8   4   0  196.38   12.49
  -8  -4   0  176.32    8.72
  -8   6   0    4.38    2.32
  -8  -6   0    4.35    1.15
   8  -6   0    6.96    2.51
   8  -8   0  120.89   10.24
  -8   8   0  127.72   11.53
  -8  -8   0  116.03    7.42
  -8  -8   0  117.81    9.01
   8 -10   0   35.24    5.80
  -8 -10   0   31.68    4.98
  -8 -10   0   30.14    3.78
  -9  -1   0   19.66    1.98
   9   1   0   18.53    1.77
  -9   1   0   19.60    2.69
   9  -1   0   19.95    2.89
   9  -3   0   68.04    5.19
   9   3   0   62.82    3.94
  -9  -3   0   62.79    3.85
  -9   3   0   62.16    6.17
   9  -5   0   27.43    3.62
  -9   5   0   27.55    4.71
  -9  -5   0   26.55    2.28
  -9   7   0   20.15    5.02
  -9  -7   0   26.26    3.53
  -9  -7   0   26.91    2.94
   9  -7   0   29.81    4.42
  -9  -9   0   11.60    2.11
   9  -9   0   14.09    3.86
   9 -11   0  100.45    9.46
  -9 -11   0   99.27   12.11
  -9 -11   0   80.46    6.81
 -10   0   0  541.83   25.59
  10   0   0  557.91   24.43
 -10  -2   0   21.77    1.96
  10  -2   0   19.54    2.33
 -10   2   0   21.58    3.23
  10   2   0   17.43    1.75
  10   4   0   15.90    1.79
  10  -4   0   14.65    2.59
 -10   4   0   15.71    3.91
 -10  -4   0   13.55    1.54
 -10   6   0  170.37   17.68
 -10  -6   0  153.22    8.19
  10  -6   0  158.52   11.21
 -10  -8   0   16.61    3.09
  10  -8   0   16.30    4.54
 -10  -8   0   21.04    2.03
  10 -10   0   29.93    4.30
 -10 -10   0   27.44    3.51
  11   1   0   16.10    1.80
 -11   1   0   19.58    3.32
 -11  -1   0   15.97    2.20
  11  -1   0   16.35    2.00
 -11   3   0  412.97   21.64
  11   3   0  378.60   17.42
  11  -3   0  375.85   19.08
 -11  -3   0  369.97   17.51
  11  -5   0    6.49    2.13
 -11   5   0    3.73    2.14
  11  -7   0   38.64    5.14
 -11  -7   0   35.25    3.99
 -11  -7   0   35.56    2.85
  11  -9   0   27.06    4.90
 -11  -9   0   32.95    4.33
 -11  -9   0   32.26    3.10
  12   0   0  179.25    9.79
 -12   0   0  208.12   11.59
 -12  -2   0    6.65    1.20
 -12   4   0    8.36    2.75
  12  -4   0   11.64    1.81
  12  -6   0   51.73    5.45
 -12   6   0   50.51    7.22
 -12  -6   0   44.33    3.23
 -12  -6   0   41.33    4.04
 -12  -8   0   16.69    3.27
  13  -1   0   55.43    4.38
 -13  -1   0   56.72    4.90
  13   1   0   55.82    3.97
 -13   1   0   67.63    6.25
 -13   3   0    4.29    2.75
  13  -3   0    4.08    1.35
  13   3   0    2.73    0.90
 -13   5   0    1.40    2.65
  13  -5   0   12.14    2.21
  13  -7   0   37.40    5.23
 -14   2   0   10.69    2.82
  14  -2   0    7.42    1.53
 -14   4   0   34.07    6.10
  15  -1   0    1.59    1.12
 -15  -1   0    4.83    2.03
 -15   1   0    5.48    1.93
  15   1   0    0.69    0.77
  15  -3   0   55.67    5.09
   0  -2   1   91.93    5.32
   0  -2  -1  111.41    5.48
   0   2  -1  112.69    5.57
   0   2   1   90.46    5.28
   0   4  -1  113.15    7.44
   0  -4  -1  113.73    7.18
   0  -6  -1  428.74   21.52
   0  -6  -1  401.83   21.56
   0  -6   1  399.76   22.24
   0   6  -1  431.93   22.04
   0  -8  -1   99.40    8.42
   0  -8  -1  104.59    8.94
   0  -8   1  108.13    9.48
   0 -10   1  135.71   10.81
   0 -10  -1  116.20   10.76
   0 -10  -1  123.92   10.42
   0 -10   1  150.94   14.29
   0 -12   1  200.89   15.75
   0 -12  -1  187.79   14.94
  -1  -1   1  122.77    5.24
   1   1   1  124.09    5.57
  -1   1  -1  111.65    5.60
   1  -1  -1  112.37    5.59
   1   1  -1  111.85    5.40
  -1  -1  -1  114.31    5.52
  -1   1   1  118.86    5.66
   1  -1   1  119.98    5.67
   1  -3  -1  183.40    9.67
  -1  -3   1  153.98    9.20
  -1   3  -1  190.95    9.66
   1   3   1  172.40    8.90
   1   3  -1  176.74    9.40
  -1  -3  -1  191.38    9.02
   1  -3   1  163.37    9.40
  -1   5  -1   45.24    4.60
  -1  -5   1   33.08    4.13
   1  -5  -1   51.55    4.74
   1  -5  -1   44.53    4.53
   1  -5   1   36.67    4.39
  -1  -5  -1   47.05    4.09
   1   5  -1   46.20    4.47
   1  -7  -1  138.18   10.16
  -1   7  -1  130.43   10.07
   1  -7  -1  129.33    9.75
  -1  -7  -1  128.68    9.19
  -1  -7  -1  130.31    9.65
  -1  -9   1  192.85   14.10
   1  -9  -1  191.43   13.77
  -1  -9   1  174.05   12.48
   1  -9  -1  182.21   13.17
  -1  -9  -1  187.04   12.74
  -1  -9  -1  183.42   13.26
   1  -9   1  193.40   14.24
   1 -11  -1   15.65    4.16
  -1 -11   1   18.70    4.43
  -1 -11   1   19.42    4.88
   1 -11   1   22.06    5.58
  -1 -11  -1   18.49    4.87
  -1 -13   1   50.82    7.31
   1 -13  -1   51.52   13.77
   1 -13   1   46.00    7.24
  -1 -13  -1   44.95    6.69
  -2   0   1    2.49    0.37
   2   0  -1    1.49    0.25
   2  -2  -1  485.71   24.66
  -2  -2   1  480.98   23.68
  -2   2  -1  581.84   24.49
   2   2   1  623.15   24.03
   2  -2  -1  536.96   24.92
   2   2  -1  518.42   23.86
   2  -2   1  576.84   24.55
  -2  -2  -1  636.72   23.98
   2   4   1  406.12   17.95
   2  -4  -1  358.35   19.03
  -2  -4   1  347.98   18.62
   2  -4  -1  369.81   19.25
  -2  -4  -1  392.47   17.70
   2  -4   1  390.59   19.11
   2  -6  -1   78.56    6.90
   2  -6  -1   73.11    6.67
  -2  -6   1   69.05    6.47
  -2   6  -1   78.38    6.71
  -2  -6  -1   64.93    7.27
   2  -6   1   69.04    6.73
   2  -8  -1  228.57   15.45
  -2  -8   1  236.57   14.30
   2  -8  -1  233.88   15.35
  -2   8  -1  233.44   15.64
  -2  -8   1  244.89   15.84
  -2  -8  -1  243.59   15.10
  -2  -8  -1  241.51   14.15
   2  -8   1  229.78   15.89
  -2 -10   1   61.79    6.52
   2 -10  -1   52.00    6.71
  -2 -10  -1   50.41    5.94
  -2 -12   1   15.80    4.90
   2 -12  -1   26.45    4.83
   2 -12   1   18.30    5.22
  -2 -12  -1   24.05    5.01
  -3   1  -1  630.14   28.15
   3   1   1  672.49   27.87
  -3  -1  -1  664.68   27.85
   3  -1   1  655.66   28.16
   3   3   1   22.67    2.12
  -3   3  -1   33.23    3.03
   3  -3  -1   30.28    3.23
  -3  -3   1   20.52    2.33
  -3  -3   1   27.49    2.10
   3  -3   1   24.28    2.66
  -3  -3  -1   32.04    2.30
  -3  -5   1  398.34   22.83
  -3   5  -1  507.94   29.47
   3  -5  -1  464.17   23.93
   3   5   1  473.19   22.18
  -3  -5   1  491.73   22.08
   3  -5   1  441.60   23.50
  -3  -5  -1  506.36   21.94
  -3   7  -1  173.21   12.23
  -3  -7   1  171.51   11.05
   3  -7  -1  174.44   12.34
  -3  -7   1  180.54   12.19
   3  -7   1  177.71   12.58
  -3  -7  -1  157.97   10.96
  -3  -7  -1  166.04   10.34
  -3  -9   1   37.27    5.57
  -3  -9   1   34.50    4.60
   3  -9  -1   46.33    6.00
  -3   9  -1   48.78    6.51
   3  -9   1   41.36    5.92
  -3  -9  -1   50.15    5.28
  -3  -9  -1   46.21    5.58
  -3 -11   1   35.61    5.64
   3 -11  -1   40.87    6.04
  -3 -11   1   28.38    4.66
  -3 -11  -1   34.15    5.52
   3 -11   1   34.73    5.78
   3 -13  -1    6.19    3.16
  -3 -13   1    9.04    3.96
   3 -13   1   10.51    4.27
  -3 -13  -1    6.65    3.27
  -4   0  -1    0.27    0.27
  -4   0   1    1.31    0.58
   4   0  -1    0.87    0.32
   4   2   1  186.18    9.18
  -4   2  -1  201.39   10.05
   4  -2  -1  210.84   10.63
   4  -2   1  183.54    9.81
  -4   2   1  172.95   10.83
  -4  -2  -1  214.00    9.26
   4  -4  -1  146.10    9.71
  -4  -4   1  143.51    8.81
  -4   4  -1  151.89    9.47
  -4  -4   1  160.90    7.67
   4   4   1  155.66    8.19
   4  -4   1  152.21    9.44
  -4  -4  -1  142.78    7.81
   4  -6  -1  134.84   10.00
  -4   6  -1  142.06   10.15
  -4  -6   1  131.61    7.93
  -4  -6   1  126.26    9.35
   4  -6   1  127.30    9.72
  -4  -8   1   73.83    7.43
   4  -8  -1   77.60    7.86
  -4   8  -1   95.39    8.73
  -4  -8   1   66.75    5.90
   4  -8  -1   71.11    7.53
  -4  -8  -1   70.04    6.07
  -4  -8  -1   83.31    7.23
   4 -10  -1   58.22    7.13
  -4 -10   1   75.16    6.59
   4 -10   1   76.57    8.33
  -4 -10  -1   60.68    7.20
  -4 -10  -1   49.72    5.75
   4 -12  -1   49.44    6.95
  -4 -12  -1   59.01    6.89
   4 -12   1   47.53    6.88
   5  -1  -1   32.55    2.55
  -5   1  -1   33.48    2.75
   5   1   1   36.03    2.46
  -5   1   1   36.51    3.40
  -5  -1  -1   30.00    2.31
   5  -1   1   37.58    2.74
   5   3   1   95.12    5.25
  -5  -3   1   84.69    5.17
   5  -3  -1   94.99    6.59
  -5   3  -1   87.01    6.20
  -5  -3   1   89.23    4.28
  -5  -3  -1   92.74    5.09
   5  -3   1   88.28    6.07
  -5   3   1   91.69    7.35
   5  -5  -1  158.79   10.52
   5   5   1  136.29    8.39
  -5   5  -1  164.45   10.56
  -5  -5   1  134.32    9.16
  -5  -5   1  144.38    7.68
  -5  -5  -1  161.85    8.29
   5  -5   1  144.03    9.95
  -5  -7   1   82.71    7.17
  -5  -7   1   77.49    5.37
  -5   7  -1   58.33    6.78
   5  -7  -1   64.15    6.82
   5  -7   1   76.54    7.36
  -5  -7  -1   59.27    5.13
   5  -9  -1  282.26   18.79
  -5  -9   1  242.68   14.61
  -5  -9   1  271.35   17.16
   5  -9  -1  279.13   17.92
  -5  -9  -1  274.09   15.39
   5  -9   1  262.69   17.75
  -5  -9  -1  266.28   16.65
   5 -11  -1   32.26    5.51
  -5 -11   1   20.86    3.84
   5 -11   1   27.07    5.29
  -5 -11  -1   36.57    5.16
  -6   0  -1    2.55    0.80
   6   0  -1    0.80    0.31
  -6   0   1    0.29    0.55
   6   2   1   59.79    4.07
   6  -2  -1   81.48    5.12
  -6   2  -1   80.65    5.22
  -6   2   1   62.24    5.72
   6  -2   1   59.78    4.89
  -6  -2  -1   79.23    4.27
  -6  -4   1   62.30    4.55
  -6  -4   1   59.55    3.33
   6   4   1   60.50    4.24
  -6   4   1   73.88    6.89
   6  -4   1   59.52    5.23
  -6  -6   1  267.20   15.24
   6  -6  -1  284.74   16.57
  -6  -6   1  274.81   13.15
   6   6   1  253.85   14.22
  -6   6  -1  276.20   16.70
   6  -6   1  261.92   16.10
  -6  -6  -1  281.08   13.91
  -6  -8   1   55.58    4.70
  -6   8  -1   72.42    7.72
  -6  -8   1   65.91    6.56
   6  -8  -1   64.70    7.07
  -6  -8  -1   56.20    5.04
   6  -8   1   55.60    9.27
  -6  -8  -1   68.35    6.39
  -6 -10   1   78.27    6.34
   6 -10  -1   69.01    7.86
   6 -10   1   80.79    8.69
  -6 -10  -1   60.48    6.07
  -6 -10  -1   64.16    7.12
  -6 -12   1   96.23    9.43
   6 -12   1   85.57    9.80
  -6 -12  -1  100.53    9.79
   7   1   1  235.06   10.91
   7  -1  -1  223.77   10.82
  -7  -1   1  224.31   10.77
  -7   1  -1  224.82   11.59
  -7   1   1  231.79   12.70
  -7  -1  -1  221.91   10.95
  -7   3  -1   36.43    3.81
   7  -3  -1   35.37    3.57
   7   3   1   31.28    2.71
   7  -3   1   31.32    3.36
  -7  -3  -1   40.55    2.80
  -7   3   1   34.66    4.56
  -7  -5   1  158.07    7.98
   7  -5  -1  183.56   11.50
  -7   5  -1  172.68   11.61
   7   5   1  155.56    9.24
  -7  -5   1  158.11    9.63
  -7   5   1  172.94   12.69
   7  -5   1  172.90   11.11
  -7  -5  -1  176.32    9.02
  -7   7  -1  104.86    9.50
  -7  -7   1  116.99    6.55
   7  -7  -1  100.49    9.05
  -7  -7   1  126.61    8.75
  -7  -7  -1   96.61    6.85
   7  -9  -1   64.27    7.31
  -7  -9   1   47.96    4.40
  -7  -9   1   48.11    5.85
  -7  -9  -1   53.88    5.09
   7  -9   1   53.95    6.81
  -7  -9  -1   59.25    6.26
   7 -11  -1   15.28    4.67
  -7 -11   1   21.51    4.10
  -7 -11  -1   14.93    4.00
   7 -11   1   16.23    5.31
   8   0  -1    0.34    0.26
  -8   0  -1    0.83    0.55
   8   0   1   -0.19    0.21
  -8   0   1   -0.74    0.54
   8   2   1  525.10   22.64
  -8   2  -1  490.89   26.60
   8  -2  -1  502.65   23.14
  -8   2   1  489.06   25.44
   8  -2   1  503.27   23.43
  -8  -2  -1  517.22   22.57
  -8   4  -1  267.86   15.97
   8   4   1  288.48   13.88
   8  -4  -1  273.13   15.35
  -8   4   1  318.08   18.20
  -8  -4  -1  272.95   13.44
   8  -4   1  282.95   15.40
  -8   6  -1   46.21    5.56
   8   6   1   36.25    3.78
  -8  -6   1   34.06    3.96
  -8  -6   1   38.52    2.80
   8  -6  -1   48.12    5.30
  -8  -6  -1   47.09    3.55
   8  -6   1   42.13    5.10
  -8   8  -1  184.98   15.85
  -8  -8   1  181.70   11.79
   8  -8  -1  178.13   12.96
   8  -8   1  190.82   13.64
  -8  -8  -1  163.48   10.22
   8 -10  -1   34.06    5.04
  -8 -10   1   32.46    3.66
  -8 -10  -1   27.79    4.71
   8 -10   1   35.65    5.54
  -8 -10  -1   21.91    3.56
   9  -1  -1  212.25   10.39
  -9   1  -1  205.94   12.63
   9   1   1  214.26   10.65
  -9  -1   1  214.62   10.92
   9  -1   1  213.35   11.02
  -9   1   1  213.56   12.62
   9   1  -1  216.69    9.57
  -9  -1  -1  209.96   10.82
   9  -3  -1   23.81    2.85
   9   3   1   21.65    2.29
  -9   3  -1   23.85    3.37
  -9  -3  -1   22.03    2.20
  -9   3   1   24.93    7.26
   9  -3   1   21.55    2.82
   9   5   1  115.04    7.16
   9  -5  -1  125.53    8.69
  -9   5  -1  111.10    9.27
  -9   5   1  120.91   10.60
   9  -5   1  110.56    8.36
  -9  -5  -1  105.70    6.60
  -9  -7   1   70.33    5.76
   9  -7  -1   56.11    7.80
  -9   7  -1   62.02    7.42
  -9  -7   1   73.09    4.28
  -9  -7  -1   64.72    4.82
   9  -7   1   75.62    7.29
  -9  -9   1   23.66    3.71
  -9  -9   1   25.01    2.37
   9  -9  -1   25.18    4.45
  -9  -9  -1   24.06    3.29
   9  -9   1   24.64    4.43
  -9  -9  -1   21.61    3.88
  -9 -11   1    7.74    2.36
   9 -11  -1   13.45    3.73
  -9 -11   1   12.48    2.67
   9 -11   1    9.13    3.30
  -9 -11  -1    8.36    3.00
  10   0  -1    0.40    0.32
 -10   0   1    0.74    0.95
  10   0   1    0.26    0.42
  10  -2  -1    8.02    1.53
 -10   2   1    5.75    2.20
  10  -2   1    4.64    1.45
 -10  -2  -1   10.14    1.51
  10  -4  -1   23.94    3.21
 -10   4  -1   19.21    3.62
  10   4   1   29.69    2.85
 -10   4   1   34.47    5.08
  10  -4   1   29.96    3.59
  10   6   1   81.69    6.12
 -10   6  -1   85.04    8.54
  10  -6  -1   84.56    7.53
 -10  -6  -1   80.72    5.41
  10  -6   1   76.66    7.53
 -10  -8   1   22.67    2.21
  10  -8  -1   20.56    4.09
 -10  -8  -1   20.18    2.79
  10  -8   1   24.09    4.11
 -10 -10   1   29.54    3.20
  10 -10  -1   36.76    5.64
 -10 -10   1   32.92    4.62
 -10 -10  -1   33.29    6.63
 -10 -10  -1   22.54    3.58
 -11   1  -1    4.92    1.60
  11  -1  -1    2.61    1.00
  11   1   1    2.61    0.77
 -11  -1  -1    3.43    1.13
  11  -1   1    2.52    1.04
 -11   1   1    3.87    1.72
  11   3   1   50.97    3.99
  11  -3  -1   55.21    4.55
 -11   3  -1   57.51    5.75
  11  -3   1   42.62    4.43
 -11  -3  -1   53.52    3.85
 -11   3   1   50.44    6.19
  11   5   1   31.10    3.34
  11  -5  -1   44.27    4.57
 -11   5  -1   38.30    5.51
  11  -5   1   30.00    4.12
 -11  -5  -1   38.56    3.19
  11  -7  -1   32.54    4.19
  11  -7   1   38.09    5.07
 -11  -7  -1   26.82    2.74
 -11  -9   1  104.33    8.11
 -11  -9   1   91.16    5.63
  11  -9  -1  105.34    9.34
  11  -9   1  106.29    9.58
 -11  -9  -1   87.95    6.80
 -11  -9  -1   98.53    8.01
  12   0   1   -0.57    0.56
 -12   0  -1    1.43    0.89
  12   0  -1   -0.29    0.46
 -12   0   1    0.42    1.01
  12  -2  -1   38.36    3.31
  12   2   1   32.01    3.04
 -12   2  -1   31.00    4.36
 -12  -2  -1   36.98    3.44
  12  -2   1   34.04    3.35
 -12   2   1   42.84    4.95
  12  -4  -1   29.54    3.68
  12   4   1   39.69    3.49
 -12   4  -1   35.13    7.26
  12  -4   1   41.93    4.39
 -12  -4  -1   34.99    2.99
  12   6   1   39.73    4.24
  12  -6  -1   45.50    5.25
 -12  -6  -1   50.51    3.74
  12  -6   1   39.31    5.01
  12  -8  -1   30.31    4.70
 -12  -8  -1   24.06    3.05
 -12  -8  -1   28.87    3.49
  12  -8   1   19.93    4.62
  13  -1  -1  111.94    6.40
  13   1   1  111.10    6.91
 -13   1  -1  112.65    8.51
  13  -1   1  114.97    7.36
 -13  -1  -1   98.82    7.35
  13  -3  -1   10.31    1.72
 -13   3  -1    7.51    2.81
  13   3   1    7.04    1.75
  13  -3   1    7.02    2.08
 -13  -3  -1    7.60    1.88
  13  -5  -1  115.46    8.40
  13   5   1  103.68    7.07
  13  -5   1  108.16    8.56
 -13  -5  -1  103.23    6.63
  13  -7  -1   38.72    4.80
  13  -7   1   39.33    5.36
 -13  -7  -1   28.38    3.07
 -14   0  -1    7.99    1.81
  14   2   1   92.24    6.26
 -14   2  -1  105.26    8.61
  14  -2  -1   87.09    6.03
 -14  -2  -1   97.96    6.92
  14  -2   1   97.15    6.90
  14  -4  -1   47.00    4.67
 -14   4  -1   61.60    8.80
  14   4   1   50.43    4.24
 -14  -4  -1   47.86    4.17
  14  -4   1   50.65    5.06
 -15   1  -1    4.09    2.92
  15  -1  -1    2.61    1.21
 -15  -1  -1    4.43    2.17
  15   3   1    2.91    1.41
 -15   3  -1    2.61    3.28
  15  -3   1    3.55    1.80
 -15  -3  -1    6.52    1.88
   0   0   2  563.71   25.50
   0   0  -2  637.35   25.61
   0   2   2  558.44   24.79
   0  -2   2  580.64   24.64
   0   2  -2  566.25   24.67
   0   4  -2  647.87   29.87
   0  -4   2  666.08   29.95
   0   4   2  660.09   30.58
   0  -4  -2  665.67   29.80
   0  -6  -2  364.87   18.94
   0   6  -2  366.34   21.47
   0  -6   2  352.48   19.50
   0  -8  -2   35.40    4.80
   0  -8   2   32.42    4.96
   0   8  -2   33.53    4.72
   0  -8  -2   38.71    4.56
   0 -10  -2    5.23    2.36
   0 -10   2    3.76    3.19
   0 -10  -2    7.94    2.95
   0 -12   2   52.87    7.62
   0 -12  -2   52.45    7.50
   1  -1  -2  437.31   20.12
  -1  -1   2  497.64   19.99
   1   1   2  485.16   20.42
  -1   1  -2  486.44   20.40
   1  -1   2  485.26   20.38
   1   1  -2  453.91   19.92
  -1  -1  -2  455.07   20.31
  -1   1   2  435.33   20.16
  -1  -3   2  148.48    7.50
   1   3   2  147.20    7.71
   1  -3  -2  140.24    7.91
  -1   3  -2  133.52    7.70
   1   3  -2  141.29    7.64
  -1  -3  -2  141.34    7.66
   1  -3   2  151.36    7.94
  -1   3   2  145.68    7.94
   1   5   2  256.49   13.27
  -1  -5   2  251.52   13.66
   1  -5  -2  246.15   13.86
  -1   5  -2  233.79   13.53
   1   5  -2  226.87   13.39
  -1  -5  -2  256.22   13.21
   1  -5   2  261.19   14.12
   1  -7  -2   15.92    3.07
  -1   7  -2   17.54    3.24
   1  -7  -2   18.72    3.28
  -1  -7   2   19.11    3.41
   1  -7   2   18.40    3.44
  -1  -7  -2   17.07    2.86
   1   7  -2   18.50    3.17
   1  -9  -2   95.56    8.99
  -1   9  -2  105.73    9.22
  -1  -9   2  104.12    9.57
   1  -9  -2   95.06    9.45
  -1  -9  -2   98.04    8.99
   1  -9   2  108.54    9.92
  -1  -9  -2   92.76    8.51
  -1 -11   2   16.18    4.77
  -1 -11   2   23.26    4.16
   1 -11  -2   30.37    4.90
  -1 -11  -2   28.89    4.71
   1 -11   2   31.38    4.47
  -1 -13   2   45.56    6.33
   1 -13  -2   36.09    5.95
   1 -13   2   40.56    6.81
  -1 -13  -2   37.05    6.52
  -2   0  -2  166.36    8.23
   2   0  -2  178.10    7.80
  -2  -2   2  181.79    7.90
   2  -2  -2  163.16    8.62
   2   2   2  179.49    8.59
  -2   2  -2  167.16    8.69
  -2   2   2  176.09    8.81
  -2  -2  -2  169.47    8.49
   2  -2   2  176.31    8.79
   2   2  -2  164.62    8.01
  -2   4  -2   11.88    1.92
   2   4   2   10.98    1.64
  -2  -4   2   10.28    1.57
   2  -4  -2   11.42    1.99
  -2  -4  -2   10.16    1.55
   2  -4   2   11.08    1.92
   2   4  -2    9.66    1.69
   2  -6  -2   17.89    3.10
   2  -6  -2   21.38    3.38
  -2   6  -2   19.12    3.13
  -2  -6  -2   20.33    2.75
   2   6  -2   21.77    2.92
  -2  -8   2  149.70   11.83
  -2   8  -2  162.09   11.94
   2  -8  -2  157.88   11.89
   2  -8  -2  159.93   11.86
   2  -8   2  177.05   12.78
  -2  -8  -2  159.27   11.35
  -2  -8  -2  151.13   10.57
   2 -10  -2  116.66   10.70
  -2 -10   2  127.18   11.14
  -2 -10   2  118.82    9.74
  -2 -10  -2  107.30    9.43
   2 -10   2  130.00   11.52
  -2 -10  -2  116.61   10.33
  -2 -12   2   47.45    6.94
   2 -12  -2   37.81    6.10
  -2 -12  -2   34.35    5.84
   2 -12   2   43.95    6.98
  -3  -1   2    3.60    0.42
   3   1   2    3.87    0.77
   3  -1   2    3.78    0.78
  -3   1   2    4.75    0.85
  -3  -3   2  135.46    7.25
   3  -3  -2  174.48    9.30
  -3   3  -2  163.66    8.73
   3   3   2  138.69    7.99
  -3  -3  -2  167.25    8.19
   3  -3   2  143.91    9.45
   3   3  -2  162.36    8.07
   3  -5  -2  212.18   13.32
  -3  -5   2  225.98   12.36
   3  -5  -2  232.62   13.91
  -3   5  -2  221.32   13.05
   3   5   2  238.05   12.33
   3   5  -2  236.23   12.51
  -3  -5  -2  239.24   13.26
   3  -5   2  234.35   13.51
   3  -7  -2  142.63   10.92
   3  -7  -2  143.26   10.65
  -3   7  -2  140.57   10.54
  -3  -7   2  123.94    9.92
   3  -7   2  140.83   10.79
  -3  -7  -2  149.56    9.37
  -3   9  -2   19.31    4.78
  -3  -9   2   10.71    3.50
  -3  -9   2   21.44    3.34
   3  -9  -2   18.01    4.71
   3  -9   2   16.27    7.40
  -3  -9  -2   16.74    3.08
  -3  -9  -2   17.97    3.29
  -3 -11   2  120.96   11.20
   3 -11  -2  101.65   10.18
  -3 -11   2  102.97    9.11
   3 -11   2  110.33   11.13
  -3 -11  -2  106.32   10.04
  -3 -13   2  106.74   11.02
   3 -13  -2   97.28   10.82
   3 -13   2  111.69   11.44
  -3 -13  -2  116.98   17.62
   4   0  -2  161.06    7.01
   4   0   2  143.28    7.84
  -4   0  -2  163.65    8.01
   4  -2  -2  282.89   14.04
  -4   2  -2  294.07   14.01
   4  -2  -2  252.75   14.06
   4   2   2  306.57   13.59
  -4  -2  -2  280.02   13.40
   4  -2   2  305.38   15.03
  -4  -4   2   46.85    3.26
   4  -4  -2   46.08    4.61
   4   4   2   47.04    3.71
   4  -4  -2   48.79    4.91
   4  -4   2   43.60    4.19
  -4  -4  -2   49.88    3.70
  -4  -6   2   79.05    5.83
   4  -6  -2   93.35    8.07
   4  -6  -2   98.83    7.90
  -4  -6   2   65.37    6.03
  -4   6  -2   88.55    7.33
   4   6   2   75.65    5.99
   4  -6   2   74.92    7.04
  -4  -6  -2   96.51    6.15
   4  -8  -2   86.21    8.45
   4  -8  -2   95.17    8.59
  -4  -8   2   82.01    6.61
  -4   8  -2   88.91    8.42
  -4  -8  -2   88.66    6.99
   4  -8   2   73.57    8.04
  -4 -10   2   31.66    5.15
   4 -10  -2   28.04    4.99
  -4 -10   2   23.64    3.93
  -4 -10  -2   29.14    4.84
  -4 -10  -2   17.89    3.59
   4 -10   2   30.36    5.42
  -4 -12   2   32.41    5.86
   4 -12   2   43.46    7.00
  -4 -12  -2   34.49    6.06
   5  -1  -2  506.94   22.57
  -5   1  -2  536.29   23.16
   5   1   2  533.80   22.83
   5  -1  -2  454.58   22.86
   5  -1   2  519.68   25.43
  -5  -1  -2  520.90   22.75
   5  -3  -2  334.82   17.74
  -5   3  -2  357.81   17.82
   5   3   2  351.49   16.45
   5  -3  -2  341.89   18.03
   5  -3   2  345.85   17.21
  -5  -3  -2  362.48   16.32
  -5   5  -2  151.50   10.15
   5  -5  -2  151.42   10.59
  -5  -5   2  169.50    8.20
   5   5   2  156.51    9.00
  -5  -5   2  147.83    8.44
   5  -5  -2  147.26   10.93
  -5  -5  -2  152.58    8.71
   5  -5   2  162.26   10.35
  -5  -7   2  107.10    6.89
   5   7   2  100.97    7.54
  -5  -7   2   90.11    7.54
   5  -7  -2  100.07    8.84
   5  -7  -2  104.11    9.43
  -5  -7  -2  105.39    7.18
   5  -7   2  107.73    9.14
  -5  -9   2  133.59    8.90
  -5  -9   2  118.53   10.16
   5  -9  -2  130.62   11.02
  -5  -9  -2  110.71    9.36
   5  -9   2  146.46   11.73
   5 -11  -2    7.81    3.43
  -5 -11   2    9.75    3.14
  -5 -11  -2   10.85    3.76
   6   0   2  319.38   15.23
   6   0  -2  324.68   14.08
   6   0  -2  317.26   13.97
  -6   0  -2  332.24   15.37
  -6   2  -2  414.40   19.71
   6  -2  -2  395.58   20.01
   6  -2  -2  388.84   19.66
   6   2   2  441.75   19.09
   6  -2   2  427.38   19.67
  -6  -2  -2  411.91   18.89
   6   4   2  287.30   13.98
   6  -4  -2  260.10   16.09
   6  -4  -2  279.31   15.62
  -6   4  -2  275.65   15.21
   6  -4   2  285.17   15.14
  -6  -4  -2  285.41   13.72
  -6   6  -2  183.08   11.99
   6  -6  -2  180.56   12.93
   6  -6  -2  169.43   11.87
   6   6   2  169.71   10.20
  -6  -6   2  164.97    9.68
  -6  -6   2  173.77    8.82
  -6  -6  -2  172.70    9.79
   6  -6   2  164.88   11.55
  -6  -8   2   19.28    3.51
   6  -8  -2   26.87    4.81
  -6  -8   2   20.18    4.00
   6  -8  -2   32.90    5.25
  -6  -8  -2   28.31    3.49
   6  -8   2   21.22    4.06
   6 -10  -2    3.76    2.02
  -6 -10   2    3.62    1.84
  -6 -10   2    3.02    1.39
  -6 -10  -2    2.84    1.72
   6 -10   2    2.36    1.56
  -6 -12   2   29.95    4.74
  -6 -12   2   39.16    5.49
   6 -12  -2   31.30    5.71
   6 -12   2   36.39    6.82
  -6 -12  -2   36.35    6.18
   7   1   2   99.87    5.94
  -7   1  -2  100.56    7.14
   7  -1  -2  105.20    6.17
   7  -1  -2   97.84    5.59
  -7  -1  -2   98.58    5.94
   7  -1   2   97.03    6.13
   7  -3  -2   29.73    3.74
   7  -3  -2   26.89    3.21
  -7   3  -2   30.40    3.32
  -7  -3  -2   23.80    2.42
   7  -5  -2  141.62   10.06
  -7   5  -2  141.56    9.99
   7  -5  -2  122.09   10.48
   7   5   2  151.44    8.64
   7  -5   2  144.26    9.83
  -7  -5  -2  142.73    8.19
  -7  -7   2   14.31    1.72
  -7  -7   2   10.66    2.10
  -7   7  -2    9.88    2.95
   7   7   2   16.79    2.37
   7  -7  -2   12.73    3.72
   7  -7  -2   15.91    3.05
   7  -7   2   11.48    3.86
  -7  -7  -2   12.56    2.18
  -7  -9   2   31.14    3.13
   7  -9  -2   23.79    4.63
  -7  -9   2   32.25    4.07
  -7  -9  -2   26.05    3.86
   7  -9   2   29.34    5.08
  -7 -11   2   36.34    4.71
  -7 -11   2   23.16    3.61
   7 -11  -2   36.94    5.89
  -7 -11  -2   29.43    5.35
   7 -11   2   16.82    4.68
   8   0   2  132.29    7.89
  -8   0  -2  151.94    8.26
   8  -2  -2   61.46    5.49
   8  -2  -2   65.67    4.71
  -8   2  -2   66.05    5.18
   8   2   2   66.47    4.56
   8  -2   2   66.65    5.06
   8  -4  -2   23.00    3.99
   8   4   2   23.16    2.59
  -8   4  -2   21.67    3.27
   8  -4  -2   29.70    3.58
  -8  -4  -2   24.57    2.59
   8  -4   2   19.59    2.99
  -8   6  -2    9.62    2.65
   8  -6  -2    7.16    2.78
   8  -6  -2   12.85    2.38
   8  -6   2    4.23    2.08
  -8  -6  -2    8.32    1.63
  -8  -8   2   99.94    6.07
   8   8   2  103.21    8.16
   8  -8  -2  103.72    9.39
   8  -8   2  112.66    9.86
  -8  -8  -2  105.96    7.56
   8 -10  -2   84.21    9.02
  -8 -10   2   95.57    6.27
  -8 -10   2   91.12    7.70
  -8 -10  -2   97.82    8.96
  -8 -10  -2   91.61    8.83
   8 -10   2   95.01    9.59
   9  -1  -2   26.37    2.17
   9   1   2   25.40    2.58
  -9   1  -2   22.85    2.86
   9  -1  -2   23.08    2.66
   9  -1   2   25.99    2.84
  -9  -1  -2   24.40    2.66
  -9   3  -2   11.97    2.32
   9  -3  -2   11.42    3.25
   9  -3  -2    7.86    2.09
  -9  -3  -2   11.53    1.64
   9   5   2  104.70    6.91
   9  -5  -2   94.52    9.11
  -9   5  -2   92.03    8.13
   9  -5  -2  106.32    8.09
   9  -5   2  106.09    8.18
  -9  -5  -2   97.11    6.38
   9  -7  -2   17.53    5.05
   9  -7  -2   20.45    4.08
   9  -7   2   20.11    4.73
  -9  -7  -2   15.50    2.53
   9  -9  -2   20.86    4.08
  -9  -9   2   14.19    2.54
  -9  -9   2   22.21    2.06
  -9  -9  -2   17.30    3.03
   9  -9   2   17.45    4.76
 -10   0  -2  140.43    8.49
  10   0   2  134.35    8.10
  10  -2  -2  119.20    8.79
  10  -2  -2  118.12    8.52
  10   2   2  127.50    7.50
 -10   2  -2  114.70    8.21
 -10  -2  -2  121.85    7.41
  10  -2   2  125.30    7.96
  10  -4  -2  103.34    9.45
  10  -4  -2  118.44    8.19
 -10   4  -2  114.81    9.03
  10   4   2  124.36    7.56
  10  -4   2  122.14    8.62
 -10  -4  -2  118.61    7.24
  10  -6  -2   87.93    9.13
  10  -6  -2   81.99    7.34
 -10   6  -2   92.68    8.66
  10   6   2   87.02    6.60
  10  -6   2   86.52    7.86
 -10  -6  -2   86.47    6.08
  10   8   2   16.10    3.73
  10  -8  -2   26.94    3.92
  10  -8   2   19.01    3.88
 -10  -8  -2   22.57    2.70
  10 -10  -2    1.66    1.79
 -10 -10   2    2.02    1.29
 -10 -10   2    1.71    0.88
  10 -10   2    1.52    1.65
 -10 -10  -2    1.44    1.83
  11  -1  -2  187.46    9.27
 -11   1  -2  188.57   11.37
  11   1   2  194.01   10.63
  11  -1  -2  196.06   10.51
  11  -1   2  195.90   10.98
 -11  -1  -2  190.45   10.75
  11   3   2  125.84    7.67
 -11   3  -2  116.87    9.05
  11  -3  -2  113.85    9.34
  11  -3  -2  127.78    7.79
  11  -3   2  125.23    8.51
 -11  -3  -2  122.47    7.59
  11  -5  -2   57.32    6.64
  11  -5  -2   50.12    5.23
  11   5   2   52.28    4.66
 -11   5  -2   61.09    6.35
  11  -5   2   53.85    5.69
 -11  -5  -2   49.73    4.29
  11   7   2   41.99    4.35
  11  -7  -2   34.65    4.90
  11  -7   2   41.39    5.51
 -11  -7  -2   36.47    4.02
  11  -9  -2   54.29    5.70
  11  -9   2   34.93    6.92
 -11  -9  -2   41.96    4.81
  12   0   2   17.25    2.08
 -12   0  -2   23.12    3.17
  12  -2  -2   75.83    6.34
 -12   2  -2   72.57    6.78
  12  -2  -2   79.82    5.09
  12   2   2   78.82    5.72
 -12  -2  -2   79.99    5.71
  12  -2   2   86.66    6.43
  12  -4  -2   24.91    3.24
  12   4   2   26.19    3.13
  12  -4  -2   24.28    4.66
 -12   4  -2   25.60    4.59
 -12  -4  -2   31.34    3.14
  12  -4   2   26.61    3.67
  12   6   2   20.67    2.72
  12  -6  -2   22.02    3.31
  12  -6  -2   17.87    5.19
 -12  -6  -2   14.56    2.53
  12  -6   2   15.40    3.70
  12  -8  -2   22.38    3.72
 -12  -8  -2   16.92    3.01
  12  -8   2   12.82    3.55
 -13   1  -2    5.43    2.23
  13  -1  -2    4.54    1.12
  13   1   2    6.43    1.71
 -13  -1  -2    7.15    2.01
  13  -1   2    5.03    1.80
  13  -3  -2   37.61    3.52
  13   3   2   29.30    3.40
  13  -3  -2   45.20    4.38
 -13   3  -2   39.78    5.29
 -13  -3  -2   37.19    3.86
  13   5   2   50.22    4.42
  13  -5  -2   36.88    4.20
  13  -5  -2   41.60    5.72
  13  -5   2   49.44    5.10
 -13  -5  -2   41.09    4.07
  14   0   2   17.34    2.54
  14   2   2   26.54    3.29
  14  -2  -2   24.99    3.50
  14  -2  -2   25.28    2.52
 -14   2  -2   32.94    4.96
 -14  -2  -2   27.86    3.39
  14  -2   2   31.98    3.45
  14  -4  -2    4.56    1.32
  14  -4  -2    0.63    2.20
  14   4   2    2.36    1.05
 -14  -4  -2    0.71    1.48
  14  -4   2    2.41    1.36
 -15   1  -2   30.91    4.81
  15   1   2   31.46    3.59
  15  -1   2   27.48    3.62
 -15  -1  -2   25.23    5.41
   0   0   3    1.35    0.47
   0   0  -3    0.89    0.47
   0  -2  -3  182.75    8.82
   0   2  -3  175.03    8.56
   0  -2   3  160.78    8.41
   0   2   3  160.03    8.66
   0  -4   3  169.18    9.92
   0   4  -3  195.19   10.19
   0   4   3  174.72   10.09
   0  -4  -3  203.82   10.46
   0  -6   3  174.01   10.69
   0  -6  -3  150.35   10.11
   0   6  -3  149.68   10.16
   0   6   3  177.65   10.62
   0   8  -3  166.68   11.79
   0  -8   3  155.53   11.98
   0  -8  -3  156.24   11.30
   0 -10  -3  160.89   12.83
   0  10  -3  155.35   12.43
   0 -10   3  146.13   12.89
   0 -12  -3   77.35    9.35
   0 -12   3  110.24   11.37
   1   1   3   22.98    2.11
  -1  -1   3   23.93    1.89
  -1   1   3   24.23    2.06
  -1   3  -3   12.37    1.70
  -1  -3   3   17.30    1.72
   1  -3  -3   11.86    1.71
   1   3  -3   13.99    1.66
   1  -5  -3   55.76    4.99
  -1  -5   3   65.56    4.88
  -1   5  -3   51.49    4.75
   1   5   3   61.07    4.90
   1  -5   3   61.00    5.08
  -1  -5  -3   50.94    4.57
   1   5  -3   55.68    4.70
  -1   5   3   61.70    5.11
   1   7   3  269.83   16.10
  -1  -7   3  282.93   16.80
  -1   7  -3  298.51   17.02
   1  -7  -3  297.98   17.09
  -1  -7  -3  308.03   16.57
   1   7  -3  305.90   16.95
   1  -7   3  272.71   17.04
  -1   9  -3   66.85    9.18
  -1  -9   3   67.60    7.60
   1  -9  -3   59.15    6.95
  -1  -9  -3   63.74    7.09
   1   9  -3   70.32    7.30
   1  -9   3   73.48    8.06
  -1  -9  -3   62.21    6.64
  -1 -11   3   25.60    6.47
   1 -11  -3   29.77    5.15
   1 -11   3   26.88    6.48
  -1 -11  -3   27.44    5.14
  -2   0   3    1.05    0.44
   2   0  -3    0.41    0.27
  -2   0  -3    0.60    0.36
   2  -2  -3  405.59   19.10
  -2  -2   3  441.25   18.60
  -2   2  -3  439.55   19.49
   2   2   3  401.32   19.56
  -2  -2  -3  439.90   19.42
  -2   2   3  403.37   19.23
   2   2  -3  435.62   18.66
   2   4   3  514.11   23.18
  -2  -4   3  506.80   22.40
   2  -4  -3  483.07   23.50
  -2   4  -3  523.19   24.34
  -2   4   3  477.01   23.47
   2  -4   3  491.52   23.45
   2   4  -3  481.17   22.80
  -2  -4  -3  500.65   23.54
   2   6   3   38.50    3.97
  -2  -6   3   37.95    3.92
   2  -6  -3   33.93    4.28
  -2   6  -3   29.91    3.89
   2   6  -3   34.25    3.96
  -2  -6  -3   32.93    3.58
   2  -6   3   36.07    4.28
   2  -8  -3   53.39    6.35
   2  -8  -3   53.28    6.24
  -2  -8   3   61.89    6.46
  -2   8  -3   45.00    5.74
  -2  -8  -3   48.23    5.36
   2  -8   3   62.45    6.90
   2   8  -3   57.33    5.91
  -2 -10   3   92.63    9.75
   2 -10  -3  129.52   11.16
   2 -10   3  114.63   11.21
  -2 -10  -3  112.53   10.28
   2 -12  -3   -0.39    2.06
  -2 -12   3    2.62    1.73
  -2 -12  -3    0.64    1.82
   2 -12   3   -1.15    1.52
   3   1   3  725.18   30.67
  -3  -1   3  709.48   29.58
  -3   1  -3  714.80   30.73
   3  -1  -3  677.16   29.98
  -3  -1  -3  710.23   30.61
   3   1  -3  678.28   29.50
   3  -1   3  712.77   30.76
  -3   1   3  661.87   30.13
  -3   3  -3   10.85    1.68
  -3  -3   3   11.31    1.18
   3   3   3   12.90    1.75
   3  -3  -3   12.05    1.81
   3  -3   3   11.49    1.78
  -3  -3  -3   11.54    1.63
   3   3  -3   11.04    1.39
  -3   3   3   14.50    2.98
   3   5   3  305.39   15.50
  -3   5  -3  298.71   16.11
   3  -5  -3  292.31   16.49
  -3  -5   3  319.31   14.77
   3   5  -3  290.09   15.41
  -3  -5  -3  289.41   15.21
   3  -5   3  313.40   16.40
   3   7   3  270.34   15.64
  -3  -7   3  277.54   15.84
  -3   7  -3  283.56   16.78
   3  -7  -3  282.20   17.19
   3  -7  -3  291.52   17.49
   3  -7   3  269.23   16.95
   3   7  -3  309.77   16.42
  -3  -7  -3  284.27   15.55
  -3  -9   3   11.99    3.34
   3  -9  -3   13.52    3.58
  -3   9  -3   12.49    3.22
  -3  -9  -3   19.52    4.18
   3  -9   3   24.21    5.83
  -3 -11   3   13.14    4.15
   3 -11  -3   20.23    5.35
  -3 -11   3   17.41    4.28
   3 -11   3   24.15    6.48
  -3 -11  -3   17.38    4.38
  -4   0   3    0.44    0.33
   4   0  -3    0.69    0.34
   4   0   3    0.43    0.40
  -4   0  -3    0.76    0.42
   4  -2  -3  121.75    6.59
   4   2   3  109.95    6.63
  -4  -2   3  108.17    5.32
  -4   2  -3  116.13    6.89
   4  -2   3  113.14    6.86
   4   2  -3  117.85    5.59
  -4  -2  -3  112.78    6.60
   4  -4  -3  288.33   15.82
  -4  -4   3  283.57   13.22
  -4   4  -3  295.11   15.31
   4   4   3  284.74   14.67
   4  -4  -3  295.49   15.71
  -4  -4  -3  310.48   14.72
   4   4  -3  288.19   14.21
   4  -4   3  297.76   15.48
   4  -6  -3   14.16    2.93
  -4   6  -3   12.84    3.00
   4  -6  -3   15.74    3.12
   4  -6   3   22.74    3.40
   4   6  -3   13.90    2.29
  -4  -6  -3   14.76    2.32
   4  -8  -3   12.19    5.33
  -4   8  -3    9.44    3.06
   4  -8  -3   11.48    3.38
  -4  -8   3   14.27    3.38
   4   8   3   11.83    3.20
  -4  -8  -3    7.74    2.32
   4  -8   3   11.55    4.33
   4 -10  -3  132.98   11.59
  -4 -10   3  128.96    9.55
  -4 -10   3  112.71   10.06
   4 -10   3  123.97   11.73
  -4 -12   3   23.47    5.54
   4 -12  -3   10.25    3.75
  -4 -12  -3   16.40    5.32
   4 -12   3   15.46    5.98
   5   1   3   43.71    3.62
   5  -1  -3   53.88    3.25
  -5   1  -3   59.75    4.88
   5  -1   3   43.23    3.72
  -5  -1  -3   51.00    3.77
   5  -3  -3   61.86    5.33
   5  -3  -3   68.71    5.09
  -5   3  -3   68.01    5.21
   5   3   3   71.98    4.87
  -5  -3  -3   62.81    4.64
   5  -3   3   70.41    5.29
   5   5   3  116.42    7.58
  -5   5  -3  119.66    8.47
   5  -5  -3  120.23    9.00
  -5  -5   3  114.60    6.18
   5  -5  -3  119.02    8.88
  -5  -5  -3  123.43    7.52
   5  -5   3  110.87    8.35
   5  -7  -3  196.62   13.13
   5  -7  -3  178.81   13.28
  -5  -7   3  167.83   10.15
  -5  -7   3  180.13   10.39
  -5   7  -3  189.73   12.72
   5   7   3  166.33   11.03
  -5  -7  -3  185.62   11.07
   5  -7   3  171.91   12.51
   5  -9  -3   81.38    8.78
  -5  -9   3  102.40    7.19
  -5  -9   3   93.51    7.96
  -5  -9  -3   73.74    7.05
   5  -9   3  106.58    9.95
   5 -11  -3   23.06    4.73
  -5 -11   3   30.16    4.69
  -5 -11   3   24.50    4.71
  -5 -11  -3   18.83    4.65
   5 -11   3   28.10    5.55
   6   0  -3    0.40    0.28
   6   0   3   -0.11    0.29
   6   0  -3    0.12    0.36
  -6   0  -3    0.01    0.50
   6  -2  -3   32.96    2.91
  -6   2  -3   33.48    3.29
   6  -2  -3   30.55    3.29
  -6  -2  -3   31.24    2.93
   6  -4  -3  173.38   10.82
   6  -4  -3  165.90   10.66
  -6   4  -3  165.11   10.12
   6   4   3  150.43    9.18
   6  -4   3  150.69    9.95
  -6  -4  -3  169.30    9.29
  -6   6  -3   51.77    5.82
  -6  -6   3   73.93    4.41
   6  -6  -3   52.48    6.49
  -6  -6   3   69.26    4.14
   6   6   3   69.89    5.56
   6  -6  -3   52.91    6.04
  -6  -6  -3   50.67    4.79
   6  -6   3   73.72    6.68
   6  -8  -3   43.35    5.71
  -6  -8   3   48.73    3.92
  -6  -8   3   45.92    4.44
   6  -8  -3   45.58    6.64
   6   8   3   37.05    4.64
   6  -8   3   46.39    6.02
  -6  -8  -3   34.32    6.16
  -6 -10   3  116.18    9.35
   6 -10  -3  130.12   11.17
  -6 -10   3  114.42    8.24
   6 -10   3  126.15   11.72
   7  -1  -3  200.67    9.79
   7  -1  -3  198.97   10.47
  -7   1  -3  197.77   11.06
   7   1   3  209.54   10.95
   7  -1   3  206.63   11.14
  -7  -1  -3  215.57   10.95
   7   3   3    7.54    1.46
   7  -3  -3    9.10    2.13
  -7   3  -3    4.66    1.49
   7  -3  -3    5.11    1.66
  -7  -3  -3    7.67    1.83
   7  -3   3    5.45    1.50
   7  -5  -3   50.14    5.42
   7   5   3   63.17    4.86
   7  -5  -3   54.65    5.84
  -7   5  -3   46.52    5.17
  -7  -5  -3   46.61    4.26
   7  -5   3   61.52    5.72
   7  -7  -3  180.08   13.95
   7  -7  -3  198.76   13.43
  -7   7  -3  154.01   12.33
   7   7   3  186.58   11.58
  -7  -7   3  188.25    9.26
  -7  -7   3  177.00    9.28
   7  -7   3  177.97   12.92
  -7  -7  -3  204.23   11.42
  -7  -9   3    8.93    2.32
   7  -9  -3    4.87    2.12
  -7  -9   3   11.21    1.76
   7   9   3    7.24    2.62
   7  -9   3   13.68    3.68
  -7 -11   3    9.08    2.53
   7 -11  -3    9.38    4.58
  -7 -11   3    7.35    2.33
   7 -11   3   11.51    4.55
  -7 -11  -3   11.51    2.97
  -8   0  -3   -0.17    0.46
   8   0   3    0.28    0.47
  -8   2  -3  291.31   15.67
   8  -2  -3  309.15   15.11
   8   2   3  296.97   14.96
   8  -2  -3  294.58   14.71
   8  -2   3  309.35   15.62
  -8  -2  -3  289.44   14.87
   8  -4  -3  325.49   17.16
  -8   4  -3  302.59   16.93
   8   4   3  314.00   15.85
   8  -4  -3  301.98   17.50
   8  -4   3  286.54   16.58
  -8  -4  -3  312.74   15.60
  -8   6  -3   35.31    4.81
   8   6   3   33.26    3.65
   8  -6  -3   24.39    4.88
   8  -6  -3   33.42    4.36
   8  -6   3   27.95    4.22
  -8  -6  -3   31.52    3.52
  -8  -8   3   52.37    3.68
  -8  -8   3   53.15    3.51
   8  -8  -3   39.80    5.79
   8   8   3   57.57    5.98
  -8  -8  -3   47.38    4.97
   8  -8   3   51.57    6.54
   8 -10  -3   56.87    7.30
  -8 -10   3   52.82    4.46
  -8 -10   3   53.47    4.85
   8 -10   3   51.01    7.46
   9  -1  -3  111.40    5.91
   9  -1  -3  113.55    6.03
   9   1   3  116.44    7.23
  -9   1  -3  107.91    7.47
  -9  -1  -3  105.03    7.09
   9  -1   3  115.18    7.48
   9  -3  -3    4.09    1.41
   9  -3  -3    6.72    2.08
  -9   3  -3    5.17    1.71
   9  -3   3    3.25    1.19
  -9  -3  -3    3.55    1.23
   9   5   3   62.16    5.24
   9  -5  -3   50.58    6.37
   9  -5  -3   62.25    5.86
  -9   5  -3   59.53    5.82
  -9  -5  -3   59.50    4.95
   9  -5   3   68.76    6.48
   9  -7  -3  121.15   11.38
   9  -7  -3  139.41   10.98
   9   7   3  116.46    8.71
   9  -7   3  113.47   10.02
   9  -9  -3    1.02    1.55
   9   9   3    3.14    1.91
   9  -9   3    6.22    2.02
  10   0   3    0.39    0.56
 -10   0  -3    0.53    0.82
 -10   2  -3    8.59    2.36
  10  -2  -3    9.27    1.71
  10  -2  -3    7.86    1.59
 -10  -2  -3   10.76    1.70
  10  -4  -3   54.05    5.94
 -10   4  -3   56.93    6.01
  10   4   3   54.71    4.84
  10  -4  -3   58.66    5.29
 -10  -4  -3   56.25    4.74
  10  -4   3   54.86    6.51
  10  -6  -3   26.15    3.86
  10  -6  -3   21.17    5.43
  10   6   3   29.11    3.47
  10  -6   3   29.80    4.23
 -10  -6  -3   22.74    3.13
  10  -8  -3   25.80    4.29
  10   8   3   28.44    3.92
 -10  -8  -3   25.26    3.63
  10  -8   3   29.59    4.97
  11   1   3   11.05    1.88
  11  -1   3   10.58    2.09
 -11   3  -3   18.30    2.71
  11  -3  -3   12.43    2.14
  11   3   3   15.93    2.38
 -11  -3  -3   11.21    2.20
  11  -3   3   15.47    2.40
  11  -5  -3   39.37    4.36
  11  -5  -3   29.28    5.13
  11   5   3   38.82    4.16
  11  -5   3   41.97    4.82
 -11  -5  -3   39.60    4.03
  11   7   3   71.82    6.36
  11  -7  -3   74.84    7.21
  11  -7   3   68.68    7.41
 -11  -7  -3   70.92    6.17
 -12   0  -3   -1.07    0.87
  12   0   3    1.11    0.69
  12  -2  -3    8.68    1.56
  12  -2  -3    8.81    1.44
 -12   2  -3    8.97    2.50
  12   2   3    8.75    2.15
 -12  -2  -3   10.49    2.42
  12  -2   3    9.60    2.24
  12  -4  -3   79.31    7.20
  12  -4  -3   85.98    6.27
  12   4   3   76.90    6.18
  12  -4   3   77.74    7.09
 -12  -4  -3   85.56    6.41
  12   6   3   13.99    2.45
  12  -6  -3   14.01    2.35
 -12  -6  -3   11.24    2.28
  13   1   3  125.98    9.09
 -13   1  -3  125.55    9.24
 -13  -1  -3  125.61    8.91
  13  -1   3  127.19    8.74
  13   3   3    8.65    1.72
  13  -3  -3    4.79    1.43
  13  -3  -3    6.96    1.86
 -13  -3  -3    5.19    1.85
  13  -5  -3   39.61    4.40
  13  -5  -3   43.93    5.84
  13  -5   3   56.30    5.69
 -13  -5  -3   42.91    4.51
 -14   0  -3   -0.42    1.34
  14   0   3   -0.57    0.85
  14   2   3   63.19    5.27
 -14  -2  -3   61.59    5.55
  14  -2   3   57.40    5.69
  14  -4  -3   81.53    5.36
  14   4   3   71.90    6.21
  14  -4  -3   56.09    6.17
 -14  -4  -3   66.92    6.07
  14  -4   3   71.88    6.72
   0   0   4  983.88   41.81
   0   0  -4  954.37   41.63
   0   2  -4   94.82    5.52
   0   2   4   79.28    5.48
   0  -2  -4   98.48    5.76
   0  -2   4   83.08    5.32
   0   4  -4  115.31    7.17
   0   4   4  110.26    7.21
   0  -4   4  109.20    6.88
   0  -4  -4  113.63    7.21
   0  -6  -4  371.79   19.56
   0   6   4  372.73   19.51
   0  -6   4  374.05   19.33
   0   6  -4  375.99   19.47
   0  -8   4   44.94    5.51
   0   8  -4   52.43    5.89
   0 -10  -4   46.96    6.17
   0 -10   4   36.27    5.90
   0 -12  -4   17.83    4.92
   0 -12   4    6.93    3.61
  -1   1  -4   90.66    5.35
   1  -1  -4   97.22    5.33
   1   1   4   75.46    5.18
  -1  -1   4   75.50    4.85
   1   1  -4   92.49    5.09
  -1   1   4   73.02    5.70
  -1  -1  -4   93.15    5.47
   1  -1   4   77.89    5.17
  -1  -3   4  521.97   22.71
  -1   3  -4  456.76   21.99
   1  -3  -4  431.64   24.49
   1   3   4  497.39   22.26
   1   3  -4  467.56   21.57
  -1  -3  -4  450.74   21.93
   1  -3   4  487.50   22.03
  -1   3   4  477.96   22.15
  -1  -5   4   67.92    5.22
   1  -5  -4   79.38    6.10
  -1   5  -4   81.03    6.00
   1   5  -4   91.91    8.55
  -1   5   4   66.19    5.71
   1  -5   4   64.47    5.51
  -1  -5  -4   78.65    5.84
   1  -7  -4    8.66    2.66
   1   7   4    8.32    2.30
  -1   7  -4    4.73    1.70
  -1  -7   4    4.20    1.76
   1   7  -4    7.30    2.24
  -1  -7  -4    3.30    1.60
   1  -7   4    4.65    1.81
  -1  -9   4   36.27    5.07
   1  -9  -4   35.00    5.31
  -1   9  -4   33.13    5.00
   1   9  -4   33.26    5.03
   1  -9   4   35.08    5.22
  -1 -11   4   48.42    6.97
   1 -11  -4   47.52    6.81
  -1 -11  -4   43.58    6.70
   1 -11   4   52.40    7.56
   2   0  -4   18.32    1.83
  -2   0  -4   16.46    1.96
  -2   0   4   21.87    1.96
   2   0   4   20.48    2.20
   2   2   4   66.58    4.90
  -2  -2   4   66.60    4.36
   2  -2  -4   83.79    5.03
  -2  -2  -4   85.39    5.27
  -2   2   4   69.93    4.88
   2   2  -4   85.40    4.70
   2  -2   4   69.47    5.02
   2   4   4  142.20    8.68
  -2   4  -4  148.90    8.89
   2  -4  -4  142.72    8.79
  -2   4   4  149.33    9.02
   2   4  -4  149.99    8.30
   2  -4   4  141.59    8.79
  -2  -4  -4  147.38    8.68
   2  -6  -4   33.87    4.14
   2   6   4   29.67    3.65
  -2  -6   4   29.96    3.32
  -2   6  -4   36.76    4.18
   2   6  -4   30.33    3.57
  -2  -6  -4   34.20    3.78
   2  -6   4   28.34    3.78
   2   8   4  125.63    9.84
   2  -8  -4  132.42   10.90
  -2  -8   4  128.76    9.54
   2  -8  -4  129.65   10.57
   2  -8   4  124.06   10.36
   2   8  -4  118.56    9.62
  -2  -8  -4  128.18    9.44
   2 -10  -4   43.47    6.18
   2  10  -4   33.51    5.48
   2 -10   4   41.44    6.36
   2 -12  -4   10.99    3.74
  -2 -12   4   14.40    4.70
   2 -12   4    3.79    3.43
  -2 -12  -4    8.58    4.18
  -3   1  -4  165.15    8.79
   3  -1  -4  170.50    8.24
   3   1   4  140.03    8.48
  -3  -1   4  150.47    7.77
  -3   1   4  147.42    8.17
   3  -1   4  154.47    8.74
   3   1  -4  159.98    7.81
  -3  -1  -4  169.53    8.83
   3   3   4   13.72    2.00
  -3  -3   4   13.84    1.51
   3  -3  -4   15.37    1.96
  -3   3  -4   14.18    2.07
   3   3  -4   15.34    1.70
  -3   3   4   16.56    2.23
   3  -3   4   12.65    1.96
  -3  -3  -4   13.60    1.95
  -3  -5   4   65.03    4.62
  -3   5  -4   67.86    5.70
   3  -5  -4   70.25    6.00
   3   5   4   67.60    5.49
  -3  -5  -4   70.20    5.44
   3   5  -4   74.05    5.43
   3  -5   4   71.47    5.96
   3  -7  -4  110.45    9.29
  -3   7  -4   96.88    8.37
   3   7   4  123.85    8.62
  -3  -7   4  106.91    7.54
   3  -7  -4  113.48    9.34
  -3  -7  -4  108.40    8.07
   3   7  -4  104.10    8.14
   3  -7   4  106.57    8.94
  -3  -9   4    8.51    2.85
   3  -9  -4   13.21    3.80
   3  -9   4    8.15    3.55
   3   9  -4    9.75    2.90
  -3 -11   4  123.52   11.47
   3 -11  -4  147.06   12.82
  -3 -11  -4  148.80   12.99
   3 -11   4  156.80   13.67
   4   0  -4  315.58   14.46
   4   0   4  323.65   15.64
  -4   0   4  326.53   14.71
  -4   0  -4  308.71   15.50
  -4  -2   4  104.67    5.61
   4   2   4  101.31    6.76
  -4   2  -4  111.76    7.03
   4  -2  -4  115.09    6.48
   4  -2   4  110.66    7.09
   4   2  -4  115.89    5.81
  -4  -2  -4  120.77    7.06
  -4   2   4  107.42    7.18
   4   4   4    9.86    1.81
  -4   4  -4   11.44    2.10
  -4  -4   4   10.19    1.27
   4  -4  -4    9.67    1.97
   4  -4   4    9.58    1.93
  -4  -4  -4   14.48    2.09
   4   4  -4    9.26    1.56
  -4  -6   4  108.56    6.44
   4  -6  -4   98.93    8.20
   4   6   4  104.11    7.54
   4  -6  -4   96.98    8.38
  -4   6  -4  107.51    8.18
   4  -6   4  108.22    8.43
   4   6  -4  101.78    7.25
  -4  -6  -4   96.15    7.21
   4  -8  -4   59.10    6.93
   4  -8  -4   62.14    7.32
   4   8   4   55.88    5.91
  -4  -8   4   65.84    5.63
  -4  -8  -4   62.51    6.09
   4  -8   4   64.78    7.18
   4   8  -4   62.97    6.14
  -4 -10   4    5.37    2.34
   4 -10  -4    3.12    2.57
   4 -10   4    4.79    2.19
   5  -1  -4  100.50    5.44
   5   1   4   88.96    6.13
  -5  -1   4   94.14    5.06
  -5   1  -4   95.48    6.35
  -5  -1  -4   92.09    6.13
   5  -1   4   90.07    6.28
  -5   1   4   98.72    5.92
   5   1  -4   99.61    4.93
   5   3   4  738.52   31.70
  -5   3  -4  699.98   32.06
   5  -3  -4  673.41   31.32
  -5  -3   4  706.25   29.39
   5   3  -4  624.96   29.83
   5  -3   4  716.83   32.15
  -5  -3  -4  700.92   31.53
  -5   5  -4   47.68    4.76
   5  -5  -4   47.26    4.95
  -5  -5   4   34.55    2.74
   5  -5  -4   43.56    4.91
   5   5   4   42.45    4.17
  -5  -5  -4   44.23    4.17
   5   5  -4   49.77    3.81
   5  -5   4   36.47    4.26
   5  -7  -4   65.98    7.09
   5   7   4   74.01    6.39
  -5  -7   4   65.55    4.89
   5  -7  -4   65.60    7.34
   5  -7   4   67.53    7.03
  -5  -7  -4   74.97    6.88
   5   9   4   71.19    7.01
  -5  -9   4   71.98    5.92
  -5  -9   4   65.54    5.93
   5  -9  -4   64.84    7.67
   5  -9   4   69.18    7.95
   5 -11  -4   22.95    5.99
  -5 -11   4   21.18    4.45
   5 -11   4   23.87    7.81
   6   0   4  693.98   30.36
   6   0  -4  660.47   28.33
  -6   0  -4  635.98   30.09
  -6   2  -4  112.06    7.13
   6  -2  -4  106.78    6.12
   6   2   4   90.48    6.50
   6  -2  -4  100.79    8.04
  -6  -2  -4  104.35    6.70
   6  -2   4   95.06    6.89
   6  -4  -4   30.98    3.61
  -6   4  -4   33.28    3.88
   6   4   4   32.32    3.52
   6  -4  -4   30.81    3.94
  -6  -4  -4   34.12    3.51
   6  -4   4   31.75    3.78
   6  -6  -4  195.58   13.76
   6  -6  -4  197.35   13.52
   6   6   4  211.88   12.34
  -6  -6   4  208.45    9.86
   6  -6   4  209.72   17.17
  -6  -6  -4  206.82   12.04
  -6  -8   4   21.79    2.64
   6  -8  -4   28.09    4.73
   6   8   4   24.77    3.72
  -6  -8   4   22.39    2.72
   6  -8   4   14.03    3.78
  -6  -8  -4   20.29    3.37
  -6 -10   4   24.79    3.58
   6 -10  -4   33.04    4.87
  -6 -10   4   22.97    3.36
   6 -10   4   21.01    5.67
   7  -1  -4   80.80    5.30
   7  -1  -4   75.74    4.34
   7   1   4   65.40    5.29
  -7   1  -4   72.98    5.60
  -7  -1  -4   77.30    5.53
   7  -1   4   66.18    5.43
   7   3   4   83.35    5.98
  -7   3  -4   76.82    6.34
   7  -3  -4   77.65    6.39
   7  -3  -4   78.29    5.74
   7  -3   4   96.25    6.81
  -7  -3  -4   76.57    5.83
   7  -5  -4   42.52    4.84
  -7   5  -4   37.99    4.54
   7   5   4   33.87    3.75
   7  -5  -4   42.57    4.99
  -7  -5  -4   35.44    3.85
   7  -5   4   32.14    4.52
  -7  -7   4   17.41    1.67
   7  -7  -4   16.59    4.16
   7   7   4   15.99    2.83
   7  -7  -4   18.13    4.97
  -7  -7   4   21.36    1.96
   7  -7   4   21.48    3.75
  -7  -7  -4   16.70    2.88
  -7  -9   4    9.32    1.92
   7   9   4    9.38    3.09
   7  -9  -4   15.51    4.24
   7  -9   4    9.09    3.47
  -8   0  -4    5.80    1.70
   8   0   4    3.78    1.45
  -8   2  -4   44.39    4.35
   8   2   4   33.40    3.62
   8  -2  -4   44.77    3.35
   8  -2  -4   42.60    4.01
   8  -2   4   34.08    3.93
  -8  -2  -4   47.88    4.14
   8  -4  -4  125.47    9.27
  -8   4  -4  128.16    9.29
   8  -4  -4  138.79    9.10
   8   4   4  132.38    8.56
   8  -4   4  126.91    9.40
  -8  -4  -4  135.27    8.59
   8  -6  -4   14.74    4.20
   8  -6  -4   14.09    3.78
   8   6   4    4.90    2.22
  -8  -6  -4    8.94    2.20
   8  -6   4    7.36    2.68
   8   8   4   78.52    7.31
   8  -8  -4   78.62    8.30
   8  -8   4   77.91    8.34
  -8 -10   4   42.79    4.35
   8 -10  -4   47.23    6.65
  -8 -10   4   34.19    3.49
   8 -10   4   36.15    6.16
   9   1   4   38.00    4.01
   9  -1  -4   48.74    3.40
   9  -1  -4   48.86    2.98
  -9   1  -4   48.04    4.57
   9  -1   4   41.33    4.27
  -9  -1  -4   45.88    4.31
  -9   3  -4   34.39    3.96
   9  -3  -4   28.03    3.50
   9  -3  -4   30.16    3.48
   9   3   4   30.32    3.41
  -9  -3  -4   27.73    3.35
   9  -3   4   37.39    5.97
   9   5   4   30.82    3.81
   9  -5  -4   47.75    4.63
   9  -5  -4   40.51    5.01
   9  -5   4   35.04    4.61
  -9  -5  -4   37.93    4.13
   9  -7  -4   21.01    5.45
   9   7   4   24.27    3.70
   9  -7  -4   30.14    4.25
   9  -7   4   22.91    3.99
  -9  -7  -4   24.91    6.42
   9   9   4    6.35    2.73
   9  -9  -4   12.08    2.47
   9  -9   4    5.95    2.60
  10   0   4  248.09   13.57
 -10   0  -4  230.00   14.93
  10  -2  -4   27.16    2.62
  10   2   4   22.70    3.12
  10  -2  -4   28.97    2.42
 -10   2  -4   27.05    3.73
 -10  -2  -4   22.66    3.20
  10  -2   4   25.35    3.47
  10  -4  -4   17.39    2.98
  10   4   4   21.86    3.24
  10  -4  -4   22.25    3.11
  10  -4   4   19.99    3.24
 -10  -4  -4   18.68    2.89
  10  -6  -4   99.16    8.28
  10   6   4   97.08    7.64
  10  -6  -4   84.75    9.17
  10  -6   4   97.76    8.67
 -10  -6  -4   94.91    7.43
  10  -8  -4   25.09    4.50
  10   8   4   18.27    4.37
  10  -8   4   25.00    6.39
  11   1   4   33.80    5.22
 -11   1  -4   34.79    3.91
  11  -1   4   29.28    3.64
 -11  -1  -4   30.10    3.71
  11   3   4  241.55   13.95
  11  -3  -4  239.14   12.93
  11  -3   4  269.62   15.15
 -11  -3  -4  238.60   13.84
  11   5   4   14.25    2.71
  11  -5  -4   18.23    4.15
  11  -5   4   20.12    3.31
 -11  -5  -4   23.89    3.45
  11   7   4   28.15    3.90
  11  -7  -4   24.64    4.30
  11  -7   4   23.67    4.46
  12   0   4  101.64    7.52
 -12   0  -4   86.55    7.49
  12  -2  -4   24.37    2.00
  12   2   4   16.52    2.71
  12  -2   4   16.86    3.06
 -12  -2  -4   25.46    3.52
  12  -4  -4    4.37    1.66
  12   4   4    1.86    1.48
  12  -4  -4    7.59    1.91
  12  -4   4    2.46    1.67
 -12  -4  -4    5.04    2.39
  12  -6  -4   27.37    4.97
  12   6   4   33.03    4.32
  12  -6  -4   36.81    4.16
  12  -6   4   39.10    4.99
  13   1   4   31.64    3.93
  13  -1   4   36.56    4.13
  13  -3  -4    2.76    1.18
  13   3   4    5.07    1.77
  13  -3  -4    2.65    1.06
  13  -3   4    6.66    1.91
  13  -5  -4    9.84    3.10
  13   5   4    9.29    2.42
  13  -5   4   12.05    3.10
  14   0   4    7.79    1.93
  14   2   4   18.00    2.49
  14  -2   4   13.68    2.49
   0   0   5    1.62    0.75
   0   2   5  142.45    8.62
   0  -2   5  139.10    8.33
   0   2  -5  162.96    8.61
   0  -2  -5  155.32    8.68
   0   4   5   23.90    2.99
   0  -4   5   26.54    2.87
   0   6   5  282.48   15.71
   0  -6  -5  263.55   15.38
   0   6  -5  270.61   15.31
   0  -6   5  274.21   15.04
   0   8   5   39.60    5.02
   0  -8   5   35.15    4.77
   0   8  -5   38.45    5.10
   0 -10   5   20.83    4.33
  -1   1  -5   28.70    2.83
  -1  -1   5   26.43    2.59
   1   1   5   25.70    2.78
   1  -1  -5   34.85    2.91
   1  -1   5   23.97    2.62
  -1  -1  -5   30.34    2.95
   1   1  -5   28.44    2.62
  -1   1   5   23.92    2.55
   1   3   5  117.47    7.58
  -1  -3   5  126.00    7.19
  -1   3  -5  112.17    7.31
   1  -3  -5  121.11    7.52
   1   3  -5  119.35    7.48
   1  -3   5  131.48    7.69
  -1   3   5  113.99    7.49
  -1  -3  -5  116.16    7.52
   1  -5  -5  102.59    7.28
  -1  -5   5   90.80    6.36
  -1   5  -5   98.42    6.99
   1   5   5   94.07    7.01
  -1   5   5   88.58    7.00
   1   5  -5   97.08    6.77
   1  -5   5   88.86    6.75
  -1  -5  -5   99.18    7.06
   1  -7  -5    5.27    2.02
  -1   7  -5    6.68    2.36
  -1  -7   5    5.39    1.83
   1   7   5    4.43    1.73
  -1   7   5    6.16    2.95
   1  -7   5    7.55    2.47
  -1  -9   5  166.94   15.74
   1  -9   5  175.34   13.15
   1   9  -5  154.82   12.14
  -1 -11   5   12.07    3.89
   1 -11   5    7.80    3.95
  -1 -11  -5    9.04    4.33
   2   0   5    1.22    0.65
  -2   0  -5    4.02    1.29
  -2   0   5    0.53    0.45
  -2   2  -5  413.37   19.93
   2  -2  -5  400.24   19.53
   2   2   5  426.07   20.05
  -2  -2   5  424.75   19.18
  -2   2   5  410.54   19.75
   2  -2   5  429.47   20.10
  -2  -2  -5  417.71   20.01
   2   2  -5  400.76   19.12
  -2  -4   5  114.10    6.86
   2   4   5  122.08    7.85
  -2   4  -5  113.61    7.65
   2  -4  -5  116.25    7.69
   2  -4   5  117.06    7.71
   2   4  -5  105.58    7.67
  -2   4   5  119.31    7.88
  -2  -4  -5  110.84    7.59
  -2   6  -5   49.84    4.99
   2  -6  -5   42.82    4.77
  -2  -6   5   44.07    4.11
   2   6   5   38.56    4.46
   2  -6   5   43.96    4.72
  -2   6   5   41.62    4.77
  -2  -6  -5   47.38    4.89
   2   6  -5   51.18    4.79
   2   8   5  148.00   10.78
  -2  -8   5  146.53   10.13
  -2   8  -5  145.06   11.52
   2  -8   5  151.06   11.44
   2   8  -5  139.09   10.74
   2 -10  -5    4.65    2.62
  -2 -10   5    6.93    2.95
   2 -10   5    4.65    2.91
   2  10  -5    1.21    3.53
  -3   1  -5  328.09   16.93
   3  -1  -5  341.69   16.34
  -3  -1   5  347.88   16.52
   3   1   5  361.58   17.22
   3   1  -5  334.68   16.01
  -3   1   5  351.96   16.59
   3  -1   5  356.47   17.26
  -3  -1  -5  343.83   17.08
   3  -3  -5   38.73    3.55
  -3  -3   5   34.07    2.88
  -3   3  -5   42.74    3.92
   3   3   5   33.86    3.59
  -3   3   5   38.01    3.72
   3  -3   5   34.45    3.67
   3   3  -5   39.02    3.18
  -3  -3  -5   39.43    3.77
   3  -5  -5  357.15   19.88
   3   5   5  411.71   20.17
  -3  -5   5  400.89   18.49
  -3   5  -5  393.07   20.16
   3  -5   5  394.05   20.35
  -3   5   5  393.27   20.44
  -3  -5  -5  379.11   19.80
   3   5  -5  392.00   19.92
  -3  -7   5   35.05    3.61
   3  -7  -5   29.46    4.51
  -3   7  -5   23.96    3.93
   3   7   5   37.88    4.46
   3   7  -5   24.92    3.83
   3  -7   5   34.36    4.55
  -3  -7  -5   25.25    3.72
  -3  -9   5   52.03    5.57
   3   9   5   41.83    5.68
   3  -9  -5   62.72    7.50
   3  -9   5   51.76    6.70
   3   9  -5   63.81    6.68
   3 -11  -5   51.22    7.30
  -3 -11   5   46.90    6.30
   3 -11   5   40.77    6.89
   4   0  -5    0.24    0.33
   4   0   5    0.07    0.40
  -4   0  -5    0.09    0.55
  -4   2  -5  142.72    8.82
   4   2   5  138.67    8.69
  -4  -2   5  151.50    7.60
   4  -2  -5  136.96   10.29
   4  -2   5  147.95    9.00
   4   2  -5  144.28    7.59
  -4  -2  -5  139.25    8.67
  -4   2   5  144.93    8.53
  -4   4  -5   33.52    3.92
  -4  -4   5   41.34    3.22
   4  -4  -5   35.16    3.77
   4   4   5   44.98    4.24
  -4   4   5   43.14    4.37
   4  -4   5   39.64    4.16
  -4  -4  -5   35.59    3.79
   4   4  -5   36.85    3.30
   4   6   5   74.75    7.55
  -4   6  -5   66.68    6.45
   4  -6  -5   76.69    7.06
  -4  -6   5   75.20    5.08
  -4  -6  -5   72.81    6.26
   4   6  -5   69.61    7.13
   4  -6   5   77.97    8.06
   4  -8  -5   57.00    6.83
  -4  -8   5   52.34    4.84
   4   8   5   50.96    5.81
   4  -8   5   53.63    6.63
   4   8  -5   58.86    5.89
   4 -10  -5    3.57    1.93
   4 -10   5    3.03    2.56
   5   1   5   26.38    3.05
  -5  -1   5   27.67    2.39
   5  -1   5   27.11    3.19
  -5   1   5   29.09    2.89
   5  -3  -5  116.03    7.19
  -5   3  -5  106.64    7.60
  -5  -3   5  110.85    5.90
   5   3   5  102.27    7.29
  -5   3   5  106.36    7.55
   5   3  -5  114.18    6.24
  -5  -3  -5  109.55    7.45
   5  -3   5  110.47    7.77
   5   5   5   26.21    3.40
  -5  -5   5   26.44    2.31
  -5   5  -5   27.84    3.79
   5  -5  -5   31.63    3.90
  -5  -5  -5   30.00    5.21
   5  -5   5   25.66    3.64
   5   5  -5   28.31    3.11
   5  -7  -5    1.24    1.29
   5   7   5    2.71    1.37
   5  -7  -5    0.36    1.63
  -5  -7   5    6.87    1.66
  -5  -7  -5    1.05    1.23
   5  -7   5    3.19    1.63
  -5  -9   5  187.14   11.41
   5  -9  -5  211.64   15.28
   5   9   5  193.63   13.59
   5  -9   5  202.69   15.43
  -6   0  -5    1.62    0.88
  -6   0   5    1.11    0.58
  -6  -2   5   49.03    3.21
   6   2   5   44.65    4.42
  -6   2  -5   54.18    4.85
   6  -2  -5   56.38    4.04
   6   2  -5   54.24    3.31
   6  -2   5   46.20    4.62
   6  -4  -5    7.44    1.92
   6  -4  -5    7.40    2.28
  -6  -4  -5    6.97    1.98
   6   4  -5    8.85    1.33
   6  -6  -5  160.19   11.82
  -6  -6   5  166.35    8.11
   6  -6  -5  160.80   11.65
   6   6   5  165.55   10.68
   6  -6   5  151.22   11.23
   6   6  -5  148.57    8.97
  -6  -6  -5  150.04   10.17
   6  -8  -5   27.21    4.95
   6   8   5   21.70    3.65
  -6  -8   5   23.19    2.59
   6  -8   5   26.74    4.67
   6 -10  -5   11.19    3.35
  -6 -10   5   10.30    2.12
   6  10   5   12.29    3.37
  -6 -10   5    7.75    2.58
   6 -10   5    8.29    3.21
   7  -1  -5   76.19    4.78
  -7   1  -5   74.32    6.12
   7   1   5   85.73    6.30
  -7  -1  -5   79.50    6.11
   7  -1   5   83.96    6.37
   7   1  -5   78.37    4.26
  -7   3  -5   33.66    3.97
   7   3   5   31.26    3.60
   7  -3  -5   36.86    3.38
   7  -3  -5   27.95    3.80
   7  -3   5   30.84    4.57
  -7  -3  -5   33.51    3.88
   7   5   5  151.67    9.93
   7  -5  -5  148.55   10.36
   7  -5  -5  142.98   10.76
  -7  -5  -5  143.66    9.65
   7  -5   5  154.84   10.76
  -7  -7   5    7.20    1.38
   7   7   5    8.56    2.63
   7  -7  -5    9.54    3.08
   7  -7   5    9.20    2.96
   7   9   5   60.12    6.55
  -7  -9   5   55.53    4.27
   7  -9  -5   64.90    7.93
   7  -9   5   63.73    7.89
   8   0   5    0.83    0.74
  -8   0  -5    0.30    0.79
   8   0  -5    0.06    0.33
   8   0  -5   -0.27    0.46
   8  -2  -5  264.00   14.71
   8  -2  -5  270.64   13.39
   8   2   5  282.40   15.16
  -8   2  -5  260.96   15.20
   8  -2   5  284.05   15.71
  -8  -2  -5  284.23   15.09
   8  -4  -5   72.56    6.67
   8  -4  -5   70.17    5.79
   8   4   5   82.83    6.45
  -8   4  -5   61.75    7.20
   8  -4   5   70.48    6.57
  -8  -4  -5   67.36    5.93
   8  -6  -5   34.80    4.67
   8   6   5   26.15    3.45
   8  -6   5   24.47    3.93
   8  -8  -5  103.85   10.07
   8   8   5  106.72    9.01
   8  -8   5  112.64   10.22
   9   1   5   87.90    6.49
  -9   1  -5   65.30    5.95
   9  -1  -5   70.49    4.91
   9  -1  -5   73.31    4.33
  -9  -1  -5   75.19    6.22
   9  -1   5   81.48    6.53
   9  -3  -5   12.81    2.02
   9   3   5   14.17    2.49
   9  -3  -5   12.90    2.53
   9  -3   5   16.21    2.93
  -9  -3  -5   12.09    2.45
   9   5   5   93.39    7.47
   9  -5  -5   90.77    8.13
   9  -5  -5   92.85    7.81
   9  -5   5   95.79    8.26
   9  -7  -5    6.84    3.23
   9   7   5    8.96    2.86
   9  -7   5    8.31    2.16
 -10   0  -5   -0.27    1.13
  10   0   5    1.94    0.83
  10   2   5   16.51    2.90
  10  -2  -5   27.20    2.48
 -10  -2  -5   23.76    3.55
  10  -2   5   21.82    3.32
  10  -4  -5    7.23    1.91
  10  -4  -5   11.69    2.16
  10   6   5   72.53    6.46
  10  -6  -5   70.86    7.18
  10  -6  -5   55.48    6.71
  10  -6   5   67.90    7.30
  11   1   5    8.31    2.23
  11  -1   5    5.74    1.90
  11   3   5   42.35    4.68
  11  -3  -5   37.49    3.81
  11  -3  -5   39.65    3.87
  11  -3   5   43.37    4.98
  11  -5  -5   17.87    3.61
  11   5   5   18.92    3.12
  11  -5  -5   21.88    3.61
  11  -5   5   22.04    3.68
  12   0   5   -0.72    0.98
  12   2   5   32.79    4.19
  12  -2   5   35.55    4.68
  12  -4  -5    6.95    1.64
  12   4   5    3.98    2.03
  12  -4   5    4.75    1.70
  13   1   5   62.66    6.00
  13  -1   5   58.38    5.96
  13   3   5    8.08    2.20
  13  -3   5    8.06    2.33
   0   0  -6  492.61   23.44
   0   0   6  508.93   23.66
   0   2   6  220.58   11.59
   0   2  -6  181.72   10.79
   0  -2  -6  187.43   11.08
   0  -2   6  209.47   11.12
   0  -4  -6  153.65    9.65
   0  -4   6  151.29    9.18
   0   4   6  147.72    9.58
   0   4  -6  145.06    9.23
   0  -6   6  147.79    9.71
   0   6  -6  147.47   10.00
   0  -6  -6  144.14   10.16
   0   6   6  150.50   10.38
   0   8   6   40.34    5.28
   0  -8   6   42.18    5.04
   0   8  -6   42.12    5.64
   0 -10   6   12.48    3.77
   1  -1  -6  127.30    8.09
  -1   1  -6  125.62    8.15
   1   1   6  141.96    8.53
  -1  -1   6  153.55    8.31
  -1  -1  -6  125.82    8.26
   1   1  -6  127.99    7.95
   1  -1   6  145.55    8.57
  -1   1   6  146.45    8.41
  -1   3  -6  217.64   12.09
  -1  -3   6  215.03   11.64
   1   3   6  214.00   12.31
   1  -3  -6  221.90   12.16
  -1   3   6  208.19   12.13
   1   3  -6  219.91   11.75
  -1  -3  -6  226.54   12.34
   1  -3   6  215.69   12.11
   1   5   6   55.95    5.35
   1  -5  -6   46.26    4.87
  -1   5  -6   46.58    4.76
  -1  -5   6   57.71    4.77
   1   5  -6   47.90    4.63
  -1   5   6   53.85    5.15
  -1  -5  -6   48.95    5.00
   1  -5   6   51.47    4.86
  -1  -7   6   20.61    3.08
   1   7   6   16.67    3.19
  -1   7  -6   19.62    3.55
   1   7  -6   22.15    3.48
  -1   7   6   20.52    3.48
   1  -7   6   16.19    3.12
  -1  -9   6   41.11    5.50
   1   9   6   35.77    5.23
   1  -9   6   39.40    5.69
   2   0   6  188.46   11.45
  -2   0   6  190.43   10.94
   2   0  -6  230.67   11.33
  -2   0  -6  230.32   11.91
  -2  -2   6   41.78    3.48
   2   2   6   39.66    3.89
  -2   2  -6   31.00    3.47
   2  -2  -6   30.50    3.29
  -2  -2  -6   30.09    3.44
  -2   2   6   44.85    3.92
   2  -2   6   41.60    3.94
   2   2  -6   35.38    3.27
  -2   4  -6   19.72    2.78
  -2  -4   6   17.39    2.30
   2  -4  -6   14.95    2.51
   2   4   6   15.84    2.54
  -2   4   6   15.93    2.62
   2  -4   6   18.00    2.60
  -2  -4  -6   15.55    2.56
   2   4  -6   20.36    2.56
  -2  -6   6   41.54    4.11
   2  -6  -6   52.68    5.57
   2   6   6   38.31    4.60
  -2   6  -6   49.86    5.09
   2   6  -6   48.36    4.88
  -2   6   6   40.46    4.87
   2   8   6   84.22    7.69
  -2  -8   6   84.56    7.00
   2  -8   6   86.87    8.20
   2   8  -6   72.55    7.32
   2 -10  -6   50.34    7.74
  -2 -10   6   36.38    5.27
   2 -10   6   40.30    6.43
   3  -1  -6    5.27    1.36
   3   1   6    3.97    1.28
  -3  -1   6    6.67    1.28
  -3   1  -6    4.27    1.30
  -3  -1  -6    3.65    1.46
  -3   1   6    5.43    1.41
   3  -1   6    5.82    1.66
   3   1  -6    3.95    1.24
  -3   3  -6  147.86    9.08
   3   3   6  120.38    8.62
  -3  -3   6  122.08    7.57
   3  -3  -6  148.44    8.70
  -3   3   6  123.68    8.48
   3   3  -6  150.36    8.13
  -3  -3  -6  148.71    9.08
   3  -3   6  118.62    8.59
   3  -5  -6   55.65    5.49
   3   5   6   62.72    5.70
  -3  -5   6   62.75    4.69
  -3   5  -6   51.09    5.35
  -3   5   6   64.91    5.90
   3  -5   6   66.50    6.41
   3   5  -6   51.78    4.85
   3   7   6   45.98    5.31
  -3  -7   6   44.23    4.33
   3  -7   6   49.32    5.72
   3   7  -6   46.13    5.03
   3  -9  -6    4.06    2.41
  -3  -9   6    3.98    1.79
   3   9  -6    4.25    2.52
   3  -9   6    2.84    2.29
  -4   0  -6  133.33    8.31
   4   0   6  105.13    7.77
   4   0  -6  139.44    7.37
  -4   0   6  108.62    7.08
   4   2   6   43.23    4.25
  -4   2  -6   35.61    3.95
   4  -2  -6   38.21    3.58
  -4  -2   6   44.39    3.40
   4   2  -6   38.20    3.19
   4  -2   6   48.18    4.56
  -4   2   6   45.59    4.09
  -4  -2  -6   37.48    4.03
  -4  -4   6   16.52    2.02
   4   4   6   16.57    2.91
  -4   4  -6   12.04    2.79
   4  -4  -6   12.39    2.39
   4   4  -6   18.46    3.57
  -4   4   6   17.25    2.75
   4  -4   6   20.03    3.57
   4  -6  -6   56.74    5.95
  -4  -6   6   51.82    4.24
   4   6   6   50.40    5.38
   4  -6   6   55.63    5.90
   4   6  -6   53.42    5.12
  -4  -8   6   57.51    5.06
   4  -8  -6   59.56    7.26
   4   8   6   64.46    6.63
   4  -8   6   54.93    6.70
   4   8  -6   49.93    5.95
  -4 -10   6    7.39    2.44
   4 -10  -6    2.30    3.22
   4  10   6    4.79    2.16
   4  10  -6    4.43    2.22
   4 -10   6    6.61    4.00
  -5  -1   6  207.11   10.18
   5   1   6  193.03   11.43
  -5   1  -6  186.06   12.43
   5  -1  -6  185.07   10.17
  -5  -1  -6  188.62   12.75
   5  -1   6  192.33   11.54
  -5   1   6  202.94   10.84
   5   1  -6  180.82    9.80
  -5  -3   6  255.49   12.32
   5  -3  -6  242.43   13.39
  -5   3  -6  239.35   14.59
   5   3   6  265.44   16.83
   5   3  -6  245.58   12.62
   5  -3   6  276.73   16.85
  -5   3   6  256.64   14.29
   5   5   6   46.81    4.90
   5  -5  -6   36.84    4.57
  -5  -5   6   50.38    3.63
   5   5  -6   42.52    3.86
   5  -5   6   40.39    4.75
  -5  -5  -6   44.29    5.08
   5   7   6   50.58    5.59
   5  -7  -6   57.09    6.89
  -5  -7   6   54.47    4.26
   5  -7   6   43.63    5.81
   5   7  -6   45.95    5.03
   5  -9  -6   33.74    5.60
   5   9   6   28.74    4.85
  -5  -9   6   29.78    3.50
   5   9  -6   23.88    3.99
   5  -9   6   29.84    5.62
   6   0  -6  190.66    9.62
   6   0   6  176.74   12.75
  -6   0   6  184.68   10.11
   6  -2  -6   67.47    5.20
  -6  -2   6   91.97    5.10
   6   2   6   87.57    6.65
   6  -2   6   87.86    6.87
   6   2  -6   64.53    4.59
  -6   2   6   87.85    6.40
  -6  -2  -6   66.91    5.86
   6  -4  -6   92.00    6.92
   6   4   6   97.26    7.50
  -6  -4   6   93.68    5.30
  -6  -4  -6   89.22    7.14
   6   4  -6   86.41    5.82
   6  -4   6   93.48    7.72
   6  -6  -6   85.01    8.34
   6  -6  -6   83.26    7.70
  -6  -6   6   96.18    5.54
   6   6   6   91.36    7.57
   6   6  -6   79.57    6.13
   6  -6   6   81.68    7.80
   6   8   6   32.27    4.84
   6  -8  -6   44.48    6.30
  -6  -8   6   39.43    3.44
   6  -8   6   40.84    6.01
   7   1   6   28.32    3.59
  -7  -1   6   31.30    2.72
   7  -1  -6   23.49    2.49
   7   1  -6   24.75    2.15
   7  -1   6   26.94    3.59
   7  -3  -6   83.37    5.76
   7   3   6   67.41    6.09
   7  -3   6   65.79    6.35
  -7  -3  -6   78.89    7.11
   7  -5  -6   30.41    4.10
   7   5   6   40.56    4.70
   7  -5  -6   38.49    4.81
   7  -5   6   41.31    5.13
  -7  -7   6    7.74    1.17
   7  -7  -6    5.53    2.14
   7   7   6    8.40    2.52
   7  -7   6    4.89    1.71
  -7  -9   6    4.91    1.79
   7   9   6    8.59    3.25
  -7  -9   6    8.46    1.68
   7  -9  -6    2.57    2.52
   7  -9   6    9.12    2.97
   8   0  -6  163.58    7.84
   8   0   6  130.03    9.71
   8   0  -6  152.75    8.68
   8  -2  -6   13.84    2.46
   8   2   6   18.44    2.95
   8  -2  -6   16.25    1.89
   8  -2   6   17.54    3.01
   8   4   6   24.58    3.57
   8  -4  -6   22.46    3.62
   8  -4  -6   26.97    3.32
   8  -4   6   29.73    4.05
   8  -6  -6   42.38    5.72
   8  -6  -6   42.59    5.69
   8   6   6   29.37    3.98
   8  -6   6   31.96    4.52
   8   8   6   57.26    6.48
   8  -8  -6   50.57    6.98
   8  -8   6   47.87    6.52
   9   1   6    8.47    2.26
   9  -1  -6    5.03    1.52
   9  -1  -6    6.81    1.14
   9  -1   6    5.90    1.91
   9   3   6   58.56    5.85
   9  -3  -6   69.19    5.14
   9  -3  -6   69.47    6.08
   9  -3   6   62.60    6.33
   9  -5  -6   21.70    3.94
   9   5   6   27.45    3.94
   9  -5  -6   23.51    3.76
   9  -5   6   34.80    4.69
   9  -7  -6    7.47    2.55
   9   7   6    2.53    1.56
   9  -7   6    2.97    1.91
  10   0   6  128.03    9.34
  10   2   6   47.98    5.03
  10  -2  -6   42.81    4.02
  10  -2  -6   47.86    3.59
  10  -2   6   52.62    5.48
  10  -4  -6   31.78    3.41
  10   4   6   29.98    4.05
  10  -4  -6   39.15    4.07
  10  -4   6   27.81    4.50
  10  -6  -6   46.05    5.62
  10   6   6   45.53    5.39
  10  -6   6   47.08    6.35
  11   1   6   76.92    6.87
  11  -1   6   76.51    7.04
  11  -3  -6  104.21    6.87
  11   3   6  101.11    8.12
  11  -3  -6   98.49    6.34
  11  -3   6   91.44    8.40
  11  -5  -6   15.90    3.57
  11  -5  -6   13.04    3.49
  11   5   6   15.12    3.12
  11  -5   6   11.25    3.29
  12   0   6   32.70    4.55
  12   2   6   20.23    3.34
  12  -2   6   28.03    7.03
   0   0  -7   -0.01    0.60
   0   0   7   -0.08    0.30
   0   2  -7   96.30    6.72
   0  -2  -7   97.36    6.91
   0   2   7   78.54    6.45
   0  -2   7   80.48    6.29
   0   4   7   91.52    7.24
   0   4  -7   96.01    7.10
   0  -4  -7   87.57    7.06
   0  -4   7   88.21    6.78
   0   6   7    6.88    2.33
   0  -6   7   11.67    2.41
   0   6  -7   11.97    2.04
   0  -8   7   55.56    6.12
   0   8   7   66.77    7.10
   1   1   7   81.57    6.42
  -1   1  -7   88.74    6.49
  -1  -1   7   82.48    6.18
   1  -1  -7   89.58    6.51
  -1   1   7   86.86    6.44
  -1  -1  -7   86.78    6.52
   1  -1   7   90.67    6.59
   1   1  -7   90.60    6.39
   1  -3  -7    4.06    1.73
  -1   3  -7    3.76    1.49
   1   3   7    1.16    1.11
  -1  -3   7    2.62    1.22
  -1   3   7    0.97    0.95
   1   3  -7    2.76    1.20
  -1  -3  -7    1.09    1.15
   1   5   7   23.08    3.48
  -1  -5   7   20.75    2.93
  -1   5  -7   24.88    3.66
   1   5  -7   28.65    3.54
  -1   5   7   22.13    3.44
   1  -5   7   20.91    3.24
  -1  -7   7  139.67    9.54
   1   7   7  131.92   10.30
   1  -7   7  133.39   10.03
  -1   7   7  129.22   10.25
   1   7  -7  126.26    9.73
   1   9   7    3.18    1.87
  -1  -9   7    3.99    1.73
   2   0  -7    0.42    0.69
  -2   0  -7    0.38    0.94
  -2   0   7    1.07    0.73
   2   0   7    1.17    0.80
   2  -2  -7  101.26    7.34
  -2   2  -7   98.33    9.25
  -2  -2   7  115.75    7.26
   2   2   7  116.97   10.72
   2  -2   7  114.30    7.89
  -2  -2  -7  103.83    7.70
  -2   2   7  117.67    7.76
   2   2  -7  101.72    7.09
   2   4   7  204.96   12.56
  -2   4  -7  191.80   12.19
  -2  -4   7  205.85   11.46
   2  -4  -7  194.49   12.09
   2  -4   7  219.07   12.63
   2   4  -7  201.97   11.80
   2   6   7   27.43    3.96
  -2  -6   7   29.07    3.48
   2   6  -7   36.44    4.37
  -2   6   7   34.38    4.15
   2  -6   7   29.06    4.14
  -2  -8   7    2.89    1.69
   2   8   7    2.55    1.65
   2   8  -7    1.85    2.39
   2  -8   7    1.61    1.70
   3   1   7  224.36   12.63
  -3  -1   7  220.68   11.46
  -3   1  -7  194.17   12.07
   3  -1  -7  198.28   11.47
  -3  -1  -7  185.47   11.90
   3   1  -7  202.55   11.25
  -3   1   7  221.17   11.90
   3  -1   7  211.32   13.38
   3  -3  -7   25.50    3.22
  -3   3  -7   23.83    3.36
  -3  -3   7   19.67    2.51
   3   3   7   21.46    3.19
   3   3  -7   21.06    2.80
   3  -3   7   26.78    3.46
  -3   3   7   21.47    3.07
  -3  -5   7   50.37    4.41
   3   5   7   56.70    5.66
  -3   5   7   50.66    5.50
   3   5  -7   45.12    4.63
   3  -5   7   56.82    5.72
   3   7   7  144.61   11.00
  -3  -7   7  153.48    9.63
   3   7  -7  147.98   10.48
  -3   7   7  151.51   11.56
   3  -7   7  143.53   11.22
  -3  -9   7   28.80    3.96
   3   9   7   32.46    4.92
   3  -9   7   28.70    5.33
  -4   0  -7    0.75    0.87
   4   0   7    0.51    0.67
   4   0  -7    0.97    0.83
  -4   0   7    0.28    0.68
   4  -2  -7   21.06    2.70
   4   2   7   15.15    2.66
  -4  -2   7   18.53    2.31
   4   2  -7   18.37    2.47
  -4   2   7   15.13    2.51
   4  -2   7   19.20    3.00
   4  -4  -7  103.01   10.53
  -4  -4   7  111.63    7.10
   4   4   7  124.89    8.86
  -4   4   7  115.71    8.69
   4   4  -7  117.39    7.63
   4  -4   7  116.86    8.88
   4   6   7    6.34    1.84
  -4  -6   7    9.46    1.58
   4  -6   7    6.66    2.57
  -4   6   7    4.89    2.07
   4   6  -7   10.29    2.56
   4   8   7    8.53    2.85
  -4  -8   7    5.45    1.86
   4  -8   7    6.97    2.68
   5   1   7   23.15    3.37
   5  -1  -7   33.12    3.32
  -5  -1   7   23.40    2.74
   5  -1   7   24.50    3.40
  -5   1   7   26.86    3.16
   5   1  -7   32.99    3.13
   5   3   7    1.99    1.25
  -5  -3   7    2.00    0.93
  -5   3   7    1.99    1.19
   5  -3   7    1.70    1.12
   5   3  -7    1.94    0.76
  -5  -5   7   75.78    5.29
   5   5   7   72.84    6.82
   5  -5  -7   82.94    7.22
   5  -5   7   77.84    7.36
   5   5  -7   77.03    6.12
   5   7   7   92.81    8.17
  -5  -7   7   89.58    6.17
   5   7  -7   88.26    7.38
   5  -7   7   90.16    8.73
  -6   0   7    0.62    0.70
  -6  -2   7   37.39    3.39
   6   2   7   36.80    4.44
   6   2  -7   49.89    3.67
  -6   2   7   39.50    4.24
   6  -2   7   34.02    4.38
  -6  -4   7   73.19    4.83
   6   4   7   71.11    6.60
   6  -4  -7   68.90    6.08
   6   4  -7   70.11    5.25
   6  -4   7   69.40    6.84
   6  -6  -7    1.53    0.99
   6   6   7    1.81    1.50
  -6  -6   7    3.34    1.12
   6  -6   7    4.51    1.93
   6   6  -7    4.57    1.47
  -6  -8   7   32.92    3.40
   6   8   7   27.94    4.63
   6   8  -7   34.53    4.06
   6  -8   7   41.00    6.26
   7  -1  -7   91.01    6.07
  -7  -1   7   98.77    6.35
   7   1   7   94.22    7.72
  -7   1   7  101.19    7.15
   7   1  -7   90.62    5.72
   7  -1   7   91.75    7.76
   7   3   7    8.14    2.64
   7  -3  -7    6.63    1.85
  -7  -3   7    7.19    1.52
   7   3  -7    7.50    1.39
   7  -3   7    5.59    2.06
   7   5   7    2.63    1.48
   7  -5  -7    2.12    1.94
   7  -5  -7    3.50    2.10
   7   5  -7    6.02    1.62
   7  -5   7    4.68    1.89
   7  -7  -7   95.42    9.84
   7   7   7  110.43    9.66
   7  -7   7  104.23    9.93
   8   0  -7    0.98    0.78
   8   0   7    0.20    0.81
   8  -2  -7   94.44    7.54
   8   2   7   94.64    7.81
   8  -2  -7   97.94    6.50
   8  -2   7   95.68    8.13
   8   4   7  141.60   10.22
   8  -4  -7  115.12    8.57
   8  -4  -7  126.36   10.11
   8  -4   7  144.54   10.75
   8   6   7   27.54    5.45
   8  -6   7   26.38    4.58
   9  -1  -7   80.62    5.08
   9   1   7   82.45    7.35
   9  -1  -7   67.47    5.69
   9  -1   7   82.23    7.41
   9   3   7    8.58    1.77
   9  -3  -7    5.81    2.36
   9  -3  -7    3.90    1.67
   9  -3   7    6.68    2.67
   9  -5  -7    8.15    2.47
   9  -5  -7    8.39    2.51
   9   5   7    8.96    2.71
   9  -5   7    6.83    2.92
  10   0   7   -1.36    1.02
  10  -2  -7   15.92    2.62
  10  -2  -7   17.61    2.28
  10  -2   7   12.62    4.43
  10  -4  -7   23.59    3.58
  10   4   7   27.57    5.00
  10  -4   7   25.63    4.23
  11   1   7   16.40    4.13
  11  -1   7   10.49    2.92
   0   0   8  226.09   12.64
   0   0  -8  191.52   12.13
   0   2  -8  104.13    7.72
   0  -2   8  106.00    7.63
   0   2   8   97.84    7.74
   0   4   8   64.16    6.03
   0  -4   8   58.00    5.48
   0   6   8  112.65    9.33
   0  -6   8  110.48    8.62
   0   8   8   20.66    3.94
   0  -8   8   18.91    3.91
   1   1   8   70.75    6.08
  -1  -1   8   74.00    6.39
   1  -1  -8   64.77    5.75
   1   1  -8   67.01    5.78
   1  -1   8   70.74    6.10
  -1   1   8   71.92    6.09
   1   3   8   92.39    7.46
   1  -3   8   93.34    7.27
  -1   3   8   97.55    7.52
   1   3  -8   71.84    6.45
  -1  -5   8   53.61    5.27
   1   5   8   51.75    5.80
  -1   5   8   61.67    6.22
   1   5  -8   62.35    8.06
   1  -5   8   56.63    5.77
  -1  -7   8    6.70    2.21
   1   7   8    6.15    2.66
  -1   7   8    8.13    2.21
   1  -7   8    4.15    1.82
   2   0  -8   11.10    3.20
   2   0   8    4.93    1.81
  -2   0   8    7.78    1.97
   2   2   8   71.17    6.42
  -2  -2   8   67.26    5.93
   2  -2  -8   78.90    6.32
   2   2  -8   80.30    6.28
  -2   2   8   70.27    6.14
   2  -2   8   69.41    6.26
  -2  -4   8   44.91    4.45
   2   4   8   50.38    5.38
   2  -4   8   44.83    4.97
  -2   4   8   43.41    5.03
   2   4  -8   45.37    6.64
   2   6   8    8.34    2.53
  -2  -6   8   11.52    2.78
  -2   6   8   11.55    3.35
   2   6  -8   13.71    3.50
   2  -6   8    8.86    2.92
   2   8   8   40.08    5.66
  -2  -8   8   38.29    4.50
  -2   8   8   28.17    5.19
   2  -8   8   37.11    5.32
  -3  -1   8   71.20    5.60
   3  -1  -8   67.81    6.64
   3   1   8   69.04    6.27
   3  -1   8   67.87    6.22
  -3   1   8   68.08    5.81
   3   1  -8   75.90    5.85
  -3  -3   8   11.86    2.20
   3   3   8    7.36    2.32
   3  -3   8   13.10    2.54
   3   3  -8   15.75    2.67
  -3   3   8   10.75    2.80
  -3  -5   8   48.45    4.62
   3   5   8   48.20    5.59
   3   5  -8   47.95    4.99
  -3   5   8   44.67    5.41
   3  -5   8   47.18    5.54
  -3  -7   8   37.05    4.01
   3   7   8   26.25    4.49
   3   7  -8   42.02    5.06
  -3   7   8   33.81    5.15
   3  -7   8   34.77    5.16
   4   0  -8   20.67    2.85
   4   0   8   26.36    3.73
  -4   0   8   30.47    3.35
   4   2   8   59.26    5.86
  -4  -2   8   63.38    5.12
   4  -2  -8   61.73    5.84
   4  -2   8   54.79    5.71
   4   2  -8   65.24    5.21
  -4   2   8   58.03    5.56
   4   4   8   29.62    4.05
  -4  -4   8   23.23    2.92
  -4   4   8   23.65    3.68
   4  -4   8   20.40    3.56
   4   4  -8   25.55    3.51
   4   6   8   22.04    4.37
  -4  -6   8   24.79    3.16
  -4   6   8   21.95    3.80
   4   6  -8   32.26    3.71
   4  -6   8   22.67    4.09
  -5  -1   8   78.76    5.77
   5  -1  -8   65.96    5.49
   5   1   8   66.32    6.38
  -5   1   8   70.83    5.96
   5   1  -8   66.30    5.42
   5  -1   8   69.56    6.49
   5   3   8  131.58    9.62
  -5  -3   8  128.53    7.73
   5  -3  -8  104.89    8.04
   5   3  -8  101.22    7.58
   5  -3   8  124.39    9.52
  -5   3   8  123.20    9.05
  -5  -5   8   51.56    4.38
   5   5   8   54.64    5.82
   5  -5   8   45.74    5.88
   5   5  -8   55.67    5.37
  -5   5   8   51.41    5.81
  -6   0   8  117.77    7.88
   6   0  -8   96.57    7.06
   6   0   8  117.72    8.98
   6  -2  -8   65.40    5.50
  -6  -2   8   59.27    4.92
   6   2   8   64.55    6.40
  -6   2   8   62.84    5.96
   6  -2   8   61.97    6.42
   6   2  -8   67.82    4.96
  -6  -4   8   20.50    2.53
   6   4   8   25.96    3.73
   6   4  -8   23.79    3.09
   6   6   8   45.03    5.57
  -6  -6   8   42.22    3.85
   6   6  -8   40.02    4.49
   6  -6   8   47.67    6.37
  -7  -1   8   38.64    3.93
   7  -1  -8   40.02    3.83
   7   1   8   37.28    4.69
   7  -1   8   37.28    4.81
   7   1  -8   43.24    3.67
  -7   1   8   33.73    4.13
   7   3   8   11.82    3.38
   7  -3  -8    5.53    1.96
  -7  -3   8   11.01    1.89
   7  -3   8    8.63    2.59
   7   3  -8    6.60    2.39
   7  -5  -8   42.94    5.59
  -7  -5   8   36.97    3.25
   7   5   8   32.92    4.79
   7  -5   8   30.71    5.06
   7   5  -8   47.39    3.76
   8   0   8    5.40    2.36
   8   2   8   32.22    6.29
   8  -2  -8   43.99    4.38
   8  -2   8   44.66    5.87
   8   2  -8   44.06    3.65
   8  -4  -8   33.37    5.27
   8   4   8   37.63    5.11
   8  -4   8   42.72    5.52
   9  -1  -8   36.96    3.07
   9  -1  -8   22.57    3.62
   9   1   8   28.30    4.28
   9  -1   8   30.72    4.46
   0   0   9    0.24    1.12
   0  -2   9   24.40    3.44
   0   2   9   21.03    3.46
   0   4   9   36.68    4.85
   0  -4   9   37.77    4.67
   0   6   9   85.17    8.23
   0  -6   9   74.87    7.24
   1   1   9   28.45    4.05
  -1  -1   9   27.03    3.65
   1  -1   9   27.85    3.86
  -1   1   9   28.90    3.86
  -1  -3   9   18.22    3.25
   1   3   9   13.34    3.36
  -1   3   9   15.09    3.58
   1  -3   9   19.01    3.16
  -1  -5   9   27.74    3.88
   1  -5   9   30.68    4.35
  -1   5   9   28.71    4.37
   2   0   9    2.26    1.04
  -2   0   9    0.23    0.83
   2   2   9  103.67    8.43
  -2  -2   9   90.49    7.23
  -2   2   9   97.44    7.83
   2  -2   9   90.66    7.81
  -2  -4   9   33.75    4.01
   2   4   9   29.20    4.41
   2  -4   9   29.07    4.34
  -2   4   9   31.99    4.37
   3   1   9   83.04    7.42
  -3  -1   9   85.79    6.94
   3  -1   9   87.06    7.60
  -3   1   9   87.90    7.20
  -3  -3   9    3.77    1.52
   3   3   9    2.26    1.56
  -3   3   9    6.50    2.19
   3   3  -9    1.33    2.72
   3  -3   9    4.10    2.10
  -3  -5   9  108.17    7.82
   3   5   9  108.07    9.28
   3  -5   9  114.18   10.90
  -3   5   9  100.98    9.12
  -4   0   9    0.22    0.99
   4   0   9    1.48    1.37
   4   0  -9    1.28    1.36
   4   2   9   28.86    4.34
  -4  -2   9   33.34    4.24
   4  -2   9   32.38    4.22
   4   2  -9   23.99    3.62
  -4   2   9   32.76    4.27
   4   4   9   28.18    4.22
  -4  -4   9   18.66    3.03
   4  -4   9   23.69    5.95
  -4   4   9   23.70    4.06
   5  -1  -9   47.77    6.63
  -5  -1   9   43.27    4.08
   5   1   9   48.48    8.36
  -5   1   9   40.89    4.66
   5  -1   9   38.65    6.01
  -5  -3   9   31.18    3.74
   5   3   9   28.88    4.32
   5  -3   9   27.75    4.52
   5   3  -9   23.63    3.75
  -5   3   9   30.43    4.21
   6   0  -9    0.41    1.57
   6   0   9   -0.49    1.22
  -6   0   9   -0.47    1.22
  -6  -2   9   19.53    2.80
   6   2   9   17.97    4.26
   6   2  -9   18.63    3.56
   6  -2   9   15.68    3.86
  -6   2   9   17.08    3.73
   0   0  10  122.50    9.59
   0   0   0    0.00    0.00
;
_shelx_hkl_checksum              62337
loop_
_space_group_symop_operation_xyz
'x, y, z'
'-x, -y, z+1/2'
'-x, y, z'
'x, -y, z+1/2'
'x+1/2, y+1/2, z'
'-x+1/2, -y+1/2, z+1/2'
'-x+1/2, y+1/2, z'
'x+1/2, -y+1/2, z+1/2'
loop_
_atom_site_label
_atom_site_type_symbol
_atom_site_fract_x
_atom_site_fract_y
_atom_site_fract_z
_atom_site_U_iso_or_equiv
_atom_site_adp_type
_atom_site_occupancy
_atom_site_site_symmetry_order
_atom_site_calc_flag
_atom_site_refinement_flags_posn
_atom_site_refinement_flags_adp
_atom_site_refinement_flags_occupancy
_atom_site_disorder_assembly
_atom_site_disorder_group
W1 W 0.500000 1.18078(7) 0.64347(10) 0.0201(2) Uani 1 2 d S T P . .
I1 I 0.500000 1.46738(11) 0.93986(14) 0.0173(3) Uani 1 2 d S T P . .
O1 O 0.500000 1.3526(14) 1.1018(18) 0.027(3) Uiso 1 2 d S . P . .
F1 F 0.6630(7) 1.4638(10) 0.9390(12) 0.041(2) Uiso 1 1 d . . . . .
O2 O 0.500000 1.3806(16) 0.744(2) 0.037(4) Uiso 1 2 d S . P . .
F2 F 0.6046(6) 1.2641(9) 0.4910(10) 0.0291(18) Uiso 1 1 d . . . . .
O3 O 0.6126(8) 1.1543(10) 0.7891(12) 0.024(2) Uiso 1 1 d . . . . .
F3 F 0.500000 1.0363(15) 0.5406(19) 0.050(4) Uiso 1 2 d S . P . .
Cs1 Cs 0.81374(6) 1.35275(9) 0.66501(11) 0.0287(3) Uani 1 1 d . . . . .
loop_
_atom_site_aniso_label
_atom_site_aniso_U_11
_atom_site_aniso_U_22
_atom_site_aniso_U_33
_atom_site_aniso_U_23
_atom_site_aniso_U_13
_atom_site_aniso_U_12
W1 0.0279(4) 0.0144(4) 0.0179(4) -0.0017(3) 0.000 0.000
I1 0.0210(5) 0.0144(7) 0.0166(6) -0.0039(4) 0.000 0.000
Cs1 0.0239(4) 0.0362(6) 0.0259(5) 0.0030(5) 0.0028(4) 0.0022(3)
loop_
_atom_type_symbol
_atom_type_description
_atom_type_scat_dispersion_real
_atom_type_scat_dispersion_imag
_atom_type_scat_source
Cs Cs -0.3680 2.1192 'International Tables Vol C Tables 4.2.6.8 and 6.1.1.4'
F F 0.0171 0.0103 'International Tables Vol C Tables 4.2.6.8 and 6.1.1.4'
I I -0.4742 1.8119 'International Tables Vol C Tables 4.2.6.8 and 6.1.1.4'
O O 0.0106 0.0060 'International Tables Vol C Tables 4.2.6.8 and 6.1.1.4'
W W -0.8490 6.8722 'International Tables Vol C Tables 4.2.6.8 and 6.1.1.4'
loop_
_geom_angle_atom_site_label_1
_geom_angle_atom_site_label_2
_geom_angle_atom_site_label_3
_geom_angle
_geom_angle_site_symmetry_1
_geom_angle_site_symmetry_3
_geom_angle_publ_flag
F3 W1 O3 99.0(5) . 3_655 ?
F3 W1 O3 99.0(5) . . ?
O3 W1 O3 98.5(6) 3_655 . ?
F3 W1 F2 96.7(5) . 3_655 ?
O3 W1 F2 88.1(4) 3_655 3_655 ?
O3 W1 F2 161.8(4) . 3_655 ?
F3 W1 F2 96.7(5) . . ?
O3 W1 F2 161.8(4) 3_655 . ?
O3 W1 F2 88.1(4) . . ?
F2 W1 F2 80.9(5) 3_655 . ?
F3 W1 O2 172.6(7) . . ?
O3 W1 O2 85.8(4) 3_655 . ?
O3 W1 O2 85.8(4) . . ?
F2 W1 O2 77.8(4) 3_655 . ?
F2 W1 O2 77.8(4) . . ?
F3 W1 Cs1 43.7(3) . 5_445 ?
O3 W1 Cs1 55.4(3) 3_655 5_445 ?
O3 W1 Cs1 104.7(3) . 5_445 ?
F2 W1 Cs1 93.0(3) 3_655 5_445 ?
F2 W1 Cs1 139.2(3) . 5_445 ?
O2 W1 Cs1 140.6(2) . 5_445 ?
F3 W1 Cs1 43.7(3) . 7_645 ?
O3 W1 Cs1 104.8(3) 3_655 7_645 ?
O3 W1 Cs1 55.4(3) . 7_645 ?
F2 W1 Cs1 139.2(3) 3_655 7_645 ?
F2 W1 Cs1 93.0(3) . 7_645 ?
O2 W1 Cs1 140.6(2) . 7_645 ?
Cs1 W1 Cs1 65.80(3) 5_445 7_645 ?
F3 W1 Cs1 113.69(10) . . ?
O3 W1 Cs1 136.4(3) 3_655 . ?
O3 W1 Cs1 50.2(3) . . ?
F2 W1 Cs1 114.4(3) 3_655 . ?
F2 W1 Cs1 40.9(2) . . ?
O2 W1 Cs1 65.18(6) . . ?
Cs1 W1 Cs1 148.27(3) 5_445 . ?
Cs1 W1 Cs1 82.657(9) 7_645 . ?
F3 W1 Cs1 113.69(10) . 3_655 ?
O3 W1 Cs1 50.2(3) 3_655 3_655 ?
O3 W1 Cs1 136.4(3) . 3_655 ?
F2 W1 Cs1 40.9(2) 3_655 3_655 ?
F2 W1 Cs1 114.4(3) . 3_655 ?
O2 W1 Cs1 65.18(6) . 3_655 ?
Cs1 W1 Cs1 82.656(9) 5_445 3_655 ?
Cs1 W1 Cs1 148.27(3) 7_645 3_655 ?
Cs1 W1 Cs1 128.48(3) . 3_655 ?
F3 W1 Cs1 62.0(4) . 8_474 ?
O3 W1 Cs1 98.0(3) 3_655 8_474 ?
O3 W1 Cs1 156.6(3) . 8_474 ?
F2 W1 Cs1 35.0(3) 3_655 8_474 ?
F2 W1 Cs1 81.3(2) . 8_474 ?
O2 W1 Cs1 111.9(4) . 8_474 ?
Cs1 W1 Cs1 71.790(19) 5_445 8_474 ?
Cs1 W1 Cs1 104.23(2) 7_645 8_474 ?
Cs1 W1 Cs1 122.15(3) . 8_474 ?
Cs1 W1 Cs1 66.817(16) 3_655 8_474 ?
F3 W1 Cs1 62.0(4) . 6_674 ?
O3 W1 Cs1 156.6(3) 3_655 6_674 ?
O3 W1 Cs1 98.0(3) . 6_674 ?
F2 W1 Cs1 81.3(2) 3_655 6_674 ?
F2 W1 Cs1 35.0(3) . 6_674 ?
O2 W1 Cs1 111.9(4) . 6_674 ?
Cs1 W1 Cs1 104.23(2) 5_445 6_674 ?
Cs1 W1 Cs1 71.790(19) 7_645 6_674 ?
Cs1 W1 Cs1 66.817(16) . 6_674 ?
Cs1 W1 Cs1 122.15(3) 3_655 6_674 ?
Cs1 W1 Cs1 61.86(2) 8_474 6_674 ?
O1 I1 O2 105.2(7) . . ?
O1 I1 F1 89.4(3) . 3_655 ?
O2 I1 F1 89.3(3) . 3_655 ?
O1 I1 F1 89.4(3) . . ?
O2 I1 F1 89.3(3) . . ?
F1 I1 F1 177.8(6) 3_655 . ?
O1 I1 Cs1 35.3(2) . 8_475 ?
O2 I1 Cs1 86.9(5) . 8_475 ?
F1 I1 Cs1 58.6(3) 3_655 8_475 ?
F1 I1 Cs1 119.6(3) . 8_475 ?
O1 I1 Cs1 35.3(2) . 6_675 ?
O2 I1 Cs1 86.9(5) . 6_675 ?
F1 I1 Cs1 119.6(3) 3_655 6_675 ?
F1 I1 Cs1 58.6(3) . 6_675 ?
Cs1 I1 Cs1 61.00(3) 8_475 6_675 ?
I1 O1 Cs1 126.0(4) . 8_475 ?
I1 O1 Cs1 126.0(4) . 6_675 ?
Cs1 O1 Cs1 90.5(4) 8_475 6_675 ?
I1 F1 Cs1 127.4(4) . . ?
I1 F1 Cs1 123.8(4) . 4_585 ?
Cs1 F1 Cs1 106.4(2) . 4_585 ?
I1 O2 W1 141.3(9) . . ?
W1 F2 Cs1 123.1(4) . 6_674 ?
W1 F2 Cs1 114.1(3) . . ?
Cs1 F2 Cs1 103.6(2) 6_674 . ?
W1 O3 Cs1 146.1(5) . 6_675 ?
W1 O3 Cs1 105.5(4) . . ?
Cs1 O3 Cs1 94.7(3) 6_675 . ?
W1 O3 Cs1 99.3(4) . 7_645 ?
Cs1 O3 Cs1 99.9(3) 6_675 7_645 ?
Cs1 O3 Cs1 108.2(3) . 7_645 ?
W1 F3 Cs1 113.9(4) . 5_445 ?
W1 F3 Cs1 113.9(4) . 7_645 ?
Cs1 F3 Cs1 92.0(4) 5_445 7_645 ?
F2 Cs1 F2 121.97(15) 6_675 . ?
F2 Cs1 F1 76.1(2) 6_675 . ?
F2 Cs1 F1 86.3(2) . . ?
F2 Cs1 O3 135.0(2) 6_675 6_674 ?
F2 Cs1 O3 78.7(2) . 6_674 ?
F1 Cs1 O3 148.7(3) . 6_674 ?
F2 Cs1 F3 106.5(3) 6_675 5 ?
F2 Cs1 F3 130.9(3) . 5 ?
F1 Cs1 F3 114.1(3) . 5 ?
O3 Cs1 F3 60.6(3) 6_674 5 ?
F2 Cs1 O1 67.4(3) 6_675 6_674 ?
F2 Cs1 O1 108.1(3) . 6_674 ?
F1 Cs1 O1 143.1(3) . 6_674 ?
O3 Cs1 O1 68.2(3) 6_674 6_674 ?
F3 Cs1 O1 82.4(3) 5 6_674 ?
F2 Cs1 F1 155.2(2) 6_675 4_584 ?
F2 Cs1 F1 57.5(2) . 4_584 ?
F1 Cs1 F1 79.20(15) . 4_584 ?
O3 Cs1 F1 69.6(3) 6_674 4_584 ?
F3 Cs1 F1 82.0(3) 5 4_584 ?
O1 Cs1 F1 137.4(3) 6_674 4_584 ?
F2 Cs1 O3 74.6(2) 6_675 . ?
F2 Cs1 O3 47.9(2) . . ?
F1 Cs1 O3 66.8(3) . . ?
O3 Cs1 O3 118.1(2) 6_674 . ?
F3 Cs1 O3 178.7(3) 5 . ?
O1 Cs1 O3 97.4(3) 6_674 . ?
F1 Cs1 O3 97.3(2) 4_584 . ?
F2 Cs1 O3 93.4(2) 6_675 7_655 ?
F2 Cs1 O3 129.0(2) . 7_655 ?
F1 Cs1 O3 66.4(2) . 7_655 ?
O3 Cs1 O3 102.5(2) 6_674 7_655 ?
F3 Cs1 O3 47.7(3) 5 7_655 ?
O1 Cs1 O3 119.7(2) 6_674 7_655 ?
F1 Cs1 O3 74.9(2) 4_584 7_655 ?
O3 Cs1 O3 133.2(3) . 7_655 ?
F2 Cs1 W1 101.66(17) 6_675 5 ?
F2 Cs1 W1 134.19(17) . 5 ?
F1 Cs1 W1 91.68(19) . 5 ?
O3 Cs1 W1 79.86(19) 6_674 5 ?
F3 Cs1 W1 22.4(3) 5 5 ?
O1 Cs1 W1 100.58(19) 6_674 5 ?
F1 Cs1 W1 77.13(16) 4_584 5 ?
O3 Cs1 W1 158.48(17) . 5 ?
O3 Cs1 W1 25.32(16) 7_655 5 ?
F2 Cs1 W1 98.72(16) 6_675 . ?
F2 Cs1 W1 25.00(15) . . ?
F1 Cs1 W1 69.93(17) . . ?
O3 Cs1 W1 102.26(18) 6_674 . ?
F3 Cs1 W1 154.7(2) 5 . ?
O1 Cs1 W1 109.65(19) 6_674 . ?
F1 Cs1 W1 74.19(16) 4_584 . ?
O3 Cs1 W1 24.28(17) . . ?
O3 Cs1 W1 130.04(16) 7_655 . ?
W1 Cs1 W1 148.27(3) 5 . ?
F2 Cs1 W1 21.90(17) 6_675 6_675 ?
F2 Cs1 W1 142.15(16) . 6_675 ?
F1 Cs1 W1 74.85(17) . 6_675 ?
O3 Cs1 W1 131.76(18) 6_674 6_675 ?
F3 Cs1 W1 86.9(2) 5 6_675 ?
O1 Cs1 W1 73.3(2) 6_674 6_675 ?
F1 Cs1 W1 144.51(17) 4_584 6_675 ?
O3 Cs1 W1 94.28(17) . 6_675 ?
O3 Cs1 W1 72.71(16) 7_655 6_675 ?
W1 Cs1 W1 79.84(2) 5 6_675 ?
W1 Cs1 W1 117.51(2) . 6_675 ?
loop_
_geom_bond_atom_site_label_1
_geom_bond_atom_site_label_2
_geom_bond_distance
_geom_bond_site_symmetry_2
_geom_bond_publ_flag
W1 F3 1.733(16) . ?
W1 O3 1.800(10) 3_655 ?
W1 O3 1.800(10) . ?
W1 F2 1.953(8) 3_655 ?
W1 F2 1.953(8) . ?
W1 O2 2.263(17) . ?
W1 Cs1 4.1536(12) 5_445 ?
W1 Cs1 4.1536(12) 7_645 ?
W1 Cs1 4.2195(9) . ?
W1 Cs1 4.2195(9) 3_655 ?
W1 Cs1 4.3889(11) 8_474 ?
W1 Cs1 4.3889(11) 6_674 ?
I1 O1 1.759(14) . ?
I1 O2 1.790(17) . ?
I1 F1 1.974(8) 3_655 ?
I1 F1 1.974(8) . ?
I1 Cs1 4.4448(14) 8_475 ?
I1 Cs1 4.4448(14) 6_675 ?
O1 Cs1 3.176(10) 8_475 ?
O1 Cs1 3.176(10) 6_675 ?
F1 Cs1 3.055(9) . ?
F1 Cs1 3.203(9) 4_585 ?
F2 Cs1 3.006(8) 6_674 ?
F2 Cs1 3.026(8) . ?
O3 Cs1 3.077(10) 6_675 ?
O3 Cs1 3.365(10) . ?
O3 Cs1 3.463(10) 7_645 ?
F3 Cs1 3.137(11) 5_445 ?
F3 Cs1 3.137(11) 7_645 ?
loop_
_geom_torsion_atom_site_label_1
_geom_torsion_atom_site_label_2
_geom_torsion_atom_site_label_3
_geom_torsion_atom_site_label_4
_geom_torsion
_geom_torsion_site_symmetry_1
_geom_torsion_site_symmetry_2
_geom_torsion_site_symmetry_3
_geom_torsion_site_symmetry_4
_geom_torsion_publ_flag
O2 I1 O1 Cs1 -61.4(6) . . . 8_475 ?
F1 I1 O1 Cs1 27.7(7) 3_655 . . 8_475 ?
F1 I1 O1 Cs1 -150.5(7) . . . 8_475 ?
Cs1 I1 O1 Cs1 -122.9(12) 6_675 . . 8_475 ?
O2 I1 O1 Cs1 61.4(6) . . . 6_675 ?
F1 I1 O1 Cs1 150.5(7) 3_655 . . 6_675 ?
F1 I1 O1 Cs1 -27.7(7) . . . 6_675 ?
Cs1 I1 O1 Cs1 122.9(12) 8_475 . . 6_675 ?
O1 I1 O2 W1 0.000(10) . . . . ?
F1 I1 O2 W1 -89.2(3) 3_655 . . . ?
F1 I1 O2 W1 89.2(3) . . . . ?
Cs1 I1 O2 W1 -30.55(3) 8_475 . . . ?
Cs1 I1 O2 W1 30.55(3) 6_675 . . . ?
F3 W1 O3 Cs1 -122.2(9) . . . 6_675 ?
O3 W1 O3 Cs1 -21.6(12) 3_655 . . 6_675 ?
F2 W1 O3 Cs1 88.7(15) 3_655 . . 6_675 ?
F2 W1 O3 Cs1 141.3(9) . . . 6_675 ?
O2 W1 O3 Cs1 63.5(9) . . . 6_675 ?
Cs1 W1 O3 Cs1 -77.9(9) 5_445 . . 6_675 ?
Cs1 W1 O3 Cs1 -123.7(10) 7_645 . . 6_675 ?
Cs1 W1 O3 Cs1 124.4(10) . . . 6_675 ?
Cs1 W1 O3 Cs1 17.0(12) 3_655 . . 6_675 ?
Cs1 W1 O3 Cs1 -156.1(3) 8_474 . . 6_675 ?
Cs1 W1 O3 Cs1 175.0(8) 6_674 . . 6_675 ?
F3 W1 O3 Cs1 113.4(5) . . . . ?
O3 W1 O3 Cs1 -146.0(2) 3_655 . . . ?
F2 W1 O3 Cs1 -35.7(14) 3_655 . . . ?
F2 W1 O3 Cs1 16.9(4) . . . . ?
O2 W1 O3 Cs1 -60.9(4) . . . . ?
Cs1 W1 O3 Cs1 157.7(2) 5_445 . . . ?
Cs1 W1 O3 Cs1 111.9(4) 7_645 . . . ?
Cs1 W1 O3 Cs1 -107.4(3) 3_655 . . . ?
Cs1 W1 O3 Cs1 79.6(9) 8_474 . . . ?
Cs1 W1 O3 Cs1 50.6(3) 6_674 . . . ?
F3 W1 O3 Cs1 1.5(5) . . . 7_645 ?
O3 W1 O3 Cs1 102.1(4) 3_655 . . 7_645 ?
F2 W1 O3 Cs1 -147.6(11) 3_655 . . 7_645 ?
F2 W1 O3 Cs1 -95.0(3) . . . 7_645 ?
O2 W1 O3 Cs1 -172.8(4) . . . 7_645 ?
Cs1 W1 O3 Cs1 45.8(3) 5_445 . . 7_645 ?
Cs1 W1 O3 Cs1 -111.9(4) . . . 7_645 ?
Cs1 W1 O3 Cs1 140.7(2) 3_655 . . 7_645 ?
Cs1 W1 O3 Cs1 -32.3(9) 8_474 . . 7_645 ?
Cs1 W1 O3 Cs1 -61.3(2) 6_674 . . 7_645 ?
O3 W1 F3 Cs1 1.8(6) 3_655 . . 5_445 ?
O3 W1 F3 Cs1 102.0(5) . . . 5_445 ?
F2 W1 F3 Cs1 -87.3(5) 3_655 . . 5_445 ?
F2 W1 F3 Cs1 -168.9(4) . . . 5_445 ?
Cs1 W1 F3 Cs1 103.8(8) 7_645 . . 5_445 ?
Cs1 W1 F3 Cs1 152.3(2) . . . 5_445 ?
Cs1 W1 F3 Cs1 -48.5(6) 3_655 . . 5_445 ?
Cs1 W1 F3 Cs1 -92.5(3) 8_474 . . 5_445 ?
Cs1 W1 F3 Cs1 -163.7(6) 6_674 . . 5_445 ?
O3 W1 F3 Cs1 -102.0(5) 3_655 . . 7_645 ?
O3 W1 F3 Cs1 -1.8(6) . . . 7_645 ?
F2 W1 F3 Cs1 168.9(4) 3_655 . . 7_645 ?
F2 W1 F3 Cs1 87.3(5) . . . 7_645 ?
Cs1 W1 F3 Cs1 -103.8(8) 5_445 . . 7_645 ?
Cs1 W1 F3 Cs1 48.5(6) . . . 7_645 ?
Cs1 W1 F3 Cs1 -152.3(2) 3_655 . . 7_645 ?
Cs1 W1 F3 Cs1 163.7(6) 8_474 . . 7_645 ?
Cs1 W1 F3 Cs1 92.5(3) 6_674 . . 7_645 ?
