#------------------------------------------------------------------------------
#$Date: 2022-07-23 07:17:47 +0300 (Sat, 23 Jul 2022) $
#$Revision: 276901 $
#$URL: file:///home/coder/svn-repositories/cod/cif/1/56/73/1567354.cif $
#------------------------------------------------------------------------------
#
# This file is available in the Crystallography Open Database (COD),
# http://www.crystallography.net/. The original data for this entry
# were provided by IUCr Journals, http://journals.iucr.org/.
#
# The file may be used within the scientific community so long as
# proper attribution is given to the journal article from which the
# data were obtained.
#
data_1567354
loop_
_publ_author_name
'Chodkiewicz, Michal L.'
'Gajda, Roman'
'Lavina, Barbara'
'Tkachev, Sergey'
'Prakapenka, Vitali B.'
'Dera, Przemyslaw'
'Wozniak, Krzysztof'
_publ_section_title
;
 Accurate crystal structure of ice VI from X-ray diffraction with
 Hirshfeld atom refinement
;
_journal_issue                   5
_journal_name_full               IUCrJ
_journal_page_first
;
;
_journal_paper_doi               10.1107/S2052252522006662
_journal_volume                  9
_journal_year                    2022
_chemical_formula_moiety         'H2 O'
_chemical_formula_sum            'H2 O'
_chemical_formula_weight         18.015
_space_group_crystal_system      tetragonal
_space_group_IT_number           137
_space_group_name_Hall           '-P 4ac 2a'
_space_group_name_H-M_alt        'P 42/n m c :2'
_symmetry_Int_Tables_number      137
_audit_creation_date             2022-03-16
_audit_creation_method
;
Olex2 1.5
(compiled 2021.12.09 svn.r5202d8cf for OlexSys, GUI svn.r6439)
;
_cell_angle_alpha                90
_cell_angle_beta                 90
_cell_angle_gamma                90
_cell_formula_units_Z            10
_cell_length_a                   6.1737(5)
_cell_length_b                   6.1737(5)
_cell_length_c                   5.6843(3)
_cell_measurement_reflns_used    1312
_cell_measurement_temperature    293(2)
_cell_measurement_theta_max      23.7120
_cell_measurement_theta_min      3.6700
_cell_volume                     216.65(3)
_computing_cell_refinement       'CrysAlisPro 1.171.40.67a (Rigaku OD, 2019)'
_computing_data_collection       'CrysAlisPro 1.171.40.67a (Rigaku OD, 2019)'
_computing_data_reduction        'CrysAlisPro 1.171.40.67a (Rigaku OD, 2019)'
_computing_molecular_graphics    'Olex2 1.5 (Dolomanov et al., 2009)'
_computing_publication_material  'Olex2 1.5 (Dolomanov et al., 2009)'
_computing_structure_refinement  'olex2.refine 1.5 (Bourhis et al., 2015)'
_computing_structure_solution    'ShelXS (Sheldrick, 2008)'
_diffrn_ambient_temperature      293(2)
_diffrn_detector                 'CCD plate'
_diffrn_detector_area_resol_mean 16.0128
_diffrn_detector_type            Eos
_diffrn_measured_fraction_theta_full 0.9426
_diffrn_measured_fraction_theta_max 0.8782
_diffrn_measurement_details
;
List of Runs (angles in degrees, time in seconds):

  # Type    Start    End  Width  t~exp~   \w     \q     \k     \f   Frames
--------------------------------------------------------------------------
  1  \w    -37.00  59.00   1.00   35.00    --  -25.00 -19.00-180.00   96
  2  \w    -63.00  26.00   1.00   35.00    --  -25.00  67.00 -23.00   89
  3  \w    -52.00 -21.00   1.00   35.00    --  -25.00 -38.00  30.00   31
  4  \w    -62.00  37.00   1.00   35.00    --  -25.00  39.00 167.00   99
  5  \w      8.00  51.00   1.00   35.00    --  -25.00-135.00-123.00   43
  6  \w    -37.00  29.00   1.00   35.00    --  -25.00 -39.00-167.00   66
  7  \w    -21.00  20.00   1.00   35.00    --  -25.00 -81.00-151.00   41
  8  \w      8.00  51.00   1.00   35.00    --  -25.00-135.00  57.00   43
  9  \w    -41.00  55.00   1.00   35.00    --  -25.00 -26.00   8.00   96
 10  \w     21.00 101.00   1.00   35.00    --   25.16-135.00-123.00   80
 11  \w    -34.00  57.00   1.00   35.00    --   25.16 -26.00-171.00   91
 12  \w     -8.00  79.00   1.00   35.00    --   25.16 -97.00  35.00   87
 13  \w    -20.00  21.00   1.00   35.00    --   25.16  81.00 151.00   41
 14  \w   -115.00 -87.00   1.00   35.00    --  -25.00-160.00  90.00   28
 15  \w    -73.00 -40.00   1.00   35.00    --  -25.00  38.00-120.00   33
 16  \w    -73.00 -40.00   1.00   35.00    --  -25.00  38.00  60.00   33
 17  \w    -14.00  29.00   1.00   35.00    --  -25.00 -97.00  35.00   43
 18  \w     -5.00   7.00   1.00   35.00    --  -25.00-114.00-135.00   12
;
_diffrn_measurement_device       'four-circle diffractometer'
_diffrn_measurement_device_type  'SuperNova, Single source at offset/far, Eos'
_diffrn_measurement_method       '\w scans'
_diffrn_orient_matrix_type
'CrysAlisPro convention (1999,Acta A55,543-557)'
_diffrn_orient_matrix_UB_11      0.0592310000
_diffrn_orient_matrix_UB_12      0.0662281000
_diffrn_orient_matrix_UB_13      -0.0193139000
_diffrn_orient_matrix_UB_21      -0.0437671000
_diffrn_orient_matrix_UB_22      0.0184545000
_diffrn_orient_matrix_UB_23      -0.0838208000
_diffrn_orient_matrix_UB_31      -0.0527781000
_diffrn_orient_matrix_UB_32      0.0590096000
_diffrn_orient_matrix_UB_33      0.0478433000
_diffrn_radiation_monochromator  mirror
_diffrn_radiation_probe          x-ray
_diffrn_radiation_type           'Ag K\a'
_diffrn_radiation_wavelength     0.56087
_diffrn_reflns_av_R_equivalents  0.0574
_diffrn_reflns_av_unetI/netI     0.0240
_diffrn_reflns_Laue_measured_fraction_full 0.9426
_diffrn_reflns_Laue_measured_fraction_max 0.8782
_diffrn_reflns_limit_h_max       9
_diffrn_reflns_limit_h_min       -9
_diffrn_reflns_limit_k_max       8
_diffrn_reflns_limit_k_min       -8
_diffrn_reflns_limit_l_max       8
_diffrn_reflns_limit_l_min       -9
_diffrn_reflns_number            3861
_diffrn_reflns_point_group_measured_fraction_full 0.9426
_diffrn_reflns_point_group_measured_fraction_max 0.8782
_diffrn_reflns_theta_full        19.6651
_diffrn_reflns_theta_max         26.75
_diffrn_reflns_theta_min         3.68
_diffrn_source                   'micro-focus sealed X-ray tube'
_diffrn_source_type              'SuperNova (Ag) X-ray Source'
_exptl_absorpt_coefficient_mu    0.090
_exptl_absorpt_correction_type   none
_exptl_crystal_colour            colourless
_exptl_crystal_density_diffrn    1.381
_exptl_crystal_description       disc
_exptl_crystal_F_000             100.058
_exptl_crystal_size_max          0.3
_exptl_crystal_size_mid          0.2
_exptl_crystal_size_min          0.2
_refine_diff_density_max         0.2649
_refine_diff_density_min         -0.2772
_refine_diff_density_rms         0.0698
_refine_ls_d_res_high            0.6231
_refine_ls_d_res_low             4.3655
_refine_ls_goodness_of_fit_ref   1.1553
_refine_ls_hydrogen_treatment    refall
_refine_ls_matrix_type           full
_refine_ls_number_constraints    0
_refine_ls_number_parameters     22
_refine_ls_number_reflns         238
_refine_ls_number_restraints     0
_refine_ls_restrained_S_all      1.1553
_refine_ls_R_factor_all          0.0452
_refine_ls_R_factor_gt           0.0306
_refine_ls_shift/su_max          -0.0007
_refine_ls_shift/su_mean         0.0001
_refine_ls_structure_factor_coef Fsqd
_refine_ls_weighting_details
'w=1/[\s^2^(Fo^2^)+(0.0262P)^2^+0.0138P] where P=(Fo^2^+2Fc^2^)/3'
_refine_ls_weighting_scheme      calc
_refine_ls_wR_factor_gt          0.0624
_refine_ls_wR_factor_ref         0.0751
_reflns_Friedel_coverage         0.0
_reflns_limit_h_max              9
_reflns_limit_h_min              0
_reflns_limit_k_max              6
_reflns_limit_k_min              0
_reflns_limit_l_max              9
_reflns_limit_l_min              0
_reflns_number_gt                175
_reflns_number_total             238
_reflns_threshold_expression     I>=2u(I)
_iucr_refine_instructions_details
;
TITL appr2fin in P42/nmc #137
REM reset to P42/nmc #137
CELL 0.56087 6.1737 6.1737 5.684276 90 90 90
ZERR 10 0.00045 0.000537 0.000292 0 0 0
LATT 1
SYMM 0.5-Y,+X,0.5+Z
SYMM 0.5-X,0.5-Y,+Z
SYMM +Y,0.5-X,0.5+Z
SYMM 0.5+X,-Y,-Z
SYMM -X,0.5+Y,-Z
SYMM 0.5+Y,0.5+X,0.5-Z
SYMM -Y,-X,0.5-Z
SFAC H O
DISP H 0 0 0.7
DISP O 0.0058 0.0036 18.2
UNIT 20 10

L.S. 24
PLAN  5
CONF
BOND 
MORE -1
BOND $H
fmap 2 53
acta 
WGHT 0.026152 0.013804
FVAR 22.457598
REM <olex2.extras>
REM <HklSrc "%.\\appr2fin.hkl">
REM </olex2.extras>

O1    2     0.52972  0.75000  0.12897  10.50000  0.03000  0.04261  0.03994 =
 0.00000  0.00067 -0.00000 

O2    2     0.25000  0.75000 -0.25000  10.12500  0.04324  0.04324  0.03286 =
 0.00000 -0.00000 -0.00000 

H1a   1     0.47749  0.85075  0.19646  10.50000  0.04646 

H2    1     0.15902  0.75000 -0.17226  10.25000  0.04840 

H1b   1     0.65031  0.75000  0.12865  10.25000  0.04109 
H1c   1     0.48046  0.75000  0.01138  10.25000  0.03818 
HKLF 4

END
Q1 1 0.25 0.6 0.041667 11 0.05 0.26
Q2 1 0.64 1 0.041667 11 0.05 0.18
Q3 1 0.48 0.98 0.25 11 0.05 0.17
Q4 1 0.16 0.66 -0.25 11 0.05 0.17
Q5 1 0.75 0.75 0.333333 11 0.05 0.15

  REM The information below was added by Olex2.
  REM
  REM R1 = 0.0306 for 175 Fo > 4sig(Fo) and 0.0452 for all 238 data
  REM 22 parameters refined using 0 restraints
  REM Highest difference peak 0.2649, deepest hole -0.2772
  REM Mean Shift 0.0001, Max Shift -0.0007.

  REM +++ Tabular Listing of Refinement Information +++
  REM R1_all = 0.0452
  REM R1_gt = 0.0306
  REM wR_ref = 0.0751
  REM GOOF = 1.1553
  REM Shift_max = -0.0007
  REM Shift_mean = 0.0001
  REM Reflections_all = 238
  REM Reflections_gt = 175
  REM Parameters = 22
  REM Hole = -0.2772
  REM Peak = 0.2649
  REM Flack = n/a

  
;
_cod_data_source_file            lt5051.cif
_cod_data_source_block           H2O_D2O_home_IAM
_cod_original_sg_symbol_H-M      'P 42/n m c'
_cod_database_code               1567354
_chemical_oxdiff_formula         H2O
_olex2_refinement_description
;
1. Others
 Fixed Sof: H1a(0.5) H2(0.25) H1b(0.25) H1c(0.25)
;
_olex2_submission_special_instructions 'No special instructions were received'
_oxdiff_exptl_absorpt_empirical_details
;
Empirical correction (ABSPACK) includes:
;
_oxdiff_exptl_absorpt_empirical_full_max 1.150
_oxdiff_exptl_absorpt_empirical_full_min 0.858
loop_
_space_group_symop_id
_space_group_symop_operation_xyz
1 x,y,z
2 -y+1/2,x,z+1/2
3 y,-x+1/2,z+1/2
4 x+1/2,-y,-z
5 -x,y+1/2,-z
6 -x+1/2,-y+1/2,z
7 y+1/2,x+1/2,-z+1/2
8 -y,-x,-z+1/2
9 -x,-y,-z
10 y-1/2,-x,-z-1/2
11 -y,x-1/2,-z-1/2
12 -x-1/2,y,z
13 x,-y-1/2,z
14 x-1/2,y-1/2,-z
15 -y-1/2,-x-1/2,z-1/2
16 y,x,z-1/2
loop_
_atom_site_label
_atom_site_type_symbol
_atom_site_fract_x
_atom_site_fract_y
_atom_site_fract_z
_atom_site_U_iso_or_equiv
_atom_site_adp_type
_atom_site_occupancy
_atom_site_site_symmetry_order
_atom_site_refinement_flags_posn
_atom_site_refinement_flags_adp
_atom_site_refinement_flags_occupancy
O1 O 0.52972(15) 0.75 0.12897(15) 0.0375(4) Uani 1.000000 2 S T P
O2 O 0.25 0.75 -0.25 0.0398(5) Uani 1.000000 8 S T P
H1a H 0.477(3) 0.851(4) 0.196(4) 0.046(6) Uiso 0.500000 1 . . .
H2 H 0.159(6) 0.75 -0.172(5) 0.048(9) Uiso 0.500000 2 S T P
H1b H 0.650(5) 0.75 0.129(4) 0.041(8) Uiso 0.500000 2 S T P
H1c H 0.480(4) 0.75 0.011(6) 0.038(8) Uiso 0.500000 2 S T P
loop_
_atom_site_aniso_label
_atom_site_aniso_U_11
_atom_site_aniso_U_22
_atom_site_aniso_U_33
_atom_site_aniso_U_12
_atom_site_aniso_U_13
_atom_site_aniso_U_23
O1 0.0300(6) 0.0426(6) 0.0399(5) -0.000000 0.0007(3) 0.000000
O2 0.0432(7) 0.0432(7) 0.0329(8) -0.000000 -0.000000 0.000000
loop_
_atom_type_symbol
_atom_type_scat_dispersion_real
_atom_type_scat_dispersion_imag
_atom_type_scat_Cromer_Mann_a1
_atom_type_scat_Cromer_Mann_a2
_atom_type_scat_Cromer_Mann_a3
_atom_type_scat_Cromer_Mann_a4
_atom_type_scat_Cromer_Mann_b1
_atom_type_scat_Cromer_Mann_b2
_atom_type_scat_Cromer_Mann_b3
_atom_type_scat_Cromer_Mann_b4
_atom_type_scat_Cromer_Mann_c
_atom_type_scat_source
_atom_type_scat_dispersion_source
H 0.00000 0.00000 0.49300 0.32291 0.14019 0.04081 10.51090 26.12570 3.14236
57.79970 0.00304 'International Tables Volume C Table 6.1.1.4 (pp. 500-502)'
custom
O 0.00580 0.00360 3.04850 2.28680 1.54630 0.86700 13.27710 5.70110 0.32390
32.90890 0.25080 'International Tables Volume C Table 6.1.1.4 (pp. 500-502)'
custom
loop_
_diffrn_refln_index_h
_diffrn_refln_index_k
_diffrn_refln_index_l
_diffrn_refln_intensity_net
_diffrn_refln_intensity_u
_diffrn_refln_scale_group_code
0 0 -1 -2.39041 12.093 7
0 0 -1 5.18527 10.7896 6
0 0 1 1.76908 12.8807 9
0 0 1 2.117 3.14333 11
0 0 1 3.72438 14.2988 2
0 0 1 -4.41934 8.92071 3
0 0 -1 2.31168 22.133 1
0 0 -1 0.05629 5.59672 4
0 0 2 122449 2541.12 11
0 0 2 126252 2501.69 2
0 0 -2 125086 1923.31 4
0 0 -2 129531 1820.31 5
0 0 -2 127760 2552.68 1
0 0 -2 122628 2354.29 7
0 0 3 83.4884 32.8532 9
0 0 3 -100.417 101.976 11
0 0 -3 73.4084 119.177 1
0 0 -3 12.9069 50.5964 7
0 0 3 185.195 129.75 2
0 0 -3 -3.55424 16.4599 6
0 0 3 199.705 75.2375 3
0 0 -3 -12.851 13.4145 4
0 0 -3 -24.7034 48.0608 5
0 0 3 25.0397 27.3347 10
0 0 -4 91354.3 3154.84 6
0 0 4 96035.1 3142.03 2
0 0 -5 213.862 228.939 1
0 0 5 74.8045 119.708 14
0 0 -5 -18.9431 48.7375 8
0 0 -5 -77.7755 93.4408 4
0 0 -5 314.911 274.563 7
0 0 5 -44.013 79.0165 9
0 0 5 184.9 168.007 2
0 0 -5 138.12 209.735 6
0 0 5 177.626 178.469 11
0 0 -6 -106.899 94.0577 7
0 0 6 744.124 381.65 11
0 0 6 294.13 152.979 14
0 0 -6 274.312 324.54 1
0 0 -6 65.0803 130.703 6
0 0 6 217.393 250.852 2
0 0 -7 -302.597 328.789 6
0 0 7 229.186 233.285 2
0 0 -7 -196.674 275.152 7
0 0 -7 208.356 232.575 1
0 0 7 -534.964 451.96 11
0 0 -8 8764.71 1467.61 1
0 0 8 7872.61 1364.06 11
0 0 -8 8893.31 1373.4 7
0 0 8 9371.29 1504.12 2
0 0 -8 8238.81 1431.28 6
1 0 0 11.8934 22.339 13
1 0 0 -7.61859 6.95266 9
0 1 0 -16.8586 17.7639 12
0 -1 0 7.29012 27.9526 17
-1 0 0 13.5509 19.8412 4
1 0 -1 3899.94 363.884 5
0 -1 -1 4097.06 332.601 1
0 1 1 4282.04 326.286 12
-1 0 -1 4039.82 368.904 1
0 1 1 4301.13 354.682 11
0 -1 -1 4093.86 358.779 8
0 1 1 4132.97 379.183 2
-1 0 1 4221.01 374.993 10
1 0 1 4577.38 315.717 13
0 -1 1 4080.57 378.023 3
1 0 1 3680.28 346.13 9
1 0 -1 4272.16 383.145 18
1 0 1 4430.78 324.81 2
1 0 1 4414.28 377.435 11
0 -1 1 4422.89 387.34 9
0 1 -1 4269.69 379.397 1
-1 0 1 3349.7 306.648 11
0 -1 -1 4377.08 329.146 17
0 -1 1 3814.16 350.952 11
-1 0 -1 4113.84 366.791 4
0 1 1 4505.71 371.552 10
1 0 -1 3357.79 348.006 7
0 1 -1 3950.7 367.663 4
1 0 -1 3850.84 344.723 6
-1 0 2 361535 4326.6 11
1 0 -2 364810 4482.43 6
-1 0 2 385996 4726.77 2
0 1 2 356650 4260.03 16
0 -1 2 372004 4418.11 9
0 1 -2 362025 4581.59 1
0 1 2 342465 4464.6 2
1 0 -2 339250 4424.25 7
0 1 -2 325003 3768.46 7
1 0 2 365981 4111.27 2
0 1 2 373396 4423.77 11
0 -1 2 369401 4591.36 11
-1 0 -2 348997 4351.04 6
1 0 2 357212 4157.28 9
0 -1 -2 362807 4256.46 1
0 -1 2 374043 4338.57 3
0 1 2 351053 4076.6 14
1 0 -2 337317 4170.01 1
0 -1 -2 371971 4009.95 8
0 1 -2 351086 4431.91 6
1 0 2 372811 4624.25 11
-1 0 2 366509 4152.12 10
1 0 3 100990 2700.3 2
1 0 -3 107782 2551.35 5
0 1 3 102624 2857.67 11
0 1 -3 103477 2924.13 6
0 1 3 107563 1773.53 12
0 -1 3 99797.6 2921.41 11
0 -1 3 112386 2880.22 2
1 0 3 101570 2456.95 3
0 1 3 105664 1964.04 9
0 1 3 99377.1 2567.64 14
-1 0 -3 114878 1603.09 8
1 0 3 100065 2921.52 11
1 0 3 98618.9 2551.37 9
0 -1 3 108901 2735.47 9
0 -1 -3 99540.1 2311.66 5
0 -1 3 111673 2723.09 3
0 1 -3 106139 2566.11 4
0 -1 -3 107956 2446.71 8
1 0 -3 101421 2853.57 7
0 -1 -3 98373.7 2762.41 1
-1 0 -3 102352 2493.04 7
0 1 3 99046.3 2891.51 2
0 -1 -3 98683.6 2893.61 6
-1 0 -3 100556 2898.9 1
-1 0 3 101426 2845.84 11
0 1 -3 102881 2580.76 7
-1 0 -4 1200.87 199.151 8
0 1 -4 780.522 250.817 7
1 0 -4 1106.8 333.46 18
0 1 4 918.594 319.58 11
1 0 4 1248.24 353.619 2
-1 0 4 910.651 271.369 11
1 0 -4 980.413 316.7 6
0 1 4 1019.71 172.463 12
-1 0 -4 786.769 264.591 7
1 0 -4 1179.68 355.052 1
-1 0 -4 1092.78 171.388 5
1 0 4 843.636 264.465 9
0 1 -4 961.615 315.581 6
1 0 4 745.03 203.029 14
0 1 4 1110.39 264.191 10
1 0 4 605.622 266.318 11
1 0 4 982.531 166.172 10
0 1 4 1260.4 386.23 2
-1 0 -4 780.964 275.149 6
1 0 4 786.949 255.536 3
0 1 -4 1161.71 292.674 4
0 -1 -4 1094.59 335.209 7
0 -1 -4 1013.2 203.486 4
0 1 -4 969.192 321.587 1
0 -1 -4 1014.69 279.865 5
0 -1 -4 1256.42 191.673 17
-1 0 -4 946.379 246.684 4
0 1 4 611.668 231.564 14
0 -1 -4 899.045 311.033 1
0 -1 -4 661.008 256.542 6
0 1 4 1400.13 279.501 9
0 -1 4 1237.68 302.693 9
-1 0 4 1263.07 357.88 2
-1 0 4 1020.04 261.737 10
1 0 -4 913.462 272.3 7
0 -1 4 667.412 257.157 11
0 -1 4 898.629 193.572 10
0 -1 -4 898.893 235.528 8
-1 0 -4 968.639 337.754 1
0 -1 4 1181.61 354.744 2
1 0 -4 1034.99 271.601 5
0 -1 5 22091.2 1522.39 9
0 -1 -5 21362.9 1690.7 1
0 -1 -5 22683.5 1355.84 8
0 1 -5 21704.8 1755.39 1
0 1 5 21374.3 1501.95 14
-1 0 -5 23135.3 1806.78 1
-1 0 -5 21748.8 1379.64 4
1 0 5 22947.4 1443.1 3
0 1 5 21349.7 1715.91 11
-1 0 -5 21381.2 1524.29 7
0 1 5 23552.7 1818.54 2
0 -1 -5 21057.8 1655.53 7
1 0 -5 20950.9 1664.66 7
1 0 5 21876.1 1748.16 11
-1 0 -5 20231 1698.48 6
1 0 5 22653.1 1513.21 9
1 0 5 20587.1 1252.59 14
0 1 5 23610.1 1357.22 10
-1 0 5 20704.7 1687.03 11
0 -1 -5 21028.1 1747.3 6
-1 0 5 23269 1801.5 2
1 0 -5 22195.1 1727.45 1
1 0 5 23712.5 1726.86 2
0 -1 -5 23177.2 1364.12 5
1 0 -5 20801.3 1731.97 6
-1 0 5 21995.9 1387.7 10
1 0 -5 21413.6 1498.75 18
0 1 -5 23270.1 1814.88 6
0 1 5 20268.3 1207.61 9
0 1 -5 21120.4 1552.9 7
0 -1 5 23486.5 1729.05 2
0 -1 5 20998.5 1741.4 11
0 1 -6 8136.26 1051.51 7
0 1 6 9561.55 1272.8 11
0 -1 6 8340.87 1214.33 11
1 0 6 8720.1 1004.66 9
0 -1 6 9603.93 1257 2
0 1 6 8786.48 1046.57 14
0 -1 -6 9289.41 1304.16 6
-1 0 6 7942.42 1081.14 14
-1 0 -6 9469.05 1299.72 1
0 1 -6 9509.18 1291.24 1
-1 0 -6 8509.04 1235.29 6
-1 0 6 8665.03 1170.44 11
1 0 6 9489.49 1282.74 11
0 -1 -6 8739.03 1168.13 7
0 -1 6 9425.77 1059.22 9
1 0 -6 8594.73 1049.15 18
0 1 6 9364.52 1266.96 2
1 0 -6 9567.65 1239.23 7
1 0 -6 8355.54 1223.32 6
1 0 -6 7668.67 1118.15 1
0 -1 -6 10801.1 1355.67 1
-1 0 6 9610.71 1282.38 2
1 0 6 9342.93 1189.17 2
-1 0 -6 9097.33 1085.98 7
0 1 -6 8898.62 1234.63 6
0 1 -7 114.013 153.082 7
0 -1 -7 135.467 152.382 7
1 0 -7 304.65 303.014 1
0 1 7 -47.9789 87.2848 2
-1 0 7 295.152 274.494 14
1 0 7 -52.7066 101.285 2
-1 0 -7 -160.039 105.07 7
1 0 7 -203.79 342.247 11
0 -1 -7 247.491 296.52 1
0 1 7 344.721 287.129 11
-1 0 7 83.0175 111.218 2
-1 0 -7 -101.86 85.2903 6
0 -1 -7 447.353 367.785 6
1 0 -7 -177.055 94.5741 7
0 -1 7 168.855 148.992 11
-1 0 -7 277.726 290.339 1
0 1 -7 744.826 499.93 1
-1 0 7 -209.72 153.753 11
0 1 -7 224.565 255.199 6
1 0 -7 -154.75 192.508 6
1 0 8 472.502 397.604 2
0 1 -8 -176.892 171.497 1
-1 0 8 -14.1336 238.657 2
0 1 8 608.876 522.535 11
1 0 -8 -193.948 317.291 1
0 -1 -8 190.785 164.968 1
0 1 8 -570.601 488.485 2
-1 0 -8 -126.86 328.242 6
-1 0 8 -275.405 440.202 11
1 0 8 94.7579 176.413 11
1 0 -8 -199.704 290.888 7
1 0 -8 -184.45 256.364 6
0 -1 8 -61.1235 191.688 11
0 -1 -8 5.34223 285.271 7
-1 0 -8 548.845 397.879 1
0 1 -8 312.775 303.331 6
0 -1 -8 168.957 111.83 6
1 0 -9 -149.002 109.026 7
-1 1 0 10520.9 563.06 10
-1 1 0 9720.69 531.792 4
-1 1 0 10687.1 494.283 15
1 -1 0 10153.2 516.883 9
-1 1 0 10349 592.531 12
-1 -1 -1 14.6735 32.3675 15
1 -1 -1 2.24893 46.2745 13
-1 1 -1 6.51378 24.1005 6
-1 1 1 -7.86675 37.8456 10
1 -1 -1 56.7107 37.0779 6
-1 -1 -1 -22.0465 53.0049 1
-1 1 1 4.95932 49.847 4
1 -1 -1 19.3166 25.8443 1
-1 1 1 25.4035 24.5789 12
-1 1 1 1.11593 12.7301 11
-1 1 1 10.7314 28.4773 14
1 -1 1 -18.3899 30.0789 17
1 -1 -1 -21.3607 45.1279 5
-1 1 1 64.62 41.5148 16
1 1 1 -23.1312 38.7248 2
-1 1 1 -8.34523 22.0943 2
-1 1 -1 -6.88351 22.2007 10
1 -1 1 -17.2595 22.5016 11
-1 1 -1 -31.7576 43.7961 1
1 -1 1 -4.25154 31.0686 9
-1 1 -1 14.803 23.35 12
1 -1 1 7.23696 16.5511 8
1 1 1 16.9862 32.1491 11
-1 1 -1 -21.8697 37.8135 4
-1 1 2 49128.4 1523.78 11
1 1 2 48190.6 1734.73 16
-1 1 2 50900 1760.74 2
1 1 2 49083.3 1492.47 9
1 -1 -2 49010.8 1776.53 7
-1 -1 -2 52175.8 1432.22 4
1 -1 -2 51863.4 1509.86 1
1 -1 -2 55969 1353.28 13
-1 1 2 51033.9 1685.48 10
-1 -1 -2 50604.7 1765.54 1
-1 1 2 43802.9 1303.09 16
1 1 2 52781.8 1841.04 11
-1 1 2 48988.5 1715.78 14
1 1 2 50682.4 1741.69 2
1 -1 -2 49268.9 1675 5
-1 1 2 50792.7 1509.15 12
-1 1 3 -44.9608 33.9601 11
1 1 3 -63.1123 90.6998 9
1 -1 3 -99.9687 105.27 11
1 1 -3 -131.973 172.479 1
1 -1 3 -36.9774 70.3027 2
1 1 3 -66.9991 81.6968 11
1 -1 -3 91.8125 56.6169 13
1 -1 -3 -32.2172 62.6227 1
-1 -1 -3 -39.5295 122.438 6
-1 1 3 -3.96049 86.3334 14
-1 -1 -3 7.97629 48.9373 4
-1 -1 3 -44.2217 104.417 11
-1 1 3 -82.9553 124.342 2
-1 1 3 100.817 55.0062 10
1 -1 3 122.79 127.835 9
-1 1 -3 -6.89487 33.6488 12
-1 1 3 52.5903 20.8626 12
1 -1 3 -0.097 82.9547 3
1 -1 -3 -99.3257 92.2208 7
-1 1 -3 -9.4037 78.337 7
-1 1 -3 15.4531 69.7383 4
-1 -1 -3 4.69962 66.4057 1
-1 1 -3 40.8992 69.1746 6
1 -1 -3 -74.4771 75.8987 5
1 1 3 83.2619 96.6674 16
-1 1 -3 -19.964 81.0421 1
1 1 3 -5.59054 31.5866 12
-1 -1 -3 -91.6343 85.6595 8
1 1 -3 -162.051 137.372 7
1 1 3 17.0213 26.1816 2
1 -1 -3 -70.8891 111.723 6
-1 1 -4 33270.5 1906.63 6
1 1 4 30806.1 1379.26 3
1 -1 -4 33681.8 1944.95 7
-1 1 4 35026.2 1998.89 2
-1 1 4 33923.1 1860.26 11
-1 1 4 32038.3 1803.84 14
1 -1 -4 33389.3 1906.1 6
1 -1 4 36382.4 1826.36 2
-1 1 -4 28160.4 1471.02 7
1 1 -4 31952.8 1828.63 7
1 -1 -4 34595.3 1846.44 1
1 -1 -4 34712.9 1702.08 5
-1 1 -4 34940.5 1760.94 4
-1 -1 -4 32444 1931.9 6
1 1 4 32874.9 1895.97 2
1 1 4 35773.6 2019.26 11
-1 -1 -4 33436.1 1924.6 1
-1 -1 -4 32879.7 1443.7 4
1 1 -4 34959.9 1974.23 1
1 -1 4 34826.6 1837.57 9
-1 -1 4 33144.8 1544.66 10
-1 -1 4 31728.2 1901.81 11
1 1 4 31082 1519.24 9
1 -1 -5 66.3579 155.385 6
1 1 -5 363.184 209.567 6
1 -1 -5 -170.116 155.206 5
-1 1 5 -199.99 144.349 11
-1 1 -5 442.174 293.76 6
1 1 5 228.276 232.582 11
-1 1 5 56.9668 136.087 2
-1 1 -5 41.8642 137.995 4
-1 1 5 241.202 203.681 14
1 -1 -5 -73.8545 168.601 7
-1 -1 -5 5.96995 112.084 1
1 -1 5 61.2337 150.638 2
1 1 5 411.948 273.572 2
1 -1 -5 6.39579 66.7969 1
1 1 5 201.445 166.378 9
-1 1 5 107.992 125.281 10
1 -1 5 -118.373 115.118 9
-1 -1 5 -254.881 250.623 11
1 1 -5 -83.798 139.429 1
-1 1 -5 -73.1557 86.346 7
1 1 -5 -77.3455 47.6104 7
-1 -1 -5 -165.948 130.498 6
-1 -1 5 -57.1279 85.7462 10
1 -1 5 -215.967 213.474 11
-1 1 -5 -341.667 310.344 1
1 -1 5 62.8579 204.813 3
-1 -1 -5 -110.276 72.2464 7
1 -1 -5 -66.452 135.063 8
-1 -1 -6 2565.9 650.327 1
1 -1 6 2631.44 611.594 3
1 1 -6 2719.83 645.122 7
1 -1 6 2570.44 632.167 2
-1 1 6 2465.98 600.16 11
1 -1 -6 2739.36 687.055 7
1 -1 6 2574.61 672.918 11
-1 1 6 2944.5 649.736 14
-1 1 -6 3084.15 764.328 1
1 1 6 2470.38 664.623 2
-1 1 -6 2457.91 531.335 7
-1 -1 -6 2836.66 712.443 6
1 1 -6 1843.91 569.517 6
1 -1 -6 2422.77 675.022 6
1 -1 6 2411.22 563.535 9
-1 1 6 3048.18 765.57 2
1 1 -6 2691.92 708.412 1
1 1 6 2395.79 658.819 11
-1 -1 6 2409.33 664.961 11
-1 1 -6 1888.26 582.157 6
1 -1 -6 2823.74 671.65 1
-1 1 -6 2572.15 569.826 4
-1 -1 -6 1956.52 530.184 7
-1 1 -7 -165.433 85.5158 1
-1 1 7 574.181 409.33 2
-1 1 -7 -350.202 417.475 6
-1 -1 -7 574.725 370.918 6
-1 -1 -7 -106.221 120.732 7
1 -1 -7 -156.992 313.454 6
-1 1 7 56.9993 232.973 11
1 1 7 -426.004 269.542 11
1 -1 7 173.437 142.846 2
-1 1 7 175.729 267.891 14
1 -1 7 803.774 412.227 11
1 -1 -7 83.0691 117.924 1
-1 -1 -7 -404.729 326.395 1
1 -1 -7 -118.249 297.979 7
1 1 7 -214.371 221.378 2
1 -1 -8 -145.841 241.794 6
1 1 -8 -8.57205 166.147 6
-1 -1 -8 397.895 167.095 6
1 -1 8 560.825 256.561 2
-1 1 8 600.333 448.392 2
1 1 -8 -52.2857 421.902 1
1 -1 -8 -66.5396 327.148 1
-1 1 -8 -54.0899 77.5123 6
1 -1 -8 -71.7415 327.43 7
-1 1 -8 -30.1048 251.467 1
-1 1 8 -305.313 363.219 11
-1 -1 -8 1264.46 654.02 1
1 1 8 264.583 229.655 11
1 1 8 -152.36 109.781 2
1 -1 8 930.016 558.206 11
-1 -1 8 -149.61 227.553 11
2 0 0 93459.3 2054.6 9
-2 0 0 98669.4 2147.15 4
-2 0 1 428408 4867.11 10
2 0 1 395503 4233.15 16
2 0 2 37260.1 1269.74 13
0 2 2 34820 1558.91 2
-2 0 -2 33698 1539.75 1
0 -2 2 31000 1456.33 11
0 2 2 39081.2 1560.61 10
-2 0 -2 34835 1503.44 4
0 2 2 37669.4 1492.11 11
2 0 -2 35723.2 1583.56 18
2 0 2 32526.1 1490.51 9
0 -2 -2 28716 1201.26 17
2 0 -2 35784.4 1570.67 5
-2 0 -2 32909.4 1417.98 6
0 -2 -2 37224 1538.64 8
2 0 -2 32926.5 1550.71 7
0 -2 -2 34732.5 1489.48 6
0 2 2 34176 1325.51 12
2 0 2 34826.1 1289.17 2
-2 0 2 34040.2 1538.62 10
0 -2 -2 34260.7 1368.76 1
0 -2 2 36873.7 1602.25 9
2 0 2 36580.3 1583.89 11
0 -2 -3 155490 3756.88 6
0 -2 3 172514 3894.04 9
0 -2 -3 133913 2636.34 17
2 0 3 155634 3622.01 9
0 2 3 134836 3346.45 16
0 2 3 154278 2877.11 12
0 -2 -3 167114 1923 4
-2 0 -3 154340 3461.92 4
-2 0 -3 152068 3604.68 6
0 -2 -3 168240 3554.7 8
2 0 -3 161731 3802.53 18
2 0 -3 150876 3658.68 6
0 2 -3 155202 3701.89 6
0 2 3 173901 3799.04 11
-2 0 3 160341 3617.93 10
0 2 3 181125 3647.19 10
2 0 -3 164138 3675.34 5
0 2 -3 166081 3935.95 1
0 -2 3 159100 3803.08 11
2 0 -3 159177 3891.23 7
0 2 3 158336 3852.99 2
0 2 -3 159682 3702.36 4
2 0 3 166314 3913.48 11
0 -2 4 5613.2 779.777 9
2 0 -4 5587.68 766.107 1
2 0 -4 5593.29 782.026 6
0 2 4 4006.23 648.788 16
-2 0 4 5255.31 698.93 10
0 2 4 5578.18 776.952 11
2 0 -4 5359.26 723.773 5
0 2 4 6115.94 719.081 10
0 2 4 5298.34 809.029 2
0 2 4 5867.39 575.633 12
0 2 4 5343.97 468.917 9
0 2 -4 4514.96 742.752 1
0 -2 -4 5452.1 692.322 8
2 0 -4 5838.53 823.671 7
2 0 -4 5512.77 754.824 18
-2 0 4 6051.18 794.677 11
0 -2 -4 6025.4 550.281 17
0 2 -4 5088.87 772.691 6
2 0 4 5273.81 741.567 9
0 -2 -4 5002.88 752.767 6
0 -2 4 5132.79 771.961 11
-2 0 -4 5508.56 705.896 4
2 0 4 5728.37 820.107 11
0 -2 -4 5725.16 762.163 1
-2 0 -4 5060.87 786.322 1
-2 0 -4 6285.94 825.272 6
-2 0 4 6479.46 895.146 2
2 0 4 4682.34 673.263 2
0 -2 5 15173.4 1502.17 11
2 0 -5 15017.1 1481.29 7
-2 0 -5 17295.3 1577.81 6
0 -2 -5 15377 1228.53 5
0 -2 -5 15695.2 1524.4 6
-2 0 -5 15500.9 1295.18 4
0 2 5 16014.4 1513.42 11
2 0 5 16301.6 1563.94 11
2 0 -5 16025.6 1539.9 6
-2 0 5 15363.8 1464.81 11
2 0 5 14652.7 1301.77 3
0 2 5 16888 1281.95 10
0 -2 -5 15482.8 1490.75 7
0 -2 -5 16221.6 1450.93 1
2 0 -5 15912.3 1473.9 1
0 -2 5 17389.2 1468.67 9
0 2 -5 14523.4 1445.36 6
-2 0 5 16440.9 1580.21 2
0 2 5 15208 1519.83 2
2 0 5 14655.7 1340.33 2
-2 0 5 14678.1 1267.87 10
-2 0 -5 14978.5 1216.87 7
0 2 -5 16062.3 1532.83 1
0 -2 -5 15073.5 1224.38 8
2 0 -5 14544.5 1354.58 18
-2 0 -5 15877.7 1524.29 1
2 0 5 15890.4 1373.49 9
2 0 -6 1748.09 597.914 6
-2 0 -6 1885.65 566.01 1
-2 0 6 1580.66 495.371 11
0 -2 -6 1645.51 536.452 7
0 2 6 1851.18 568.628 2
-2 0 -6 1906.81 593.52 6
0 -2 -6 1848.99 521.076 1
0 2 -6 1707.73 596.326 1
-2 0 6 1492.95 474.713 14
2 0 6 2320.25 649.252 11
2 0 -6 1689.75 527.095 1
0 2 -6 1957.26 583.364 6
0 2 6 1682.98 560.304 11
2 0 -6 1307.82 445.167 7
0 -2 6 1811.29 624.201 11
2 0 -6 1521.17 394.006 18
0 -2 -6 2007.14 624.823 6
0 2 7 6150.92 1176.22 2
0 2 7 6505.67 1168.31 11
-2 0 7 5907.79 1046.42 14
-2 0 -7 5231.51 1002 6
-2 0 -7 5282.68 1086.85 1
-2 0 7 4946.04 979.319 11
2 0 -7 6199.01 1160.44 1
2 0 7 5800.98 1141.37 11
0 2 -7 7050.52 1261.77 1
0 2 -7 6704.23 1219.81 6
2 0 -7 5489.56 1039.9 6
0 -2 7 5320.92 1026.77 11
0 -2 -7 5896.72 1120.27 6
0 -2 -7 5713.04 1091.49 7
2 0 -7 6576.91 1204.18 7
2 0 7 5826.2 1039.24 2
0 -2 -7 5236.13 1022.87 1
0 -2 -8 903.066 496.824 7
-2 0 -8 670.434 458.424 1
0 2 8 834.239 403.609 11
0 -2 -8 1517.5 704.526 6
-2 0 8 307.126 306.012 11
2 0 8 264.994 125.24 11
2 0 -8 710.504 480.803 6
2 0 -8 45.6658 142.219 1
2 0 -8 1263.51 676.656 7
-2 0 -8 65.5756 225.533 6
2 0 8 245.679 172.656 2
0 -2 -8 140.925 190.539 1
0 2 -8 834.245 518.677 6
0 -2 8 -165.077 198.103 11
0 2 8 56.7959 297.09 2
0 2 -8 49.8172 265.578 1
-2 1 0 8.88044 29.3249 15
1 -2 0 -23.6281 20.2245 9
-2 1 0 16.3144 40.7446 14
2 -1 0 -1.84429 10.4466 7
-2 1 0 24.9643 21.4858 1
2 -1 0 -43.1211 42.0995 13
2 -1 0 83.3648 69.7258 5
-2 1 0 10.8765 14.917 4
-2 1 0 -21.8042 18.8503 12
1 -2 0 30.8694 60.4718 3
-1 2 0 -34.0175 77.6539 12
2 -1 0 -20.6945 45.8511 9
-2 1 0 -14.4562 22.4637 10
-1 2 0 -9.13887 24.7994 2
-1 2 0 38.7619 76.3229 10
1 -2 0 3.70529 21.1983 8
-1 2 0 189.629 96.3895 4
1 -2 0 82.1631 93.0861 17
2 -1 -1 427134 5048.62 5
1 -2 1 394598 4905.38 3
-1 2 1 419683 4880.89 12
2 -1 1 431211 4825.8 13
2 -1 -1 427105 4621.85 7
2 -1 1 412174 3748.54 5
-2 1 -1 403516 4910.05 4
2 -1 1 373276 4744.2 9
1 -2 -1 416436 4928.65 17
1 -2 1 433188 5033.54 9
-2 1 1 409601 5026.31 10
-1 2 1 401895 4338.59 2
-1 2 -1 420282 4983.74 4
1 -2 1 437315 4199.55 8
1 -2 -1 413654 4989.25 8
-2 1 1 434579 4323.93 2
-1 2 2 68314.4 2054.7 12
2 -1 -2 68553 1267.52 9
2 -1 2 70500.3 2084.78 11
-1 2 2 70877.8 1836.96 11
-1 2 -2 70818.9 1871.69 12
1 2 2 78684.1 2399.95 11
1 -2 2 71472 2316.35 9
-1 -2 -2 68392.4 2173.06 1
-2 1 2 71716 2185.18 12
1 -2 2 72097.9 1873.88 17
1 2 2 60924.6 2148.93 2
-1 2 2 69868.9 1870.41 16
-2 1 -2 67027.2 1897.81 6
2 1 2 77502.9 2450.27 11
-2 1 2 66830.1 1792.34 11
1 -2 2 65863.2 2041.33 11
1 -2 -2 67471.5 2055.07 17
2 -1 2 64619 2209.27 9
-1 2 -2 67582.7 1925.01 6
-1 2 -2 70889.9 2164.26 1
1 -2 -2 68714.9 1696.3 1
2 -1 -2 63069.8 2173.51 5
-2 1 2 68864.7 2275.04 10
2 -1 -2 69677.8 1975.84 6
-2 1 -2 66129.1 2087.91 1
1 -2 -2 69482.7 2247.1 8
-2 1 -2 67945.8 2270.15 4
-2 1 2 62740.4 2200.84 14
1 -2 2 70408.4 2305.54 3
2 -1 2 72483.5 1119.66 5
2 -1 -2 67778 2261.26 7
2 -1 -2 77635.2 2080.1 13
-1 2 2 71988.7 2290.96 10
2 -1 2 72724.9 1980.95 13
1 -2 -2 68114.9 1988.15 6
-1 2 2 66589.6 2172.83 2
1 -2 -3 2637.06 354.134 13
2 -1 -3 2637.47 503.993 7
2 1 3 2787.25 530.248 11
-1 -2 -3 2498.91 483.161 1
-1 2 -3 2870.05 495.227 6
-2 1 -3 2572.55 315.625 7
1 -2 3 2999.7 504.289 3
2 -1 3 2746.99 501.526 9
-1 2 3 2540.29 498.268 2
2 -1 3 2814.68 504.579 11
2 -1 -3 3007.36 407.05 13
1 2 3 2831.45 514.78 2
-2 1 3 2956 465.707 12
-2 1 3 3064.56 472.04 11
1 2 3 2505.36 350.496 12
-1 2 3 2594.85 400.235 12
2 1 3 2733.37 486.49 2
2 -1 3 2913.54 308.651 17
1 2 3 2808.16 390.617 9
-2 1 -3 2439.95 469.929 1
2 -1 -3 2475.37 477.27 5
1 -2 3 2603.94 472.85 11
-1 2 -3 2571.85 489.812 4
2 1 3 2470.69 433.951 9
1 -2 -3 2803.81 418.604 17
1 2 3 3417.49 571.888 11
-1 2 3 2345.46 469.92 14
-2 1 3 2908.7 529.03 2
-1 2 -3 2465.29 328.907 12
2 -1 3 3030.8 402.581 2
1 -2 3 2817.68 517.049 9
-2 1 3 2811.89 530.469 14
-1 2 3 2664.73 458.249 11
2 -1 -3 2892.82 486.691 6
1 -2 -3 2846 486.16 8
-2 -1 -3 2658.06 505.262 6
-2 1 3 3005.48 521.721 10
-2 1 -3 2854.31 503.174 4
-2 1 -3 2651.86 449.758 6
1 -2 -3 2311.33 393.52 1
2 1 3 2459.63 491.778 16
-1 2 3 2907.08 497.787 10
-2 -1 -3 2517.37 479.809 1
-1 -2 -3 3025.55 384.137 4
-1 2 -3 2964.28 515.076 1
1 2 3 2900.98 510.935 16
-1 -2 -3 3235.75 459.055 8
-2 -1 -3 2812.21 443.86 4
2 -1 -3 2436.92 403.456 1
-1 -2 -3 2572.39 494.459 6
1 -2 -3 2486.39 455.011 5
2 -1 3 2999.26 393.578 13
-2 1 -3 2714.67 291.279 12
-1 2 3 2802.81 442.197 16
1 -2 -3 2718.47 476.024 6
1 2 4 315.829 157.67 11
1 -2 -4 455.485 255.064 5
-2 1 -4 263.978 146.556 7
-1 2 -4 406.3 201.963 4
1 2 4 297.574 211.094 16
1 -2 4 300.128 181.583 9
2 -1 -4 333.529 161.502 1
1 2 4 173.473 177.323 2
-1 2 4 230.327 257.273 2
-2 1 4 322.248 127.131 14
2 1 -4 444.241 300.568 6
-2 1 4 208.785 194.041 11
1 -2 -4 342.491 202.661 6
2 1 4 251.797 212.496 2
1 -2 4 231.002 114.916 3
-2 1 -4 357.61 221.486 6
-1 2 -4 389.935 111.488 12
2 -1 -4 546.241 327.029 7
-1 -2 -4 127.157 35.895 6
2 1 4 397.459 138.877 9
2 -1 4 369.633 136.59 13
-2 1 4 570.706 265.439 2
-2 1 4 208.537 31.0331 10
2 1 4 -9.14487 90.0485 11
2 -1 4 240.677 173.226 11
1 -2 -4 323.364 110.43 13
-2 -1 4 253.447 194.684 11
2 -1 -4 233.671 216.2 5
-2 1 -4 -47.3658 126.908 4
-1 -2 -4 215.512 154.98 1
-2 -1 -4 409.192 220.896 6
1 2 4 220.535 102.59 12
-1 2 4 331.737 128.08 10
1 -2 -4 548.943 252.886 7
-1 2 4 228.569 144.469 14
-1 2 4 558.855 245.986 12
1 -2 -4 176.963 132.947 8
1 -2 4 51.0389 44.4688 11
2 -1 4 292.758 184.316 2
-2 -1 -4 228.376 173.09 4
1 2 4 252.85 154.131 9
1 -2 -4 196.881 16.0403 17
2 -1 4 539.953 198.227 9
-1 -2 -4 209.604 87.0694 4
2 -1 -4 95.3652 94.3567 6
1 -2 -4 198.444 59.3554 1
-1 2 4 320.98 157.983 11
-2 1 -4 149.441 143.952 1
-1 -2 -4 233.287 151.384 8
-2 -1 -4 49.9819 54.0234 1
2 -1 4 -8.66009 124.336 3
-2 -1 -5 1593.89 378.566 4
-1 2 -5 1162.99 390.709 6
-1 2 5 1568.28 401.383 10
2 -1 -5 1443.82 431.424 7
-1 2 -5 1558.81 501.765 1
-2 1 -5 1515.92 443.069 1
2 1 5 1827.1 505.547 11
-2 -1 -5 1403.02 469.978 1
-1 2 5 1219.84 335.221 2
-2 1 5 1729.13 458.462 10
-2 1 5 1366.78 431.66 14
2 1 5 1587.42 372.688 3
1 -2 -5 1164.98 368.162 1
2 -1 5 1480.35 445.97 2
-2 -1 -5 1790.28 493.92 6
-2 1 -5 1561.51 452.527 6
-2 1 -5 1386.14 416.164 4
1 2 -5 1187.66 365.695 6
1 -2 -5 1605.16 535.004 7
-2 -1 5 1468.46 459.302 11
1 -2 5 1346.01 445.447 11
1 -2 5 2129.13 570.304 9
1 -2 5 1638.33 439.832 3
-1 2 5 1405.51 441.807 11
1 2 5 1701.24 507.379 11
-1 -2 5 1829.27 532.496 11
-1 2 -5 1840.17 468.725 4
1 2 -5 1717.02 497.836 1
2 1 5 1232.89 370.759 9
2 -1 5 1682.82 471.617 3
2 -1 5 1719.99 493.522 11
2 -1 -5 1304.25 367.666 5
-1 -2 -5 1746.33 506.153 6
1 2 5 1446.92 457.598 2
-1 -2 -5 1592.83 344.887 8
-1 -2 -5 1786.27 521.137 1
2 -1 5 1738.92 499.773 9
-2 1 5 1301.14 402.809 2
2 -1 -5 1406.42 444.076 6
1 -2 -5 1212.02 426.537 6
2 1 5 1476.92 435.392 2
-1 2 5 1752.04 471.812 14
1 -2 -5 1575.91 421.605 8
-2 1 5 910.36 297.383 11
1 -2 -5 1235.02 353.411 5
2 -1 -5 1242.57 357.568 1
-2 1 -5 1669.73 382.342 7
2 1 -5 1495.03 463.485 6
2 1 6 2288.39 534.328 2
-2 1 6 2402.51 620.704 14
2 -1 6 2210.77 628.453 11
2 1 6 2620.24 721.441 11
1 -2 6 2503.66 656.622 11
2 -1 -6 3023.85 707.906 6
-2 -1 6 2507.44 645.543 11
-1 2 6 2583.23 704.996 2
1 2 6 2863.63 720.95 11
-2 1 -6 2186.11 610.708 6
1 2 -6 2183.15 650.5 6
1 -2 6 2430.29 577.497 9
1 -2 -6 2074.4 585.403 7
-2 1 6 3220.1 798.663 2
-1 -2 -6 2216.82 638.248 6
-2 -1 -6 2260.59 658.307 6
2 -1 -6 2929.66 704.183 1
-1 2 -6 3223.22 754.312 6
1 -2 -6 2827.57 678.157 1
-1 -2 -6 2305.83 591.31 1
2 -1 6 2172.14 574.471 3
1 2 -6 2323.77 682.819 1
-2 1 6 2224.25 549.647 11
-1 2 6 2189.83 561.233 14
1 -2 -6 2339.59 556.662 8
2 1 -6 2070.34 614.792 6
2 -1 -6 2535.84 560.434 5
1 -2 -6 1887.28 567.714 6
1 2 6 2137.63 597.468 2
-2 -1 -6 2540.11 604.094 7
-2 1 6 2396.12 563.137 10
2 -1 6 2524.87 589.797 2
2 -1 6 3500.41 695.921 9
2 -1 -6 2673.23 609.461 18
-2 1 -6 2793.24 729.651 1
-1 -2 6 2457.29 653.618 11
-1 -2 -6 2727.13 650.013 7
-2 -1 -6 2249.6 657.11 1
-2 1 -6 2211.87 534.533 4
-1 2 6 2675.73 661.534 11
2 -1 -6 3111.81 777.183 7
1 2 -7 3239.79 889.851 6
1 2 7 3471.25 872.85 2
1 -2 -7 3752.51 838.357 1
-1 -2 -7 3555.76 813.149 7
-2 1 7 2262.34 652.453 11
-1 -2 -7 3635.94 876.28 6
-2 1 -7 3150.44 849.198 6
2 1 7 3042.96 847.1 11
1 -2 -7 3483.33 832.067 6
-1 2 7 3397.11 865.901 2
2 1 -7 2372.73 653.797 6
-2 -1 7 3055.35 837.123 11
1 2 7 4783.17 1031.25 11
2 -1 7 3086.38 779.159 9
2 -1 7 3071.38 722.225 2
1 -2 7 3461.9 918.337 11
-2 1 7 2838.63 772.582 2
-1 2 -7 3818.51 926.597 6
2 -1 -7 3265.86 771.954 18
-1 2 7 2718.84 757.452 11
-2 1 -7 3579.96 872.832 1
2 1 7 3986.94 862.839 2
-1 2 -7 3696.71 936.784 1
2 -1 -7 3647.79 820.198 7
-2 -1 -7 3138.37 834.729 6
2 -1 -7 3922.18 915.058 6
-2 1 7 2887.15 735.114 14
1 2 -7 3357.38 890.219 1
2 -1 7 3240.81 842.192 11
2 -1 -7 3432.26 808.43 1
-1 -2 7 3010.38 814.077 11
-2 -1 -7 4172.16 992.469 1
-1 2 7 3147.81 715.33 14
1 -2 -7 4215.81 932.778 7
-1 -2 -7 3493.87 792.959 1
1 -2 7 3831.24 830.083 9
1 -2 8 -80.738 194.957 11
1 2 8 -267.859 198.456 11
2 1 8 281.506 291.218 2
-1 2 -8 160.378 181.816 6
1 2 8 204.102 401.454 2
-2 1 8 -344.255 392.888 2
1 -2 -8 -90.4698 260.698 1
2 -1 -8 203.543 410.122 1
2 1 8 -1042.41 601.372 11
-1 -2 -8 -331.455 276.914 7
2 -1 8 43.5033 304.93 11
-1 2 -8 128.591 399.339 1
-2 1 -8 594.767 490.16 6
-2 -1 -8 -10.0854 194.964 1
-2 -1 8 -14.3814 175.924 11
-2 -1 -8 -167.759 253.941 6
2 -1 -8 -14.3779 396.959 6
1 -2 -8 71.8456 375.307 7
-2 1 8 -345.111 416.122 11
2 1 -8 124.017 244.277 6
2 -1 -8 580.233 384.461 7
1 2 -8 -336.242 484.529 6
-1 2 8 -172.412 367.837 11
1 -2 -8 -598.774 519.798 6
-1 2 8 -365.2 362.144 2
-1 -2 -8 474.521 383.662 1
-2 1 -8 23.9622 287.365 1
-1 -2 -8 -42.9372 267.627 6
-1 -2 8 -127.068 154.143 11
-2 2 0 351157 4608.13 10
-2 2 0 343850 4819.24 12
2 -2 0 334059 4199.88 9
2 -2 -1 65.347 5.88075 13
2 -2 -1 0.22954 27.4102 7
-2 2 1 -22.3217 50.4498 2
-2 2 -1 76.0501 70.5306 6
2 -2 1 85.9915 78.2054 9
-2 2 -1 45.0932 73.2211 12
-2 2 1 -12.7742 42.0632 12
-2 2 1 62.6535 151.728 10
2 -2 1 27.0645 51.9994 8
-2 2 1 67.7183 82.3715 15
2 -2 -1 32.4686 49.7677 6
-2 2 1 -19.7821 28.3513 14
2 -2 1 108.724 63.6246 11
-2 2 -1 110.131 96.2229 4
-2 2 -1 9.64081 21.7181 1
2 -2 -1 4.3583 31.1266 9
2 -2 1 -46.5274 92.0389 17
-2 2 -1 -36.9014 31.9762 10
2 -2 -1 36.0954 44.0689 5
-2 2 1 -51.0694 45.8911 4
2 -2 2 18232 1273.94 9
2 -2 -2 20158.1 1160.09 13
2 -2 2 18565.8 1069.6 11
-2 2 2 18578.7 880.42 11
-2 2 2 18220.9 1204.2 12
-2 2 2 19155.6 1288.28 10
-2 2 -2 20810 862.141 10
2 -2 -2 19580.5 560.746 9
-2 2 2 18032.7 1149.16 2
2 -2 -2 17613.5 1256.64 5
-2 2 -2 18689.6 1130.96 1
-2 2 2 19873.5 737.122 4
-2 2 -2 18301.8 1277.12 4
2 -2 2 21385.4 834.094 8
2 -2 -2 17551.6 790.604 1
2 -2 2 19131.4 1061.08 17
-2 2 2 17862.4 1271.15 14
-2 2 -2 18408.8 1035.18 12
-2 2 -2 18033.3 966.328 6
-2 2 2 20360.9 864.193 16
2 -2 -2 18751.2 998.247 6
2 -2 -2 18550.6 1254.02 7
2 -2 -3 59.975 98.1976 13
-2 2 3 48.4909 86.5675 16
-2 2 3 61.9579 90.2047 11
2 -2 -3 -46.432 151.628 7
2 2 3 -37.6146 38.5617 2
2 2 3 52.2922 97.1497 11
2 -2 3 56.4648 52.9883 3
-2 2 -3 -64.8656 72.9993 6
-2 -2 -3 -14.3422 71.1439 1
2 -2 3 -56.9152 68.0731 11
-2 2 -3 77.9481 88.4342 12
2 -2 3 -28.3507 40.0679 5
-2 2 3 -103.006 85.8848 2
2 -2 3 21.767 47.0152 17
-2 2 3 91.3198 127.58 12
2 -2 -3 -109.162 140.715 5
-2 2 -3 -35.8197 151.81 1
2 2 3 89.6845 107.145 9
2 -2 3 89.2997 96.5099 9
-2 -2 -3 162.116 158.609 4
2 -2 -3 -38.2755 114.092 6
2 -2 -3 161.047 141.724 1
-2 2 -3 -53.2441 110.56 4
-2 2 3 -8.96744 46.0297 14
-2 2 3 -75.6076 9.5101 10
-2 2 4 109034 3751.1 14
-2 2 4 124692 3391.15 12
2 2 4 110726 3818.29 16
2 -2 -4 118094 3619.19 6
2 -2 4 118558 3778.5 11
-2 2 4 111860 3330.71 11
2 2 4 127392 4116.52 11
-2 -2 -4 114272 3856.7 1
-2 -2 -4 117387 3076.75 4
-2 2 -4 105834 3617.44 1
2 -2 -4 122004 3341.24 1
2 -2 4 123929 3961.01 9
2 -2 5 -329.584 282.514 3
2 -2 5 193.555 186.96 11
2 2 5 -98.6105 168.004 9
-2 2 -5 -203.756 140.6 1
-2 2 5 115.018 102.971 10
-2 2 -5 -260.562 145.814 4
2 -2 -5 -259.591 230.032 1
-2 -2 -5 42.3921 131.24 1
2 -2 -5 -35.1113 15.203 7
2 -2 -5 -197.327 149.846 6
-2 2 -5 -10.6873 111.594 6
2 -2 5 93.4281 65.4314 2
2 -2 -5 172.676 182.298 5
-2 2 5 -23.0766 154.976 11
-2 -2 -5 -176.392 258.62 6
2 2 5 -62.6599 166.462 11
2 2 5 124.533 263.462 2
2 -2 5 -89.2752 21.7499 9
-2 2 5 -56.992 91.0396 2
2 -2 -5 62.0605 118.791 8
-2 2 5 153.685 68.4874 14
2 -2 -6 3552.79 742.784 5
2 -2 -6 3447.43 835.549 7
2 2 6 3476.67 878.392 11
-2 2 6 3273.53 829.005 2
2 -2 -6 3552.83 709.375 8
2 -2 -6 3976.79 792.831 6
-2 2 6 3325.33 744.859 11
-2 2 6 3331.61 715.471 10
-2 2 -6 2545.52 637.022 6
2 -2 -6 3691.59 756.894 1
-2 2 6 3836.59 798.336 14
-2 2 -6 3372.92 725.064 4
2 -2 6 3038.17 705.132 9
-2 2 -6 3559.69 799.136 1
2 -2 6 2912.38 740.447 11
2 -2 6 3448.88 753.256 3
2 2 7 -150.653 253.198 11
2 -2 -7 -35.2931 192.698 1
-2 2 7 -327.158 303.458 11
2 -2 7 118.263 271.33 11
-2 -2 -7 -170.656 81.7561 6
-2 2 -7 138.465 252.34 6
2 -2 -7 176.768 170.828 6
2 -2 7 316.242 327.832 3
-2 2 -7 -495.956 344.515 1
2 2 7 -249.708 415.306 2
-2 -2 -7 79.1386 103.509 1
2 -2 7 4.93241 211.584 9
-2 -2 -7 67.738 207.132 7
-2 2 7 154.769 355.446 2
-2 2 7 -514.226 316.9 14
2 -2 -7 -150.256 48.008 7
2 2 8 403.097 251.332 2
-2 -2 -8 1172.75 329.547 6
-2 2 8 1245.75 493.624 11
-2 2 -8 1363.57 638.091 6
2 -2 -8 928.515 458.014 6
2 -2 8 918.768 494.176 11
-2 2 8 1250.77 612.171 14
2 2 8 836.797 459.637 11
-2 2 -8 988.477 547.917 1
-2 2 8 1962.96 789.357 2
-2 -2 -8 1086.79 540.787 1
2 -2 -8 973.87 483.114 7
-3 0 0 15.2059 63.354 4
3 0 0 118.366 61.8877 16
-3 0 -1 38525.5 1727.45 4
3 0 1 45307.9 1795.09 13
-3 0 -1 37949.9 1561.2 1
0 3 1 40020.2 1713.28 12
3 0 1 36423.7 1685.54 9
0 3 1 39686.5 1661.41 2
0 -3 -1 45275.9 1882.76 8
3 0 1 29409.5 1285.59 16
0 3 2 16531.1 1198.77 10
-3 0 2 15386.3 1181.53 10
0 -3 -2 11540.7 860.656 1
0 3 2 12938.9 1066.52 2
0 3 2 14104.7 1019.79 12
3 0 -2 13923.8 1128.53 18
0 -3 -2 16190 1100.68 17
0 -3 -2 16486.9 1202.51 8
-3 0 3 99818.5 3256.77 10
0 3 3 122450 3437.4 10
3 0 3 94158.9 3164.21 9
0 3 3 101759 2812.19 12
3 0 -3 100925 3346.58 7
3 0 3 113414 3415.19 11
0 3 3 116291 3253.05 11
0 -3 -3 108739 2884.1 17
0 -3 -3 102665 2926.69 1
3 0 -3 104361 3377.94 18
0 -3 -3 116703 3369.53 8
3 0 4 -122.018 164.249 9
-3 0 4 -111.005 130.192 10
3 0 -4 -106.005 135.363 7
0 -3 -4 -52.0575 186.229 1
0 3 4 -92.5511 149.324 11
0 -3 4 -30.0504 161.895 11
0 3 4 -334.053 255.343 2
0 3 4 78.8489 56.1588 12
3 0 -4 456.35 199.601 18
3 0 4 190.126 258.511 11
0 -3 -4 121.351 98.4225 8
-3 0 -4 104.423 150.404 1
-3 0 4 -2.70855 95.3803 11
-3 0 -4 5.7186 41.8088 6
0 3 4 -122.58 132.489 16
-3 0 -4 -174.534 175.018 4
3 0 4 -37.4692 57.0957 2
0 -3 -4 -120.647 139.928 6
3 0 -5 30653.6 2146.52 18
0 3 5 32985.6 2005.06 10
3 0 5 26850.2 1974.33 9
-3 0 -5 29341.9 2102.62 6
3 0 5 32558.7 2278.35 11
0 -3 5 27686.9 2097.51 11
0 3 5 32170.9 2175.48 11
-3 0 5 27694.9 1963.68 10
-3 0 5 28331 2010.33 11
-3 0 -5 25346.5 1837.48 4
0 3 5 27676.7 2135.17 2
-3 0 -5 27665.2 2116.57 1
3 0 5 30698.6 1932.3 2
3 0 -5 30315.9 2207.76 7
0 3 5 28226.2 2012.09 16
0 -3 -5 30619.6 1976.06 8
0 -3 -5 28776.9 1990.68 1
3 0 -5 29522.9 2127.43 6
0 -3 -5 28367.6 2110.13 6
0 3 -5 30140.9 2234.11 1
3 0 -6 907.448 461.082 7
0 3 6 302.472 158.659 2
3 0 6 1207.15 439.398 2
-3 0 -6 597.581 382.551 1
3 0 -6 453.846 319.041 6
0 -3 -6 601.27 383.211 6
-3 0 6 419.005 168.614 10
3 0 6 468.837 196.3 11
3 0 6 631.549 275.356 3
0 3 6 618.728 417.412 11
-3 0 6 1102.51 478.381 11
0 -3 6 657.846 363.019 11
-3 0 -6 567.949 276.526 6
-3 0 -6 935.059 383.168 4
0 -3 -6 945.731 431.645 1
3 0 6 1237.7 455.749 9
0 -3 -6 660.68 408.489 7
0 3 -6 930.999 399.925 1
0 -3 7 415.528 312.632 11
0 -3 -7 -203.396 327.943 6
0 3 -7 617.957 448 1
-3 0 -7 448.683 297.145 6
-3 0 -7 307.948 84.7335 1
0 3 7 -96.5703 56.0316 11
3 0 7 52.4363 196.65 11
3 0 -7 -66.7759 286.251 7
0 3 7 -100.032 248.787 2
0 -3 -7 413.018 187.982 7
0 -3 -7 104.993 147.141 1
0 3 8 -8.06622 323.175 11
0 -3 -8 -166.432 227.94 6
0 -3 -8 -521.045 508.445 7
3 0 8 487.58 364.85 11
-3 0 -8 -459.792 494.454 6
0 -3 -8 -244.688 79.3194 1
0 -3 8 -199.286 351.471 11
-3 0 8 388.309 227.393 11
0 3 8 177.585 430.396 2
3 0 -8 298.759 456.621 6
-3 0 -8 -209.061 108.375 1
3 0 -8 -257.544 156.051 7
-3 1 0 76031.4 2067.51 14
-1 3 0 78532.4 2498.87 12
-3 1 0 83788.2 1780.17 1
-1 3 0 91269.2 2595.57 10
-1 3 0 80900.5 2302.46 4
3 -1 0 85665.1 2384.53 5
3 -1 0 76744.2 2239.87 9
-3 1 0 75577.5 2262.86 10
3 -1 0 79562.8 2185.92 18
1 -3 0 88829.9 2527.99 8
1 -3 0 87398.1 2322.01 3
1 -3 0 86793 2583.91 17
3 -1 0 88319.4 2633.09 13
-3 1 0 85245.9 2529.42 12
-3 1 1 22529.9 1274.42 14
3 -1 -1 22879.9 1243.93 7
1 -3 1 27275.3 1425.37 17
3 -1 1 25749.4 1409.16 13
-3 1 1 24824.4 1446.99 12
-1 3 1 23256.8 1377.26 12
-1 3 -1 25377.6 1376.19 12
3 -1 -1 28907.3 1505.7 13
1 -3 1 25468.7 1417.52 3
1 -3 -1 25888.4 1091 3
3 -1 1 24953.8 1167.1 5
-3 1 1 23388.6 1384.93 10
3 -1 1 27490.7 1144.1 11
-1 3 1 27693.4 1503.47 10
1 -3 -1 26398.5 924.123 1
3 -1 -1 25467.1 1431.24 5
-3 1 -1 23594.4 1142.08 1
-3 1 -1 26390.4 1352.43 12
-1 3 1 23443 1205.85 2
1 -3 -1 26573.4 1457.55 17
1 -3 1 25638.8 1418.35 9
-3 1 1 24240 1207.97 4
3 -1 1 23615 1362 9
-3 1 -1 23686.2 1400.5 4
3 -1 -1 22386.4 1116.04 9
-1 3 -1 23425 1384.28 4
1 -3 -1 23812.8 1407.46 8
-3 1 -1 24255.9 1150.48 10
-3 1 -1 24729.7 1415.32 15
3 -1 -2 16550.3 874.981 9
-3 1 -2 19237.1 857.739 10
3 -1 -2 20879 1318.19 13
-1 3 2 21235.6 1405.55 10
1 -3 -2 19338.6 1278.73 17
3 -1 2 20088.8 1194.53 11
-3 1 -2 20329.3 1119.57 12
-1 3 2 18528.9 1236.08 12
1 -3 -2 18290.6 1098.99 6
1 -3 -2 19393 1350.85 8
-1 3 2 19868.5 1035.02 11
1 -3 2 19942.9 1387.59 3
-3 1 2 18030.9 963.24 11
1 -3 2 17932.6 1136.81 11
1 -3 2 19954.8 1377.99 9
-3 1 -2 18488.4 1048.95 6
-3 1 2 18708.8 990.455 4
-3 -1 -2 18808.7 1322.47 1
3 -1 -2 19242.5 1380.11 5
1 3 2 18172.2 1328.13 2
3 -1 2 18669.9 1197.78 13
-3 1 -2 17304.9 1163.53 1
3 1 2 17234.2 1258.83 9
3 -1 2 17050.5 1270.98 9
-1 3 2 18522.5 1253.8 2
-1 3 -2 17909.6 1144.95 12
-3 1 -2 18582.8 1331.19 4
-3 1 2 18163.4 1270.48 12
-3 -1 -2 19066.3 1291.06 4
3 -1 -2 18621.1 1281.64 7
-3 1 2 17823.3 1300.77 10
-1 3 -2 19992.7 1387.65 4
-3 1 2 16087.2 1246.12 14
-1 -3 -2 19050.4 852.714 15
3 1 3 10804.2 1100.26 16
-1 3 3 12383.8 1145.55 10
1 -3 -3 15512.2 1150.62 17
3 -1 -3 11952.6 1114.54 5
3 1 3 11573.1 1032.86 2
-3 1 3 11403.9 930.54 11
1 -3 3 11720.7 1080.64 11
-3 1 -3 12075.4 1008.24 6
3 -1 -3 11541.6 1005.24 6
1 3 3 13947.3 1195.93 11
-1 3 3 13261.6 1013.82 11
1 -3 3 13329.5 1221.2 3
3 -1 3 13472 1135.42 11
-3 1 3 11016.7 1104.62 10
1 3 3 11904.1 949.497 12
1 -3 -3 11619.1 1024.96 6
-1 3 -3 12562.9 1119.87 1
-1 -3 -3 10738.3 1024.29 1
-3 -1 -3 11969 1158.95 1
-3 1 -3 11582.1 603.19 7
-1 3 3 11680.1 1003.4 12
1 3 3 11316.6 1149.73 2
3 1 3 10924.3 1069.86 9
1 -3 -3 11716.7 899.51 1
3 -1 3 11423.3 1132.86 9
1 -3 3 12635.9 1196.66 9
3 -1 3 11683.1 822.349 2
-1 3 3 10678.5 972.475 16
-3 -1 -3 11884.3 1077.6 4
-3 1 3 12748.5 1157.01 2
3 1 3 13674.2 1232.18 11
-3 1 -3 12538 1144.92 4
-3 1 -3 11836.2 435.238 10
-1 3 -3 12225.7 1157.59 4
1 -3 -3 12652.1 1176.02 8
-1 3 3 11782.9 1109.52 2
-3 1 -3 11623.1 1099.52 1
3 -1 3 12438.2 968.607 13
3 -1 -3 12363.6 1177.12 7
-3 1 3 11263.1 1123.14 14
-1 3 -3 12149.3 937.512 12
3 1 4 487.645 141.311 2
-3 1 4 420.077 214.434 14
3 1 4 537.749 243.83 11
1 -3 4 273.723 171.421 3
-3 1 -4 578.456 292.957 6
-1 3 -4 625.748 260.1 6
-1 -3 -4 561.794 275.218 1
1 -3 -4 460.955 245.904 17
-1 3 -4 441.071 187.418 12
-1 3 -4 761.35 319.247 4
3 -1 4 432.712 201.629 2
-1 3 4 773.799 259.008 12
-1 -3 -4 477.531 275.618 6
-3 -1 -4 978.427 385 6
-1 3 -4 372.658 165.02 1
1 3 4 275.199 233.957 16
-3 1 -4 490.286 285.445 1
-3 -1 -4 1023.79 415.376 1
-1 3 4 530.226 178.016 11
3 -1 4 415.789 225.566 11
-3 1 4 227.268 176.229 2
-3 1 4 470.968 232.043 11
1 -3 4 372.896 213.986 11
3 -1 -4 309.194 195.815 6
-1 3 4 393.138 200.25 16
-1 3 4 353.935 196.706 10
-3 1 4 546.566 250.995 10
1 -3 -4 487.684 211.663 1
3 -1 4 783.257 245.592 13
1 3 4 657.316 271.642 11
1 3 4 374.273 145.16 9
-3 1 -4 546.075 236.264 4
3 1 4 347.884 199.765 9
3 -1 -4 278.349 138.468 5
3 -1 4 568.538 301.491 9
1 -3 -4 404.902 182.57 8
-1 -3 -4 545.963 238.717 8
1 -3 -4 633.456 291.816 6
1 -3 4 657.279 289.796 9
1 3 4 217.453 217.385 2
-3 -1 -4 465.057 250.365 4
1 3 4 344.461 137.667 12
3 -1 -4 544.971 293.51 7
-1 3 4 652.128 272.046 2
-1 3 5 2112.67 533.698 10
1 -3 -5 2684.37 661.235 7
3 -1 5 2248.58 557.75 3
3 -1 -5 1923.81 541.108 7
3 -1 5 2165.87 587.934 11
3 -1 5 2069.63 453.22 2
-3 1 5 2073.54 553.896 2
-3 1 5 1320.99 463.301 14
-3 -1 -5 2077.89 571.583 6
-1 3 -5 1814.59 522.892 4
-3 -1 -5 2099.16 601.657 1
1 -3 -5 2040.16 544.439 6
-3 1 -5 1709.1 511.817 6
1 3 5 2412.47 603.991 11
-1 3 -5 1593.63 429.976 6
3 1 5 1975.33 543.335 11
-1 3 5 2032.22 478.408 11
1 3 5 1328.3 426.928 16
1 -3 5 1566.05 534.142 11
3 -1 -5 2611.49 638.414 6
1 -3 -5 2065.88 574.436 5
1 -3 5 2196.72 566.435 3
-3 1 5 1699.01 519.747 10
-3 -1 -5 1736.84 462.832 4
-1 3 5 2301.97 607.875 2
1 3 5 2305.5 599.848 2
3 1 5 2349.87 579.183 9
3 -1 -5 1524.4 447.022 5
-1 -3 -5 1986.19 537.144 6
3 -1 -5 2545.35 639.505 18
-1 -3 -5 2399.49 507.908 8
3 -1 5 1844.72 508.266 9
-3 1 -5 1983.14 579.23 1
-3 1 -5 1316.21 420.976 4
1 -3 5 2336.77 594.866 9
1 -3 -5 2034.68 535.426 8
1 -3 -5 2532.09 557.567 1
-3 1 5 2168.3 533.382 11
3 1 5 1715.36 495.338 2
-1 3 -5 2398.83 609.799 1
-1 -3 -5 1174.73 399.142 1
3 1 6 1415.22 482.328 2
-3 1 6 896.384 305.496 14
-1 3 -6 770.532 364.859 6
-3 1 -6 1357.27 397.497 4
-1 -3 -6 1678.25 647.758 6
-1 3 -6 765.463 317.953 4
1 -3 -6 950.292 362.795 8
-1 -3 -6 990.697 417.807 1
1 -3 6 1151.28 542.088 11
3 -1 6 1228.22 451.14 3
3 1 6 710.635 367.527 11
-1 3 6 520.787 330.032 11
3 -1 6 1099.07 411.953 11
-3 1 6 855.605 323.449 11
3 -1 -6 1302.9 473.113 6
-3 1 6 1184.39 439.394 2
1 3 6 1102.18 401.057 2
-1 3 6 1222.47 451.432 10
-1 3 -6 976.64 418.439 1
1 -3 -6 1078.66 474.28 7
-1 3 6 968.409 421.825 2
-3 1 6 1184.86 488.887 10
1 -3 -6 626.777 360.259 5
1 -3 -6 673.1 361.424 6
-3 -1 -6 734.714 353.286 1
3 1 6 944.422 405.85 9
3 -1 -6 1130.56 409.867 5
3 -1 6 931.519 367.705 9
3 -1 -6 1223.12 397.449 18
1 -3 6 1022.74 381.697 9
-3 -1 -6 667.519 388.394 6
1 3 6 646.566 397.809 11
1 -3 -6 1278.49 437.992 1
-3 1 -6 1126.96 469.91 6
-3 1 -6 1002.27 512.386 1
1 3 7 373.045 201.902 2
3 1 7 421.169 266.8 11
3 1 7 42.58 198.559 2
1 -3 -7 432.73 394.692 6
3 -1 -7 744.78 336.596 7
-1 3 7 890.343 231.786 2
1 -3 7 686.312 399.548 9
-1 -3 -7 456.442 283.498 6
-3 -1 -7 1740.56 710.316 6
1 -3 -7 722.491 198.332 7
-1 3 7 830.621 288.753 11
-3 1 -7 1115.86 481.942 6
3 -1 7 769.236 532.124 11
3 -1 -7 622.708 466.958 6
-3 1 7 1221.44 557.156 11
1 -3 7 140.178 225.095 11
-1 3 -7 1481.34 590.183 6
1 -3 -7 1276.16 499.626 1
3 -1 7 555.407 366.445 9
-3 -1 -7 1093.01 481.656 1
-1 -3 -7 371.088 319.995 1
-1 -3 -7 194.524 228.968 7
1 3 7 640.234 420.662 11
-1 3 -7 1125.67 598.331 1
-3 1 -7 623.875 239.651 1
3 -1 -7 799.757 362.874 18
-3 1 7 337.62 283.188 14
-3 -1 -8 700.992 199.834 1
-3 1 8 745.484 479.827 14
1 -3 -8 939.589 505.125 7
-1 -3 -8 680.425 339.609 6
1 -3 8 1537.25 729.939 11
1 -3 -8 791.902 402.418 6
3 -1 8 834.095 521.34 11
3 -1 -8 886.188 531.197 6
1 3 8 502.706 407.999 11
3 1 8 820.964 603.39 11
-1 3 8 1463.48 572.015 11
-3 1 -8 1062.25 590.162 6
-3 -1 -8 1065.65 515.196 6
-1 3 -8 949.914 551.249 6
-1 3 -8 299.818 105.547 1
-3 1 8 154.519 143.928 11
3 -1 -8 785.278 421.831 7
-3 1 -8 1161.04 595.191 1
-1 3 8 748.229 340.147 2
-1 -3 -8 926.033 479.435 1
-1 -3 -8 1111.87 594.334 7
3 1 8 849.214 453.757 2
1 3 8 334.539 352.269 2
2 -3 0 -49.1829 79.7593 3
-2 3 0 -17.0807 64.0206 12
2 -3 0 -26.1348 19.2073 11
-2 3 0 -82.0983 69.9929 10
-3 2 0 88.3441 89.3717 10
-3 2 0 -11.201 58.6577 15
3 -2 0 -135.284 125.126 5
2 -3 0 -42.4049 79.6838 8
3 -2 0 52.4221 84.2951 9
3 -2 0 -28.7382 32.2216 7
2 -3 0 -25.3397 45.9843 9
-2 3 0 12.7025 26.0078 2
2 -3 0 -40.1113 104.21 17
-3 2 0 53.1151 65.956 4
-3 2 0 57.6592 58.3832 12
3 -2 0 5.82728 91.3211 13
-2 3 0 -10.2227 50.6989 4
-3 2 0 33.6545 25.5427 1
-3 2 -1 37694.3 1771.3 12
3 -2 1 44159.5 1985.32 13
-2 3 -1 40420.8 1865.61 12
-2 3 1 39029.4 1921.17 12
2 -3 1 43476.8 1947.25 17
2 -3 -1 43474.3 1571.76 3
-2 3 -1 45593.1 1782.53 10
-2 3 1 45104.3 2028.44 10
-3 2 -1 40526.1 1607.35 10
3 -2 1 44063.1 1658.29 5
-3 2 -1 40590 958.499 6
3 -2 1 40049.4 1867.65 9
-2 3 1 40723 1536.7 2
2 -3 -1 39873.1 1402.01 9
-3 2 -1 41614 1409.95 1
2 -3 -1 41931.4 1985.06 17
-3 2 -1 40353.2 1936.01 4
-2 3 1 41382.7 1569.3 4
2 -3 -1 43612.3 1989.29 8
-2 3 1 45232.4 1244.14 15
3 -2 -2 113015 3210.02 7
2 -3 -2 113731 2576.15 6
2 -3 2 114174 3084.67 17
-2 3 2 111469 3312.43 12
-2 3 -2 110499 3019.22 12
2 -3 2 107295 2692.91 11
-3 2 -2 118335 2400 10
-2 3 2 115688 3494.98 10
-3 2 2 111507 3434.31 10
3 -2 2 115834 2364.26 5
-3 2 2 109667 3359.38 14
2 -3 -2 112205 3287.61 17
3 -2 2 107308 3365.06 9
2 -3 2 118680 3507.11 9
-3 2 -2 109478 2865.15 1
2 -3 -2 115426 1877.1 1
-3 2 2 118264 3090.48 2
-3 2 -2 110781 3396.37 4
-2 3 -2 112720 3448.08 4
2 -3 -2 112660 3458.58 8
3 -2 2 117237 2284.82 8
3 -2 2 113486 3225.16 13
-3 2 3 1632.83 425.824 14
-2 -3 -3 1554.88 436.299 1
-3 2 3 2191.35 484.962 12
2 -3 -3 1808.46 414.642 17
-3 2 3 1967.21 462.303 2
3 -2 -3 1834.93 411.873 13
2 -3 -3 1922.91 385.096 13
-2 3 3 1748.92 441.985 2
3 -2 3 1852.84 405.851 13
2 -3 -3 1529.48 290.214 1
2 -3 -3 2327.95 504.437 7
-3 2 -3 2060.91 379.265 12
-2 3 -3 1784.36 479.118 4
-2 3 3 2344.94 470.824 12
2 -3 -3 2212.41 520.481 8
-2 3 -3 1663.79 357.21 12
2 -3 -3 1979.34 409.606 6
-3 2 -3 1812.3 368.727 6
-2 3 3 2043.16 372.725 11
3 -2 3 1826.19 421.874 11
-3 2 3 2170.58 369.525 11
3 -2 -3 1890.94 382.877 6
2 -3 3 2157.83 506.493 3
2 -3 3 1614.2 359.634 11
-2 3 -3 1674.19 390.203 6
-2 3 -3 2021.63 463.358 1
-2 3 3 2111.12 495.191 10
2 3 3 1556.89 436.495 2
-3 -2 -3 2020.4 471.93 1
2 -3 -3 2075.7 499.013 5
-3 2 -3 1661.54 444.037 4
3 -2 -3 2152.99 504.089 7
-3 2 3 1340.13 367.126 10
3 -2 -3 2108.16 504.983 5
3 -2 3 1786.28 494.043 9
3 -2 3 1930.2 282.609 2
-3 2 3 1786.75 253.485 4
3 2 3 1648.6 438.4 2
2 -3 3 2076 518.407 9
-3 2 -3 1587.13 398.187 1
3 -2 3 1621.83 325.993 17
2 -3 3 2083.78 400.186 17
-2 3 3 2068.09 382.025 16
-3 2 4 311.608 197.559 14
-3 2 -4 79.6984 114.017 4
3 -2 -4 199.044 75.594 13
-3 2 4 517.058 300.604 2
3 -2 4 192.883 130.579 13
-2 3 -4 223.796 122.34 4
-3 2 4 389.557 203.012 12
2 -3 -4 368.289 174.24 13
3 2 4 637.321 297.076 11
-3 -2 -4 173.175 170.756 6
2 -3 4 11.5577 162.258 3
2 3 4 334.659 211.217 11
3 -2 4 363.646 232.609 3
-2 3 -4 456.262 236.199 1
-3 2 -4 324.402 235.756 6
-2 3 4 207.99 131.892 11
3 -2 4 809.06 292.295 11
2 -3 -4 565.46 220.327 1
3 -2 -4 141.444 85.7437 6
2 -3 4 225.7 77.7493 11
-2 3 -4 -18.327 45.9727 6
-3 2 4 294.801 182.605 11
-2 3 4 176.101 159.514 10
-2 3 4 118.703 108.934 2
-3 2 4 440.931 187.385 10
2 -3 -4 260.836 217.272 8
2 -3 -4 253.266 216.183 7
3 -2 -4 236.57 219.54 5
3 -2 4 156.368 246.738 9
3 2 4 464.801 247.502 9
-2 3 4 316.248 230.836 12
2 3 4 205.954 114.069 9
2 -3 4 -26.2146 114.011 9
2 -3 -4 400.564 265.173 5
3 2 4 146.807 164.365 2
2 3 4 285.819 175.306 2
-2 -3 -4 130.007 32.9857 4
-3 -2 -4 190.422 118.629 4
-3 -2 -4 114.451 147.071 1
3 -2 -4 160.871 43.7257 7
2 -3 -4 305.643 168.468 6
2 -3 -4 336.048 198.657 17
-2 -3 -4 321.779 237.581 6
-2 3 4 736.8 234.465 16
-2 -3 -4 403.037 268.021 1
-3 2 -4 345.986 266.914 1
-2 -3 -5 249.984 145.771 6
-3 2 -5 603.794 252.418 4
3 -2 -5 617.449 382.031 7
-2 3 5 668.007 341.359 14
-3 -2 -5 852.077 394.005 1
-2 3 5 381.991 325.414 2
-3 2 -5 706.019 310.735 1
-3 -2 -5 93.2924 133.448 6
2 3 5 528.893 289.068 11
3 2 5 557.141 298.142 11
2 -3 -5 408.083 186.59 6
-3 2 5 812.619 358.337 2
-3 2 -5 584.307 268.236 6
-2 3 5 484.339 267.388 11
3 -2 5 202.896 109.698 11
-3 2 5 277.117 268.669 11
3 -2 -5 469.253 232.81 6
2 -3 5 358.524 160.719 11
2 -3 -5 5.96489 239.873 5
-2 3 -5 211.722 209.77 6
-2 3 -5 1026.29 447.516 1
2 -3 5 551.855 191.306 3
2 3 5 414.125 243.73 16
-2 3 -5 773.659 373.25 4
2 -3 -5 511.846 297.343 7
-2 3 5 616.509 304.7 10
3 -2 -5 537.554 249.302 1
-3 -2 -5 949.885 363.722 4
-3 2 5 509.186 294.1 10
-2 -3 -5 708.106 374.259 1
3 -2 -5 226.011 152.41 5
3 -2 5 370.522 262.403 3
3 2 5 625.415 378.788 9
-3 2 5 619.334 440.951 14
2 -3 -5 641.343 230.86 1
3 -2 5 454.876 321.321 9
2 -3 5 105.218 88.7637 9
2 3 5 382.863 263.561 2
3 2 5 632.567 319.736 2
2 -3 -5 227.27 187.008 8
3 -2 -6 6734.9 1107.2 6
-3 2 -6 7845.13 1157.19 6
-2 3 6 7179.04 1072.49 11
3 2 6 7379.63 1254.55 11
2 -3 -6 7467.34 1123.8 5
-2 -3 -6 6919.55 1170.03 6
2 -3 -6 6913.91 1205.95 7
-3 -2 -6 5564.26 1074.89 6
2 -3 6 6350.65 1105.62 11
3 -2 6 7388.58 1198.78 11
2 -3 6 7505.5 1159.07 3
2 3 6 7040.45 1178.19 11
-3 -2 -6 5713.29 1073.95 1
-2 3 6 6686.68 1056.38 10
-3 2 6 6888.82 1122.97 10
3 -2 -6 7713.57 1134.19 5
-3 2 6 6844.7 1184.08 14
-3 2 6 6293.13 1011.62 11
2 -3 -6 6895.89 1087.92 6
-2 -3 -6 7577.5 1200.59 1
3 -2 6 7497.02 1216.48 9
2 -3 6 7608.88 1216.19 9
2 3 6 5977.01 1088.18 2
-2 3 -6 6743.19 1097.14 6
-2 3 6 7243.28 1228.85 2
-3 2 6 6692.55 1237.98 2
3 2 6 6516.04 1055.37 2
-3 2 -6 6742.72 1163.67 1
3 -2 6 8479.76 1244.04 3
-3 2 -6 6612.65 1061.26 4
3 -2 -6 3404.91 1093.24 8
-2 3 -6 6967.61 1124.71 4
2 -3 -6 4077.3 1089.2 8
-2 3 -6 6239.77 1138.27 1
3 -2 -6 7821.87 1287.62 7
2 3 7 1224.59 543.347 2
3 2 7 1081.27 506.586 2
-3 2 7 443.939 227.531 14
-3 -2 -7 1092.79 483.992 1
2 -3 -7 1199.78 380.036 7
3 -2 -7 431.253 130.736 7
2 3 7 1034.72 452.089 11
-2 3 -7 387.315 283.933 4
3 -2 -7 950.518 401.99 18
-2 3 7 876.387 595.672 2
-3 2 -7 1232.98 562.589 4
-2 -3 -7 719.018 390.829 6
-3 -2 -7 501.206 371.512 6
3 2 7 579.047 471.297 11
-2 3 7 1048.18 376.809 11
2 -3 -7 1180.25 510.311 6
3 -2 7 1569.59 614.346 11
-3 2 7 639.758 473.847 11
-3 2 -7 291.803 240.984 6
2 -3 7 1165.9 516.478 11
-3 2 7 598.554 556.756 2
3 -2 -7 583.227 371.417 6
-2 3 -7 1366.72 548.571 6
3 -2 7 949.132 456.901 3
-2 -3 -7 1407.33 587.748 1
-3 2 -7 1339.18 533.863 1
-2 3 -7 609.913 325.986 1
3 -2 7 519.213 395.466 9
2 -3 7 481.469 197.908 9
3 -2 -7 359.687 494.893 8
2 3 8 1023.59 586.534 2
3 2 8 -145.123 380.145 2
2 3 8 339.833 287.777 11
3 -2 8 53.1469 254.058 11
2 -3 8 736.64 520.354 11
2 -3 -8 139.663 314.468 6
-3 2 -8 -232.97 267.295 6
-2 -3 -8 -136.337 211.243 7
3 -2 -8 211.559 173.447 6
-2 3 -8 61.5071 100.101 6
-3 2 8 125.361 297.03 14
3 -2 -8 114.409 133.593 18
-2 -3 -8 432.952 211.557 1
2 -3 8 233.088 402.362 9
3 -3 0 117846 3325.07 5
-3 3 1 34.4684 21.3563 15
-3 3 1 185.645 133.951 4
-3 3 -1 25.6337 43.9684 12
3 -3 -1 -172.984 149.631 7
-3 3 -1 -32.425 27.2499 1
3 -3 1 32.0205 14.2194 7
3 -3 1 116.72 97.1674 5
-3 3 1 -62.2266 31.8382 12
3 -3 -1 58.6826 161.17 17
3 -3 1 -13.7508 49.9799 11
3 -3 -1 -90.8045 94.1263 13
3 -3 -1 -25.6936 20.1028 6
-3 3 -1 102.721 99.3491 10
-3 3 1 -3.35798 101.45 10
3 -3 1 -14.1645 52.8698 9
3 -3 -1 33.6171 59.3272 9
3 -3 -1 -121.8 172.055 8
-3 3 1 -4.72665 99.3495 2
3 -3 1 -131.275 142.93 17
3 -3 1 -116.413 141.047 8
-3 3 -1 -9.00889 29.2561 4
-3 3 2 11760.7 1152.43 12
-3 3 -2 10361.9 707.525 6
3 -3 2 11818.8 870.293 8
3 -3 -2 11216.2 1089.12 13
-3 3 -2 10720.9 1014.27 12
3 -3 2 10243.1 1117.55 3
-3 3 2 10389.3 557.237 11
3 -3 2 10143 827.46 11
-3 3 -2 12093.3 893.227 10
-3 3 2 10933.2 1133.7 10
3 -3 2 11475.6 873.051 5
3 -3 -2 11271.6 1135.09 5
3 -3 -2 9282.5 1039.95 17
3 -3 2 11564.2 1170.59 9
3 -3 -2 11078.1 685.786 9
3 -3 -2 11866.6 778.475 6
-3 3 2 10769.2 953.168 2
-3 3 -2 11116.8 913.777 1
-3 3 2 10471.2 781.31 4
-3 3 -2 11704.6 1187.93 4
3 -3 -2 10298.6 1111.76 8
3 -3 -2 10562.8 1039.19 7
3 -3 2 10483.1 992.813 17
3 -3 -3 30.9924 84.3598 7
3 -3 -3 -25.293 176.229 13
-3 3 3 6.41465 51.9012 2
-3 3 3 -253.826 194.28 12
-3 3 -3 -19.6219 149.073 12
3 -3 -3 190.322 142.107 17
3 -3 3 -397.235 266.899 3
3 -3 -3 50.0728 132.405 6
3 -3 3 -14.7717 80.1727 11
-3 3 -3 -75.183 122.871 6
-3 3 -3 61.6712 108.958 1
-3 3 3 -32.9858 142.786 10
3 -3 -3 -159.019 177.344 5
3 -3 3 38.2174 82.8588 9
3 -3 -3 -285.362 231.659 8
-3 3 3 51.0256 106.377 14
3 -3 3 75.693 134.04 17
-3 3 -3 400.217 225.554 4
-3 3 4 3801.35 736.815 14
3 -3 -4 4057.98 657.02 13
-3 3 4 2647.39 610.363 12
-3 3 4 3847.24 743.881 2
3 -3 -4 3258.44 611.499 6
3 -3 4 3977.3 708.299 11
3 -3 4 3849.18 733.977 3
-3 3 -4 3647.74 609.903 6
-3 -3 -4 3720.49 1060.32 1
-3 3 -4 4154.75 774.659 4
-3 3 4 4620.68 831.894 10
3 -3 -4 3572.09 745.949 5
-3 3 -4 3875.42 731.11 1
3 -3 4 3752.21 797.128 9
3 3 4 2722.7 663.434 2
3 -3 -4 3105.75 634.232 17
3 -3 -4 3640.03 727.512 8
3 -3 -4 3280.26 752.74 7
3 -3 4 2735.14 568.427 13
-3 3 5 -270.198 232.458 14
-3 -3 -5 264.195 227.515 1
-3 3 5 -49.3499 82.5374 12
3 -3 -5 -198.617 318.516 7
-3 3 5 -147.869 178.013 2
3 3 5 231.508 294.331 11
3 3 5 -130.431 252.192 9
3 -3 -5 -191.556 222.067 6
3 -3 5 -188.359 191.975 11
-3 3 -5 -64.5388 176.089 4
-3 3 -5 -227.807 182.516 6
3 -3 5 3.96962 94.7923 3
-3 3 5 196.894 257.526 10
3 -3 -5 -376.211 285.976 5
-3 -3 -5 -411.74 332.153 6
3 -3 5 -289.425 281.547 9
3 3 5 559.712 351.122 2
-3 3 -5 221.07 254.974 1
3 -3 -5 -104.048 113.78 8
3 -3 -5 89.6915 60.4276 17
-3 -3 -6 324.268 260.947 6
3 -3 -6 31.1507 337.498 8
-3 3 -6 300.447 269.822 6
-3 -3 -6 598.435 331.471 1
3 -3 -6 -468.887 407.444 7
-3 3 6 324.853 160.833 10
-3 3 6 266.138 265.377 2
3 3 6 601.179 208.611 11
3 -3 6 361.419 250.511 11
3 -3 -6 103.139 178.089 6
-3 3 -6 508.329 337.766 1
3 -3 -6 4.2661 63.9287 5
3 -3 6 75.8046 173.777 9
3 -3 6 55.868 162.897 3
-3 3 6 831.622 474.428 14
-3 3 -6 592.895 479.804 4
3 3 6 154.796 251.984 2
-3 3 7 922.045 506.748 14
3 -3 -7 292.569 355.205 7
-3 3 -7 -151.729 51.6676 4
-3 -3 -7 415.14 382.476 6
3 -3 -7 -121.381 282.739 5
3 3 7 -75.8112 228.44 11
-3 3 7 119.854 163.882 2
-3 3 -7 4.51048 62.1297 1
3 -3 7 238.145 472.338 11
3 -3 -7 -458.079 127.205 6
-3 -3 -7 145.023 167.314 1
-3 3 -7 30.4312 273.387 6
3 -3 7 860.299 535.354 3
3 -3 -7 -13.3461 270.233 8
3 3 7 -103.49 301.633 2
3 -3 7 240.004 250.348 9
3 -3 8 1414.22 643.651 11
3 -3 -8 998.371 462.172 6
3 3 8 893.53 484.982 2
3 -3 8 1496.82 680.773 9
4 0 1 1488.95 391.755 9
-4 0 -1 1638.68 395.808 4
0 4 2 10212.1 1017.91 12
-4 0 -2 10262.8 999.476 1
0 4 2 10046 1039.51 2
4 0 2 9021.46 1022.33 9
-4 0 -2 9304.69 1032.54 4
0 -4 -2 11032.2 1121.58 8
-4 0 -2 10393 1098.95 15
-4 0 -3 509.486 229.094 1
-4 0 -3 388.92 213.3 6
0 4 3 425.084 217.044 12
4 0 3 493.996 228.404 11
4 0 3 511.428 266.009 9
0 -4 -3 596.507 228.078 1
4 0 3 279.07 130.339 2
-4 0 -3 463.045 196.247 4
0 -4 -3 432.464 250.826 8
0 -4 -4 15850.7 1486.97 6
-4 0 -4 15653.3 1404.71 6
4 0 4 18820.9 1649.81 11
0 4 4 15660.1 1306.28 12
0 -4 -4 15977.6 1366.86 1
-4 0 -4 15465.9 1529.93 1
0 4 4 18480.6 1528.08 11
4 0 4 15096.6 1485.62 9
0 4 4 16610.1 1566.43 2
4 0 4 16231.3 1265.55 2
-4 0 -4 15034.4 1449.83 4
0 -4 -4 19134.2 1608.53 8
-4 0 -5 -104.082 128.477 6
4 0 5 370.607 292.522 11
0 -4 -5 737.867 364.196 1
-4 0 -5 258.427 260.623 1
-4 0 -5 -55.3321 174.823 4
4 0 5 162.707 139.374 9
0 4 5 106.333 95.7756 11
0 -4 -5 789.499 351.18 6
0 -4 -5 60.2553 96.1539 8
0 4 5 19.8192 160.165 2
0 4 5 156.438 198.294 16
0 4 6 -17.2096 197.93 2
0 -4 -6 -98.062 312.695 6
-4 0 -6 232.729 165.98 6
0 4 6 382.394 304.519 11
4 0 6 598.991 259.759 11
-4 0 -6 229.709 345.297 1
0 -4 -6 173.859 218.205 8
0 -4 -6 142.986 232.926 1
4 0 6 506.575 332.035 9
-4 0 -6 -13.8893 138.853 4
0 4 6 169.369 41.3223 16
0 -4 -7 49.6436 179.666 7
0 4 7 -84.0593 176.709 2
0 4 7 -320.46 420.695 11
0 -4 -7 548.163 434.111 6
4 0 7 232.76 184.151 11
4 0 7 478.03 435.156 9
-4 0 -7 -72.0633 307.166 1
-4 0 -7 -543.067 443.14 6
0 4 8 3956.87 1056.47 11
-4 0 -8 1919.75 674.686 6
-4 1 0 -5.76649 38.0893 14
-4 1 0 -56.1045 58.243 12
-1 4 0 105.998 127.554 12
1 -4 0 -67.1451 110.025 3
-4 1 0 37.5138 81.4407 10
4 -1 0 -4.09961 79.3896 9
4 -1 0 -162.481 156.028 5
4 -1 0 -54.3313 106.076 13
1 -4 0 -80.681 58.211 17
-4 1 0 -92.0826 193.611 4
1 -4 0 19.0814 42.07 8
-4 1 1 86.6912 114.615 14
-4 1 -1 63.9938 73.73 14
4 -1 -1 -132.616 172.929 13
1 -4 1 78.6611 74.2777 17
-4 1 -1 -65.6741 117.101 12
1 -4 -1 0.13887 38.2435 8
-1 4 -1 155.457 144.593 4
-1 4 1 214.402 12.3326 12
-4 1 1 -143.978 193.955 12
-1 4 -1 -16.3418 62.4502 12
4 -1 1 143.278 131.551 13
-1 4 1 31.4362 91.3305 10
1 -4 1 201.782 182.23 3
-4 1 -1 71.1647 99.0478 10
-4 1 1 64.5564 109.088 10
4 -1 -1 108.175 111.933 9
4 -1 1 92.8112 160.572 9
4 -1 -1 170.687 100.116 5
-1 4 1 189.731 80.6626 2
1 -4 -1 -12.3726 132.553 17
-4 1 1 170.145 149.408 4
-4 1 -1 26.0472 42.9185 4
-4 1 -1 147.581 133.955 1
-4 1 -1 149.774 169.858 15
4 -1 -1 252.229 195.883 18
-4 1 2 33005.1 1931.3 14
-1 4 2 36650.9 1981.29 12
-1 4 -2 37922.9 1951.8 12
1 -4 2 41704.4 2194.11 3
-1 4 2 44080.9 2269.13 10
-4 1 2 36067.9 2069.84 10
1 -4 -2 37552.8 1489.47 1
4 -1 -2 40215.6 2199.13 5
4 -1 2 40435.4 1291.94 2
-4 1 -2 35109.9 1795.81 1
-1 4 2 35101.8 1865.53 2
1 -4 2 43355.3 2230.45 9
1 -4 -2 42952.8 2163.02 17
4 -1 -2 33871.3 1862.54 7
-4 1 2 39007 1735 4
-4 1 -2 37110.8 2086.12 4
-1 4 -2 40157.6 2179.69 4
4 -1 -2 39477.1 2155.03 18
4 -1 -2 43380.6 2163.07 13
-4 1 -2 36032.6 2079.64 15
-4 1 3 13455.2 1336.64 14
4 -1 -3 15401.9 1420.06 7
-4 1 3 14254 1080.6 11
1 -4 3 16710.4 1517.2 3
-4 1 3 14061.4 1361.56 10
-1 -4 -3 14823.4 1277.28 1
4 -1 -3 16888.9 1498.28 5
-4 -1 -3 13490 1322.27 1
4 1 3 15518.6 1251.44 2
1 4 3 14470.9 1402.34 2
4 1 3 12018.4 1246.43 9
1 -4 3 17071.8 1523.24 9
4 -1 -3 15432 1455.95 18
-4 -1 -3 13585.5 1300.85 4
-1 4 -3 16071.7 1485.41 4
-1 -4 -4 524.358 285.603 1
-4 1 4 207.151 124.202 14
-4 -1 -4 472.527 151.881 1
4 -1 4 366.011 198.919 13
-1 -4 -4 251.693 209.308 6
-1 4 -4 252.481 159.245 4
-1 4 4 169.276 145.203 12
1 4 4 244.608 198.871 12
-4 -1 -4 321.104 216.122 6
-4 1 -4 536.421 298.876 6
4 1 4 492.104 310.651 11
-1 4 4 400.494 229.398 11
4 -1 4 368.601 132.612 11
1 -4 -4 362.83 207.696 1
-4 1 -4 271.202 263.4 1
-4 1 4 116.031 136.44 11
1 -4 4 366.091 184.65 11
-4 1 -4 240.142 146.317 4
-1 4 4 364.698 200.152 10
-4 1 4 235.031 55.4009 10
1 -4 -4 429.224 242.437 6
4 1 4 361.27 277.606 9
4 -1 4 296.545 108.824 9
4 -1 -4 286.463 301.538 5
4 1 4 132.352 124.112 2
1 4 4 51.3123 180.957 2
1 -4 4 282.161 219.285 9
-4 -1 -4 -58.6378 74.6315 4
1 -4 -4 267.615 196.581 17
-1 4 4 637.347 273.812 16
4 -1 -4 320.352 273.36 18
-1 4 4 233.26 126.314 2
1 -4 -4 162.138 123.225 8
4 -1 -4 41.5856 109.403 7
-4 1 5 4570.64 915.124 14
-1 4 5 6263.66 932.754 11
-4 1 -5 5906.64 930.331 6
-1 -4 -5 4273.28 813.32 1
-1 -4 -5 5846.79 1008.27 6
1 -4 -5 4964.22 890.007 6
1 -4 -5 5493.02 917.218 8
-4 -1 -5 4215.95 846.476 6
-4 1 5 5493.26 865.221 11
1 -4 5 4266.48 845.52 11
-4 1 5 5010.5 925.004 10
-1 4 5 5376.83 896.209 10
4 -1 -5 5900.76 992.637 5
1 -4 -5 4601.56 844.126 5
4 -1 -5 5372.2 973.554 18
4 -1 -5 5223.31 977.025 7
-4 1 -5 4554.32 884.464 1
-4 -1 -5 5215.42 979.299 1
1 4 5 6977.69 1090.93 11
4 -1 5 5625.22 996.119 9
4 1 5 5306.61 878.824 2
4 1 5 4645.79 843.652 9
-4 -1 -5 4796.3 841.48 4
4 -1 5 6418.07 1007.73 11
1 -4 5 5703.39 1020.03 9
1 4 5 4473.84 892.864 2
4 1 5 5850.16 1052.97 11
-1 4 5 4555.98 794.508 16
-4 1 -5 5093.66 933.741 4
-1 4 5 5376.37 974.995 2
-4 1 6 1723.2 479.797 14
4 -1 6 1712.4 497.087 3
1 -4 -6 2394.95 765.412 7
-1 4 6 1721.59 695.307 2
4 -1 -6 2191.67 681.92 7
4 1 6 737.997 804.052 2
1 4 6 2791.98 756.36 2
-1 -4 -6 1799.18 614.687 6
1 4 6 2952.11 778.867 11
-4 1 -6 2458.13 653.524 6
-1 4 6 2301.46 607.953 11
1 -4 -6 1895.71 611.963 6
4 -1 6 2827.41 791.633 11
-1 -4 -6 1860.34 604.057 1
-4 1 6 1894.88 569.616 11
1 -4 6 1458.61 573.624 11
-1 4 6 2391.6 601.389 10
1 -4 -6 456.455 526.067 8
1 -4 -6 1381.4 557.373 5
-4 1 6 2348.47 754.357 10
4 -1 -6 2133.22 686.965 18
4 -1 6 2493.96 737.725 9
-4 1 -6 1820.42 618.513 1
-4 1 -6 2754.47 712.07 4
1 4 6 1552.36 554.671 16
1 4 7 300.719 245.896 2
-4 1 7 603.668 389.034 14
-4 1 -7 -260.175 301.375 1
-1 4 7 -137.524 280.338 2
4 -1 -7 662.65 530.02 7
-1 -4 -7 658.39 471.21 6
-4 -1 -7 30.1843 95.925 6
1 -4 -7 973.278 526.807 6
4 1 7 121.054 119.486 11
-4 1 -7 -110.622 159.459 6
4 -1 7 228.727 241.17 11
1 -4 7 -254.8 326.983 11
-4 -1 -7 105.015 254.479 1
-4 1 7 -201.606 251.783 10
-1 -4 -7 -154.154 149.035 1
1 -4 -7 -508.486 575.35 7
4 -1 7 888.503 534.062 9
1 4 7 -144.173 238.286 11
-1 4 7 -320.257 359.013 11
4 -1 -7 -15.5499 78.1084 18
-4 1 8 328.164 318.345 14
1 4 8 380.783 405.096 11
1 -4 -8 669.233 480.267 6
-4 1 -8 305.984 256.291 6
-1 -4 -8 -157.481 350.407 7
-1 -4 -8 -54.8672 164.088 1
-4 2 0 5938.84 686.929 14
4 -2 0 5661.21 791.609 13
-4 2 0 6207.68 820.301 12
-2 4 0 5729.44 783.697 12
2 -4 0 5581.2 777.865 17
2 -4 0 5959.6 734.289 3
-2 4 0 6198.97 801.986 10
-4 2 0 5547.66 712.532 10
4 -2 0 6595.09 799.34 5
-4 2 0 6204.93 484.517 1
-2 4 0 5767.7 553.242 2
4 -2 0 5408.09 701.221 9
2 -4 0 6778.52 761.14 9
-4 2 0 5961.92 758.541 4
-2 4 0 6380.08 771.938 4
2 -4 0 6683.46 828.273 8
-4 2 0 6112.64 769.765 15
4 -2 -1 51034.5 2062.18 7
4 -2 -1 54389.4 2463.26 13
4 -2 1 58271.6 2534.07 13
-4 2 1 55866.2 2548.58 12
-2 4 1 52600.1 2456.28 12
2 -4 -1 55402.2 2529.82 17
2 -4 1 56947.2 2460.6 3
2 -4 -1 56966.4 2038.83 3
-4 2 1 48295.8 1106.22 11
-2 4 1 56369 2543.18 10
-4 2 -1 49170 2028.69 10
-4 2 1 49815.3 2339.91 10
2 -4 -1 51727.9 1085.3 1
2 -4 1 55877.8 2485.16 17
4 -2 -1 54219 2482.86 5
4 -2 1 51442.9 2076.09 5
4 -2 1 53276.8 1893.21 18
4 -2 -1 46488.5 1908.24 9
4 -2 1 48676.7 2286.55 9
2 -4 1 56281.7 2419.7 9
-2 4 -1 50084.8 2330.46 12
-4 2 1 49971.5 2100.35 4
-4 2 -1 49275.7 2339.93 4
-2 4 1 51304.1 1996.46 4
2 -4 -1 55269.7 2491.29 8
-4 2 -1 53818.5 2354.81 12
2 -4 1 56637.7 2305.83 8
-4 2 1 48549.1 2198.08 14
-4 2 -1 52232.5 2360.89 15
-4 2 2 6817.54 915.945 14
4 -2 -2 6640.68 841.924 7
4 -2 -2 7893.12 944.016 13
-4 2 2 7332.08 933.025 12
-4 2 -2 7909.61 875.072 12
-2 4 2 7469.3 928.67 12
-2 4 -2 6521.74 829.822 12
2 -4 -2 7298.39 689.111 6
-4 2 -2 6521.18 591.582 6
2 -4 -2 8111.47 969.375 17
4 -2 2 7837.53 757.815 11
2 -4 2 7493.89 969.528 3
2 -4 -2 8115.19 651.621 3
-4 2 2 6825.76 551.554 11
2 -4 2 6990.54 733.429 11
-2 4 2 8080.01 1009.56 10
-4 2 -2 8439.72 742.507 10
-4 2 2 6858.77 938.403 10
4 -2 -2 7267.22 946.464 5
4 -2 2 7480.13 907.368 13
4 -2 2 7833.61 719.322 5
4 -2 -2 6767.25 663.809 9
4 -2 2 6679.64 913.853 9
-4 2 -2 7452.19 791.301 1
-2 4 2 7109.11 834.384 2
2 -4 2 8470.51 988.23 9
-4 2 2 6849.5 706.034 4
-4 2 -2 6656.92 919.405 4
-2 4 -2 7803.88 997.449 4
2 -4 -2 6982.92 924.366 8
2 -4 2 8034.5 923.148 17
-4 2 3 24296.9 1768.49 12
-2 4 3 20487.2 1597.82 12
-2 4 -3 22613.2 1520.89 12
2 -4 -3 22155.8 1438.48 6
4 -2 -3 25120.2 1714.1 13
-2 4 3 24274.5 1332.19 11
2 -4 3 23418.7 1833.39 3
2 -4 3 21006 1482.29 11
-2 4 3 22467.3 1778.55 10
-4 2 3 23285.3 1815.83 10
4 -2 -3 23065.2 1809.43 5
4 -2 -3 22702.8 1759.12 7
2 -4 3 24770.7 1902.01 9
-2 4 3 21194.2 1620.19 2
2 -4 -3 23669.8 1738.47 17
-2 4 -3 22084.6 1555.11 1
-2 4 -3 24297 1866.06 4
2 -4 -3 25214 1877.48 8
-4 2 3 20733.6 1715.75 14
-2 -4 -4 3799.64 739.657 1
-2 4 4 4063.37 778.484 2
-4 2 4 4123.51 823.947 14
4 -2 4 4324.75 684.255 13
4 -2 -4 3991.91 780.914 7
-2 4 -4 5222.71 905.07 4
-4 2 -4 4381.62 702.684 6
2 -4 -4 3724.38 639.765 6
4 -2 4 3863.04 684.329 11
2 -4 4 3512.04 669.875 11
-4 2 4 4696.08 811.471 2
4 -2 -4 3689.1 652.148 6
2 -4 -4 4522.45 870.325 5
2 -4 4 3904.98 808.436 3
-2 4 4 4237.61 818.917 10
-4 2 4 3314.66 713.412 10
4 2 4 3397.75 692.109 9
4 -2 -4 4772.53 850.375 5
2 -4 -4 4110.63 795.484 8
4 -2 4 3810.65 812.954 9
-4 2 -4 4458.85 788.717 1
-2 4 -4 4142.8 761.809 1
4 2 4 3702.74 723.224 2
2 4 4 4480.34 845.972 2
2 -4 4 4469 852.764 9
-4 -2 -4 4242.45 748.252 4
-4 2 4 4805.57 814.935 12
4 -2 -4 4568.93 704.415 13
2 -4 -4 4056.87 706.576 17
-2 4 4 4246.74 774.159 12
-2 4 4 4088.51 671.103 16
-4 -2 -4 3857.45 812.294 1
-4 2 -4 4319.06 810.61 4
-4 2 5 4017.99 849.95 14
-4 2 -5 4829.5 886.885 4
4 -2 5 5218.37 898.6 11
-2 4 5 5284.51 973.361 2
4 -2 -5 4891.35 980.048 7
-4 -2 -5 5189.74 986.954 6
4 -2 -5 6398.96 1051.79 5
-4 -2 -5 4095.97 856.913 1
2 -4 -5 5330.29 896.043 6
-2 4 -5 4897.39 929.285 4
-4 2 -5 5220.56 856.014 6
4 -2 -5 5527.21 932.886 6
2 -4 -5 5058.99 950.677 7
-2 -4 -5 4543.6 886.325 6
4 2 5 6444.16 1122.41 11
4 -2 5 4707.78 910.644 3
2 -4 5 4762.38 890.308 11
-4 2 5 5119.68 948.611 2
2 -4 -5 5316.82 995.493 5
-2 4 5 5522 958.871 10
2 -4 5 5404.12 991.726 3
-4 2 5 4289.6 851.854 10
4 2 5 4677.72 859.456 9
-2 4 -5 5622.39 984.374 1
4 -2 5 5170.74 989.763 9
2 -4 -5 4638.35 912.288 8
2 -4 5 5206.37 971.853 9
4 2 5 4397.89 861.499 2
2 4 5 4891.68 978.699 2
-4 -2 -5 4103.14 759.542 4
-2 -4 -5 4242.91 864.579 1
-4 2 -5 4738.39 882.117 1
-4 2 6 438.984 215.703 14
2 -4 -6 547.654 348.07 7
-4 2 -6 165.095 89.6604 4
4 -2 -6 1126.76 421.65 7
-4 2 -6 949.482 386.16 1
-2 4 -6 376.921 253.895 4
-2 -4 -6 1090.09 447.063 1
-4 -2 -6 634.91 394.569 1
-2 -4 -6 426.295 379.827 6
-4 -2 -6 678.169 487.376 6
2 4 6 825.783 406.21 11
4 2 6 1692.77 670.569 11
2 -4 -6 731.835 334.717 6
-2 4 6 383.782 340.801 2
4 -2 6 571.673 328.362 11
-4 2 -6 638.782 353.526 6
4 -2 6 1157.55 479.102 3
2 -4 6 841.422 394.942 11
4 -2 -6 544.704 277.086 6
-2 4 6 691.31 362.434 10
2 -4 6 949.814 531.868 3
4 -2 -6 1274.91 548.45 18
-4 2 6 863.758 412.073 10
2 4 6 732.37 402.26 2
2 -4 -6 11.0823 373.951 5
4 2 6 684.705 357.772 9
4 -2 -6 455.975 423.672 5
4 -2 6 654.632 162.486 9
-2 4 -6 285.497 166.403 1
2 -4 6 1218.49 519.005 9
4 2 6 1306.89 522.784 2
2 -4 -6 146.884 511.159 8
-4 2 7 1615.13 649.486 14
-2 4 -7 2655 764.216 4
2 4 7 1940.69 716.916 2
4 -2 -7 1732.74 597.401 7
-2 4 7 1738.35 789.356 2
-2 4 -7 2254.63 799.023 1
4 2 7 1872.37 618.815 2
-2 -4 -7 1539.38 621.172 6
-4 -2 -7 1235.38 578.639 6
2 4 7 1892.88 654.331 11
4 2 7 2549.97 811.202 11
4 -2 7 2550.54 763.121 11
2 -4 -7 2404.49 732.232 6
-4 2 -7 2392.51 785.106 6
2 -4 7 1937.66 784.866 11
-4 2 -7 1104.41 506.455 1
4 -2 7 1319.5 530.274 3
-4 -2 -7 1637.56 593.772 1
4 -2 -7 2421.84 732.83 6
-2 -4 -7 2002.16 678.682 1
2 -4 -7 2187.57 724.488 7
-4 2 -7 1664.26 533.923 4
-4 2 7 1639.12 608.049 10
4 -2 -7 617.255 723.457 5
4 -2 7 2067.93 777.479 9
2 -4 7 1806.96 663.962 9
4 -2 -7 249.732 540.359 8
4 -2 -7 1783.77 608.294 18
2 -4 -8 -694.226 464.823 6
4 -2 -8 -104.046 313.138 6
4 -2 8 225.416 336.25 9
4 -2 -8 -398.563 265.776 18
-2 -4 -8 -524.866 534.525 7
-3 4 0 -38.3902 58.4874 4
-3 4 0 -109.792 149.452 12
4 -3 0 -430.749 338.469 13
4 -3 0 12.6672 32.9813 7
3 -4 0 176.844 80.6952 8
-4 3 0 -195.854 165.26 12
3 -4 0 190.356 188.364 17
-4 3 0 194.406 154.765 15
3 -4 0 -131.712 191.402 3
-3 4 0 -29.7516 123.909 10
-4 3 0 -9.99782 120.216 10
4 -3 0 -200.182 184.244 5
4 -3 0 104.762 36.5659 9
3 -4 0 -52.192 30.7526 9
4 -3 0 -58.3049 135.054 8
-4 3 0 118.722 160.338 4
-3 4 0 -41.5208 82.1712 2
4 -3 -1 5857.68 850.337 13
4 -3 1 5791.43 867.49 13
3 -4 -1 6080.17 876.693 17
-4 3 1 5850.65 860.725 12
-4 3 -1 5156.8 794.406 12
-3 4 1 5512.55 848.235 12
-3 4 -1 5877.39 853.59 12
3 -4 -1 6157.99 721.462 3
3 -4 1 6064.38 871.447 3
-3 4 -1 6614.55 827.201 10
-3 4 1 6281.96 896.739 10
-4 3 -1 5578.2 719.524 10
-4 3 1 6345.9 866.42 10
4 -3 -1 5841.52 841.597 5
4 -3 1 5834.64 748.599 5
4 -3 -1 5615.45 695.109 7
4 -3 -1 5950.06 685.516 9
4 -3 1 5827.52 799.844 9
3 -4 1 6419.21 826.479 9
3 -4 -1 5923.7 665.447 9
-3 4 1 6237.58 649.925 2
-4 3 -1 5790.38 561.381 1
-4 3 1 6082.7 742.76 4
-4 3 -1 5651.41 840.352 4
-3 4 -1 5835.32 838.003 4
-3 4 1 6388.19 747.35 4
4 -3 1 5316.77 711.936 8
3 -4 -1 6061.73 881.099 8
3 -4 1 5500.22 731.443 8
4 -3 1 5862.43 819.145 17
3 -4 1 5092.19 759.39 17
-4 3 1 6518.25 739.197 15
-4 3 -2 580.614 301.932 4
-4 3 2 507.755 296.706 14
3 -4 -2 1042.88 376.746 17
3 -4 2 701.284 229.385 8
4 -3 -2 927.812 292.369 7
-4 3 -2 588.301 236.296 1
4 -3 2 775.495 318.076 13
3 -4 -2 742.642 327.207 13
-3 4 2 746.2 224.24 4
3 -4 -2 685.88 291.299 7
-4 3 2 942.423 349.935 12
-4 3 -2 1077.64 354.049 12
-4 3 2 1150.13 309.463 4
4 -3 2 910.662 319.766 17
-3 4 2 1168.35 351.878 12
-3 4 -2 652.374 259.358 12
3 -4 -2 588.64 172.867 3
4 -3 2 1097.45 271.107 11
3 -4 2 573.385 274.606 3
-4 3 2 733.47 220.28 2
3 -4 2 547.575 176.951 11
-3 4 2 661.222 192.008 2
-3 4 -2 1019.51 263.698 1
-4 3 -2 785.137 229.248 10
-3 4 2 458.901 200.655 10
3 -4 -2 808.873 318.221 5
-4 3 2 844.175 323.807 10
4 -3 -2 497.034 254.146 5
3 -4 2 875.992 293.968 17
4 -3 2 758.571 240.789 5
4 -3 -2 483.891 230.614 13
4 -3 2 662.477 272.145 9
3 -4 2 1138.9 390.206 9
-3 4 -2 759.906 308.606 4
3 -4 -2 845.506 303.767 8
4 -3 2 939.861 255.934 8
3 -4 -3 21255.8 1742.91 7
-4 3 3 19325.3 1751.28 14
4 -3 -3 23021.3 1723.72 13
4 -3 3 21095.5 1711.17 13
3 -4 -3 21272.6 1603.46 13
-3 4 3 19760 1668.18 12
-3 4 -3 20133.9 1512.4 12
4 -3 3 22147.6 1489.08 11
3 -4 3 19903 1420.79 11
-3 4 3 22637.5 1868.65 10
-4 3 3 19972.6 1767.45 10
3 -4 -3 20806 1810.07 5
4 -3 -3 22418 1850.08 5
3 -4 -3 22296.9 1765.68 17
4 -3 3 22121 1857.38 9
3 -4 3 22200.2 1849.62 9
-3 4 3 20521.4 1602.53 2
4 -3 3 22227.3 1557.7 17
4 -3 -3 21054.9 1694.17 7
-4 3 3 24092.9 1704.68 2
-4 3 -3 19279.5 1468.42 1
-4 3 -3 19953.9 1780.16 4
-4 3 -3 21714.8 1533.75 12
3 -4 -3 20938.4 1816.75 8
-3 4 -3 19128 1460.84 1
-4 3 3 21983.3 1807.55 12
-3 4 -4 -133.285 243.92 4
-4 3 4 396.755 348.951 14
-4 3 -4 -296.657 294.513 4
3 -4 -4 -48.9383 197.176 7
4 -3 4 -21.8678 85.1878 13
4 -3 -4 121.521 145.408 13
4 -3 -4 -57.2913 92.8953 7
3 -4 -4 -203.29 180.743 13
-3 4 4 86.5299 99.7072 2
-4 3 4 -110.841 61.7771 12
-3 4 4 100.343 62.6585 12
4 -3 4 -180.167 243.568 3
-4 3 -4 116.933 154.068 1
-4 3 4 336.773 279.204 2
4 -3 4 28.145 30.575 11
3 -4 4 69.5761 146.588 11
3 -4 4 136.068 152.304 3
-3 4 4 109.944 102.329 10
-4 3 4 74.1202 66.0752 10
3 -4 -4 359.515 374.222 5
4 -3 -4 44.5993 225.801 5
4 -3 4 273.358 266.646 9
3 -4 4 -53.3015 169.901 9
-3 4 -4 -25.7172 92.38 1
3 -4 -4 -179.26 158.906 8
3 -4 -4 -122.842 90.8287 17
4 -3 -5 1996.47 1292.31 7
-4 3 5 8129.71 1287.58 14
-4 3 5 9728.26 1266.16 12
4 -3 5 9651.76 1355.8 3
4 -3 5 9494.45 1225.57 11
3 -4 5 9062.04 1349.84 3
3 -4 5 8035.13 1169.48 11
-4 3 5 7631.69 1181.26 10
4 -3 -5 9261.49 1295.81 5
-3 4 5 7325.52 1142.42 10
-4 -3 -5 7386.71 1227.42 1
3 -4 -5 6329.47 1094.61 5
4 -3 5 8150.27 1295.11 9
3 -4 5 9323.6 1382.75 9
-4 3 5 8880.61 1327.9 2
-4 3 -5 8922.54 1222.53 1
-4 3 -5 9342.98 1336.57 4
-3 4 -5 8486.22 1284.86 4
4 -3 -5 7952.19 1223.02 8
3 -4 -5 7758.87 1201.2 8
-3 4 -5 8097.63 1163.72 1
4 -3 -5 8860.71 1208.93 17
3 -4 -5 9013.28 1153.08 17
-4 3 6 32.7276 20.2314 14
4 -3 -6 41.7496 175.569 7
-3 -4 -6 389.871 346.348 1
-4 -3 -6 446.186 378.231 1
-3 4 -6 442.235 370.306 4
-3 4 6 -65.3046 370.628 2
-3 -4 -6 455.431 480.255 6
-4 -3 -6 216.223 419.262 6
4 3 6 140.217 232.57 11
4 -3 6 35.1288 121.32 11
-4 3 6 513.825 410.86 2
3 -4 6 597.654 393.92 11
4 -3 6 -172.416 304.959 3
3 -4 6 -620.017 385.913 3
-3 4 6 70.3175 209.765 10
-4 3 6 463.751 290.017 10
3 -4 -6 -27.9198 131.121 7
3 -4 -6 10.3124 277.858 5
4 -3 -6 41.9488 155.166 5
-4 3 -6 135.214 187.859 1
4 -3 6 246.985 279.498 9
3 -4 6 -132.476 238.241 9
3 4 6 -116.64 204.399 2
4 3 6 124.41 241.365 2
4 -3 -6 12.3472 107.72 8
3 -4 -6 -1173.62 492.072 8
-4 3 -6 243.945 118.881 4
-3 4 -6 -40.5678 122.986 1
-4 3 7 293.439 297.517 14
4 -3 -7 268.863 473.917 7
-4 3 -7 41.3964 124.975 4
-3 4 -7 -438.106 374.643 4
3 -4 -7 120.9 101.443 7
-3 4 -7 -368.743 294.221 1
-3 -4 -7 848.543 597.943 6
-4 -3 -7 165.896 207.743 6
-3 4 7 -70.8009 161.24 2
3 4 7 -374.048 283.686 11
4 3 7 -189.86 322.044 11
-4 -3 -7 -48.4202 249.965 1
4 -3 7 -171.607 280.022 11
3 -4 7 42.2928 277.94 11
-4 3 7 20.0338 171.226 2
4 -3 7 55.3726 187.26 3
3 4 7 -78.9867 95.8938 2
-3 4 7 214.109 54.9445 10
3 -4 7 590.584 350.197 3
-4 3 7 44.1368 61.5373 10
3 -4 -7 -18.9972 468.925 5
4 -3 -7 27.5108 116.669 5
4 -3 7 -588.963 442.377 9
3 -4 7 -319.537 300.456 9
4 -3 -7 -11.4511 289.503 8
3 -4 -7 -147.491 428.435 8
-3 -4 -7 -60.6118 252.903 1
4 3 7 143.714 248.2 2
-4 3 -7 205.453 293.288 1
-4 4 0 57405.8 2722.54 10
4 -4 0 54261.6 2654.36 5
4 -4 0 54532.9 2916.14 13
4 -4 0 58260.2 2548.8 9
4 -4 0 56098.8 2677.06 8
4 -4 0 55878.9 2831.5 17
-4 4 1 -47.2209 40.8754 15
-4 4 -1 -317.53 267.512 4
-4 4 1 48.7213 73.5646 4
4 -4 -1 52.841 104.705 7
4 -4 -1 103.453 167.695 13
4 -4 1 50.5026 137.126 13
-4 4 1 181.775 138.816 12
-4 4 -1 -282.438 208.823 12
-4 4 -1 -95.331 194.578 10
-4 4 1 -35.2082 187.012 10
4 -4 1 133.066 160.984 5
4 -4 -1 -57.3678 104.462 5
4 -4 1 359.512 239.269 8
4 -4 1 196.346 257.269 9
4 -4 -1 -11.1672 157.286 9
4 -4 -1 -46.1969 106.04 8
4 -4 -1 -50.6149 166.367 17
4 -4 1 -12.8465 119.863 17
-4 4 -2 2232.41 565.745 4
4 -4 -2 2207.49 519.343 7
4 -4 -2 2045.16 542.136 13
4 -4 2 1621.37 510.222 13
4 -4 -2 2360.64 615.011 8
-4 4 2 2096.78 587.87 12
-4 4 -2 2326.01 557.975 12
-4 4 2 2474.1 486.124 2
4 -4 2 1987.58 584.751 3
-4 4 -2 2297.98 454.076 10
-4 4 2 1871.6 531.987 10
4 -4 2 2444.26 491.473 8
4 -4 2 2184.65 474.396 5
4 -4 -2 1636.72 530.079 17
4 -4 -2 2158.34 592.514 5
4 -4 2 2375.47 595.609 9
4 -4 2 1907.51 495.387 17
4 -4 -3 -126.433 245.807 7
4 -4 -3 -125.549 115.277 13
4 -4 3 92.485 247.728 13
-4 4 3 -196.773 217.629 12
-4 4 -3 201.69 200.805 12
4 -4 -3 -3.68241 168.031 8
-4 4 3 -80.3956 261.265 2
4 -4 3 -39.1261 226.142 3
4 -4 3 399.225 307.917 17
-4 4 3 74.7869 171.153 10
4 -4 -3 93.6134 178.729 5
4 -4 -3 -78.6169 103.961 17
4 -4 3 58.7829 205.655 9
-4 4 -3 -139.242 74.0592 4
4 -4 -4 642.319 837.544 7
-4 4 -4 3298 783.479 4
4 -4 -4 3366.4 687.953 13
4 -4 4 4323.36 824.522 13
4 -4 -4 3194.86 709.906 17
-4 4 4 4001.03 824.629 12
-4 4 4 4419.9 833.49 2
-4 4 -4 3743.58 730.104 1
4 -4 4 4221.11 885.038 3
-4 4 4 3875.77 863.692 10
4 -4 -4 4622.59 927.947 5
4 -4 4 3537.56 822.173 9
4 -4 -4 4070.16 864.386 8
-4 4 5 4.30567 40.8523 12
-4 4 5 -122.472 80.3499 2
-4 4 -5 -34.7251 283.25 1
4 -4 5 515.382 444.31 3
-4 4 -5 28.9312 305.315 4
-4 4 5 150.631 323.458 10
4 -4 -5 -11.8211 32.245 7
4 -4 -5 17.8451 116.001 8
4 -4 -5 -0.28123 209.356 5
4 -4 5 88.6477 221.882 9
4 -4 -5 81.1687 286.999 17
-4 4 -6 -477.456 488.421 4
4 -4 -6 -18.0494 393.624 7
4 -4 -6 -19.422 319.098 8
-4 4 6 550.384 554.917 2
4 -4 6 129.51 310.862 3
-4 4 6 329.316 345.249 10
-4 4 -6 122.283 169.512 1
4 -4 -6 21.6812 543.198 5
4 -4 6 -35.4724 230.941 9
-4 4 -7 -11.6259 76.6989 4
-4 4 7 280.207 393.421 2
-4 4 7 675.535 455.848 10
4 -4 -7 93.7755 624.025 5
4 -4 -7 63.498 318.208 8
5 0 2 49916.3 2649.63 9
-5 0 -2 52320.2 2716.73 4
-5 0 -3 3767.95 702.537 1
-5 0 -3 3864.61 791.588 15
-5 0 -3 3431.72 603.115 6
0 5 3 3340.69 666.029 12
0 -5 -3 3821.7 615.857 1
5 0 3 3186.4 696.409 9
0 5 3 4207.46 775.142 2
-5 0 -3 4064.38 799.414 4
0 -5 -3 4102.39 774.796 8
0 -5 -4 -22.7063 78.732 1
-5 0 -4 61.845 134.48 1
-5 0 -4 2.20642 95.143 4
-5 0 -4 253.683 202.429 6
0 5 4 388.373 271.209 12
5 0 4 458.729 339.652 11
5 0 4 99.8358 86.8073 9
0 -5 -4 -108.545 237.229 6
0 5 4 -3.18148 113.98 2
0 -5 -4 113.12 158.295 8
-5 0 -5 1075.92 426.79 4
0 -5 -5 1030.68 481.44 6
-5 0 -5 1071.64 399.685 6
-5 0 -5 585.901 242.68 1
5 0 5 1561.2 551.178 11
5 0 5 1087.48 469.194 9
0 5 5 435.189 234.94 2
0 -5 -5 169.176 418.801 8
0 -5 -6 5039.26 990.576 6
-5 0 -6 5784.99 1088.22 6
0 5 6 6571.8 1094.39 11
5 0 6 6238.3 1166.93 11
-5 0 -6 5729.15 1151.02 1
5 0 6 5572.24 1082.08 9
-5 0 -6 6972.02 1189.79 4
0 -5 -6 8608.69 1265.94 8
0 5 6 3736.73 936.875 2
0 5 6 5987.98 1098.57 16
0 5 7 -77.3866 39.8892 2
0 -5 -7 191.064 398.951 6
-5 0 -7 -93.9181 198.177 6
0 5 7 264.409 197.646 11
5 0 7 369.621 318.482 11
0 -5 -7 114.286 265.086 7
-5 0 -7 239.07 250.296 1
5 0 7 686.145 491.313 9
-5 1 0 6856.46 779.731 14
5 -1 0 8950.79 1066.75 13
-1 5 0 6685.97 945.974 12
1 -5 0 7892.85 1002.55 17
-5 1 0 7107.12 891.74 10
5 -1 0 6492.78 867.132 9
-5 1 0 6595.47 877.322 4
-5 1 1 4175.31 666.232 14
-5 1 -1 4164.95 511.105 14
5 -1 -1 4713.2 787.023 13
5 -1 1 5869.23 873.043 13
-1 5 1 3923.63 731.385 12
-5 1 -1 3876.34 614.121 10
-5 1 1 3885.87 708.062 10
-5 1 -1 4004.69 568.164 1
5 -1 -1 4465.59 757.43 5
-1 5 1 4455.61 673.636 2
5 -1 -1 4374.64 663.383 9
5 -1 1 3554.46 673.568 9
-5 1 1 3807.5 642.852 4
-5 1 -1 4355 740.119 4
1 -5 -1 4802.3 798.62 8
1 -5 -1 5605.71 848.923 17
-5 1 -2 3046.74 680.082 15
-5 1 -2 2399.06 515.505 1
-5 1 2 2365.7 542.139 14
5 -1 2 3118.65 637.652 13
5 -1 -2 2681.53 649.437 18
1 -5 -2 2574.86 581.092 17
-1 5 2 2513.23 577.024 12
-5 1 -2 2349.78 443.804 10
-5 1 2 2907.38 639.876 10
5 -1 2 2256.8 568.54 9
5 -1 -2 2965.22 598.546 5
-1 5 2 2403.75 550.265 2
-5 1 -2 2926.93 649.003 4
1 -5 -2 2379.13 600.069 8
-5 1 3 2652.88 639.573 14
5 -1 3 3453.46 653.818 13
-5 1 -3 3508.48 678.096 1
1 -5 -3 3226.36 604.251 6
-5 1 -3 3093.76 552.285 6
-1 5 3 3396.17 683.003 12
5 -1 3 3084.3 598.272 11
-1 5 3 3945.97 797.121 10
-5 1 3 2661.72 642.363 10
5 1 3 3075.77 716.984 9
5 -1 3 2922.17 661.25 9
5 -1 -3 3409.8 724.469 5
-1 5 3 3003.83 631.576 2
5 -1 -3 3055.42 714.682 18
-5 1 -3 3335.58 724.684 4
1 -5 -3 4332.96 808.495 8
1 -5 -3 3338.35 672.919 17
5 -1 4 16362.5 1442.86 13
-5 1 -4 16165.1 1450.82 6
-1 5 4 13755.1 1432.66 12
-1 -5 -4 12879.2 1456.87 6
-5 -1 -4 15750.7 1558.98 6
1 -5 -4 14516.4 1435.33 6
5 -1 4 19059.6 1674.99 11
-1 5 4 17888.6 1751.24 10
-5 1 4 15122.8 1651.55 10
5 -1 -4 16525 1708 5
-1 -5 -4 14568.1 1454.54 1
-5 -1 -4 14687.3 1569.48 1
5 1 4 16479.3 1457.21 2
5 1 4 13847.8 1547.92 9
1 5 4 14757.9 1639.63 2
-5 1 -4 15576.8 1591.57 1
5 -1 4 13349 1561.62 9
-1 5 4 14419.7 1543.57 2
5 -1 -4 15784.1 1705.5 18
-5 -1 -4 14599.6 1534.91 4
-5 1 -4 14980.2 1600.81 4
1 -5 -4 17938.1 1750.65 8
1 -5 -4 15753.8 1494.65 17
1 -5 -5 241.04 419.673 8
-1 5 5 39.8258 721.914 2
-5 -1 -5 189.657 66.9869 1
5 -1 -5 115.434 270.408 7
-1 -5 -5 563.199 297.334 6
-5 -1 -5 552.949 390.244 6
1 -5 -5 1133.73 440.129 6
-5 1 -5 482.258 284.703 6
5 1 5 552.896 381.123 11
5 -1 5 277.278 230.046 11
-1 5 5 410.69 229.12 10
-5 1 -5 417.614 334.31 1
-1 -5 -5 772.638 397.078 1
-5 1 -5 631.635 331.842 4
-5 1 5 970.332 384.093 10
5 -1 5 289.47 218.63 9
1 5 5 180.367 77.0477 2
-5 -1 -5 632.03 448.577 4
5 -1 -5 548.696 343.793 18
-1 5 5 566.555 329.125 16
-5 1 -6 540.675 194.344 4
-1 5 6 566.61 380.326 2
1 -5 -6 838.878 479.585 7
5 -1 -6 -49.8566 417.567 7
-1 -5 -6 570.92 65.5055 6
-5 -1 -6 926.817 431.342 6
1 -5 -6 546.489 381.315 6
-1 -5 -6 588.839 327.555 1
-5 -1 -6 590.835 396.804 1
-5 1 -6 711.848 357.738 6
5 1 6 692.858 434.79 11
5 -1 6 930.019 432.846 11
-1 5 6 1241.31 589.098 10
1 -5 -6 16.4679 237.991 5
-5 1 6 1241.69 404.517 10
-5 1 -6 380.007 192.103 1
5 1 6 1007.21 489.291 9
5 -1 6 968.481 525.598 9
1 5 6 978.853 517.771 2
-5 -1 -6 472.467 222.639 4
1 -5 -6 430.419 470.991 8
-5 1 -7 533.777 371.522 4
1 -5 -7 344.463 525.531 7
-1 5 7 384.505 418.506 2
-1 -5 -7 281.734 131.33 6
-5 -1 -7 23.3943 167.869 6
1 5 7 439.096 332.278 11
1 -5 -7 557.858 406.448 6
5 1 7 698.497 481.766 11
5 -1 7 506.481 88.3395 11
-5 -1 -7 143.095 156.64 1
5 1 7 566.01 316.715 9
5 -1 7 315.905 401.267 9
-5 1 -7 519.588 247.914 1
1 5 7 32.2068 177.514 2
-5 2 0 -15.8634 114.585 14
2 -5 0 -176.717 171.173 8
5 -2 0 -4.01788 105.657 13
-5 2 0 -430.048 280.166 12
2 -5 0 21.7922 112.789 17
-2 5 0 -92.853 85.3251 4
-2 5 0 272.619 242.736 12
2 -5 0 83.7875 182.888 3
-5 2 0 -141.215 131.053 4
-5 2 0 119.964 197.726 10
5 -2 0 -227.217 197.415 9
5 -2 0 108.117 147.845 5
-2 5 0 -29.1015 28.1188 2
5 -2 0 28.6152 99.4659 18
-5 2 1 44980.9 2315.91 14
5 -2 -1 56040.4 2801.19 13
5 -2 1 53771.3 2743.47 13
-5 2 1 55320.3 2799.89 12
-5 2 -1 51796.5 2593.39 12
-5 2 -1 48375.8 2243.92 10
-5 2 1 44294 2456.05 10
5 -2 -1 52467.8 2678.42 5
5 -2 1 48267.6 2246.26 5
5 -2 -1 43933 2129.27 9
5 -2 1 48466 2512.22 9
-5 2 1 45887.2 2268.85 4
5 -2 -1 46836.8 2448.22 18
5 -2 -2 -325.772 223.069 13
5 -2 2 -251.748 144.526 13
5 -2 -2 -303.459 228.343 7
-5 2 2 85.5627 13.0705 12
-5 2 -2 -89.6211 116.121 12
2 -5 2 -168.31 141.258 17
-2 5 -2 -13.3005 141.428 4
-5 2 -2 93.1704 79.989 1
-2 5 2 -187.364 184.083 12
-2 5 -2 366.012 230.03 12
2 -5 2 175.594 85.9837 11
-2 5 2 -71.6209 97.0905 10
2 -5 2 261.32 240.969 3
-5 2 -2 62.6507 134.261 10
-5 2 2 119.727 128.03 10
5 -2 -2 -25.5814 105.166 9
5 -2 -2 -120.056 126.743 5
-5 2 2 -174.805 53.919 14
5 -2 2 -176.248 214.651 9
2 -5 2 53.8221 110.744 9
-2 5 2 -90.3324 56.9734 2
-5 2 2 128.248 175.161 4
5 -2 -2 76.8821 174.665 18
2 -5 -2 280.405 142.587 17
-5 2 -2 155.1 22.7518 4
2 -5 -2 -95.6423 178.534 8
5 -2 3 4198.68 767.848 13
-5 2 -3 4995.15 754.863 12
2 -5 -3 4187.51 798.786 17
-2 5 3 3995.67 778.685 12
-2 5 -3 3842.65 689.734 12
5 -2 3 4677.86 744.769 11
2 -5 3 4759.97 885.493 3
2 -5 3 3716.82 675.763 11
-2 5 -3 4148.64 816.48 4
-2 5 3 4476.76 864.937 10
-5 2 -3 4203.85 847.772 4
-2 5 3 3980.16 759.562 2
-5 2 -3 4118.02 714.595 1
5 -2 3 3152.07 713.336 9
2 -5 3 3841.45 795.289 9
2 -5 -3 4296.57 850.241 8
-5 2 4 112.369 126.607 14
5 -2 4 -235.764 120.24 13
5 -2 -4 310.442 294.185 7
-2 5 -4 -242.622 224.54 4
-2 5 4 341.407 279.745 12
5 -2 4 85.4831 104.497 11
2 -5 4 37.5499 217.156 11
-2 5 4 -185.197 186.033 10
2 -5 4 83.5154 101.489 3
-5 2 -4 31.4974 190.087 1
-5 2 4 -85.8854 119.457 10
5 -2 -4 121.452 204.976 5
5 -2 4 36.4106 131.748 9
-5 2 -4 -24.1368 283.86 4
2 -5 4 22.3361 158.591 9
5 -2 -4 -349.949 185.247 18
2 -5 -4 -2.88782 61.6493 8
2 -5 -4 -121.829 167.913 17
-2 5 4 -63.5386 245 2
-5 2 -5 1216.69 410.121 4
-5 2 5 2303.2 731.479 14
2 -5 -5 405.693 611.879 7
-5 -2 -5 1894.18 569.288 1
5 -2 -5 1567.71 506.672 18
-5 -2 -5 1944.08 602.865 6
-2 5 -5 1687.51 600.183 4
5 -2 5 2222.11 631.958 11
2 -5 5 1527.68 509.757 11
2 -5 5 2153.14 648.259 3
-5 2 5 2326.16 701.318 10
5 2 5 2129.42 642.558 9
5 -2 -5 2784.15 750.303 5
5 -2 5 3229.01 835.753 9
5 -2 -5 -91.2318 495.669 7
-5 2 -5 2552.12 701.035 1
2 -5 5 3110.9 807.682 9
5 2 5 2121.73 591.754 2
-5 -2 -5 1576.29 489.833 4
2 -5 -5 525.535 777.59 8
-5 2 6 400.851 394.321 14
-5 2 -6 573.48 425.486 4
2 -5 -6 -61.4786 334.204 7
-2 5 6 -46.3273 317.028 2
5 -2 -6 2.56562 224.995 7
-2 -5 -6 286.388 245.042 1
-5 -2 -6 -289.201 259.133 1
2 -5 -6 41.9383 260.003 8
-2 -5 -6 -137.395 184.342 6
-5 -2 -6 19.3063 465.326 6
5 2 6 -3.19814 819.426 11
5 -2 6 390.05 419.055 11
5 -2 6 125.136 333.486 3
2 -5 6 140.562 122.876 11
-2 5 6 53.66 221.211 10
-5 2 6 926.484 570.369 10
2 -5 -6 146.675 173.669 5
5 2 6 204.757 255.013 9
5 -2 -6 -837.729 428.426 5
5 -2 6 187.863 182.993 9
2 -5 6 -70.1185 325.794 9
2 5 6 168.336 84.4285 2
-5 2 -6 604.58 439.678 1
5 -2 -6 571.073 387.922 18
-5 2 7 1375.94 610.246 14
2 5 7 1030.85 421.952 2
2 -5 -7 227.513 504.714 8
-5 2 -7 2102.58 718.133 4
5 -2 -7 525.278 771.15 7
-2 5 7 1061.4 695.451 2
-2 -5 -7 1013.78 445.692 6
-5 -2 -7 1952.72 719.906 6
-5 2 -7 1153.46 590.62 1
5 2 7 1383.71 574.848 11
5 -2 7 1538.48 557.207 11
-2 -5 -7 1513.54 570.249 1
-5 -2 -7 1216.17 614.492 1
5 -2 7 1442.76 539.565 3
2 -5 7 1470.01 658.872 11
-5 2 7 1352.97 534.002 10
5 -2 -7 1387.29 709.519 18
5 -2 7 761.958 313.46 9
-5 3 0 256.147 115.146 15
-5 3 0 202.934 145.7 4
5 -3 0 226.637 208.961 13
-3 5 0 31.5556 170.447 4
3 -5 0 361.117 254.345 8
-5 3 0 329.299 211.137 12
-3 5 0 277.399 180.395 12
3 -5 0 124.161 59.5479 3
-3 5 0 252.411 230.875 10
-5 3 0 238.247 182.228 10
5 -3 0 218.84 94.0365 5
5 -3 0 193.871 175.714 9
3 -5 0 36.8486 21.0178 9
3 -5 0 735.097 364.675 17
-5 3 1 10634.4 1174.13 14
5 -3 -1 11061.1 1039.62 7
5 -3 -1 10729 1254.86 13
5 -3 1 12062.8 1355.18 13
-5 3 1 10990.7 1309.06 12
-5 3 -1 11455 1296.23 12
-3 5 1 11490.2 1337.12 12
-3 5 -1 9834.94 1216.74 12
3 -5 1 9863.71 1182.4 3
3 -5 -1 11766.7 1086.66 3
-3 5 1 13424.3 1392.47 10
-5 3 -1 9949.24 1079.06 10
-5 3 1 9947.74 1196.95 10
5 -3 -1 11690.1 1301.01 5
5 -3 1 10637.3 1113.47 5
5 -3 -1 9746.28 991.854 9
5 -3 1 10167.6 1204.14 9
3 -5 1 12565.7 1280.25 9
3 -5 -1 11447.8 1043.18 9
-5 3 1 9346.29 1080.83 4
-5 3 -1 10131.9 1242.3 4
5 -3 1 10074.1 1064.68 8
-3 5 1 10492.1 1064.29 4
3 -5 -1 10648.1 1249.24 8
3 -5 1 11054.2 1146.81 8
3 -5 -1 10960.1 1298.97 17
3 -5 1 12956.6 1431.14 17
-5 3 1 11655.6 1138.84 15
-5 3 2 1686.34 522.547 14
5 -3 -2 1972.83 537.619 13
5 -3 2 2394.8 603.054 13
5 -3 -2 1800.21 482.52 7
-3 5 -2 2135.81 540.181 4
-5 3 2 1863.44 553.54 12
-5 3 -2 2263.37 533.619 12
-3 5 2 1764.88 548.399 12
-3 5 -2 1703.93 512.63 12
3 -5 2 2058.15 569.325 3
5 -3 2 1499.33 412.895 17
-3 5 2 1423.23 497.02 10
-5 3 2 1603.58 524.198 10
5 -3 -2 1793.77 530.36 5
5 -3 2 1452.2 449.667 9
3 -5 2 2331.69 616.758 9
3 -5 -2 1696.37 544.356 8
-5 3 2 1413.59 402.4 4
3 -5 -2 2128.38 626.353 17
3 -5 2 2042.87 498.584 17
-5 3 -2 2051.85 551.478 4
-3 5 2 2026.25 466.657 2
-5 3 3 6256.93 1029.23 14
5 -3 -3 7649.71 1102.75 7
5 -3 -3 9346.64 1210.62 13
-5 3 3 7531.93 1135.3 12
-3 5 3 7422.87 1095.37 12
-3 5 -3 7836.98 1054.61 12
3 -5 3 7809.93 1180.78 3
-3 5 3 8655.37 1248.68 10
-5 3 3 6872 1090.84 10
3 -5 -3 8167.7 1234.34 5
5 -3 -3 8625.19 1267.93 5
3 -5 -3 6767.12 1001.67 13
3 -5 3 8820.78 1254.72 9
-3 5 3 8105.99 1053.97 2
-3 5 -3 7574.98 1160.33 4
3 -5 -3 8462.92 1216.97 8
3 -5 3 8548.26 1088.38 17
3 -5 -3 8631.8 1194.59 17
-5 3 -4 3309.71 808.424 4
-5 3 4 2490.28 698.171 14
3 -5 -4 748.597 749.665 7
5 -3 -4 3716.61 770.909 13
-3 5 4 2301.51 622.949 2
-5 3 -4 2461.47 606.113 1
3 -5 -4 2320.21 649.17 8
5 -3 4 3211.37 662.364 13
5 -3 -4 673.549 722.25 7
-5 3 4 2907.74 744.384 12
-3 5 -4 2622.94 732.035 4
-3 5 4 3070.75 691.083 12
3 -5 4 2940.4 748.852 3
-3 5 4 2943.11 743.329 10
3 -5 -4 2042.37 639.106 5
-5 3 4 2550.48 675.287 10
5 -3 -4 3364.32 877.677 5
5 -3 4 2197.23 610.653 9
3 -5 4 3410.6 786.067 9
3 -5 -4 2290.7 612.399 17
-5 3 5 1353.6 586.036 14
-5 3 -5 1072.86 494.439 4
3 -5 -5 115.724 477.169 7
5 -3 -5 149.608 470.046 7
-3 5 5 1608.37 628.446 2
-3 5 -5 1906.74 581.997 4
-3 5 5 2070 620.022 12
-5 3 -5 1546.87 553.941 1
5 -3 5 1180.84 397.599 3
-3 5 5 1581.95 603.619 10
3 -5 5 2002.79 655.006 3
-3 5 -5 1607.88 564.039 1
-5 3 5 1642.66 642.009 10
3 -5 -5 115.301 598.655 5
5 -3 -5 201.674 651.361 5
5 -3 5 1496.49 609.128 9
3 -5 5 1761.47 601.759 9
3 -5 -5 167.434 646.714 8
3 -5 -5 1479.35 476.26 17
-5 3 6 -20.9614 168.587 14
3 -5 -6 140.411 416.761 7
5 -3 -6 40.5948 410.282 7
-3 5 -6 700.651 406.84 1
-3 5 6 43.5822 226.553 2
-3 5 -6 134.356 187.465 4
5 -3 6 600.89 415.7 3
-5 3 -6 295.694 157.372 1
-3 5 6 934.391 498.384 10
3 -5 6 451.805 263.85 3
-5 3 6 330.63 206.547 10
3 -5 -6 3.74135 152.941 5
5 -3 -6 -2.87889 402.282 5
5 -3 6 286.815 296.234 9
3 -5 6 859.029 514.502 9
5 -3 -6 -27.7708 329.051 8
5 -3 -6 -203.35 395.285 18
3 -5 -6 50.2188 382.562 8
-5 3 -6 535.092 318.68 4
-5 3 -7 770.14 333.658 4
3 -5 -7 51.9303 118.252 8
-3 5 -7 377.287 76.2908 4
-3 5 -7 884.403 466.458 1
5 -3 7 482.387 346.045 3
-3 5 7 1156.56 581.075 10
-5 3 7 -138.234 348.856 10
3 -5 -7 0.68049 163.067 5
5 -3 -7 229.336 587.455 5
-5 3 -7 477.475 102.022 1
5 -3 -7 -197.919 226.657 8
-5 4 0 246.691 175.968 4
4 -5 0 -40.1168 96.3936 8
5 -4 0 191.242 194.606 13
-4 5 0 51.4055 165.912 4
-5 4 0 107.543 203.724 12
-4 5 0 -187.216 193.397 12
4 -5 0 63.7778 70.0141 3
-4 5 0 -234.626 221.176 10
-5 4 0 86.5012 150.156 10
4 -5 0 -144.698 156.204 5
5 -4 0 -326.273 256.415 5
5 -4 0 -62.1995 180.415 9
4 -5 0 -67.5531 227.402 9
5 -4 0 273.851 300.87 8
4 -5 0 -303.176 256.754 17
5 -4 0 -42.6853 135.617 17
-5 4 1 2312.54 598.645 4
-5 4 -1 2938.99 659.199 4
4 -5 -1 2074.62 575.925 17
5 -4 -1 2191.62 648.166 17
5 -4 -1 2337.65 633.177 13
-4 5 -1 2584.5 632.329 4
5 -4 1 1772.1 579.676 13
4 -5 -1 2380.72 611.013 13
-4 5 1 1566.76 502.55 4
-5 4 1 2816 708.41 12
-5 4 -1 1565.25 551.102 12
5 -4 1 2533.86 628.749 17
4 -5 1 2831.55 710.604 17
-4 5 1 2656.13 677.164 12
-4 5 -1 2185 559.456 12
4 -5 -1 2582 563.709 3
4 -5 1 2117.7 550.879 3
-4 5 -1 2018.94 483.088 10
-4 5 1 2158.2 579.453 10
-5 4 -1 2737.57 577.441 10
4 -5 1 2022.86 541.905 5
-5 4 1 2313.03 618.17 10
4 -5 -1 2178.92 556.74 5
5 -4 -1 2911.77 697.436 5
5 -4 1 2672.98 594.996 5
5 -4 1 2089.45 544.805 9
4 -5 1 2452.07 602.912 9
5 -4 -1 2064.15 556.487 8
5 -4 1 2123.67 527.696 8
4 -5 -1 2344.34 637.623 8
4 -5 1 2440.91 564.329 8
4 -5 -2 13016.5 1351.36 7
5 -4 -2 14894.8 1413.81 7
5 -4 -2 16231.2 1690.9 13
5 -4 2 16501.6 1702.08 13
4 -5 -2 15329.3 1634.01 13
-5 4 2 14978 1668.51 12
-5 4 -2 16959.3 1627.66 12
-4 5 2 15502.9 1678.79 12
-4 5 -2 14615.2 1544.15 12
4 -5 2 15866.2 1658.76 3
-4 5 2 15522.9 1661.13 10
-5 4 2 16538.7 1736.92 10
4 -5 -2 14719.4 1652.63 5
5 -4 -2 15658.3 1661.8 5
5 -4 2 13854.5 1526.97 9
4 -5 2 14849.6 1591.13 9
-5 4 -2 15959 1656.55 4
-4 5 -2 13681.8 1554.63 4
5 -4 -2 16107.3 1704.76 8
4 -5 -2 16173.6 1700.7 8
5 -4 -2 14545.5 1631.5 17
5 -4 2 16563.6 1605.39 17
4 -5 -2 15149.5 1667.32 17
-5 4 -3 847.543 261.489 4
4 -5 -3 1224.42 505.567 7
5 -4 -3 733.935 406.046 13
5 -4 -3 421.895 220.909 7
5 -4 3 791.866 303.578 13
4 -5 -3 496.236 270.251 13
-4 5 -3 877.992 432.452 4
-5 4 3 405.135 235.148 12
-5 4 -3 599.686 232.666 12
-4 5 3 790.501 386.605 12
-4 5 -3 786.926 308.525 12
5 -4 3 709.004 372.874 3
4 -5 3 1140.43 419.199 3
-4 5 3 507.324 319.372 10
-5 4 3 696.249 365.416 10
4 -5 -3 -159.704 218.657 5
5 -4 -3 1418.19 538.966 5
5 -4 3 772.093 330.916 9
4 -5 3 786.072 368.55 9
5 -4 -3 892.422 435.855 8
4 -5 -3 1414.29 522.291 8
5 -4 -3 1432.44 518.087 17
4 -5 -3 1096.12 450.488 17
5 -4 3 788.66 335.921 17
4 -5 3 769.725 274.777 17
-5 4 -4 -78.0436 58.4958 4
4 -5 -4 11.4613 117.28 7
5 -4 -4 -25.2914 98.4437 13
5 -4 -4 8.98366 195.919 7
5 -4 4 17.7492 142.324 13
-4 5 -4 -7.17792 257.376 4
-5 4 4 -56.0201 108.408 12
-4 5 4 585.738 339.601 12
-4 5 4 -10.5555 151.493 2
5 -4 4 -45.606 146.55 3
-5 4 4 35.8317 140.348 2
4 -5 4 105.394 254.611 3
-4 5 4 137.074 229.794 10
-5 4 4 -160.768 258.516 10
4 -5 -4 -18.5402 219.752 5
5 -4 -4 -128.514 328.915 5
5 -4 4 -41.4866 277.709 9
4 -5 4 3.14054 273.663 9
5 -4 -4 -180.913 140.42 8
5 -4 -4 63.7833 120.077 17
4 -5 -4 92.4172 129.479 17
-5 4 -5 614.402 392.604 4
5 -4 -5 61.1246 232.123 7
-4 5 -5 231.056 336.489 4
-5 4 5 529.639 403.283 12
-4 5 5 479.225 337.623 12
-4 5 5 44.404 265.936 2
5 -4 5 354.384 91.791 3
-5 4 5 135.287 136.145 2
4 -5 5 794.408 486.704 3
-4 5 5 -141.636 294.779 10
-5 4 5 162.491 150.682 10
4 -5 -5 1.87376 364.867 5
5 -4 -5 -36.7976 145.126 5
5 -4 5 482.98 329.758 9
4 -5 5 1060.95 555.389 9
5 -4 -5 1.57919 282.736 8
4 -5 -5 74.1856 330.348 7
4 -5 -5 26.383 138.326 8
5 -4 -5 249.805 211.407 17
4 -5 -5 464.324 364.658 17
4 -5 -6 640.982 843.402 7
-5 4 -6 1641.7 587.265 4
5 -4 -6 213.943 692.205 7
-4 5 -6 1851.11 751.909 4
-4 5 6 978.963 622.987 2
5 -4 6 3082.95 920.99 3
-5 4 6 2503.04 875.994 2
4 -5 6 2646.49 852.649 3
-4 5 6 2081.56 733.122 10
-5 4 6 2640.86 841.328 10
4 -5 -6 32.444 575.698 5
5 -4 -6 57.2699 809.489 5
4 -5 -6 104.491 593.578 8
5 -4 6 3463.54 997.615 9
4 -5 6 1880.09 742.442 9
5 -4 -6 29.2169 688.979 8
5 -5 0 7290.76 1216.02 13
-5 5 0 8024.11 1239.58 12
5 -5 0 8189.54 1164.13 3
-5 5 0 7921.49 1155.01 10
5 -5 0 6642.14 1040.95 5
5 -5 0 8631.23 1102.14 9
-5 5 0 5721.94 1124.28 4
5 -5 0 8168.35 1177.53 8
5 -5 0 9132.77 1323.54 17
-5 5 -1 -7.25129 93.6879 4
-5 5 1 -31.6161 112.744 4
5 -5 -1 -343.25 128.164 13
5 -5 1 380.824 247.396 13
5 -5 1 97.748 162.567 17
-5 5 1 -203.155 220.498 12
-5 5 -1 -120.768 144.647 12
5 -5 1 -290.41 194.682 3
5 -5 1 312.764 322.037 8
-5 5 -1 -118.954 63.8486 10
-5 5 1 64.5371 207.076 10
5 -5 1 320.112 287.725 5
5 -5 -1 -120.701 85.3342 5
5 -5 1 464.227 321.103 9
5 -5 -1 -162.447 160.907 8
5 -5 -1 651.728 400.001 17
-5 5 -2 399.012 173.085 4
5 -5 -2 636.608 331.666 13
5 -5 2 -1.56768 236.436 13
-5 5 2 374.37 369.955 12
-5 5 -2 206.856 108.585 12
5 -5 2 247.866 102.047 3
-5 5 2 757.01 451.504 10
5 -5 -2 558.224 392.784 5
5 -5 2 294.624 341.399 9
5 -5 -2 65.5002 181.62 8
5 -5 -2 162.712 185.135 17
5 -5 2 1041.06 429.027 17
5 -5 -3 -74.9335 113.989 7
-5 5 -3 404.953 395.111 4
5 -5 -3 -321.27 290.395 13
5 -5 -3 144.592 253.421 17
5 -5 3 367.672 60.9589 13
-5 5 3 -200.318 232.69 12
-5 5 -3 -59.1775 164.039 12
5 -5 3 -557.62 365.922 3
-5 5 3 146.081 109.078 10
5 -5 -3 -0.57791 252.959 5
5 -5 3 125.342 399.206 9
5 -5 -3 344.908 366.188 8
5 -5 3 270.505 265.059 17
5 -5 -4 2281.78 1267.53 7
5 -5 -4 9255.17 1303.74 13
5 -5 4 7519.95 1216.86 13
-5 5 4 7864.97 1262.71 12
5 -5 4 7927.28 1427.57 3
5 -5 -4 9570.62 1483.89 5
-5 5 4 7911.62 1339.56 10
5 -5 4 8693.11 1466.05 9
-5 5 -4 8071.05 1403.1 4
5 -5 -4 8451.06 1389.91 8
5 -5 -4 8305.63 1343.32 17
5 -5 -5 -472.445 492.165 7
-5 5 -5 -1381.02 797.417 4
-5 5 5 323.143 205.695 12
5 -5 5 1266.89 1052.37 3
-5 5 5 -106.916 379.448 10
5 -5 -5 20.3253 230.697 5
5 -5 5 -526.164 989.075 9
5 -5 -5 124.393 408.744 8
5 -5 -5 485.296 254.913 17
6 0 2 1936.51 573.629 9
-6 0 -3 5809.45 960.885 1
6 0 3 5382.42 1003.84 9
-6 0 -3 6416.42 1071.78 4
-6 0 -4 125.492 116.639 1
0 -6 -4 -57.2389 92.6873 6
-6 0 -4 55.353 202.651 6
0 6 4 49.0503 89.8579 12
6 0 4 -79.5282 193.076 9
0 6 4 140.646 121.679 2
-6 0 -4 -207.085 199.452 4
-6 0 -5 1545.51 540.237 1
0 -6 -5 1464.01 546.981 6
-6 0 -5 1550.93 556.028 6
6 0 5 2138.47 640.508 11
6 0 5 1342.77 586.635 9
0 6 5 1024.94 548.34 2
-6 0 -5 1475.37 571.39 4
0 -6 -6 350.672 295.428 6
6 0 6 -86.6563 88.8382 11
-6 0 -6 147.574 354.568 1
6 0 6 -494.656 348.983 9
0 6 6 -185.923 340.218 2
-6 0 -6 383.545 310.203 4
0 -6 -7 1313.37 664.817 6
6 0 7 296.517 192.697 11
6 0 7 472.299 409.793 9
-6 1 0 -97.1723 133.549 14
6 -1 0 3.58839 156.619 13
6 -1 0 39.3514 151.335 9
-6 1 0 139.057 173.16 4
-6 1 1 8022.97 1023.14 14
6 -1 1 11144.9 1328.38 13
-6 1 -1 9468.89 1076.17 10
-6 1 -1 8873.59 957.384 1
6 -1 1 8888.6 1171.33 9
-6 1 -1 8750.47 1162.41 4
6 -1 2 1049.72 368.632 13
-1 6 2 575.28 265.766 12
6 -1 2 700.034 316.595 9
-1 6 2 757.169 285.279 2
-6 1 -2 689.73 353.131 4
1 -6 -2 611.08 239.159 8
-6 1 -2 644.711 296.385 1
-6 1 -3 -22.778 145.697 1
1 -6 -3 182.013 100.985 6
-1 6 3 -91.787 65.9012 12
6 -1 3 -434.162 340.763 9
-1 6 3 -363.771 319.909 2
-6 1 -3 91.4589 159.349 4
1 -6 -3 -187.633 278.782 8
1 -6 -4 19.3231 98.0058 8
1 -6 -4 -282.136 231.814 6
-1 6 4 52.2963 203.315 12
-6 1 -4 -221.045 261.589 1
6 -1 4 -247.48 399.847 9
-1 6 4 9.49524 164.589 2
-6 1 -4 326.053 290.431 4
-6 -1 -5 46.5401 124.112 4
-6 1 -5 227.068 64.9282 4
-6 -1 -5 -191.508 119.811 1
1 -6 -5 35.6168 358.889 8
-6 -1 -5 51.439 115.3 6
6 -1 5 454.836 361.161 11
-6 1 -5 250.743 195.01 1
6 1 5 341.21 130.705 9
6 -1 5 481.634 287.171 9
-1 6 5 -386.77 277.343 2
-1 6 6 119.225 248.859 2
-1 -6 -6 664.391 435.293 6
-6 -1 -6 357.415 285.757 6
-6 -1 -6 -136.753 29.0488 1
6 -1 6 212.112 243.493 11
1 -6 -6 79.6963 210.866 5
-6 1 -6 42.935 280.896 1
-6 -1 -6 597.011 491.205 4
6 1 6 162.172 273.141 9
6 -1 6 140.779 170.463 9
1 6 6 158.32 370.417 2
1 -6 -6 125.361 330.779 8
-6 1 -6 308.58 304.1 4
-6 1 -7 318.322 185.546 4
-6 -1 -7 680.213 497.749 6
6 -1 7 165.649 225.728 11
6 1 7 37.8362 311.902 9
-6 2 0 8117.83 937.288 14
6 -2 0 8500.34 1200.95 13
-2 6 0 6520.97 1012.72 12
-6 2 0 6887.56 970.351 10
6 -2 0 7044.01 1020.78 5
6 -2 0 7069.88 1008.79 9
-6 2 0 5156.39 1079.48 4
2 -6 0 10457.5 1275.15 8
2 -6 0 8661.8 1226.68 17
-6 2 -1 229.787 196.625 15
-6 2 1 409.555 140.282 14
6 -2 -1 709.655 313.94 13
6 -2 1 381.23 147.415 13
-2 6 1 292.633 244.958 12
-2 6 -1 454.232 224.182 12
2 -6 1 208.522 242.258 3
-6 2 -1 446.658 256.622 10
-6 2 1 403.519 289.225 10
6 -2 -1 545.99 307.396 9
6 -2 1 577.546 272.302 9
6 -2 -1 255.649 194.188 5
-2 6 1 363.079 100.947 2
-6 2 1 96.1793 215.237 4
-6 2 -1 91.3391 171.095 4
6 -2 -1 418.921 228.509 18
2 -6 -1 533.741 296.926 17
2 -6 1 573.127 346.259 17
2 -6 -1 509.951 270.976 8
-6 2 -2 942.055 478.835 15
-6 2 2 1609.97 515.419 14
6 -2 -2 1421.87 536.394 13
6 -2 2 2107.47 617.453 13
-2 6 2 1265.48 477.356 12
-2 6 -2 1089.99 417.184 12
-2 6 2 1157.79 475.378 10
2 -6 2 1567.23 520.808 3
-6 2 2 1521.6 549.039 10
6 -2 2 1650.18 562.655 9
6 -2 -2 1651.01 544.677 5
-2 6 2 1179.92 390.095 2
-6 2 2 620.892 265.113 4
6 -2 -2 1068.59 429.693 18
-6 2 -2 1866.36 632.99 4
2 -6 -2 1199.1 440.85 8
2 -6 -2 1218.2 525.311 17
-6 2 3 567.581 374.416 14
6 -2 3 195.948 151.384 13
6 -2 -3 -189.783 326.933 18
-2 6 3 518.879 295.813 2
-2 6 3 11.1561 263.031 12
-6 2 -3 38.7714 163.081 1
-2 6 3 340.133 321.325 10
-6 2 3 615.733 357.475 10
6 -2 3 -111.624 142.029 9
6 -2 -3 619.514 288.99 5
-6 2 -3 59.135 52.4171 4
2 -6 -3 827.934 460.851 8
2 -6 -3 240.022 222.655 17
-6 2 4 8201.19 1288.89 14
6 -2 4 11783 1391.91 13
-2 6 4 9045.19 1294.5 12
-2 6 4 10942.5 1558.21 10
-6 2 4 10232.5 1512.42 10
6 -2 -4 10170.2 1448.23 5
6 -2 4 8954.31 1392.27 9
-2 6 4 10358.2 1418.27 2
-6 2 -4 8764.06 1219.2 1
-6 2 -4 9887.71 1449.72 4
2 -6 -4 12356.8 1584.57 8
6 -2 -4 10671.2 1536.12 18
2 -6 -4 10992.4 1412.08 17
-2 6 5 167.588 292.919 2
-6 2 5 -90.4663 280.966 14
6 -2 -5 65.8648 361.012 7
-2 6 5 191.848 28.1726 10
2 -6 -5 88.3511 102.646 5
-6 2 5 797.39 532.535 10
-6 2 -5 215.38 227.675 1
6 -2 5 204.347 232.632 9
6 -2 -5 1.24523 217.919 5
2 -6 -5 23.3714 325.896 8
6 -2 -5 -0.9534 369.413 18
-6 2 -5 -14.5095 191.916 4
-6 2 -6 176.968 331.341 4
6 -2 6 508.62 297.904 3
-6 2 6 644.193 478.639 10
6 -2 6 269.151 95.7015 9
-6 2 -6 192.264 287.242 1
6 -2 -6 538.324 201.535 18
2 -6 -7 57.4734 278.269 8
-6 3 0 311.952 303.21 15
6 -3 0 300.097 211.401 13
-6 3 0 91.9011 171.111 4
-6 3 0 262.831 215.182 12
-3 6 0 165.738 224.098 4
-3 6 0 -194.791 231.342 12
-3 6 0 -357.353 265.662 10
3 -6 0 322.185 233.381 3
-6 3 0 -14.0167 107.913 10
6 -3 0 57.9876 141.082 5
6 -3 0 -256.613 201.314 9
6 -3 0 -100.769 135.516 18
3 -6 0 38.5716 161.529 17
3 -6 0 36.5747 136.678 8
-6 3 -1 796.954 340.404 15
-6 3 1 955.854 373.172 14
6 -3 -1 1360.75 564.23 13
6 -3 1 605.183 244.012 13
-6 3 1 1231.14 475.96 12
-6 3 -1 674.131 332.616 12
-3 6 -1 98.8198 392.319 4
-3 6 1 1260.02 468.831 12
-3 6 -1 791.516 358.658 12
3 -6 1 1011.89 499.87 3
-3 6 1 785.284 334.411 10
-6 3 -1 983.117 399.774 10
-6 3 1 1026.55 416.225 10
6 -3 -1 914.97 346.917 5
6 -3 1 1659.49 509.923 5
6 -3 -1 1187.8 374.854 9
6 -3 1 974.396 398.477 9
6 -3 -1 1422.61 463.522 18
-6 3 1 137.266 240.984 4
-6 3 -1 921.127 427.663 4
3 -6 -1 1110.42 433.746 8
3 -6 -1 1071.9 468.04 17
3 -6 1 1022.86 416.918 17
3 -6 1 959.161 420.054 8
3 -6 -2 5513.49 1000.98 17
6 -3 -2 4552.9 820.969 7
-6 3 2 4835.64 909.86 14
6 -3 -2 5587.16 979.953 13
6 -3 2 5133.41 951.356 13
-6 3 -2 5709.15 971.823 12
-6 3 2 5270.55 993.948 12
-3 6 -2 5300.65 983.456 4
-3 6 2 4922.26 988.043 12
-3 6 -2 4466.89 872.17 12
-3 6 2 6198.77 1093.25 10
3 -6 2 5789.49 1004.44 3
6 -3 -2 5291 1011.85 5
-6 3 2 4332.87 896.509 10
3 -6 2 5497.8 975.204 9
6 -3 2 5828.45 1014.19 9
6 -3 -2 6138.06 1021.58 18
3 -6 -2 6217.52 1060.7 8
-6 3 -2 4319.71 852.958 4
3 -6 2 5488.94 957.216 17
-6 3 3 765.321 432.178 14
6 -3 -3 1012.39 432.722 13
6 -3 3 715.277 296.683 13
6 -3 3 383.307 156.347 17
6 -3 -3 165.409 488.84 7
-6 3 3 745.212 364.694 12
-3 6 -3 201.123 109.643 4
-3 6 3 293.687 84.1312 12
-3 6 -3 281.943 210.678 12
-3 6 3 655.319 362.045 10
3 -6 3 1199.48 448.682 3
-6 3 3 565.533 283.2 10
6 -3 -3 94.0336 211.274 5
6 -3 3 535.721 303.842 9
3 -6 3 500.02 296.714 9
6 -3 -3 1395.64 574.317 18
3 -6 -3 987.2 451.72 17
3 -6 -3 850.625 423.728 8
-6 3 -3 764.234 394.155 4
-6 3 -4 -228.402 138.837 4
-6 3 4 -315.816 335.576 14
3 -6 -4 -85.0656 353.177 7
-3 6 4 363.704 376.536 2
6 -3 -4 312.975 316.646 13
6 -3 4 257.127 406.264 13
6 -3 -4 52.1081 376.405 7
3 -6 -4 -375.493 346.139 8
-3 6 -4 -253.73 420.981 4
-3 6 4 216.055 298.304 12
-3 6 4 -390.42 357.557 10
3 -6 -4 -2.96601 327.4 5
-6 3 4 132.044 331.064 10
6 -3 -4 -4.79257 202.374 5
6 -3 4 -56.5835 142.57 9
3 -6 4 378.513 347.297 9
6 -3 -4 -233.032 291.321 18
3 -6 -4 88.2432 241.676 17
-6 3 -5 326.589 176.556 4
-6 3 5 283.477 392.915 14
3 -6 -5 347.815 419.248 7
-3 6 5 304.821 157.618 2
6 -3 -5 52.5037 172.948 7
-3 6 5 539.032 415.135 12
-3 6 -5 574.9 344.623 4
6 -3 5 180.536 282.24 3
-3 6 5 502.606 294.958 10
3 -6 5 206.789 170.136 3
3 -6 -5 21.9141 381.811 5
-6 3 5 770.657 460.593 10
6 -3 -5 22.3627 396.749 5
6 -3 5 1095.46 538.917 9
3 -6 5 34.0226 180.367 9
6 -3 -5 456.347 385.77 18
3 -6 -5 36.6766 346.947 8
3 -6 -5 480.096 277.483 17
-6 3 -6 888.985 628.365 4
3 -6 -6 27.0974 488.338 7
6 -3 -6 -41.3474 132.767 7
-3 6 6 668.905 350.837 2
-3 6 -6 480.406 391.781 4
6 -3 6 677.011 424.595 3
-3 6 6 947.953 498.69 10
-6 3 6 319.933 380.034 10
3 -6 -6 1.75013 172.998 5
6 -3 -6 11.5338 566.517 5
6 -3 6 -299.293 612.275 9
3 -6 -6 19.8206 374.7 8
-6 4 0 1397.91 426.058 15
6 -4 0 1738.28 581.948 13
-6 4 0 1780.6 607.627 12
-4 6 0 1084.64 449.443 12
6 -4 0 1745.58 599.676 17
4 -6 0 1571.18 502.285 3
-6 4 0 1997.51 548.379 10
6 -4 0 1940.1 578.849 5
6 -4 0 1337.99 420.33 9
4 -6 0 1884 539.951 9
6 -4 0 1795.33 544.745 8
4 -6 0 2296.62 1291.38 17
4 -6 0 1577.98 527.697 8
-6 4 0 376.909 491.226 4
-6 4 -1 810.785 746.974 4
6 -4 -1 2873.5 752.573 13
6 -4 1 3027.78 753.925 13
-4 6 -1 3058.42 727.539 4
-6 4 1 3965.32 880.617 12
-6 4 -1 2825.01 682.269 12
-4 6 1 3474.88 779.457 12
-4 6 -1 2729.18 714.377 12
4 -6 1 3868.44 849.849 3
-4 6 -1 3009.19 686.606 10
-4 6 1 3036.78 743.687 10
4 -6 -1 3374.23 783.484 5
-6 4 -1 3308.07 696.06 10
-6 4 1 2488.88 666.405 10
6 -4 -1 2361.2 658.394 5
6 -4 1 3371.25 738.559 5
6 -4 1 2104.14 603.64 9
4 -6 1 2866.25 687.497 9
6 -4 -1 2892.22 740.113 8
6 -4 1 2967.03 662.254 8
6 -4 -1 2395.55 707.559 17
6 -4 1 2500.23 695.356 17
4 -6 -1 3058.27 730.446 8
4 -6 -1 3010.88 791.154 17
4 -6 1 3333.65 779.49 17
4 -6 1 3255.65 709.88 8
-6 4 1 3111.6 673.615 4
-6 4 -2 953.642 492.797 4
6 -4 -2 667.165 249.135 13
6 -4 2 643.582 294.527 17
6 -4 2 468.579 387.308 13
4 -6 -2 824.386 418.759 13
-4 6 -2 27.6662 271.494 4
-6 4 2 498.249 325.015 12
-6 4 -2 1185.69 505.54 12
-4 6 2 931.698 457.737 12
-4 6 -2 426.7 189.206 12
4 -6 2 599.281 322.128 3
-4 6 2 1102.48 475.54 10
4 -6 -2 726.636 434.453 5
-6 4 2 905.485 401.259 10
6 -4 -2 584.994 344.28 5
6 -4 2 895.377 471.332 9
4 -6 2 1090.75 451.045 9
6 -4 -2 274.948 163.581 8
6 -4 -2 115.286 204.097 17
4 -6 -2 537.72 382.711 8
4 -6 -2 520.978 236.565 17
4 -6 2 800.477 452.788 17
-6 4 -3 2185.5 742.063 4
4 -6 -3 428.743 643.249 7
6 -4 -3 2084.31 616.822 13
6 -4 3 2250.83 667.376 13
4 -6 -3 1873.87 627.237 13
6 -4 -3 489.981 561.044 7
-4 6 -3 1678.34 581.764 4
-6 4 3 2343.06 678.056 12
-4 6 3 1459.2 522.123 12
-4 6 -3 1449.68 500.29 12
4 -6 3 1964.51 632.453 3
-4 6 3 2501.1 716.733 10
4 -6 -3 57.0923 700.354 5
6 -4 3 1718.93 609.848 9
4 -6 3 2021.1 607.538 9
4 -6 -3 792.284 374.506 8
4 -6 -3 1777.43 534.369 17
4 -6 3 1774.03 496.498 17
-6 4 -4 688.567 361.203 4
4 -6 -4 -1.14655 315.456 7
6 -4 -4 296.538 281.992 13
6 -4 4 -133.691 227.476 13
6 -4 -4 -48.8576 47.9987 7
-6 4 4 -24.2218 173.822 12
-4 6 -4 11.2596 51.3935 4
-4 6 4 305.367 147.196 12
6 -4 4 -255.64 176.043 3
4 -6 4 382.412 335.915 3
-4 6 4 715.698 519.185 10
-6 4 4 -249.686 264.795 10
4 -6 -4 -67.7469 197.9 5
6 -4 -4 -13.2074 255.095 5
6 -4 4 -73.7957 260.802 9
4 -6 4 379.115 312.218 9
6 -4 -4 -367.056 320.194 8
6 -4 -4 359.223 187.287 17
4 -6 -4 770.018 535.585 8
4 -6 -4 -340.148 416.674 17
-6 4 5 1312.62 782.481 14
-6 4 -5 1504.44 645.817 4
4 -6 -5 141.743 556.042 7
-4 6 -5 470.201 464.286 4
-4 6 5 1440.82 613.508 12
4 -6 -5 -7.00656 173.406 8
6 -4 5 647.438 461.46 3
-4 6 5 1355.77 640.533 10
4 -6 5 339.207 168.328 3
-6 4 5 1400.04 721.664 10
4 -6 -5 10.8122 339.579 5
6 -4 5 119.753 238.737 9
4 -6 5 1208.47 636.327 9
6 -4 -5 1033.79 1161.86 8
-6 5 0 434.82 337.575 4
6 -5 0 -538.329 375.944 13
5 -6 0 -649.368 371.409 13
-5 6 0 12.7285 287.135 4
-6 5 0 -17.9342 273.728 12
-5 6 0 -406.353 327.304 12
5 -6 0 -219.041 249.693 3
-5 6 0 228.752 225.953 10
-6 5 0 -229.151 218.567 10
5 -6 0 -182.424 228.072 5
6 -5 0 -439.411 278.653 5
6 -5 0 250.977 150.466 8
6 -5 0 52.2954 257.762 17
5 -6 0 -205.818 256.874 8
5 -6 0 -146.516 218.838 17
-6 5 -1 2366.55 1006.52 4
6 -5 -1 4763.76 1039.85 13
6 -5 1 4211.23 960.018 13
5 -6 -1 4407.82 997.353 13
5 -6 1 5542.45 1123.48 13
-5 6 -1 4236.32 899.273 4
-6 5 1 5124.11 1021.25 12
-6 5 -1 3948.8 950.752 12
-5 6 -1 4562.72 1006.57 12
5 -6 1 5316.46 1008.42 3
-5 6 -1 5439.82 977.506 10
-6 5 1 4551.49 974.92 10
5 -6 1 4329.39 821.528 5
5 -6 -1 5455.87 1054.94 5
6 -5 -1 5206.14 997.496 5
6 -5 1 4610.72 961.335 9
5 -6 1 4618.71 938.3 9
6 -5 -1 4103.93 916.107 8
5 -6 -1 4851.25 961.218 8
6 -5 -1 5358.64 1072.89 17
6 -5 1 4727.18 996.695 17
5 -6 -1 4851.24 1017.54 17
5 -6 1 5145.57 1044.71 17
-6 5 -2 -2.91314 231.226 4
6 -5 -2 72.9693 148.119 13
6 -5 2 -69.8183 306.708 13
5 -6 -2 -83.6194 50.2872 13
5 -6 2 -80.0172 360.294 13
-5 6 -2 -73.6636 254.331 4
-6 5 2 301.586 169.529 12
-6 5 -2 182.848 255.724 12
-5 6 2 -1282.63 533.546 12
-5 6 -2 494.48 330.134 12
6 -5 2 217.577 103.241 3
-5 6 2 -258.991 337.06 10
-6 5 2 710.512 398.122 10
5 -6 -2 -206.77 367.368 5
6 -5 -2 359.298 254.994 5
6 -5 2 385.151 194.252 9
5 -6 2 -4.38472 264.446 9
6 -5 -2 487.671 285.531 8
5 -6 -2 375.533 126.052 8
6 -5 -2 21.6339 274.254 17
6 -5 2 329.267 232.487 17
5 -6 -2 285.352 328.857 17
5 -6 2 -477.216 422.501 17
6 -5 -3 -172.313 45.9858 13
6 -5 3 141.319 172.634 13
5 -6 -3 400.821 230.356 13
5 -6 3 590.522 406.187 13
-5 6 -3 -6.67371 407.783 4
-6 5 3 495.038 379.273 12
-5 6 3 -42.9057 331.918 12
-5 6 -3 98.4727 282.547 12
6 -5 3 -35.5335 71.8057 3
5 -6 3 108.739 264.969 3
-5 6 3 357.857 325.63 10
-6 5 3 102.214 38.9389 10
5 -6 -3 2.58544 143.133 5
6 -5 -3 9.34 213.563 5
6 -5 3 795.251 526.478 9
5 -6 3 -210.427 308.713 9
6 -5 -3 -132.347 230.665 8
5 -6 -3 587.23 312.889 8
6 -5 -3 -2.85428 29.6663 17
5 -6 -3 1009.74 433.829 17
5 -6 3 132.052 85.4082 17
6 -5 -4 107.633 332.146 13
5 -6 -4 35.6125 344.755 7
-6 5 -4 -436.675 262.485 4
6 -5 4 -296.308 100.715 13
6 -5 -4 -1536.65 573.885 7
5 -6 4 306.662 185.721 13
-5 6 -4 1066.1 673.775 4
-6 5 4 880.698 516.508 12
-5 6 4 226.143 313.652 12
6 -5 4 -283.386 387.343 3
5 -6 4 520.547 369.83 3
-5 6 4 -125.581 117.93 10
-6 5 4 859.672 527.128 10
5 -6 -4 -165.026 198.913 5
6 -5 -4 5.60754 196.931 5
6 -5 4 -484.896 445.483 9
5 -6 4 490.551 517.308 9
6 -5 -4 -368.203 332.45 8
5 -6 -4 -148.626 317.161 8
6 -5 -4 502.501 443.424 17
5 -6 -4 -39.2598 190.302 17
5 -6 -5 96.9034 401.31 7
6 -5 -5 104.908 325.852 7
-6 5 5 -241.371 157.087 12
-5 6 5 -63.3254 132.91 12
6 -5 -5 -377.19 474.709 17
5 -6 -5 -5.09747 159.473 17
6 -6 0 666.757 432.267 13
-6 6 0 204.305 180.277 12
6 -6 0 319.059 265.228 3
-6 6 0 827.96 439.754 10
6 -6 0 1271.33 538.902 5
6 -6 0 368.118 254.226 8
6 -6 0 941.462 343.752 17
-6 6 -1 131.244 261.799 4
6 -6 -1 -143.197 300.519 13
6 -6 1 -88.6193 358.707 13
-6 6 1 -228.4 125.681 12
-6 6 -1 -675.84 527.808 12
6 -6 1 -34.3472 111.828 3
-6 6 1 -17.9405 211.107 10
6 -6 -1 -66.8261 111.565 5
6 -6 -1 213.599 390.849 8
6 -6 -1 -406.457 395.515 17
6 -6 1 784.115 468.8 17
6 -6 -2 355.75 367.439 13
-6 6 -2 15.9855 193.625 4
6 -6 2 -256.597 400.085 13
-6 6 2 199.232 158.751 12
-6 6 -2 443.154 367.766 12
6 -6 2 133.049 320.788 3
-6 6 2 -265.104 390.9 10
6 -6 -2 918.983 546.707 5
6 -6 2 209.233 343.684 9
6 -6 -2 645.562 372.48 8
6 -6 -2 -129.657 179.37 17
6 -6 2 99.6367 219.952 17
6 -6 -3 234.296 367.948 13
6 -6 3 39.4958 207.066 13
-6 6 -3 16.4323 186.206 4
-6 6 3 113.459 189.583 12
6 -6 3 137.164 549.41 3
-6 6 3 -353.581 423.734 10
6 -6 -3 -2.13197 311.507 5
6 -6 3 176.258 337.791 9
6 -6 -3 38.4156 231.558 8
6 -6 -3 -425.25 459.261 17
6 -6 4 1482.96 736.701 13
-6 6 4 1976.3 802.912 12
6 -6 -4 2001.52 735.024 17
-7 0 -4 330.492 430.46 1
7 0 4 214.812 155.468 9
-7 0 -4 423.971 343.768 4
-7 0 -5 4444.93 978.149 1
7 0 5 4706.36 1131.76 9
-7 0 -5 4448.43 978.674 4
-7 0 -6 65.9806 152.183 1
-7 0 -6 -1.06596 126.2 4
7 -1 1 3428.11 807.353 9
-7 1 -1 3100.87 739.056 4
7 -1 2 1142.94 438.079 9
-7 1 -2 704.635 195.291 4
-7 1 -3 3063.72 695.01 1
7 -1 3 2338.64 702.242 9
-7 1 -3 2513.69 739.633 4
-7 1 -4 273.954 110.777 1
-1 7 4 125.931 189.81 12
7 -1 4 796.068 360.663 9
-1 7 4 730.959 465.307 2
-7 1 -4 621.855 282.273 4
1 -7 -4 44.7547 578.646 8
-7 1 -5 217.839 197.747 1
7 -1 5 1011.64 534.488 9
-1 7 5 742.772 543.324 2
-7 1 -5 340.051 345.996 4
1 -7 -5 -79.6603 198.807 8
-7 1 -6 291.849 251.747 1
-7 1 -6 6.96637 131.722 4
1 -7 -6 -18.5777 470.649 8
7 -2 0 -116.796 338.329 13
-7 2 0 303.466 240.225 10
7 -2 0 -163.338 271.12 9
-7 2 0 64.981 184.62 4
-7 2 1 371.195 279.602 14
7 -2 -1 -11.5085 270.514 13
7 -2 1 70.3144 181.861 13
-2 7 1 92.5818 193.495 12
-7 2 -1 290.605 278.37 10
-7 2 1 360.941 291.05 10
7 -2 -1 -210.04 234.076 9
7 -2 1 -51.846 201.254 9
-7 2 1 4.23762 52.5042 4
-7 2 -1 162.128 284.608 4
2 -7 -1 125.368 146.114 17
-7 2 2 11120.3 1414.86 14
7 -2 2 14177 1710.47 13
-2 7 2 12279.5 1596.02 12
-7 2 2 11669.2 1564.05 10
7 -2 2 12455.5 1570.31 9
-7 2 -2 11157 1496.29 4
2 -7 -2 16179.8 1864.56 8
2 -7 -2 15009.7 1750.94 17
7 -2 3 1517.53 574.64 13
-2 7 3 1218.86 493.014 12
-7 2 3 1440.87 602.254 10
7 -2 3 656.683 381.064 9
-2 7 3 329.8 148.002 2
-7 2 -3 973.785 405.405 4
2 -7 -3 1729.08 588.809 17
2 -7 -3 572.165 297.6 8
7 -2 4 73.6504 94.4981 13
-2 7 4 -32.8474 199.585 12
7 -2 4 527.551 235.522 9
-2 7 4 -356.077 268.418 2
-7 2 -4 -85.2499 291.884 4
2 -7 -4 86.5035 368.721 8
2 -7 -4 505.844 351.169 17
7 -2 5 991.724 593.631 9
2 -7 -5 44.7795 428.223 8
-7 2 -5 -150.735 210.732 4
-2 7 5 590.658 440.665 2
7 -3 0 15738.7 1801.99 13
-7 3 0 14546 1702.77 12
-3 7 0 12810.6 1640.73 12
-7 3 0 12737.7 1545.94 10
7 -3 0 14914.1 1622.46 5
7 -3 0 11974.2 1460.3 9
-7 3 0 11177.7 1498.43 4
3 -7 0 17889.9 1855.3 8
3 -7 0 15742.4 1832.52 17
-7 3 -1 423.338 297.079 15
-7 3 1 456.898 329.455 14
7 -3 -1 1057.18 512.188 13
7 -3 1 935.072 457.015 13
-7 3 1 1129.72 538.813 12
-7 3 -1 814.54 431.392 12
-3 7 1 1021.69 561.257 12
-3 7 -1 961.001 546.377 12
3 -7 1 747.926 419.739 3
-7 3 1 1226.21 490.573 10
7 -3 1 2.52552 158.33 9
7 -3 -1 357.137 110.569 5
7 -3 -1 230.144 215.909 18
-7 3 1 143.947 402.39 4
-7 3 -1 215.441 343.194 4
3 -7 -1 482.711 438.958 17
3 -7 1 695.813 305.487 17
3 -7 -1 711.847 334.541 8
-7 3 2 118.834 132.993 14
7 -3 -2 762.724 440.421 13
7 -3 2 1109.8 484.096 13
-3 7 2 472.101 103.096 12
-3 7 -2 235.81 222.813 12
-3 7 2 1243.29 594.008 10
3 -7 2 622.343 450.645 3
-7 3 2 1005.68 459.487 10
7 -3 -2 1287.65 560.698 5
7 -3 2 727.094 510.349 9
7 -3 -2 465.003 387.609 18
-7 3 -2 98.4975 121.087 4
3 -7 -2 695.284 414.014 8
3 -7 -2 129.416 194.078 17
-7 3 3 -187.787 343.072 14
7 -3 -3 402.461 50.7798 13
7 -3 3 384.8 366.389 13
-3 7 3 379.781 149.046 12
-3 7 -3 818.566 506.886 12
-3 7 3 620.766 429.835 10
3 -7 3 765.798 595.481 3
-7 3 3 757.085 475.039 10
7 -3 -3 71.1675 769.979 5
7 -3 3 708.837 457.961 9
7 -3 -3 629.982 375.185 18
3 -7 -3 264.041 48.016 8
-7 3 -3 414.109 431.137 4
3 -7 -3 -76.1247 298.127 17
-7 3 4 1743.06 697.138 14
-3 7 4 807.578 356.548 12
-3 7 4 1687.38 632.93 10
3 -7 -4 9.14541 477.465 5
-7 3 4 2332.62 825.199 10
7 -3 -4 -1.36325 453.2 5
7 -3 -4 2385.19 857.785 18
3 -7 -4 456.525 745.068 8
3 -7 -4 1013.99 465.938 17
-7 3 -4 377.28 161.514 4
-7 3 -5 210.678 251.596 4
-7 3 5 507.246 321.861 14
3 -7 -5 38.1352 516.126 7
-3 7 5 188.35 142.453 12
-3 7 5 -203.718 382.124 10
3 -7 -5 254.778 550.558 5
-7 3 5 353.325 406.952 10
3 -7 -5 -63.5136 250.997 8
-7 4 0 -133.962 311.582 15
7 -4 0 -222.791 246.709 13
-7 4 0 212.903 372.215 12
-4 7 0 -30.0351 332.453 4
-4 7 0 373.441 362.763 12
-7 4 0 -185.977 222.526 10
7 -4 0 -358.278 284.124 5
7 -4 0 -38.6969 143.487 8
7 -4 0 589.408 319.413 17
4 -7 0 618.71 463.651 17
4 -7 0 -12.8515 190.325 8
7 -4 -1 1985.03 629.771 13
7 -4 1 2303.96 741.573 13
-7 4 1 2183.61 702.751 12
-7 4 -1 2083.44 676.546 12
-4 7 -1 141.022 364.621 4
-4 7 1 1543.95 511.123 12
-4 7 -1 1715.77 554.843 12
-4 7 1 1921.14 662.62 10
4 -7 1 1694.35 596.439 3
-7 4 1 1757.87 593.009 10
7 -4 -1 1132.39 403.914 5
7 -4 1 1028.8 426.222 9
4 -7 1 1987.39 590.039 9
7 -4 -1 1531.69 589.232 8
7 -4 -1 1979.26 588.186 18
7 -4 1 2014.85 674.137 17
4 -7 -1 2260.55 702.586 8
4 -7 -1 1486.65 492.031 17
4 -7 1 1789.04 564.098 17
-7 4 -1 1013.2 644.564 4
4 -7 1 1967.23 639.085 8
-7 4 -2 131.111 560.369 4
7 -4 -2 -34.6509 264.716 13
7 -4 2 600.715 397.363 13
-7 4 2 -299.358 445.194 12
-7 4 -2 -247.391 341.261 12
-4 7 -2 180.96 429.294 4
-4 7 -2 478.072 312.505 12
-4 7 2 108.812 354.331 10
4 -7 2 932.026 470.27 3
4 -7 -2 299.236 140.928 5
-7 4 2 836.685 500.016 10
7 -4 -2 598.557 329.434 5
7 -4 2 227.591 221.75 9
4 -7 2 865.942 526.049 9
7 -4 -2 -304.626 361.85 8
7 -4 -2 611.755 385.834 18
7 -4 2 409.304 226.365 17
4 -7 2 577.563 369.53 17
-7 4 -3 1732.66 992.629 4
7 -4 -3 4539.27 1048.11 13
7 -4 3 3821.24 908.823 13
4 -7 -3 2937.39 783.043 13
-7 4 3 3742.84 895.942 12
-4 7 -3 1317.15 928.099 4
-4 7 3 4022.93 989.271 12
-4 7 -3 3681.31 850.06 12
-4 7 3 4252.69 987.55 10
4 -7 3 3286.15 903.095 3
4 -7 -3 173.244 945.115 5
-7 4 3 4072.15 951.738 10
7 -4 -3 212.508 1107.19 5
7 -4 3 3027.01 899.026 9
4 -7 3 3244.38 810.46 9
7 -4 -3 2872.51 813.133 8
7 -4 -3 2740.4 719.043 18
4 -7 -3 3704.25 998.272 8
4 -7 -3 2926.24 943.73 17
-7 4 -4 -668.669 593.687 4
4 -7 -4 129.023 480.22 7
7 -4 -4 233.751 238.252 13
7 -4 4 -370.56 438.935 13
-4 7 4 457.621 410.193 12
-4 7 -4 -187.263 256.49 4
-4 7 4 173.813 393.045 10
4 -7 4 620.324 347.628 3
-7 4 4 351.912 266.234 10
4 -7 -4 -68.4686 532.493 5
7 -4 -4 -25.379 348.622 5
7 -4 4 44.7256 256.178 9
4 -7 4 -331.87 364.055 9
7 -4 -4 -47.295 163.424 8
7 -4 -4 -290.389 312.516 18
7 -4 -4 -65.4945 163.957 17
4 -7 -4 -179.257 635.705 8
4 -7 -4 -194.01 276.263 17
4 -7 -5 498.122 782.868 7
7 -4 -5 316.653 747.62 7
-4 7 5 2039.25 652.734 12
7 -4 -5 2016.35 790.676 17
4 -7 -5 1670 642.294 17
-7 5 0 62.7618 447.774 4
7 -5 0 326.906 378.108 13
5 -7 0 417.487 394.189 13
-7 5 0 1222.88 588.211 12
-5 7 0 1367.78 551.023 10
-7 5 0 1603.56 603.458 10
5 -7 0 1135.26 490.69 5
7 -5 0 855.084 249.878 5
7 -5 0 964.863 514.299 8
7 -5 0 973.09 523.935 17
5 -7 0 1182.3 566.399 17
5 -7 0 1038.69 427.242 8
-7 5 -1 1144.91 698.935 4
7 -5 -1 3523.27 922.647 13
7 -5 1 2849.35 899.548 13
5 -7 -1 2180.91 747.446 13
5 -7 1 2459.12 773.653 13
-7 5 1 2569.95 732.834 12
-7 5 -1 2196.7 727.936 12
-5 7 -1 881.26 690.942 4
-5 7 1 2205.95 773.407 12
-5 7 -1 1779.99 603.429 12
5 -7 1 1897.86 616.621 3
-5 7 1 2487.36 847.254 10
-7 5 1 1243.32 522.356 10
5 -7 -1 1971.72 566.028 5
7 -5 -1 3063.89 828.545 5
7 -5 1 2243.62 650.416 9
7 -5 -1 2193.76 686.741 8
7 -5 -1 1786.04 672.08 17
7 -5 1 2612.54 821.58 17
5 -7 -1 2515.78 762.179 8
5 -7 -1 2674.52 809.99 17
5 -7 1 2523.55 749.002 17
-7 5 -2 34.8434 90.9554 4
7 -5 -2 168.591 419.115 13
7 -5 2 -412.522 177.064 13
5 -7 2 -143.3 324.566 13
-7 5 2 86.3451 221.393 12
-7 5 -2 -28.6865 206.678 12
-5 7 -2 20.3581 291.898 4
-5 7 2 -14.8517 211.244 12
-5 7 -2 -27.132 39.0403 12
5 -7 2 -171.759 245.205 3
-5 7 2 1373.84 689.935 10
-7 5 2 547.511 345.947 10
5 -7 -2 667.055 721.683 5
7 -5 -2 94.8947 208.205 5
7 -5 2 -606.803 497.749 9
5 -7 2 -286.224 329.142 9
7 -5 -2 241.801 364.941 8
7 -5 -2 407.698 326.164 17
7 -5 2 947.352 469.878 17
5 -7 -2 269.695 252.209 8
5 -7 -2 842.459 489.834 17
5 -7 2 601.857 374.59 17
-7 5 -3 321.435 623.925 4
7 -5 -3 2440.53 739.381 13
7 -5 3 1097.65 392.089 13
5 -7 -3 1696.08 675.098 13
5 -7 3 1455.37 611.191 13
-7 5 3 2804.66 884.827 12
-5 7 -3 971.284 766.931 4
-5 7 3 1709.54 559.316 12
-5 7 -3 1300.83 473.372 12
7 -5 3 1879.07 710.047 3
5 -7 3 2830.58 881.948 3
-5 7 3 1260.39 604.322 10
-7 5 3 1825.82 673.651 10
5 -7 -3 113.93 593.877 5
7 -5 -3 60.445 560.229 5
7 -5 3 1216.33 511.881 9
5 -7 3 2036.27 747.986 9
7 -5 -3 1097.89 617.612 8
7 -5 -3 1050.38 528.213 17
5 -7 -3 2342.64 824.898 8
5 -7 -3 2972.26 877.763 17
5 -7 3 1572.09 593.91 17
7 -5 -4 -91.0472 381.796 13
7 -5 4 -278.365 411.696 13
5 -7 4 -268.154 413.075 13
-5 7 4 -61.5298 394.846 12
7 -6 0 235.001 329.317 13
6 -7 0 -334.665 191.769 13
-7 6 0 -629.093 582.616 12
-6 7 0 -591.418 553.531 12
-6 7 0 138.02 217.258 10
-7 6 0 258.294 326.693 10
6 -7 0 27.571 176.212 5
7 -6 0 -12.5187 153.02 17
6 -7 0 -85.2924 189.69 17
6 -7 0 152.213 311.915 8
-7 6 -1 29.0697 152.001 4
7 -6 -1 -227.147 411.822 13
7 -6 1 204.397 234.918 13
6 -7 -1 -235.522 227.014 13
6 -7 1 458.43 561.984 13
-6 7 -1 5.80103 525.196 4
-7 6 1 644.038 431.308 12
-7 6 -1 51.971 269.054 12
-6 7 1 -248.41 149.731 12
-6 7 -1 -33.4788 217.836 12
7 -6 1 51.0108 193.294 3
6 -7 1 -125.925 240.381 3
-6 7 1 730.052 604.081 10
-7 6 1 -357.278 339.988 10
6 -7 -1 378.922 186.486 5
7 -6 -1 -501.201 409.456 5
7 -6 -1 104.189 334.796 8
7 -6 -1 657.304 500.158 17
6 -7 -1 -155.755 245.217 8
7 -6 1 133.042 281.04 17
6 -7 -1 53.8879 218.362 17
6 -7 1 853.097 590.52 17
-7 6 -2 660.621 633.802 4
7 -6 -2 851.255 538.697 13
7 -6 2 2241.36 926.674 13
6 -7 -2 1567.43 586.83 13
-6 7 -2 227.412 1255.08 4
-7 6 -2 1964.82 733.365 12
-6 7 -2 1838.88 741.145 12
7 -6 2 2107.47 815.298 3
6 -7 2 2018.25 717.271 3
-6 7 2 2049.25 548.009 10
-7 6 2 1552.38 675.925 10
6 -7 -2 142.592 863.488 5
7 -6 -2 1066.73 631.73 5
7 -6 2 1521.87 618.752 9
6 -7 2 950.28 382.816 9
7 -6 -2 1530.26 643.432 8
6 -7 -2 2649.8 907.853 8
7 -6 2 2162.75 686.24 17
6 -7 2 2767.04 906.758 17
7 -6 -3 981.342 563.684 13
6 -7 -3 753.711 420.766 13
8 -1 3 357.817 523.05 9
-8 1 -3 -136.463 394.823 4
8 -1 4 -126.23 240.726 9
-8 1 -4 -240.752 177.06 4
-8 2 0 402.502 325.279 10
8 -2 0 465.951 303.005 9
-8 2 0 -71.9324 202.185 4
8 -2 1 242.058 119.683 9
-8 2 -1 58.8017 361.691 4
8 -2 2 577.344 428.958 9
-8 2 -2 -139.513 425.171 4
-2 8 3 209.348 167.446 12
8 -2 3 1219.85 629.716 9
-8 2 -3 751.497 440.001 4
-2 8 4 160.01 292.876 12
8 -2 4 509.509 523.198 9
-8 2 -4 1256.93 587.335 4
2 -8 -4 73.1604 342.6 8
8 -3 0 -552.285 481.089 13
-3 8 0 237.718 361.653 12
-8 3 0 -211.481 220.22 10
8 -3 0 90.8589 244.119 9
-8 3 0 35.3302 107.222 4
3 -8 0 -299.117 194.206 17
8 -3 -1 -445.007 363.955 13
8 -3 1 17.0439 65.0402 13
-3 8 1 -110.456 265.143 12
-8 3 1 366.949 427.95 10
8 -3 1 -149.029 306.801 9
-8 3 -1 43.4837 295.344 4
3 -8 -1 -777.21 493.373 17
-8 3 2 63.3065 153.541 14
8 -3 -2 -521.961 435.466 13
8 -3 2 694.665 563.841 13
-3 8 2 19824.3 2783.4 12
-8 3 2 150.236 134.922 10
8 -3 2 226.358 395.134 9
8 -3 -2 66.5553 99.7717 5
3 -8 -2 26722.1 2906.95 17
-8 3 -2 339.956 461.212 4
8 -3 3 166.74 243.697 13
-3 8 3 724.632 413.668 12
-8 3 3 735.427 207.211 10
8 -3 3 1006.87 531.869 9
8 -3 -3 14.2425 635.237 5
-8 3 -3 333.254 410.158 4
3 -8 -3 566.45 277.245 17
3 -8 -3 643.5 317.121 8
-3 8 4 -277.914 312.612 12
3 -8 -4 -243.217 322.529 17
8 -4 0 2239.78 764.688 13
-8 4 0 1602.02 657.088 12
-4 8 0 1875.27 711.942 12
-8 4 0 1686.12 645.422 10
8 -4 0 1636.91 620.572 17
-8 4 0 625.501 466.43 4
4 -8 0 1288.41 421.098 17
4 -8 0 1400.91 373.605 8
8 -4 -1 458.838 321.763 13
8 -4 1 191.085 295.632 13
-8 4 -1 -191.601 287.515 12
-8 4 1 48.9587 187.348 12
-4 8 1 -20.2213 259.891 12
-4 8 -1 -57.2848 139.25 12
-8 4 1 437.266 346.013 10
4 -8 1 51.0333 215.848 3
8 -4 -1 67.136 22.8404 5
8 -4 1 -189.001 202.156 9
8 -4 -1 356.417 321.663 8
8 -4 1 61.4358 80.3352 17
4 -8 -1 765.443 556.817 17
4 -8 1 -46.2426 342.988 17
-8 4 -1 274.594 464.035 4
4 -8 -1 330.272 248.971 8
8 -4 -2 -65.3011 173.564 13
8 -4 2 201.923 81.7164 13
-4 8 2 91.8128 45.9635 12
-4 8 -2 -415.841 351.716 12
4 -8 2 811.961 550.308 3
-8 4 2 29.2122 144.57 10
8 -4 -2 452.576 465.309 5
8 -4 2 54.0716 215.184 9
8 -4 -2 23.6864 35.6379 18
8 -4 2 431.094 341.888 17
4 -8 -2 5.07232 274.638 17
4 -8 -2 -595.628 494.747 8
-8 4 -2 92.3926 182.273 4
8 -4 -3 347.071 635.624 13
8 -4 3 -34.3087 252.697 13
4 -8 -3 -95.8513 260.621 13
-4 8 3 -34.6359 366.627 12
-4 8 -3 102.537 283.264 12
4 -8 3 286.967 238.455 3
8 -4 3 -271.909 273.864 9
8 -4 -3 133.138 34.6594 18
-8 5 0 -230.844 249.935 12
-5 8 0 72.297 168.049 12
5 -8 0 344.687 459.63 5
8 -5 0 65.7764 246.877 17
5 -8 0 106.101 217.819 8
-8 5 -1 7.89507 527.129 4
-8 5 -1 526.967 336.831 12
-5 8 -1 383.51 135.909 12
-5 8 -1 -26.0953 246.87 4
-5 8 1 585.462 317.964 10
-8 5 1 587.53 230.491 10
5 -8 -1 730.35 315.336 5
8 -5 -1 262.567 131.244 5
8 -5 -1 884.811 593.455 8
8 -5 1 506.403 453.94 17
5 -8 -1 1097.8 482.231 8
5 -8 1 398.804 99.7493 17
-8 5 -2 914.539 563.482 12
-5 8 -2 589.949 434.433 12
-5 8 -2 129.454 289.168 4
5 -8 2 474.756 295.87 3
8 -5 2 714.521 442.05 9
8 -5 2 306.303 335.937 17
5 -8 2 477.752 259.319 17
-9 3 0 23.5952 634.088 4
9 -3 1 385.24 275.727 9
-9 3 -1 131.083 355.13 4
9 -4 -1 201.444 268.626 8
loop_
_geom_angle_atom_site_label_1
_geom_angle_atom_site_label_2
_geom_angle_atom_site_label_3
_geom_angle
_geom_angle_site_symmetry_1
_geom_angle_site_symmetry_3
_geom_angle_publ_flag
H1a O1 H1a 102(3) . 13_575 ?
H1b O1 H1a 113.9(15) . 13_575 ?
H1b O1 H1a 113.9(15) . . ?
H1c O1 H1a 105.7(19) . 13_575 ?
H1c O1 H1a 105.7(19) . . ?
H1c O1 H1b 114(3) . . ?
H2 O2 H2 112(3) 6_565 7_454 ?
H2 O2 H2 112(3) 8_664 6_565 ?
H2 O2 H2 112(3) 8_664 . ?
H2 O2 H2 104(5) 6_565 . ?
H2 O2 H2 104(5) 8_664 7_454 ?
H2 O2 H2 112(3) . 7_454 ?
H2 H2 O2 38(2) 6_565 7_454 ?
loop_
_geom_bond_atom_site_label_1
_geom_bond_atom_site_label_2
_geom_bond_distance
_geom_bond_site_symmetry_2
_geom_bond_publ_flag
O1 H1a 0.80(2) 13_575 ?
O1 H1a 0.80(2) . ?
O1 H1b 0.74(3) . ?
O1 H1c 0.73(3) . ?
O2 H2 0.71(3) 6_565 ?
O2 H2 0.71(3) 8_664 ?
O2 H2 0.71(3) . ?
O2 H2 0.71(3) 7_454 ?
H2 H2 1.12(7) 6_565 ?
