#------------------------------------------------------------------------------
#$Date: 2016-02-20 00:18:51 +0200 (Sat, 20 Feb 2016) $
#$Revision: 176760 $
#$URL: svn://www.crystallography.net/cod/cif/2/01/99/2019902.cif $
#------------------------------------------------------------------------------
#
# This file is available in the Crystallography Open Database (COD),
# http://www.crystallography.net/. The original data for this entry
# were provided by IUCr Journals, http://journals.iucr.org/.
#
# The file may be used within the scientific community so long as
# proper attribution is given to the journal article from which the
# data were obtained.
#
data_2019902
loop_
_publ_author_name
'Paz, Cristian'
'Burgos, Viviana'
'Suarez, Sebasti\'an'
'Baggio, Ricardo'
_publ_section_title
;
 A monoclinic form of dendocarbin A: a borderline case of one-dimensional
 isostructural polymorphism
;
_journal_coeditor_code           YP3088
_journal_issue                   4
_journal_name_full               'Acta Crystallographica Section C'
_journal_page_first
;
;
_journal_paper_doi               10.1107/S2053229615004994
_journal_volume                  71
_journal_year                    2015
_chemical_formula_moiety         'C15 H22 O3'
_chemical_formula_sum            'C15 H22 O3'
_chemical_formula_weight         250.32
_chemical_name_common
;
Dendrocarbin A
;
_chemical_name_systematic
;
(1<i>R</i>,5a<i>S</i>,9a<i>S</i>,9b<i>R</i>)-1-Hydroxy-6,6,9a-\
trimethyldodecahydronaphtho[1,2-<i>c</i>]furan-3-one
;
_space_group_crystal_system      monoclinic
_space_group_IT_number           4
_space_group_name_Hall           'P 2yb'
_space_group_name_H-M_alt        'P 1 21 1'
_symmetry_space_group_name_Hall  'P 2yb'
_symmetry_space_group_name_H-M   'P 1 21 1'
_atom_sites_solution_hydrogens   mixed
_audit_creation_method           SHELXL-2014/6
_cell_angle_alpha                90
_cell_angle_beta                 108.750(13)
_cell_angle_gamma                90
_cell_formula_units_Z            2
_cell_length_a                   8.2892(10)
_cell_length_b                   8.3401(7)
_cell_length_c                   11.0225(13)
_cell_measurement_reflns_used    3400
_cell_measurement_temperature    295(2)
_cell_measurement_theta_max      25.4140
_cell_measurement_theta_min      3.9130
_cell_volume                     721.58(15)
_computing_cell_refinement
;
CrysAlis PRO (Oxford Diffraction, 2009)
;
_computing_data_collection
;
CrysAlis PRO (Oxford Diffraction, 2009)
;
_computing_data_reduction
;
CrysAlis PRO (Oxford Diffraction, 2009)
;
_computing_molecular_graphics
;
XP in SHELXTL (Sheldrick, 2008)
;
_computing_publication_material
;
SHELXL2013 (Sheldrick, 2008) and PLATON (Spek, 2009)
;
_computing_structure_refinement
;
SHELXL2014 (Sheldrick, 2008)
;
_computing_structure_solution
;
SHELXS (Sheldrick, 2008)
;
_diffrn_ambient_temperature      295(2)
_diffrn_measured_fraction_theta_full 0.995
_diffrn_measured_fraction_theta_max 0.947
_diffrn_measurement_device_type  'Oxford Diffraction Gemini CCD S Ultra'
_diffrn_measurement_method       '\w scans, thick slices'
_diffrn_radiation_type           MoK\a
_diffrn_radiation_wavelength     0.71073
_diffrn_reflns_av_R_equivalents  0.0319
_diffrn_reflns_limit_h_max       11
_diffrn_reflns_limit_h_min       -11
_diffrn_reflns_limit_k_max       11
_diffrn_reflns_limit_k_min       -11
_diffrn_reflns_limit_l_max       14
_diffrn_reflns_limit_l_min       -14
_diffrn_reflns_number            11012
_diffrn_reflns_theta_full        26.000
_diffrn_reflns_theta_max         28.789
_diffrn_reflns_theta_min         3.905
_exptl_absorpt_coefficient_mu    0.079
_exptl_absorpt_correction_T_max  0.988
_exptl_absorpt_correction_T_min  0.967
_exptl_absorpt_correction_type   multi-scan
_exptl_absorpt_process_details
;
(CrysAlis PRO; Oxford Diffraction, 2009)
;
_exptl_crystal_colour            colourless
_exptl_crystal_density_diffrn    1.152
_exptl_crystal_description       block
_exptl_crystal_F_000             272
_exptl_crystal_size_max          0.24
_exptl_crystal_size_mid          0.18
_exptl_crystal_size_min          0.12
_refine_diff_density_max         0.154
_refine_diff_density_min         -0.157
_refine_ls_extinction_method     none
_refine_ls_goodness_of_fit_ref   1.021
_refine_ls_hydrogen_treatment    mixed
_refine_ls_matrix_type           full
_refine_ls_number_parameters     170
_refine_ls_number_reflns         3411
_refine_ls_number_restraints     1
_refine_ls_restrained_S_all      1.020
_refine_ls_R_factor_all          0.0705
_refine_ls_R_factor_gt           0.0429
_refine_ls_shift/su_max          0.000
_refine_ls_shift/su_mean         0.000
_refine_ls_structure_factor_coef Fsqd
_refine_ls_weighting_details
'w=1/[\s^2^(Fo^2^)+(0.0402P)^2^+0.0646P] where P=(Fo^2^+2Fc^2^)/3'
_refine_ls_weighting_scheme      calc
_refine_ls_wR_factor_gt          0.0852
_refine_ls_wR_factor_ref         0.0969
_reflns_number_gt                2519
_reflns_number_total             3411
_reflns_threshold_expression     I>2\s(I)
_cod_data_source_file            yp3088sup1.cf
_cod_data_source_block           I
_cod_database_code               2019902
_cod_database_fobs_code          2019902
#BEGIN Tags that were not found in dictionaries:
_shelx_space_group_comment
;
The symmetry employed for this shelxl refinement is uniquely defined
by the following loop, which should always be used as a source of
symmetry information in preference to the above space-group names.
They are only intended as comments.
;
_shelx_hkl_file
;
   0 -11  -1  -12.35    5.94
   0 -11  -2   26.17    7.56
   0 -11  -3   -1.56    6.46
   0 -10   0    3.25    5.34
   0 -10   1   -5.78    4.74
   0 -10  -1    2.11    4.46
   0 -10  -2   22.40    6.27
   0 -10   2   32.16    7.39
   0 -10  -3   35.51    7.58
   0 -10   3   32.11    7.34
   0 -10   4    5.48    4.48
   0  -9   0   -7.00    4.61
   0  -9   1   20.92    5.85
   0  -9  -1   18.48    5.80
   0  -9   2   54.38    8.15
   0  -9  -2   52.03    7.61
   0  -9  -3   20.62    5.50
   0  -9   3   12.99    5.01
   0  -9   4    4.39    4.74
   0  -9   5   19.65    6.51
   0  -9   6    0.97    4.82
   0  -9   6    3.79    4.89
   0  -9   7   -2.25    5.43
   0  -9   8   13.34    5.85
   0  -8   0  265.45   14.01
   0  -8   0  257.59   12.71
   0  -8   1   32.35    5.76
   0  -8  -1   36.25    5.78
   0  -8  -1   37.29    6.36
   0  -8   1   29.63    5.92
   0  -8   2   26.09    5.50
   0  -8   2   41.85    6.18
   0  -8  -2   27.59    5.89
   0  -8  -2   29.82    4.95
   0  -8   3   38.47    6.37
   0  -8   3   44.54    6.69
   0  -8  -3   44.03    6.34
   0  -8   4   18.71    5.69
   0  -8   4   12.76    5.21
   0  -8   5   23.12    6.41
   0  -8   5   25.63    6.08
   0  -8   6    3.06    4.86
   0  -8   6    3.97    4.44
   0  -8   7    5.70    4.80
   0  -8   7  -11.86    5.69
   0  -8   8   20.61    6.21
   0  -8   8   22.17    5.86
   0  -8   9  -12.72    5.69
   0  -7   0   -0.60    3.75
   0  -7   0   -0.18    3.17
   0  -7   1  263.14   12.10
   0  -7  -1  275.33   11.94
   0  -7  -1  263.65   12.81
   0  -7   1  258.61   12.89
   0  -7  -2   21.98    4.98
   0  -7  -2   23.89    4.27
   0  -7   2   25.84    4.69
   0  -7   2   27.86    5.20
   0  -7  -3  156.34   10.05
   0  -7   3  147.00   10.58
   0  -7  -3  163.53    9.07
   0  -7   3  165.34   10.30
   0  -7   4   59.38    7.02
   0  -7   4   76.57    7.45
   0  -7   5   49.64    6.54
   0  -7   5   53.23    6.96
   0  -7   6   25.90    6.09
   0  -7   6   29.68    5.60
   0  -7   7    0.57    4.39
   0  -7   7    2.39    3.63
   0  -7  -7    4.19    5.19
   0  -7   8   -0.64    3.65
   0  -7  -8   -7.69    5.09
   0  -7   8    0.65    4.38
   0  -7   9   -3.43    5.27
   0  -7   9    1.75    4.81
   0  -7  -9   -1.84    3.97
   0  -7  10    7.45    5.32
   0  -6   0  246.66   10.49
   0  -6   0  253.97    8.81
   0  -6   0  233.86   11.00
   0  -6   1  194.56   10.36
   0  -6  -1  209.72    7.47
   0  -6  -1  198.24   10.10
   0  -6  -1  198.82    9.34
   0  -6   1  196.56    9.64
   0  -6  -2   67.75    5.66
   0  -6  -2   75.83    4.33
   0  -6   2   70.73    6.34
   0  -6  -2   65.74    6.22
   0  -6   2   63.91    6.46
   0  -6   3  302.10   12.58
   0  -6  -3  325.19   11.74
   0  -6  -3  301.75    7.68
   0  -6  -3  306.20   12.24
   0  -6   3  290.51   12.85
   0  -6   4   49.73    5.85
   0  -6   4   50.25    6.01
   0  -6  -5   55.70    7.86
   0  -6   5   52.87    6.28
   0  -6   5   44.00    6.49
   0  -6   6   11.37    4.72
   0  -6   6   13.22    4.19
   0  -6  -6    8.71    4.14
   0  -6   7    4.45    4.26
   0  -6   7    2.76    4.13
   0  -6  -8   10.46    5.91
   0  -6   8    3.64    3.92
   0  -6   8    1.21    3.78
   0  -6  -9    0.04    5.02
   0  -6   9    3.90    4.44
   0  -6   9   14.26    5.36
   0  -6  10    4.76    5.18
   0  -6 -10   -3.41    4.76
   0  -6  10    1.35    3.49
   0  -6  11   10.92    5.13
   0  -6  11   24.82    6.99
   0  -5   0    1.08    2.35
   0  -5   0   -0.18    1.54
   0  -5   0    0.66    1.95
   0  -5   0   -0.99    2.19
   0  -5  -1  246.78    9.27
   0  -5  -1  254.43    7.32
   0  -5  -1  254.84   10.09
   0  -5  -1  243.38    9.89
   0  -5   1  251.17   10.43
   0  -5   1  251.81    9.72
   0  -5   1  243.78    8.36
   0  -5  -2  303.97   11.07
   0  -5  -2  296.52   10.08
   0  -5   2  302.52   10.97
   0  -5  -2  311.09    7.50
   0  -5   2  285.59   11.29
   0  -5  -2  319.73   11.92
   0  -5   3  202.09    9.82
   0  -5  -3  199.86    9.09
   0  -5   3  190.37    9.02
   0  -5  -3  214.30    5.83
   0  -5  -3  214.02    8.91
   0  -5  -3  187.76    9.62
   0  -5   4  103.00    7.54
   0  -5  -4   87.85    8.48
   0  -5  -4   96.84    3.54
   0  -5   4   93.17    6.78
   0  -5   5  127.89    8.10
   0  -5  -5  115.27    9.90
   0  -5   5  119.41    8.19
   0  -5  -6   49.69    7.37
   0  -5   6   49.73    6.10
   0  -5   6   47.46    5.69
   0  -5   7   18.99    4.74
   0  -5  -7   19.83    6.33
   0  -5   7   19.57    4.68
   0  -5   8   92.21    8.48
   0  -5  -8   71.39    9.63
   0  -5   8   82.64    8.21
   0  -5  -9    8.52    4.53
   0  -5   9   25.05    5.63
   0  -5   9   18.85    4.99
   0  -5  10   16.86    4.99
   0  -5 -10   17.16    6.08
   0  -5  10   21.20    5.07
   0  -5  11    0.98    3.97
   0  -5  11    5.55    3.66
   0  -5 -11   -4.17    6.04
   0  -4   0  115.74    5.64
   0  -4   0  121.81    4.90
   0  -4   0  115.71    6.15
   0  -4   0  120.58    5.87
   0  -4  -1   52.64    3.02
   0  -4   1   55.86    3.79
   0  -4  -1   55.71    4.06
   0  -4   1   58.05    3.67
   0  -4   1   55.36    4.47
   0  -4  -1   52.40    4.22
   0  -4  -1   53.93    4.38
   0  -4   1   58.65    3.79
   0  -4   1   55.92    4.23
   0  -4  -2   42.02    3.96
   0  -4   2   39.99    3.76
   0  -4  -2   44.54    2.60
   0  -4   2   46.07    4.28
   0  -4  -2   45.61    3.79
   0  -4  -2   39.98    4.16
   0  -4   3  252.90    9.61
   0  -4  -3  241.52   11.53
   0  -4  -3  250.66   10.08
   0  -4   3  244.86    9.08
   0  -4  -3  253.44    5.55
   0  -4  -4  156.24    8.32
   0  -4   4  159.22    8.10
   0  -4  -4  152.60    9.65
   0  -4   4  159.12    7.73
   0  -4  -4  149.49    4.07
   0  -4   5  377.46   12.79
   0  -4   5  395.26   12.66
   0  -4  -5  382.16    6.66
   0  -4  -5  361.12   15.12
   0  -4   6  194.63    9.73
   0  -4  -6  205.73    5.26
   0  -4  -6  202.79   12.11
   0  -4   7   28.46    4.96
   0  -4  -7   21.12    5.29
   0  -4   8   98.33    8.05
   0  -4  -8  105.50    9.88
   0  -4  -9   95.42    9.94
   0  -4   9  101.29    8.68
   0  -4  10   50.45    6.96
   0  -4 -10   54.80    8.31
   0  -4 -11   25.42    6.09
   0  -4  11   42.00    6.38
   0  -4 -12    6.26    4.80
   0  -4  12   13.69    4.63
   0  -3   0    0.95    0.91
   0  -3   0    0.42    1.11
   0  -3   0    0.05    0.81
   0  -3   0    0.01    0.83
   0  -3   0    2.71    0.82
   0  -3  -1  230.10    6.90
   0  -3  -1  225.98    7.33
   0  -3  -1  224.23    5.22
   0  -3   1  229.20    6.27
   0  -3   1  234.23    7.00
   0  -3   1  236.51    6.57
   0  -3  -1  227.53    7.15
   0  -3   1  233.90    7.61
   0  -3   1  222.32    6.02
   0  -3   2  800.55   13.48
   0  -3   2  783.68   13.01
   0  -3  -2  748.12   16.73
   0  -3  -2  817.92   13.24
   0  -3   2  781.98   13.86
   0  -3  -2  783.38    8.86
   0  -3  -2  813.60   13.68
   0  -3  -2  778.59   14.29
   0  -3   3   14.06    2.55
   0  -3  -3   10.50    2.45
   0  -3  -3   11.83    3.13
   0  -3  -3   15.01    1.36
   0  -3   3   11.35    2.04
   0  -3  -4  140.56    7.21
   0  -3  -4  135.30    7.94
   0  -3   4  132.15    6.45
   0  -3  -4  135.06    3.93
   0  -3   5   22.83    1.67
   0  -3  -5   21.22    1.79
   0  -3  -5   17.18    3.69
   0  -3  -5   21.94    3.40
   0  -3   5   20.53    3.12
   0  -3  -6  178.13   10.14
   0  -3   6  184.26    8.47
   0  -3   6  179.07    5.29
   0  -3  -6  184.76    5.49
   0  -3   7  104.64    4.79
   0  -3  -7  100.45    8.28
   0  -3   7  107.66    7.11
   0  -3  -7  111.16    4.72
   0  -3   8   65.06    6.20
   0  -3  -8   60.36    6.93
   0  -3   8   60.58    4.27
   0  -3   9   21.02    4.54
   0  -3  -9   19.06    4.79
   0  -3  10   59.68    6.57
   0  -3 -10   65.05    7.78
   0  -3  11   29.44    5.54
   0  -3 -11   34.63    6.59
   0  -3 -12   25.94    6.74
   0  -3  12   30.39    5.62
   0  -3  13    0.47    2.98
   0  -2   0 2093.53   17.47
   0  -2   0 2093.37   14.05
   0  -2   0 2172.06   16.63
   0  -2   0 2093.95   19.12
   0  -2   0 2183.39   14.92
   0  -2   0 2039.35   15.65
   0  -2   1  119.44    4.06
   0  -2   1  110.35    3.17
   0  -2   1  113.43    3.92
   0  -2  -1  114.90    4.11
   0  -2   1  114.04    3.77
   0  -2  -1  113.15    2.95
   0  -2  -1  110.20    5.23
   0  -2   1  106.86    4.08
   0  -2  -1  115.41    4.07
   0  -2  -2 2686.97   23.03
   0  -2   2 2748.87   21.51
   0  -2  -2 2731.28   26.50
   0  -2  -3  501.45   10.70
   0  -2   3  495.00    9.77
   0  -2   3  472.76    5.05
   0  -2  -3  483.94    6.26
   0  -2  -3  484.18   11.65
   0  -2   4  429.11    9.74
   0  -2   4  414.66    6.22
   0  -2  -4  433.03   10.73
   0  -2  -4  427.25   11.58
   0  -2  -5   46.45    1.77
   0  -2   5   42.24    2.53
   0  -2  -5   50.27    4.53
   0  -2  -5   49.32    4.15
   0  -2   5   49.78    3.82
   0  -2  -6  117.92    7.35
   0  -2  -6  122.66    3.38
   0  -2   6  116.22    4.76
   0  -2   6  112.05    6.03
   0  -2  -7  248.73   10.97
   0  -2  -7  277.02    5.74
   0  -2   7  263.92    7.97
   0  -2   7  275.24    9.90
   0  -2  -8   35.60    5.03
   0  -2   8   36.04    4.31
   0  -2   8   35.79    3.58
   0  -2  -8   39.91    2.54
   0  -2   9   95.65    5.95
   0  -2  -9   87.35    7.89
   0  -2   9   88.15    6.84
   0  -2 -10    0.66    4.06
   0  -2  10    1.16    3.05
   0  -2  11   24.45    4.76
   0  -2 -11   28.91    6.54
   0  -2  12   -1.06    4.07
   0  -2 -12    6.66    5.18
   0  -2  13   10.90    4.92
   0  -1  -2 9660.79   36.34
   0  -1  -2 9841.48   34.69
   0  -1   2 9723.34   31.21
   0  -1  -2 9595.59   33.25
   0  -1  -3  883.25   11.78
   0  -1   3  848.43   10.38
   0  -1  -3  871.52    6.36
   0  -1  -3  842.91   11.99
   0  -1  -4  415.13    5.56
   0  -1  -4  413.99    9.29
   0  -1  -4  421.39    9.06
   0  -1   4  409.52    8.11
   0  -1   4  401.59    7.03
   0  -1   4  409.04    4.43
   0  -1  -5  215.88    4.77
   0  -1   5  230.61    6.70
   0  -1  -5  215.50    7.39
   0  -1   5  213.47    6.01
   0  -1   5  223.96    3.99
   0  -1   6  310.78    5.34
   0  -1  -6  300.50    6.35
   0  -1   6  307.73    8.18
   0  -1   6  306.47    8.56
   0  -1  -6  312.01    9.69
   0  -1   7  299.61    9.25
   0  -1  -7  292.94   10.39
   0  -1   7  305.82    5.91
   0  -1  -7  293.84    6.99
   0  -1   7  294.49    8.86
   0  -1  -8   75.16    6.03
   0  -1   8   87.74    5.68
   0  -1   8   85.32    5.45
   0  -1  -8   84.96    4.21
   0  -1  -9   32.76    4.71
   0  -1  -9   35.16    3.04
   0  -1   9   34.51    4.07
   0  -1   9   34.17    4.28
   0  -1  10    6.75    2.70
   0  -1  10    8.61    3.17
   0  -1 -10    3.59    3.46
   0  -1  11   11.79    3.74
   0  -1  11   15.67    3.97
   0  -1 -11    7.86    4.28
   0  -1  12    0.60    3.26
   0  -1 -12    1.38    4.05
   0  -1  13    1.24    3.67
   0  -1 -13   -2.09    3.53
   0   0  -2  729.80    6.39
   0   0  -2  710.23    6.59
   0   0   3    8.94    0.94
   0   0   3    7.73    0.92
   0   0  -3    8.44    0.98
   0   0  -3    8.33    1.03
   0   0  -4  109.12    3.64
   0   0   4  105.69    3.46
   0   0  -5  128.47    4.48
   0   0  -6    7.66    1.57
   0   0   6    2.27    1.54
   0   0  -7   81.18    4.38
   0   0  -7   73.65    4.70
   0   0   7   78.59    5.06
   0   0  -8  151.16    7.25
   0   0   8  159.94    7.66
   0   0  -8  161.84    6.39
   0   0   8  162.88    6.96
   0   0  -9   13.85    3.23
   0   0  -9   18.12    2.86
   0   0   9   15.34    3.15
   0   0   9   16.25    3.05
   0   0 -10   40.27    5.00
   0   0 -10   38.99    4.02
   0   0  10   42.67    4.95
   0   0  10   43.03    4.81
   0   0  11   -3.69    2.84
   0   0  11   -0.76    2.52
   0   0 -11   -4.59    3.09
   0   0  12   -1.85    2.64
   0   0 -12    4.47    3.68
   0   0  12    3.87    3.21
   0   0 -13   -1.84    4.09
   0   1  -3  880.42   10.51
   0   1   3  834.37    6.30
   0   1  -4  422.59    8.14
   0   1   4  422.20    5.74
   0   1  -5  221.79    6.58
   0   1   5  230.26    5.07
   0   1  -6  300.54    8.39
   0   1   6  327.85    7.94
   0   1  -7  309.90    9.00
   0   1   7  306.88   10.17
   0   1   7  306.53    8.33
   0   1  -8   89.22    5.39
   0   1   8   89.51    6.16
   0   1   9   38.55    4.81
   0   1  -9   35.67    3.98
   0   1  10    6.39    3.01
   0   1 -10    7.68    2.67
   0   1 -10    8.28    2.68
   0   1  11   12.00    3.04
   0   1 -11   11.39    3.59
   0   1 -11    9.84    2.75
   0   1  11   12.76    4.31
   0   1 -12    2.14    3.39
   0   1  12   -4.35    3.06
   0   1  12    7.69    3.44
   0   1  13    4.16    3.62
   0   1 -13    4.02    3.01
   0   1  14   -5.49    4.60
   0   2   0 2101.22   13.42
   0   2   0 2091.13   15.37
   0   2   1  116.85    4.17
   0   2  -1  112.15    3.61
   0   2  -1  115.33    3.70
   0   2   1  108.53    3.15
   0   2  -1  112.53    3.04
   0   2   1  111.22    2.56
   0   2   2 2861.85   13.40
   0   2   2 2789.37   20.40
   0   2  -2 2741.19   19.66
   0   2  -2 2762.87   18.59
   0   2  -2 2833.94   11.51
   0   2   2 2854.53   22.32
   0   2  -3  496.45    9.23
   0   2  -4  432.68    9.37
   0   2   5   43.14    1.64
   0   2  -5   44.04    3.49
   0   2  -6  116.27    5.83
   0   2  -7  268.43    9.23
   0   2   7  288.49    8.70
   0   2   7  290.73   10.45
   0   2   8   34.10    3.94
   0   2   8   37.17    4.49
   0   2  -8   37.42    4.15
   0   2   9   90.53    7.24
   0   2   9   97.51    5.94
   0   2  -9   79.89    6.06
   0   2  10    2.92    3.30
   0   2 -10   -0.05    2.70
   0   2  11   32.47    5.62
   0   2 -11   27.86    4.39
   0   2  12   -6.22    3.61
   0   2 -12    3.81    2.71
   0   2  13    9.51    4.71
   0   3   0    0.30    0.72
   0   3   0    0.57    0.71
   0   3   1  231.01    6.54
   0   3   1  222.32    4.78
   0   3  -1  221.74    3.55
   0   3  -1  224.63    6.26
   0   3  -1  217.90    6.11
   0   3  -2  787.69    8.97
   0   3  -2  748.34   11.28
   0   3  -2  745.62   11.79
   0   3   2  773.92    7.35
   0   3  -3   12.28    2.18
   0   3   3   12.69    0.76
   0   3  -3   10.94    0.93
   0   3  -4  134.48    5.94
   0   3  -5   19.75    2.92
   0   3  -6  178.43    7.81
   0   3   6  189.75    7.57
   0   3   7  103.71    6.87
   0   3   7  108.64    6.02
   0   3  -7  105.02    6.60
   0   3   8   64.99    6.03
   0   3  -8   62.64    5.62
   0   3   8   64.80    5.13
   0   3  -9   11.05    3.65
   0   3   9   19.23    3.59
   0   3   9   17.72    4.28
   0   3 -10   56.16    6.19
   0   3  10   64.49    7.10
   0   3  10   60.89    5.56
   0   3  11   25.37    5.33
   0   3 -11   25.14    4.97
   0   3  12   24.09    5.68
   0   3 -12   35.62    5.10
   0   3  13   -0.44    4.14
   0   4   0  123.02    4.72
   0   4   0  124.97    5.55
   0   4  -1   56.24    2.35
   0   4  -1   58.14    3.77
   0   4  -1   61.76    3.76
   0   4   1   57.35    3.01
   0   4   1   62.08    4.01
   0   4  -2   44.85    3.30
   0   4   2   42.99    2.32
   0   4  -2   41.53    3.44
   0   4  -3  258.99    8.36
   0   4   3  247.10    4.32
   0   4   3  271.12    6.16
   0   4  -3  256.29    5.44
   0   4  -3  252.95    7.36
   0   4  -4  148.25    3.22
   0   4  -4  159.97    7.19
   0   4   5  406.40   11.60
   0   4  -5  381.37   11.41
   0   4   6  203.10    9.29
   0   4   6  212.12    8.64
   0   4  -6  205.62    9.05
   0   4  -7   27.56    4.33
   0   4   7   20.04    4.15
   0   4   7   26.24    4.23
   0   4   8  105.25    6.71
   0   4  -8  103.95    7.50
   0   4   8   99.38    7.70
   0   4  -9   87.86    7.46
   0   4   9  102.95    8.37
   0   4   9  100.97    6.71
   0   4  10   52.77    6.70
   0   4 -10   49.02    6.18
   0   4  10   53.37    5.38
   0   4  11   37.72    6.08
   0   4  11   40.32    5.38
   0   4 -11   24.69    5.03
   0   4  12    5.22    4.45
   0   4 -12   10.76    4.58
   0   4 -13    2.87    3.72
   0   5   0    0.15    1.47
   0   5   0    0.89    1.25
   0   5   0   -0.88    2.50
   0   5   0   -1.02    1.19
   0   5   1  244.44    8.93
   0   5  -1  239.44    8.24
   0   5   1  239.71    6.74
   0   5   1  257.28   11.15
   0   5  -1  249.00    5.69
   0   5   1  242.50    7.21
   0   5  -1  235.96    7.96
   0   5  -2  304.46    8.89
   0   5  -2  299.64    4.86
   0   5   2  288.67    9.93
   0   5   2  296.03    6.72
   0   5   2  311.55   12.46
   0   5  -2  284.41    9.28
   0   5  -3  212.74    7.36
   0   5   3  196.99    4.81
   0   5   3  205.88    9.03
   0   5  -3  184.41    7.90
   0   5   4   93.66    2.64
   0   5  -4   94.12    6.09
   0   5   4  105.72    3.83
   0   5   4  110.65    6.94
   0   5   5  118.71    7.13
   0   5  -5  121.95    7.22
   0   5   5  122.68    7.32
   0   5  -6   49.90    5.34
   0   5   6   50.72    5.22
   0   5   6   51.51    5.24
   0   5   7   10.47    4.14
   0   5  -7   18.94    4.33
   0   5   7   16.03    4.11
   0   5   8   81.98    6.76
   0   5  -8  100.73    7.75
   0   5   8   86.46    7.43
   0   5  -9   16.24    4.40
   0   5   9   24.70    5.27
   0   5   9   14.13    3.74
   0   5  10   22.56    4.26
   0   5 -10   18.63    4.48
   0   5  10   15.47    4.95
   0   5  11    4.01    3.45
   0   5 -11    1.50    3.39
   0   5  11   -0.81    3.27
   0   5 -12   14.18    4.89
   0   6   0  240.09    8.15
   0   6   0  246.01    9.58
   0   6   0  246.03    7.38
   0   6   0  239.11   11.76
   0   6   1  201.26    7.31
   0   6   1  204.18   11.07
   0   6  -1  193.88    7.90
   0   6  -1  203.36    5.97
   0   6   1  193.46    6.80
   0   6   1  203.86    9.13
   0   6  -1  199.43   10.65
   0   6  -1  201.83    8.33
   0   6  -2   64.25    6.04
   0   6  -2   71.69    2.91
   0   6   2   69.65    5.62
   0   6   2   68.56    3.91
   0   6  -2   76.00    5.44
   0   6   2   69.80    4.87
   0   6   2   68.14    7.05
   0   6  -2   65.60    4.59
   0   6   3  292.73   13.41
   0   6   3  307.73   10.39
   0   6   3  284.40   11.12
   0   6  -3  303.37    9.28
   0   6  -3  300.43   12.09
   0   6  -3  300.95   10.72
   0   6   3  317.32   12.12
   0   6   3  289.79    6.83
   0   6  -4   46.15    5.06
   0   6   4   52.22    5.11
   0   6   4   44.64    5.54
   0   6   4   51.05    5.36
   0   6   5   55.75    5.84
   0   6  -5   55.37    5.92
   0   6   5   58.85    5.64
   0   6   6   19.77    4.23
   0   6   6   12.41    3.39
   0   6  -6    9.06    3.59
   0   6  -7   -0.94    3.48
   0   6   7    1.13    2.60
   0   6   7    2.28    3.65
   0   6   8   -0.33    3.68
   0   6  -8    0.27    3.17
   0   6   8    2.63    2.74
   0   6   9    5.97    3.48
   0   6   9    5.06    3.68
   0   6  -9    5.03    3.67
   0   6 -10   -0.59    3.44
   0   6  10    3.30    2.96
   0   6  10    0.41    3.42
   0   6 -11   11.63    4.81
   0   7   0    0.04    2.20
   0   7   0   -0.44    1.80
   0   7   0    0.01    2.13
   0   7  -1  277.28   10.12
   0   7   1  287.40    9.47
   0   7   1  260.91    8.65
   0   7  -1  277.68   13.44
   0   7  -1  281.18   10.38
   0   7   1  272.05   11.37
   0   7  -2   29.30    4.40
   0   7   2   27.16    3.67
   0   7   2   25.75    3.01
   0   7   2   29.83    5.64
   0   7  -2   21.91    5.03
   0   7   2   31.35    4.15
   0   7   3  146.71    7.81
   0   7   3  149.32    9.27
   0   7  -3  164.26    9.87
   0   7   3  157.80   11.02
   0   7  -3  149.69    8.44
   0   7   3  151.91    9.25
   0   7  -4   65.73    6.05
   0   7   4   66.55    7.44
   0   7   4   76.04    6.81
   0   7   4   64.96    5.73
   0   7   4   71.96    6.78
   0   7   5   60.20    6.22
   0   7   5   48.06    5.26
   0   7  -5   53.38    6.15
   0   7   5   47.45    5.73
   0   7   6   33.85    5.06
   0   7  -6   33.72    5.11
   0   7   6   36.92    5.33
   0   7  -7    0.20    3.67
   0   7   7    0.02    2.78
   0   7   7    2.84    2.73
   0   7  -8    5.95    3.83
   0   7   8    0.49    2.88
   0   7   8    0.42    3.65
   0   7   9    2.36    3.59
   0   7  -9   -0.52    3.91
   0   7   9    3.29    3.65
   0   8   0  276.32   14.97
   0   8   0  240.53    9.69
   0   8  -1   33.95    4.53
   0   8  -1   37.84    6.18
   0   8   1   39.41    4.10
   0   8   1   36.65    6.77
   0   8   2   28.03    5.93
   0   8  -2   30.89    4.78
   0   8   2   30.71    4.09
   0   8  -2   30.27    5.63
   0   8   3   47.48    7.10
   0   8  -3   53.07    6.64
   0   8   3   48.78    5.95
   0   8   3   48.66    5.14
   0   8  -3   49.80    5.76
   0   8  -4   15.97    4.42
   0   8   4   16.80    3.65
   0   8   4    6.50    3.85
   0   8   4   10.58    4.06
   0   8  -5   27.54    5.26
   0   8   5   31.70    5.11
   0   8   5   20.82    4.20
   0   8   5   27.34    5.63
   0   8  -6    4.11    3.23
   0   8   6    1.80    2.69
   0   8   6   -0.37    3.34
   0   8   6    2.50    3.71
   0   8   7   -3.90    4.25
   0   8   7    0.58    2.84
   0   8  -7    6.32    4.25
   0   8   8   19.15    4.76
   0   8  -8   10.83    4.69
   0   8   8   15.13    5.07
   0   9   0    4.37    2.80
   0   9   0   -4.24    3.15
   0   9  -1   21.18    4.02
   0   9   1   12.50    4.28
   0   9  -1   26.48    5.34
   0   9  -2   58.52    6.17
   0   9   2   63.71    8.24
   0   9  -2   56.27    7.26
   0   9   3   17.56    4.69
   0   9  -3   18.69    4.51
   0   9   3   23.78    5.06
   0   9   4    2.04    2.83
   0   9   4    2.20    2.64
   0   9   4    7.31    3.95
   0   9  -4    3.61    3.56
   0   9   5   23.49    4.52
   0   9   5   21.62    5.27
   0   9  -5   21.74    4.99
   0   9   5   29.61    6.15
   0   9   6   16.41    4.21
   0   9   6    4.11    3.44
   0   9   6    8.76    4.18
   0   9  -6    6.60    3.87
   0   9   7   10.60    3.72
   0   9   7    2.11    2.74
   0  10   0   16.36    4.40
   0  10   1    0.37    2.88
   0  10  -1    0.72    3.22
   0  10   2   11.64    3.81
   0  10  -2   29.36    5.51
   0  10   2   17.63    5.23
   0  10  -2   16.25    4.29
   0  10   3   42.31    7.32
   0  10  -3   37.23    5.98
   0  10   3   37.19    6.19
   0  10   4   -6.78    3.73
   0  10  -4   -2.04    3.43
   0  10  -5    7.54    4.54
   0  10   5    3.16    3.47
   0  10   6   -2.46    1.80
   0  11   1    8.03    3.53
   0  11   2   12.08    4.35
   0  11  -3    4.36    3.57
   1 -11  -2   -6.21    6.59
   1 -11  -1   19.04    6.32
   1 -11   0    7.67    6.54
  -1 -10   4   32.51    8.17
   1 -10  -3   -0.84    4.72
  -1 -10   3    1.92    4.99
  -1 -10   2   -5.56    5.07
   1 -10  -2   -1.27    4.98
   1 -10  -1    2.64    4.80
  -1 -10   1   -2.94    3.86
  -1 -10   0    3.39    4.90
   1 -10   0    1.88    4.11
   1 -10   1   10.73    5.59
  -1 -10  -1    7.52    5.23
   1 -10   2   -1.15    4.86
  -1 -10  -2    1.10    4.70
   1 -10   3   11.69    6.26
  -1  -9   8   14.99    7.91
  -1  -9   7    6.20    5.99
  -1  -9   6   13.95    6.69
  -1  -9   6    5.90    5.59
  -1  -9   5   30.53    7.09
  -1  -9   5   39.29    8.17
   1  -9  -4    1.97    3.97
  -1  -9   4    7.11    4.61
   1  -9  -3    7.95    4.71
  -1  -9   3   -2.41    4.31
  -1  -9   3    2.78    4.66
  -1  -9   2   -1.78    4.96
  -1  -9   2    5.03    3.82
   1  -9  -2    5.21    4.30
   1  -9  -1   34.26    6.82
  -1  -9   1   30.32    6.11
  -1  -9   1   38.20    7.07
  -1  -9   0    7.32    4.27
   1  -9   0   22.32    5.77
  -1  -9   0   22.67    5.68
   1  -9   1    5.12    4.34
  -1  -9  -1    6.00    4.05
  -1  -9  -2    7.07    4.59
   1  -9   2    0.41    4.42
  -1  -9  -3    3.61    4.25
   1  -9   3    0.95    4.11
   1  -9   4    5.14    4.43
   1  -9   5   19.62    6.81
   1  -9   6    0.13    5.58
  -1  -8   9   22.54    6.50
  -1  -8   8   12.54    5.17
  -1  -8   8   -1.30    4.72
  -1  -8   7   25.22    6.75
  -1  -8   7   18.80    6.67
  -1  -8   6   16.50    5.81
  -1  -8   6   10.94    5.33
  -1  -8   5    3.41    4.38
  -1  -8   5   -0.45    4.66
   1  -8  -4   21.55    4.95
  -1  -8   4   28.58    6.39
  -1  -8   4   29.01    6.39
  -1  -8   3   49.43    7.01
   1  -8  -3   40.44    6.17
   1  -8  -3   49.73    7.86
  -1  -8   3   52.66    7.30
   1  -8  -2   14.99    5.22
   1  -8  -2    9.11    3.02
   1  -8  -2   10.70    4.23
  -1  -8   2   11.35    4.16
  -1  -8   2   10.46    4.60
   1  -8  -1   95.50    7.00
   1  -8  -1   94.90    9.08
  -1  -8   1   91.62    8.84
   1  -8  -1   78.79    8.10
  -1  -8   1   89.95    9.03
   1  -8   0   12.61    3.67
  -1  -8   0    8.99    4.34
  -1  -8   0   11.38    4.48
   1  -8   0   10.27    4.44
   1  -8   1   44.83    6.90
  -1  -8  -1   46.71    6.32
  -1  -8  -1   56.28    7.51
  -1  -8  -2   27.56    6.05
  -1  -8  -2   36.18    5.85
   1  -8   2   40.38    6.66
  -1  -8  -3    2.31    3.90
  -1  -8  -3    7.73    4.00
   1  -8   3   12.09    4.37
   1  -8   3    5.76    4.76
   1  -8   4   10.12    4.25
   1  -8   4    5.66    4.61
   1  -8   5    8.07    4.46
   1  -8   5    9.74    5.10
   1  -8   6   -2.10    5.00
   1  -8   6   -0.73    4.44
   1  -8   7   -0.79    4.58
   1  -8   7   11.24    5.42
   1  -8   8    3.54    5.16
   1  -8   9    5.70    5.04
   1  -7 -10    8.32    7.18
  -1  -7  10   14.64    5.67
  -1  -7  10   21.83    6.79
   1  -7  -9    8.20    5.14
  -1  -7   9    6.81    4.59
  -1  -7   9    0.76    5.03
   1  -7  -8   10.42    5.57
  -1  -7   8   10.88    5.08
  -1  -7   8    7.59    4.88
  -1  -7   7    7.81    4.27
   1  -7  -7    8.25    4.94
  -1  -7   7    9.05    4.27
   1  -7  -6    6.39    4.93
  -1  -7   6    5.77    3.98
  -1  -7   6    2.05    4.17
   1  -7  -5    9.97    4.67
  -1  -7   5   19.47    4.99
  -1  -7   5   12.33    4.40
  -1  -7   4    2.29    3.51
   1  -7  -4   -0.81    4.60
  -1  -7   4   -4.50    4.34
   1  -7  -4   -0.41    2.57
   1  -7  -3   76.21    7.85
  -1  -7   3   76.94    8.12
   1  -7  -3   77.57    7.12
  -1  -7   3   78.93    7.89
   1  -7  -3   73.11    5.25
  -1  -7   2  199.58   11.91
   1  -7  -2  185.91   10.43
   1  -7  -2  203.38    8.76
   1  -7  -2  221.66   12.06
  -1  -7   2  197.84   11.69
   1  -7  -2  189.06    8.55
  -1  -7   1   15.87    4.45
   1  -7  -1   18.80    3.50
   1  -7  -1   13.93    3.29
   1  -7  -1   22.60    4.83
  -1  -7   1   17.11    4.73
   1  -7  -1   19.03    4.35
  -1  -7   0   28.53    5.33
   1  -7   0   35.50    5.21
   1  -7   0   37.35    4.65
  -1  -7   0   29.78    5.25
   1  -7   0   39.38    5.48
   1  -7   0   41.78    4.87
   1  -7   1  316.52   12.17
   1  -7   1  302.37   12.09
   1  -7   1  301.37   13.88
  -1  -7  -1  311.20   14.33
  -1  -7  -1  297.43   13.48
   1  -7   1  317.93   12.39
  -1  -7  -2  268.99   13.45
   1  -7   2  276.93   11.05
   1  -7   2  281.01   11.86
  -1  -7  -2  238.09   12.03
   1  -7   2  251.75   11.55
   1  -7   2  254.17   13.11
   1  -7   3   -1.51    2.80
   1  -7   3    5.46    4.26
  -1  -7  -3    1.47    3.29
  -1  -7  -3    1.86    3.74
   1  -7   4    2.16    2.92
   1  -7   4    6.21    3.37
   1  -7   5   60.82    7.88
   1  -7   5   55.68    6.64
   1  -7   6   22.23    5.79
  -1  -7  -6   14.57    5.24
   1  -7   6   18.28    4.80
   1  -7   7    1.37    3.62
  -1  -7  -7   -3.97    5.32
   1  -7   7    7.24    4.04
  -1  -7  -8   -0.30    4.44
   1  -7   8    0.63    3.40
   1  -7   8    2.13    3.85
   1  -7   9    5.45    5.49
  -1  -7  -9   -1.11    6.65
   1  -7   9    1.48    4.96
   1  -7  10   11.01    5.04
  -1  -6  11   25.61    6.79
  -1  -6  11   20.86    6.83
   1  -6 -11   16.63    7.25
  -1  -6  10    6.08    4.37
  -1  -6  10    1.04    4.36
   1  -6 -10   -5.91    4.45
  -1  -6   9   13.70    5.15
   1  -6  -9   12.42    5.21
  -1  -6   9   10.04    4.65
  -1  -6   8    1.85    3.89
  -1  -6   8    9.05    4.78
   1  -6  -8   -5.55    4.17
  -1  -6   7   70.93    7.83
   1  -6  -7   56.99    8.91
  -1  -6   7   71.29    8.02
   1  -6  -7   78.84    8.64
  -1  -6   6   77.08    8.02
   1  -6  -6   70.56    8.91
  -1  -6   6   65.31    7.17
   1  -6  -6   71.67    8.19
   1  -6  -5  128.36    9.80
  -1  -6   5  118.73    9.15
  -1  -6   5  137.61    9.94
   1  -6  -4   94.59    6.83
   1  -6  -4  105.02    5.52
  -1  -6   4   99.50    8.41
   1  -6  -4  100.79    8.51
  -1  -6   4   96.33    8.08
  -1  -6   3   14.02    4.04
   1  -6  -3   17.37    4.43
   1  -6  -3   13.54    2.41
  -1  -6   3   21.59    4.19
   1  -6  -3   18.60    3.44
   1  -6  -2   15.89    2.80
   1  -6  -2   20.24    4.45
   1  -6  -2   14.31    3.55
  -1  -6   2   14.75    3.86
  -1  -6   2   16.20    4.14
   1  -6  -2   13.36    2.64
   1  -6  -1   96.27    6.94
  -1  -6   1   84.62    7.22
   1  -6  -1   98.85    5.92
   1  -6  -1  108.61    7.60
  -1  -6   1   95.15    7.48
   1  -6  -1   96.97    6.01
   1  -6   0  330.13   11.93
  -1  -6   0  302.90   12.85
   1  -6   0  332.93   11.02
   1  -6   0  307.43   10.58
   1  -6   0  306.30   12.28
  -1  -6   0  308.50   12.74
   1  -6   1  130.85    7.32
  -1  -6  -1  132.41    8.88
   1  -6   1  144.27    7.62
  -1  -6  -1  120.87    8.21
   1  -6   1  133.80    7.47
   1  -6   1  136.72    8.67
   1  -6   2  236.41   11.28
  -1  -6  -2  251.18   11.81
   1  -6   2  262.69    9.43
  -1  -6  -2  243.01   11.30
   1  -6   2  235.76   10.21
   1  -6   2  254.60   10.55
  -1  -6  -3  405.49   14.63
   1  -6   3  400.71   10.90
   1  -6   3  382.79   13.33
   1  -6   3  366.19   13.01
   1  -6   3  398.91   15.04
   1  -6   4  273.64   11.80
   1  -6   4  282.11   13.27
  -1  -6  -5   53.21    8.22
   1  -6   5   67.07    7.22
   1  -6   5   66.16    6.65
   1  -6   6   31.87    5.38
   1  -6   6   21.53    5.10
  -1  -6  -6   19.92    6.27
   1  -6   7    8.69    4.29
   1  -6   7    1.29    3.85
  -1  -6  -8    2.76    4.57
   1  -6   8    0.67    3.56
   1  -6   8    1.45    4.13
   1  -6   9    0.94    3.28
  -1  -6  -9    2.07    4.81
   1  -6   9    9.15    4.85
  -1  -6 -10   41.64    9.83
   1  -6  10   42.22    7.51
   1  -6  10   34.14    6.92
  -1  -5  12   -2.80    3.81
   1  -5 -12   -1.14    5.23
  -1  -5  11    0.65    3.79
  -1  -5  11    5.83    4.14
   1  -5 -11   -5.76    4.80
   1  -5 -10   20.56    6.37
  -1  -5  10   38.86    7.04
  -1  -5  10   29.09    5.65
  -1  -5   9   33.72    6.61
   1  -5  -9   28.73    6.43
  -1  -5   9   27.58    5.66
   1  -5  -8  150.64   12.58
  -1  -5   8  164.92   11.41
  -1  -5   8  152.41   10.67
   1  -5  -8  166.56   11.24
  -1  -5   7   95.57    8.47
  -1  -5   7   94.57    8.38
   1  -5  -7  111.70    9.14
   1  -5  -7   91.17    9.43
  -1  -5   6   20.91    4.55
   1  -5  -6   21.19    2.56
  -1  -5   6   21.65    4.50
   1  -5  -6   18.24    4.21
   1  -5  -6   18.82    5.05
  -1  -5   5   56.63    5.95
   1  -5  -5   59.50    4.09
   1  -5  -5   67.19    7.43
   1  -5  -5   55.65    6.13
  -1  -5   5   53.02    5.96
   1  -5  -4  118.42    5.56
   1  -5  -4  128.73    8.49
   1  -5  -4  116.04    9.06
   1  -5  -4  125.90    6.81
  -1  -5   4  110.53    7.74
  -1  -5   4  115.45    8.04
   1  -5  -3  406.77   10.26
  -1  -5   3  397.35   13.72
  -1  -5   3  412.89    9.73
  -1  -5   3  396.64   14.02
   1  -5  -3  392.05   11.81
   1  -5  -3  424.63   13.96
   1  -5  -2  518.19   11.26
   1  -5  -2  504.70   13.32
   1  -5  -2  506.99   14.85
  -1  -5   2  510.77    8.89
  -1  -5   2  531.94   15.48
   1  -5  -2  503.26   11.71
  -1  -5   2  473.69   14.91
   1  -5  -1  243.68    8.03
   1  -5  -1  224.92    9.40
   1  -5  -1  221.04    8.97
  -1  -5   1  237.34   10.47
  -1  -5   1  238.15   10.34
   1  -5  -1  239.79    8.35
   1  -5   0  244.68    9.73
  -1  -5   0  228.78   10.08
   1  -5   0  244.75    9.05
   1  -5   0  242.56    8.34
   1  -5   0  234.99    8.65
  -1  -5   0  229.51   10.02
  -1  -5  -1  124.01    7.55
   1  -5   1  118.00    7.22
   1  -5   1  118.20    6.02
  -1  -5  -1  128.64    7.79
   1  -5   1  124.21    6.34
   1  -5   1  122.85    6.65
   1  -5   2  315.23   10.71
   1  -5   2  308.06   10.19
  -1  -5  -2  330.72   12.09
   1  -5   2  304.48    8.98
   1  -5   2  287.77   11.20
  -1  -5  -2  292.35   11.28
  -1  -5  -3   76.78    7.80
   1  -5   3   75.79    5.92
   1  -5   3   75.16    5.56
  -1  -5  -3   73.90    6.09
   1  -5   3   75.86    4.21
   1  -5   3   68.07    5.97
  -1  -5  -4  298.00   15.28
   1  -5   4  287.75   11.95
   1  -5   4  296.80    7.23
   1  -5   4  312.72   11.24
  -1  -5  -5   31.44    6.17
   1  -5   5   31.57    4.64
   1  -5   5   32.95    5.26
  -1  -5  -6  349.94   17.87
   1  -5   6  342.75   14.24
   1  -5   7   71.44    7.47
  -1  -5  -7   50.41    8.16
  -1  -5  -8   -2.88    5.18
   1  -5   8    9.56    4.14
   1  -5   9   71.40    8.37
  -1  -5  -9   40.60    7.95
   1  -5  10    5.44    4.31
  -1  -5 -10   -1.10    5.53
  -1  -5 -11    0.81    5.87
   1  -5  11    4.56    4.25
  -1  -4  13   -1.03    3.80
   1  -4 -12   10.70    5.41
  -1  -4  12   18.18    5.69
  -1  -4  12   18.68    5.94
  -1  -4  11   -0.19    3.73
   1  -4 -11   -8.13    4.27
  -1  -4  11    1.22    2.79
  -1  -4  10  148.01   10.36
  -1  -4  10  166.33   11.69
   1  -4 -10  140.24   12.06
   1  -4  -9  121.53   10.83
  -1  -4   9  139.19    9.70
  -1  -4   9  140.46   10.37
  -1  -4   8   37.58    5.47
   1  -4  -8   49.39    6.36
  -1  -4   8   50.00    6.38
   1  -4  -8   46.66    6.85
   1  -4  -7  289.21    8.96
   1  -4  -7  312.29   13.27
   1  -4  -7  276.43   14.19
  -1  -4   7  270.70   11.93
  -1  -4   7  306.92   13.01
   1  -4  -6   14.56    2.29
   1  -4  -6   10.90    3.92
  -1  -4   6    7.14    3.01
   1  -4  -6   11.23    4.03
  -1  -4   6   12.54    3.53
   1  -4  -5   96.53    7.88
  -1  -4   5  113.51    7.48
   1  -4  -5  104.75    5.22
  -1  -4   5  112.06    7.36
   1  -4  -5  103.22    7.25
  -1  -4   4  287.74   10.94
  -1  -4   4  297.61   11.11
   1  -4  -4  313.02   11.29
   1  -4  -4  285.27   12.52
   1  -4  -4  306.75    8.45
   1  -4  -3   53.55    4.86
  -1  -4   3   64.54    5.30
   1  -4  -3   54.90    5.75
  -1  -4   3   58.03    3.50
  -1  -4   3   54.42    5.00
   1  -4  -3   56.78    4.09
   1  -4  -3   60.42    3.92
  -1  -4   2  306.05   10.70
   1  -4  -2  301.64    8.37
   1  -4  -2  292.09    9.83
   1  -4  -2  309.43    7.62
   1  -4  -2  301.82    8.97
  -1  -4   2  306.02    6.50
  -1  -4   2  311.51   10.68
   1  -4  -1 1315.74   19.03
   1  -4  -1 1339.96   19.25
  -1  -4   1 1307.87   21.24
   1  -4  -1 1333.18   17.91
   1  -4  -1 1304.18   15.84
  -1  -4   1 1283.29   21.38
   1  -4   0  398.75   10.07
  -1  -4   0  388.32   11.71
  -1  -4   0  378.70   11.45
   1  -4   0  396.04    9.95
   1  -4   0  397.69   10.86
   1  -4   0  408.94    9.20
  -1  -4  -1   33.87    3.91
   1  -4   1   31.91    3.34
   1  -4   1   28.58    2.70
  -1  -4  -1   27.00    3.43
   1  -4   1   31.65    2.92
   1  -4   1   29.19    3.36
   1  -4   2  574.00   13.58
   1  -4   2  576.48   10.21
   1  -4   2  558.11   11.84
  -1  -4  -2  604.37   14.63
   1  -4   2  570.38   13.18
  -1  -4  -2  575.70   14.46
  -1  -4  -3   97.07    7.88
   1  -4   3  103.04    5.52
   1  -4   3  104.57    6.18
   1  -4   3   95.41    6.14
   1  -4   3   98.54    3.98
  -1  -4  -4  135.67    9.42
   1  -4   4  139.90    7.43
   1  -4   4  123.98    7.19
   1  -4   4  132.13    3.85
   1  -4   5   13.04    3.23
  -1  -4  -5   16.35    4.26
   1  -4   5   16.22    1.38
  -1  -4  -6    5.66    3.43
   1  -4   6    2.43    2.77
  -1  -4  -7  199.08   13.21
   1  -4   7  201.34   10.59
  -1  -4  -8  123.85   10.73
   1  -4   8  121.63    8.95
  -1  -4  -9   -0.63    3.89
   1  -4   9   18.73    4.88
   1  -4  10   35.19    6.03
  -1  -4 -10   23.49    6.94
   1  -4  11   20.54    4.94
  -1  -4 -11   -3.66    5.46
  -1  -3  13    7.70    4.76
   1  -3 -13    6.74    5.02
  -1  -3  12    3.92    3.51
   1  -3 -12   -0.96    3.81
   1  -3 -11   45.82    6.91
  -1  -3  11   38.91    5.80
   1  -3 -10    0.70    3.21
  -1  -3  10   -0.24    3.28
   1  -3  -9   79.61    7.99
  -1  -3   9   85.82    7.12
   1  -3  -8  123.00    6.17
  -1  -3   8  129.13    8.10
  -1  -3   8  119.05    5.12
   1  -3  -8  132.91    8.66
   1  -3  -7   94.75    7.64
  -1  -3   7   90.69    3.90
   1  -3  -7   94.26    5.14
  -1  -3   7   89.58    6.52
   1  -3  -7  102.86    7.41
   1  -3  -6  263.60    7.95
   1  -3  -6  265.62   10.64
   1  -3  -6  246.18   11.18
  -1  -3   6  266.78   10.09
   1  -3  -5  111.80    6.62
  -1  -3   5  106.55    3.35
   1  -3  -5  118.64    5.11
  -1  -3   5  116.60    6.45
  -1  -3   5  119.03    6.74
   1  -3  -5  103.16    7.05
   1  -3  -4  249.27    7.19
  -1  -3   4  229.91    4.04
  -1  -3   4  248.48    9.06
   1  -3  -4  242.83    8.89
  -1  -3   4  238.23    8.64
   1  -3  -4  223.46    9.66
   1  -3  -3 1906.39   22.92
  -1  -3   3 1938.14   17.87
  -1  -3   3 1885.23   23.63
   1  -3  -3 1849.73   26.59
  -1  -3   3 1885.15   22.99
   1  -3  -3 1872.49   19.23
   1  -3  -2 1726.06   17.90
  -1  -3   2 1681.76   10.43
   1  -3  -2 1744.06   20.37
  -1  -3   2 1715.42   21.94
  -1  -3   2 1714.79   21.80
   1  -3  -2 1700.90   18.35
  -1  -3   1  342.46    9.72
   1  -3  -1  347.03    8.50
  -1  -3   1  332.35    9.27
  -1  -3   1  339.88    5.68
   1  -3  -1  329.11    8.12
   1  -3  -1  325.39    8.06
   1  -3  -1  336.97    6.45
   1  -3   0  720.49   11.38
   1  -3   0  730.58   12.35
   1  -3   0  713.02    9.80
   1  -3   0  727.95   12.09
  -1  -3   0  696.75   13.43
  -1  -3   0  687.49   13.76
   1  -3   1  302.86    6.77
   1  -3   1  321.97    8.61
   1  -3   1  315.80    8.31
  -1  -3  -1  316.82    5.41
   1  -3   1  319.29    6.91
  -1  -3  -1  330.08    9.52
  -1  -3  -1  310.55    9.50
   1  -3   2   48.19    3.71
   1  -3   2   43.27    2.44
   1  -3   2   47.69    3.53
  -1  -3  -2   40.30    4.41
  -1  -3  -2   45.58    3.95
  -1  -3  -2   44.29    1.67
   1  -3   3  275.09    8.75
   1  -3   3  282.61    8.97
   1  -3   3  272.73    5.09
  -1  -3  -3  273.33   11.20
   1  -3   3  274.07    5.14
   1  -3   4  628.17   14.09
  -1  -3  -4  622.97   17.31
   1  -3   4  588.80   13.46
   1  -3   4  618.59    9.22
   1  -3   5  218.50    8.84
  -1  -3  -5  212.43   10.72
   1  -3   5  213.46    6.29
  -1  -3  -6  158.61    3.82
   1  -3   6  173.49    6.41
   1  -3   6  167.57    8.37
  -1  -3  -6  166.20   10.16
  -1  -3  -7   25.27    5.24
   1  -3   7   21.76    2.91
   1  -3   7   20.75    4.23
   1  -3   8   62.73    6.30
  -1  -3  -8   57.89    7.48
  -1  -3  -9   48.76    7.38
   1  -3   9   49.31    6.39
   1  -3  10   25.60    5.65
  -1  -3 -10   24.75    6.37
  -1  -3 -11    9.02    4.48
   1  -3  11   10.18    5.28
   1  -3  12   34.17    6.84
  -1  -3 -12   41.05    8.30
   1  -2 -13    9.02    4.33
  -1  -2  13    0.46    2.76
  -1  -2  12   -3.70    3.18
   1  -2 -12    1.96    3.54
   1  -2 -11    5.92    4.12
  -1  -2  11    3.61    3.02
  -1  -2  10   23.09    3.42
  -1  -2  10   16.41    3.94
   1  -2 -10   16.79    4.52
  -1  -2   9   58.37    4.45
   1  -2  -9   53.73    6.25
  -1  -2   9   58.04    5.44
   1  -2  -8   22.05    4.16
  -1  -2   8   21.86    3.44
   1  -2  -8   24.29    2.37
   1  -2  -8   32.01    4.25
   1  -2  -7  139.59    4.85
   1  -2  -7  141.38    7.61
  -1  -2   7  142.79    7.06
   1  -2  -7  128.25    7.76
   1  -2  -6  200.72    8.79
   1  -2  -6  202.13    5.32
  -1  -2   6  196.22    7.62
   1  -2  -6  204.48    8.31
   1  -2  -5    7.50    1.08
   1  -2  -5   10.01    2.32
  -1  -2   5    8.30    1.81
   1  -2  -5    6.15    1.32
   1  -2  -5   10.21    2.21
   1  -2  -4  939.18   16.35
   1  -2  -4  962.25   12.90
  -1  -2   4  969.91   14.88
  -1  -2   3   50.13    2.08
  -1  -2   3   54.36    3.49
   1  -2  -3   54.42    3.03
   1  -2  -3   50.49    3.72
   1  -2  -3   54.91    3.57
  -1  -2   3   57.64    3.75
   1  -2  -2 3559.14   19.52
  -1  -2   2 3475.20   26.82
   1  -2  -2 3354.10   27.81
  -1  -2   2 3467.60   25.45
   1  -2  -2 3368.67   23.29
   1  -2  -2 3500.29   24.61
  -1  -2   2 3508.35   16.43
  -1  -2   1  189.75    4.05
  -1  -2   1  190.35    6.26
   1  -2  -1  200.11    4.78
   1  -2  -1  191.55    5.18
   1  -2  -1  192.17    5.57
  -1  -2   0  719.86    7.83
  -1  -2   0  678.41   11.83
  -1  -2   0  694.17   11.23
   1  -2   0  688.47    8.76
   1  -2   0  703.85    6.91
   1  -2   0  687.86    9.38
   1  -2   0  684.63   10.73
  -1  -2   0  690.71    8.60
   1  -2   0  702.10   10.57
   1  -2   1  525.20    9.77
  -1  -2  -1  547.91   10.36
   1  -2   1  521.43    8.66
  -1  -2  -1  552.44    5.59
  -1  -2  -1  525.77   11.86
   1  -2   1  541.00    6.87
  -1  -2  -1  526.15   10.88
   1  -2   1  524.03    6.61
   1  -2   2  990.23    8.13
   1  -2   2  971.94   10.16
  -1  -2  -2  960.09   16.67
   1  -2   2  972.43   13.92
   1  -2   2  981.73   12.81
   1  -2   3 3295.64   26.99
   1  -2   3 3302.72   25.24
   1  -2   3 3241.83   21.04
   1  -2   3 3276.45   12.97
  -1  -2  -3 3290.31   32.28
  -1  -2  -4 1540.32   10.56
   1  -2   4 1481.49   16.09
   1  -2   4 1548.44   20.16
  -1  -2  -4 1540.60   23.33
   1  -2   4 1498.09   18.60
   1  -2   5  206.16    6.73
   1  -2   5  226.60    7.99
   1  -2   5  184.11    3.66
  -1  -2  -5  207.01    4.86
  -1  -2  -5  213.23    9.46
  -1  -2  -5  193.79    3.27
  -1  -2  -6   44.08    1.94
   1  -2   6   37.12    1.63
  -1  -2  -6   46.07    5.18
   1  -2   6   49.63    4.35
   1  -2   6   43.37    3.57
  -1  -2  -7    1.81    2.89
   1  -2   7    5.60    2.27
   1  -2   7    5.41    2.57
  -1  -2  -7    4.99    0.98
   1  -2   8   12.45    3.53
  -1  -2  -8    8.65    3.41
   1  -2   8   11.73    2.78
   1  -2   9   33.32    4.80
   1  -2   9   35.38    4.49
  -1  -2  -9   23.29    5.37
  -1  -2 -10  150.93   11.31
   1  -2  10  172.14   10.14
   1  -2  11    3.88    3.71
  -1  -2 -11    6.58    4.97
  -1  -2 -12   25.83    6.63
   1  -2  12   35.22    5.99
   1  -2  13   -0.82    3.89
   1  -1 -13    0.51    3.32
  -1  -1  12    4.98    3.24
   1  -1 -12    9.60    4.58
  -1  -1  11   45.29    5.02
   1  -1 -11   52.94    6.61
  -1  -1  11   48.16    5.52
  -1  -1  10  117.27    7.00
  -1  -1  10  105.39    7.00
   1  -1 -10   95.64    7.69
  -1  -1   9   45.65    4.48
   1  -1  -9   48.55    3.85
   1  -1  -9   34.75    4.58
   1  -1  -8   72.04    4.28
  -1  -1   8   73.96    5.05
   1  -1  -8   69.62    5.53
   1  -1  -8   65.10    4.95
   1  -1  -7  185.19    6.15
   1  -1  -7  186.36    7.61
  -1  -1   7  185.20    7.06
   1  -1  -7  171.79    7.45
   1  -1  -6  129.04    5.85
  -1  -1   6  131.20    5.48
   1  -1  -6  130.50    5.94
   1  -1  -6  134.70    4.79
   1  -1  -5  363.78    7.05
   1  -1  -5  368.77    8.88
  -1  -1   5  360.58    8.18
   1  -1  -5  352.37    8.74
   1  -1  -4 1161.65   11.40
   1  -1  -4 1173.56   14.42
   1  -1  -4 1172.20   14.28
  -1  -1   4 1155.17   13.28
  -1  -1   3 1119.44   12.03
   1  -1  -3 1138.33   10.37
   1  -1  -3 1102.15   12.49
   1  -1  -2  560.20    8.02
  -1  -1   2  567.46    8.15
  -1  -1   2  570.63    8.01
  -1  -1   2  574.76    8.96
   1  -1  -2  582.94    7.99
   1  -1  -2  557.62    8.13
  -1  -1   2  587.91    6.93
  -1  -1  -1 4387.52   25.35
  -1  -1  -1 4377.38   22.52
   1  -1   1 4310.56   23.81
  -1  -1  -1 4393.50   18.16
  -1  -1  -1 4566.28   27.24
   1  -1   1 4374.13   19.09
   1  -1   2 4942.75   24.90
   1  -1   2 4960.73   27.29
  -1  -1  -2 4925.71   17.44
   1  -1   3  963.96   12.10
   1  -1   3 1011.65   13.26
  -1  -1  -3 1056.29   14.67
  -1  -1  -3 1011.27    9.46
  -1  -1  -3 1007.62    8.27
  -1  -1  -4  288.46    5.97
  -1  -1  -4  279.59    8.31
  -1  -1  -4  284.92    5.07
   1  -1   4  284.94    7.29
  -1  -1  -5   73.64    2.94
  -1  -1  -5   74.65    4.91
   1  -1   5   81.17    4.44
   1  -1   5   77.64    3.27
   1  -1   6    8.21    2.12
  -1  -1  -6    5.68    2.57
  -1  -1  -6    7.48    1.42
   1  -1   6    6.90    2.26
  -1  -1  -7   71.48    3.65
  -1  -1  -7   78.93    6.06
   1  -1   7   80.04    5.28
   1  -1   7   76.02    5.26
   1  -1   8   60.67    5.08
  -1  -1  -8   57.18    3.57
   1  -1   8   57.96    5.16
  -1  -1  -8   65.80    6.14
   1  -1   9   57.91    5.45
  -1  -1  -9   48.75    6.21
   1  -1   9   50.50    5.29
   1  -1  10   25.95    4.29
   1  -1  10   27.10    4.54
  -1  -1 -10   24.63    5.01
   1  -1  11   10.07    3.43
  -1  -1 -11    7.89    4.74
   1  -1  11    4.99    3.47
   1  -1  12   -1.32    3.93
  -1  -1 -12    1.97    4.31
   1  -1  13   10.76    4.68
   1   0 -13   12.06    4.41
  -1   0  13    9.58    3.56
  -1   0  12    9.09    3.38
   1   0 -12    2.49    2.89
  -1   0  11   16.75    3.52
  -1   0  11   15.29    3.65
   1   0 -11   16.55    4.10
  -1   0  10   19.44    3.63
   1   0 -10   17.31    3.93
  -1   0  10   16.37    3.20
   1   0 -10   16.86    3.18
  -1   0   9  257.92    8.85
   1   0  -9  259.50    9.67
   1   0  -9  251.73    8.71
  -1   0   8    2.27    1.73
   1   0  -8    0.96    1.30
   1   0  -8    2.02    1.52
   1   0  -8    1.51    1.89
   1   0  -7  152.37    5.92
   1   0  -7  161.50    6.10
  -1   0   7  149.44    5.68
   1   0  -6 1091.96   14.20
  -1   0   6 1107.99   13.60
  -1   0   6 1144.68   12.96
   1   0  -6 1142.62   14.56
  -1   0   5  566.54    8.29
   1   0  -5  554.73    9.21
   1   0  -5  546.75    9.30
  -1   0   5  540.41    8.38
   1   0  -4 1554.57   14.09
   1   0  -4 1545.18   13.40
  -1   0   4 1534.09   12.14
  -1   0   4 1555.19   12.21
  -1   0   3  485.80    6.07
   1   0  -3  456.80    6.58
  -1   0   3  465.39    5.51
  -1   0   3  454.03    5.87
   1   0  -3  451.83    6.21
   1   0  -3  475.10    7.02
   1   0  -2    0.62    0.43
  -1   0   2   16.84    0.86
  -1   0  -2  281.10    5.78
   1   0   2  275.45    5.30
  -1   0  -2  274.40    5.45
  -1   0  -3  555.76    8.68
   1   0   3  556.46    8.30
  -1   0  -3  562.26    8.05
  -1   0  -4  135.21    4.39
   1   0   4  133.58    5.35
   1   0   5  667.43   13.01
  -1   0  -5  675.32   10.52
  -1   0  -5  671.05   11.57
   1   0   6  292.11    9.49
  -1   0  -6  283.65    7.31
  -1   0  -6  273.99    8.33
  -1   0  -7   56.81    4.53
  -1   0  -7   59.09    3.86
   1   0   7   62.41    5.11
  -1   0  -8   72.38    5.57
  -1   0  -8   69.91    4.46
   1   0   8   73.24    5.90
   1   0   9   23.35    4.06
  -1   0  -9   21.91    3.10
  -1   0  -9   25.84    4.12
   1   0  10   -0.52    2.85
  -1   0 -10    1.39    2.80
   1   0  10    3.33    2.73
  -1   0 -11   -0.72    2.94
   1   0  11    0.78    2.79
   1   0  11    6.00    3.45
  -1   0 -12    1.49    3.06
   1   0  12   -1.75    3.31
   1   0  12   -3.13    3.57
   1   0  13   -1.64    3.84
  -1   1  14  -10.87    4.46
  -1   1  13   -0.68    3.37
   1   1 -13   -1.22    3.38
  -1   1  12   10.61    3.48
   1   1 -12    5.25    3.18
  -1   1  11   55.41    6.08
  -1   1  11   49.36    4.65
   1   1 -11   48.28    5.00
   1   1 -11   44.25    4.89
   1   1 -10  110.62    6.69
  -1   1  10  108.00    6.01
   1   1  -9   47.73    4.48
  -1   1   9   41.40    3.66
  -1   1   9   45.70    4.02
  -1   1   8   68.74    4.40
   1   1  -8   62.46    4.61
   1   1  -7  179.70    5.19
   1   1  -7  171.12    6.74
   1   1  -6  132.01    5.59
   1   1  -6  140.82    4.13
  -1   1   6  141.01    5.32
   1   1  -5  365.18    5.78
   1   1  -5  358.58    8.33
  -1   1   5  351.53    7.79
   1   1  -4 1195.64   13.91
   1   1  -4 1205.95    8.76
   1   1  -3 1175.07   11.22
  -1   1   3 1195.78   10.32
   1   1  -3 1134.68   12.14
   1   1  -3 1123.85    7.52
   1   1  -2  579.66    7.70
  -1   1  -1 4553.87   21.14
  -1   1  -1 4286.88   26.85
  -1   1  -2 5029.02   22.49
   1   1   2 5021.78   14.90
  -1   1  -3 1014.46   12.82
  -1   1  -3  994.96   11.04
  -1   1  -4  285.23    7.40
   1   1   5   69.16    4.66
  -1   1  -5   76.30    4.21
   1   1   6    6.51    2.26
  -1   1  -6    4.65    1.72
  -1   1  -7   69.95    4.69
   1   1   7   71.64    5.71
   1   1   8   63.84    5.81
  -1   1  -8   64.18    4.77
  -1   1  -9   51.37    4.86
   1   1   9   53.20    5.79
  -1   1  -9   48.51    4.64
   1   1  10   33.06    5.24
  -1   1 -10   29.48    4.15
  -1   1 -10   28.27    4.38
  -1   1 -11    9.17    3.26
   1   1  11    7.13    4.22
   1   1  12    6.05    3.30
  -1   1 -12    3.01    3.63
   1   1  12    7.69    4.16
   1   1  13    9.17    4.02
  -1   2  14    2.38    3.33
  -1   2  13    1.23    3.41
   1   2 -13    3.65    2.95
   1   2 -12    1.52    2.55
  -1   2  12    4.38    3.55
   1   2 -11    7.60    3.06
  -1   2  11   12.37    4.14
   1   2 -10   16.28    3.61
  -1   2  10   18.88    3.50
  -1   2   9   62.89    4.94
   1   2  -9   54.86    5.00
  -1   2   8   27.29    3.46
   1   2  -8   19.73    3.25
   1   2  -7  135.12    6.70
  -1   2   7  141.15    6.27
  -1   2   6  207.18    7.25
   1   2  -6  202.79    7.47
   1   2  -5    7.35    1.78
  -1   2   5    9.78    1.08
  -1   2   4 1075.41    9.93
   1   2  -4 1013.74   14.49
   1   2  -3   50.37    3.11
  -1   2   3   49.32    2.42
  -1   2   3   53.05    2.29
   1   2  -2 3387.73   22.27
   1   2  -2 3447.51   15.55
  -1   2   2 3428.43   19.10
  -1   2   1  187.28    5.40
  -1   2   1  202.55    4.55
   1   2  -1  187.05    4.54
   1   2  -1  184.90    4.34
  -1   2   1  189.37    6.28
  -1   2   0  678.40   12.06
   1   2   0  659.86    8.04
   1   2   0  693.66    7.53
  -1   2  -1  543.10    7.27
  -1   2  -1  526.09   10.91
  -1   2  -2  959.63   14.84
  -1   2  -2  990.96    9.62
  -1   2  -2  967.73   13.27
  -1   2  -3 3307.52   26.09
  -1   2  -3 3373.55   17.99
  -1   2  -3 3336.88   28.22
  -1   2  -4 1533.94   18.97
  -1   2  -5  212.28    7.64
  -1   2  -6   43.02    3.95
   1   2   6   43.18    4.45
   1   2   7    7.04    2.97
  -1   2  -7    6.83    2.34
   1   2   7    3.96    2.15
  -1   2  -8   11.05    2.97
   1   2   8   14.05    3.62
  -1   2  -9   22.71    3.90
   1   2   9   32.60    5.18
  -1   2 -10  156.66    8.66
   1   2  10  168.72   10.74
  -1   2 -11    2.51    3.24
   1   2  11    8.96    4.24
  -1   2 -11    7.62    3.25
  -1   2 -12   40.32    5.84
   1   2  12   38.22    6.44
   1   2  13   11.65    4.54
  -1   3  13   10.56    4.09
   1   3 -13    8.01    3.55
  -1   3  12   -6.20    3.91
  -1   3  12    2.33    2.88
   1   3 -12   -1.00    2.56
  -1   3  11   52.63    5.30
  -1   3  11   48.64    6.52
   1   3 -11   39.91    5.29
   1   3 -10   -0.30    2.97
  -1   3  10    0.20    2.78
  -1   3   9   80.12    5.73
   1   3  -9   72.20    6.22
  -1   3   8  136.05    7.18
   1   3  -8  118.20    7.21
   1   3  -7   91.68    6.14
  -1   3   7   94.37    6.04
  -1   3   6  255.24    4.77
  -1   3   6  265.54    9.04
   1   3  -6  269.41    9.37
   1   3  -5  104.66    5.73
  -1   3   5  111.55    3.15
  -1   3   4  252.84    5.10
   1   3  -4  241.81    7.89
   1   3  -4  232.66    4.33
   1   3  -3 1864.12   14.47
   1   3  -3 1859.63   19.73
   1   3  -2 1717.10   12.45
   1   3  -2 1747.84   17.73
  -1   3   2 1724.58   15.93
  -1   3   2 1684.15   21.45
   1   3  -2 1675.71   15.38
   1   3  -1  330.46    6.41
  -1   3   1  334.43    6.08
  -1   3   1  333.26    9.02
  -1   3   1  321.54    9.46
   1   3  -1  337.83    7.15
   1   3   0  713.73    8.05
   1   3   0  707.76   10.19
  -1   3   0  694.87   13.87
   1   3   0  713.38    9.25
   1   3   0  692.57    8.73
  -1   3   0  716.20   12.74
  -1   3  -1  319.88    9.53
   1   3   1  310.49    7.47
   1   3   1  315.57    5.26
  -1   3  -1  324.21    5.87
   1   3   1  304.96    7.44
  -1   3  -1  320.21    8.04
   1   3   1  313.25    5.28
  -1   3  -2   43.01    3.39
  -1   3  -2   46.88    3.84
   1   3   2   45.98    1.73
  -1   3  -2   44.72    2.09
  -1   3  -3  266.05    8.74
  -1   3  -3  286.63    8.67
  -1   3  -3  279.87    4.56
  -1   3  -4  631.56   13.49
  -1   3  -5  223.39    8.56
   1   3   6  171.14    8.65
  -1   3  -6  176.33    7.94
   1   3   6  182.16    7.22
   1   3   7   26.49    4.40
  -1   3  -7   25.04    3.86
   1   3   7   27.37    3.86
   1   3   8   71.25    5.41
  -1   3  -8   63.82    5.87
   1   3   8   61.57    6.41
  -1   3  -9   48.27    5.48
   1   3   9   59.58    5.25
   1   3   9   56.03    6.90
  -1   3 -10   27.99    4.70
   1   3  10   32.49    6.11
  -1   3 -11    9.00    3.99
   1   3  11   13.46    4.83
   1   3  12   29.18    6.40
  -1   3 -12   34.22    5.54
   1   4 -13   -0.46    3.92
  -1   4  12   14.79    4.60
  -1   4  12   16.02    4.28
   1   4 -12    9.36    3.47
  -1   4  11   -0.46    2.89
   1   4 -11    0.52    3.48
  -1   4  11    1.91    3.30
  -1   4  10  159.42   10.44
  -1   4  10  170.42    8.95
   1   4 -10  151.41    9.39
   1   4  -9  143.84    8.82
  -1   4   9  143.38    7.98
   1   4  -8   46.58    5.52
  -1   4   8   45.35    5.30
  -1   4   7  307.25   10.81
   1   4  -7  286.71   11.04
   1   4  -6    9.52    2.79
  -1   4   6   11.35    3.21
   1   4  -5  104.25    6.28
  -1   4   5  104.31    3.26
   1   4  -5  102.01    2.70
   1   4  -4  318.72    9.75
   1   4  -4  297.79    6.07
   1   4  -3   47.77    3.80
  -1   4   3   58.64    4.89
   1   4  -2  299.81    5.90
  -1   4   2  291.57   10.28
  -1   4   2  310.23   10.45
   1   4  -2  302.40    8.29
   1   4  -1 1330.02   14.07
  -1   4   1 1322.65   21.22
   1   4  -1 1296.56   15.77
  -1   4   1 1318.74   21.22
   1   4  -1 1309.30   11.89
  -1   4   1 1292.18   15.63
   1   4   0  390.61    8.47
  -1   4   0  397.19   11.73
  -1   4   0  398.30    9.31
  -1   4   0  402.12   11.43
   1   4   0  414.07    8.24
   1   4   0  403.83    7.75
   1   4   1   32.85    2.23
   1   4   1   35.96    2.41
  -1   4  -1   34.11    2.22
  -1   4  -1   32.89    3.23
  -1   4  -1   31.83    3.50
   1   4   1   32.54    2.93
  -1   4  -1   32.24    3.55
   1   4   1   35.21    3.36
  -1   4  -2  571.82    7.60
  -1   4  -2  568.48   12.68
   1   4   2  574.75   12.22
   1   4   2  553.12   12.15
  -1   4  -2  567.87   13.72
   1   4   2  583.37    7.38
  -1   4  -3  103.45    5.91
  -1   4  -3   88.83    2.07
   1   4   3   98.32    5.36
   1   4   3  105.67    5.84
   1   4   3   97.77    2.31
  -1   4  -3   97.08    5.82
  -1   4  -4  133.64    7.01
   1   4   4  132.87    6.27
   1   4   4  128.28    6.88
  -1   4  -4  138.99    7.00
   1   4   5   12.53    3.14
   1   4   5   13.35    3.39
  -1   4  -5   14.12    3.27
   1   4   6   -0.77    2.51
   1   4   6    0.57    2.19
  -1   4  -6    1.24    2.40
  -1   4  -7  190.71    9.49
   1   4   7  214.12   10.92
   1   4   7  199.95    8.53
   1   4   8  130.81    9.19
   1   4   8  127.38    7.42
  -1   4  -8  136.04    8.62
   1   4   9   12.55    3.48
   1   4   9    6.84    4.27
  -1   4  -9   18.57    4.62
   1   4  10   28.03    5.92
   1   4  10   31.41    4.82
  -1   4 -10   24.59    5.06
   1   4  11   24.91    5.50
  -1   4 -11   17.65    4.94
  -1   4 -12   -0.80    3.28
   1   5 -12   -3.01    3.25
  -1   5  11   -6.67    3.70
   1   5 -11    3.67    3.69
  -1   5  11    1.45    3.11
  -1   5  10   40.18    5.67
  -1   5  10   32.09    5.65
   1   5 -10   24.41    5.25
  -1   5   9   29.39    4.82
   1   5  -9   31.08    5.20
  -1   5   8  160.71    8.97
   1   5  -8  148.80    9.15
  -1   5   7  110.98    7.65
   1   5  -7   96.74    7.33
  -1   5   6   20.39    3.96
   1   5  -6   20.18    3.86
  -1   5   5   53.65    2.45
  -1   5   5   53.53    5.55
   1   5  -5   56.01    5.18
  -1   5   4  118.97    4.17
  -1   5   4  105.76    7.28
   1   5  -4  122.01    6.81
   1   5  -3  391.67   11.06
  -1   5   3  382.68    8.16
  -1   5   3  386.25   13.37
  -1   5   3  387.34   13.21
   1   5  -2  513.46    7.91
   1   5  -2  503.33    8.58
   1   5  -2  513.07   11.80
  -1   5   2  493.36    9.94
  -1   5   2  492.05   14.58
  -1   5   2  481.48   14.77
  -1   5   1  226.64    7.39
   1   5  -1  234.91    6.07
   1   5  -1  239.71    7.66
  -1   5   1  239.99   10.17
  -1   5   1  247.37   10.44
   1   5  -1  242.65    6.82
  -1   5   0  241.01    8.16
  -1   5   0  249.27   10.16
  -1   5   0  242.23   10.12
   1   5   0  247.02    7.47
   1   5   0  249.20    7.17
   1   5   0  243.60    7.12
   1   5   1  119.79    5.75
   1   5   1  121.90    5.49
  -1   5  -1  134.75    4.65
  -1   5  -1  123.60    7.10
  -1   5  -1  129.67    6.32
  -1   5  -1  110.62    6.78
   1   5   1  123.99    4.75
  -1   5  -2  307.75    5.98
   1   5   2  307.97    9.73
  -1   5  -2  313.10   10.20
   1   5   2  314.31   10.07
  -1   5  -2  303.00   10.85
   1   5   2  306.28    6.43
   1   5   3   68.92    5.15
   1   5   3   67.65    5.27
  -1   5  -3   69.40    5.32
  -1   5  -3   70.37    5.47
   1   5   3   71.39    2.65
   1   5   3   74.35    2.62
   1   5   4  298.57   11.05
   1   5   4  303.64   10.38
  -1   5  -4  299.71   11.12
  -1   5  -4  290.78   10.46
   1   5   5   34.19    4.70
   1   5   5   29.91    4.05
  -1   5  -5   30.40    4.55
   1   5   6  369.79   11.92
   1   5   6  328.67   13.23
  -1   5  -6  344.45   12.72
  -1   5  -7   62.11    6.36
   1   5   7   65.08    6.73
   1   5   7   60.61    5.87
   1   5   8    7.62    3.87
  -1   5  -8    2.43    3.46
   1   5   8    7.91    3.62
   1   5   9   55.57    5.51
   1   5   9   53.71    6.81
  -1   5  -9   59.19    6.74
   1   5  10    7.13    3.46
  -1   5 -10    1.24    3.29
   1   5  10   -0.39    3.89
   1   5  11    5.58    4.29
  -1   5 -11   -0.14    3.74
  -1   6  11   16.57    4.82
   1   6 -11   26.35    5.69
  -1   6  11    9.96    4.69
  -1   6  10   -0.36    3.47
   1   6 -10    2.28    3.41
  -1   6  10    4.07    3.74
  -1   6   9   10.79    4.07
  -1   6   9   16.46    4.14
   1   6  -9   18.81    4.46
  -1   6   8    6.74    3.58
   1   6  -8    2.24    3.10
   1   6  -7   63.71    6.60
  -1   6   7   68.58    6.76
  -1   6   6   87.97    7.43
   1   6  -6   82.70    7.15
   1   6  -5  130.52    8.03
  -1   6   5  140.31    9.19
  -1   6   5  111.39    8.34
  -1   6   4  104.35    7.93
  -1   6   4   93.97    7.64
  -1   6   4   89.43    4.03
   1   6  -4   88.85    6.57
   1   6  -3   19.42    3.45
  -1   6   3   13.00    3.38
   1   6  -3   10.48    3.34
  -1   6   3   15.00    2.15
  -1   6   3   16.48    3.82
   1   6  -2   19.64    4.15
  -1   6   2   13.29    3.16
  -1   6   2   13.89    2.24
  -1   6   2   17.02    3.79
   1   6  -2   14.86    1.91
   1   6  -2   19.78    3.28
   1   6  -2   16.08    1.73
  -1   6   1   96.61    7.22
   1   6  -1  101.34    4.51
  -1   6   1  105.23    7.89
   1   6  -1  110.99    5.16
   1   6  -1   92.84    5.46
   1   6  -1  110.32    8.35
  -1   6   1  100.90    5.55
   1   6   0  327.91   14.13
  -1   6   0  310.11   12.61
   1   6   0  311.73    9.01
  -1   6   0  300.46    9.71
  -1   6   0  320.15   12.48
   1   6   0  317.49    9.39
   1   6   0  323.21    9.16
  -1   6  -1  131.14    8.00
   1   6   1  132.23    6.58
   1   6   1  144.93    9.97
  -1   6  -1  138.70    7.14
  -1   6  -1  135.88    8.46
   1   6   1  129.12    6.43
   1   6   1  130.17    5.44
   1   6   2  252.35    6.72
   1   6   2  236.94    9.36
  -1   6  -2  260.06   10.97
   1   6   2  260.88   10.27
   1   6   2  232.23   12.38
  -1   6  -2  248.73    9.82
  -1   6  -2  234.92    4.70
  -1   6  -2  252.55   10.55
   1   6   2  242.84    9.11
  -1   6  -3  391.12   12.76
   1   6   3  368.20   12.48
   1   6   3  390.72    7.22
   1   6   3  409.84   13.00
  -1   6  -3  371.93   12.62
   1   6   4  262.88   11.13
  -1   6  -4  281.99   10.94
  -1   6  -4  274.39   11.23
   1   6   4  269.97   10.61
   1   6   5   70.07    6.48
   1   6   5   68.73    5.87
  -1   6  -5   62.31    6.33
  -1   6  -6   30.48    4.88
   1   6   6   27.00    4.78
   1   6   6   27.79    4.49
   1   6   7    2.29    2.89
  -1   6  -7    2.63    3.21
   1   6   7    1.99    3.04
   1   6   8    3.94    3.25
  -1   6  -8    0.93    3.09
   1   6   8    0.85    2.73
   1   6   9   10.97    4.17
   1   6   9   14.37    4.19
  -1   6  -9    4.31    3.34
   1   6  10   30.89    6.56
   1   6  10   31.30    4.81
  -1   6 -10   36.67    6.31
  -1   7  10    7.42    3.75
   1   7 -10    9.23    4.74
  -1   7  10   11.88    4.14
  -1   7   9   15.02    4.34
  -1   7   9    2.33    4.01
   1   7  -9    6.59    4.17
  -1   7   8   12.54    4.53
   1   7  -8   14.46    4.24
  -1   7   8   10.66    3.27
  -1   7   7    7.29    3.80
   1   7  -7   11.74    4.26
  -1   7   7    9.13    3.69
  -1   7   7   10.23    3.59
  -1   7   6    1.07    3.41
  -1   7   6   10.71    4.02
   1   7  -6    4.17    3.50
  -1   7   5   18.36    4.67
   1   7  -5   14.49    4.18
  -1   7   5   16.35    4.28
  -1   7   5   13.58    4.30
  -1   7   4   -0.45    3.24
  -1   7   4   -5.20    3.05
   1   7  -4   -1.42    2.91
   1   7  -3   73.96    7.34
  -1   7   3   80.11    7.53
  -1   7   3   67.67    7.38
  -1   7   3   73.29    4.40
   1   7  -3   71.89    6.09
  -1   7   2  191.63    7.41
   1   7  -2  191.87    8.88
  -1   7   2  200.69   11.21
  -1   7   2  203.33   11.67
   1   7  -2  202.83   11.82
  -1   7   1   15.72    2.97
   1   7  -1   15.40    4.29
  -1   7   1   13.68    4.12
   1   7  -1   16.87    2.52
  -1   7   1   14.87    4.07
   1   7  -1   12.90    2.95
   1   7   0   44.49    6.73
   1   7   0   41.20    4.08
  -1   7   0   27.67    4.96
   1   7   0   37.31    3.73
  -1   7   0   32.91    5.50
  -1   7   0   34.62    4.09
   1   7   1  288.67    8.87
  -1   7  -1  302.17   13.33
  -1   7  -1  325.46   13.29
   1   7   1  316.91   15.47
  -1   7  -1  306.86   11.02
   1   7   1  315.24   10.98
   1   7   2  257.58   11.20
   1   7   2  265.18   10.65
  -1   7  -2  251.82   10.50
  -1   7  -2  270.71   12.29
   1   7   2  255.98    7.51
  -1   7  -2  260.20   11.57
   1   7   2  268.84   14.35
   1   7   3    7.38    3.53
   1   7   3    1.62    1.88
   1   7   3    5.92    3.52
  -1   7  -3    1.43    2.77
  -1   7  -3    0.66    2.79
   1   7   3    2.07    2.60
  -1   7  -4    6.44    3.49
   1   7   4    4.73    2.78
   1   7   4    0.17    3.41
   1   7   4    6.41    3.05
   1   7   4    2.32    2.33
  -1   7  -4    7.88    2.99
   1   7   5   55.22    5.82
  -1   7  -5   47.74    5.89
   1   7   5   49.10    5.87
   1   7   6   17.75    4.27
   1   7   6   17.10    4.45
  -1   7  -6   25.03    4.84
   1   7   7    1.36    3.63
  -1   7  -7    5.53    4.05
   1   7   7    2.32    3.02
   1   7   8   -3.00    3.55
   1   7   8   -0.92    3.09
  -1   7  -8    2.54    3.78
  -1   7  -9    5.93    4.02
   1   7   9    3.95    3.10
   1   7   9    5.08    3.76
  -1   8  10    3.84    4.57
  -1   8   9   19.48    6.12
  -1   8   9   15.81    4.66
  -1   8   8    1.58    3.22
  -1   8   8    2.88    2.78
   1   8  -8    2.76    3.90
  -1   8   8    5.11    4.06
  -1   8   7   20.16    5.54
  -1   8   7   20.32    4.27
  -1   8   7   24.61    5.71
  -1   8   7   21.90    5.23
   1   8  -7   25.03    5.10
  -1   8   6   11.32    3.73
  -1   8   6    9.77    3.29
  -1   8   6   16.79    5.39
  -1   8   6    8.27    4.47
   1   8  -6   10.91    3.83
  -1   8   5    0.29    3.74
  -1   8   5    1.23    2.97
   1   8  -5   -0.17    2.89
  -1   8   5    0.01    2.57
  -1   8   5   -2.32    4.13
  -1   8   4   19.46    5.14
  -1   8   4   23.03    3.91
  -1   8   4   27.67    5.31
  -1   8   4   21.23    4.88
   1   8  -4   27.28    4.88
  -1   8   3   44.08    6.53
   1   8  -3   60.78    7.13
  -1   8   3   47.92    4.75
  -1   8   3   55.37    7.29
   1   8  -3   48.16    5.67
  -1   8   2   11.79    4.38
   1   8  -2   12.98    4.33
  -1   8   2   15.54    3.04
   1   8  -2   12.12    3.41
  -1   8   2   13.51    5.15
  -1   8   2    8.56    2.48
   1   8  -1   84.04    6.35
  -1   8   1   81.85    5.72
  -1   8   1   91.10    8.62
   1   8  -1   95.58    9.35
  -1   8   0    8.93    3.13
   1   8   0   10.09    4.34
   1   8   0    9.47    3.07
  -1   8   0    8.31    4.36
  -1   8  -1   52.61    5.40
   1   8   1   56.28    7.73
  -1   8  -1   48.29    6.35
   1   8   1   52.14    5.19
   1   8   1   51.55    5.84
  -1   8  -2   42.27    5.32
  -1   8  -2   36.21    5.34
   1   8   2   38.84    5.17
   1   8   2   37.07    6.88
   1   8   2   39.69    4.92
   1   8   3    9.30    3.31
   1   8   3   12.04    4.56
   1   8   3    9.09    3.84
  -1   8  -3    7.52    3.44
   1   8   4    9.89    3.72
   1   8   4    8.81    3.58
   1   8   4    8.00    4.13
  -1   8  -4    6.25    3.29
   1   8   5    7.64    3.16
   1   8   5    8.25    4.44
   1   8   5    6.96    3.28
  -1   8  -5    6.43    3.64
   1   8   6    0.10    3.03
   1   8   6   -2.12    3.00
  -1   8  -6    0.16    4.03
   1   8   7    5.11    3.13
   1   8   7    8.78    3.98
  -1   8  -7    8.95    4.35
   1   8   8    2.82    3.83
   1   8   8   -8.66    4.17
  -1   9   8   20.05    4.48
  -1   9   7   19.19    4.56
   1   9  -7   18.49    5.18
  -1   9   7    4.63    4.07
  -1   9   6   15.38    4.14
  -1   9   6   15.47    4.79
  -1   9   6   20.38    5.46
   1   9  -6   10.41    4.60
   1   9  -5   41.74    6.13
  -1   9   5   35.45    5.94
  -1   9   5   43.31    7.12
  -1   9   5   34.94    5.04
  -1   9   4    0.46    2.27
  -1   9   4    0.01    3.45
  -1   9   4   -7.73    4.77
   1   9  -4    3.04    3.76
   1   9  -3    1.51    3.07
   1   9  -3   -0.19    2.33
   1   9  -2    6.55    3.44
  -1   9   2    2.76    3.21
   1   9  -2    7.25    3.24
  -1   9   1   36.90    6.20
   1   9  -1   45.96    6.94
   1   9  -1   40.81    5.00
   1   9   0   15.56    4.65
  -1   9   0   10.27    3.18
  -1   9   0   17.42    4.64
  -1   9  -1    1.68    3.02
  -1   9  -1    2.34    2.73
   1   9   1    4.57    3.13
   1   9   2    0.41    3.38
   1   9   2    3.41    3.43
  -1   9  -2    5.99    2.89
  -1   9  -2    1.14    3.10
   1   9   3    2.14    3.56
   1   9   3    2.51    2.44
   1   9   3    9.10    3.71
  -1   9  -3    1.07    3.45
  -1   9  -4    2.84    3.57
   1   9   4   10.28    4.24
   1   9   4    9.26    3.65
   1   9   4    8.22    3.64
  -1   9  -5   21.59    5.43
   1   9   5   23.98    5.18
   1   9   5   14.19    4.19
   1   9   5    7.73    4.43
  -1   9  -6    3.22    3.93
   1   9   6   11.62    4.06
   1   9   6   11.78    4.35
   1   9   6    2.55    3.46
   1   9   7   12.56    5.03
   1  10  -5    1.51    3.72
  -1  10   5   -6.26    3.05
  -1  10   4   45.59    7.60
   1  10  -4   30.15    5.53
  -1  10   4   41.83    7.09
   1  10  -3    0.39    3.40
  -1  10   3    1.12    4.51
   1  10  -3    5.53    3.24
  -1  10   3   -0.39    3.03
  -1  10   2    2.32    3.81
   1  10  -2   -0.39    2.50
   1  10  -2   -0.11    2.62
  -1  10   1   13.23    4.49
   1  10  -1    2.03    3.81
  -1  10   0   -2.86    2.79
   1  10   0   -0.03    3.91
   1  10   0   -4.51    3.30
   1  10   1   -1.50    3.27
   1  10   1    3.25    2.98
  -1  10  -1    4.81    3.02
  -1  10  -1   -0.28    2.21
   1  10   2    1.42    2.68
  -1  10  -2    0.13    3.14
   1  10   3   18.39    5.53
  -1  10  -3   15.13    4.95
   1  10   3   15.21    4.38
  -1  10  -4   25.81    5.64
   1  10   4   20.48    4.84
   2 -11   0  -12.08    5.81
  -2 -10   6  -15.72    7.65
  -2 -10   5   30.01    7.88
  -2 -10   4    0.01    5.64
  -2 -10   3   22.58    7.34
  -2 -10   3   14.57    6.28
  -2 -10   2   -3.46    4.82
  -2 -10   2   -4.71    5.29
   2 -10  -2   -1.09    4.80
  -2 -10   1   10.58    5.30
   2 -10  -1    7.80    5.22
  -2 -10   0   20.43    6.70
   2 -10   0   22.50    6.09
  -2 -10  -1    5.64    6.06
   2 -10   1   11.19    5.54
   2 -10   2    3.67    4.92
   2 -10   3   17.52    6.57
  -2  -9   8   27.25    8.30
  -2  -9   7   14.02    6.00
  -2  -9   7    4.10    5.44
  -2  -9   6   21.18    7.41
   2  -9  -6   34.96    8.61
  -2  -9   6   14.64    5.53
  -2  -9   5   21.10    6.62
  -2  -9   5   11.31    5.62
   2  -9  -5   19.48    7.51
   2  -9  -4   34.56    8.03
  -2  -9   4   31.42    7.26
  -2  -9   4   18.29    6.08
  -2  -9   3    1.20    3.74
   2  -9  -3    3.83    4.81
  -2  -9   3   -0.82    4.34
   2  -9  -3    1.29    3.97
  -2  -9   2   13.28    5.58
  -2  -9   2   26.06    6.31
   2  -9  -2   10.69    5.04
   2  -9  -2   14.02    5.52
  -2  -9   1    8.87    4.79
   2  -9  -1    6.50    4.46
   2  -9  -1   10.74    4.11
  -2  -9   1   16.62    5.24
   2  -9  -1    8.20    4.35
   2  -9   0    5.34    3.77
  -2  -9   0    3.65    5.49
  -2  -9   0   -0.41    4.12
   2  -9   0   10.58    4.92
   2  -9   0    3.74    4.28
   2  -9   1   -1.33    2.96
   2  -9   1    1.44    3.84
  -2  -9  -1    4.75    4.84
  -2  -9  -1   -0.16    3.76
   2  -9   2   -0.42    3.89
  -2  -9  -2    8.22    4.41
  -2  -9  -2    3.83    4.28
  -2  -9  -3   20.72    5.57
   2  -9   3   11.65    5.35
   2  -9   4   -7.57    4.38
   2  -9   5   -0.18    4.83
  -2  -8   9   12.24    6.27
  -2  -8   9    7.34    5.78
  -2  -8   8   50.79    8.58
  -2  -8   8   39.62    8.26
   2  -8  -8   55.15    9.07
  -2  -8   7   11.38    4.43
   2  -8  -7   13.83    6.61
  -2  -8   7   19.53    6.06
  -2  -8   6   17.93    6.31
   2  -8  -6    2.61    5.19
  -2  -8   6   11.95    5.52
   2  -8  -5   15.21    6.41
  -2  -8   5   17.34    6.00
  -2  -8   5   12.95    5.14
  -2  -8   4   20.45    6.01
   2  -8  -4   20.87    4.80
  -2  -8   4   14.55    5.26
   2  -8  -4   19.51    6.29
  -2  -8   3   19.89    5.75
   2  -8  -3   20.12    4.72
   2  -8  -3   16.42    5.84
   2  -8  -3   19.22    4.12
  -2  -8   3   10.93    4.85
   2  -8  -2   56.84    5.98
  -2  -8   2   66.56    8.20
   2  -8  -2   55.31    6.65
  -2  -8   2   50.02    7.76
   2  -8  -2   62.03    7.66
  -2  -8   1    9.11    4.14
   2  -8  -1    1.87    3.36
  -2  -8   1    2.14    4.04
   2  -8  -1    5.44    3.38
   2  -8  -1    4.76    3.90
   2  -8   0   59.06    6.47
  -2  -8   0   61.73    7.86
  -2  -8   0   53.37    7.29
   2  -8   0   57.77    6.95
   2  -8   0   63.93    7.21
  -2  -8  -1   98.18    9.75
   2  -8   1   86.97    7.69
   2  -8   1   63.05    7.50
  -2  -8  -1   73.07    8.48
   2  -8   1   86.88    7.73
  -2  -8  -2    7.01    4.31
   2  -8   2    9.98    4.22
  -2  -8  -2    6.36    4.12
   2  -8   2    9.15    4.30
   2  -8   3    1.67    2.84
  -2  -8  -3    7.68    4.09
   2  -8   3    2.31    4.26
   2  -8   4   -2.11    4.65
   2  -8   5    7.49    4.91
   2  -8   6   14.99    5.92
   2  -8   7    9.75    5.78
  -2  -7  10   14.64    6.29
   2  -7 -10    6.25    6.35
  -2  -7  10    5.19    6.13
  -2  -7   9    3.67    4.37
  -2  -7   9    5.94    5.03
   2  -7  -9   10.08    5.65
   2  -7  -9   17.49    6.14
   2  -7  -8    4.15    4.10
  -2  -7   8    4.90    4.95
  -2  -7   8    8.00    4.91
   2  -7  -8   11.77    4.87
   2  -7  -7   45.34    7.28
  -2  -7   7   45.49    7.32
  -2  -7   7   46.39    7.60
  -2  -7   6   10.40    5.23
  -2  -7   6   11.33    4.91
   2  -7  -6    6.87    5.26
  -2  -7   5  129.58   10.47
  -2  -7   5  117.86   10.68
   2  -7  -5  151.14   11.41
   2  -7  -4  127.09    7.74
   2  -7  -4  126.81    8.31
   2  -7  -4  126.43   10.14
  -2  -7   4  107.39    9.54
  -2  -7   4  116.32   10.29
  -2  -7   3   23.71    5.57
  -2  -7   3   28.75    6.04
   2  -7  -3   32.24    5.58
   2  -7  -3   26.33    4.41
   2  -7  -3   27.40    4.55
   2  -7  -2  103.22    7.36
   2  -7  -2  101.07    7.80
  -2  -7   2  103.58    9.17
  -2  -7   2  103.90    9.17
   2  -7  -2  102.93    8.57
   2  -7  -1   34.78    5.41
  -2  -7   1   38.00    6.19
   2  -7  -1   30.31    4.96
  -2  -7   1   36.08    6.16
   2  -7  -1   34.59    4.75
  -2  -7   0    2.53    3.16
   2  -7   0   -4.60    3.14
  -2  -7   0    3.91    3.93
   2  -7   0    0.28    3.22
   2  -7   0    1.03    3.27
   2  -7   1   20.29    4.57
  -2  -7  -1   13.40    4.65
   2  -7   1   12.14    3.89
  -2  -7  -1   17.08    4.75
   2  -7   1   17.23    4.17
  -2  -7  -2   36.45    6.10
  -2  -7  -2   42.66    6.28
   2  -7   2   41.19    5.59
   2  -7   2   37.76    5.94
   2  -7   2   44.19    5.05
   2  -7   2   39.39    4.97
   2  -7   3    9.58    3.53
   2  -7   3   12.25    4.41
  -2  -7  -3   12.06    4.37
   2  -7   3    9.28    3.38
   2  -7   4   21.94    4.35
   2  -7   4   14.18    4.11
   2  -7   4   22.18    4.73
   2  -7   5   26.87    5.63
   2  -7   5   29.40    5.11
   2  -7   6    8.23    3.87
  -2  -7  -6   16.71    6.88
   2  -7   6    9.45    4.39
  -2  -7  -7    0.55    4.69
   2  -7   7   -1.77    3.36
   2  -7   7    1.25    4.17
   2  -7   8    5.09    4.23
   2  -7   8   -4.53    5.34
  -2  -7  -8    3.15    4.77
   2  -7   9   14.46    6.23
  -2  -6  12  -17.49    6.57
  -2  -6  11   17.88    6.90
   2  -6 -11   17.73    7.83
  -2  -6  11   17.82    5.83
   2  -6 -10   17.71    5.66
   2  -6 -10    4.13    3.34
  -2  -6  10    1.59    4.42
  -2  -6  10    5.00    5.37
   2  -6  -9    5.01    4.34
  -2  -6   9   10.45    5.79
  -2  -6   9    1.99    4.28
   2  -6  -9   12.01    5.11
   2  -6  -8   11.85    5.31
   2  -6  -8    6.41    4.91
  -2  -6   8    6.02    4.16
  -2  -6   8    7.24    4.34
   2  -6  -7   22.60    5.35
   2  -6  -7    8.43    4.48
  -2  -6   7   18.00    5.05
  -2  -6   7   15.83    5.87
   2  -6  -6  211.57   13.83
   2  -6  -6  240.81   13.36
  -2  -6   6  223.16   13.14
  -2  -6   6  206.72   12.44
   2  -6  -5  110.58    9.18
  -2  -6   5  115.30    9.27
  -2  -6   5  101.25    9.11
   2  -6  -5  104.25    6.72
   2  -6  -4   78.46    6.03
  -2  -6   4   71.75    7.61
  -2  -6   4   75.52    7.59
   2  -6  -4   83.09    7.82
   2  -6  -4   77.74    5.98
   2  -6  -3   42.37    4.58
   2  -6  -3   40.79    5.62
  -2  -6   3   52.26    6.42
   2  -6  -3   44.73    4.78
  -2  -6   3   38.44    5.50
   2  -6  -2   63.33    5.49
  -2  -6   2   71.68    6.97
   2  -6  -2   65.55    6.28
   2  -6  -2   67.72    3.77
   2  -6  -2   61.54    5.51
  -2  -6   2   60.77    6.74
   2  -6  -1   25.43    2.70
  -2  -6   1   13.97    3.83
   2  -6  -1   17.80    3.70
   2  -6  -1   25.08    4.18
   2  -6  -1   15.51    3.65
  -2  -6   1   20.86    4.40
   2  -6   0   11.94    3.23
  -2  -6   0   17.20    4.28
   2  -6   0   12.67    3.46
   2  -6   0   16.88    2.78
  -2  -6   0   15.06    4.30
   2  -6   0   10.02    2.99
   2  -6   1  105.81    7.42
   2  -6   1  104.29    6.08
  -2  -6  -1  118.44    8.66
   2  -6   1  110.59    6.93
   2  -6   1   94.49    7.15
  -2  -6  -1  108.37    8.56
  -2  -6  -2  126.78    8.97
  -2  -6  -2  121.36    8.98
   2  -6   2  120.03    6.97
   2  -6   2  112.41    8.06
   2  -6   2  117.62    7.99
   2  -6   2  129.75    6.98
   2  -6   3  226.72    8.40
   2  -6   3  217.68    9.68
   2  -6   3  222.15   10.95
  -2  -6  -3  227.69   12.21
   2  -6   3  216.07   11.24
   2  -6   4   63.38    6.96
   2  -6   4   68.24    6.15
   2  -6   4   66.23    6.93
  -2  -6  -4   62.02    8.38
  -2  -6  -5    0.85    4.29
   2  -6   5    4.79    3.10
   2  -6   5    2.64    3.15
   2  -6   6    2.86    3.43
  -2  -6  -6    6.07    4.86
   2  -6   6    2.93    3.27
  -2  -6  -7   -5.73    5.06
   2  -6   7    2.47    3.41
   2  -6   7    4.42    3.92
   2  -6   8   18.15    4.69
   2  -6   8    9.84    4.99
  -2  -6  -8   10.04    5.26
   2  -6   9   13.67    5.59
  -2  -6  -9    4.80    6.05
  -2  -5  13    1.14    5.13
  -2  -5  12   18.11    6.42
   2  -5 -12   16.13    6.34
  -2  -5  12   20.36    6.04
  -2  -5  11   16.50    6.30
   2  -5 -11    5.58    4.31
  -2  -5  11   18.02    5.91
   2  -5 -10    0.75    3.68
   2  -5 -10   -1.95    3.80
  -2  -5  10    0.39    3.69
  -2  -5  10    5.98    5.42
  -2  -5   9   20.28    5.60
   2  -5  -9   16.19    5.58
   2  -5  -9   21.40    5.06
  -2  -5   9   15.57    5.03
  -2  -5   8   68.14    7.40
  -2  -5   8   68.77    8.32
   2  -5  -8   62.37    7.51
   2  -5  -8   63.23    8.22
   2  -5  -7  109.37    9.85
   2  -5  -7  110.58    6.91
  -2  -5   7   97.79    8.16
  -2  -5   7  108.34    9.41
   2  -5  -7  107.87    8.77
   2  -5  -6   32.43    3.79
  -2  -5   6   30.83    4.98
   2  -5  -6   28.62    5.49
  -2  -5   6   27.34    5.35
   2  -5  -6   30.67    4.92
  -2  -5   5   83.67    7.64
   2  -5  -5   89.67    5.97
   2  -5  -5   76.26    7.64
  -2  -5   5   79.15    7.09
   2  -5  -5   83.32    7.04
  -2  -5   4   10.55    1.48
   2  -5  -4    4.18    2.06
  -2  -5   4    5.16    2.87
   2  -5  -4    5.85    1.73
   2  -5  -4    3.22    2.86
  -2  -5   4    5.23    3.03
  -2  -5   3    0.86    3.03
   2  -5  -3    2.60    1.86
   2  -5  -3    2.57    2.62
   2  -5  -3    3.87    1.79
  -2  -5   3    1.94    2.84
   2  -5  -2   51.81    2.82
  -2  -5   2   42.25    5.29
   2  -5  -2   47.37    5.03
   2  -5  -2   45.68    4.11
   2  -5  -2   44.11    4.36
  -2  -5   2   46.00    5.48
   2  -5  -1   79.96    5.49
  -2  -5   1   74.86    6.64
  -2  -5   1   79.37    6.80
   2  -5  -1   84.66    6.06
   2  -5  -1   89.82    6.08
   2  -5  -1   87.40    4.04
   2  -5   0   90.62    6.26
   2  -5   0   84.88    5.86
  -2  -5   0   99.50    7.36
   2  -5   0  101.24    6.10
   2  -5   0   93.06    4.70
  -2  -5   0   86.96    7.10
  -2  -5  -1   37.09    4.94
   2  -5   1   31.93    3.96
   2  -5   1   37.25    3.37
   2  -5   1   33.53    4.30
  -2  -5  -1   41.87    5.19
   2  -5   1   37.88    3.69
   2  -5   2   81.85    6.44
  -2  -5  -2   76.28    6.88
   2  -5   2   90.43    6.42
   2  -5   2   83.22    5.04
   2  -5   2   88.49    5.10
  -2  -5  -3  259.40   14.24
   2  -5   3  251.63    9.09
   2  -5   3  247.59   10.83
   2  -5   3  244.51   10.79
   2  -5   3  252.15    7.74
  -2  -5  -3  261.11   12.13
   2  -5   4   54.47    6.05
   2  -5   4   51.18    3.32
  -2  -5  -4   55.68    7.85
   2  -5   4   54.77    5.94
   2  -5   5  323.84   13.37
  -2  -5  -5  297.38   16.54
   2  -5   5  283.10   12.62
   2  -5   6   52.01    6.51
  -2  -5  -6   44.51    7.36
  -2  -5  -7   94.68   11.09
   2  -5   7  115.54    8.84
  -2  -5  -8   18.25    7.13
   2  -5   8   21.47    5.11
   2  -5   9   15.94    4.51
  -2  -5  -9   12.19    6.77
  -2  -5 -10    9.75    6.73
   2  -5  10   13.14    5.39
  -2  -4  13   11.87    4.82
   2  -4 -13   -6.64    5.05
  -2  -4  12    4.88    4.86
  -2  -4  12    8.20    4.23
   2  -4 -12   -0.17    4.22
   2  -4 -11   19.61    5.13
   2  -4 -11   21.71    5.81
  -2  -4  11   25.49    5.98
  -2  -4  11   29.13    5.51
  -2  -4  10    1.48    4.18
   2  -4 -10   -4.88    4.61
  -2  -4  10    2.68    3.80
   2  -4 -10   -1.38    4.11
  -2  -4   9   83.26    7.79
   2  -4  -9   82.34    8.77
  -2  -4   9  106.20    9.52
   2  -4  -9   95.11    8.64
   2  -4  -8   50.86    4.70
   2  -4  -8   45.53    6.48
  -2  -4   8   59.49    6.91
  -2  -4   8   46.26    5.92
   2  -4  -8   54.64    6.39
   2  -4  -7    1.71    3.01
   2  -4  -7   -0.73    4.12
  -2  -4   7    1.81    3.31
   2  -4  -7    3.13    1.84
  -2  -4   7    4.79    3.44
   2  -4  -6    3.21    3.48
   2  -4  -6    8.89    2.19
  -2  -4   6   11.75    3.50
  -2  -4   6    9.03    3.00
   2  -4  -6    9.78    3.32
   2  -4  -5    9.45    3.01
   2  -4  -5   13.95    2.63
  -2  -4   5   12.90    1.48
   2  -4  -5   15.52    3.85
  -2  -4   5   13.72    3.11
  -2  -4   5   10.69    3.58
   2  -4  -4   27.82    2.64
   2  -4  -4   34.79    3.61
   2  -4  -4   35.62    4.19
   2  -4  -4   32.81    4.55
  -2  -4   4   33.77    2.43
  -2  -4   4   26.66    4.25
  -2  -4   4   31.07    2.02
  -2  -4   4   28.26    3.87
  -2  -4   3  244.24    5.72
   2  -4  -3  237.76    8.90
  -2  -4   3  235.96    9.82
  -2  -4   3  232.04    4.34
  -2  -4   3  239.61   10.64
   2  -4  -3  235.99    7.38
   2  -4  -3  240.71    9.42
   2  -4  -2  393.22   11.21
  -2  -4   2  389.39   12.35
   2  -4  -2  392.41   11.50
  -2  -4   2  376.74   13.00
   2  -4  -2  375.91    9.54
   2  -4  -1  287.74    5.68
   2  -4  -1  295.88    9.22
   2  -4  -1  281.42    9.81
  -2  -4   1  286.16   10.67
  -2  -4   1  284.19   11.24
   2  -4  -1  293.58    8.72
   2  -4   0  563.99   13.93
   2  -4   0  586.90   12.70
   2  -4   0  574.66   11.98
  -2  -4   0  612.27   15.51
   2  -4   0  601.03    9.51
  -2  -4   0  583.43   16.00
   2  -4   1   61.73    5.07
   2  -4   1   70.37    4.06
  -2  -4  -1   62.72    5.72
   2  -4   1   67.34    4.75
  -2  -4  -1   67.69    5.49
   2  -4   1   67.46    3.65
   2  -4   2  160.84    7.97
  -2  -4  -2  159.03    4.12
  -2  -4  -2  152.35    9.51
  -2  -4  -2  152.82    8.49
   2  -4   2  163.09    7.44
   2  -4   2  153.43    5.54
  -2  -4  -3   66.86    2.19
   2  -4   3   72.99    5.81
   2  -4   3   70.91    3.41
   2  -4   3   75.81    3.71
  -2  -4  -3   64.58    6.72
   2  -4   3   74.19    5.40
   2  -4   4  344.05   12.24
   2  -4   4  325.76    7.61
  -2  -4  -4  341.40   15.36
   2  -4   4  328.32   11.56
   2  -4   4  326.19    6.95
   2  -4   5   64.14    6.12
   2  -4   5   55.24    3.58
  -2  -4  -5   62.72    7.63
   2  -4   5   53.12    5.65
   2  -4   6  120.87    8.37
  -2  -4  -6  119.22   10.33
  -2  -4  -7   71.26    8.54
   2  -4   7   68.84    7.22
  -2  -4  -8   40.43    7.97
   2  -4   8   51.04    6.83
  -2  -4  -9   11.90    5.18
   2  -4   9   14.88    4.73
   2  -4  10    8.18    4.30
  -2  -4 -10  -10.01    6.22
   2  -4  11   -4.56    4.31
  -2  -3  13    1.83    4.00
   2  -3 -13   -5.37    4.98
  -2  -3  12   10.17    5.26
   2  -3 -12    1.92    3.98
  -2  -3  12    4.54    3.33
   2  -3 -11   20.08    5.44
   2  -3 -11   17.73    4.64
  -2  -3  11   22.07    5.53
  -2  -3  11   13.38    4.30
  -2  -3  10   33.13    5.11
   2  -3 -10   25.43    5.43
   2  -3 -10   32.41    5.52
  -2  -3  10   31.13    6.07
  -2  -3   9   54.28    6.69
   2  -3  -9   42.94    4.74
   2  -3  -9   43.76    5.70
   2  -3  -9   43.65    5.97
  -2  -3   9   42.71    5.27
   2  -3  -8  238.38   11.11
   2  -3  -8  237.29   11.90
  -2  -3   8  226.37   10.43
  -2  -3   8  218.00   11.41
   2  -3  -8  232.92    9.42
   2  -3  -7  245.88    9.19
  -2  -3   7  235.99   11.14
   2  -3  -7  240.31   11.24
  -2  -3   7  258.43   10.46
   2  -3  -7  244.35   10.59
  -2  -3   6  290.31   10.65
   2  -3  -6  280.36   11.47
   2  -3  -6  289.88    9.66
  -2  -3   6  292.41   11.66
   2  -3  -6  280.61   10.61
   2  -3  -5   13.02    2.86
  -2  -3   5   10.33    1.61
   2  -3  -5    9.22    2.04
  -2  -3   5   10.20    2.99
   2  -3  -5   10.20    2.78
  -2  -3   5   10.38    2.50
   2  -3  -4   90.68    5.50
  -2  -3   4   82.92    3.77
   2  -3  -4   75.41    4.84
   2  -3  -4   75.66    5.73
  -2  -3   4   80.57    5.91
  -2  -3   4   87.14    5.57
   2  -3  -3 1562.19   21.28
   2  -3  -3 1530.83   20.45
   2  -3  -3 1460.54   22.35
  -2  -3   3 1510.88   21.51
  -2  -3   3 1535.98   23.74
  -2  -3   3 1609.77   11.43
  -2  -3   3 1591.29   15.91
   2  -3  -3 1539.02   15.03
  -2  -3   2  682.29   14.23
  -2  -3   2  715.70   10.93
   2  -3  -2  701.50   12.84
   2  -3  -2  715.66   14.30
  -2  -3   2  710.75   15.91
   2  -3  -2  712.86   10.76
   2  -3  -1  199.82    7.82
  -2  -3   1  197.36    8.54
   2  -3  -1  193.74    5.88
   2  -3  -1  216.97    6.74
  -2  -3   1  197.46    7.80
   2  -3   0 1805.95   23.00
  -2  -3   0 1827.16   25.54
  -2  -3   0 1867.80   24.05
   2  -3   0 1866.43   13.00
   2  -3   0 1849.13   18.28
   2  -3   0 1810.91   18.95
   2  -3   1 1606.04   21.98
  -2  -3  -1 1611.41   24.46
  -2  -3  -1 1596.31   25.79
  -2  -3  -1 1693.83   13.88
   2  -3   1 1657.98   18.88
   2  -3   1 1654.69   16.09
   2  -3   2   21.24    2.21
  -2  -3  -2   17.63    1.38
   2  -3   2   18.21    2.51
   2  -3   2   17.28    3.18
  -2  -3  -2   19.74    3.67
   2  -3   2   17.23    1.87
  -2  -3  -2   15.68    3.24
   2  -3   3  148.02    7.32
   2  -3   3  142.05    5.44
  -2  -3  -3  151.12    9.11
   2  -3   3  154.35    6.79
  -2  -3  -3  148.17    3.07
   2  -3   3  157.01    4.44
   2  -3   4   36.29    3.22
   2  -3   4   35.24    4.10
  -2  -3  -4   35.50    5.05
   2  -3   4   37.15    4.06
   2  -3   4   40.95    2.23
   2  -3   5   43.94    4.99
   2  -3   5   46.71    3.96
   2  -3   5   44.47    2.15
   2  -3   5   47.19    4.60
  -2  -3  -5   46.43    5.66
  -2  -3  -6  113.28    9.24
   2  -3   6  113.71    7.22
   2  -3   6  110.23    6.22
   2  -3   7   77.62    5.70
  -2  -3  -7   75.10    8.14
   2  -3   7   65.86    6.29
  -2  -3  -8   17.41    5.66
   2  -3   8   28.34    4.91
  -2  -3  -9   79.37    9.19
   2  -3   9   90.70    7.88
  -2  -3 -10   29.22    6.53
   2  -3  10   33.68    6.06
  -2  -3 -11   15.55    6.18
   2  -3  11   13.57    5.10
   2  -2 -13   12.31    4.26
  -2  -2  12   21.82    4.28
   2  -2 -12   29.08    5.84
  -2  -2  11    0.92    2.96
   2  -2 -11   -0.80    3.44
   2  -2 -11    3.09    3.10
   2  -2 -10   30.62    5.36
  -2  -2  10   39.09    4.92
   2  -2 -10   41.70    5.23
   2  -2  -9  189.81    7.23
   2  -2  -9  215.32   10.13
   2  -2  -9  183.41   10.10
  -2  -2   9  193.50    9.23
   2  -2  -8  253.51    7.90
   2  -2  -8  241.58   10.66
  -2  -2   8  259.13   10.00
   2  -2  -8  263.36   10.49
   2  -2  -7  272.65   10.56
   2  -2  -7  272.88   10.00
   2  -2  -7  271.28    7.84
  -2  -2   7  274.06    9.61
  -2  -2   6  523.31   14.26
   2  -2  -6  503.49   12.11
   2  -2  -6  502.05   13.05
  -2  -2   6  493.84   12.02
   2  -2  -6  516.51   12.87
   2  -2  -6  503.24   10.20
   2  -2  -5  531.78   12.55
   2  -2  -5  513.17   11.71
  -2  -2   5  501.10   13.03
  -2  -2   5  501.00   11.57
   2  -2  -5  527.67   11.98
  -2  -2   4   21.20    3.01
  -2  -2   4   22.75    2.25
   2  -2  -4   24.70    2.73
   2  -2  -4   21.46    2.72
  -2  -2   4   20.01    2.48
   2  -2  -4   20.16    2.50
   2  -2  -3  358.92    4.88
  -2  -2   3  337.54    7.70
   2  -2  -3  332.85    8.81
   2  -2  -3  336.05    8.27
  -2  -2   3  339.06    9.95
  -2  -2   3  325.88    8.66
   2  -2  -3  333.19    8.99
  -2  -2   2  692.18    7.56
  -2  -2   2  681.09   12.18
   2  -2  -2  693.68   10.90
   2  -2  -2  703.20   13.06
   2  -2  -2  707.75    7.82
  -2  -2   2  700.49   11.38
  -2  -2   2  685.97   13.91
  -2  -2   1  857.27   15.43
   2  -2  -1  852.63   14.42
   2  -2  -1  865.26   10.76
   2  -2  -1  900.30    9.56
  -2  -2   1  901.38    7.27
  -2  -2   1  876.12   13.96
   2  -2  -1  875.76   11.35
   2  -2   0 2956.44   21.93
  -2  -2   0 2927.59   26.02
  -2  -2   0 3000.01   17.85
   2  -2   0 2987.50   20.66
  -2  -2   0 3002.79   19.09
  -2  -2   0 2858.98   28.83
   2  -2   0 2862.93   27.02
   2  -2   0 2889.68   18.81
   2  -2   0 2860.93   18.97
  -2  -2  -1   94.87    5.60
   2  -2   1   87.80    4.10
  -2  -2  -1   95.36    5.48
   2  -2   1   94.52    3.28
  -2  -2  -1  102.46    3.42
   2  -2   1   92.58    3.80
   2  -2   1   89.91    5.06
   2  -2   2  233.91    8.10
   2  -2   2  245.74    7.18
  -2  -2  -2  254.37    5.01
  -2  -2  -2  253.43    9.45
  -2  -2  -2  232.13    8.82
   2  -2   2  256.30    6.86
   2  -2   3 2350.44   25.96
   2  -2   3 2343.77   23.38
  -2  -2  -3 2395.76   15.44
  -2  -2  -3 2344.19   13.60
  -2  -2  -3 2356.68   29.11
   2  -2   3 2331.48   22.34
   2  -2   4 1048.46   16.76
  -2  -2  -4 1065.42   20.85
   2  -2   4 1071.14   16.59
  -2  -2  -4 1094.34   11.34
  -2  -2  -5  111.83    3.39
   2  -2   5  132.71    7.18
   2  -2   5  132.93    6.57
   2  -2   5  121.16    6.35
  -2  -2  -5  124.73    4.46
  -2  -2  -5  119.06    7.62
   2  -2   6   22.62    3.63
  -2  -2  -6   18.18    1.54
   2  -2   6   18.92    3.11
  -2  -2  -6   18.44    4.11
   2  -2   7  106.41    7.04
  -2  -2  -7   98.34    7.97
   2  -2   7  110.04    6.89
   2  -2   8   52.46    5.50
  -2  -2  -8   51.15    6.55
   2  -2   8   47.69    5.25
   2  -2   9   24.52    4.39
  -2  -2  -9   22.67    5.19
   2  -2   9   25.90    5.09
  -2  -2 -10   52.48    7.62
   2  -2  10   51.90    6.55
  -2  -2 -11   83.35    9.83
   2  -2  11   72.03    7.92
   2  -2  12    3.96    4.96
   2  -1 -13   -0.07    3.99
  -2  -1  12    5.53    2.51
   2  -1 -12   -0.54    3.97
   2  -1 -11   23.94    4.79
  -2  -1  11   18.70    3.43
  -2  -1  10   75.04    5.74
   2  -1 -10   82.62    5.57
   2  -1 -10   81.36    6.34
   2  -1 -10   70.98    6.49
   2  -1  -9  163.61    8.44
  -2  -1   9  170.67    7.74
   2  -1  -9  182.64    8.50
   2  -1  -9  171.52    7.34
  -2  -1   8   41.45    3.77
   2  -1  -8   38.40    4.00
   2  -1  -8   34.04    3.84
   2  -1  -8   46.02    3.66
   2  -1  -7  664.03   12.54
   2  -1  -7  676.73   14.09
  -2  -1   7  665.77   12.94
   2  -1  -7  642.51   13.35
   2  -1  -6   71.14    4.35
   2  -1  -6   72.62    4.06
  -2  -1   6   72.90    4.14
   2  -1  -6   67.79    4.31
  -2  -1   5 2683.73   22.36
   2  -1  -5 2724.71   23.72
   2  -1  -5 2683.84   22.39
   2  -1  -5 2691.15   22.45
  -2  -1   4  445.45   10.36
   2  -1  -4  434.31    8.76
   2  -1  -4  432.71    8.21
   2  -1  -4  431.14    8.68
  -2  -1   4  428.15    8.37
   2  -1  -3 1762.58   19.03
  -2  -1   3 1789.62   19.63
  -2  -1   3 1782.66   16.49
   2  -1  -3 1791.81   14.82
  -2  -1   3 1810.69    6.69
  -2  -1   3 1781.28   16.27
   2  -1  -3 1809.42   17.20
  -2  -1   2 1818.97   15.70
  -2  -1   2 1857.58   18.04
   2  -1  -2 1836.09   13.14
  -2  -1   2 1812.97   16.17
  -2  -1   2 1829.71   16.06
  -2  -1   2 1822.12   19.42
   2  -1  -2 1773.05   18.51
   2  -1  -2 1800.95   14.91
   2  -1  -1   15.29    1.19
  -2  -1   1   17.54    2.05
  -2  -1   1   13.64    1.54
   2  -1  -1   12.23    1.76
  -2  -1   1   13.07    1.46
  -2  -1   1   13.08    1.84
  -2  -1   1   14.45    0.70
  -2  -1   0 1089.50   13.44
   2  -1   0 1036.96   14.62
  -2  -1   0 1042.82   15.32
  -2  -1   0 1100.44    7.96
  -2  -1   0 1083.05   12.40
  -2  -1  -1 1168.29   12.14
  -2  -1  -1 1187.95   11.75
  -2  -1  -1 1084.82   16.35
  -2  -1  -1 1130.12   14.29
   2  -1   1 1109.33   14.89
   2  -1   1 1064.94   15.13
  -2  -1  -1 1199.59   13.63
  -2  -1  -2 1421.98   17.49
  -2  -1  -2 1433.15   13.86
   2  -1   2 1392.17   17.48
   2  -1   2 1369.76   17.55
   2  -1   3  180.27    6.79
  -2  -1  -3  187.23    5.45
   2  -1   3  180.11    6.66
  -2  -1  -3  177.53    6.81
   2  -1   4   32.50    3.39
  -2  -1  -4   36.87    3.67
   2  -1   4   39.15    3.60
   2  -1   5  147.39    6.77
   2  -1   5  138.95    6.90
  -2  -1  -5  144.23    4.82
  -2  -1  -5  140.31    7.19
  -2  -1  -6  118.96    4.64
   2  -1   6  128.92    7.10
  -2  -1  -6  116.59    7.11
  -2  -1  -7   26.51    4.23
  -2  -1  -7   23.98    2.41
   2  -1   7   26.06    3.86
   2  -1   8   77.91    6.71
  -2  -1  -8   76.38    6.89
   2  -1   8   78.13    6.00
   2  -1   9   13.65    4.05
   2  -1   9   10.75    3.33
  -2  -1  -9   15.47    4.60
   2  -1  10   22.03    4.56
  -2  -1 -10   12.03    4.45
   2  -1  11    6.89    4.05
  -2  -1 -11    5.02    4.73
   2  -1  12   37.70    6.27
   2   0 -14    7.12    4.87
   2   0 -13   19.36    4.92
  -2   0  13    9.40    3.69
   2   0 -12   24.07    4.54
  -2   0  11   19.61    3.47
   2   0 -11   24.85    4.27
   2   0 -11   29.01    4.12
   2   0 -10   24.46    3.74
  -2   0  10   23.32    3.35
   2   0 -10   26.50    4.15
   2   0  -9    7.70    2.11
  -2   0   9    8.35    2.27
   2   0  -9    8.39    2.58
   2   0  -9    8.78    2.65
   2   0  -8  155.01    6.96
  -2   0   8  166.60    5.74
  -2   0   8  164.55    6.21
   2   0  -8  154.16    6.38
   2   0  -8  165.45    6.67
   2   0  -7   14.57    2.16
  -2   0   7   14.44    1.91
   2   0  -7   17.85    2.62
  -2   0   7   17.53    2.15
   2   0  -6  370.47    8.29
  -2   0   6  397.56    7.51
  -2   0   6  383.28    7.69
   2   0  -6  387.91    9.60
  -2   0   5 2498.47   17.31
  -2   0   5 2522.56   17.26
   2   0  -5 2532.66   22.45
   2   0  -5 2517.60   19.52
   2   0  -4  692.81    9.30
  -2   0   4  699.27    7.98
  -2   0   4  671.98    8.46
   2   0  -4  703.83    6.61
   2   0  -4  700.56   11.07
   2   0  -3  201.67    3.35
  -2   0   3  198.13    5.61
  -2   0   3  186.83    3.68
   2   0  -3  196.55    5.58
  -2   0   2  812.00   10.75
   2   0  -2  837.42   11.75
   2   0  -2  830.89   10.95
  -2   0   2  819.67    6.75
  -2   0   2  811.04   12.39
  -2   0   1  218.96    6.29
   2   0  -1  217.72    5.85
  -2   0   1  212.31    6.41
  -2   0   1  211.47    5.53
   2   0   0  342.57    7.45
  -2   0   0  341.07    7.41
  -2   0   0  356.68    8.60
  -2   0  -1  551.74    9.74
   2   0   1  519.95    9.39
  -2   0  -1  528.78    6.73
  -2   0  -1  537.40   10.71
  -2   0  -2 1353.43   12.59
  -2   0  -2 1338.96   17.35
  -2   0  -3  213.97    5.76
   2   0   3  204.98    7.41
   2   0   3  227.53    6.57
   2   0   4  281.47    9.31
   2   0   4  294.27    7.78
  -2   0  -4  294.59    7.67
   2   0   5   45.02    4.29
  -2   0  -5   45.32    3.26
  -2   0  -5   48.12    3.67
   2   0   6   28.31    3.84
  -2   0  -6   28.94    2.84
  -2   0  -6   31.14    3.52
   2   0   7   83.00    6.49
  -2   0  -7   76.63    5.56
  -2   0  -7   77.77    4.53
   2   0   8    9.16    3.18
  -2   0  -8    5.64    2.78
  -2   0  -8    3.23    1.94
   2   0   9   15.48    3.89
  -2   0  -9   19.50    4.41
   2   0  10   46.43    6.29
  -2   0 -10   28.69    5.38
   2   0  11    6.68    4.21
  -2   0 -11    5.90    4.44
   2   0  11   11.65    4.13
   2   0  12    4.92    3.92
   2   0  12   16.23    4.91
  -2   0 -12   13.23    5.87
  -2   1  14   -0.63    3.37
  -2   1  13    6.65    3.28
   2   1 -13    2.81    3.53
   2   1 -12   -1.50    3.14
   2   1 -12    3.70    3.13
   2   1 -11   19.30    3.87
   2   1 -11   20.77    3.68
   2   1 -10   80.66    6.07
  -2   1  10   88.28    5.41
  -2   1  10   77.38    4.94
  -2   1   9  178.91    6.99
  -2   1   9  184.89    6.53
   2   1  -9  179.81    6.45
   2   1  -8   40.60    3.99
  -2   1   8   37.78    3.46
  -2   1   8   37.61    2.80
   2   1  -8   40.48    3.02
   2   1  -7  656.69   13.51
  -2   1   7  683.50   12.08
  -2   1   7  648.83    9.58
   2   1  -7  676.51   10.55
   2   1  -6   76.06    4.57
  -2   1   6   66.76    3.96
   2   1  -6   74.93    3.26
  -2   1   6   72.83    2.84
   2   1  -5 2713.35   24.31
  -2   1   5 2727.86   22.23
  -2   1   5 2743.91   13.74
   2   1  -5 2728.06   17.29
   2   1  -4  420.24    6.00
  -2   1   4  427.29    8.84
  -2   1   4  427.02    4.04
   2   1  -4  435.11    9.08
   2   1  -3 1854.41   17.91
   2   1  -3 1869.76   15.43
  -2   1   2 1845.79   21.16
   2   1  -2 1880.38   16.56
   2   1  -2 1984.29   16.53
  -2   1   2 1839.67   12.25
  -2   1   1   12.94    1.97
   2   1  -1   16.16    1.59
   2   1  -1   13.91    1.43
  -2   1   1   14.71    1.15
   2   1  -1   13.79    1.53
   2   1   0 1070.42   11.67
  -2   1   0 1078.23   14.16
   2   1   0 1035.68   11.38
   2   1   0 1079.43   13.24
  -2   1   0 1065.60   16.62
   2   1   1 1085.24   11.97
  -2   1  -1 1123.22   17.54
   2   1   2 1431.99   13.45
  -2   1  -2 1395.92   19.88
   2   1   3  180.09    4.85
  -2   1  -3  176.43    7.37
   2   1   4   53.21    2.87
  -2   1  -4   37.85    3.24
  -2   1  -5  147.14    6.28
   2   1   5  151.19    7.61
   2   1   6  130.02    7.72
  -2   1  -6  130.57    6.25
   2   1   7   25.04    4.30
  -2   1  -7   30.55    3.53
  -2   1  -8   74.69    5.35
   2   1   8   72.46    6.84
  -2   1  -8   75.04    5.58
   2   1   9   13.92    4.35
  -2   1  -9   12.08    3.00
  -2   1  -9   14.08    3.39
   2   1  10   21.60    5.27
  -2   1 -10   23.02    4.46
  -2   1 -11   11.33    4.44
   2   1  11   10.26    4.24
   2   1  12   48.22    7.56
   2   1  12   38.95    5.70
   2   1  13    2.15    4.16
  -2   2  14    4.02    3.74
  -2   2  13   16.58    4.64
   2   2 -13    9.27    3.29
   2   2 -13    8.33    3.55
  -2   2  12   26.12    4.02
   2   2 -12   23.61    4.62
   2   2 -11    1.87    2.67
  -2   2  11    0.67    2.38
   2   2 -10   40.50    4.83
  -2   2  10   42.16    4.31
   2   2  -9  194.69    9.01
  -2   2   9  205.76    8.16
   2   2  -8  263.88    9.75
  -2   2   8  266.68    8.85
   2   2  -8  263.03    5.76
  -2   2   7  277.67    8.76
   2   2  -7  275.66    5.57
   2   2  -7  259.63    9.28
   2   2  -6  511.11   11.98
   2   2  -6  519.06    7.03
  -2   2   6  506.13   11.61
   2   2  -5  501.54   11.27
  -2   2   5  530.83   11.81
   2   2  -5  508.74    6.42
  -2   2   4   21.45    1.32
   2   2  -4   23.43    2.61
   2   2  -4   27.31    1.22
   2   2  -3  351.39    8.21
   2   2  -3  324.80    6.91
   2   2  -3  329.71    8.07
  -2   2   3  336.96    4.42
  -2   2   3  328.36   10.29
   2   2  -2  706.87   10.99
  -2   2   2  688.85    9.44
  -2   2   2  693.09   14.53
   2   2  -2  705.27   12.27
  -2   2   2  717.53    6.76
   2   2  -2  706.81   10.76
  -2   2   1  855.66   16.29
   2   2  -1  892.34   13.13
   2   2  -1  867.29    6.47
  -2   2   1  864.65    9.80
   2   2  -1  861.41    7.71
  -2   2   1  906.90    8.62
   2   2  -1  877.98   11.42
   2   2   0 2866.06   18.41
   2   2   0 2881.69   14.50
  -2   2   0 2864.72   30.21
   2   2   0 2883.39   19.20
   2   2   1   92.07    3.83
   2   2   1   89.40    3.33
  -2   2  -1  101.31    6.06
   2   2   1   96.98    3.20
   2   2   1   92.82    2.99
   2   2   2  244.28    5.74
   2   2   2  260.86    4.51
  -2   2  -2  240.74    9.12
   2   2   3 2299.01   11.41
  -2   2  -3 2280.53   27.78
  -2   2  -4 1084.09   17.63
  -2   2  -5  122.80    6.43
   2   2   5  129.97    7.49
  -2   2  -6   17.58    3.14
   2   2   6   16.65    3.57
   2   2   7   95.20    7.38
  -2   2  -7   92.70    6.22
  -2   2  -8   50.76    5.00
   2   2   8   48.98    6.14
   2   2   9   20.32    5.09
  -2   2  -9   14.93    3.71
  -2   2 -10   44.40    5.50
   2   2  10   54.99    7.06
  -2   2 -10   52.58    5.53
   2   2  11   66.59    8.47
  -2   2 -11   76.84    7.11
   2   2  12   11.32    4.97
  -2   3  13    8.05    4.65
  -2   3  13    3.89    3.25
   2   3 -13   -2.92    3.39
   2   3 -12    3.94    3.50
  -2   3  12    8.15    3.38
   2   3 -11   12.60    3.82
  -2   3  11   24.03    4.11
   2   3 -10   31.28    4.88
  -2   3  10   31.38    4.38
  -2   3   9   38.00    4.52
   2   3  -9   35.71    4.71
   2   3  -8  225.02    9.68
  -2   3   8  244.88    9.40
   2   3  -7  253.33    9.67
  -2   3   7  257.97    9.56
   2   3  -7  237.55    3.98
   2   3  -6  294.74    9.80
  -2   3   6  295.81   10.14
  -2   3   5    9.64    1.27
   2   3  -5   13.17    2.65
   2   3  -4   79.25    4.65
  -2   3   4   85.40    3.45
   2   3  -3 1526.79   18.38
   2   3  -3 1486.85   20.57
   2   3  -3 1493.33   15.00
  -2   3   3 1492.20   23.95
  -2   3   3 1523.19   12.39
   2   3  -2  722.45   11.76
   2   3  -2  719.72   11.66
  -2   3   2  705.57   16.33
  -2   3   2  716.44   12.55
   2   3  -1  207.42    6.70
  -2   3   1  195.03    8.73
   2   3  -1  203.02    5.89
   2   3  -1  196.19    4.68
  -2   3   1  192.43    6.32
   2   3   0 1792.53   14.86
   2   3   0 1772.56   20.45
  -2   3   0 1848.45   18.28
  -2   3   0 1782.41   26.19
   2   3   0 1830.61   12.77
   2   3   1 1597.77   15.22
   2   3   1 1625.13   20.66
   2   3   1 1659.08   14.41
  -2   3  -2   18.78    3.24
   2   3   2   17.36    2.29
  -2   3  -3  156.92    7.32
   2   3   3  152.66    5.61
  -2   3  -3  149.83    8.04
   2   3   4   38.44    3.39
  -2   3  -4   39.07    4.17
  -2   3  -4   38.80    4.58
  -2   3  -5   38.10    4.38
   2   3   5   47.70    3.96
   2   3   5   45.59    5.11
   2   3   6  124.67    8.26
  -2   3  -6  109.94    6.92
   2   3   6  120.89    6.09
   2   3   7   67.07    6.91
  -2   3  -7   74.62    6.18
   2   3   7   76.92    5.51
   2   3   8   24.03    5.45
  -2   3  -8   23.58    4.34
   2   3   9   82.93    8.56
  -2   3  -9   73.32    6.73
  -2   3 -10   34.08    5.52
   2   3  10   31.08    6.48
   2   3  11   18.89    5.72
  -2   3 -11   10.53    4.00
   2   4 -13    2.01    3.65
  -2   4  13    6.09    2.94
   2   4 -12   -0.95    3.12
  -2   4  12    9.74    3.60
   2   4 -11   21.63    4.68
  -2   4  11   24.64    4.65
   2   4 -10    0.32    3.04
  -2   4  10   -0.70    2.86
  -2   4   9   91.00    6.87
   2   4  -9   93.08    7.24
   2   4  -8   50.40    5.32
  -2   4   8   51.74    5.46
  -2   4   7    0.80    2.58
   2   4  -7    6.04    2.85
   2   4  -6    7.48    2.90
  -2   4   6    5.15    3.10
   2   4  -5   14.23    2.93
   2   4  -4   28.30    3.44
  -2   4   4   28.80    4.41
   2   4  -4   27.74    3.69
   2   4  -3  226.76    7.83
  -2   4   3  233.16    8.97
  -2   4   3  221.33   10.24
  -2   4   3  233.02    5.49
   2   4  -3  237.92    6.24
  -2   4   2  378.27   13.12
  -2   4   2  370.15    5.16
   2   4  -2  390.42    9.52
  -2   4   2  385.30   11.04
   2   4  -2  386.36    9.07
   2   4  -1  274.96    6.95
  -2   4   1  292.36   11.61
   2   4  -1  283.70    7.59
  -2   4   1  292.02    9.35
   2   4  -1  297.35    8.53
   2   4   0  573.97   12.43
   2   4   0  575.19   10.06
  -2   4   0  586.43   12.73
  -2   4   0  581.11   16.17
   2   4   0  570.46   10.31
   2   4   1   65.68    2.67
  -2   4  -1   64.75    5.73
   2   4   1   66.16    3.82
   2   4   1   63.93    4.65
   2   4   1   66.91    3.30
   2   4   2  150.23    7.31
  -2   4  -2  163.51    7.50
  -2   4  -2  158.00    8.60
   2   4   2  142.15    2.81
   2   4   2  163.83    3.16
   2   4   2  144.99    5.82
   2   4   2  149.20    4.39
   2   4   3   79.24    5.82
  -2   4  -3   67.91    5.36
   2   4   3   71.34    4.47
  -2   4  -3   63.25    5.75
  -2   4  -3   75.44    3.55
   2   4   4  335.78    9.37
   2   4   4  340.53   12.23
  -2   4  -4  334.73   11.67
  -2   4  -4  340.21   12.36
   2   4   5   62.16    5.94
   2   4   5   56.43    4.62
  -2   4  -5   61.33    5.65
   2   4   6  112.39    8.25
  -2   4  -6  115.07    7.75
   2   4   6  129.12    6.73
   2   4   7   84.75    7.94
  -2   4  -7   73.15    6.74
   2   4   7   74.01    5.58
  -2   4  -8   45.14    5.74
   2   4   8   39.99    6.09
   2   4   8   48.64    4.87
  -2   4  -9   13.17    4.10
   2   4   9   17.92    4.86
   2   4  10   11.15    5.31
  -2   4 -10    6.49    4.09
   2   4  11    8.63    4.86
  -2   4 -11    7.29    3.67
  -2   4 -12  -10.89    4.62
  -2   5  12   19.27    5.46
   2   5 -12   21.65    5.18
  -2   5  12   16.35    3.84
   2   5 -11   10.22    3.67
  -2   5  11   13.60    4.33
   2   5 -10    2.75    3.01
  -2   5  10   -6.12    3.81
  -2   5   9   19.67    4.32
   2   5  -9   18.79    4.45
   2   5  -8   63.12    6.23
  -2   5   8   74.36    6.85
   2   5  -7   99.14    7.23
  -2   5   7  128.16    8.64
  -2   5   6   31.87    4.96
   2   5  -6   24.59    4.08
  -2   5   5   85.54    7.46
   2   5  -5   84.15    6.07
  -2   5   4    6.67    3.30
   2   5  -4    6.44    1.00
  -2   5   4    7.10    2.56
   2   5  -4    5.14    2.38
   2   5  -4    5.84    2.74
   2   5  -3    1.64    2.35
  -2   5   3    4.19    2.29
  -2   5   3    1.41    2.62
   2   5  -3    0.80    2.01
   2   5  -3    2.17    1.34
  -2   5   3    2.36    0.75
   2   5  -2   47.08    3.55
  -2   5   2   45.42    2.33
  -2   5   2   46.92    4.69
   2   5  -2   53.11    5.72
  -2   5   2   47.43    5.70
   2   5  -2   49.71    4.03
   2   5  -1   78.03    4.57
   2   5  -1   88.29    5.13
  -2   5   1   84.50    5.92
  -2   5   1   88.49    7.25
   2   5   0   88.82    3.42
   2   5   0   89.20    5.11
  -2   5   0   90.42    5.88
  -2   5   0   85.11    6.98
   2   5   0  101.62    5.81
   2   5   0   92.60    4.61
  -2   5  -1   32.02    4.76
   2   5   1   36.66    4.04
  -2   5  -1   34.86    4.09
   2   5   1   37.68    3.55
   2   5   1   39.44    5.40
   2   5   1   35.29    2.74
   2   5   2   94.58    5.27
   2   5   2   77.36    5.83
   2   5   2   98.38    3.56
  -2   5  -2   85.10    6.19
  -2   5  -2   85.81    7.05
   2   5   2   89.01    3.74
   2   5   3  243.62   10.40
  -2   5  -3  265.60   10.72
   2   5   3  251.25    8.68
   2   5   3  248.23    5.27
  -2   5  -3  230.94   10.97
   2   5   4   57.33    4.78
   2   5   4   49.03    5.49
  -2   5  -4   50.54    5.38
  -2   5  -4   51.57    5.70
  -2   5  -5  310.13   12.38
   2   5   5  302.49   12.96
   2   5   5  308.97   10.25
   2   5   6   53.94    6.57
  -2   5  -6   46.64    5.81
   2   5   6   48.85    4.88
   2   5   7  121.63    9.53
  -2   5  -7   97.46    7.75
   2   5   7  115.47    7.14
   2   5   8   26.47    4.25
   2   5   8   25.01    5.72
  -2   5  -8   21.96    5.05
   2   5   9   10.01    4.45
   2   5   9   14.67    3.66
  -2   5  -9    8.51    3.99
   2   5  10   14.82    5.33
  -2   5 -10   17.51    4.69
  -2   5 -11    7.38    4.45
   2   6 -11   19.74    5.26
  -2   6  11   17.86    4.85
   2   6 -10    1.83    3.57
  -2   6  10    5.05    4.24
  -2   6   9   10.22    3.99
   2   6  -9   14.12    3.87
  -2   6   8    6.41    3.77
   2   6  -8    7.06    3.68
  -2   6   7   15.12    4.55
   2   6  -7   16.09    4.09
  -2   6   7   23.84    5.44
  -2   6   6  202.27   12.08
  -2   6   6  238.72   12.45
   2   6  -6  211.40   10.42
  -2   6   5   84.65    8.13
   2   6  -5  103.05    7.25
  -2   6   5   99.71    7.70
   2   6  -4   74.04    5.99
  -2   6   4   84.20    7.03
  -2   6   4   65.94    7.23
   2   6  -4   71.03    6.59
  -2   6   3   45.62    6.17
   2   6  -3   33.50    4.16
   2   6  -3   35.70    2.86
  -2   6   3   46.52    5.19
   2   6  -3   44.66    5.65
  -2   6   3   44.71    3.68
   2   6  -2   59.20    4.74
   2   6  -2   68.20    4.39
  -2   6   2   59.29    4.44
  -2   6   2   70.08    6.25
   2   6  -2   61.63    6.55
  -2   6   2   70.53    7.16
   2   6  -1   19.48    2.88
  -2   6   1   26.04    5.08
  -2   6   1   19.27    3.19
   2   6  -1   21.00    4.25
  -2   6   1   14.74    3.18
   2   6  -1   26.60    3.30
  -2   6   0   12.43    3.96
  -2   6   0   10.77    2.83
   2   6   0   14.02    2.44
   2   6   0   14.28    4.13
   2   6   0   14.29    2.19
  -2   6   0   15.69    3.16
   2   6   0   16.45    2.97
   2   6   1  102.18    4.87
   2   6   1   96.21    4.85
   2   6   1  106.65    6.16
   2   6   1  108.30    9.06
  -2   6  -1  107.38    6.95
  -2   6  -1  101.77    6.80
   2   6   1  109.68    6.84
  -2   6  -1  107.91    8.55
   2   6   2  123.35    6.70
   2   6   2  110.56    7.41
  -2   6  -2  133.93    9.13
  -2   6  -2  124.86    7.88
   2   6   2  125.43    9.59
   2   6   2  125.39    5.11
   2   6   3  234.21    9.15
   2   6   3  227.50   10.70
  -2   6  -3  228.10   10.73
  -2   6  -3  217.80   11.31
   2   6   4   63.49    6.48
  -2   6  -4   67.47    6.59
   2   6   4   65.39    5.36
  -2   6  -4   62.59    6.59
   2   6   5    0.53    2.57
   2   6   5    5.83    3.33
  -2   6  -5    3.73    2.94
  -2   6  -5    4.53    3.48
   2   6   6    9.25    3.70
   2   6   6    5.31    3.23
  -2   6  -6    0.90    2.57
   2   6   7    6.28    3.81
   2   6   7    2.30    2.39
  -2   6  -7    6.48    3.58
   2   6   8   13.24    4.58
   2   6   8   16.79    4.05
  -2   6  -8   19.81    4.99
   2   6   9    7.38    4.40
  -2   6  -9   11.48    4.36
   2   6   9   16.83    4.29
   2   7 -10   19.86    5.41
  -2   7  10   18.61    6.18
  -2   7  10   12.95    4.55
  -2   7   9   11.22    4.91
  -2   7   9   18.09    5.20
   2   7  -9   12.46    4.41
  -2   7   8    6.01    4.46
   2   7  -8    6.30    3.33
  -2   7   8    4.51    3.12
  -2   7   7   36.21    6.34
   2   7  -7   39.70    5.55
  -2   7   7   54.36    6.99
  -2   7   6    7.51    3.89
  -2   7   6   10.27    3.49
  -2   7   6   12.97    4.46
   2   7  -6    5.30    3.49
  -2   7   5  117.07   10.05
   2   7  -5  113.13    8.03
  -2   7   5  111.83    9.04
  -2   7   4  104.64    9.48
   2   7  -4  124.71    9.46
  -2   7   4  104.11    5.35
  -2   7   4  113.76    8.87
   2   7  -4  121.54    7.88
  -2   7   3   19.93    5.21
  -2   7   3   26.47    3.30
  -2   7   3   22.72    4.45
   2   7  -3   24.26    5.55
   2   7  -3   28.56    4.17
   2   7  -2  101.37    6.44
  -2   7   2   97.30    6.12
  -2   7   2   99.16    8.03
   2   7  -2  102.70    9.04
  -2   7   2  107.01    9.25
   2   7  -1   36.26    4.01
  -2   7   1   35.88    6.29
   2   7  -1   36.51    3.89
  -2   7   1   37.63    4.22
  -2   7   1   34.25    5.24
   2   7  -1   27.93    5.41
   2   7   0    0.17    1.91
  -2   7   0    0.03    2.80
  -2   7   0    5.80    4.35
   2   7   0   -3.49    1.93
   2   7   0    4.14    2.50
   2   7   0    1.09    3.29
  -2   7   0    0.91    2.79
  -2   7  -1   17.13    5.12
  -2   7  -1   13.38    3.46
   2   7   1   11.59    3.02
   2   7   1   15.40    4.51
  -2   7  -1   12.82    3.27
   2   7   1   15.42    2.48
   2   7   1   21.28    3.68
  -2   7  -2   40.82    6.05
  -2   7  -2   41.33    5.17
   2   7   2   37.33    4.74
   2   7   2   28.64    5.36
   2   7   2   41.11    4.49
  -2   7  -3   15.26    4.03
  -2   7  -3   13.23    4.02
   2   7   3    6.11    2.81
   2   7   3   16.93    3.43
   2   7   3   15.32    4.64
  -2   7  -4   23.90    4.94
  -2   7  -4   17.28    4.20
   2   7   4   14.66    4.37
   2   7   4   13.63    3.59
   2   7   5   34.83    5.65
   2   7   5   36.26    4.78
  -2   7  -5   31.87    5.15
   2   7   6   11.19    4.14
   2   7   6    8.17    3.50
  -2   7  -6    8.32    4.07
   2   7   7    4.05    3.94
  -2   7  -7    2.62    3.33
   2   7   7    2.68    2.99
   2   7   8    4.92    3.53
  -2   7  -8    4.74    4.08
   2   7   8    4.24    3.67
  -2   8  10   14.59    6.58
  -2   8   9    9.60    5.18
  -2   8   9    9.50    4.14
  -2   8   8   41.47    7.65
  -2   8   8   54.17    7.11
  -2   8   8   30.30    5.74
   2   8  -8   51.45    6.74
  -2   8   7   19.49    6.21
  -2   8   7   10.02    4.93
   2   8  -7   23.26    4.73
  -2   8   7   16.99    4.52
  -2   8   6   10.85    4.00
  -2   8   6   10.73    5.23
  -2   8   6   22.43    6.19
   2   8  -6    4.99    3.74
  -2   8   5   12.04    5.37
  -2   8   5    7.11    3.74
   2   8  -5    9.98    3.77
  -2   8   4   13.37    5.31
   2   8  -4   13.90    4.81
  -2   8   4   10.30    3.87
   2   8  -4   19.01    4.27
  -2   8   3   12.35    5.02
   2   8  -3   19.36    5.33
  -2   8   3   19.96    4.91
   2   8  -3   20.78    3.95
   2   8  -2   51.63    5.41
  -2   8   2   59.82    5.07
  -2   8   2   65.75    8.25
  -2   8   2   65.40    7.25
   2   8  -2   72.86    8.46
  -2   8   1    5.82    2.64
  -2   8   1    9.73    4.77
   2   8  -1    4.15    2.32
   2   8  -1    8.00    3.05
  -2   8   1    8.07    3.48
   2   8  -1    9.33    4.94
   2   8   0   62.59    5.01
  -2   8   0   63.92    8.12
  -2   8   0   68.37    5.96
   2   8   0   52.63    5.24
   2   8   0   63.64    8.17
  -2   8   0   62.66    6.84
   2   8   1   86.13    7.03
  -2   8  -1   76.46    6.65
  -2   8  -1   83.71    8.76
   2   8   1   85.88    6.53
   2   8   1   81.91    9.21
  -2   8  -1   79.13    7.37
   2   8   2   18.78    5.43
   2   8   2    9.35    3.61
  -2   8  -2    7.72    4.86
  -2   8  -2   10.64    3.58
   2   8   2   13.56    3.36
  -2   8  -3   -0.71    2.62
   2   8   3   -9.24    4.14
   2   8   3   -0.87    2.71
   2   8   3   -2.24    2.37
   2   8   4   -0.53    3.57
   2   8   4    7.26    4.49
   2   8   4    5.86    3.22
  -2   8  -4    2.51    3.06
   2   8   5    0.93    3.20
   2   8   5    2.05    3.23
   2   8   5    5.83    3.34
  -2   8  -5    0.95    3.33
   2   8   6   -3.50    3.69
   2   8   6    0.35    3.26
  -2   8  -6    4.50    3.21
   2   8   7   -5.28    4.48
   2   8   7    3.06    2.99
  -2   8  -7   -6.07    4.41
  -2   9   8    9.15    3.15
  -2   9   8   15.95    4.25
  -2   9   7    3.57    2.59
   2   9  -7   10.70    4.57
  -2   9   7   11.12    3.45
  -2   9   7    9.12    5.10
  -2   9   6   13.42    4.71
  -2   9   6   23.64    6.35
   2   9  -6   21.27    4.65
  -2   9   5   13.17    3.98
   2   9  -5   16.57    4.38
  -2   9   5   15.46    5.94
  -2   9   4   35.86    6.11
   2   9  -4   23.26    4.46
   2   9  -4   41.08    6.61
  -2   9   3   -0.39    2.88
   2   9  -3    6.64    4.53
   2   9  -3    9.71    3.43
  -2   9   2   12.78    4.11
   2   9  -2   17.06    5.40
   2   9  -2   13.10    3.36
   2   9  -1   13.89    5.30
  -2   9   1    9.26    3.64
  -2   9   1    8.85    2.92
  -2   9   0    5.25    3.17
   2   9   0    5.66    3.79
  -2   9   0    4.63    2.86
   2   9   0   -0.15    2.66
   2   9   1    4.05    2.92
   2   9   1   -5.26    4.22
  -2   9  -1    1.16    2.72
   2   9   2    9.42    3.22
   2   9   2   -0.08    2.81
  -2   9  -2   11.20    3.95
   2   9   3   14.54    3.42
  -2   9  -3    8.95    4.24
   2   9   3   19.30    5.92
   2   9   3   11.11    3.69
   2   9   4   -6.88    4.14
   2   9   4   -3.00    3.17
  -2   9  -4    1.27    3.56
   2   9   4   -7.85    3.77
   2   9   5   -6.99    3.90
   2   9   5    1.14    2.90
  -2   9  -5   -1.13    3.34
   2   9   6   -5.87    3.54
   2   9   6   -2.32    4.01
  -2  10   6   -6.20    2.63
   2  10  -5   39.92    6.17
  -2  10   5   46.74    6.86
   2  10  -4    2.73    2.76
  -2  10   4    6.32    3.20
  -2  10   3    2.91    2.26
   2  10  -3    4.72    2.82
   2  10  -2    5.07    4.06
  -2  10   2   -2.04    2.26
  -2  10   1    7.66    3.39
   2  10  -1    9.71    5.15
   2  10   0   17.42    5.90
  -2  10   0   16.22    4.31
  -2  10   0   14.37    3.98
   2  10   1    8.57    3.95
  -2  10  -1    1.58    3.16
   2  10   2    1.59    2.28
  -2  10  -2   -9.52    4.42
   2  10   3    6.37    2.85
  -2  10  -3  -12.80    4.61
   2  10   4  -13.00    3.74
  -3 -10   6   -0.05    5.89
  -3 -10   5   13.63    6.95
  -3 -10   4    7.72    5.49
   3 -10  -4   -0.62    5.83
   3 -10  -3   -2.53    5.52
  -3 -10   3   -9.33    6.26
  -3 -10   2   12.73    7.11
   3 -10  -2    5.26    5.83
   3 -10  -1    4.48    5.31
  -3 -10   1   -3.66    5.09
  -3 -10   1    9.70    6.13
   3 -10  -1    8.73    5.30
   3 -10   0    4.29    4.66
  -3 -10   0   11.39    5.42
   3 -10   0    3.44    4.40
  -3 -10   0    7.26    5.53
   3 -10   1   13.94    5.66
   3 -10   1   19.71    6.50
  -3 -10  -1   15.60    5.87
   3 -10   2    1.41    3.97
   3 -10   2   -3.60    4.46
  -3  -9   7    7.89    5.84
  -3  -9   6  -10.57    6.59
  -3  -9   6   -0.65    4.96
   3  -9  -6    6.17    5.46
   3  -9  -5   16.15    6.56
  -3  -9   5   14.42    5.92
  -3  -9   5   16.83    7.22
   3  -9  -4   -0.05    4.99
  -3  -9   4    5.51    4.83
  -3  -9   4   -1.30    4.52
  -3  -9   3   12.48    5.75
  -3  -9   3    6.39    5.16
   3  -9  -3    8.27    4.80
   3  -9  -2   13.25    4.60
  -3  -9   2   13.03    5.57
  -3  -9   2   17.11    6.31
   3  -9  -2   15.11    5.20
   3  -9  -2    9.19    5.46
  -3  -9   1   12.73    5.61
   3  -9  -1   17.03    5.09
  -3  -9   1   18.21    6.29
   3  -9  -1    7.54    4.54
   3  -9  -1    9.02    4.59
   3  -9   0    6.46    4.02
   3  -9   0    4.54    4.01
  -3  -9   0   11.15    4.95
  -3  -9   0    0.73    4.57
   3  -9   0    5.30    4.69
   3  -9   1   21.97    6.04
   3  -9   1   21.66    5.67
  -3  -9  -1   29.83    7.02
  -3  -9  -1   29.82    7.16
   3  -9   2   14.96    5.60
   3  -9   2   19.72    5.54
  -3  -9  -2   11.80    5.24
  -3  -9  -3    0.03    4.14
   3  -9   3    9.90    5.24
   3  -9   3    2.73    4.48
   3  -9   4   14.17    6.10
  -3  -8   9   33.98    8.97
  -3  -8   9   25.80    6.70
  -3  -8   8   26.89    7.74
  -3  -8   8   38.05    7.76
   3  -8  -8   33.49    7.53
  -3  -8   7   45.36    7.78
  -3  -8   7   46.88    8.54
   3  -8  -7   56.46    9.32
  -3  -8   6   56.39    9.14
  -3  -8   6   47.12    8.34
   3  -8  -6   49.84    7.95
  -3  -8   5    1.22    5.12
   3  -8  -5    1.38    5.14
  -3  -8   5    0.62    5.05
   3  -8  -4   67.51    8.67
   3  -8  -4   74.50    7.37
  -3  -8   4   74.65    9.45
  -3  -8   4   74.44    9.10
   3  -8  -3   67.38    7.26
   3  -8  -3   52.31    6.51
   3  -8  -3   66.87    8.00
  -3  -8   3   61.48    8.61
  -3  -8   3   66.57    8.71
   3  -8  -2   -1.07    3.21
   3  -8  -2    3.81    3.83
   3  -8  -2    9.11    5.37
  -3  -8   2   -0.67    4.12
  -3  -8   2    1.64    4.19
   3  -8  -1   21.23    4.97
  -3  -8   1   16.76    5.68
  -3  -8   1   15.45    5.48
   3  -8  -1   24.61    4.98
   3  -8  -1   25.13    5.55
  -3  -8   0    0.02    3.86
   3  -8   0   -1.12    3.30
  -3  -8   0    6.59    4.30
   3  -8   0    2.55    3.32
   3  -8   0    8.66    4.35
   3  -8   1    4.10    3.35
  -3  -8  -1    1.62    4.28
  -3  -8  -1    4.01    3.86
   3  -8   1    2.89    3.78
   3  -8   1    5.72    3.70
   3  -8   2    2.91    2.97
  -3  -8  -2    3.35    3.84
   3  -8   2    8.02    4.36
  -3  -8  -3   28.80    6.30
   3  -8   3   17.57    4.79
   3  -8   3   21.73    5.37
   3  -8   4   23.00    5.58
   3  -8   4   35.82    7.04
   3  -8   5   -2.33    3.70
   3  -8   6    4.70    5.32
  -3  -7  11   14.87    6.42
   3  -7 -11   -9.74    4.88
   3  -7 -10   14.38    5.70
  -3  -7  10   13.98    7.01
  -3  -7  10    3.92    5.21
   3  -7 -10   14.28    5.58
   3  -7  -9   27.85    6.68
   3  -7  -9   24.60    7.27
  -3  -7   9   40.82    8.24
  -3  -7   9   31.26    6.90
   3  -7  -8   34.59    6.49
  -3  -7   8   31.11    6.98
  -3  -7   8   34.87    7.25
  -3  -7   7   13.20    4.91
  -3  -7   7   25.16    6.48
   3  -7  -7   25.20    5.85
  -3  -7   6   36.99    7.47
   3  -7  -6   52.71    7.64
  -3  -7   6   41.55    6.85
   3  -7  -5   17.05    3.98
  -3  -7   5   14.40    5.37
  -3  -7   5   17.73    4.84
   3  -7  -5   20.10    5.42
  -3  -7   4   59.06    7.98
   3  -7  -4   90.24    7.45
   3  -7  -4   87.43    8.79
  -3  -7   4   88.43    9.06
   3  -7  -4   86.01    6.85
   3  -7  -3   13.96    3.96
  -3  -7   3   11.42    5.14
  -3  -7   3   15.89    4.96
   3  -7  -3    5.78    3.28
   3  -7  -3   14.18    4.47
   3  -7  -2   98.28    7.65
   3  -7  -2   93.90    8.25
   3  -7  -2  103.33    8.23
  -3  -7   2   87.49    9.13
  -3  -7   2  101.10    9.60
   3  -7  -1  127.62    8.93
  -3  -7   1  112.06   10.20
  -3  -7   1  108.52    9.80
   3  -7  -1  109.40    8.14
   3  -7  -1  122.50    8.76
   3  -7   0   73.46    7.31
  -3  -7   0   78.29    8.37
  -3  -7   0   57.47    7.73
   3  -7   0   60.12    6.52
   3  -7   0   75.35    6.93
   3  -7   1    9.49    3.94
   3  -7   1   12.50    3.57
  -3  -7  -1   15.91    5.04
  -3  -7  -1   12.01    4.35
   3  -7   1   11.71    3.88
  -3  -7  -2   16.12    4.68
   3  -7   2   14.73    4.83
   3  -7   2   22.83    5.22
   3  -7   2   11.41    3.54
   3  -7   3    6.86    4.20
  -3  -7  -3   12.15    5.16
   3  -7   3    1.03    2.97
   3  -7   4   12.51    4.54
   3  -7   4   12.43    4.62
   3  -7   5   -0.56    4.24
   3  -7   5   -0.88    3.36
   3  -7   6   -0.24    4.12
  -3  -7  -6    3.71    5.50
   3  -7   7   -0.82    3.96
  -3  -7  -7    4.76    5.22
   3  -6 -12    8.56    6.02
   3  -6 -12    6.28    5.53
  -3  -6  12   -4.56    4.52
  -3  -6  11   10.27    6.36
   3  -6 -11   19.88    6.55
  -3  -6  11    8.44    4.64
   3  -6 -11   14.75    6.06
   3  -6 -10  -10.65    5.48
  -3  -6  10    1.20    4.87
   3  -6 -10    1.45    3.83
   3  -6  -9    3.58    4.43
  -3  -6   9    6.49    4.18
  -3  -6   9    1.84    3.59
   3  -6  -9    9.42    5.06
   3  -6  -8   -1.05    3.70
  -3  -6   8    8.43    5.54
  -3  -6   8    1.24    4.05
   3  -6  -8   10.97    4.97
   3  -6  -7   31.29    6.23
   3  -6  -7   34.22    5.87
  -3  -6   7   38.37    7.11
  -3  -6   7   33.76    6.06
  -3  -6   6   61.42    8.25
   3  -6  -6   67.48    6.61
  -3  -6   6   62.74    7.43
   3  -6  -6   65.76    7.67
  -3  -6   5   82.33    8.80
   3  -6  -5   91.49    7.41
  -3  -6   5   89.56    8.64
   3  -6  -5   94.50    5.87
   3  -6  -5   92.61    8.28
   3  -6  -4   48.26    5.66
   3  -6  -4   49.41    6.13
   3  -6  -4   40.80    4.09
  -3  -6   4   42.62    6.45
  -3  -6   4   37.81    5.88
   3  -6  -3   47.68    5.47
  -3  -6   3   41.14    6.35
   3  -6  -3   38.09    4.37
   3  -6  -3   57.39    6.34
  -3  -6   3   55.93    6.71
   3  -6  -2   25.25    4.76
  -3  -6   2   18.47    4.57
   3  -6  -2   27.81    4.57
  -3  -6   2   23.55    5.13
   3  -6  -2   25.23    3.88
   3  -6  -1   12.44    3.83
  -3  -6   1   10.18    3.96
  -3  -6   1    9.41    4.21
   3  -6  -1   10.07    3.40
   3  -6  -1    5.95    2.87
   3  -6   0   32.38    4.71
  -3  -6   0   29.88    5.55
   3  -6   0   28.04    4.42
   3  -6   0   28.79    4.82
  -3  -6   0   34.10    5.38
   3  -6   1   55.29    6.47
   3  -6   1   54.73    4.28
  -3  -6  -1   41.89    6.33
   3  -6   1   44.04    5.38
   3  -6   1   49.84    5.14
  -3  -6  -2  178.85   11.69
   3  -6   2  190.01   10.93
   3  -6   2  177.42    9.95
   3  -6   2  181.11    7.89
   3  -6   2  203.40    8.96
  -3  -6  -3   95.55    8.98
   3  -6   3   95.25    8.38
   3  -6   3   84.18    6.00
   3  -6   3   78.38    7.41
   3  -6   3   87.10    5.87
  -3  -6  -4    2.13    4.46
   3  -6   4    3.65    3.90
   3  -6   4    2.79    2.53
   3  -6   4    2.53    3.12
  -3  -6  -5    8.59    5.54
   3  -6   5    7.27    4.55
   3  -6   5    8.18    3.08
   3  -6   5   13.21    4.62
  -3  -6  -6    6.23    5.20
   3  -6   6    7.56    4.33
  -3  -6  -7   15.60    6.67
   3  -6   7    6.94    3.65
  -3  -6  -8    8.47    5.84
   3  -6   8    1.97    3.98
   3  -5 -13   -4.91    6.06
  -3  -5  12   -4.31    4.40
  -3  -5  12    5.01    5.74
   3  -5 -12  -10.99    5.58
   3  -5 -12    2.58    4.60
  -3  -5  11    2.26    3.71
  -3  -5  11    0.48    5.97
   3  -5 -11    1.30    4.29
   3  -5 -11    5.04    4.26
  -3  -5  10    4.91    5.09
  -3  -5  10    2.59    3.81
   3  -5 -10   -1.45    4.69
   3  -5 -10   -1.36    3.77
   3  -5  -9    3.47    4.20
  -3  -5   9    2.82    4.60
  -3  -5   9    2.97    3.38
   3  -5  -9    4.24    4.17
   3  -5  -8   49.14    7.17
   3  -5  -8   45.93    5.51
  -3  -5   8   34.03    5.57
   3  -5  -8   33.25    5.86
  -3  -5   8   29.96    6.38
   3  -5  -7    7.24    3.50
   3  -5  -7   14.96    3.93
   3  -5  -7   10.60    4.12
  -3  -5   7   12.80    4.67
  -3  -5   7    9.05    3.99
   3  -5  -6   23.46    4.97
   3  -5  -6   20.92    4.42
   3  -5  -6   27.70    4.46
  -3  -5   6   28.93    5.39
  -3  -5   6   21.60    4.42
   3  -5  -5    6.00    1.66
   3  -5  -5    3.62    3.35
  -3  -5   5    6.10    4.12
   3  -5  -5    6.65    3.08
  -3  -5   5    4.62    3.09
   3  -5  -4  176.26    9.33
  -3  -5   4  151.66   10.29
   3  -5  -4  165.45    6.77
  -3  -5   4  154.69    9.46
   3  -5  -4  156.80    9.15
  -3  -5   3   80.56    7.04
  -3  -5   3   87.08    7.80
   3  -5  -3   83.79    6.46
   3  -5  -3   86.14    5.11
   3  -5  -3   89.05    6.91
   3  -5  -2    5.04    2.90
   3  -5  -2    5.35    2.95
  -3  -5   2    1.15    3.95
  -3  -5   2    8.69    3.60
   3  -5  -2    7.83    2.00
   3  -5  -1  223.27    4.41
  -3  -5   1  252.27   11.73
   3  -5  -1  245.22   10.91
  -3  -5   1  223.97   11.92
   3  -5  -1  234.91    9.04
   3  -5  -1  249.77    9.81
  -3  -5   0  168.65    9.71
   3  -5   0  167.67    9.26
   3  -5   0  170.20    7.92
   3  -5   0  170.74    5.47
  -3  -5   0  158.75   10.30
   3  -5   0  163.42    7.85
   3  -5   1  297.18   12.27
  -3  -5  -1  279.35   13.40
   3  -5   1  292.36    8.12
   3  -5   1  293.51   10.80
   3  -5   1  313.54   10.08
   3  -5   2  168.03    9.66
   3  -5   2  152.97    6.78
  -3  -5  -2  139.02    9.65
   3  -5   2  152.34    6.47
   3  -5   2  161.23    8.58
   3  -5   3   17.65    2.51
  -3  -5  -3   16.98    4.90
   3  -5   3   17.79    4.41
   3  -5   3   15.04    3.61
  -3  -5  -3   21.25    5.21
   3  -5   4   45.44    5.80
  -3  -5  -4   46.61    7.48
   3  -5   4   41.74    5.26
   3  -5   5   58.14    6.76
  -3  -5  -5   55.45    8.51
   3  -5   5   57.71    6.25
   3  -5   6   20.58    5.27
  -3  -5  -6    7.48    4.35
   3  -5   6   12.68    4.06
  -3  -5  -7    1.16    4.53
   3  -5   7    2.04    3.75
  -3  -5  -8  -12.55    7.12
   3  -5   8    2.25    3.56
   3  -5   9    0.20    3.67
  -3  -5  -9    0.42    6.36
   3  -4 -13   -1.25    4.41
  -3  -4  12   20.58    6.47
   3  -4 -12   11.00    5.13
   3  -4 -12   16.10    4.96
  -3  -4  12   18.14    4.80
  -3  -4  11   14.15    4.62
   3  -4 -11   14.12    4.88
  -3  -4  11   13.73    5.39
   3  -4 -11   13.63    5.76
  -3  -4  10   24.37    5.82
   3  -4 -10   26.79    6.18
  -3  -4  10   18.56    4.60
   3  -4 -10   15.86    4.66
   3  -4  -9   26.38    5.49
  -3  -4   9   27.03    5.65
   3  -4  -9   27.38    4.57
   3  -4  -9   24.13    5.33
  -3  -4   9   22.09    4.39
   3  -4  -8    4.39    3.52
  -3  -4   8    7.77    3.66
   3  -4  -8    2.74    3.12
   3  -4  -8    9.97    3.37
  -3  -4   8   16.76    4.76
   3  -4  -7   37.40    4.85
   3  -4  -7   35.13    5.53
  -3  -4   7   33.70    5.02
  -3  -4   7   37.36    5.91
   3  -4  -7   38.53    5.36
   3  -4  -6  140.32    8.49
   3  -4  -6  131.78    8.05
   3  -4  -6  143.69    9.22
  -3  -4   6  137.95    9.63
  -3  -4   6  135.61    8.47
   3  -4  -5   62.69    5.82
   3  -4  -5   65.75    5.74
  -3  -4   5   59.96    6.39
  -3  -4   5   68.58    3.34
  -3  -4   5   55.77    5.48
   3  -4  -5   74.86    6.11
  -3  -4   4   24.90    4.61
  -3  -4   4   25.49    1.55
   3  -4  -4   23.33    3.89
  -3  -4   4   30.69    4.28
   3  -4  -4   21.77    2.16
   3  -4  -4   23.42    3.69
  -3  -4   4   27.00    1.75
  -3  -4   3  144.82    8.96
   3  -4  -3  164.15    8.54
  -3  -4   3  146.09    8.20
   3  -4  -3  155.34    5.78
   3  -4  -3  157.95    7.67
  -3  -4   2  255.82   11.69
   3  -4  -2  253.40   10.62
  -3  -4   2  256.30   10.62
   3  -4  -2  248.60    7.66
   3  -4  -2  268.49    9.33
  -3  -4   1  692.02   18.94
  -3  -4   1  738.26   17.94
   3  -4  -1  710.83   13.29
   3  -4  -1  741.62   17.79
   3  -4  -1  722.80   14.35
   3  -4   0  103.95    6.98
  -3  -4   0  102.79    7.88
   3  -4   0  100.26    3.57
  -3  -4   0  107.27    7.27
   3  -4   0  104.90    5.59
   3  -4   0  104.64    5.52
   3  -4   1   14.98    2.32
   3  -4   1    8.80    2.93
  -3  -4  -1   10.42    3.42
   3  -4   1   11.50    2.56
   3  -4   2    2.23    1.43
  -3  -4  -2   -1.19    3.15
  -3  -4  -2    7.50    3.76
   3  -4   2    1.71    1.30
   3  -4   2    3.52    2.62
   3  -4   2    0.23    2.37
   3  -4   3   20.84    2.71
  -3  -4  -3   16.98    4.56
   3  -4   3   22.91    4.47
   3  -4   3   26.38    2.60
   3  -4   3   24.60    3.95
   3  -4   4   48.95    3.29
   3  -4   4   54.55    5.94
  -3  -4  -4   42.26    6.17
   3  -4   4   48.94    4.13
   3  -4   4   46.47    4.99
   3  -4   5  200.54   10.70
   3  -4   5  199.24    8.12
  -3  -4  -5  193.86   13.14
   3  -4   5  183.74    9.66
   3  -4   6   42.52    6.10
  -3  -4  -6   36.98    6.94
   3  -4   6   37.66    5.28
   3  -4   7   38.58    5.53
  -3  -4  -7   29.32    6.66
  -3  -4  -8   40.56    7.70
   3  -4   8   38.95    6.32
  -3  -4  -9    6.48    5.74
   3  -4   9   -0.02    4.56
  -3  -4 -10   16.77    6.35
   3  -4  10    8.47    5.06
   3  -3 -13    5.47    4.77
  -3  -3  13   10.22    5.27
   3  -3 -12   17.17    4.98
   3  -3 -12   16.97    5.34
  -3  -3  12   25.34    6.48
   3  -3 -11   74.71    7.74
   3  -3 -11   65.24    7.73
  -3  -3  11   69.83    8.27
  -3  -3  11   77.24    7.36
   3  -3 -10   14.37    4.84
   3  -3 -10    9.36    3.72
  -3  -3  10    7.37    4.02
   3  -3 -10    7.58    3.33
  -3  -3  10   10.74    3.89
   3  -3  -9   51.28    5.56
   3  -3  -9   51.70    5.93
   3  -3  -9   56.63    6.55
  -3  -3   9   45.77    6.40
  -3  -3   9   56.18    5.86
   3  -3  -8   55.61    5.47
  -3  -3   8   64.72    5.87
   3  -3  -8   52.53    5.84
  -3  -3   8   58.48    6.91
   3  -3  -8   60.90    5.97
  -3  -3   7  184.27   10.51
   3  -3  -7  181.18    8.94
   3  -3  -7  166.46    9.14
  -3  -3   7  172.02    8.80
   3  -3  -7  166.57    8.89
   3  -3  -6    4.59    2.62
   3  -3  -6    4.07    2.54
  -3  -3   6    7.38    3.59
   3  -3  -6    4.68    2.72
  -3  -3   6    5.07    2.66
   3  -3  -5   73.26    5.61
   3  -3  -5   69.39    5.59
  -3  -3   5   74.82    6.56
  -3  -3   5   67.14    5.25
   3  -3  -5   71.32    5.28
   3  -3  -4   57.30    2.41
   3  -3  -4   45.56    4.25
   3  -3  -4   47.64    4.64
  -3  -3   4   56.20    3.13
  -3  -3   4   50.34    5.44
  -3  -3   4   53.80    4.60
   3  -3  -4   52.07    4.28
  -3  -3   3  191.48    4.74
   3  -3  -3  174.31    8.35
   3  -3  -3  182.51    4.94
  -3  -3   3  177.48    7.93
  -3  -3   3  185.39    9.29
   3  -3  -3  188.81    7.37
   3  -3  -2 1268.30   21.92
  -3  -3   2 1285.61   20.73
   3  -3  -2 1321.67   14.21
  -3  -3   2 1279.48   23.49
   3  -3  -2 1281.03   17.85
  -3  -3   2 1266.69    8.98
   3  -3  -1  383.24   12.20
   3  -3  -1  374.95    8.15
  -3  -3   1  366.10   12.85
   3  -3  -1  371.46    9.15
  -3  -3   1  372.66   11.49
  -3  -3   0  255.32   10.94
   3  -3   0  276.29   10.58
   3  -3   0  270.31    7.45
   3  -3   0  266.57    7.39
  -3  -3  -1 1052.01   22.07
   3  -3   1 1066.90   16.45
   3  -3   1 1059.62   20.45
  -3  -3  -1 1091.24   22.20
   3  -3   1 1070.33   15.66
   3  -3   1 1048.88   14.06
   3  -3   2  417.10   13.04
   3  -3   2  409.82   10.66
   3  -3   2  408.13    8.40
  -3  -3  -2  410.39   14.46
  -3  -3  -2  427.41   14.47
   3  -3   2  403.08   10.38
   3  -3   3  209.92    9.63
   3  -3   3  211.52    8.08
  -3  -3  -3  205.68   10.97
   3  -3   3  205.81    7.98
  -3  -3  -3  233.98    5.75
   3  -3   3  224.44    6.03
   3  -3   4   47.17    5.27
   3  -3   4   36.45    3.97
  -3  -3  -4   38.77    5.69
   3  -3   4   49.85    4.52
  -3  -3  -4   46.39    2.47
   3  -3   5  206.70   10.23
   3  -3   5  188.01    8.78
  -3  -3  -5  189.33   11.54
   3  -3   5  190.27    8.84
   3  -3   6   14.11    3.34
   3  -3   6   13.11    3.86
   3  -3   6   15.92    3.87
  -3  -3  -6    8.58    4.47
   3  -3   7   54.86    5.55
  -3  -3  -7   49.91    7.43
   3  -3   7   49.56    5.73
  -3  -3  -8    1.17    3.97
   3  -3   8    3.37    3.64
  -3  -3  -9   24.39    6.50
   3  -3   9   24.11    5.65
  -3  -3 -10   27.96    6.96
   3  -3  10   24.09    5.23
   3  -2 -14   12.12    5.27
   3  -2 -13    4.12    4.10
  -3  -2  13   -0.08    3.25
   3  -2 -12   14.37    4.99
  -3  -2  12   14.13    5.01
  -3  -2  11   18.66    4.64
  -3  -2  11   17.11    3.72
   3  -2 -11   17.61    4.71
   3  -2 -11   12.95    3.82
   3  -2 -11   14.52    4.12
   3  -2 -10   41.49    5.18
   3  -2 -10   43.43    5.46
  -3  -2  10   42.31    6.31
   3  -2 -10   36.18    5.70
  -3  -2  10   42.37    4.88
   3  -2 -10   42.56    4.57
  -3  -2   9  296.03   13.54
   3  -2  -9  304.58   12.03
   3  -2  -9  296.72   11.79
   3  -2  -9  293.82   12.18
  -3  -2   9  289.01   11.02
   3  -2  -9  301.37   10.23
   3  -2  -8   25.57    3.90
   3  -2  -8   24.93    3.23
   3  -2  -8   26.61    4.14
  -3  -2   8   28.58    4.97
   3  -2  -8   23.43    3.96
  -3  -2   8   22.06    3.47
   3  -2  -7  833.51   17.15
   3  -2  -7  816.85   17.96
  -3  -2   7  809.76   19.69
   3  -2  -7  802.08   17.05
  -3  -2   7  804.72   16.24
   3  -2  -7  826.11   15.50
   3  -2  -6  340.15   11.32
   3  -2  -6  357.06   10.71
  -3  -2   6  335.89   12.26
  -3  -2   6  360.98   10.48
   3  -2  -6  339.41   10.42
   3  -2  -5   16.41    2.52
  -3  -2   5   18.52    3.46
   3  -2  -5   14.98    2.86
  -3  -2   5   15.83    2.57
   3  -2  -5   18.02    2.76
   3  -2  -4  626.08   14.43
   3  -2  -4  621.23   12.12
  -3  -2   4  615.19   15.21
  -3  -2   4  617.28   12.70
   3  -2  -4  649.44   12.54
  -3  -2   3  323.75   10.97
  -3  -2   3  322.17    7.78
   3  -2  -3  337.63    8.27
   3  -2  -3  320.51   10.34
   3  -2  -3  341.43    8.60
  -3  -2   3  318.61    9.10
   3  -2  -3  324.94    4.45
   3  -2  -2   77.03    1.91
   3  -2  -2   83.22    5.43
  -3  -2   2   90.12    4.99
  -3  -2   2   72.97    5.34
  -3  -2   2   76.94    1.99
   3  -2  -2   84.19    2.78
  -3  -2   2   76.59    3.64
   3  -2  -2   78.68    3.97
   3  -2  -1  562.14   13.66
   3  -2  -1  563.26   11.84
   3  -2  -1  568.34    7.66
   3  -2  -1  565.10    8.48
  -3  -2   1  559.22    9.57
   3  -2  -1  519.11    9.42
  -3  -2   1  581.05    6.89
   3  -2  -1  564.41    7.97
  -3  -2   1  533.85   13.93
   3  -2   0  813.17   16.73
  -3  -2   0  870.81   16.39
   3  -2   0  818.43   14.45
  -3  -2   0  840.52   17.78
   3  -2   0  873.72   11.92
  -3  -2   0  877.23   12.00
   3  -2   0  836.13   10.88
  -3  -2  -1 1576.87   24.70
   3  -2   1 1571.26   23.31
   3  -2   1 1556.28   20.79
  -3  -2  -1 1569.62   23.03
   3  -2   1 1583.04   16.58
  -3  -2  -2  264.75   10.84
   3  -2   2  257.51    9.65
   3  -2   2  249.30    8.81
  -3  -2  -2  275.97    6.28
  -3  -2  -2  246.24    9.67
   3  -2   3   10.73    2.70
   3  -2   3    7.72    2.79
  -3  -2  -3   11.73    1.44
  -3  -2  -3    7.57    2.72
   3  -2   4  517.18   14.27
   3  -2   4  504.91   13.87
  -3  -2  -4  525.13    9.64
  -3  -2  -4  520.58   15.72
   3  -2   4  499.86   12.15
   3  -2   5  192.24    9.17
   3  -2   5  186.26    8.94
  -3  -2  -5  201.02   10.47
   3  -2   5  169.64    7.81
  -3  -2  -6   16.09    1.95
   3  -2   6   16.00    3.47
   3  -2   6   15.80    3.77
  -3  -2  -6   16.04    4.27
   3  -2   6   14.77    3.50
   3  -2   7   36.41    5.20
  -3  -2  -7   41.29    5.91
   3  -2   7   32.64    4.49
   3  -2   8   62.84    6.56
   3  -2   8   73.14    7.04
  -3  -2  -8   68.59    7.70
  -3  -2  -9    4.59    3.79
   3  -2   9   -4.39    3.85
  -3  -2 -10   24.63    6.79
   3  -2  10   35.36    6.27
  -3  -2 -11   14.67    6.57
   3  -2  11   -8.28    4.77
   3  -1 -14    3.47    5.21
   3  -1 -13   13.48    5.03
   3  -1 -12   15.43    4.28
   3  -1 -11   11.26    3.86
   3  -1 -11   12.29    3.28
   3  -1 -11   12.50    3.52
  -3  -1  10  137.00    7.34
   3  -1 -10  134.00    8.30
   3  -1 -10  134.27    7.88
   3  -1 -10  128.91    7.36
   3  -1  -9  218.42    8.91
   3  -1  -9  214.58    9.19
   3  -1  -9  210.87    9.16
  -3  -1   9  211.39    8.40
   3  -1  -8   33.62    3.86
  -3  -1   8   38.29    4.85
  -3  -1   8   39.81    3.60
   3  -1  -8   33.76    3.82
   3  -1  -8   37.46    3.89
  -3  -1   7  131.72    7.57
  -3  -1   7  126.03    5.73
   3  -1  -7  132.16    6.08
   3  -1  -7  131.58    6.32
   3  -1  -7  119.66    6.14
  -3  -1   6  374.48   11.74
  -3  -1   6  389.39    5.90
  -3  -1   6  383.31    9.22
   3  -1  -6  365.44    8.98
   3  -1  -6  357.61   10.00
   3  -1  -6  382.89    9.81
   3  -1  -5 1291.40   20.29
  -3  -1   5 1351.27    9.32
  -3  -1   5 1271.56   20.35
  -3  -1   5 1277.02   16.00
   3  -1  -5 1273.99   14.95
   3  -1  -5 1281.26   18.14
   3  -1  -5 1308.86   16.96
   3  -1  -4 2235.16   25.75
  -3  -1   4 2229.11   26.01
  -3  -1   4 2278.74   10.53
   3  -1  -4 2260.39   17.65
  -3  -1   4 2218.08   19.98
   3  -1  -4 2253.13   23.51
   3  -1  -4 2277.19   20.70
   3  -1  -3   69.34    4.63
   3  -1  -3   67.06    2.66
  -3  -1   3   63.37    3.40
  -3  -1   3   64.10    4.04
  -3  -1   3   76.37    4.85
  -3  -1   3   62.29    3.41
   3  -1  -3   74.37    3.66
  -3  -1   2   73.36    4.23
   3  -1  -2   78.00    4.81
   3  -1  -2   82.45    3.34
  -3  -1   2   74.22    4.72
  -3  -1   1  348.38   10.15
   3  -1  -1  345.98   10.08
   3  -1  -1  365.19    7.74
  -3  -1   1  366.34    9.38
   3  -1   0  239.10    8.45
  -3  -1   0  263.26    7.25
  -3  -1   0  254.62    8.94
  -3  -1   0  263.70    8.03
   3  -1   1  731.28   14.98
   3  -1   1  723.17   14.69
  -3  -1  -1  746.52   15.80
  -3  -1  -1  742.70   12.97
  -3  -1  -1  754.47   13.73
  -3  -1  -2  456.11   11.01
   3  -1   2  440.79   12.01
   3  -1   2  452.29   11.71
   3  -1   3  281.48    9.53
  -3  -1  -3  296.65    9.58
   3  -1   4   54.63    4.67
   3  -1   4   55.66    4.99
  -3  -1  -4   53.29    4.73
   3  -1   5    7.16    2.52
   3  -1   5    9.86    2.89
  -3  -1  -5    8.69    2.89
   3  -1   6   44.59    4.85
   3  -1   6   44.51    5.11
  -3  -1  -6   39.15    3.25
  -3  -1  -6   46.44    5.20
  -3  -1  -7   79.66    4.63
   3  -1   7   85.90    7.35
  -3  -1  -7   80.21    7.03
   3  -1   8   11.81    4.09
  -3  -1  -8    0.33    3.96
   3  -1   9   15.94    4.43
   3  -1   9   21.67    4.91
  -3  -1  -9    9.56    4.78
   3  -1  10   21.92    5.02
  -3  -1 -10   11.96    5.08
   3  -1  10   16.98    4.71
   3  -1  11    4.39    3.81
   3   0 -14    4.03    4.53
   3   0 -13    1.06    3.30
   3   0 -12   27.03    4.64
   3   0 -12   21.90    4.26
   3   0 -11    2.68    2.67
   3   0 -11   -2.07    3.01
   3   0 -10   73.60    5.72
   3   0 -10   76.79    5.50
   3   0 -10   60.02    5.43
   3   0  -9    6.07    2.17
  -3   0   9    5.94    1.85
   3   0  -9    4.81    2.21
   3   0  -9    4.40    2.65
  -3   0   9    4.53    1.81
   3   0  -8   57.51    3.86
  -3   0   8   56.90    3.60
   3   0  -8   58.44    4.20
  -3   0   8   59.30    3.50
   3   0  -8   50.47    4.53
   3   0  -7  146.93    5.93
  -3   0   7  159.18    5.16
  -3   0   7  150.94    5.22
   3   0  -7  164.79    7.23
  -3   0   6   21.84    2.86
   3   0  -6   17.79    2.59
  -3   0   6   21.53    2.10
  -3   0   6   20.39    1.85
   3   0  -6   22.44    2.47
  -3   0   5 1008.58   11.77
   3   0  -5  988.18   13.05
  -3   0   5 1002.27   16.37
  -3   0   5  968.80   10.56
   3   0  -5 1014.64    8.48
   3   0  -5  989.39   15.85
  -3   0   4   15.03    2.73
   3   0  -4   14.25    2.41
  -3   0   4   18.69    1.69
  -3   0   4   14.34    2.34
  -3   0   4   14.96    1.33
   3   0  -4   17.15    1.27
  -3   0   3 2976.59   29.40
   3   0  -3 3067.04   27.91
  -3   0   3 2974.09   25.85
   3   0  -3 3006.50   25.98
  -3   0   3 3028.12   15.87
  -3   0   2  959.06   16.65
   3   0  -2  953.10   15.26
   3   0  -2  976.62    7.46
  -3   0   2  980.29   14.59
  -3   0   1  394.11    9.44
  -3   0   1  410.55   11.10
   3   0  -1  378.15    9.54
  -3   0   0   -0.05    1.14
   3   0   0   -0.25    1.11
  -3   0   0    0.42    1.11
  -3   0   0    1.37    0.58
   3   0   1  158.64    6.48
  -3   0  -1  161.51    7.28
  -3   0  -1  169.80    4.78
   3   0   2   73.67    4.57
  -3   0  -2   73.89    3.61
  -3   0  -2   75.75    5.23
   3   0   3    0.60    1.73
   3   0   3    0.55    1.34
  -3   0  -3    1.00    1.09
   3   0   4    3.12    2.10
   3   0   4    1.40    1.64
  -3   0  -4    0.17    1.47
   3   0   5    2.45    2.45
   3   0   5    2.02    1.57
  -3   0  -5    2.25    1.81
  -3   0  -6   -0.22    1.85
   3   0   6    0.47    2.51
  -3   0  -6    1.23    2.12
  -3   0  -7    8.48    2.45
   3   0   7   12.09    3.79
  -3   0  -7    8.83    3.04
   3   0   8   16.26    4.06
  -3   0  -8   15.93    4.00
  -3   0  -8   10.85    2.72
   3   0   9   11.79    4.17
  -3   0  -9    9.90    4.10
  -3   0 -10   14.05    5.00
   3   0  10   24.44    5.54
  -3   0 -11   43.11    7.34
   3   0  11   49.89    7.62
   3   0  11   57.74    6.73
   3   1 -14   18.17    5.11
   3   1 -13   15.85    3.98
   3   1 -12    8.01    3.52
   3   1 -12   11.10    3.29
   3   1 -11   13.77    3.16
   3   1 -11   12.44    3.52
  -3   1  11   14.64    3.01
  -3   1  10  144.33    6.62
   3   1 -10  133.23    8.06
  -3   1   9  223.09    7.62
  -3   1   9  209.35    6.42
   3   1  -9  217.04    7.44
   3   1  -9  211.32    9.53
   3   1  -8   41.19    3.20
   3   1  -8   36.06    4.35
  -3   1   8   40.07    3.54
  -3   1   8   44.04    2.68
  -3   1   7  134.29    3.95
   3   1  -7  130.00    5.06
  -3   1   7  133.83    5.65
   3   1  -7  130.77    6.85
  -3   1   6  356.57    5.21
  -3   1   6  388.93    9.29
   3   1  -6  380.79    7.90
   3   1  -6  383.66   10.76
  -3   1   5 1274.17   16.55
   3   1  -5 1319.88   18.70
  -3   1   5 1333.17   16.70
  -3   1   4 2329.19   20.35
   3   1  -4 2290.23   23.46
  -3   1   3   75.89    3.52
   3   1  -3   60.26    3.98
   3   1  -3   61.14    3.93
   3   1  -3   70.52    3.09
  -3   1   3   73.54    5.30
  -3   1   2   73.06    5.19
  -3   1   2   75.27    3.39
   3   1  -2   76.65    3.48
   3   1  -2   75.33    4.10
   3   1  -1  364.87    8.75
  -3   1   1  347.25    7.26
   3   1  -1  358.27    7.10
   3   1  -1  348.55    8.53
  -3   1   1  346.21   11.20
   3   1   0  249.01    7.24
   3   1   0  257.14    5.92
  -3   1   0  257.04    9.85
   3   1   1  731.40   12.60
  -3   1  -1  723.13   16.58
   3   1   2  474.27   10.30
  -3   1  -2  438.31   13.11
   3   1   3  307.76    8.20
  -3   1  -3  293.06   10.86
   3   1   4   53.56    3.60
   3   1   4   51.26    5.14
  -3   1  -5    7.87    2.31
   3   1   5    8.96    3.03
   3   1   5    8.55    1.95
  -3   1  -6   45.02    3.98
   3   1   6   33.42    4.90
  -3   1  -6   43.25    4.34
   3   1   7   94.88    8.11
  -3   1  -7   87.89    6.05
  -3   1  -7   89.04    5.87
  -3   1  -8    6.63    2.79
   3   1   8    8.83    4.12
  -3   1  -8    9.18    3.08
   3   1   9   20.02    4.99
  -3   1  -9   21.44    4.22
  -3   1  -9   14.68    3.40
   3   1  10   12.70    5.15
  -3   1 -10   17.96    4.74
   3   1  11   10.47    4.84
  -3   1 -11    1.19    4.28
   3   1  12   37.66    7.30
   3   2 -14    3.60    3.36
   3   2 -13   -0.47    3.28
   3   2 -13    1.62    2.93
  -3   2  13    1.74    2.65
   3   2 -12   13.16    4.26
  -3   2  12   18.22    3.41
   3   2 -11   11.93    3.86
  -3   2  11   14.65    3.39
  -3   2  10   41.44    4.44
   3   2 -10   39.18    5.05
   3   2  -9  284.59   11.31
  -3   2   9  308.14   10.04
  -3   2   8   23.32    3.40
   3   2  -8   23.53    4.02
  -3   2   8   24.35    1.76
   3   2  -8   24.60    2.35
  -3   2   7  844.73   15.81
  -3   2   7  806.72    7.65
   3   2  -7  836.40   11.19
   3   2  -7  821.29   17.06
   3   2  -6  336.39    6.24
   3   2  -6  353.43   10.75
   3   2  -5   16.29    2.83
   3   2  -4  651.12   12.05
  -3   2   4  646.35    9.12
   3   2  -4  649.94   13.48
  -3   2   4  619.63   16.27
   3   2  -3  332.93    9.05
  -3   2   3  331.23   11.81
  -3   2   3  349.71    6.72
  -3   2   3  323.52    5.87
   3   2  -3  321.78    8.50
  -3   2   3  328.48    5.57
   3   2  -3  335.94    9.05
  -3   2   2   75.10    2.10
   3   2  -2   87.76    3.55
   3   2  -2   84.61    4.94
  -3   2   2   96.80    3.84
   3   2  -2   80.01    4.56
  -3   2   2   82.60    2.47
  -3   2   2   68.45    5.72
   3   2  -2   84.37    4.40
  -3   2   1  530.60   15.07
   3   2  -1  568.11   10.21
   3   2  -1  552.61   12.80
   3   2  -1  539.16   11.86
   3   2  -1  553.63   10.60
   3   2   0  818.16   12.22
  -3   2   0  802.86   18.57
   3   2   0  801.14   12.53
   3   2   1 1576.78   16.81
  -3   2  -1 1549.18   26.29
   3   2   2  264.34    6.81
  -3   2  -2  230.61   10.31
  -3   2  -3   10.74    3.34
   3   2   3   11.18    1.59
   3   2   4  500.34   15.21
   3   2   4  527.21    8.42
  -3   2  -4  484.82   15.02
   3   2   5  187.06   10.09
  -3   2  -5  183.06    8.45
  -3   2  -6   14.96    3.38
   3   2   6   20.53    4.45
  -3   2  -7   41.57    4.91
   3   2   7   40.60    6.00
   3   2   8   67.17    7.69
  -3   2  -8   69.06    6.13
  -3   2  -9    5.09    3.01
   3   2   9    8.60    4.85
  -3   2  -9   -0.16    3.10
  -3   2 -10   23.05    4.76
   3   2  10   28.00    6.33
  -3   2 -10   28.80    4.64
   3   2  11   -0.06    4.53
  -3   2 -11   11.35    4.34
   3   3 -14   14.26    4.63
  -3   3  14   15.01    3.88
   3   3 -13    7.66    3.82
  -3   3  13    3.99    3.37
   3   3 -12   17.51    4.20
  -3   3  12   21.59    4.05
  -3   3  11   76.31    6.22
   3   3 -11   73.41    7.16
   3   3 -10   11.92    3.63
  -3   3  10   10.36    3.44
  -3   3   9   57.68    5.09
   3   3  -9   52.92    5.54
   3   3  -8   52.15    5.34
  -3   3   8   62.32    5.33
   3   3  -7  175.03    8.49
  -3   3   7  187.80    8.88
   3   3  -6    6.35    2.54
  -3   3   6    4.45    3.02
   3   3  -6    6.59    1.04
  -3   3   6    5.62    0.77
   3   3  -5   66.89    5.00
  -3   3   5   64.55    6.27
   3   3  -5   62.97    1.60
  -3   3   5   69.42    2.02
  -3   3   4   50.06    5.62
   3   3  -4   50.12    3.49
   3   3  -4   52.25    4.12
  -3   3   4   50.98    2.11
  -3   3   4   53.42    1.90
   3   3  -4   53.20    4.25
  -3   3   3  181.33    9.60
   3   3  -3  171.00    6.66
  -3   3   3  193.05    6.19
   3   3  -3  182.08    7.74
  -3   3   3  195.97    4.05
   3   3  -3  194.48    7.37
  -3   3   2 1277.28   24.96
   3   3  -2 1275.22   19.11
   3   3  -2 1321.61   21.02
  -3   3   2 1309.16   14.63
   3   3  -2 1291.68    7.72
  -3   3   1  345.97   13.18
   3   3  -1  375.82    6.70
   3   3  -1  366.22   10.86
   3   3  -1  372.75   11.66
   3   3  -1  367.87    5.36
   3   3  -1  372.80    9.05
   3   3   0  272.32    9.70
   3   3   0  271.63    5.44
  -3   3   0  262.84   11.51
   3   3   0  276.90    7.52
   3   3   0  267.10    7.13
  -3   3  -1 1042.28   22.95
   3   3   1 1075.09   19.86
   3   3   1 1053.98   12.66
   3   3   1 1056.25   11.87
   3   3   1 1050.76   14.17
   3   3   2  405.70    8.27
  -3   3  -2  413.49   14.57
   3   3   3  214.91    3.71
   3   3   3  213.16    9.95
   3   3   3  223.12    6.76
  -3   3  -3  202.40   10.42
   3   3   4   44.07    5.15
  -3   3  -4   40.11    4.67
  -3   3  -4   45.87    5.74
  -3   3  -5  190.74    9.38
   3   3   5  192.92   10.66
  -3   3  -6    9.20    3.56
   3   3   6   11.42    3.90
   3   3   7   55.92    6.86
  -3   3  -7   59.69    6.10
  -3   3  -8    0.77    2.93
   3   3   8    2.21    4.13
   3   3   9   23.91    5.88
  -3   3  -9   25.35    4.69
   3   3  10   32.04    6.48
  -3   3 -10   20.93    4.56
   3   3  11    2.00    4.00
   3   4 -13    0.92    3.50
  -3   4  13    4.91    2.91
   3   4 -12   18.68    5.00
  -3   4  12   22.11    4.65
   3   4 -11   14.01    4.19
  -3   4  11   10.69    3.94
   3   4 -10   23.56    4.78
  -3   4  10   19.38    4.33
   3   4  -9   27.19    4.61
  -3   4   9   28.56    4.60
  -3   4   8   13.27    3.89
   3   4  -8   10.68    3.23
   3   4  -7   41.62    4.86
  -3   4   7   41.71    5.25
   3   4  -6  131.11    7.42
  -3   4   6  144.33    9.82
   3   4  -5   58.45    5.02
  -3   4   5   53.51    2.84
  -3   4   5   54.96    6.18
  -3   4   4   23.29    4.78
   3   4  -4   28.21    2.80
   3   4  -4   26.95    3.46
  -3   4   4   24.12    3.27
   3   4  -4   27.60    3.68
  -3   4   4   20.30    1.22
   3   4  -3  160.59    7.01
  -3   4   3  158.91    9.99
   3   4  -3  162.79    6.78
  -3   4   3  166.89    7.01
   3   4  -3  159.09    8.31
   3   4  -3  146.11    3.52
  -3   4   2  242.33   12.01
   3   4  -2  250.53    5.05
   3   4  -2  264.84    9.14
   3   4  -2  273.84   11.13
  -3   4   2  263.69    8.38
   3   4  -2  268.57    8.57
   3   4  -1  730.90   15.82
   3   4  -1  693.96    9.20
   3   4  -1  758.91   18.68
  -3   4   1  722.66   13.03
   3   4  -1  711.98   13.24
  -3   4   1  716.91   20.20
   3   4   0  103.11    4.00
   3   4   0  106.19    6.45
   3   4   0  100.99    7.36
   3   4   0  102.59    4.09
   3   4   0  113.33    5.18
  -3   4   0   95.49    7.84
  -3   4  -1   10.73    4.32
   3   4   1   12.41    2.93
   3   4   1   13.71    1.59
   3   4   1   12.21    2.08
   3   4   1   15.31    2.06
  -3   4  -2    3.44    3.29
   3   4   2    2.45    0.47
   3   4   2    4.58    2.38
   3   4   2    2.68    0.71
   3   4   2    2.89    1.69
   3   4   3   24.28    4.04
   3   4   3   24.04    2.88
  -3   4  -3   22.66    4.56
   3   4   4   46.72    3.98
   3   4   4   41.36    5.44
  -3   4  -4   42.14    5.26
  -3   4  -4   46.85    5.97
   3   4   5  205.50   11.44
  -3   4  -5  203.93   10.37
   3   4   5  187.29    7.60
  -3   4  -5  194.54   10.76
  -3   4  -6   35.41    5.32
   3   4   6   35.23    5.93
   3   4   6   41.09    4.39
  -3   4  -7   37.47    5.39
   3   4   7   29.52    5.91
  -3   4  -8   38.51    5.64
   3   4   8   44.98    7.37
   3   4   9    2.50    4.24
  -3   4  -9    2.16    3.07
  -3   4 -10    0.41    3.27
   3   4  10   18.24    5.70
  -3   4 -11    6.93    4.08
  -3   5  12    2.06    3.73
   3   5 -12   -0.71    3.07
   3   5 -11    2.55    3.76
  -3   5  11    0.10    3.10
   3   5 -10    0.12    2.99
  -3   5  10    0.90    2.56
   3   5  -9    7.28    3.44
  -3   5   9    4.50    3.15
   3   5  -8   37.36    5.40
  -3   5   8   40.03    6.61
  -3   5   8   45.98    6.21
  -3   5   7   11.20    4.65
  -3   5   7    6.96    4.53
   3   5  -7    5.30    2.95
  -3   5   6   25.61    5.54
   3   5  -6   25.60    4.16
   3   5  -5    3.84    2.65
  -3   5   5    3.17    4.00
   3   5  -5    5.19    2.59
  -3   5   5    6.87    2.43
  -3   5   4  162.70   10.92
   3   5  -4  167.18    7.98
   3   5  -4  169.30    6.35
  -3   5   4  167.77    8.28
   3   5  -4  177.12    9.42
  -3   5   3  101.07    8.59
   3   5  -3   87.58    5.62
   3   5  -3   90.17    3.84
   3   5  -3   90.54    5.33
  -3   5   3   77.89    5.80
   3   5  -3   86.90    7.06
   3   5  -2    3.18    2.83
  -3   5   2    3.35    3.36
   3   5  -2    5.80    2.26
  -3   5   2    6.89    2.63
   3   5  -2    8.05    2.39
   3   5  -2    7.06    1.66
  -3   5   1  239.52   12.77
   3   5  -1  230.34    6.45
   3   5  -1  239.44    9.57
   3   5  -1  252.82   12.22
  -3   5   1  245.63    8.93
   3   5  -1  245.16    8.37
   3   5   0  169.49    8.49
   3   5   0  171.89   10.53
   3   5   0  169.80    6.64
   3   5   0  156.09    4.32
  -3   5   0  158.12   10.52
   3   5   0  165.08    5.91
   3   5   1  301.46   11.73
   3   5   1  306.50    8.25
   3   5   1  297.05    8.20
  -3   5  -1  300.28   14.19
   3   5   2  167.03    9.20
  -3   5  -2  157.96    8.84
   3   5   2  156.39    6.34
   3   5   2  165.11    5.85
  -3   5  -2  153.67   10.34
  -3   5  -3   18.38    4.80
   3   5   3   20.93    3.06
  -3   5  -3   18.29    4.02
   3   5   3   24.15    4.18
   3   5   4   46.18    6.26
  -3   5  -4   46.26    5.75
  -3   5  -4   49.55    6.43
   3   5   4   48.78    4.27
   3   5   5   54.47    6.81
  -3   5  -5   56.77    6.52
   3   5   5   63.14    4.86
  -3   5  -5   61.68    6.89
  -3   5  -6   18.44    4.35
   3   5   6   23.37    5.02
   3   5   6   26.94    3.88
   3   5   7   -6.68    3.74
  -3   5  -7    0.29    3.41
   3   5   7    0.67    2.83
   3   5   8   -1.17    3.85
  -3   5  -8   -4.16    3.65
   3   5   9    6.22    4.37
  -3   5  -9    5.65    3.64
  -3   5 -10  -10.46    4.33
   3   6 -11   12.64    4.58
  -3   6  11   14.13    5.13
   3   6 -10    9.42    4.04
  -3   6  10    7.30    4.62
  -3   6  10    7.72    4.15
  -3   6   9    6.45    4.76
   3   6  -9    9.96    4.28
  -3   6   9    4.61    4.13
  -3   6   8    5.72    3.81
   3   6  -8    1.39    3.66
  -3   6   8    3.31    4.14
   3   6  -7   35.08    5.03
  -3   6   7   36.01    6.65
  -3   6   7   38.63    6.42
  -3   6   6   58.41    7.69
   3   6  -6   63.07    6.02
  -3   6   6   61.57    6.13
   3   6  -5   85.41    6.71
  -3   6   5   93.00    7.29
   3   6  -5  108.31    8.00
  -3   6   5   81.11    8.69
   3   6  -4   49.32    5.02
  -3   6   4   47.03    7.08
  -3   6   4   48.20    5.12
   3   6  -4   52.51    6.15
  -3   6   3   56.17    7.57
   3   6  -3   46.00    3.52
   3   6  -3   50.87    4.39
   3   6  -3   50.80    4.90
  -3   6   3   53.40    5.42
   3   6  -3   49.58    6.14
   3   6  -2   26.43    3.61
   3   6  -2   34.80    5.74
   3   6  -2   31.92    3.89
  -3   6   2   21.91    3.70
   3   6  -2   27.01    2.98
  -3   6   2   24.31    5.31
  -3   6   1    4.78    3.46
   3   6  -1   12.22    2.79
   3   6  -1    9.87    4.40
  -3   6   1   10.54    2.56
   3   6  -1   12.59    2.67
   3   6  -1    8.10    2.19
  -3   6   0   29.34    5.97
   3   6   0   33.35    4.31
   3   6   0   36.57    5.72
   3   6   0   28.73    3.03
   3   6   0   29.92    3.49
   3   6   1   51.51    5.51
  -3   6  -1   46.04    5.38
   3   6   1   52.39    6.78
   3   6   1   46.57    4.11
   3   6   1   47.77    3.80
  -3   6  -1   49.28    7.31
   3   6   2  185.26    7.58
   3   6   2  185.46   10.39
  -3   6  -2  199.54   10.38
  -3   6  -2  176.97   11.71
  -3   6  -3   90.87    8.50
   3   6   3   82.33    7.51
  -3   6  -3   91.07    7.62
   3   6   3   90.28    5.78
  -3   6  -4   -0.85    3.17
   3   6   4   -0.32    3.28
   3   6   4    4.30    2.51
  -3   6  -4    3.24    3.55
  -3   6  -5   11.77    4.60
  -3   6  -5    8.28    4.39
   3   6   5   13.51    4.20
   3   6   5   12.68    3.17
  -3   6  -6   12.86    4.26
   3   6   6   13.45    4.99
   3   6   6   12.25    2.98
   3   6   7    5.40    4.49
   3   6   7    4.43    2.87
  -3   6  -7    2.62    3.33
   3   6   8    7.66    4.96
   3   6   8    5.71    3.54
  -3   6  -8    4.56    3.35
  -3   6  -9   12.87    5.38
  -3   7  10    8.37    5.60
   3   7 -10    9.59    4.23
  -3   7  10   10.13    4.68
  -3   7   9   15.76    5.87
   3   7  -9   27.17    5.35
  -3   7   9   25.22    5.52
  -3   7   8   25.41    6.39
  -3   7   8   31.29    4.97
   3   7  -8   36.52    5.76
  -3   7   8   40.76    6.74
  -3   7   7   16.64    5.29
  -3   7   7   29.03    4.81
  -3   7   7   26.36    5.96
   3   7  -7   20.96    4.36
   3   7  -6   33.30    5.02
  -3   7   6   41.42    7.19
  -3   7   6   44.96    5.73
  -3   7   5   14.59    3.70
  -3   7   5   11.95    5.47
   3   7  -5   16.78    4.84
   3   7  -5   19.36    4.35
   3   7  -4   87.67    6.85
  -3   7   4   85.24    7.47
   3   7  -4   93.10    8.58
  -3   7   4   82.12    9.01
  -3   7   3   11.35    5.63
   3   7  -3   15.28    3.59
  -3   7   3   10.91    3.43
   3   7  -3   12.39    4.29
   3   7  -2   96.44    6.55
  -3   7   2   92.38    6.29
   3   7  -2  115.72    9.99
  -3   7   2  102.38    7.79
  -3   7   2  105.60   10.28
   3   7  -2  103.78    5.72
   3   7  -1  121.17    6.18
   3   7  -1  141.44    8.17
  -3   7   1  109.69    7.15
   3   7  -1  133.42   10.81
  -3   7   1  118.95    7.97
   3   7  -1  124.04    6.95
  -3   7   1  125.45   10.72
  -3   7   0   60.84    5.78
   3   7   0   70.98    8.17
   3   7   0   66.70    5.01
   3   7   0   74.84    6.40
  -3   7   0   73.98    8.84
   3   7   0   70.50    4.93
   3   7   1   13.26    5.02
  -3   7  -1    9.73    5.36
  -3   7  -1   13.78    3.82
   3   7   1   15.51    3.67
   3   7   1   16.75    2.84
  -3   7  -2   16.15    5.45
  -3   7  -2   20.83    4.44
   3   7   2   14.40    3.90
   3   7   2   12.03    4.70
   3   7   2   17.29    3.48
  -3   7  -3    4.37    3.46
   3   7   3    6.20    3.09
  -3   7  -3    4.42    4.41
   3   7   3   -1.33    4.04
   3   7   3    3.95    2.74
  -3   7  -4   13.02    5.23
  -3   7  -4   12.32    3.80
   3   7   4   18.12    4.08
   3   7   4   15.60    3.38
  -3   7  -5    2.86    3.86
  -3   7  -5    2.57    3.44
   3   7   5   -4.34    3.49
   3   7   5    2.03    2.51
  -3   7  -6   -1.41    3.78
   3   7   6   -2.39    4.08
   3   7   6    2.95    2.43
   3   7   7    8.89    4.43
   3   7   7    1.15    2.54
  -3   7  -7   -1.24    3.66
  -3   8   9   15.58    6.18
  -3   8   8   14.52    6.40
   3   8  -8   18.86    4.96
  -3   8   8   18.89    5.83
   3   8  -7   47.60    6.53
  -3   8   7   46.25    6.42
  -3   8   7   50.63    8.32
  -3   8   7   50.43    8.39
  -3   8   6   48.41    8.14
  -3   8   6   37.30    5.85
   3   8  -6   44.05    6.04
  -3   8   5    1.56    5.35
   3   8  -5    7.92    3.95
  -3   8   5    6.62    2.60
   3   8  -5    3.17    3.10
  -3   8   4   76.08    9.79
   3   8  -4   75.67    6.88
  -3   8   4   75.66    7.64
   3   8  -4   66.88    8.11
   3   8  -3   69.39    6.25
  -3   8   3   54.41    8.50
  -3   8   3   52.34    4.93
  -3   8   3   53.89    6.24
   3   8  -3   68.67    8.36
  -3   8   2    0.10    4.90
  -3   8   2    0.21    2.18
   3   8  -2    0.91    2.70
  -3   8   2    1.07    2.94
  -3   8   1   17.90    6.27
  -3   8   1   18.61    3.70
   3   8  -1   22.75    5.55
   3   8  -1   21.88    3.71
  -3   8   1   26.22    4.48
  -3   8   0    4.78    5.27
  -3   8   0    2.36    3.08
   3   8   0   11.44    5.64
   3   8   0    6.19    2.45
  -3   8  -1    5.78    5.43
  -3   8  -1    7.65    3.25
   3   8   1    8.21    4.73
   3   8   1    5.21    2.52
   3   8   1    6.15    2.52
  -3   8  -2   11.82    5.36
  -3   8  -2    5.17    3.04
   3   8   2   12.47    5.45
   3   8   2    9.88    3.08
   3   8   2    5.31    2.57
  -3   8  -3   27.96    5.24
  -3   8  -3   15.55    5.69
   3   8   3   23.63    4.95
   3   8   3   23.92    6.43
   3   8   3   21.66    4.18
  -3   8  -4   23.89    5.71
  -3   8  -4   22.18    5.49
   3   8   4   31.83    5.63
   3   8   4   33.70    6.50
   3   8   4   26.86    4.32
  -3   8  -5   -1.67    3.43
   3   8   5   -6.50    3.21
   3   8   5    4.95    3.19
   3   8   6    7.31    4.17
   3   8   6    9.52    3.73
  -3   8  -6    2.37    4.33
  -3   9   8   11.47    6.32
  -3   9   7    0.02    4.34
   3   9  -7    4.90    3.83
  -3   9   6   -1.41    4.71
   3   9  -6    3.08    3.78
  -3   9   6    2.13    4.24
   3   9  -5   22.87    5.54
  -3   9   5   15.20    6.46
  -3   9   5   18.98    4.55
   3   9  -5   14.47    4.20
  -3   9   4    6.07    6.30
  -3   9   4    6.34    3.56
   3   9  -4    8.27    4.30
   3   9  -4    7.41    3.72
  -3   9   3    9.20    3.61
   3   9  -3    9.85    4.91
   3   9  -3    6.18    3.22
  -3   9   2   12.13    3.03
   3   9  -2   10.71    5.14
   3   9  -2   17.69    3.83
  -3   9   2   19.29    4.53
  -3   9   1    9.69    2.93
   3   9  -1   11.14    4.96
  -3   9   1    9.39    2.70
  -3   9   0    7.31    3.33
   3   9   0   -5.20    5.37
   3   9   1   29.83    6.87
  -3   9  -1   25.30    4.82
  -3   9  -2   18.29    4.84
   3   9   2   17.17    5.55
   3   9   2   12.35    3.61
  -3   9  -3    5.48    3.64
   3   9   3    0.32    2.98
   3   9   3    0.33    3.19
   3   9   4    2.89    2.09
   3   9   4    7.05    3.85
   3   9   4    0.85    2.74
  -3   9  -4    7.56    3.70
   3   9   5    1.61    2.04
   3   9   5    7.10    3.08
   3  10  -5    9.99    3.97
   3  10  -4    6.59    3.24
  -3  10   3   10.73    3.22
  -3  10   2   -0.76    1.99
  -3  10   1   -1.16    2.09
  -3  10   0   -0.74    2.64
  -3  10  -1   19.53    4.31
  -3  10  -2    0.41    3.14
  -4 -10   4   -8.04    6.29
  -4 -10   3   -2.39    5.92
   4 -10  -3   -1.98    5.83
  -4 -10   2   -2.42    5.19
   4 -10  -2  -13.25    6.39
   4 -10  -1    9.88    5.63
  -4 -10   1   19.00    6.73
   4 -10   0    8.45    4.40
  -4 -10   0  -12.38    7.11
  -4 -10  -1    2.61    5.62
   4 -10   1   -0.81    4.97
  -4 -10  -2   18.26    6.07
   4 -10   2    7.14    5.02
  -4  -9   7  -12.75    7.59
  -4  -9   6   -0.06    5.92
  -4  -9   6    4.12    5.65
   4  -9  -6   -1.35    4.88
  -4  -9   5   10.94    6.40
  -4  -9   5    9.70    5.19
   4  -9  -5    6.96    6.47
  -4  -9   4    0.58    5.24
  -4  -9   4    2.51    4.46
   4  -9  -4    0.45    5.13
  -4  -9   3   12.18    6.38
   4  -9  -3    2.94    3.72
  -4  -9   3    5.47    5.96
   4  -9  -3   10.07    5.66
  -4  -9   2    2.89    5.26
   4  -9  -2    4.02    4.23
  -4  -9   2    1.88    5.05
   4  -9  -2   15.74    6.46
   4  -9  -1   -1.73    4.47
  -4  -9   1    0.44    4.92
  -4  -9   1    4.70    4.71
   4  -9  -1    8.92    5.61
  -4  -9   0    9.36    5.07
   4  -9   0    1.84    3.91
   4  -9   1    2.82    4.51
  -4  -9  -1    2.72    4.73
   4  -9   1   13.40    5.52
   4  -9   2   27.45    6.95
  -4  -9  -2   32.50    6.94
   4  -9   2   29.09    7.03
   4  -9   3   20.19    6.48
   4  -9   3   26.90    6.57
  -4  -8   9   16.01    5.76
  -4  -8   8    6.12    6.39
  -4  -8   8   -0.05    4.33
   4  -8  -8   -0.70    5.41
  -4  -8   7   10.55    5.69
  -4  -8   7    8.89    5.48
   4  -8  -7    7.04    5.79
  -4  -8   6   -1.00    4.98
  -4  -8   6   11.09    4.72
   4  -8  -6    9.73    6.07
   4  -8  -5   12.42    4.50
  -4  -8   5   10.12    5.53
   4  -8  -5   18.71    6.01
  -4  -8   5   16.09    5.49
   4  -8  -4   10.12    4.48
   4  -8  -4   12.42    5.78
  -4  -8   4   11.01    5.96
  -4  -8   4   14.44    6.07
   4  -8  -3   57.27    7.29
  -4  -8   3   59.00    9.32
  -4  -8   3   51.59    8.22
   4  -8  -3   44.68    7.29
   4  -8  -2   26.79    6.03
   4  -8  -2   19.62    5.21
  -4  -8   2   22.07    6.55
  -4  -8   2   31.00    7.44
   4  -8  -2   24.27    4.82
   4  -8  -1   20.06    4.98
   4  -8  -1   20.14    5.62
  -4  -8   1   10.93    5.58
  -4  -8   1   23.84    6.62
   4  -8  -1   17.88    4.71
  -4  -8   0    5.24    4.85
   4  -8   0    9.26    4.24
   4  -8   0    5.19    4.71
  -4  -8   0    9.64    4.43
   4  -8   0    9.25    4.32
  -4  -8  -1   22.15    6.13
   4  -8   1   11.37    5.20
   4  -8   1   24.12    5.15
   4  -8   2   36.50    6.73
  -4  -8  -2   23.69    6.61
   4  -8   2   26.77    6.00
   4  -8   3   13.19    4.97
  -4  -8  -3   12.77    5.56
   4  -8   3   18.36    5.41
   4  -8   4   23.20    6.21
   4  -8   4   28.47    6.62
   4  -8   5   32.43    7.38
   4  -8   5   16.34    5.76
  -4  -7  11   15.22    6.55
  -4  -7  10    1.34    4.28
   4  -7 -10    6.98    5.54
  -4  -7   9   21.56    7.09
  -4  -7   9   13.93    5.75
   4  -7  -9   11.71    4.83
  -4  -7   8   14.01    6.17
  -4  -7   8   19.88    6.14
   4  -7  -8   19.53    5.83
  -4  -7   7   46.57    8.31
   4  -7  -7   51.81    7.37
  -4  -7   7   46.25    7.15
   4  -7  -6   19.07    5.40
   4  -7  -6   17.79    4.62
  -4  -7   6   22.47    6.47
  -4  -7   6   23.33    5.53
   4  -7  -5    5.37    4.43
   4  -7  -5   18.06    4.88
  -4  -7   5    4.19    5.13
  -4  -7   5   14.34    5.25
   4  -7  -4   19.41    5.40
   4  -7  -4   16.54    4.43
  -4  -7   4   13.29    5.36
  -4  -7   4   12.28    4.65
   4  -7  -3   29.16    6.13
   4  -7  -3   33.71    5.95
  -4  -7   3   17.93    6.13
  -4  -7   3   20.06    5.67
   4  -7  -3   24.30    4.38
   4  -7  -2   29.28    5.83
   4  -7  -2   24.18    5.51
  -4  -7   2   22.31    6.33
  -4  -7   2   26.62    6.65
   4  -7  -2   21.51    4.36
   4  -7  -1  133.68   10.15
  -4  -7   1  133.43   11.00
  -4  -7   1  130.68   11.70
   4  -7  -1  116.91    8.46
   4  -7  -1  133.90    9.53
   4  -7   0   84.47    8.42
  -4  -7   0   61.79    8.84
   4  -7   0   64.49    6.56
   4  -7   0   70.13    6.99
   4  -7   1    8.89    3.93
  -4  -7  -1    8.22    4.54
   4  -7   1   11.68    4.94
   4  -7   1   10.04    3.90
   4  -7   2    1.43    3.00
  -4  -7  -2   -2.15    3.39
   4  -7   2    0.62    3.55
   4  -7   3    1.92    4.15
  -4  -7  -3    5.77    4.61
   4  -7   3   -1.56    3.64
   4  -7   4   18.60    5.39
   4  -7   4   16.75    4.80
   4  -7   5    4.47    3.88
   4  -7   5    1.75    4.11
   4  -7   6   50.18    8.32
  -4  -7  -6   28.49    7.77
   4  -7   6   34.84    6.59
  -4  -6  12    7.44    4.85
  -4  -6  11    1.69    5.69
   4  -6 -11   -7.98    4.84
  -4  -6  11    4.99    4.82
   4  -6 -11   -1.13    5.47
   4  -6 -10    1.48    3.82
  -4  -6  10    2.31    5.22
  -4  -6  10    6.10    4.05
   4  -6 -10   12.72    5.10
   4  -6  -9    4.00    3.55
  -4  -6   9    1.23    4.17
  -4  -6   9    5.09    4.05
   4  -6  -9    5.40    4.21
  -4  -6   8   40.38    7.85
  -4  -6   8   51.92    6.97
   4  -6  -8   60.39    7.62
   4  -6  -7   63.89    7.18
  -4  -6   7   56.01    8.79
  -4  -6   7   53.07    7.16
   4  -6  -7   55.05    7.26
   4  -6  -6    2.20    3.57
   4  -6  -6    3.23    3.46
  -4  -6   6    1.72    4.54
  -4  -6   6    0.15    3.86
   4  -6  -5   17.91    5.39
  -4  -6   5   20.60    5.30
   4  -6  -5   22.01    4.84
  -4  -6   5   17.11    4.76
   4  -6  -4   30.86    5.67
   4  -6  -4   23.95    4.89
  -4  -6   4   31.61    6.17
  -4  -6   4   26.83    5.20
   4  -6  -3   40.02    6.05
  -4  -6   3   46.90    7.11
  -4  -6   3   34.57    6.11
   4  -6  -3   44.35    4.52
   4  -6  -3   39.41    5.80
   4  -6  -2   43.52    6.14
  -4  -6   2   42.55    6.86
   4  -6  -2   40.57    4.64
  -4  -6   2   40.92    6.70
   4  -6  -2   44.61    5.75
   4  -6  -1   52.15    6.47
  -4  -6   1   51.88    7.66
  -4  -6   1   60.98    7.22
   4  -6  -1   57.17    5.54
   4  -6  -1   62.93    6.21
   4  -6   0   38.58    5.86
  -4  -6   0   38.78    6.81
   4  -6   0   34.91    4.80
   4  -6   0   39.87    5.16
   4  -6   1   48.96    6.40
   4  -6   1   48.70    5.66
   4  -6   1   61.45    5.91
   4  -6   2   90.32    8.51
  -4  -6  -2   88.55    9.27
   4  -6   2  101.98    8.06
   4  -6   2   97.62    6.70
  -4  -6  -3   60.40    8.00
   4  -6   3   56.61    7.37
   4  -6   3   62.76    6.90
  -4  -6  -4   15.57    5.51
   4  -6   4   18.96    5.29
   4  -6   4   25.36    5.35
  -4  -6  -5   -2.67    4.24
   4  -6   5    1.36    3.51
   4  -6   5    2.13    3.73
  -4  -6  -6    8.65    5.67
   4  -6   6   10.65    4.98
   4  -6   6    8.18    4.60
  -4  -6  -7    7.94    5.81
   4  -6   7   10.15    5.12
  -4  -6  -8   14.93    6.72
   4  -5 -13   -1.51    3.46
   4  -5 -12   -2.65    5.63
  -4  -5  12    2.73    6.07
   4  -5 -12    0.61    4.06
   4  -5 -11    4.61    3.98
  -4  -5  11    4.28    5.83
  -4  -5  11    7.22    3.72
   4  -5 -11    4.40    3.97
   4  -5 -10    7.95    4.09
  -4  -5  10   11.82    5.91
  -4  -5  10    6.70    4.36
   4  -5 -10    2.35    3.16
   4  -5  -9   40.08    6.65
   4  -5  -9   39.37    6.33
   4  -5  -9   34.72    5.87
  -4  -5   9   32.33    6.98
  -4  -5   9   42.38    6.22
   4  -5  -8   64.30    7.26
  -4  -5   8   61.03    8.45
   4  -5  -8   60.10    6.82
   4  -5  -8   60.05    7.53
  -4  -5   8   58.84    7.12
   4  -5  -7  105.08    8.98
   4  -5  -7  106.91    8.57
  -4  -5   7  107.83   10.25
  -4  -5   7   94.05    8.27
   4  -5  -7  100.59    8.28
   4  -5  -6   59.78    6.68
  -4  -5   6   63.26    7.98
  -4  -5   6   52.14    6.32
   4  -5  -6   53.13    6.05
   4  -5  -5   41.00    5.67
  -4  -5   5   40.63    6.56
  -4  -5   5   36.14    5.59
   4  -5  -5   38.89    5.40
   4  -5  -4    4.92    3.38
   4  -5  -4    2.89    3.35
  -4  -5   4    5.86    3.52
  -4  -5   4    1.10    3.17
   4  -5  -4    2.21    1.27
  -4  -5   3   60.46    7.44
   4  -5  -3   82.41    7.33
  -4  -5   3   76.48    7.02
   4  -5  -3   72.42    4.75
   4  -5  -3   73.29    6.32
  -4  -5   2  234.31   13.11
   4  -5  -2  242.79   12.07
  -4  -5   2  259.18   12.52
   4  -5  -2  240.85    8.83
   4  -5  -2  236.60   10.14
  -4  -5   1   56.52    7.36
   4  -5  -1   59.92    6.40
  -4  -5   1   62.85    6.72
   4  -5  -1   60.73    4.91
   4  -5  -1   63.98    5.39
   4  -5   0  131.71    9.07
  -4  -5   0  121.11    9.80
   4  -5   0  136.40    7.45
   4  -5   0  124.80    7.08
  -4  -5  -1  281.43   14.47
   4  -5   1  309.05   13.71
   4  -5   1  286.83   11.15
   4  -5   1  305.19   10.36
   4  -5   2   11.16    3.06
   4  -5   2    8.48    4.14
  -4  -5  -2    0.14    4.30
   4  -5   2    9.17    3.11
   4  -5   3   69.48    7.29
  -4  -5  -3   61.18    8.22
   4  -5   3   68.91    6.48
   4  -5   3   77.44    5.31
   4  -5   4   90.26    8.37
  -4  -5  -4   84.99    9.75
   4  -5   4   90.62    7.76
   4  -5   5    6.38    4.33
  -4  -5  -5    0.70    4.58
   4  -5   5    4.15    3.83
  -4  -5  -6   14.15    5.64
   4  -5   6   21.87    5.48
   4  -5   6   16.60    4.76
  -4  -5  -7   -4.80    5.13
   4  -5   7   14.07    5.02
  -4  -5  -8   20.17    6.85
   4  -5   8   10.98    5.06
   4  -4 -13    8.45    5.07
   4  -4 -13    5.77    4.14
  -4  -4  12    4.54    4.40
   4  -4 -12    0.76    4.40
   4  -4 -12   -1.54    3.72
   4  -4 -11   39.98    6.23
  -4  -4  11   37.23    6.96
   4  -4 -11   33.49    6.57
  -4  -4  11   32.44    5.49
   4  -4 -10    9.98    3.66
   4  -4 -10    6.91    3.70
  -4  -4  10   15.70    5.65
   4  -4 -10   10.47    4.19
  -4  -4  10    7.19    3.44
   4  -4  -9  116.83    8.77
   4  -4  -9  112.33    9.50
  -4  -4   9  111.05   10.45
  -4  -4   9  119.09    8.84
   4  -4  -9  106.69    8.50
   4  -4  -8   17.20    4.03
   4  -4  -8   17.30    4.51
   4  -4  -8   13.00    3.98
  -4  -4   8   26.17    6.01
  -4  -4   8   13.52    3.94
   4  -4  -7   -0.97    3.03
   4  -4  -7    3.46    2.83
  -4  -4   7    1.27    4.09
   4  -4  -7    1.48    2.91
  -4  -4   7    1.02    2.40
  -4  -4   6  249.29    8.26
   4  -4  -6  238.72   11.26
   4  -4  -6  249.43   12.09
  -4  -4   6  227.61   13.06
  -4  -4   6  234.53   11.07
   4  -4  -6  250.47   11.10
  -4  -4   5  123.18    5.08
   4  -4  -5  123.73    8.56
  -4  -4   5  123.42    9.64
  -4  -4   5  120.97    8.09
   4  -4  -5  140.79    7.97
   4  -4  -4  112.80    8.21
  -4  -4   4  106.82    7.53
   4  -4  -4   98.11    4.11
   4  -4  -4  109.75    6.97
  -4  -4   4  107.29    3.47
  -4  -4   4  105.80    8.76
   4  -4  -3   13.96    3.06
   4  -4  -3   12.38    3.58
  -4  -4   3   10.77    4.20
  -4  -4   3   13.00    3.30
   4  -4  -3   12.99    1.84
   4  -4  -2   14.61    3.04
   4  -4  -2    9.80    3.34
  -4  -4   2    5.39    3.36
   4  -4  -2   15.26    2.29
  -4  -4   2   16.56    3.72
   4  -4  -1  158.18    9.55
  -4  -4   1  168.14   10.49
  -4  -4   1  167.61    9.20
   4  -4  -1  156.58    3.23
   4  -4  -1  176.66    6.92
   4  -4  -1  175.99    7.60
  -4  -4   0  122.68    9.19
   4  -4   0  140.18    5.11
   4  -4   0  135.04    8.92
   4  -4   0  128.74    6.30
   4  -4   0  125.24    6.29
   4  -4   1   49.45    5.67
   4  -4   1   51.50    4.47
  -4  -4  -1   52.13    6.46
   4  -4   1   54.55    4.64
   4  -4   1   54.73    4.31
   4  -4   2   99.29    7.87
  -4  -4  -2   98.51    8.70
   4  -4   2  100.57    6.07
  -4  -4  -2  117.94    9.14
   4  -4   2  102.61    6.41
   4  -4   2  102.82    5.46
   4  -4   3   16.06    2.49
  -4  -4  -3   20.05    5.12
   4  -4   3   15.78    2.91
   4  -4   3   12.54    3.50
   4  -4   3   19.93    3.70
   4  -4   4  104.45    8.50
   4  -4   4  105.11    6.74
  -4  -4  -4   93.08    9.20
   4  -4   4   94.73    7.15
   4  -4   4  101.30    5.09
   4  -4   5   54.85    6.58
   4  -4   5   52.38    5.16
  -4  -4  -5   49.95    7.64
   4  -4   5   48.37    5.77
   4  -4   6  141.36   10.32
  -4  -4  -6  138.34   12.32
   4  -4   6  133.63    9.28
   4  -4   7   15.48    4.61
  -4  -4  -7   16.48    5.86
   4  -4   7   17.44    4.54
  -4  -4  -8    6.88    4.91
   4  -4   8    3.19    4.52
  -4  -4  -9  -20.60    7.17
   4  -4   9   -1.30    4.64
   4  -3 -14   25.48    7.18
   4  -3 -13   13.28    5.17
  -4  -3  13    6.74    4.50
   4  -3 -12   24.65    5.84
  -4  -3  12   13.61    5.63
   4  -3 -12   10.81    4.10
   4  -3 -11   24.20    5.25
  -4  -3  11   26.64    6.41
   4  -3 -11   20.17    4.69
   4  -3 -11   21.83    4.96
   4  -3 -10   35.00    5.64
   4  -3 -10   34.12    5.44
  -4  -3  10   28.99    6.37
  -4  -3  10   27.30    4.60
   4  -3 -10   29.34    5.08
  -4  -3   9    3.77    3.75
   4  -3  -9    1.91    3.19
  -4  -3   9    8.95    3.10
   4  -3  -9   10.73    3.47
   4  -3  -9    1.63    2.84
   4  -3  -8   63.73    6.46
   4  -3  -8   65.59    6.28
  -4  -3   8   68.38    7.85
  -4  -3   8   76.28    6.35
   4  -3  -8   73.03    6.50
   4  -3  -7   48.14    5.65
   4  -3  -7   44.70    4.97
  -4  -3   7   42.18    6.03
  -4  -3   7   42.35    4.76
   4  -3  -7   40.20    4.76
   4  -3  -6  331.60   13.05
   4  -3  -6  348.67   12.03
  -4  -3   6  334.71   14.43
  -4  -3   6  320.42   11.60
   4  -3  -6  339.81   11.59
  -4  -3   5  608.59   12.91
  -4  -3   5  582.30   18.34
   4  -3  -5  547.91   14.03
   4  -3  -5  584.70   16.91
  -4  -3   5  570.01   14.97
   4  -3  -5  561.01   14.24
  -4  -3   4   38.84    3.14
   4  -3  -4   41.11    5.25
  -4  -3   4   35.75    4.97
  -4  -3   4   38.58    4.34
   4  -3  -4   35.44    1.84
   4  -3  -4   41.31    4.12
  -4  -3   3  221.48   11.01
   4  -3  -3  237.06   10.82
   4  -3  -3  239.45    5.71
  -4  -3   3  229.75    9.55
   4  -3  -3  226.77    8.43
  -4  -3   3  233.38    6.68
  -4  -3   2  131.22    8.72
   4  -3  -2  133.48    8.17
   4  -3  -2  144.23    6.45
  -4  -3   2  146.77    7.69
   4  -3  -2  145.02    4.97
  -4  -3   2  144.87    4.94
  -4  -3   1   22.69    4.55
   4  -3  -1   23.23    1.90
   4  -3  -1   16.78    3.82
   4  -3  -1   25.21    2.39
   4  -3  -1   21.89    2.99
  -4  -3   1   25.42    2.19
   4  -3   0  411.95   14.26
   4  -3   0  402.09   11.62
  -4  -3   0  378.28   14.46
   4  -3   0  387.03    9.35
   4  -3   0  374.24    9.49
   4  -3   1   47.13    5.29
   4  -3   1   50.20    4.59
  -4  -3  -1   47.45    5.36
  -4  -3  -1   48.19    5.88
   4  -3   1   55.00    3.99
   4  -3   1   56.04    3.82
   4  -3   2   62.30    6.12
   4  -3   2   62.83    5.13
  -4  -3  -2   65.39    6.53
  -4  -3  -2   64.66    6.89
   4  -3   2   70.89    4.85
   4  -3   3  235.55   11.16
   4  -3   3  221.60    9.59
  -4  -3  -3  222.49   11.80
   4  -3   3  218.23    8.67
   4  -3   4  129.31    8.76
   4  -3   4  123.63    7.70
  -4  -3  -4  129.65    9.82
   4  -3   4  129.37    7.21
   4  -3   5   54.75    6.11
   4  -3   5   42.35    5.19
  -4  -3  -5   58.54    7.46
   4  -3   5   53.45    5.48
   4  -3   6   62.51    6.90
   4  -3   6   45.50    5.47
   4  -3   6   50.51    5.70
  -4  -3  -6   39.85    6.72
   4  -3   7    2.94    3.19
   4  -3   7    1.44    3.70
  -4  -3  -7    3.22    3.87
   4  -3   8    9.94    4.59
  -4  -3  -8    8.38    5.48
   4  -3   9    2.40    3.06
  -4  -3  -9    6.85    5.23
  -4  -3 -10    9.69    5.93
   4  -2 -14   26.00    6.25
   4  -2 -13   17.37    4.69
  -4  -2  13   17.51    5.79
   4  -2 -12   36.80    5.74
  -4  -2  12   52.64    7.64
   4  -2 -12   35.62    5.96
   4  -2 -12   42.20    6.09
   4  -2 -11    3.17    3.02
  -4  -2  11    1.33    4.22
   4  -2 -11    4.22    3.41
   4  -2 -11    6.28    3.82
   4  -2 -10   -0.31    3.14
   4  -2 -10    2.79    2.91
  -4  -2  10    2.73    3.24
   4  -2 -10    1.59    2.66
   4  -2 -10    2.19    2.63
  -4  -2  10    3.07    2.11
   4  -2  -9  168.38   10.00
  -4  -2   9  173.53   11.07
   4  -2  -9  167.56    9.00
  -4  -2   9  162.00    8.32
   4  -2  -9  165.22    8.98
   4  -2  -8  288.13   12.30
  -4  -2   8  298.52   13.66
   4  -2  -8  292.84   11.06
  -4  -2   8  286.42   10.45
   4  -2  -8  295.65   11.17
   4  -2  -7  232.47   10.89
   4  -2  -7  239.99    9.27
  -4  -2   7  270.12   12.43
  -4  -2   7  231.91    8.99
   4  -2  -7  253.58    9.77
   4  -2  -6  161.29    8.92
   4  -2  -6  150.95    6.83
  -4  -2   6  152.47    7.08
   4  -2  -6  156.08    7.33
  -4  -2   6  151.04    9.29
  -4  -2   5  163.46    7.12
  -4  -2   5  152.26    7.11
   4  -2  -5  149.87    8.40
   4  -2  -5  156.09    6.38
  -4  -2   5  170.57    9.32
   4  -2  -5  159.54    7.05
  -4  -2   4  154.57    6.84
   4  -2  -4  159.16    5.71
   4  -2  -4  148.97    8.19
  -4  -2   4  156.46    8.69
  -4  -2   4  157.92    6.89
   4  -2  -4  160.50    6.66
  -4  -2   3  107.97    5.58
   4  -2  -3   94.88    6.64
  -4  -2   3   93.43    6.73
  -4  -2   3   96.57    5.49
   4  -2  -3  104.93    2.94
   4  -2  -3   97.11    5.10
  -4  -2   2  162.17    8.76
   4  -2  -2  173.37    8.77
   4  -2  -2  180.13    5.02
  -4  -2   2  177.65    3.52
   4  -2  -2  181.88    4.49
   4  -2  -2  167.26    6.25
  -4  -2   2  173.75    6.85
   4  -2  -1  196.64    6.16
   4  -2  -1  182.85    9.01
   4  -2  -1  182.27    7.98
   4  -2  -1  189.29    4.92
  -4  -2   1  169.20    8.92
  -4  -2   1  182.95    6.98
   4  -2   0  410.68   13.52
  -4  -2   0  390.58   11.76
   4  -2   0  392.16   11.92
  -4  -2   0  377.14   13.38
  -4  -2   0  396.23   10.20
   4  -2   1   15.89    3.31
  -4  -2  -1   18.12    3.78
  -4  -2  -1   17.29    3.01
   4  -2   1   20.16    3.36
   4  -2   2  755.84   18.27
   4  -2   2  727.67   17.38
  -4  -2  -2  753.96   17.90
   4  -2   3  107.96    7.38
   4  -2   3  112.44    7.37
  -4  -2  -3  106.60    7.53
   4  -2   4   44.75    5.27
   4  -2   4   48.42    5.52
  -4  -2  -4   47.07    5.78
   4  -2   5   60.11    6.03
   4  -2   5   58.29    6.10
  -4  -2  -5   54.62    6.67
  -4  -2  -6    6.22    3.93
   4  -2   6    6.92    3.02
   4  -2   6   10.68    3.70
   4  -2   6    9.06    3.49
   4  -2   7    2.29    3.07
  -4  -2  -7    0.87    3.61
   4  -2   7   -3.69    2.81
   4  -2   7    1.70    3.20
  -4  -2  -8   10.01    5.16
   4  -2   8    3.77    3.60
   4  -2   8    8.32    4.06
  -4  -2  -9   -0.48    3.44
   4  -2   9    2.08    3.65
  -4  -2 -10    4.03    5.59
   4  -2  10   -0.55    3.62
   4  -1 -14   19.43    5.87
  -4  -1  14   20.09    6.17
  -4  -1  13   43.73    7.59
   4  -1 -13   40.59    6.60
  -4  -1  12   41.17    6.99
   4  -1 -12   39.47    5.90
  -4  -1  11  175.45   11.42
   4  -1 -11  145.76    9.00
   4  -1 -11  173.21    9.53
   4  -1 -11  150.26    8.79
   4  -1 -10   30.20    4.28
   4  -1 -10   23.07    4.12
  -4  -1  10   30.40    5.40
   4  -1 -10   30.88    4.51
  -4  -1   9   61.83    6.55
  -4  -1   9   62.62    4.59
   4  -1  -9   62.83    5.21
   4  -1  -9   67.73    5.78
   4  -1  -9   55.37    5.19
   4  -1  -8  132.06    8.47
  -4  -1   8  141.98    8.84
  -4  -1   8  138.38    6.31
   4  -1  -8  119.43    6.23
   4  -1  -8  127.60    7.33
   4  -1  -8  131.95    6.96
   4  -1  -7   23.89    3.66
  -4  -1   7   25.47    1.84
  -4  -1   7   25.73    4.26
  -4  -1   7   22.49    2.58
   4  -1  -7   19.98    3.82
   4  -1  -7   23.24    2.85
   4  -1  -7   24.25    3.22
  -4  -1   6  242.05    4.50
   4  -1  -6  238.59   10.26
  -4  -1   6  241.12   10.35
  -4  -1   6  229.04    7.11
   4  -1  -6  232.09    6.99
   4  -1  -6  228.05    9.06
   4  -1  -6  231.95    8.03
  -4  -1   5  388.01   12.02
  -4  -1   5  359.75    5.20
   4  -1  -5  365.40   12.19
  -4  -1   5  348.94    8.55
   4  -1  -5  360.80    9.51
  -4  -1   5  364.57   12.12
   4  -1  -5  371.47    7.78
  -4  -1   4  192.16    8.35
   4  -1  -4  177.28    8.42
  -4  -1   4  182.40    8.49
   4  -1  -4  180.65    4.62
  -4  -1   4  173.05    5.98
   4  -1  -4  186.22    3.37
   4  -1  -4  182.04    6.53
  -4  -1   3  275.70    9.75
  -4  -1   3  279.62   10.30
   4  -1  -3  284.27   10.38
  -4  -1   2  149.41    7.22
   4  -1  -2  150.34    7.72
  -4  -1   2  140.37    7.33
  -4  -1   1   -1.47    1.42
  -4  -1   1    0.34    1.44
   4  -1  -1    1.22    1.89
   4  -1   0  124.71    7.04
  -4  -1   0  134.35    5.77
  -4  -1   0  127.22    7.25
  -4  -1   0  145.45    7.09
   4  -1   1  511.60   14.23
   4  -1   1  512.98   14.52
  -4  -1  -1  508.85   11.91
  -4  -1  -1  508.71   14.71
  -4  -1  -1  508.09   13.28
   4  -1   2  202.60    9.15
   4  -1   2  190.40    9.31
  -4  -1  -2  197.10    8.00
  -4  -1  -2  211.48    8.95
   4  -1   3  279.12   10.77
   4  -1   3  271.29   11.48
  -4  -1  -3  274.58   10.25
   4  -1   4  379.40   12.89
   4  -1   4  376.07   13.93
  -4  -1  -4  365.42   12.59
   4  -1   5   79.60    6.47
   4  -1   5   79.84    7.03
   4  -1   6   60.18    6.01
   4  -1   6   52.77    6.24
  -4  -1  -6   46.14    4.10
  -4  -1  -6   43.57    5.87
   4  -1   7   10.26    3.89
  -4  -1  -7   12.00    4.75
   4  -1   8    4.18    3.87
  -4  -1  -8   -3.13    4.09
   4  -1   9    3.31    3.48
  -4  -1  -9   -1.37    4.74
   4  -1   9    3.15    3.61
  -4  -1 -10    5.39    5.44
   4  -1  10    5.39    3.53
   4   0 -14   33.92    6.23
  -4   0  14   29.81    6.38
   4   0 -13    0.62    3.51
  -4   0  13    9.19    4.50
   4   0 -12   10.47    4.02
   4   0 -12    5.30    3.38
  -4   0  12   18.40    4.96
   4   0 -11    0.12    2.65
   4   0 -11    2.72    3.02
  -4   0  11    2.30    3.05
   4   0 -10   27.51    3.76
   4   0 -10   29.55    4.69
  -4   0  10   29.76    3.15
  -4   0  10   27.52    4.90
   4   0 -10   30.61    3.89
  -4   0   9   40.94    5.36
  -4   0   9   41.21    3.20
   4   0  -9   37.18    3.88
   4   0  -9   36.79    4.74
   4   0  -9   38.81    3.74
   4   0  -8   97.63    4.86
  -4   0   8  103.09    7.15
  -4   0   8  106.73    4.63
  -4   0   8   96.38    4.39
   4   0  -8  102.92    6.69
   4   0  -8   94.04    5.56
   4   0  -7   -0.84    1.73
   4   0  -7    0.11    1.14
   4   0  -7    1.04    2.17
  -4   0   7    0.16    2.00
  -4   0   7   -0.07    1.34
  -4   0   7    0.96    0.72
  -4   0   6  184.98    8.30
  -4   0   6  195.75    5.85
  -4   0   6  189.39    4.83
   4   0  -6  199.81    3.97
   4   0  -6  190.90    8.27
   4   0  -6  207.31    7.00
  -4   0   6  199.96    9.70
  -4   0   5   87.00    6.35
   4   0  -5   80.76    5.79
  -4   0   5   85.42    3.69
  -4   0   5   83.42    5.37
   4   0  -5   92.08    3.04
   4   0  -5   83.96    5.46
  -4   0   4  698.92   16.90
   4   0  -4  708.33   16.00
  -4   0   4  695.02    8.63
  -4   0   4  703.24   14.80
   4   0  -4  728.12    9.84
   4   0  -4  700.22   14.83
  -4   0   3   64.16    5.33
  -4   0   3   77.89    4.96
   4   0  -3   73.92    5.24
   4   0  -3   81.89    3.73
  -4   0   2   34.08    4.00
   4   0  -2   40.20    3.97
  -4   0   2   33.60    3.38
   4   0  -2   36.44    1.94
  -4   0   1   73.42    4.93
  -4   0   1   77.75    2.83
   4   0  -1   70.59    5.00
  -4   0   1   81.25    5.86
   4   0   0   36.31    3.82
  -4   0   0   41.12    3.92
  -4   0   0   43.23    2.60
  -4   0   0   42.71    4.45
   4   0   1  485.41   12.99
  -4   0  -1  501.06    9.72
  -4   0  -1  494.97   14.48
   4   0   2  249.73    9.66
   4   0   2  241.89   10.66
  -4   0  -2  249.84    7.61
  -4   0  -2  235.09   10.09
   4   0   3 1059.94   19.47
   4   0   3 1002.64   21.88
  -4   0  -3  993.82   16.44
  -4   0  -3 1020.98   20.96
   4   0   4   48.44    4.63
   4   0   4   42.25    5.29
  -4   0  -4   39.88    4.24
   4   0   5  320.71   11.17
   4   0   5  286.86   13.13
  -4   0  -5  283.62   10.71
  -4   0  -6   -0.16    2.18
  -4   0  -6    0.27    2.82
   4   0   6    1.23    2.89
   4   0   6    3.96    2.72
  -4   0  -7   25.51    3.79
  -4   0  -7   30.59    4.98
   4   0   7   24.05    5.08
  -4   0  -8    6.48    3.52
   4   0   8   -4.59    3.88
   4   0   9   -2.33    3.94
  -4   0  -9   -0.78    3.74
   4   0  10    3.88    4.10
  -4   0 -10   -5.80    4.84
   4   0  11   21.57    6.87
   4   1 -14   15.61    4.48
   4   1 -13   34.44    5.75
   4   1 -13   41.34    5.37
   4   1 -12   40.03    4.90
   4   1 -12   41.19    5.82
  -4   1  12   46.55    4.45
   4   1 -11  162.10    7.72
  -4   1  11  183.83    7.48
   4   1 -11  155.79    9.46
   4   1 -10   24.72    4.30
  -4   1  10   32.12    3.51
  -4   1   9   63.04    4.40
  -4   1   9   56.44    5.46
   4   1  -9   61.88    4.42
   4   1  -9   62.09    5.74
  -4   1   8  132.45    7.35
  -4   1   8  144.96    6.19
   4   1  -8  133.54    5.92
   4   1  -8  138.58    7.93
   4   1  -7   22.39    3.49
  -4   1   7   23.09    3.02
  -4   1   7   18.44    2.90
   4   1  -7   26.40    2.82
  -4   1   6  227.73   10.97
  -4   1   6  242.46    8.04
  -4   1   6  229.59    8.33
   4   1  -6  229.91    9.14
  -4   1   5  350.99   13.11
  -4   1   5  363.12    9.85
   4   1  -5  353.75   10.94
  -4   1   4  190.43    9.66
  -4   1   4  195.02    6.93
   4   1  -4  192.57    7.90
   4   1  -4  168.34    7.44
  -4   1   3  274.12   11.39
   4   1  -3  280.98    9.79
   4   1  -3  278.73    9.46
   4   1  -3  283.66    6.69
  -4   1   3  284.24    8.03
   4   1  -3  272.26    9.04
  -4   1   2  155.38    8.66
   4   1  -2  149.46    6.80
   4   1  -2  158.32    4.90
   4   1  -2  150.36    5.37
  -4   1   2  154.46    5.94
   4   1  -2  146.37    6.65
  -4   1   1    0.05    2.29
  -4   1   1    0.99    0.36
  -4   1   1    1.39    1.09
   4   1  -1    0.90    0.81
   4   1  -1    0.55    1.31
  -4   1   0  145.76    3.35
   4   1   0  128.71    6.40
  -4   1   0  138.11    8.41
  -4   1  -1  530.06    7.67
   4   1   1  504.69   12.53
  -4   1  -1  503.71   15.63
  -4   1  -2  211.10    5.64
   4   1   2  216.70    8.34
  -4   1  -2  198.60   10.28
  -4   1  -3  281.14    7.38
   4   1   3  287.18    9.57
   4   1   3  278.13   12.03
  -4   1  -3  268.97   11.77
  -4   1  -4  360.64    9.37
   4   1   4  373.17   10.77
   4   1   4  352.92   14.14
  -4   1  -4  346.79   13.55
  -4   1  -5   68.51    4.95
   4   1   5   77.14    5.10
   4   1   5   63.20    6.89
   4   1   6   59.58    4.69
   4   1   6   57.05    7.11
  -4   1  -6   51.30    5.18
  -4   1  -6   46.10    4.73
  -4   1  -7   16.97    3.58
  -4   1  -7   15.28    3.71
   4   1   7   12.93    4.55
  -4   1  -8    2.95    2.78
   4   1   8    0.24    3.75
  -4   1  -8    1.10    3.08
   4   1   9    2.37    3.52
  -4   1  -9    2.75    3.05
   4   1  10   11.72    5.59
  -4   1 -10    6.61    4.10
   4   1  11   11.69    5.99
   4   2 -14    6.63    3.76
   4   2 -14    8.05    4.81
   4   2 -13   19.45    4.84
  -4   2  13   24.01    4.03
  -4   2  12   47.71    4.77
   4   2 -12   43.93    6.09
   4   2 -11   -0.79    3.39
  -4   2  11    2.80    2.55
   4   2 -10    1.10    3.03
  -4   2  10    2.49    2.49
   4   2  -9  168.15    6.35
   4   2  -9  151.65    8.96
  -4   2   8  290.38    9.96
  -4   2   8  305.91   10.18
   4   2  -8  292.57    7.86
   4   2  -8  288.19   11.44
  -4   2   7  242.78   12.41
  -4   2   7  248.89    8.46
  -4   2   7  277.20    9.91
   4   2  -7  243.19   10.15
  -4   2   6  163.64    6.44
   4   2  -6  170.72    8.13
  -4   2   5  151.93    9.42
  -4   2   5  157.58    5.78
   4   2  -5  148.05    7.34
  -4   2   4  156.56    9.48
   4   2  -4  156.97    7.19
  -4   2   4  144.61    3.08
   4   2  -4  161.28    6.10
  -4   2   4  155.87    5.23
   4   2  -4  161.87    7.32
  -4   2   3   96.84    7.47
   4   2  -3   95.44    5.95
   4   2  -3   97.44    5.11
  -4   2   3  107.22    2.99
  -4   2   3  102.89    3.86
   4   2  -3   97.37    5.64
  -4   2   2  158.35    9.47
   4   2  -2  172.92    8.24
   4   2  -2  171.72    7.07
  -4   2   2  183.29    4.64
   4   2  -2  175.09    7.06
  -4   2   2  170.58    4.65
   4   2  -2  156.45    6.84
   4   2  -1  179.04    7.10
   4   2  -1  166.71    6.94
  -4   2   1  162.58    9.56
   4   2   0  376.14   10.07
  -4   2   0  393.04   14.77
  -4   2  -1   18.40    4.29
   4   2   1   22.00    2.80
   4   2   2  796.39   14.70
  -4   2  -2  746.27   20.17
   4   2   3  125.26    5.81
   4   2   3  109.78    8.02
  -4   2  -3  114.90    8.53
   4   2   4   47.56    3.56
   4   2   4   39.54    5.65
  -4   2  -4   45.34    6.04
   4   2   5   56.32    6.73
  -4   2  -6    3.14    3.01
   4   2   6    3.43    3.77
  -4   2  -7   -0.57    2.55
   4   2   7    0.01    3.97
  -4   2  -7    1.40    2.24
  -4   2  -8    6.52    3.60
   4   2   8    6.45    4.23
  -4   2  -8    5.46    2.66
   4   2   9   -2.45    4.74
  -4   2  -9    3.31    2.96
  -4   2  -9   -3.53    3.20
  -4   2 -10    4.48    3.56
   4   2  10    2.69    4.30
   4   3 -14   11.40    4.86
  -4   3  14   23.54    4.50
   4   3 -13    3.27    3.58
  -4   3  13    6.82    3.31
   4   3 -12   11.06    3.89
  -4   3  12    8.92    3.12
   4   3 -11   13.60    4.16
  -4   3  11   27.97    4.47
  -4   3  10   36.30    4.41
   4   3 -10   32.16    5.17
   4   3  -9    4.21    3.29
  -4   3   9    7.50    2.91
  -4   3   8   57.84    7.17
  -4   3   8   79.07    6.40
   4   3  -8   68.93    3.75
   4   3  -8   76.73    6.53
  -4   3   7   38.04    6.05
  -4   3   7   43.89    3.46
  -4   3   7   45.34    5.23
   4   3  -7   50.63    5.45
  -4   3   6  329.81   14.81
  -4   3   6  316.66    7.89
   4   3  -6  344.16   11.93
  -4   3   5  587.08   19.27
   4   3  -5  608.72   13.54
  -4   3   5  563.32   10.42
  -4   3   5  568.12    9.00
   4   3  -5  600.41   14.90
  -4   3   4   38.81    5.99
   4   3  -4   36.00    3.80
  -4   3   4   34.10    1.56
  -4   3   4   39.77    2.67
   4   3  -4   42.06    4.03
   4   3  -4   42.22    4.24
  -4   3   3  227.23   12.06
   4   3  -3  250.38    9.62
   4   3  -3  239.64    9.31
  -4   3   3  237.80    5.24
   4   3  -3  249.36    8.97
  -4   3   2  137.07    9.51
   4   3  -2  140.65    4.89
   4   3  -2  148.48    7.80
   4   3  -2  138.18    7.44
   4   3  -2  137.69    6.59
  -4   3   1   27.59    4.73
   4   3  -1   21.22    3.34
   4   3  -1   25.50    2.77
   4   3  -1   22.45    3.61
   4   3  -1   23.75    2.93
   4   3   0  381.14   13.16
   4   3   0  373.80    9.69
   4   3   0  381.90   10.31
  -4   3   0  386.77   15.64
   4   3   1   45.19    5.12
   4   3   1   55.21    3.84
  -4   3  -1   50.88    6.43
   4   3   2   63.64    6.25
   4   3   2   70.56    4.08
  -4   3  -2   53.64    6.49
   4   3   3  259.80    6.84
   4   3   3  238.89   11.77
  -4   3  -3  225.50   12.09
   4   3   4  140.55    9.67
  -4   3  -4  123.25    9.46
   4   3   5   47.05    6.64
  -4   3  -5   43.97    5.44
  -4   3  -5   40.95    6.41
   4   3   6   49.48    6.82
  -4   3  -6   48.86    6.04
  -4   3  -7   -1.03    3.38
   4   3   7    6.70    4.71
  -4   3  -8    7.33    3.61
   4   3   8   12.03    5.25
   4   3   9    2.74    4.50
  -4   3  -9    5.36    3.06
  -4   3  -9    4.66    3.14
  -4   3 -10    9.83    3.67
  -4   3 -10    1.53    3.50
   4   4 -13    0.68    4.21
  -4   4  13   11.37    3.76
   4   4 -12   -0.12    3.59
  -4   4  12    2.27    3.14
   4   4 -11   38.57    6.26
  -4   4  11   44.73    5.80
   4   4 -10   10.85    4.15
  -4   4  10    8.10    3.34
  -4   4   9  104.79    9.96
  -4   4   9  123.57    8.43
   4   4  -9  119.47    8.51
  -4   4   8   13.88    5.54
   4   4  -8   15.46    3.91
  -4   4   8   11.09    3.80
  -4   4   7    1.97    3.44
   4   4  -7    0.54    2.70
  -4   4   6  258.53   14.07
   4   4  -6  247.29   10.60
  -4   4   5  125.55   10.10
   4   4  -5  125.41    6.30
  -4   4   5  124.64    6.19
   4   4  -5  132.28    7.43
   4   4  -5  130.97    7.70
  -4   4   4  105.96    9.15
   4   4  -4  109.02    6.27
  -4   4   4  104.84    5.35
   4   4  -4   99.06    6.80
   4   4  -4  108.39    6.85
  -4   4   3   14.72    4.49
   4   4  -3   13.45    3.02
   4   4  -3   13.41    2.90
   4   4  -3   13.97    3.09
  -4   4   3   12.32    2.10
  -4   4   2   15.37    4.57
   4   4  -2   14.10    2.83
   4   4  -2   16.60    2.86
   4   4  -2   10.85    3.07
   4   4  -1  160.23    5.03
   4   4  -1  158.55    8.57
   4   4  -1  186.59    9.87
   4   4  -1  161.91    4.26
   4   4  -1  173.21    7.34
  -4   4   1  173.92   11.22
   4   4   0  135.73    8.33
   4   4   0  133.67    5.79
   4   4   0  133.06    4.50
   4   4   0  130.63    6.21
  -4   4   0  133.53   10.10
   4   4   1   46.49    5.39
   4   4   1   60.57    3.81
   4   4   1   50.21    3.26
   4   4   1   56.82    4.15
  -4   4  -1   47.81    6.79
   4   4   2  104.64    8.00
   4   4   2  121.12    4.82
  -4   4  -2  118.79    9.73
  -4   4  -3   14.23    4.61
   4   4   3   10.97    3.70
   4   4   4  105.17    8.95
  -4   4  -4   90.68    7.52
  -4   4  -4  105.05    9.08
   4   4   5   52.91    7.08
  -4   4  -5   46.42    6.16
  -4   4  -5   51.59    6.79
   4   4   6  135.02   10.91
  -4   4  -6  129.25    9.20
  -4   4  -7   14.29    4.51
   4   4   7   13.23    5.30
  -4   4  -8    2.22    3.65
   4   4   8    2.78    4.08
   4   4   9   -0.04    4.27
  -4   4  -9   -1.46    3.40
  -4   4 -10    5.15    3.92
   4   5 -12   -0.11    3.91
  -4   5  12   -6.48    3.99
  -4   5  11   11.10    4.89
   4   5 -11    9.48    4.42
  -4   5  11    9.41    3.72
  -4   5  10    5.29    4.89
   4   5 -10    6.95    4.07
  -4   5  10    5.10    3.70
  -4   5   9   29.82    7.02
  -4   5   9   37.53    5.74
   4   5  -9   35.70    5.23
  -4   5   8   64.61    8.41
  -4   5   8   76.44    7.62
   4   5  -8   71.21    6.99
  -4   5   7  111.37   10.47
   4   5  -7   98.47    7.64
  -4   5   6   54.72    7.54
  -4   5   6   43.73    4.40
   4   5  -6   49.54    5.66
  -4   5   5   37.02    6.51
   4   5  -5   39.94    3.79
  -4   5   5   41.00    4.42
   4   5  -5   37.25    4.73
   4   5  -5   39.16    4.92
  -4   5   4    1.51    2.25
  -4   5   4    7.12    4.31
   4   5  -4    3.41    2.14
   4   5  -4    4.17    2.53
   4   5  -4    2.84    2.25
  -4   5   3   74.39    8.52
   4   5  -3   89.32    6.18
   4   5  -3   82.78    7.24
  -4   5   3   84.15    5.38
   4   5  -3   78.38    5.84
  -4   5   2  226.91   13.71
   4   5  -2  242.99   10.46
   4   5  -2  252.16   12.32
  -4   5   2  246.10    8.34
   4   5  -2  249.62    5.20
   4   5  -2  245.36    9.33
   4   5  -1   58.68    5.65
   4   5  -1   59.79    6.89
   4   5  -1   64.04    3.24
   4   5  -1   65.54    4.92
  -4   5   1   63.92    8.18
   4   5   0  139.48    8.81
   4   5   0  142.70   10.00
   4   5   0  134.59    4.94
   4   5   0  134.95    6.62
  -4   5   0  111.51    9.96
   4   5   1  312.52   13.45
   4   5   1  309.41    7.89
   4   5   1  297.26    9.28
  -4   5  -1  295.61   15.38
  -4   5  -2    2.76    4.43
   4   5   2    7.89    3.80
   4   5   2    9.93    2.39
   4   5   3   72.90    7.41
  -4   5  -3   70.38    6.85
   4   5   3   76.01    4.92
  -4   5  -3   77.30    8.41
   4   5   4   82.26    8.15
  -4   5  -4   78.02    7.31
   4   5   4   85.08    5.39
  -4   5  -4   87.50    8.79
  -4   5  -5    5.50    4.09
  -4   5  -5    6.21    3.75
   4   5   5    2.52    3.26
  -4   5  -6   12.29    4.64
   4   5   6   21.52    4.87
  -4   5  -7   23.59    5.45
   4   5   7   13.20    4.42
   4   5   8    9.94    4.83
  -4   5  -8   16.86    4.91
  -4   5  -9   -0.49    2.82
  -4   6  11    3.63    4.67
   4   6 -11    0.39    3.37
  -4   6  11    3.94    3.37
  -4   6  10    6.26    5.46
   4   6 -10    6.86    4.31
  -4   6  10    8.11    3.84
   4   6  -9    3.28    3.77
  -4   6   9    3.20    5.02
  -4   6   9    6.10    3.93
   4   6  -8   56.57    6.71
  -4   6   8   42.30    7.67
  -4   6   8   63.09    8.08
   4   6  -7   62.77    6.60
  -4   6   7   53.70    8.49
  -4   6   6    5.88    4.79
  -4   6   6    3.04    2.12
   4   6  -6    2.59    3.21
  -4   6   5   17.82    6.41
  -4   6   5   19.68    3.41
   4   6  -5   26.32    4.53
   4   6  -5   21.66    4.57
  -4   6   4   24.80    5.76
  -4   6   4   41.70    4.65
   4   6  -4   31.27    5.68
   4   6  -4   36.13    4.65
  -4   6   3   33.74    6.83
   4   6  -3   47.00    4.84
  -4   6   3   46.02    4.47
   4   6  -3   38.58    6.04
   4   6  -3   43.88    4.88
  -4   6   2   43.26    7.14
   4   6  -2   40.96    4.81
   4   6  -2   41.95    6.48
  -4   6   2   44.07    4.20
   4   6  -2   46.81    4.86
   4   6  -1   66.11    6.31
   4   6  -1   61.58    7.31
   4   6  -1   56.85    3.54
   4   6  -1   63.93    5.27
  -4   6   1   61.48    8.12
  -4   6   0   38.63    7.23
   4   6   0   42.38    5.25
   4   6   0   40.92    6.49
   4   6   0   38.61    3.26
   4   6   0   34.72    3.83
  -4   6  -1   54.37    8.38
   4   6   1   58.51    6.55
   4   6   1   49.84    7.37
   4   6   1   51.14    3.88
   4   6   1   53.44    4.32
   4   6   2   95.90    8.48
  -4   6  -2   98.48    7.79
   4   6   2   99.12    5.47
  -4   6  -2   92.14    9.74
   4   6   3   59.11    7.08
  -4   6  -3   62.12    6.91
   4   6   3   66.82    4.89
  -4   6  -3   63.53    8.01
  -4   6  -4   13.90    5.59
  -4   6  -4   16.71    4.82
   4   6   4   25.89    5.18
   4   6   4   22.09    3.45
  -4   6  -5    1.44    4.15
  -4   6  -5   -0.14    2.67
   4   6   5   -6.57    3.06
   4   6   5    1.44    2.26
  -4   6  -6    3.32    3.93
   4   6   6    3.11    3.24
  -4   6  -7    3.75    4.25
   4   6   7    4.85    3.13
  -4   6  -8   12.45    4.69
  -4   7  10   -3.48    5.76
   4   7 -10    3.47    3.95
  -4   7  10   -5.89    4.23
  -4   7   9   14.87    6.60
   4   7  -9   13.99    4.32
  -4   7   9    9.89    5.04
  -4   7   8    6.50    5.56
  -4   7   8   22.48    7.19
   4   7  -8   15.00    4.23
   4   7  -7   46.37    5.98
  -4   7   7   47.31    8.47
  -4   7   6   13.69    6.08
   4   7  -6   30.51    5.31
  -4   7   5   20.61    6.60
   4   7  -5   14.61    4.02
   4   7  -5   14.82    4.67
  -4   7   4   10.67    5.68
   4   7  -4   12.30    3.75
   4   7  -4   18.68    5.09
  -4   7   4   11.58    2.86
  -4   7   3   20.98    6.87
   4   7  -3   25.89    5.54
   4   7  -3   24.75    4.35
  -4   7   3   32.71    4.58
  -4   7   2   25.34    6.86
   4   7  -2   27.30    4.23
   4   7  -2   21.20    4.02
   4   7  -2   19.73    5.62
  -4   7   2   24.70    3.75
   4   7  -1  141.84    9.18
   4   7  -1  147.93   11.98
   4   7  -1  139.44    7.69
  -4   7   1  133.34   12.16
   4   7   0   73.51    7.11
  -4   7   0   74.02    6.79
   4   7   0   87.01    9.51
   4   7   0   75.29    4.68
  -4   7   0   77.42    9.55
  -4   7  -1    9.35    5.08
  -4   7  -1   10.33    3.65
   4   7   1    9.54    3.56
   4   7   1    6.36    4.27
   4   7   1   10.51    2.70
  -4   7  -2    2.94    4.90
  -4   7  -2    2.52    3.35
   4   7   2    0.89    2.45
   4   7   2    2.66    4.28
   4   7   2    3.26    2.16
  -4   7  -3    3.99    4.50
  -4   7  -3    4.96    3.93
   4   7   3   -1.20    3.04
   4   7   3    3.42    2.17
  -4   7  -4   22.01    5.97
  -4   7  -4   23.07    5.19
   4   7   4   25.97    5.41
   4   7   4   17.15    3.48
  -4   7  -5    1.73    4.46
  -4   7  -5   -0.09    4.48
   4   7   5   -3.49    3.44
   4   7   5    2.94    2.66
  -4   7  -6   30.59    6.17
   4   7   6   33.38    6.52
   4   7   6   37.50    4.70
  -4   8   9    9.74    6.15
  -4   8   8   -5.43    5.81
   4   8  -8    2.00    3.04
  -4   8   7   11.55    5.76
   4   8  -7   11.35    4.12
  -4   8   6    1.43    4.76
   4   8  -6   13.20    4.47
  -4   8   5   13.36    6.65
   4   8  -5   15.67    4.43
   4   8  -5    9.76    3.95
  -4   8   4   11.28    6.19
   4   8  -4   13.12    3.83
   4   8  -4   15.01    5.33
  -4   8   3   50.95    8.47
  -4   8   3   45.89    4.95
   4   8  -3   56.44    7.99
  -4   8   3   61.63    6.26
   4   8  -3   55.43    6.06
  -4   8   2   31.39    7.22
  -4   8   2   27.09    4.32
   4   8  -2   23.97    4.32
   4   8  -2   31.47    6.66
  -4   8   2   24.06    4.13
  -4   8   1   19.80    6.94
  -4   8   1   20.53    4.23
   4   8  -1   18.49    5.58
  -4   8   0    9.23    6.69
  -4   8   0    8.01    3.31
   4   8   0   10.84    3.33
   4   8   0    9.62    4.70
  -4   8  -1   13.34    6.52
  -4   8  -1   15.65    4.16
   4   8   1   14.18    3.85
   4   8   1   17.67    6.28
  -4   8  -2   27.42    6.52
  -4   8  -2   37.42    5.65
   4   8   2   32.04    5.56
   4   8   2   24.99    6.69
   4   8   2   36.66    4.13
  -4   8  -3   11.87    5.89
  -4   8  -3   14.42    4.87
   4   8   3   15.47    4.75
   4   8   3    5.46    5.53
   4   8   3   16.48    3.69
  -4   8  -4   29.40    6.56
  -4   8  -4   26.05    5.52
   4   8   4   28.79    5.96
   4   8   4   26.12    6.74
   4   8   4   35.76    4.56
  -4   8  -5   31.79    6.68
  -4   8  -5   28.39    6.91
   4   8   5   39.11    7.11
   4   8   5   32.74    4.54
   4   8   6   15.75    3.83
  -4   9   8    7.94    7.12
   4   9  -7   12.18    4.48
  -4   9   7    9.03    6.72
  -4   9   6    1.85    6.33
   4   9  -6    2.72    3.59
  -4   9   5    6.06    6.21
   4   9  -5   10.78    3.84
   4   9  -5    5.83    4.37
  -4   9   4    3.04    5.66
   4   9  -4    0.41    2.92
   4   9  -4    0.83    3.42
  -4   9   3   10.14    5.79
   4   9  -3    4.69    2.97
  -4   9   2   -4.57    7.42
  -4   9   2    6.50    3.01
   4   9  -2   -9.86    5.32
  -4   9   1    2.14    6.65
  -4   9   1    5.41    3.18
   4   9  -1    5.18    3.87
  -4   9   0    2.38    6.03
  -4   9   0    2.77    3.01
  -4   9  -1    2.67    3.29
   4   9   1    1.96    4.74
  -4   9  -2   30.33    5.81
   4   9   2   29.35    6.93
  -4   9  -3   24.60    5.63
   4   9   3   25.67    4.88
   4   9   4    0.31    2.43
   4   9   5   -2.03    2.48
   4  10  -5    7.12    3.97
  -4  10   1    6.60    3.44
  -4  10   0   -1.94    2.68
  -4  10  -1    8.69    4.56
   5 -10  -2   -9.10    5.76
   5 -10  -2    1.29    6.92
  -5  -9   5  -18.35    7.29
   5  -9  -5   11.81    6.18
   5  -9  -4   -0.32    4.19
  -5  -9   4   -1.42    6.08
  -5  -9   4   -0.79    4.16
   5  -9  -4    4.62    5.16
   5  -9  -3   -3.64    4.45
  -5  -9   3    0.14    5.64
  -5  -9   3   -2.77    5.49
   5  -9  -3    2.36    5.32
   5  -9  -2    9.85    5.55
  -5  -9   2    2.85    5.74
  -5  -9   2    6.44    4.89
   5  -9  -2    5.35    5.17
   5  -9  -1    9.05    4.84
  -5  -9   1    3.74    5.60
   5  -9  -1    1.66    5.17
   5  -9   0    1.25    4.91
  -5  -9   0    6.97    5.23
   5  -9   1  -12.51    5.76
  -5  -9  -1   -3.13    5.21
   5  -9   1   -2.56    4.07
  -5  -9  -2   12.09    5.58
   5  -9   2    2.25    5.27
   5  -9   3    8.95    4.50
  -5  -8   8   18.40    7.19
  -5  -8   7   -0.63    5.24
  -5  -8   7    5.30    4.32
   5  -8  -7    9.79    6.35
   5  -8  -6  -15.02    6.05
  -5  -8   6   -6.95    5.97
   5  -8  -5   -9.48    4.78
   5  -8  -5   -5.26    3.86
  -5  -8   5   -0.67    5.43
  -5  -8   5   -1.56    4.41
   5  -8  -4    8.84    5.54
   5  -8  -4    7.80    4.37
  -5  -8   4   16.01    6.08
  -5  -8   4    2.67    4.18
   5  -8  -3   13.17    6.15
   5  -8  -3   17.22    5.33
  -5  -8   3    0.37    4.50
  -5  -8   3    4.53    4.78
   5  -8  -2    5.71    5.15
  -5  -8   2    3.69    5.32
   5  -8  -2    0.08    3.90
  -5  -8   2   -2.01    5.05
   5  -8  -1    5.04    4.30
   5  -8  -1    2.66    3.56
  -5  -8   1    3.89    4.74
   5  -8   0   11.55    5.03
   5  -8   0    6.02    4.37
  -5  -8   0    0.98    4.49
   5  -8   0   18.54    5.21
   5  -8   1   12.62    5.51
  -5  -8  -1    8.59    5.91
   5  -8   1   12.93    5.01
   5  -8   2   12.08    5.61
  -5  -8  -2   30.63    7.53
   5  -8   2   20.72    5.93
   5  -8   3    9.14    5.18
   5  -8   3    8.13    4.26
   5  -8   4    3.66    3.53
  -5  -7  11    4.01    5.16
  -5  -7  10    4.13    5.19
  -5  -7   9   21.49    7.90
  -5  -7   9   16.01    6.33
   5  -7  -9   16.39    5.30
   5  -7  -8    2.88    4.90
  -5  -7   8    9.20    6.34
  -5  -7   8    4.08    5.04
   5  -7  -7   15.31    5.51
   5  -7  -7    6.47    4.44
  -5  -7   7    9.76    5.56
  -5  -7   7   14.69    6.42
   5  -7  -6   16.67    6.04
   5  -7  -6    8.82    4.58
  -5  -7   6   15.65    6.39
  -5  -7   6   13.47    5.36
   5  -7  -5   18.77    5.75
   5  -7  -5   26.62    5.85
  -5  -7   5   20.35    6.27
  -5  -7   5   12.94    5.52
   5  -7  -4   -2.35    4.15
   5  -7  -4    3.89    3.44
  -5  -7   4    3.77    4.58
  -5  -7   4   -1.38    4.92
   5  -7  -3    6.82    4.78
  -5  -7   3    6.30    5.28
   5  -7  -3    6.14    3.56
  -5  -7   3    3.94    4.57
   5  -7  -2   29.64    5.51
   5  -7  -2   29.75    6.48
  -5  -7   2   22.36    6.89
  -5  -7   2   17.86    5.52
   5  -7  -1    1.62    3.34
   5  -7  -1   -4.30    3.88
  -5  -7   1    2.63    4.48
   5  -7  -1   -2.52    3.16
   5  -7   0   15.50    4.70
   5  -7   0   14.07    5.31
  -5  -7   0   16.33    5.90
   5  -7   0   17.49    4.51
   5  -7   1   36.05    6.37
  -5  -7  -1   39.21    7.93
   5  -7   1   43.57    6.13
   5  -7   1   35.04    5.68
  -5  -7  -2   40.21    8.11
   5  -7   2   39.17    6.90
   5  -7   2   31.74    5.93
   5  -7   3   -1.73    4.74
   5  -7   3   -2.99    3.66
   5  -7   4   15.00    5.28
   5  -7   4   14.59    5.32
   5  -7   5   40.80    7.50
   5  -7   5   30.53    7.05
  -5  -6  11    0.68    3.28
   5  -6 -11   -1.37    4.22
  -5  -6  10   11.15    7.04
  -5  -6  10    7.09    4.69
   5  -6 -10    9.34    4.74
   5  -6  -9    3.72    3.97
  -5  -6   9    5.09    5.32
  -5  -6   9    3.22    4.60
   5  -6  -8    5.95    3.67
   5  -6  -8    3.92    4.36
  -5  -6   8    9.66    5.45
  -5  -6   8    4.53    4.08
   5  -6  -7    7.41    3.93
   5  -6  -7   10.56    4.66
  -5  -6   7   10.55    6.04
  -5  -6   7    9.44    4.31
   5  -6  -6   76.33    8.47
  -5  -6   6   64.25    9.04
  -5  -6   6   69.39    8.23
   5  -6  -6   69.63    7.99
   5  -6  -5  116.95    9.98
  -5  -6   5  116.75    9.84
  -5  -6   5  130.56   11.83
   5  -6  -5  130.94    9.76
   5  -6  -4   50.57    7.07
  -5  -6   4   47.86    7.79
  -5  -6   4   50.01    7.09
   5  -6  -4   51.04    6.63
   5  -6  -3   62.00    7.58
  -5  -6   3   59.33    8.46
  -5  -6   3   54.72    7.36
   5  -6  -3   53.67    6.35
   5  -6  -2   30.60    4.95
   5  -6  -2   29.47    5.98
  -5  -6   2   27.10    6.12
  -5  -6   2   32.14    5.79
   5  -6  -2   28.31    4.00
   5  -6  -1   10.27    4.10
   5  -6  -1    8.75    4.56
  -5  -6   1    6.13    3.88
   5  -6  -1    9.87    3.14
   5  -6   0    2.37    3.36
   5  -6   0    5.41    4.40
  -5  -6   0    3.24    4.20
   5  -6   0    6.98    3.19
   5  -6   1   22.48    4.13
   5  -6   1   15.42    4.89
  -5  -6  -1   16.83    5.37
   5  -6   1   16.68    3.96
  -5  -6  -2    9.62    5.53
   5  -6   2    1.06    2.79
   5  -6   2   -0.38    3.60
   5  -6   2    4.79    3.46
   5  -6   3   16.27    4.72
   5  -6   3    3.84    3.10
   5  -6   4   15.97    5.32
   5  -6   4    1.85    2.88
  -5  -6  -5    7.01    5.50
   5  -6   5    7.66    4.45
   5  -6   5    2.62    3.32
  -5  -6  -6   26.80    7.61
   5  -6   6   28.86    6.73
   5  -6   6   17.52    5.45
  -5  -6  -7    1.52    5.49
   5  -5 -12   18.87    5.60
  -5  -5  11   -0.26    5.41
   5  -5 -11    9.73    4.37
   5  -5 -10   32.51    6.21
  -5  -5  10   39.03    7.76
  -5  -5  10   33.65    5.83
   5  -5  -9    0.29    3.61
  -5  -5   9    7.17    5.59
  -5  -5   9    0.58    3.39
   5  -5  -8   10.69    4.45
   5  -5  -8    8.09    4.13
  -5  -5   8    3.49    4.55
  -5  -5   8    5.89    3.45
   5  -5  -7   83.22    8.60
  -5  -5   7   61.58    8.49
  -5  -5   7   70.05    7.65
   5  -5  -7   55.02    6.50
   5  -5  -6  100.25    9.11
  -5  -5   6   98.84   10.17
  -5  -5   6   91.15    8.32
   5  -5  -6   95.51    7.79
   5  -5  -5    2.81    3.42
  -5  -5   5    2.11    4.14
   5  -5  -5    5.02    3.77
  -5  -5   5    3.26    3.38
   5  -5  -4    0.38    3.46
   5  -5  -4    0.37    3.15
  -5  -5   4   -8.03    5.02
  -5  -5   4    1.77    3.57
   5  -5  -3   84.84    8.34
  -5  -5   3   70.68    8.33
  -5  -5   3   79.38    7.74
   5  -5  -3   81.38    5.04
   5  -5  -3   77.57    6.58
   5  -5  -2   15.37    4.00
   5  -5  -2   14.70    4.92
  -5  -5   2   14.53    5.15
  -5  -5   2   14.11    4.51
   5  -5  -2   14.66    2.91
   5  -5  -1   61.24    7.34
  -5  -5   1   56.87    7.79
   5  -5  -1   56.75    4.94
   5  -5  -1   57.14    5.72
   5  -5   0   63.32    7.28
  -5  -5   0   51.45    7.33
   5  -5   0   60.89    5.40
   5  -5   0   63.72    5.61
   5  -5   1  127.59   10.02
  -5  -5  -1  124.29   10.58
   5  -5   1  127.20    7.71
   5  -5   1  132.61    7.52
   5  -5   2   65.73    7.67
  -5  -5  -2   80.47    9.07
   5  -5   2   77.97    6.72
   5  -5   2   71.17    5.64
  -5  -5  -3   53.20    8.16
   5  -5   3   53.47    6.85
   5  -5   3   50.29    6.11
   5  -5   3   52.58    4.96
   5  -5   4   58.73    7.53
  -5  -5  -4   55.30    8.78
   5  -5   4   52.00    6.28
  -5  -5  -5   25.78    6.91
   5  -5   5   30.09    5.80
   5  -5   5   17.25    4.99
  -5  -5  -6    7.57    4.36
   5  -5   6   18.69    5.25
   5  -5   6   15.92    5.23
  -5  -5  -7    0.30    5.05
   5  -5   7    9.00    4.38
   5  -5   7    8.87    5.03
  -5  -5  -8   -9.03    5.94
   5  -4 -13   11.00    4.64
  -5  -4  12    6.32    5.61
   5  -4 -12    0.82    3.85
   5  -4 -11    9.51    4.73
  -5  -4  11   19.21    6.11
   5  -4 -11    8.47    4.84
   5  -4 -10    4.13    3.71
  -5  -4  10   16.31    5.80
   5  -4 -10   10.62    4.34
  -5  -4  10    5.66    3.45
   5  -4  -9    5.76    3.86
   5  -4  -9    5.19    3.05
   5  -4  -9    8.24    4.38
  -5  -4   9    9.49    5.29
  -5  -4   9    6.37    3.45
   5  -4  -8   60.76    7.22
   5  -4  -8   56.42    6.16
  -5  -4   8   69.06    8.89
  -5  -4   8   54.95    6.28
   5  -4  -8   65.25    6.84
   5  -4  -7  206.79   10.63
   5  -4  -7  210.48   12.34
  -5  -4   7  198.78   13.29
  -5  -4   7  195.63   10.89
   5  -4  -7  208.49   10.68
   5  -4  -6   21.60    4.23
   5  -4  -6   14.54    4.51
  -5  -4   6   15.02    5.48
  -5  -4   6   11.82    4.24
   5  -4  -5  506.43   18.42
  -5  -4   5  441.79   18.48
  -5  -4   5  475.03   15.98
   5  -4  -5  479.24   14.74
   5  -4  -4  173.98   11.15
  -5  -4   4  176.22   11.84
  -5  -4   4  194.07   10.45
   5  -4  -4  185.04    5.77
   5  -4  -4  181.34    9.30
   5  -4  -3  194.84   11.39
  -5  -4   3  186.34   11.93
  -5  -4   3  185.22   10.11
   5  -4  -3  178.65    6.37
   5  -4  -3  188.91    8.98
   5  -4  -2   10.07    3.05
   5  -4  -2    8.69    4.10
  -5  -4   2    6.38    4.17
   5  -4  -2   10.65    1.99
   5  -4  -1    2.26    3.31
   5  -4  -1    4.00    2.60
  -5  -4   1   -5.30    4.21
   5  -4  -1    2.71    1.77
  -5  -4   0   29.05    5.66
   5  -4   0   24.55    4.66
   5  -4   0   23.10    3.27
   5  -4   0   26.55    3.60
   5  -4   1   12.75    2.92
   5  -4   1   16.62    3.36
   5  -4   1   15.33    4.34
  -5  -4  -1    7.96    4.37
   5  -4   1   17.23    3.22
   5  -4   2   82.94    8.10
  -5  -4  -2   80.12    8.38
   5  -4   2   79.38    6.28
  -5  -4  -2   96.84    9.42
   5  -4   2   88.52    6.43
   5  -4   2   85.25    5.52
   5  -4   3   54.19    6.72
   5  -4   3   51.40    5.40
  -5  -4  -3   51.99    7.33
   5  -4   3   55.61    5.71
   5  -4   3   48.34    4.34
  -5  -4  -4   13.42    5.05
   5  -4   4   13.83    3.61
   5  -4   4   14.69    4.59
   5  -4   4   15.89    4.20
   5  -4   5   58.18    7.51
  -5  -4  -5   49.88    8.19
   5  -4   5   45.80    6.09
   5  -4   6   19.42    5.44
  -5  -4  -6   10.99    5.34
   5  -4   6   17.17    4.55
   5  -4   7    1.59    3.81
  -5  -4  -7    2.42    4.37
   5  -4   7    1.91    3.84
  -5  -4  -8    0.26    5.03
   5  -4   8   -2.81    4.26
  -5  -3  13    9.80    5.67
   5  -3 -12    0.61    3.05
  -5  -3  12    5.98    5.22
   5  -3 -11   17.72    4.76
   5  -3 -11    8.89    4.15
   5  -3 -10    1.35    3.25
  -5  -3  10   -3.54    4.34
   5  -3 -10   -0.54    3.64
   5  -3 -10    4.37    3.29
   5  -3  -9    7.97    3.73
  -5  -3   9    8.32    4.64
   5  -3  -9    2.14    2.87
   5  -3  -9   11.58    3.93
  -5  -3   9    8.59    3.15
  -5  -3   8   84.51    6.70
   5  -3  -8   93.85    8.46
   5  -3  -8   81.84    6.77
  -5  -3   8   84.94    8.91
  -5  -3   8   69.53    6.17
   5  -3  -8   82.42    6.88
  -5  -3   7  205.34    9.74
   5  -3  -7  182.26   10.98
   5  -3  -7  190.62    9.24
  -5  -3   7  180.53   12.15
  -5  -3   7  191.88    9.55
   5  -3  -7  188.75    9.44
  -5  -3   6  275.14   10.56
   5  -3  -6  264.98    9.86
   5  -3  -6  264.04   12.92
  -5  -3   6  259.62   13.75
  -5  -3   6  262.19   10.87
   5  -3  -6  262.04   10.62
   5  -3  -5    2.37    2.55
  -5  -3   5    1.78    1.59
   5  -3  -5    2.62    3.34
  -5  -3   5    5.19    4.06
  -5  -3   5    1.86    2.56
   5  -3  -4  405.52   15.56
  -5  -3   4  383.26   15.79
  -5  -3   4  413.46   13.28
   5  -3  -4  401.74    6.80
   5  -3  -4  394.89   12.04
  -5  -3   4  420.73   11.56
   5  -3  -3  312.42   13.70
  -5  -3   3  294.65   13.82
   5  -3  -3  323.11    7.16
   5  -3  -3  310.65   10.26
  -5  -3   3  326.54    9.74
   5  -3  -2   57.86    6.51
   5  -3  -2   54.85    2.83
   5  -3  -2   54.62    3.01
  -5  -3   2   48.37    6.33
   5  -3  -2   60.35    3.50
   5  -3  -2   57.92    4.68
  -5  -3   2   55.55    3.99
   5  -3  -1  137.77    9.30
   5  -3  -1  171.78    8.70
   5  -3  -1  160.58    5.94
  -5  -3   1  140.58    9.87
   5  -3  -1  161.93    5.97
   5  -3  -1  148.18    6.87
  -5  -3   1  163.27    6.57
   5  -3   0   82.93    7.57
   5  -3   0   87.63    6.53
  -5  -3   0   82.64    7.73
   5  -3   0   87.27    4.89
   5  -3   0   79.92    5.02
  -5  -3  -1   36.28    5.31
   5  -3   1   41.73    5.64
   5  -3   1   35.12    4.58
  -5  -3  -1   39.60    5.87
   5  -3   1   42.17    3.83
  -5  -3  -2   40.90    6.16
   5  -3   2   44.37    5.70
   5  -3   2   40.09    4.98
  -5  -3  -2   41.46    5.91
   5  -3   2   39.99    4.01
   5  -3   3   96.98    8.10
   5  -3   3  103.16    7.73
  -5  -3  -3  102.41    9.09
   5  -3   3  104.03    6.60
   5  -3   4   58.67    6.76
   5  -3   4   66.64    6.54
  -5  -3  -4   57.49    7.65
   5  -3   4   57.26    5.54
   5  -3   5   17.00    3.75
   5  -3   5   15.89    4.70
  -5  -3  -5   14.12    5.03
   5  -3   5   18.04    3.81
   5  -3   6   34.70    5.48
   5  -3   6   32.32    5.59
  -5  -3  -6   29.60    6.24
   5  -3   6   29.41    4.72
   5  -3   7    7.28    4.70
  -5  -3  -7    2.71    5.30
   5  -3   7    6.73    3.71
  -5  -3  -8    3.88    4.83
   5  -3   8    1.17    3.98
  -5  -3  -9   -7.52    5.73
  -5  -2  13  -12.01    5.70
   5  -2 -13    3.90    4.24
   5  -2 -12   22.43    5.36
  -5  -2  12   12.75    5.54
   5  -2 -12   18.18    5.15
   5  -2 -11   33.40    5.48
   5  -2 -11   32.61    5.10
  -5  -2  11   33.31    6.60
   5  -2 -11   32.84    6.02
   5  -2 -10   18.44    4.05
   5  -2 -10   19.44    3.95
  -5  -2  10   17.92    5.58
   5  -2 -10   22.93    5.33
   5  -2  -9   13.78    3.67
   5  -2  -9    8.11    2.84
  -5  -2   9   10.02    4.20
   5  -2  -9    5.16    3.54
  -5  -2   8  122.73    8.45
   5  -2  -8  122.68    9.24
   5  -2  -8  118.36    6.94
  -5  -2   8  112.42    9.38
  -5  -2   8  126.08    6.83
   5  -2  -8  128.44    7.69
  -5  -2   7  158.72    9.02
   5  -2  -7  145.16    9.43
   5  -2  -7  153.07    7.21
  -5  -2   7  157.31   10.36
  -5  -2   7  143.23    7.05
   5  -2  -7  151.68    8.06
   5  -2  -6   25.23    3.79
  -5  -2   6   19.89    3.59
   5  -2  -6   25.89    3.02
  -5  -2   6   14.45    3.72
   5  -2  -6   19.19    4.62
  -5  -2   6   16.89    2.77
  -5  -2   5   43.07    4.49
   5  -2  -5   42.98    5.53
  -5  -2   5   42.99    5.72
  -5  -2   5   44.33    4.06
   5  -2  -5   45.59    4.31
   5  -2  -4    5.14    2.41
  -5  -2   4    9.17    2.32
  -5  -2   4    6.70    2.95
   5  -2  -4    8.70    3.34
   5  -2  -4    8.27    0.95
  -5  -2   3   19.41    2.89
   5  -2  -3   17.01    2.83
   5  -2  -3   19.16    2.03
  -5  -2   3   21.75    4.14
   5  -2  -3   21.15    4.20
  -5  -2   3   21.89    1.31
   5  -2  -3   19.74    1.64
   5  -2  -2   52.04    5.99
   5  -2  -2   48.51    5.13
   5  -2  -2   43.93    1.92
  -5  -2   2   47.36    5.61
  -5  -2   2   46.92    4.29
   5  -2  -1   34.21    5.00
   5  -2  -1   28.66    4.08
   5  -2  -1   34.34    2.26
  -5  -2   1   31.40    4.82
  -5  -2   1   37.88    3.95
  -5  -2   0   27.78    3.66
   5  -2   0   30.24    4.81
   5  -2   0   31.14    4.48
  -5  -2   0   28.38    4.67
  -5  -2   0   28.52    3.58
   5  -2   1  159.89    9.63
   5  -2   1  164.65    9.18
  -5  -2  -1  153.81    8.34
  -5  -2  -1  147.87    9.57
  -5  -2  -1  162.65    7.84
   5  -2   2  140.21    9.19
   5  -2   2  136.73    8.79
  -5  -2  -2  133.03    8.51
   5  -2   3   60.18    6.56
   5  -2   3   62.98    6.45
  -5  -2  -3   56.14    6.17
   5  -2   4  102.61    8.32
   5  -2   4   98.39    8.14
  -5  -2  -4   98.40    8.53
   5  -2   5   94.12    8.17
   5  -2   5   90.86    8.15
  -5  -2  -5   78.14    7.95
  -5  -2  -6   14.45    5.08
   5  -2   6   20.25    4.98
   5  -2   6   16.59    4.36
   5  -2   6   16.90    3.66
  -5  -2  -7    1.89    3.68
   5  -2   7    3.96    3.72
   5  -2   7    6.49    3.88
   5  -2   7   -0.71    2.94
  -5  -2  -8    5.50    4.83
   5  -2   8    4.95    3.89
  -5  -2  -9    4.71    4.68
  -5  -1  14   11.52    5.43
   5  -1 -14   14.26    5.90
  -5  -1  13   12.52    4.84
   5  -1 -13   13.92    5.43
   5  -1 -12   32.90    5.38
  -5  -1  12   32.14    6.62
   5  -1 -12   29.40    5.12
   5  -1 -12   40.25    6.54
   5  -1 -11   36.63    5.00
   5  -1 -11   32.94    5.15
  -5  -1  11   32.54    6.03
   5  -1 -11   31.06    4.98
   5  -1 -11   26.37    5.25
   5  -1 -10  179.36   11.39
  -5  -1  10  192.66   11.91
   5  -1 -10  178.45    8.96
   5  -1 -10  184.27   10.12
   5  -1 -10  184.53    9.28
   5  -1  -9  218.17   11.94
  -5  -1   9  229.33   12.33
   5  -1  -9  236.34    9.22
   5  -1  -9  231.29   10.97
   5  -1  -9  220.54    9.63
  -5  -1   8   44.02    5.53
  -5  -1   8   37.40    5.30
  -5  -1   8   38.03    3.40
   5  -1  -8   42.12    3.97
   5  -1  -8   35.96    5.56
   5  -1  -8   38.61    4.92
   5  -1  -8   41.87    4.41
  -5  -1   7  105.03    7.80
   5  -1  -7  112.81    8.22
  -5  -1   7  122.92    8.44
  -5  -1   7  123.49    3.53
   5  -1  -7  107.99    5.27
  -5  -1   7  104.41    5.09
   5  -1  -7  116.15    7.62
   5  -1  -7  109.97    6.32
   5  -1  -6   11.94    2.58
  -5  -1   6   14.23    1.37
  -5  -1   6   14.33    3.43
   5  -1  -6   11.63    1.78
  -5  -1   6   10.11    3.27
   5  -1  -6   11.51    3.50
  -5  -1   6   11.95    1.85
  -5  -1   5   37.60    4.72
  -5  -1   5   35.80    4.63
   5  -1  -5   34.60    2.22
   5  -1  -5   24.24    4.30
   5  -1  -5   34.26    1.49
   5  -1  -5   36.17    3.66
  -5  -1   4   91.59    6.65
   5  -1  -4   83.36    6.75
  -5  -1   4   84.67    6.58
   5  -1  -4   88.63    3.57
   5  -1  -3   96.42    7.07
  -5  -1   3  107.92    7.30
  -5  -1   3  106.41    7.08
   5  -1  -2  365.30   13.32
  -5  -1   2  385.19   13.34
  -5  -1   2  394.71   13.28
   5  -1  -1  497.30   15.58
  -5  -1   1  505.92   15.44
  -5  -1   1  527.33   15.36
   5  -1   0  285.04   11.90
   5  -1   0  309.86   12.35
  -5  -1   0  303.78    9.49
  -5  -1   0  293.86   12.03
  -5  -1   0  294.35   11.51
  -5  -1  -1   20.19    3.94
   5  -1   1   18.69    3.99
   5  -1   1   19.94    4.04
  -5  -1  -1   18.19    2.86
   5  -1   2   69.26    6.40
   5  -1   2   71.90    6.87
  -5  -1  -2   69.19    5.45
  -5  -1  -2   72.45    6.20
   5  -1   3  195.29   10.18
   5  -1   3  193.31   11.11
  -5  -1  -3  187.31    9.32
   5  -1   4  159.96    9.61
   5  -1   4  153.22   10.23
  -5  -1  -4  145.47    8.93
   5  -1   5  136.15    9.05
   5  -1   5  129.35   10.13
  -5  -1  -5  123.91    8.91
  -5  -1  -6   21.20    4.77
   5  -1   6   18.39    4.95
   5  -1   6   22.09    4.51
  -5  -1  -7   26.08    5.47
   5  -1   7   31.65    6.11
   5  -1   7   38.66    5.85
  -5  -1  -8   17.11    5.11
   5  -1   8   15.36    4.93
  -5  -1  -9   14.51    4.95
   5  -1   9    9.88    4.78
   5  -1   9   15.21    4.81
  -5   0  14    5.90    4.92
   5   0 -13   22.03    4.65
   5   0 -13   12.44    4.91
  -5   0  13   17.23    5.82
   5   0 -12   14.83    4.27
   5   0 -12   24.66    4.40
  -5   0  12   20.76    4.99
  -5   0  11   73.87    7.67
   5   0 -11   67.43    6.92
   5   0 -11   65.05    5.67
   5   0 -10    2.80    2.14
   5   0 -10    1.63    2.80
  -5   0  10    1.83    2.93
   5   0 -10    1.44    2.31
  -5   0   9  142.50    9.32
  -5   0   9  141.97    5.38
   5   0  -9  141.58    8.86
   5   0  -9  135.53    7.29
   5   0  -9  136.09    6.25
  -5   0   8  179.57   10.94
  -5   0   8  167.81    9.56
  -5   0   8  182.97    6.04
   5   0  -8  169.92    9.23
   5   0  -8  171.59    7.65
   5   0  -8  178.05    6.34
  -5   0   7  168.45   10.21
   5   0  -7  174.65    9.85
  -5   0   7  177.22    9.41
  -5   0   7  186.71    6.16
   5   0  -7  188.05    9.45
   5   0  -7  183.00    7.47
   5   0  -7  179.04    5.50
   5   0  -6    2.06    1.81
  -5   0   6    1.49    2.41
   5   0  -6    1.99    2.44
  -5   0   6    2.18    2.15
   5   0  -6    3.68    1.04
   5   0  -6    3.31    2.73
   5   0  -6    4.68    0.90
  -5   0   5   40.87    5.21
   5   0  -5   39.47    4.92
  -5   0   5   37.47    4.14
   5   0  -5   47.11    2.69
   5   0  -5   40.83    4.68
   5   0  -5   45.54    2.02
  -5   0   4  505.35   16.40
   5   0  -4  494.22   14.90
  -5   0   4  519.12   14.13
  -5   0   3  745.23   19.82
   5   0  -3  718.72   17.56
   5   0  -3  725.67    6.82
  -5   0   3  741.71   16.93
  -5   0   2  728.23   16.64
   5   0  -2  711.47   17.48
  -5   0   2  744.03   19.58
  -5   0   1  344.85    6.81
   5   0  -1  325.38   12.03
  -5   0   1  322.82   11.25
  -5   0   1  334.50   13.36
  -5   0   0   20.21    4.22
  -5   0   0   20.04    2.09
   5   0   0   14.71    3.16
  -5   0   0   25.93    3.77
   5   0   1  348.98   13.91
   5   0   1  348.47   12.63
  -5   0  -1  349.27    9.28
  -5   0  -1  355.99   13.79
  -5   0  -2   26.14    4.58
   5   0   2   30.02    5.21
   5   0   2   22.40    3.93
  -5   0  -2   20.52    2.96
  -5   0  -3   23.07    4.98
   5   0   3   14.82    4.58
   5   0   3   16.83    3.73
  -5   0  -3   18.04    3.48
   5   0   4  210.91   10.25
   5   0   4  203.06   11.95
  -5   0  -4  185.65    9.17
   5   0   5   43.51    5.33
   5   0   5   44.04    6.52
  -5   0  -5   36.60    5.17
   5   0   6  108.63    7.82
   5   0   6   94.11    9.06
  -5   0  -6   86.38    7.60
   5   0   7   47.96    7.57
  -5   0  -7   36.89    5.78
   5   0   8   49.86    7.87
  -5   0  -8   42.99    6.65
   5   0   9   -9.21    4.75
  -5   0  -9    1.96    3.91
   5   0  10   -3.17    5.06
  -5   0 -10    1.61    5.38
   5   1 -13   14.43    3.75
   5   1 -13   13.37    4.46
  -5   1  13   19.24    5.48
   5   1 -12   22.80    4.96
  -5   1  12   31.93    5.70
   5   1 -12   34.43    4.40
   5   1 -11   38.15    4.19
   5   1 -11   32.07    5.47
  -5   1  11   37.00    5.40
  -5   1  10  173.90   10.11
  -5   1  10  203.78    7.73
   5   1 -10  181.34    7.95
   5   1 -10  167.78   10.05
  -5   1   9  233.32   13.51
  -5   1   9  230.40   10.96
  -5   1   9  241.97    8.15
   5   1  -9  220.70   10.98
   5   1  -9  230.31    8.58
  -5   1   8   45.65    6.42
   5   1  -8   43.66    3.93
  -5   1   8   42.92    3.82
  -5   1   8   42.24    4.91
   5   1  -8   39.83    5.18
  -5   1   7  108.10    8.79
  -5   1   7  117.92    7.06
  -5   1   7  123.42    6.26
   5   1  -7  118.19    7.71
   5   1  -7   95.13    5.14
  -5   1   6   15.76    3.85
   5   1  -6   13.71    3.48
  -5   1   6   14.55    2.66
  -5   1   5   39.42    5.50
   5   1  -5   33.87    4.54
  -5   1   5   35.65    3.67
   5   1  -5   28.55    4.06
  -5   1   4   90.75    7.78
   5   1  -4   85.23    6.19
   5   1  -4   87.33    6.45
  -5   1   4   83.28    5.17
   5   1  -4   84.33    6.05
  -5   1   3  100.67    8.12
   5   1  -3  104.54    7.00
   5   1  -3  101.50    6.65
   5   1  -3   98.84    3.85
   5   1  -3  108.51    4.60
  -5   1   3  107.34    5.78
   5   1  -3  105.44    6.55
   5   1  -2  369.51   12.17
   5   1  -2  380.45    9.33
  -5   1   2  376.10   10.49
   5   1  -2  389.93    6.59
  -5   1   2  394.16   15.39
   5   1  -1  502.22   14.04
  -5   1   1  512.21   12.50
  -5   1   1  489.19    5.95
  -5   1   1  525.52   17.62
   5   1   0  290.55   11.06
  -5   1   0  316.31    6.36
  -5   1   0  307.69   13.75
  -5   1  -1   27.39    5.03
   5   1   1   25.91    4.86
   5   1   1   20.69    3.45
  -5   1  -1   22.41    2.14
   5   1   2   76.89    7.23
   5   1   2   69.91    5.82
  -5   1  -2   70.63    4.03
  -5   1  -2   69.79    7.22
   5   1   3  193.57    9.07
   5   1   3  188.18   11.21
  -5   1  -3  194.22    7.32
  -5   1  -3  180.48   10.68
   5   1   4  163.96    8.42
   5   1   4  135.58    9.99
  -5   1  -4  142.40    7.03
  -5   1  -4  150.19   10.20
   5   1   5  147.45    7.95
   5   1   5  124.53   10.14
  -5   1  -5  120.55    7.23
   5   1   6   28.07    5.74
  -5   1  -6   17.39    3.89
  -5   1  -7   40.11    5.09
   5   1   7   39.48    6.67
  -5   1  -7   34.12    5.07
  -5   1  -8   12.29    4.49
   5   1   8   11.82    5.13
  -5   1  -9   16.22    5.04
   5   1   9    5.88    5.00
  -5   1 -10   -0.91    3.79
   5   1  10   10.60    5.17
   5   2 -14   31.41    5.31
   5   2 -14   32.91    6.71
   5   2 -13    1.11    2.65
   5   2 -13   -3.28    4.29
   5   2 -12   18.59    4.96
  -5   2  12   21.31    3.61
   5   2 -11   26.26    5.07
  -5   2  11   30.80    4.17
  -5   2  11   33.52    4.92
  -5   2  10   23.50    5.49
   5   2 -10   20.68    4.49
  -5   2  10   27.76    4.26
  -5   2  10   22.01    3.34
   5   2  -9   15.30    2.63
  -5   2   9   12.77    4.64
   5   2  -9   10.19    3.62
  -5   2   9    6.53    2.84
  -5   2   9    7.47    2.58
  -5   2   8  101.05    9.38
  -5   2   8  123.64    7.08
  -5   2   8  132.01    7.41
   5   2  -8  114.32    8.02
   5   2  -8  123.89    5.84
  -5   2   7  159.01   11.08
  -5   2   7  151.94    7.33
   5   2  -7  161.10    9.05
  -5   2   6   22.08    5.06
   5   2  -6   23.34    4.20
  -5   2   6   27.30    3.01
  -5   2   5   37.29    5.82
   5   2  -5   51.76    4.89
  -5   2   5   44.29    3.45
   5   2  -5   51.92    5.09
  -5   2   4    4.80    3.37
   5   2  -4   10.02    2.93
   5   2  -4    9.99    2.81
   5   2  -4   10.67    2.07
  -5   2   4    5.55    1.34
  -5   2   3   18.55    2.07
  -5   2   3   21.26    4.66
   5   2  -3   20.76    3.65
   5   2  -3   15.26    3.18
   5   2  -3   21.83    2.85
   5   2  -3   18.43    3.24
   5   2  -2   51.08    5.33
   5   2  -2   45.41    4.47
   5   2  -2   46.84    4.22
   5   2  -2   48.86    4.65
  -5   2   2   51.53    6.19
  -5   2   1   31.04    5.31
   5   2  -1   30.24    4.42
   5   2  -1   33.95    3.83
  -5   2   0   28.20    5.45
   5   2   0   32.41    4.90
   5   2   0   36.17    4.01
   5   2   1  146.60    9.50
   5   2   1  166.31    7.99
  -5   2  -1  155.36   10.59
   5   2   2  115.75    8.86
   5   2   2  136.45    7.36
  -5   2  -2  128.71    9.72
   5   2   3   70.46    5.33
   5   2   3   59.34    6.90
  -5   2  -3   63.49    7.43
   5   2   4  101.96    9.26
  -5   2  -4   85.09    8.18
  -5   2  -5   80.33    5.43
   5   2   5   79.10    8.30
  -5   2  -6   14.84    3.48
  -5   2  -6   11.46    3.85
   5   2   6   15.25    5.10
  -5   2  -7   -0.09    2.79
   5   2   7    2.48    4.67
  -5   2  -7    0.60    2.48
  -5   2  -8   -0.56    3.36
  -5   2  -8    3.47    3.09
   5   2   8    7.39    4.59
   5   2   9   -2.46    4.41
  -5   2  -9    4.35    3.39
   5   3 -13   -5.01    4.40
  -5   3  13   11.14    3.39
   5   3 -12    0.46    3.74
  -5   3  12    0.62    2.65
  -5   3  11   18.58    4.87
   5   3 -11   17.96    4.73
  -5   3  11   14.43    3.99
  -5   3  10    1.34    3.71
   5   3 -10    4.20    3.27
  -5   3  10   10.08    2.88
  -5   3   9    9.83    4.18
   5   3  -9    6.84    3.22
  -5   3   9    7.69    3.03
  -5   3   8   81.40    8.69
  -5   3   8   90.16    7.15
   5   3  -8   76.90    6.83
  -5   3   7  169.73   12.10
   5   3  -7  184.39    9.94
  -5   3   6  252.55   14.28
  -5   3   6  253.38    7.38
   5   3  -6  278.51   11.53
  -5   3   5    4.89    4.19
   5   3  -5    2.36    2.49
   5   3  -5    4.41    2.71
   5   3  -5    3.45    2.16
  -5   3   5    2.35    0.87
  -5   3   4  397.23   17.48
   5   3  -4  394.55   13.23
   5   3  -4  410.15   12.09
   5   3  -4  415.19   13.18
  -5   3   3  324.38   15.77
   5   3  -3  307.14   12.10
   5   3  -3  327.34   11.30
  -5   3   3  329.01    7.02
   5   3  -3  294.14   10.81
   5   3  -2   59.19    5.88
  -5   3   2   62.52    3.87
   5   3  -2   54.95    4.78
   5   3  -2   58.52    5.31
   5   3  -2   64.86    5.22
  -5   3   2   54.55    7.36
   5   3  -1  157.06    9.36
   5   3  -1  137.35    7.02
   5   3  -1  169.98    8.97
   5   3  -1  152.68    7.63
  -5   3   1  156.58   11.08
   5   3   0   81.72    7.11
   5   3   0   94.23    5.82
  -5   3   0   79.49    8.36
  -5   3  -1   34.54    6.62
   5   3   1   38.41    5.41
   5   3   1   42.71    4.10
  -5   3  -2   41.97    6.83
   5   3   2   46.28    5.98
   5   3   2   44.10    4.06
   5   3   3  113.41    9.29
  -5   3  -3  103.53    9.76
   5   3   4   50.82    7.13
  -5   3  -4   56.03    7.84
   5   3   5   15.89    5.33
  -5   3  -5   19.74    5.53
  -5   3  -6   15.65    4.11
   5   3   6   17.26    5.26
  -5   3  -7    9.32    3.82
   5   3   7    4.46    3.66
  -5   3  -8   -1.63    3.69
   5   3   8   -2.78    3.62
  -5   3  -8    7.23    3.54
  -5   3  -9    7.68    3.86
  -5   3  -9    5.29    2.97
  -5   4  13   14.95    4.60
  -5   4  12    1.45    4.80
   5   4 -12    4.91    3.49
  -5   4  12   10.01    4.07
  -5   4  11    9.63    5.37
   5   4 -11   10.85    4.25
  -5   4  11   16.36    3.87
  -5   4  10    6.83    4.90
   5   4 -10    8.35    3.57
  -5   4  10    7.67    3.22
  -5   4   9    7.69    4.45
   5   4  -9    6.77    3.43
  -5   4   9    9.40    3.65
  -5   4   8   59.60    8.16
  -5   4   8   68.80    7.22
   5   4  -8   57.19    6.47
  -5   4   7  181.44   13.39
   5   4  -7  220.86   11.05
  -5   4   6   20.37    5.66
   5   4  -6   21.80    4.48
  -5   4   5  468.46   20.15
   5   4  -5  476.77   13.97
   5   4  -5  518.22   14.63
   5   4  -5  462.99   14.83
   5   4  -4  186.90    9.33
   5   4  -4  186.99    9.51
   5   4  -4  188.95    9.41
  -5   4   3  166.53   12.46
   5   4  -3  193.10    9.89
   5   4  -3  193.65    9.99
   5   4  -3  186.87    8.98
  -5   4   2    3.97    4.77
   5   4  -2   12.93    3.36
   5   4  -2    3.74    2.33
   5   4  -2   11.63    3.41
  -5   4   1    0.86    4.33
   5   4  -1    0.07    2.15
   5   4  -1    2.59    2.40
   5   4  -1    5.43    2.88
   5   4  -1    2.01    1.66
  -5   4   0   21.34    5.86
   5   4   0   29.47    3.39
   5   4   0   22.40    4.39
   5   4   0   28.23    3.72
  -5   4  -1   16.04    5.80
   5   4   1   16.83    4.07
   5   4   1   13.01    2.36
   5   4   2   97.86    8.58
  -5   4  -2   85.77    9.36
   5   4   3   53.85    7.11
  -5   4  -3   55.68    7.65
  -5   4  -4   21.98    5.74
   5   4   4   19.11    5.19
   5   4   5   59.28    7.99
  -5   4  -5   42.12    6.01
  -5   4  -5   56.92    8.21
  -5   4  -6   19.98    5.06
   5   4   6   16.62    5.64
  -5   4  -7    1.42    3.28
   5   4   7    0.64    3.97
  -5   4  -8    4.29    3.65
   5   4   8    3.41    4.32
  -5   4  -9    6.74    4.84
  -5   4  -9    0.92    3.16
  -5   5  12   15.12    4.65
  -5   5  11    0.26    4.70
   5   5 -11    2.04    3.67
  -5   5  10   32.29    7.86
   5   5 -10   43.61    6.56
  -5   5  10   45.66    6.29
  -5   5   9    0.22    3.72
   5   5  -9    0.10    3.65
  -5   5   9   -7.75    4.09
  -5   5   8    7.98    4.68
   5   5  -8   10.61    4.01
  -5   5   8    8.79    4.33
  -5   5   7   71.59    9.85
   5   5  -7   72.53    7.03
  -5   5   6   89.80    9.95
   5   5  -6  101.18    6.17
   5   5  -6  105.06    7.95
  -5   5   5    1.38    5.40
   5   5  -5    4.92    2.10
   5   5  -5    3.01    3.03
   5   5  -5   -0.95    2.75
  -5   5   4    2.44    5.03
   5   5  -4   -0.01    2.52
   5   5  -4    1.03    3.21
   5   5  -4    3.86    3.14
  -5   5   3   84.43    9.96
   5   5  -3   85.95    6.87
   5   5  -3   88.76    7.78
   5   5  -3   74.97    6.14
  -5   5   2   12.53    5.50
   5   5  -2   14.10    3.47
   5   5  -2   16.52    3.61
   5   5  -2   16.30    4.17
  -5   5   1   55.18    8.55
   5   5  -1   61.31    6.40
   5   5  -1   58.73    4.73
   5   5  -1   68.08    7.51
   5   5  -1   58.25    5.24
   5   5   0   68.73    7.25
   5   5   0   60.51    4.58
   5   5   0   74.17    7.93
   5   5   0   58.73    5.13
  -5   5   0   62.76    9.10
   5   5   1  134.99   10.07
  -5   5  -1  128.60   11.66
   5   5   2   69.10    7.69
  -5   5  -2   76.74    9.06
  -5   5  -3   47.60    7.67
   5   5   3   47.33    7.02
   5   5   4   70.84    8.56
  -5   5  -4   62.73    7.25
  -5   5  -4   60.23    8.04
  -5   5  -5   18.09    5.91
  -5   5  -5   18.79    4.74
   5   5   5   24.24    5.75
  -5   5  -6   12.76    4.50
   5   5   6    6.86    4.31
  -5   5  -7    3.25    3.52
   5   5   7   16.76    5.75
  -5   5  -8    2.55    3.97
  -5   6  11    3.91    3.65
  -5   6  10   10.61    5.29
   5   6 -10    7.45    4.50
  -5   6  10   12.30    4.55
  -5   6   9    8.22    5.97
  -5   6   9    7.25    5.11
   5   6  -9    3.10    3.65
  -5   6   8    2.51    5.23
   5   6  -8   -2.94    4.16
  -5   6   8   -9.86    4.42
  -5   6   7    6.72    5.72
   5   6  -7    4.62    3.52
  -5   6   6   63.32    9.26
   5   6  -6   82.65    7.48
   5   6  -6   63.56    6.87
  -5   6   5  118.65   12.15
   5   6  -5  122.66    9.02
   5   6  -5  113.78    8.52
  -5   6   4   50.26    8.51
   5   6  -4   58.70    5.61
   5   6  -4   58.45    6.84
   5   6  -4   58.82    5.97
  -5   6   3   50.42    8.73
   5   6  -3   53.92    5.81
   5   6  -3   61.96    7.33
   5   6  -3   51.18    5.67
  -5   6   2   39.53    7.73
   5   6  -2   33.57    4.86
   5   6  -2   30.01    4.44
   5   6  -2   35.41    6.24
  -5   6   1    6.19    4.69
   5   6  -1    6.67    3.18
   5   6  -1    6.74    3.05
   5   6  -1    9.02    4.83
  -5   6   0    1.59    5.71
   5   6   0    3.88    3.11
   5   6   0    5.38    2.69
   5   6   0    6.38    4.27
  -5   6  -1   17.33    6.40
   5   6   1   14.82    4.16
   5   6   1   18.92    5.72
  -5   6  -2   11.70    5.52
   5   6   2   -3.03    2.88
  -5   6  -3   12.75    5.80
  -5   6  -3    3.42    3.90
   5   6   3    7.47    3.93
  -5   6  -4   10.46    5.36
  -5   6  -4    2.56    3.27
   5   6   4    6.15    3.56
  -5   6  -5   14.67    6.27
  -5   6  -5   13.15    5.15
   5   6   5    7.31    4.58
  -5   6  -6   21.30    5.55
   5   6   6   14.96    4.88
  -5   7  10   21.47    6.55
  -5   7   9   17.43    6.34
   5   7  -9    7.17    4.45
  -5   7   9   23.06    7.39
  -5   7   8    2.79    4.69
   5   7  -8   -3.65    3.96
  -5   7   8   -4.17    5.51
  -5   7   7   16.29    6.85
   5   7  -7   10.89    4.11
  -5   7   6   11.90    5.93
   5   7  -6   12.35    4.38
   5   7  -6   20.54    4.91
  -5   7   5   16.83    6.72
   5   7  -5   19.02    4.59
   5   7  -5   17.48    4.48
  -5   7   4    1.71    4.86
   5   7  -4    0.28    2.69
   5   7  -4   -3.32    3.64
  -5   7   3    7.10    5.08
   5   7  -3    7.98    3.29
   5   7  -3    7.73    4.12
  -5   7   2   27.04    6.95
   5   7  -2   39.32    5.24
   5   7  -2   19.88    4.07
   5   7  -2   19.04    5.65
  -5   7   1   -6.40    5.91
   5   7  -1   -3.00    2.73
   5   7  -1    0.37    2.33
   5   7  -1   -5.16    3.78
  -5   7   0    3.77    5.60
   5   7   0   19.36    4.13
   5   7   0   13.97    5.27
  -5   7  -1   29.75    7.31
   5   7   1   37.62    6.03
   5   7   1   44.43    7.84
  -5   7  -2   42.00    8.40
  -5   7  -2   39.14    6.38
   5   7   2   33.66    6.12
   5   7   2   38.64    7.46
  -5   7  -3    0.04    5.85
  -5   7  -3   -0.67    3.78
   5   7   3    2.32    2.45
  -5   7  -4   24.01    7.36
  -5   7  -4   14.88    5.18
   5   7   4   16.78    4.97
  -5   7  -5   24.08    7.35
  -5   7  -5   27.33    6.65
   5   7   5   18.68    5.59
  -5   8   8    3.21    6.34
   5   8  -8    9.30    4.80
  -5   8   7    3.10    5.35
   5   8  -7    0.72    3.45
  -5   8   6    5.60    6.01
   5   8  -6   11.42    4.18
   5   8  -6   -2.77    3.18
   5   8  -5    4.20    3.62
  -5   8   5    7.65    6.32
   5   8  -5   12.05    4.28
  -5   8   4   10.14    5.79
   5   8  -4   14.47    4.25
   5   8  -4    8.84    4.05
  -5   8   3   14.36    5.84
   5   8  -3    8.00    3.15
  -5   8   2  -18.72    8.16
   5   8  -2   -0.07    4.03
  -5   8   1    5.50    6.22
  -5   8   1   -1.81    3.53
   5   8  -1  -11.01    5.56
  -5   8   0    9.71    7.20
  -5   8   0    8.58    3.94
   5   8   0   19.83    4.44
   5   8   0   18.13    5.78
  -5   8  -1   20.46    8.12
  -5   8  -1   11.96    4.30
   5   8   1   12.93    3.95
   5   8   1   16.69    7.11
  -5   8  -2    8.32    6.34
  -5   8  -2   13.24    4.75
   5   8   2   29.80    5.80
   5   8   2   13.66    5.72
  -5   8  -3    2.10    5.23
  -5   8  -3    7.83    4.33
   5   8   3    3.98    3.30
   5   8   3    5.79    5.53
  -5   8  -4   21.73    7.29
   5   8   4   17.60    4.91
  -5   8  -5   19.12    7.27
  -5   9   7    2.68    5.63
  -5   9   6    5.40    6.37
   5   9  -6   -7.60    4.24
  -5   9   5   -2.13    6.62
   5   9  -5   -4.71    3.73
   5   9  -5    4.55    4.33
   5   9  -4    9.44    3.78
   5   9  -4   12.74    5.50
  -5   9   3   -1.18    6.73
  -5   9   3   -3.60    2.70
   5   9  -3    3.38    3.22
  -5   9   2    8.71    8.29
  -5   9   2    7.80    3.64
   5   9  -2    7.75    4.57
  -5   9   1   10.55    7.74
  -5   9   1   13.15    3.84
   5   9  -1   15.68    6.23
  -5   9   0    2.83    6.93
  -5   9   0    5.63    3.51
  -5   9  -1    3.78    7.43
  -5   9  -1    0.03    3.44
  -5   9  -2    2.55    7.02
   5   9   3   26.94    5.46
  -5  10   1   16.95    4.65
   6  -9  -5    3.70    5.54
   6  -9  -4   12.32    5.58
   6  -9  -3    7.98    6.67
   6  -9  -3    7.67    5.41
   6  -9  -2   10.04    6.59
   6  -9  -2   12.63    6.70
  -6  -8   8    5.47    5.94
  -6  -8   7    8.94    6.23
   6  -8  -6    6.00    6.25
   6  -8  -6   -0.42    4.52
  -6  -8   6    5.87    5.51
  -6  -8   6    6.33    5.60
   6  -8  -5    5.41    5.36
   6  -8  -5    4.17    4.97
  -6  -8   5    1.51    6.00
  -6  -8   5    1.01    5.08
   6  -8  -4    0.49    5.25
   6  -8  -4   -2.75    3.55
  -6  -8   4    1.03    4.97
  -6  -8   4    4.37    5.49
   6  -8  -3   -2.86    5.49
   6  -8  -3   -8.05    5.21
  -6  -8   3    4.79    5.20
  -6  -8   3    3.23    3.98
   6  -8  -2   -2.46    5.32
   6  -8  -2    0.28    4.77
  -6  -8   2   -2.53    5.42
   6  -8  -1    1.68    4.24
   6  -8  -1    0.28    5.58
  -6  -8   1    5.56    6.22
   6  -8   0   -1.01    5.53
  -6  -8   0    0.01    5.27
   6  -8   1    2.08    5.07
  -6  -8  -1  -14.82    6.24
   6  -8   2    9.50    4.48
   6  -8   3    9.85    4.93
  -6  -7  10   11.46    5.57
  -6  -7   9    6.85    4.95
   6  -7  -8   17.12    5.72
   6  -7  -8   21.95    5.88
  -6  -7   8   21.25    7.86
  -6  -7   8   26.23    6.88
   6  -7  -7    3.47    5.24
   6  -7  -7    2.57    3.87
  -6  -7   7    7.77    5.58
  -6  -7   7   -2.10    4.74
   6  -7  -6    6.46    5.38
   6  -7  -6   14.69    5.74
  -6  -7   6   14.29    6.68
  -6  -7   6    5.34    4.84
   6  -7  -5    3.73    4.80
   6  -7  -5    8.69    4.87
  -6  -7   5   -1.13    4.58
  -6  -7   5    2.51    3.70
   6  -7  -4    3.79    4.43
   6  -7  -4    4.43    4.22
  -6  -7   4   -0.04    3.87
  -6  -7   4   -1.12    5.10
   6  -7  -3   10.49    4.66
   6  -7  -3    9.09    4.32
  -6  -7   3   16.40    5.68
   6  -7  -2   16.18    4.87
   6  -7  -2   16.94    5.79
  -6  -7   2    5.74    4.62
   6  -7  -1   -1.40    3.34
   6  -7  -1    4.08    5.26
  -6  -7   1   -6.68    4.64
   6  -7   0   14.65    4.68
   6  -7   0   11.20    5.46
  -6  -7   0   23.46    7.23
   6  -7   0   15.35    4.37
   6  -7   1   23.62    6.38
  -6  -7  -1   14.61    6.23
   6  -7   1   21.09    5.28
   6  -7   2    9.30    5.42
  -6  -7  -2   12.29    6.06
   6  -7   2    4.90    3.42
   6  -7   3    6.65    4.73
   6  -7   3    0.30    3.85
   6  -7   4    6.15    4.01
   6  -6 -10    9.44    5.30
  -6  -6  10    5.62    6.61
   6  -6  -9    7.58    4.21
   6  -6  -9    7.32    5.10
  -6  -6   9   11.68    5.97
  -6  -6   9    8.83    4.74
   6  -6  -8   21.82    5.73
   6  -6  -8   29.34    6.75
  -6  -6   8   25.10    7.53
  -6  -6   8   19.40    5.93
   6  -6  -7   37.60    6.76
   6  -6  -7   40.08    7.00
  -6  -6   7   30.33    7.23
  -6  -6   7   24.77    6.45
   6  -6  -6   28.46    5.71
   6  -6  -6   23.52    6.16
  -6  -6   6   14.91    5.96
  -6  -6   6   28.98    6.21
   6  -6  -5   11.63    4.80
   6  -6  -5    7.94    4.83
  -6  -6   5   14.74    6.43
  -6  -6   5    7.82    4.35
   6  -6  -4  100.16   10.02
  -6  -6   4  100.74   11.26
  -6  -6   4   88.83    8.87
   6  -6  -4   94.78    8.58
   6  -6  -3   94.79   10.01
  -6  -6   3   94.61   11.06
   6  -6  -3   90.31    7.98
   6  -6  -2   25.80    4.92
   6  -6  -2   26.98    5.80
  -6  -6   2   28.81    7.32
   6  -6  -1   -2.33    3.94
   6  -6  -1   -1.14    3.97
  -6  -6   1    5.65    5.03
   6  -6  -1    1.83    2.58
   6  -6   0    7.37    3.89
   6  -6   0    2.58    4.32
  -6  -6   0    4.19    3.82
   6  -6   0    3.90    3.05
   6  -6   1    1.18    3.22
   6  -6   1   -0.01    4.14
  -6  -6  -1    2.20    4.32
   6  -6   1    1.17    2.87
   6  -6   2   -0.49    3.86
  -6  -6  -2    8.33    5.05
   6  -6   2   -0.33    3.06
   6  -6   3    6.42    4.11
   6  -6   3    2.83    3.49
   6  -6   4    5.78    3.78
   6  -6   4    5.89    3.78
  -6  -6  -5   11.78    6.72
   6  -6   5   12.55    4.97
   6  -6   5   12.40    5.26
  -6  -6  -6    9.26    6.55
   6  -5 -11   59.64    8.46
  -6  -5  11   52.14    9.56
   6  -5 -10    3.73    3.88
   6  -5 -10  -10.87    5.21
  -6  -5  10   -9.49    5.77
   6  -5  -9   22.77    5.08
   6  -5  -9   24.33    6.42
  -6  -5   9   13.82    5.78
  -6  -5   9   24.77    5.61
   6  -5  -8    3.87    3.80
   6  -5  -8    3.85    3.53
  -6  -5   8    6.95    5.04
  -6  -5   8    2.46    3.60
   6  -5  -7    3.65    3.70
   6  -5  -7    6.88    4.99
  -6  -5   7    2.72    3.95
  -6  -5   7    3.15    3.59
   6  -5  -6   50.92    7.89
  -6  -5   6   53.72    7.93
  -6  -5   6   46.77    6.63
   6  -5  -6   47.22    6.62
   6  -5  -5   84.30    9.03
  -6  -5   5   90.34   10.36
  -6  -5   5   95.42    8.65
   6  -5  -5  104.05    8.34
   6  -5  -4   62.41    8.35
  -6  -5   4   48.22    8.01
  -6  -5   4   57.87    7.00
   6  -5  -4   58.77    6.22
   6  -5  -3   55.93    7.90
  -6  -5   3   51.77    8.39
   6  -5  -3   45.33    6.11
   6  -5  -2  229.96   14.06
  -6  -5   2  192.61   13.62
   6  -5  -2  214.46    8.89
   6  -5  -2  224.11   10.85
   6  -5  -1   97.63    9.59
  -6  -5   1  109.82   10.67
   6  -5  -1  102.16    6.68
   6  -5  -1  106.60    7.73
   6  -5   0    4.28    2.90
   6  -5   0    1.72    3.97
  -6  -5   0    3.33    4.14
   6  -5   0    4.37    2.74
   6  -5   1    2.73    2.77
   6  -5   1    0.26    4.21
  -6  -5  -1    1.92    3.99
   6  -5   1    0.42    2.88
   6  -5   2    6.38    3.00
   6  -5   2   12.65    3.20
   6  -5   2    2.16    3.93
  -6  -5  -2   10.82    5.36
   6  -5   2    7.27    3.42
   6  -5   3   -1.29    3.90
   6  -5   3   -0.23    2.85
  -6  -5  -4   -6.19    4.87
   6  -5   4    0.61    3.81
   6  -5   4   -1.07    3.94
  -6  -5  -5   21.55    6.72
   6  -5   5   20.07    5.45
   6  -5   5    7.74    3.99
  -6  -5  -6   37.69    9.40
   6  -5   6   39.19    7.59
   6  -5   6   21.74    6.04
  -6  -5  -7   -9.53    6.77
   6  -4 -13   -4.47    3.85
   6  -4 -12   31.64    6.38
  -6  -4  12   42.89    9.07
   6  -4 -11    9.31    4.17
  -6  -4  11    8.98    6.45
   6  -4 -11   15.72    5.23
   6  -4 -10   15.37    4.66
  -6  -4  10   16.58    6.01
   6  -4 -10   13.82    5.34
   6  -4  -9   34.30    5.85
   6  -4  -9   38.21    6.71
  -6  -4   9   39.39    7.50
  -6  -4   9   27.36    4.87
   6  -4  -8   14.37    4.43
   6  -4  -8   12.48    5.17
  -6  -4   8   17.44    5.88
  -6  -4   8   13.19    4.02
   6  -4  -7    9.66    3.18
   6  -4  -7   14.28    5.09
  -6  -4   7   16.10    6.22
  -6  -4   7    8.78    3.79
   6  -4  -6  195.07   12.84
  -6  -4   6  180.29   12.99
  -6  -4   6  180.28   10.42
   6  -4  -6  215.01   10.92
   6  -4  -5   84.15    8.84
  -6  -4   5   81.80    9.46
  -6  -4   5   76.60    7.24
   6  -4  -5   88.63    7.41
   6  -4  -4  438.49   18.23
  -6  -4   4  451.96   19.59
   6  -4  -4  410.43   14.02
   6  -4  -3   13.04    3.95
   6  -4  -3   15.43    5.19
  -6  -4   3   11.48    5.46
   6  -4  -3   13.25    2.25
   6  -4  -2   60.41    7.57
  -6  -4   2   56.46    7.59
   6  -4  -2   68.96    4.76
   6  -4  -2   67.56    5.98
   6  -4  -1  102.78    9.54
  -6  -4   1   97.93    9.89
   6  -4  -1  106.78    6.12
   6  -4  -1  102.50    6.78
   6  -4   0   84.86    8.74
   6  -4   0   99.88    7.63
  -6  -4   0   86.38    9.09
   6  -4   0   87.69    5.94
   6  -4   0   89.48    6.29
   6  -4   1   33.21    5.05
   6  -4   1   31.41    5.94
  -6  -4  -1   34.79    6.34
   6  -4   1   37.20    4.51
   6  -4   1   30.07    4.18
   6  -4   2    3.73    2.69
  -6  -4  -2    2.98    3.55
   6  -4   2    2.14    2.83
   6  -4   2    3.40    3.73
   6  -4   2    7.70    3.33
   6  -4   3   22.17    3.79
  -6  -4  -3   18.89    5.40
   6  -4   3   27.38    4.61
   6  -4   3   22.77    5.35
   6  -4   3   24.53    4.22
  -6  -4  -4   -0.10    4.13
   6  -4   4    2.65    2.64
   6  -4   4    3.26    3.46
   6  -4   4    7.38    3.15
  -6  -4  -5    2.50    4.79
   6  -4   5    3.36    3.13
   6  -4   5    3.38    3.41
   6  -4   6    2.94    3.85
   6  -4   6   -2.43    2.91
   6  -4   7    9.56    4.97
  -6  -4  -7    5.62    5.37
   6  -3 -13   28.91    5.74
  -6  -3  13   30.60    8.55
   6  -3 -12    4.40    3.66
  -6  -3  12    9.00    5.17
   6  -3 -12    6.65    4.79
   6  -3 -11    6.76    4.08
  -6  -3  11   12.30    5.61
   6  -3 -11    0.20    4.24
   6  -3 -10    7.09    3.47
  -6  -3  10    3.09    4.22
   6  -3 -10   11.49    4.65
   6  -3  -9   11.44    3.80
  -6  -3   9   28.03    6.50
   6  -3  -9   16.96    5.47
   6  -3  -8   53.97    7.11
  -6  -3   8   61.39    7.94
  -6  -3   8   57.65    5.83
   6  -3  -8   62.10    6.39
  -6  -3   7   94.21    7.56
   6  -3  -7   82.98    8.80
  -6  -3   7   99.88    9.82
  -6  -3   7  104.29    7.35
   6  -3  -7   90.98    7.18
  -6  -3   6  109.15    7.38
   6  -3  -6   97.73    9.18
  -6  -3   6   98.66    9.54
  -6  -3   6  105.78    7.36
   6  -3  -6  116.12    7.74
   6  -3  -5  434.41   17.62
  -6  -3   5  448.39   18.48
   6  -3  -5  462.02   14.09
  -6  -3   5  444.77   14.04
   6  -3  -4  117.36    9.54
  -6  -3   4  106.72    9.60
   6  -3  -4  115.25    7.25
  -6  -3   4  118.31    7.17
   6  -3  -3  211.62   12.26
  -6  -3   3  221.10   13.16
   6  -3  -3  226.39    6.57
   6  -3  -3  240.68    9.83
  -6  -3   3  238.66    9.60
   6  -3  -2  181.83   11.31
  -6  -3   2  174.70   11.82
   6  -3  -2  184.10    6.45
   6  -3  -2  183.19    8.42
  -6  -3   2  196.92    8.49
  -6  -3   1   10.84    2.60
   6  -3  -1    8.35    2.93
   6  -3  -1   12.69    3.38
   6  -3  -1   10.99    4.27
  -6  -3   1    3.37    3.78
   6  -3  -1   11.66    2.29
   6  -3   0   16.44    3.71
   6  -3   0   22.25    4.79
  -6  -3   0   12.42    4.78
   6  -3   0   18.86    2.81
   6  -3   1   77.45    8.02
  -6  -3  -1   77.62    7.42
   6  -3   1   74.52    7.15
  -6  -3  -1   80.79    8.49
   6  -3   1   62.09    4.97
  -6  -3  -2   11.75    4.09
   6  -3   2   19.66    4.32
   6  -3   2   10.07    4.28
   6  -3   2   19.84    3.58
  -6  -3  -3   27.82    5.52
   6  -3   3   21.51    4.76
   6  -3   3   26.25    5.48
   6  -3   3   28.59    4.23
   6  -3   4   39.37    6.02
   6  -3   4   31.88    5.89
  -6  -3  -4   38.45    6.68
   6  -3   4   35.39    5.14
   6  -3   5    8.74    4.05
   6  -3   5    6.84    4.04
  -6  -3  -5   11.98    5.22
   6  -3   5    6.65    3.74
   6  -3   6   26.46    5.93
  -6  -3  -6   21.56    6.50
   6  -3   6   27.05    5.40
   6  -3   7   18.60    6.01
  -6  -3  -7    5.51    5.43
   6  -3   7   18.04    4.68
  -6  -3  -8   -9.76    7.19
   6  -2 -14   23.46    6.34
  -6  -2  13   16.29    6.26
   6  -2 -13   17.33    5.54
   6  -2 -12    0.57    3.20
  -6  -2  12    7.27    4.58
  -6  -2  12   -4.08    5.13
   6  -2 -12    5.76    4.54
   6  -2 -11   11.75    3.76
  -6  -2  11   14.00    4.50
  -6  -2  11   11.35    5.42
   6  -2 -11   10.17    4.62
   6  -2 -10   26.36    4.50
  -6  -2  10   31.00    5.81
  -6  -2  10   28.54    6.08
   6  -2 -10   28.51    5.68
   6  -2  -9    8.47    3.25
  -6  -2   9   -0.59    2.93
  -6  -2   9   11.58    4.66
   6  -2  -9   -0.04    3.89
   6  -2  -8    1.58    2.60
  -6  -2   8    0.70    2.86
  -6  -2   8   -4.88    3.99
   6  -2  -8    2.32    3.52
  -6  -2   7   82.44    7.37
   6  -2  -7   86.52    8.62
  -6  -2   7   98.05    8.97
  -6  -2   7   90.00    5.74
   6  -2  -7   87.67    6.65
  -6  -2   6  131.52    8.88
   6  -2  -6  131.02    9.71
  -6  -2   6  118.08    9.59
   6  -2  -6  123.56    7.23
  -6  -2   5   72.53    6.46
   6  -2  -5   70.00    7.28
  -6  -2   5   60.34    7.00
   6  -2  -5   74.69    5.78
   6  -2  -4   70.90    7.47
  -6  -2   4   67.47    7.33
   6  -2  -4   73.99    3.00
   6  -2  -4   73.47    5.50
  -6  -2   4   70.74    6.09
   6  -2  -3  116.49    9.08
  -6  -2   3  102.65    8.63
  -6  -2   3  101.89    7.18
   6  -2  -2   89.94    8.03
   6  -2  -2  101.49    7.78
  -6  -2   2   79.98    7.77
  -6  -2   2   89.74    6.75
   6  -2  -1  163.50   10.42
   6  -2  -1  172.09    9.89
  -6  -2   1  167.78   10.71
  -6  -2   1  177.43    9.29
  -6  -2   0    4.11    2.85
   6  -2   0    1.16    3.06
   6  -2   0    3.62    3.51
  -6  -2   0    2.41    3.33
   6  -2   1   48.78    6.10
  -6  -2  -1   41.86    5.07
   6  -2   1   42.46    6.35
  -6  -2  -1   42.76    6.40
  -6  -2  -1   46.78    5.34
   6  -2   2  123.80    9.49
   6  -2   2  136.25    9.71
  -6  -2  -2  119.68    8.69
   6  -2   3   37.84    6.20
   6  -2   3   38.03    6.04
  -6  -2  -3   40.50    5.90
   6  -2   4   28.66    5.62
   6  -2   4   25.15    5.31
  -6  -2  -4   27.01    5.69
   6  -2   5   33.39    6.00
  -6  -2  -5   29.17    6.19
   6  -2   6    1.28    3.33
   6  -2   6   -0.01    3.17
  -6  -2  -6   -8.82    4.92
   6  -2   6   -0.08    2.88
   6  -2   7   17.25    5.40
  -6  -2  -7   19.14    5.90
   6  -2   7   11.60    3.74
  -6  -2  -8    8.29    5.32
  -6  -1  14   24.41    7.00
   6  -1 -14   11.34    6.33
  -6  -1  13   25.64    6.45
   6  -1 -13   23.66    5.82
  -6  -1  12   11.01    4.58
   6  -1 -12    7.48    4.44
  -6  -1  12   13.31    5.66
   6  -1 -12    9.41    4.51
   6  -1 -11    0.52    3.05
  -6  -1  11   -0.31    2.48
  -6  -1  11   -1.17    3.61
   6  -1 -11    1.14    4.29
   6  -1 -11    0.49    3.71
   6  -1 -10   12.39    3.53
  -6  -1  10    7.50    4.25
  -6  -1  10   11.56    4.98
   6  -1 -10   12.67    4.79
   6  -1 -10    5.32    3.80
   6  -1  -9    8.27    3.04
  -6  -1   9    5.48    3.14
  -6  -1   9    8.91    4.09
   6  -1  -9    6.07    3.84
  -6  -1   8  268.98   13.89
   6  -1  -8  240.46   13.18
  -6  -1   8  274.79   13.87
   6  -1  -8  249.04   10.34
  -6  -1   7   73.14    7.49
   6  -1  -7   67.30    7.23
  -6  -1   7   77.27    7.42
   6  -1  -7   76.67    5.79
  -6  -1   6  235.82   12.27
   6  -1  -6  224.99   12.01
  -6  -1   6  221.82   11.86
   6  -1  -6  232.61    9.24
  -6  -1   5  114.52    8.57
   6  -1  -5  111.44    8.55
  -6  -1   5  108.46    8.29
   6  -1  -5  101.26    5.99
   6  -1  -4   48.44    6.01
  -6  -1   4   50.26    6.04
  -6  -1   4   55.23    6.02
   6  -1  -3   43.93    5.23
   6  -1  -3   41.23    5.48
  -6  -1   3   35.93    5.03
  -6  -1   3   42.03    5.44
   6  -1  -2  125.93    8.47
   6  -1  -2  117.48    8.75
  -6  -1   2  141.37    9.05
  -6  -1   2  120.82    8.56
  -6  -1   1   30.16    4.76
   6  -1  -1   32.17    5.08
   6  -1  -1   26.01    4.62
  -6  -1   1   28.34    4.65
   6  -1   0  177.72   10.56
   6  -1   0  184.11   10.81
  -6  -1   0  190.20    8.09
  -6  -1   0  184.57   10.53
  -6  -1   0  190.35   10.52
   6  -1   1  186.37   11.11
   6  -1   1  177.99   11.05
  -6  -1  -1  187.97    8.71
  -6  -1  -1  195.81   10.77
   6  -1   2   38.68    6.29
  -6  -1  -2   36.60    4.78
   6  -1   2   30.98    5.18
  -6  -1  -2   34.36    5.14
   6  -1   3   41.73    5.87
   6  -1   3   35.04    5.92
  -6  -1  -3   40.08    5.35
   6  -1   4   72.58    7.48
   6  -1   4   70.56    8.07
  -6  -1  -4   72.90    7.21
  -6  -1  -5    6.49    4.31
   6  -1   5    4.50    3.69
   6  -1   5    5.89    3.77
  -6  -1  -6    8.03    4.30
   6  -1   6    8.54    4.65
   6  -1   6    2.33    3.63
  -6  -1  -7   15.19    5.62
   6  -1   7   22.61    5.49
  -6  -1  -8    3.38    4.95
   6  -1   8    6.80    4.35
  -6  -1  -9   15.20    5.47
   6   0 -14   35.85    7.56
   6   0 -13   30.82    6.16
  -6   0  13   33.68    7.12
   6   0 -13   43.32    7.68
  -6   0  12    6.70    3.52
   6   0 -12    2.89    3.78
  -6   0  12    0.08    3.92
   6   0 -12    2.92    4.44
   6   0 -11   28.46    4.52
  -6   0  11   25.74    5.91
   6   0 -11   20.33    4.80
  -6   0  11   27.15    5.75
   6   0 -11   21.61    5.31
  -6   0  10   53.64    7.65
   6   0 -10   75.46    8.15
  -6   0  10   78.82    8.09
   6   0 -10   72.13    7.44
   6   0 -10   66.68    5.84
   6   0  -9   15.50    3.28
  -6   0   9   12.95    4.62
   6   0  -9   17.44    4.49
  -6   0   9   17.13    4.60
   6   0  -9   18.03    4.99
  -6   0   8   41.91    6.71
   6   0  -8   42.85    6.06
  -6   0   8   52.90    6.46
   6   0  -8   50.00    6.33
   6   0  -8   52.00    4.91
   6   0  -7    2.24    2.18
  -6   0   7    2.63    3.10
   6   0  -7   -1.61    3.64
  -6   0   7   -0.41    2.79
  -6   0   7   -0.38    1.65
   6   0  -7    0.63    3.55
  -6   0   6  126.61    9.68
   6   0  -6  127.73    9.05
  -6   0   6  119.01    8.17
  -6   0   5   53.74    6.59
   6   0  -5   65.69    6.71
  -6   0   5   59.00    5.79
  -6   0   4  137.13    9.81
   6   0  -4  136.80    8.67
   6   0  -4  125.62    8.51
  -6   0   4  128.37    8.12
   6   0  -3  289.81   12.49
   6   0  -3  263.09   12.06
  -6   0   3  261.78   11.13
   6   0  -3  264.09    4.90
  -6   0   3  250.13   12.98
   6   0  -2  202.01   10.84
   6   0  -2  191.80   10.39
  -6   0   2  185.14    9.41
  -6   0   2  184.54   11.21
   6   0  -1  122.51    8.87
   6   0  -1  118.42    8.34
  -6   0   1  114.29    7.57
  -6   0   1  124.34    9.27
  -6   0   0    3.10    3.01
   6   0   0    1.53    3.72
  -6   0   0    0.85    1.24
   6   0   0    3.83    2.83
  -6   0  -1    1.55    3.28
   6   0   1    1.00    3.61
   6   0   1   -1.57    3.46
  -6   0  -1    0.09    1.27
   6   0   2   54.35    5.91
   6   0   2   51.57    6.67
  -6   0  -2   65.06    5.21
  -6   0  -2   50.21    6.69
   6   0   3   66.93    6.84
   6   0   3   73.26    8.30
  -6   0  -3   64.93    5.68
  -6   0  -3   60.73    7.31
   6   0   4   41.10    6.71
   6   0   4   34.70    5.36
  -6   0  -4   43.00    5.35
   6   0   5    1.88    3.56
   6   0   5    3.08    3.00
  -6   0  -5    2.68    3.30
   6   0   6   39.20    7.24
  -6   0  -6   35.37    5.94
   6   0   7   -8.93    4.84
  -6   0  -7    0.29    4.28
   6   0   8    4.70    4.62
  -6   0  -8   26.96    6.32
   6   0   9  -16.19    5.07
  -6   0  -9    4.08    4.73
   6   1 -14    9.73    5.77
  -6   1  13   37.08    7.25
   6   1 -13   25.40    5.54
  -6   1  12    6.72    4.10
   6   1 -12    4.72    4.26
  -6   1  11   -2.52    3.55
   6   1 -11    2.69    4.03
  -6   1  11    2.48    3.78
   6   1 -10    9.51    2.86
  -6   1  10   13.17    4.78
   6   1 -10   11.64    3.81
  -6   1  10   10.65    3.85
   6   1  -9    5.82    2.63
  -6   1   9   12.30    4.53
   6   1  -9    6.72    3.65
  -6   1   9    6.98    3.31
  -6   1   9   10.29    2.67
  -6   1   8  251.35   14.68
   6   1  -8  266.28   13.49
  -6   1   8  266.25   11.91
  -6   1   8  280.24    9.74
   6   1  -8  252.87   12.24
   6   1  -8  254.48    9.45
  -6   1   7   82.85    8.70
   6   1  -7   81.19    7.57
  -6   1   7   84.71    6.57
   6   1  -7   78.01    7.17
  -6   1   6  240.35   13.84
   6   1  -6  245.00   12.05
  -6   1   6  211.46    9.57
   6   1  -6  223.81   10.96
  -6   1   5  112.61    9.50
   6   1  -5  133.66    8.51
   6   1  -5  119.85    8.40
  -6   1   5  114.14    6.85
   6   1  -5  114.31    7.96
  -6   1   4   51.33    6.74
   6   1  -4   50.12    5.63
   6   1  -4   58.62    6.00
   6   1  -4   54.11    3.01
  -6   1   4   49.11    4.52
  -6   1   3   38.89    6.15
   6   1  -3   43.50    5.52
   6   1  -3   42.47    5.21
   6   1  -3   49.03    3.44
  -6   1   3   39.40    4.08
   6   1  -2  120.58    8.65
   6   1  -2  121.79    8.08
   6   1  -2  117.37    5.75
  -6   1   2  118.99    6.75
  -6   1   2  117.58    9.52
  -6   1   1   37.30    6.22
  -6   1   1   28.92    1.61
   6   1  -1   33.51    5.35
   6   1  -1   27.12    4.44
   6   1   0  206.09   11.78
   6   1   0  195.30   10.28
  -6   1   0  198.16    5.90
  -6   1   0  182.15   11.82
   6   1   1  193.33   11.75
   6   1   1  185.61   10.05
  -6   1  -1  193.94    6.88
  -6   1  -1  164.04   10.96
  -6   1  -2   27.19    6.17
   6   1   2   38.58    5.43
   6   1   2   33.38    6.22
  -6   1  -2   38.61    3.78
   6   1   3   45.13    5.65
   6   1   3   47.91    7.15
  -6   1  -3   39.10    4.29
  -6   1  -3   46.01    6.98
   6   1   4   76.89    6.64
   6   1   4   71.68    8.43
  -6   1  -4   72.89    6.05
  -6   1  -4   79.98    8.47
  -6   1  -5    4.42    2.92
   6   1   5    4.97    3.99
  -6   1  -6    6.02    3.84
   6   1   6    4.66    3.68
   6   1   7   14.93    5.55
  -6   1  -7    8.96    4.29
   6   1   8    5.04    5.23
  -6   1  -8    1.49    3.80
  -6   1  -9   -2.62    4.24
   6   2 -14   22.82    6.18
  -6   2  13    7.80    5.35
   6   2 -13   16.59    5.93
  -6   2  12   -2.54    3.46
   6   2 -12    4.71    4.04
  -6   2  11    1.05    4.55
   6   2 -11    9.78    4.08
  -6   2  10   27.63    6.47
   6   2 -10   27.51    5.34
  -6   2  10   35.05    4.25
   6   2  -9    7.78    2.67
  -6   2   9    6.16    4.94
   6   2  -9    7.73    3.86
  -6   2   9   10.88    2.82
  -6   2   8   -0.18    3.11
   6   2  -8   -1.62    3.15
  -6   2   8   -0.07    2.45
  -6   2   7   95.24    9.79
  -6   2   7   93.18    6.12
   6   2  -7   95.64    7.70
  -6   2   6  121.94   10.77
   6   2  -6  133.01    9.02
  -6   2   6  137.65    6.86
   6   2  -6  123.89    8.50
  -6   2   5   61.32    7.92
   6   2  -5   66.77    6.28
   6   2  -5   74.02    6.70
  -6   2   5   64.56    4.57
   6   2  -5   65.99    6.38
  -6   2   4   67.70    8.49
   6   2  -4   70.57    6.66
   6   2  -4   69.69    6.32
   6   2  -4   77.43    4.81
  -6   2   4   67.12    4.50
   6   2  -4   70.88    6.27
   6   2  -3  113.28    8.43
   6   2  -3   94.61    7.18
   6   2  -3  104.95    6.01
  -6   2   3   94.42    5.06
   6   2  -3  100.70    7.36
  -6   2   3   98.86    9.70
   6   2  -2   92.42    7.80
   6   2  -2   85.71    6.81
   6   2  -2   84.63    5.86
  -6   2   2   88.16    8.93
   6   2  -1  173.90    9.26
  -6   2   1  159.73   11.53
  -6   2   0   -0.24    4.15
   6   2   0    4.44    3.39
   6   2   0    1.22    2.62
  -6   2   0    2.92    1.06
   6   2   1   44.12    6.33
   6   2   1   52.50    5.54
  -6   2  -1   51.27    3.20
  -6   2  -1   52.06    7.14
   6   2   2  125.24   10.29
   6   2   2  141.36    8.65
  -6   2  -2  114.16   10.26
  -6   2  -2  119.74    5.33
  -6   2  -3   37.56    6.82
   6   2   3   29.00    5.82
  -6   2  -3   47.94    4.04
  -6   2  -4   21.31    6.10
  -6   2  -4   24.19    3.45
   6   2   4   16.90    5.31
   6   2   5   43.68    7.57
  -6   2  -5   41.52    4.61
   6   2   6   -5.21    4.10
  -6   2  -6    2.46    2.81
  -6   2  -7   17.78    4.99
   6   2   7    7.80    5.11
  -6   2  -7   14.49    4.06
   6   2   8   -7.90    5.31
  -6   2  -8   -6.15    3.36
  -6   2  -9    1.96    4.06
   6   3 -13   24.08    5.70
  -6   3  12    1.89    3.96
   6   3 -12   12.58    5.02
  -6   3  11   -0.28    4.03
   6   3 -11   -0.21    3.64
  -6   3  11    3.48    2.24
  -6   3  10    9.62    4.77
   6   3 -10   10.19    4.19
  -6   3  10   12.16    3.37
  -6   3   9   15.56    5.56
   6   3  -9   13.54    4.07
  -6   3   9   16.58    4.15
  -6   3   8   58.33    8.30
   6   3  -8   64.63    6.74
  -6   3   7  100.34   10.50
   6   3  -7   93.68    7.91
  -6   3   6  103.32   10.60
   6   3  -6  107.40    7.75
   6   3  -6  104.10    8.18
  -6   3   5  449.85   20.21
   6   3  -5  442.91   15.16
   6   3  -5  430.36   12.07
   6   3  -5  416.73   14.80
  -6   3   4  114.09   10.76
   6   3  -4  116.10    8.38
   6   3  -4  123.09    8.25
   6   3  -4  116.48    7.01
   6   3  -4  117.83    8.20
   6   3  -3  214.45   11.46
   6   3  -3  219.29   10.45
   6   3  -3  232.40   10.00
   6   3  -3  194.82   10.06
  -6   3   3  212.03   14.17
   6   3  -2  193.59   11.06
   6   3  -2  180.54    9.39
   6   3  -2  184.93    9.59
   6   3  -2  174.85    9.32
  -6   3   2  174.99   12.74
  -6   3   1   11.15    5.09
   6   3  -1   12.42    3.95
   6   3  -1    3.47    2.56
   6   3  -1    7.45    2.84
  -6   3   0   12.38    5.39
   6   3   0   16.68    4.58
   6   3   0   17.43    3.56
   6   3   1   76.41    8.10
   6   3   1   82.70    6.46
  -6   3  -1   66.52    8.57
  -6   3  -2    7.81    5.38
   6   3   2   17.77    4.73
  -6   3  -3   22.89    6.26
   6   3   3   27.14    6.02
  -6   3  -4   41.22    7.36
   6   3   4   25.09    6.39
  -6   3  -5    9.20    2.57
   6   3   5    2.91    3.33
  -6   3  -5    4.42    5.20
  -6   3  -6   32.48    4.33
  -6   3  -6   36.12    5.54
   6   3   6   32.31    6.69
  -6   3  -7    7.02    3.84
   6   3   7   17.31    6.85
  -6   3  -7   14.13    3.92
  -6   3  -8   -5.93    3.95
  -6   4  12   19.44    6.21
   6   4 -12   25.39    6.51
  -6   4  12   28.59    4.55
  -6   4  11    6.83    3.83
   6   4 -11    7.13    4.56
  -6   4  11    7.85    3.51
  -6   4  10   15.23    4.94
   6   4 -10   17.24    4.75
  -6   4  10   15.29    3.88
  -6   4   9   41.05    7.71
   6   4  -9   34.74    5.81
  -6   4   9   41.92    6.07
  -6   4   8   14.26    5.50
   6   4  -8   16.29    4.73
  -6   4   7    9.38    5.11
   6   4  -7    8.97    3.26
  -6   4   6  176.78   13.86
   6   4  -6  180.35   10.33
  -6   4   5   86.29   10.40
   6   4  -5   84.10    7.16
   6   4  -5   91.53    6.95
   6   4  -5   79.10    7.27
  -6   4   4  459.56   21.50
   6   4  -4  449.38   15.95
   6   4  -4  474.76   15.30
   6   4  -4  451.83   15.26
  -6   4   3    8.57    6.29
   6   4  -3   17.43    4.10
   6   4  -3   19.79    4.33
   6   4  -3   13.21    3.62
   6   4  -3   17.57    3.84
  -6   4   2   44.13    7.80
   6   4  -2   57.17    6.77
   6   4  -2   64.18    5.85
   6   4  -2   60.32    6.46
   6   4  -2   64.88    6.18
   6   4  -1  116.37    9.38
   6   4  -1  106.43    7.16
   6   4  -1  116.13    8.93
  -6   4   1   95.22   10.88
   6   4   0   94.02    8.63
   6   4   0  100.65    6.88
  -6   4   0   95.64   10.57
  -6   4  -1   35.38    7.68
   6   4   1   32.39    5.85
  -6   4  -2    4.43    5.49
   6   4   2    3.31    3.79
  -6   4  -3   16.90    5.74
   6   4   3   27.80    5.66
  -6   4  -4    6.25    4.87
   6   4   4    1.39    3.63
  -6   4  -5    7.72    4.70
  -6   4  -5   -0.31    3.64
   6   4   5   12.13    5.03
  -6   4  -6   -8.40    4.58
   6   4   6   11.10    5.54
  -6   4  -7    6.74    3.88
  -6   4  -8   -0.19    4.14
  -6   5  12    4.78    4.01
  -6   5  11   36.06    9.91
   6   5 -11   46.01    7.08
  -6   5  11   40.49    6.12
  -6   5  10   -2.41    6.11
   6   5 -10    0.13    3.86
  -6   5  10    2.62    3.34
  -6   5   9   25.69    7.40
   6   5  -9   26.87    5.54
  -6   5   9   21.59    5.74
  -6   5   8    5.60    5.89
   6   5  -8    9.79    3.77
  -6   5   7    1.02    3.92
   6   5  -7    3.91    3.71
  -6   5   6   47.90    8.90
   6   5  -6   53.06    5.41
   6   5  -6   56.35    5.74
   6   5  -6   45.15    5.68
  -6   5   5   82.84   10.36
   6   5  -5   94.39    7.34
   6   5  -5  105.55    8.08
   6   5  -5   92.17    7.66
  -6   5   4   58.04    9.47
   6   5  -4   62.60    6.60
   6   5  -4   56.13    6.46
   6   5  -4   60.87    6.51
  -6   5   3   35.98    8.01
   6   5  -3   47.17    6.11
   6   5  -3   44.38    6.10
   6   5  -3   47.98    5.61
   6   5  -2  232.23   12.67
   6   5  -2  224.97   10.38
   6   5  -2  243.81   13.27
   6   5  -2  214.27   10.51
  -6   5   2  213.28   15.55
   6   5  -1  103.42    9.08
   6   5  -1  117.71    9.87
   6   5  -1  103.28    7.52
  -6   5   1  110.53   11.99
  -6   5   0    2.86    5.51
   6   5   0    1.84    3.59
   6   5   0    8.54    4.21
  -6   5  -1    0.05    4.69
   6   5   1    2.01    3.12
  -6   5  -2   -0.69    5.22
   6   5   2   10.77    4.24
  -6   5  -3    1.13    5.21
   6   5   3    0.86    3.66
  -6   5  -4    5.31    4.48
   6   5   4    7.13    4.54
  -6   5  -5   15.81    6.06
  -6   5  -5   12.16    4.89
   6   5   5   10.92    4.42
  -6   5  -6   39.47    7.18
   6   5   6   36.80    7.25
  -6   6  11   28.82    6.62
  -6   6  10    7.80    6.58
   6   6 -10    5.32    4.70
  -6   6   9    8.53    6.47
   6   6  -9   12.77    4.36
  -6   6   9    6.23    4.30
  -6   6   8   20.09    7.06
   6   6  -8   28.19    5.74
  -6   6   7   20.30    7.42
   6   6  -7   36.03    6.03
  -6   6   6   24.81    7.75
   6   6  -6   23.02    4.68
   6   6  -6   34.94    5.13
  -6   6   5    4.60    5.62
   6   6  -5    9.09    3.45
   6   6  -5   13.64    4.57
  -6   6   4  109.69   12.22
   6   6  -4  105.39    8.22
   6   6  -4  101.92    9.04
   6   6  -4   92.83    7.90
   6   6  -3  102.48    8.41
   6   6  -3   92.77    8.96
   6   6  -3   94.12    7.58
  -6   6   3   88.36   11.46
  -6   6   2   24.43    6.93
   6   6  -2   33.22    4.81
   6   6  -2   29.78    5.31
   6   6  -2   31.98    6.16
  -6   6   1    2.55    6.08
   6   6  -1    0.88    3.56
   6   6  -1    0.54    2.70
   6   6  -1   -5.36    3.30
  -6   6   0    2.32    6.22
   6   6   0   -1.13    2.84
   6   6   0    5.60    3.67
  -6   6  -1    6.79    6.55
   6   6   1    3.28    3.67
   6   6   1    4.38    3.78
  -6   6  -2    0.30    4.60
   6   6   2    3.19    3.09
  -6   6  -3    3.58    5.40
   6   6   3    9.92    4.54
  -6   6  -4    8.40    5.73
  -6   6  -4    0.86    3.52
   6   6   4   15.48    5.43
  -6   6  -5    9.40    5.87
  -6   6  -5    4.26    4.95
   6   6   5    0.09    3.75
  -6   7   9   10.40    7.04
  -6   7   9    2.96    5.07
  -6   7   8   20.73    8.05
   6   7  -8   34.83    6.09
  -6   7   7   -0.82    5.53
   6   7  -7    3.46    3.73
  -6   7   6    9.58    6.26
   6   7  -6   14.86    4.57
   6   7  -6   16.39    3.91
  -6   7   5    6.89    6.37
   6   7  -5   11.14    3.85
   6   7  -5   12.82    3.86
  -6   7   4   -0.75    5.65
   6   7  -4   -5.64    3.48
   6   7  -4    7.70    3.35
  -6   7   3    8.44    6.49
   6   7  -3   12.09    3.97
   6   7  -3   12.05    4.70
  -6   7   2   10.50    7.14
   6   7  -2   14.25    3.36
   6   7  -2    5.19    3.02
   6   7  -2    3.64    4.09
  -6   7   1   -1.43    6.53
   6   7  -1   -7.43    2.84
   6   7  -1    5.95    5.12
  -6   7   0   19.09    7.61
   6   7   0   16.85    4.18
   6   7   0   32.66    7.27
  -6   7  -1   21.88    7.71
   6   7   1   23.96    5.39
   6   7   1   17.68    6.08
  -6   7  -2    1.03    3.86
   6   7   2    6.68    4.21
  -6   7  -3    2.87    5.30
  -6   7  -3    1.82    4.86
   6   7   3    1.48    4.46
   6   7   3   -0.60    3.77
  -6   7  -4    1.67    5.53
   6   7   4    9.52    3.90
  -6   8   7   -7.53    6.37
   6   8  -7    5.33    3.68
  -6   8   6   13.40    7.91
   6   8  -6   -1.34    3.59
   6   8  -6    8.00    3.94
  -6   8   5    6.75    7.20
   6   8  -5    1.80    3.51
   6   8  -5   -3.06    3.10
  -6   8   4    5.21    6.32
   6   8  -4   -3.48    3.31
   6   8  -4    1.36    3.79
  -6   8   3  -13.54    7.31
   6   8  -3  -14.89    5.33
  -6   8   2    7.18    7.16
   6   8  -2    3.99    4.51
  -6   8   1    3.17    6.20
   6   8  -1   -2.86    4.05
  -6   8   0    2.52    7.16
  -6   8   0   -2.02    3.22
   6   8   0   -7.40    3.49
   6   8   0    4.98    4.94
  -6   8  -1    7.84    7.15
  -6   8  -1   -7.78    4.56
   6   8   1    0.47    1.29
   6   8   1   -0.10    5.57
  -6   8  -2    2.93    5.82
   6   8   2    9.46    3.68
   6   8   2    1.17    4.35
  -6   8  -3   -3.28    5.37
   6   8   3    8.26    3.71
   6   9  -5    9.11    3.85
  -6   9   4   15.11    7.82
  -6   9   3    5.66    9.11
  -6   9   3    1.34    2.82
  -6   9   2    5.23    9.72
  -6   9   2    2.28    3.54
  -6   9   1   25.01   10.39
  -6   9   1   18.90    4.90
  -6   9   0    9.28    8.93
   7  -8  -7   46.58    9.65
   7  -8  -6   10.11    6.61
   7  -8  -5   11.05    5.62
   7  -8  -4   37.97    7.96
   7  -8  -4   22.20    6.31
   7  -8  -3    8.21    5.44
   7  -8  -3    5.71    4.75
   7  -8  -2   10.72    6.18
   7  -8  -1   31.82    7.33
  -7  -7   9   18.03    6.89
   7  -7  -8   33.66    8.04
  -7  -7   8   44.36    8.64
   7  -7  -7    3.46    4.65
   7  -7  -7    1.06    4.46
  -7  -7   7    6.24    6.08
  -7  -7   7    5.75    5.06
   7  -7  -6   46.95    7.52
   7  -7  -6   42.72    8.47
  -7  -7   6   22.80    8.21
  -7  -7   6   41.79    7.56
   7  -7  -5    2.53    4.45
   7  -7  -5    1.47    4.44
  -7  -7   5    1.06    6.02
   7  -7  -4    9.62    5.17
   7  -7  -4   17.01    6.06
  -7  -7   4   12.44    5.93
   7  -7  -3    0.49    4.35
   7  -7  -3    8.32    5.20
  -7  -7   3    4.20    5.98
   7  -7  -2   11.03    5.02
   7  -7  -2    2.16    3.97
  -7  -7   2    7.39    5.22
   7  -7  -1    3.44    4.37
   7  -7  -1    1.88    5.29
  -7  -7   1   -5.80    4.54
   7  -7   0    4.63    4.69
   7  -7   0    2.12    5.56
  -7  -7   0   -6.14    4.94
   7  -7   1    3.72    5.29
  -7  -7  -1   14.43    6.75
   7  -7   2    8.18    4.23
   7  -7   3   13.00    4.96
   7  -6 -10   31.44    8.05
   7  -6  -9    9.21    5.38
   7  -6  -9   -0.86    5.48
  -7  -6   9    3.17    5.98
   7  -6  -8   20.78    5.92
   7  -6  -8   24.21    6.88
  -7  -6   8   20.19    7.69
  -7  -6   8   21.14    5.98
   7  -6  -7   12.01    5.13
   7  -6  -7   15.74    6.12
  -7  -6   7   16.71    6.00
  -7  -6   7    2.45    4.61
   7  -6  -6    0.35    4.68
   7  -6  -6   -0.97    4.80
  -7  -6   6    2.21    5.12
  -7  -6   6    9.15    5.08
   7  -6  -5    9.35    4.74
   7  -6  -5    6.20    4.61
  -7  -6   5    3.91    4.45
   7  -6  -4   14.26    4.49
  -7  -6   4   18.31    6.77
   7  -6  -4   14.22    5.80
   7  -6  -3   -2.46    4.01
   7  -6  -3    0.32    4.96
  -7  -6   3  -14.72    6.49
   7  -6  -2   21.70    5.12
   7  -6  -2   20.73    5.58
  -7  -6   2   29.04    7.68
   7  -6  -1   10.86    4.49
   7  -6  -1    2.16    4.07
   7  -6   0    4.61    3.93
   7  -6   0    9.85    5.33
  -7  -6   0    2.02    5.29
   7  -6   1    7.09    4.14
   7  -6   1    3.49    4.66
   7  -6   1    4.72    3.48
   7  -6   2    0.92    4.56
   7  -6   2    1.81    3.34
   7  -6   3   -2.71    4.23
   7  -6   3    1.03    2.94
   7  -6   4    9.74    4.44
   7  -5 -11  -23.05    7.34
   7  -5 -10   12.13    5.02
   7  -5 -10   15.68    6.34
  -7  -5  10   20.18    7.80
   7  -5  -9    3.19    3.69
   7  -5  -9    3.89    5.28
  -7  -5   9    5.53    5.66
   7  -5  -8    9.97    4.40
   7  -5  -8   15.89    6.67
  -7  -5   8   14.80    6.58
  -7  -5   8    7.82    4.33
   7  -5  -7   12.65    4.49
   7  -5  -7   13.07    5.12
  -7  -5   7    8.80    5.05
  -7  -5   7   14.59    4.73
   7  -5  -6   22.22    4.99
   7  -5  -6   21.94    5.85
  -7  -5   6   15.96    6.05
  -7  -5   6   21.00    4.76
   7  -5  -5   20.10    5.27
   7  -5  -5    8.10    4.43
  -7  -5   5   12.01    5.72
   7  -5  -4   29.36    5.29
   7  -5  -4   23.09    6.83
  -7  -5   4   23.81    6.44
   7  -5  -3    2.95    3.98
   7  -5  -3    1.76    4.54
  -7  -5   3    0.32    4.44
   7  -5  -2   17.85    4.32
   7  -5  -2   18.52    5.36
  -7  -5   2   29.84    6.59
   7  -5  -1   51.79    7.64
  -7  -5   1   33.89    7.32
   7  -5  -1   42.02    5.44
   7  -5   0   20.38    4.46
   7  -5   0   19.78    5.93
  -7  -5   0   18.69    5.83
   7  -5   0   18.14    3.92
   7  -5   1    2.78    3.11
   7  -5   1    6.80    4.94
  -7  -5  -1    3.17    4.27
   7  -5   1    6.34    3.02
   7  -5   2    1.16    3.70
   7  -5   2    5.66    3.55
   7  -5   3   -8.81    5.14
   7  -5   3   -2.61    3.48
  -7  -5  -4    5.94    5.58
   7  -5   4   12.32    4.99
   7  -5   4    7.82    4.67
  -7  -5  -5    7.00    5.47
   7  -5   5    6.13    5.05
   7  -4 -12    2.08    4.48
   7  -4 -12   -3.02    5.82
   7  -4 -11   27.21    6.33
   7  -4 -11   25.99    6.93
  -7  -4  11   25.22    7.53
   7  -4 -10    4.06    3.52
   7  -4 -10   14.45    5.41
  -7  -4  10   12.78    5.53
   7  -4  -9    1.63    3.69
   7  -4  -9    5.05    4.78
  -7  -4   9    4.83    4.83
   7  -4  -8    4.76    3.42
   7  -4  -8    7.12    4.28
  -7  -4   8   -4.59    4.86
   7  -4  -7    7.63    3.66
   7  -4  -7   11.02    5.50
  -7  -4   7   14.56    6.12
  -7  -4   7   12.33    3.95
   7  -4  -6    7.48    3.21
   7  -4  -6   12.78    5.92
  -7  -4   6   10.00    5.03
   7  -4  -5    7.70    3.38
   7  -4  -5    6.11    3.57
  -7  -4   5    6.20    4.97
   7  -4  -4   76.97    9.00
  -7  -4   4   72.61    9.12
   7  -4  -4   71.54    6.88
   7  -4  -3  138.64   11.62
  -7  -4   3  135.41   12.21
   7  -4  -3  146.34    8.92
   7  -4  -2   53.75    7.76
  -7  -4   2   63.06    9.00
   7  -4  -2   60.63    6.07
   7  -4  -1   58.85    8.49
  -7  -4   1   34.30    6.86
   7  -4  -1   48.75    4.78
   7  -4  -1   50.75    5.72
   7  -4   0   45.60    6.14
   7  -4   0   38.00    6.75
  -7  -4   0   40.61    7.18
   7  -4   0   42.39    4.66
   7  -4   0   37.92    5.24
   7  -4   1   30.13    4.39
   7  -4   1   28.35    5.10
   7  -4   1   27.32    5.87
  -7  -4  -1   31.33    6.92
   7  -4   1   21.92    4.08
   7  -4   2   16.97    3.82
   7  -4   2   26.21    5.12
   7  -4   2   20.39    5.49
   7  -4   2   22.26    4.32
  -7  -4  -3   -3.54    4.45
   7  -4   3    6.58    3.25
   7  -4   3   -2.65    4.79
   7  -4   3    1.38    3.37
  -7  -4  -4   -2.89    5.31
   7  -4   4   -6.34    4.54
   7  -4   4    9.72    4.32
   7  -4   5    2.48    4.56
   7  -4   5    7.60    3.98
   7  -4   6    2.70    4.63
   7  -3 -13    0.66    4.42
   7  -3 -13   15.22    7.06
   7  -3 -12   38.80    6.88
  -7  -3  12   42.03    9.44
   7  -3 -12   40.28    7.88
   7  -3 -11    2.19    3.26
  -7  -3  11   -0.64    4.99
   7  -3 -11   -1.78    4.19
   7  -3 -10    0.94    3.45
  -7  -3  10    1.38    4.68
   7  -3 -10    5.29    4.96
   7  -3  -9   15.35    4.29
  -7  -3   9   14.33    5.78
   7  -3  -9   17.77    5.80
  -7  -3   8   49.37    7.72
   7  -3  -8   60.61    8.43
   7  -3  -8   48.98    6.31
   7  -3  -7   26.98    4.80
  -7  -3   7   21.24    6.11
   7  -3  -7   23.46    5.78
   7  -3  -6   15.88    3.61
   7  -3  -6   14.94    5.33
  -7  -3   6   16.31    5.45
   7  -3  -5    4.50    3.34
   7  -3  -5   10.12    4.58
  -7  -3   5    6.04    5.17
   7  -3  -4   59.33    7.98
  -7  -3   4   50.30    7.91
   7  -3  -4   66.03    6.32
   7  -3  -3  181.87   12.64
  -7  -3   3  169.29   12.57
   7  -3  -3  188.63    9.41
   7  -3  -2   65.89    7.92
   7  -3  -2   83.21    7.94
  -7  -3   2   79.62    9.05
   7  -3  -2   78.77    4.83
   7  -3  -2   72.47    6.20
  -7  -3   2   70.98    6.32
  -7  -3   1   10.69    3.30
   7  -3  -1    4.92    3.25
   7  -3  -1   10.87    4.34
   7  -3  -1   12.75    4.71
  -7  -3   1    9.56    4.49
   7  -3  -1   11.49    2.75
   7  -3   0   16.52    4.37
   7  -3   0    6.23    3.60
  -7  -3   0   16.86    5.41
   7  -3   0   14.33    3.13
   7  -3   1   79.50    8.90
   7  -3   1   92.08    8.50
  -7  -3  -1   76.43    9.24
   7  -3   1   90.68    6.38
   7  -3   2   25.25    5.02
   7  -3   2   24.97    5.68
   7  -3   2   32.22    4.68
   7  -3   3    7.59    3.50
   7  -3   3    0.48    4.13
   7  -3   3    3.28    2.85
   7  -3   4   29.42    5.91
   7  -3   4   28.82    6.39
   7  -3   4   27.72    5.04
   7  -3   5   33.85    6.37
   7  -3   5   26.85    6.01
   7  -3   5   28.24    5.61
   7  -3   6   -1.69    4.26
   7  -3   6    4.91    3.96
   7  -3   7   12.42    6.16
  -7  -2  13   28.18    7.36
   7  -2 -13    4.94    5.88
   7  -2 -12   -3.46    3.52
  -7  -2  12    1.35    5.11
   7  -2 -12   -4.09    5.48
   7  -2 -11    0.84    2.80
  -7  -2  11   11.04    5.78
   7  -2 -11    0.88    4.19
   7  -2 -10   21.43    4.28
  -7  -2  10   19.23    5.84
   7  -2 -10   26.20    6.45
  -7  -2   9   44.95    6.86
  -7  -2   9   50.04    7.64
   7  -2  -9   39.62    6.62
   7  -2  -9   44.16    5.84
   7  -2  -8    6.01    3.37
  -7  -2   8   11.35    4.05
  -7  -2   8   12.95    4.89
   7  -2  -8   13.00    5.04
   7  -2  -7    2.08    2.64
  -7  -2   7    5.29    2.99
  -7  -2   7    6.37    4.37
   7  -2  -7    1.52    3.19
   7  -2  -6    4.71    2.73
  -7  -2   6    7.10    3.90
  -7  -2   6    7.36    4.09
   7  -2  -6    7.48    4.08
   7  -2  -5   57.20    7.53
  -7  -2   5   57.66    7.51
   7  -2  -5   59.98    5.50
  -7  -2   5   55.63    6.56
   7  -2  -4  216.84   13.30
  -7  -2   4  226.22   13.53
   7  -2  -4  231.79    9.95
  -7  -2   4  233.46   12.14
   7  -2  -3  110.01    9.73
   7  -2  -3  106.65    8.89
  -7  -2   3  100.63    9.19
  -7  -2   3   96.93    8.12
   7  -2  -2   56.34    7.33
   7  -2  -2   73.48    7.57
  -7  -2   2   52.11    7.30
  -7  -2   2   59.81    6.60
   7  -2  -1  213.91   13.00
   7  -2  -1  222.80   12.37
  -7  -2   1  219.53   13.08
  -7  -2   1  230.30   11.71
   7  -2   0  120.55   10.01
   7  -2   0  134.78   10.04
  -7  -2   0  123.47   10.40
  -7  -2   0  126.90    8.96
   7  -2   1   51.37    7.33
   7  -2   1   59.17    7.49
  -7  -2  -1   54.47    6.24
   7  -2   2   16.39    5.42
   7  -2   2   14.80    5.15
   7  -2   3    4.99    4.18
   7  -2   3    3.25    4.10
   7  -2   4   26.56    5.54
   7  -2   4   26.51    5.78
   7  -2   5   -3.91    3.23
   7  -2   5   12.05    4.61
   7  -2   6    5.41    4.57
   7  -2   6   13.20    4.56
  -7  -1  13   22.10    5.61
  -7  -1  13    9.66    5.16
   7  -1 -13    6.49    4.58
   7  -1 -12   22.54    5.02
  -7  -1  12   12.90    4.86
  -7  -1  12   21.25    5.83
   7  -1 -12    8.60    5.32
   7  -1 -11    7.61    3.44
  -7  -1  11    8.95    4.74
  -7  -1  11   18.85    6.12
   7  -1 -11    3.64    4.76
   7  -1 -10    6.56    3.30
  -7  -1  10    6.38    3.88
  -7  -1  10    2.81    3.93
   7  -1 -10    2.50    4.10
  -7  -1   9   44.67    7.03
  -7  -1   9   43.47    6.71
   7  -1  -9   40.24    7.00
   7  -1  -9   37.38    4.95
   7  -1  -8    2.12    2.53
  -7  -1   8    6.70    3.92
  -7  -1   8    5.50    4.11
   7  -1  -8    0.93    4.09
  -7  -1   7  118.73   10.18
   7  -1  -7  109.69    9.67
  -7  -1   7  103.72    9.23
   7  -1  -7  110.74    7.27
  -7  -1   6  298.42   15.19
   7  -1  -6  260.89   14.30
  -7  -1   6  291.94   14.40
   7  -1  -6  272.30   10.88
   7  -1  -5  218.73   12.80
  -7  -1   5  211.51   12.27
  -7  -1   5  203.60   12.54
  -7  -1   4   42.85    6.34
   7  -1  -4   56.99    6.61
  -7  -1   4   36.87    5.96
   7  -1  -4   37.48    6.14
  -7  -1   3   36.12    5.92
   7  -1  -3   37.25    5.57
  -7  -1   3   29.96    5.43
   7  -1  -3   33.02    6.09
   7  -1  -2  107.49    8.89
   7  -1  -2  113.76    9.47
  -7  -1   2  110.68    8.73
  -7  -1   2  115.87    9.48
   7  -1  -1   85.65    8.29
   7  -1  -1   84.77    8.39
  -7  -1   1   84.25    7.93
  -7  -1   1  102.34    8.74
   7  -1   0  112.86    9.52
   7  -1   0  103.38    9.18
  -7  -1   0  115.70    9.38
  -7  -1  -1   33.96    5.57
   7  -1   1   39.88    6.57
   7  -1   1   23.30    5.80
   7  -1   2   97.11    8.91
   7  -1   2   91.91    9.27
  -7  -1  -2   98.20    8.65
   7  -1   3   23.92    5.29
   7  -1   3   36.11    6.08
   7  -1   4    4.34    4.42
   7  -1   4   -0.58    3.79
   7  -1   5   -0.44    3.69
   7  -1   5   -6.91    4.18
   7  -1   6   -5.03    4.25
   7  -1   7   -6.42    5.36
   7  -1   8    0.31    3.74
  -7   0  13    9.47    5.08
   7   0 -13    3.16    4.54
   7   0 -13    7.05    5.06
  -7   0  12   -3.78    4.53
   7   0 -12    0.97    3.95
   7   0 -12    3.33    4.74
   7   0 -11    1.16    2.93
  -7   0  11    5.97    3.68
   7   0 -11    9.70    4.69
  -7   0  11   15.41    5.14
   7   0 -11    4.07    4.23
   7   0 -10    6.15    3.29
  -7   0  10    4.84    3.66
   7   0 -10    7.81    3.91
  -7   0  10    1.77    3.88
   7   0 -10   10.44    4.88
  -7   0   9   41.58    6.96
  -7   0   9   33.41    5.87
   7   0  -9   33.66    6.45
   7   0  -9   31.87    6.04
   7   0  -9   38.47    4.76
  -7   0   8  107.17   10.47
   7   0  -8  115.21   10.13
  -7   0   8  121.48    9.41
   7   0  -8  116.45    7.40
  -7   0   7  530.41   21.29
   7   0  -7  516.85   19.58
  -7   0   7  519.33   18.02
   7   0  -7  529.97   14.31
  -7   0   6    1.21    4.12
  -7   0   6    0.73    3.31
   7   0  -6    1.64    4.23
  -7   0   5  184.08   12.58
   7   0  -5  208.72   11.43
   7   0  -5  178.93   11.35
  -7   0   5  169.66   10.27
   7   0  -4  153.86   10.10
   7   0  -4  147.77   10.24
  -7   0   4  145.90    9.49
  -7   0   4  139.01   11.01
  -7   0   3   23.29    5.43
   7   0  -3   26.51    5.16
  -7   0   3   32.64    4.77
   7   0  -3   20.06    4.74
  -7   0   2    0.14    3.39
   7   0  -2    0.49    3.01
  -7   0   2   -2.53    2.54
   7   0  -2    0.60    3.45
  -7   0   1   13.44    4.28
   7   0  -1   11.99    4.77
  -7   0   1   14.72    3.86
   7   0  -1   10.75    4.08
  -7   0   0   12.15    4.56
   7   0   0    9.92    4.14
   7   0   0   12.68    4.11
  -7   0  -1    2.20    3.78
   7   0   1    2.29    4.30
   7   0   1    5.47    3.68
  -7   0  -2   24.26    5.44
   7   0   2   28.23    6.09
   7   0   2   32.38    5.61
  -7   0  -3   13.41    5.12
   7   0   3   10.89    4.49
   7   0   3    6.24    3.48
   7   0   4    3.10    4.02
   7   0   4   -9.30    4.14
   7   0   5   -1.09    4.28
   7   0   6    9.72    4.78
   7   0   7   25.74    6.31
  -7   1  13    7.32    4.25
   7   1 -13    7.95    4.75
  -7   1  12   29.39    7.27
   7   1 -12   12.50    5.14
   7   1 -12   20.19    6.02
  -7   1  11    0.74    4.29
   7   1 -11    8.98    3.91
   7   1 -11    7.55    5.10
   7   1 -10    3.73    2.72
  -7   1  10    4.29    4.30
   7   1 -10    4.16    4.41
   7   1 -10   10.32    4.95
  -7   1   9   36.69    7.09
   7   1  -9   41.53    6.25
   7   1  -9   38.58    6.34
   7   1  -9   40.07    4.69
   7   1  -8    2.55    2.28
  -7   1   8    3.59    4.80
   7   1  -8    1.82    3.61
  -7   1   8    1.21    2.53
   7   1  -8    0.73    3.90
  -7   1   7  106.58   10.52
   7   1  -7   99.54    9.01
  -7   1   7   99.71    7.66
   7   1  -7  115.97    9.18
  -7   1   6  274.69   16.23
   7   1  -6  284.54   14.23
  -7   1   6  285.91   12.18
  -7   1   5  203.91   13.79
   7   1  -5  207.86   11.59
   7   1  -5  206.78   11.79
  -7   1   5  198.62   10.00
  -7   1   4   41.04    7.24
   7   1  -4   45.31    5.91
   7   1  -4   41.99    5.97
  -7   1   4   46.04    5.00
  -7   1   3   34.86    6.41
   7   1  -3   28.81    5.26
  -7   1   3   31.55    4.16
   7   1  -3   34.95    5.59
   7   1  -2  106.53    8.92
   7   1  -2  100.53    8.37
  -7   1   2  114.75    7.33
  -7   1   2  100.14    9.81
   7   1  -1   91.48    8.73
   7   1  -1  100.87    8.49
  -7   1   1   89.28    9.45
   7   1   0  116.86    9.97
   7   1   0  101.70    8.73
  -7   1   0  112.79   10.61
  -7   1  -1   24.91    6.56
   7   1   1   30.23    6.27
   7   1   1   30.27    5.61
   7   1   2   98.92    8.59
   7   1   2   82.07    9.02
  -7   1  -2   87.82    9.62
  -7   1  -3   33.70    6.25
   7   1   3   27.69    6.34
   7   1   4    7.56    4.74
   7   1   5   -2.06    4.10
   7   1   6    1.32    4.65
   7   1   7   12.01    5.33
   7   2 -13    7.69    5.21
  -7   2  12    3.20    4.89
   7   2 -12   -1.34    4.90
  -7   2  11   -4.79    4.82
   7   2 -11    0.67    3.76
   7   2 -10   21.68    3.98
  -7   2  10   27.94    6.99
   7   2 -10   21.14    5.48
  -7   2   9   55.00    8.82
   7   2  -9   43.89    6.37
   7   2  -9   38.81    6.21
   7   2  -9   46.45    4.54
  -7   2   8   11.17    5.03
   7   2  -8   11.43    4.39
   7   2  -8    7.82    4.31
  -7   2   7    3.02    4.11
   7   2  -7    5.29    4.18
   7   2  -7   -1.41    3.86
  -7   2   6    6.51    4.67
   7   2  -6    7.12    3.50
   7   2  -6    7.26    3.33
   7   2  -6    2.84    3.69
  -7   2   5   43.21    8.05
   7   2  -5   49.18    6.24
   7   2  -5   55.55    6.53
   7   2  -5   62.63    6.59
   7   2  -4  227.88   12.47
   7   2  -4  220.00   11.84
  -7   2   4  228.05   15.26
   7   2  -3   98.96    8.91
   7   2  -3   93.66    7.93
   7   2  -3   93.43    6.01
  -7   2   3   95.46   10.40
   7   2  -2   71.46    7.89
   7   2  -2   62.07    6.70
   7   2  -2   64.23    5.55
  -7   2   2   63.45    8.62
   7   2  -1  246.09   13.85
   7   2  -1  224.21   11.93
  -7   2   1  227.82   15.15
   7   2   0  133.25   10.73
   7   2   0  130.63    9.31
  -7   2   0  127.05   11.71
  -7   2  -1   47.50    7.63
   7   2   1   60.60    7.95
   7   2   1   52.65    6.21
  -7   2  -2    5.91    4.69
   7   2   2   13.24    4.96
  -7   2  -3    5.08    4.74
   7   2   3   -0.29    4.73
  -7   2  -4   33.91    7.14
   7   2   4   31.59    7.23
   7   2   5   -5.80    4.69
   7   2   6    0.60    4.64
  -7   3  12   30.07    8.15
   7   3 -12   30.07    6.15
  -7   3  11    8.19    5.11
   7   3 -11   -0.10    3.72
  -7   3  10    3.46    4.13
   7   3 -10   -3.99    4.14
  -7   3   9    8.83    5.33
   7   3  -9   15.13    5.06
  -7   3   9   12.72    3.85
  -7   3   8   37.94    7.58
   7   3  -8   48.72    6.75
  -7   3   7   27.66    6.29
   7   3  -7   21.18    4.98
   7   3  -7   27.72    5.27
  -7   3   6   10.54    5.45
   7   3  -6   15.50    4.21
   7   3  -6   17.60    4.22
   7   3  -6   20.50    4.98
  -7   3   5   12.35    5.60
   7   3  -5    1.78    3.93
   7   3  -5   11.43    3.63
   7   3  -5    8.81    3.52
  -7   3   4   47.60    8.20
   7   3  -4   60.08    6.95
   7   3  -4   58.74    6.52
   7   3  -4   56.14    5.08
   7   3  -4   48.08    6.12
   7   3  -3  194.46   11.94
   7   3  -3  185.03   10.76
   7   3  -3  186.68    9.46
  -7   3   3  163.94   13.13
   7   3  -2   78.55    8.18
   7   3  -2   69.25    6.82
   7   3  -2   83.32    7.19
  -7   3   2   74.98    9.30
  -7   3   1    7.87    5.09
   7   3  -1   14.75    4.88
   7   3  -1    9.32    3.69
   7   3  -1    7.36    3.53
  -7   3   0   20.70    6.66
   7   3   0   13.20    5.08
   7   3   0   23.96    4.72
   7   3   1   91.04    9.37
  -7   3  -1   84.21    9.78
  -7   3  -2   26.75    6.91
   7   3   2   28.69    6.25
  -7   3  -3    3.79    5.05
   7   3   3    0.68    3.60
  -7   3  -4   27.45    6.93
   7   3   4   22.16    6.13
   7   3   5   20.79    6.91
  -7   3  -6   -0.18    4.12
   7   3   6   -0.86    4.18
  -7   3  -7    7.78    3.77
  -7   4  11   32.83    7.76
   7   4 -11   34.89    6.46
  -7   4  10    0.75    5.18
   7   4 -10   13.02    5.17
  -7   4  10    1.76    4.00
  -7   4   9    2.42    4.54
   7   4  -9    4.80    4.52
  -7   4   8   -1.31    4.91
   7   4  -8    8.49    4.13
  -7   4   7   13.13    6.19
   7   4  -7    8.57    3.71
  -7   4   6    7.88    5.03
   7   4  -6   14.53    4.57
   7   4  -6    6.31    3.04
  -7   4   5    0.73    5.24
   7   4  -5    8.78    3.59
   7   4  -5   12.05    3.48
   7   4  -5    9.26    2.80
   7   4  -5    5.63    3.55
   7   4  -4   78.58    7.77
   7   4  -4   72.47    7.22
   7   4  -4   74.65    6.60
   7   4  -4   72.13    7.30
  -7   4   4   74.81   10.45
   7   4  -3  137.85   10.32
   7   4  -3  137.53    9.39
   7   4  -3  146.40    9.43
   7   4  -3  125.67    9.05
  -7   4   3  140.85   13.02
  -7   4   2   51.66    9.29
   7   4  -2   61.33    7.46
   7   4  -2   66.78    6.47
   7   4  -2   75.80    7.34
  -7   4   1   40.73    9.07
   7   4  -1   60.44    7.77
   7   4  -1   50.36    5.93
   7   4  -1   47.04    6.51
  -7   4   0   43.88    8.77
   7   4   0   45.77    7.25
  -7   4  -1   23.68    6.47
   7   4   1   31.70    6.57
  -7   4  -2   11.50    6.59
   7   4   2   17.48    5.63
  -7   4  -3   -0.97    4.29
   7   4   3   -1.52    3.12
  -7   4  -4    2.28    4.58
   7   4   4    7.80    4.75
   7   4   5   -4.75    4.98
  -7   4  -5    7.82    5.18
  -7   4  -6   -8.36    4.25
  -7   5  11    7.25    4.39
  -7   5  10    7.97    6.90
   7   5 -10    7.86    5.26
  -7   5  10   21.42    5.46
  -7   5   9   11.01    6.82
   7   5  -9    9.72    3.88
  -7   5   8    8.71    6.99
   7   5  -8   15.67    4.49
  -7   5   7    5.41    5.75
   7   5  -7   12.77    4.58
  -7   5   6   16.72    7.24
   7   5  -6   19.64    5.04
   7   5  -6   21.16    4.16
   7   5  -6   28.71    4.45
  -7   5   5   18.71    7.35
   7   5  -5   15.62    4.37
   7   5  -5   19.39    4.16
   7   5  -5   17.30    4.17
   7   5  -5   20.70    4.36
  -7   5   4   24.60    7.59
   7   5  -4   19.18    4.65
   7   5  -4   20.67    4.40
   7   5  -4   19.93    4.11
   7   5  -4   16.50    4.03
  -7   5   3    2.91    5.30
   7   5  -3    0.72    3.07
   7   5  -3    8.45    3.50
   7   5  -3    7.17    3.33
   7   5  -3   -0.23    2.86
  -7   5   2   17.10    7.07
   7   5  -2   20.92    5.02
   7   5  -2   22.30    5.14
   7   5  -2   18.71    4.30
  -7   5   1   42.00    9.20
   7   5  -1   31.43    5.72
   7   5  -1   57.03    7.80
  -7   5   0   20.32    7.29
   7   5   0   20.72    5.48
   7   5   0   19.12    5.05
  -7   5  -1    1.12    5.60
   7   5   1    5.66    3.22
  -7   5  -2    2.72    4.70
   7   5   2   -0.55    3.14
  -7   5  -3    1.08    5.26
   7   5   3   -0.07    2.92
  -7   5  -4    5.80    5.62
   7   5   4   17.70    5.46
  -7   6  10   31.89    7.15
  -7   6   9    9.38    7.24
   7   6  -9   -4.38    3.36
  -7   6   8   16.34    7.45
   7   6  -8   10.40    4.47
  -7   6   7   12.54    7.49
   7   6  -7   18.82    5.23
  -7   6   6    3.14    6.41
   7   6  -6    6.08    3.77
   7   6  -6    2.62    2.38
  -7   6   5    7.31    6.58
   7   6  -5    7.57    3.55
   7   6  -5   16.51    4.38
  -7   6   4   11.98    6.23
   7   6  -4   12.07    4.12
   7   6  -4    5.05    3.00
   7   6  -4    9.80    3.53
   7   6  -4   12.95    3.74
  -7   6   3   -0.30    5.30
   7   6  -3    2.01    3.09
   7   6  -3    8.54    2.68
   7   6  -3    0.24    3.47
  -7   6   2   13.28    6.94
   7   6  -2   17.81    4.15
   7   6  -2   15.64    4.47
   7   6  -2   27.44    5.96
  -7   6   1    4.59    7.23
   7   6  -1    1.28    3.03
   7   6  -1    9.96    3.90
  -7   6   0    7.66    7.19
   7   6   0    9.43    4.54
   7   6   0    6.80    4.06
  -7   6  -1    1.01    6.08
   7   6   1    7.07    3.97
   7   6   1   10.24    4.85
  -7   6  -2  -11.39    6.02
   7   6   2   -9.52    4.34
  -7   6  -3   -2.18    5.45
   7   6   3   14.13    4.60
  -7   7   7    2.30    6.41
   7   7  -7   -1.93    3.63
  -7   7   6   44.85   11.15
   7   7  -6   47.08    6.91
   7   7  -6   41.05    6.05
  -7   7   5   -1.13    6.81
   7   7  -5    2.58    3.62
   7   7  -5   13.97    5.02
  -7   7   4   12.88    6.34
   7   7  -4   10.83    4.39
   7   7  -4   13.32    5.11
  -7   7   3   -1.97    7.92
   7   7  -3    3.92    3.05
   7   7  -3    9.22    4.09
  -7   7   2    2.62    7.13
   7   7  -2    8.06    3.46
   7   7  -2    2.25    3.89
  -7   7   1    9.10    8.22
   7   7  -1    1.49    2.96
   7   7  -1    2.41    4.16
  -7   7   0    8.58    8.63
   7   7   0   -2.11    3.12
   7   7   0    0.22    3.95
   7   7   1   -1.50    2.54
   7   7   1   -4.97    4.88
   7   7   2    7.34    3.21
   7   7   2    0.89    4.18
   7   8  -6   15.57    5.40
   7   8  -6    4.95    3.75
   7   8  -5   15.92    4.68
   7   8  -5   16.91    5.38
  -7   8   4   17.12    8.91
   7   8  -4   20.80    4.98
   7   8  -4   15.36    4.89
  -7   8   3   -4.55    7.72
   7   8  -3   -9.54    4.34
  -7   8   2    3.39    7.96
   7   8  -2   11.84    4.94
  -7   8   1   43.98   10.83
   7   8  -1   20.74    6.75
   7   8   0    5.78    2.59
   7   8   0    0.54    4.80
   7   8   1    5.91    3.03
   8  -7  -4    1.85    4.55
   8  -7  -3    9.06    5.77
   8  -7  -2    0.18    5.16
   8  -7  -1  -12.83    5.84
   8  -6  -9    2.12    6.36
   8  -6  -8    4.69    5.60
   8  -6  -7   -2.89    5.27
  -8  -6   7    6.44    6.53
   8  -6  -6    5.04    4.08
   8  -6  -6   -1.44    5.87
  -8  -6   6    5.04    6.25
   8  -6  -5   35.30    6.75
   8  -6  -5   25.09    6.98
  -8  -6   5   43.26    9.96
   8  -6  -4   40.75    8.31
  -8  -6   4   39.70    9.41
   8  -6  -4   49.64    7.21
   8  -6  -3   26.93    6.03
   8  -6  -3   27.01    7.51
  -8  -6   3   26.26    7.68
   8  -6  -2    7.48    4.65
   8  -6  -2    6.25    4.71
  -8  -6   2    3.75    5.23
   8  -6  -1    5.57    4.70
   8  -6  -1    2.23    5.11
  -8  -6   1   -4.54    5.56
   8  -6   0    1.16    3.76
   8  -6   0    2.34    5.24
  -8  -6   0    3.53    5.40
   8  -6   3   -1.20    4.81
   8  -5 -10   -3.02    6.37
   8  -5  -9   16.74    7.69
  -8  -5   9   -2.74    5.42
   8  -5  -8   -6.97    4.47
   8  -5  -8  -12.20    6.15
   8  -5  -7   18.17    4.93
   8  -5  -7    8.34    5.04
  -8  -5   7   23.33    7.11
   8  -5  -6   20.32    5.79
   8  -5  -6   26.59    7.32
  -8  -5   6   13.98    6.20
   8  -5  -5   14.29    4.60
   8  -5  -5    1.75    5.12
  -8  -5   5   13.59    6.77
   8  -5  -4   10.07    4.66
   8  -5  -4    3.12    4.15
  -8  -5   4   10.96    5.38
   8  -5  -3    7.37    4.32
   8  -5  -3   18.24    6.05
  -8  -5   3   11.18    5.90
   8  -5  -2   22.78    4.92
   8  -5  -2   26.34    6.88
  -8  -5   2   29.64    7.67
   8  -5  -1   22.59    5.14
   8  -5  -1   22.34    5.82
  -8  -5   1   14.09    5.65
   8  -5   0    0.10    3.70
   8  -5   0    8.65    4.25
  -8  -5   0    5.92    5.03
   8  -5   1    6.58    3.92
   8  -5   1    4.09    4.88
  -8  -5  -1   13.99    6.45
   8  -5   2    0.38    4.58
   8  -5   2    5.46    4.04
   8  -5   3   -1.15    4.64
   8  -4 -11    5.88    5.88
   8  -4 -10   32.31    6.48
   8  -4 -10   23.64    7.12
  -8  -4  10   26.61    8.45
   8  -4  -9   13.88    4.49
   8  -4  -9    5.34    5.83
  -8  -4   9    8.72    5.45
   8  -4  -8   11.55    4.24
   8  -4  -8   11.58    5.39
  -8  -4   8   17.89    6.13
   8  -4  -7   30.19    5.81
   8  -4  -7   23.26    7.00
  -8  -4   7   22.44    6.66
   8  -4  -6   33.08    6.11
   8  -4  -6   19.62    5.93
  -8  -4   6   25.86    7.25
   8  -4  -5   13.56    4.26
   8  -4  -5   14.40    5.95
  -8  -4   5    9.65    5.04
   8  -4  -4    4.98    3.98
   8  -4  -4    7.93    4.87
  -8  -4   4    6.45    4.56
   8  -4  -3    0.21    3.21
   8  -4  -3    3.05    4.75
  -8  -4   3    3.89    4.97
   8  -4  -2    1.86    3.40
   8  -4  -2    5.73    4.51
  -8  -4   2    4.74    4.47
   8  -4  -1    1.16    3.62
   8  -4  -1   -0.42    4.20
  -8  -4   1   -5.87    4.78
   8  -4   0   14.95    3.89
   8  -4   0   20.12    4.66
   8  -4   0   14.65    5.76
  -8  -4   0   19.43    5.86
   8  -4   0   13.94    3.72
   8  -4   1   12.75    3.80
   8  -4   1    9.87    3.98
   8  -4   1    8.34    4.55
   8  -4   1   11.49    3.56
   8  -4   2   13.39    4.33
   8  -4   2   15.87    5.03
   8  -4   2   24.35    6.52
   8  -4   2   15.85    4.13
   8  -4   3    8.33    4.91
   8  -4   3    6.27    4.28
   8  -4   4    6.79    4.59
   8  -4   4   11.42    4.18
   8  -3 -12   -7.49    4.34
  -8  -3  12    3.32    5.98
   8  -3 -11   34.69    6.32
  -8  -3  11   50.92    9.64
   8  -3 -11   50.24    9.14
   8  -3 -10    1.49    3.54
  -8  -3  10   -3.41    5.51
   8  -3 -10    2.54    4.62
   8  -3  -9    9.43    4.51
  -8  -3   9    8.82    6.07
   8  -3  -9    8.97    5.21
   8  -3  -8   -7.71    3.88
  -8  -3   8   -4.19    4.94
   8  -3  -8    0.03    4.08
   8  -3  -7    5.31    3.31
   8  -3  -7    7.85    4.85
  -8  -3   7    7.27    4.91
   8  -3  -6    2.01    2.53
   8  -3  -6    2.34    4.65
  -8  -3   6    3.04    4.58
   8  -3  -5   11.45    3.92
   8  -3  -5   13.29    5.21
  -8  -3   5   13.69    5.50
   8  -3  -4   50.00    7.92
  -8  -3   4   37.92    7.36
   8  -3  -4   53.39    6.01
   8  -3  -3   92.84    9.91
  -8  -3   3   81.07    9.58
   8  -3  -3   81.39    7.24
   8  -3  -2   91.31    9.88
   8  -3  -2  100.41    9.09
  -8  -3   2   89.65    9.91
   8  -3  -2   93.61    7.23
   8  -3  -1   42.52    6.92
   8  -3  -1   36.06    7.10
  -8  -3   1   28.45    6.43
   8  -3  -1   31.36    3.98
   8  -3  -1   38.44    5.13
   8  -3   0    5.04    3.35
   8  -3   0    3.41    4.48
  -8  -3   0    4.40    4.10
   8  -3   0    3.18    2.75
   8  -3   1    1.24    3.69
   8  -3   1   -1.87    4.32
   8  -3   1    0.86    2.64
   8  -3   2   -0.74    3.09
   8  -3   2    4.21    4.80
   8  -3   2    4.37    2.99
   8  -3   3    5.08    4.54
   8  -3   3   -4.61    4.37
   8  -3   3    9.70    3.78
   8  -3   4    8.59    4.44
   8  -3   4   -4.82    3.90
   8  -3   4    3.50    3.88
   8  -3   5   32.39    6.98
   8  -2 -12   12.40    4.80
  -8  -2  12    6.50    5.17
   8  -2 -12   11.26    5.65
   8  -2 -11   12.08    4.39
  -8  -2  11   22.56    7.57
   8  -2 -11   21.46    6.27
   8  -2 -10   38.94    5.93
  -8  -2  10   40.40    8.00
   8  -2 -10   50.22    8.69
   8  -2  -9   16.46    4.49
  -8  -2   9   11.89    4.77
   8  -2  -9    5.47    4.56
   8  -2  -8   14.10    4.10
  -8  -2   8    6.26    4.11
   8  -2  -8   15.60    5.53
   8  -2  -7   21.07    4.48
  -8  -2   7   22.04    5.79
   8  -2  -7   13.15    4.97
   8  -2  -6   15.27    3.87
  -8  -2   6   13.40    5.35
   8  -2  -6   22.43    6.33
  -8  -2   5   23.65    5.78
   8  -2  -5   26.07    4.56
  -8  -2   5   23.40    6.06
   8  -2  -5   28.38    6.81
   8  -2  -4   78.51    9.43
  -8  -2   4   67.89    8.35
   8  -2  -4   64.61    6.65
  -8  -2   4   78.23    8.32
   8  -2  -3   67.52    8.45
   8  -2  -3   87.42    8.46
  -8  -2   3   73.86    8.65
  -8  -2   3   67.84    7.61
  -8  -2   2   32.96    6.01
   8  -2  -2   40.01    6.46
   8  -2  -2   36.96    6.90
  -8  -2   2   31.78    6.32
   8  -2  -1   98.19   10.01
   8  -2  -1   90.82    8.87
  -8  -2   1   86.60    9.36
  -8  -2   1   82.80    8.08
  -8  -2   0   32.97    5.56
   8  -2   0   24.60    6.16
   8  -2   0   20.25    5.41
   8  -2   1   10.51    4.45
   8  -2   1   11.42    5.15
  -8  -2  -1   14.83    4.72
   8  -2   2   27.41    6.25
   8  -2   2   28.26    5.95
   8  -2   3   17.86    5.55
   8  -2   3   32.86    7.24
   8  -2   4    2.76    3.75
   8  -2   4   11.54    4.89
   8  -2   5   16.29    5.18
   8  -2   6   17.06    5.46
   8  -1 -12    8.04    3.80
   8  -1 -12    7.31    4.69
   8  -1 -11   12.08    4.41
  -8  -1  11   12.31    6.11
  -8  -1  11    9.64    5.58
   8  -1 -11   11.43    5.34
   8  -1 -10   10.64    3.90
  -8  -1  10    8.93    4.85
  -8  -1  10   14.21    5.24
   8  -1 -10    4.39    4.37
   8  -1  -9    6.33    3.25
  -8  -1   9    7.03    4.73
  -8  -1   9    9.71    4.33
   8  -1  -9   13.12    5.01
   8  -1  -8    9.59    3.47
  -8  -1   8    5.08    4.06
  -8  -1   8    6.13    3.98
   8  -1  -8   12.76    4.62
   8  -1  -7    9.78    3.60
  -8  -1   7    4.06    4.06
  -8  -1   7    9.45    4.74
   8  -1  -7    3.30    4.59
   8  -1  -6   64.78    8.24
  -8  -1   6   84.39    8.93
   8  -1  -6   76.09    6.34
  -8  -1   6   77.00    9.08
   8  -1  -5  167.36   12.49
  -8  -1   5  166.49   11.75
  -8  -1   5  178.60   12.77
  -8  -1   4   42.06    7.08
   8  -1  -4   42.33    6.31
  -8  -1   4   36.78    6.35
   8  -1  -4   30.35    6.47
  -8  -1   3   26.84    6.17
   8  -1  -3   32.69    6.09
  -8  -1   3   27.81    5.46
   8  -1  -3   28.99    6.20
  -8  -1   2   11.36    4.10
   8  -1  -2    7.42    3.96
   8  -1  -2    6.12    3.85
  -8  -1   2    8.14    4.39
  -8  -1   1   -2.10    4.37
   8  -1  -1   -4.27    3.70
  -8  -1   1    1.51    3.28
   8  -1  -1  -11.76    4.83
  -8  -1   0   28.19    6.21
   8  -1   0   31.18    6.37
   8  -1   0   33.21    6.50
   8  -1   1   55.63    7.69
   8  -1   1   45.98    7.30
  -8  -1  -1   46.50    6.77
   8  -1   2    5.66    4.51
   8  -1   2    3.84    4.07
  -8  -1  -2    3.77    4.55
   8  -1   3   23.58    5.73
   8  -1   3   27.77    6.15
   8  -1   4   19.58    5.57
   8  -1   4   16.06    5.40
   8  -1   5  -12.17    5.27
   8  -1   6    4.39    3.91
  -8   0  13   31.71    8.44
  -8   0  12   -2.45    5.01
   8   0 -12   -0.54    6.07
   8   0 -11   -2.80    3.02
  -8   0  11   -2.60    4.67
   8   0 -11   -7.26    4.97
   8   0 -10   11.24    3.63
  -8   0  10    8.68    4.43
   8   0 -10    5.04    4.83
   8   0  -9   10.32    3.50
  -8   0   9    6.80    4.38
   8   0  -9    8.27    4.53
   8   0  -8    0.59    2.82
  -8   0   8   -5.23    4.28
  -8   0   8    5.34    3.81
   8   0  -8    1.05    3.89
  -8   0   7   44.82    7.66
   8   0  -7   51.09    7.21
  -8   0   7   56.83    7.18
  -8   0   6  112.97   11.18
   8   0  -6  116.22   10.07
  -8   0   6  121.82    9.64
  -8   0   5   49.36    8.13
   8   0  -5   67.88    7.75
   8   0  -5   63.91    8.20
  -8   0   5   50.30    6.76
   8   0  -4   70.53    7.76
   8   0  -4   58.67    7.55
  -8   0   4   64.97    6.80
  -8   0   4   68.48    8.80
  -8   0   3   16.62    5.50
   8   0  -3   17.89    4.57
  -8   0   3    8.38    3.30
   8   0  -3   16.26    5.11
  -8   0   2    0.91    3.74
   8   0  -2   -0.95    3.60
  -8   0   2   -0.16    2.83
   8   0  -2    2.41    2.77
  -8   0   1    3.61    3.57
   8   0  -1    1.55    4.14
   8   0  -1    0.37    3.41
  -8   0   0   -2.21    3.96
   8   0   0    1.93    3.97
   8   0   0    0.22    3.29
  -8   0  -1    1.68    4.25
   8   0   1    2.03    4.70
   8   0   1   -2.11    4.24
  -8   0  -2   33.58    6.48
   8   0   2   39.31    7.19
   8   0   2   36.50    6.56
   8   0   3    3.59    4.56
   8   0   4   17.97    6.57
   8   0   5    6.27    4.50
  -8   1  12    6.24    4.85
   8   1 -12    9.54    5.64
  -8   1  11   15.54    5.67
   8   1 -11   17.12    5.62
   8   1 -11   11.97    5.04
   8   1 -10    6.00    3.11
  -8   1  10    6.34    4.97
   8   1 -10    9.38    4.86
   8   1 -10    8.05    4.39
   8   1  -9   10.79    3.41
  -8   1   9    2.23    4.90
   8   1  -9    3.80    3.82
   8   1  -9    7.20    4.44
  -8   1   8    2.12    4.48
   8   1  -8   11.65    4.27
  -8   1   7    2.01    4.92
   8   1  -7    2.16    4.01
  -8   1   6   83.49   10.58
   8   1  -6   79.31    8.54
   8   1  -5  173.02   11.77
   8   1  -5  163.63   11.52
  -8   1   5  174.97   14.04
  -8   1   4   37.15    7.44
   8   1  -4   39.29    6.43
   8   1  -4   36.49    6.28
  -8   1   3   29.79    7.30
   8   1  -3   33.69    6.48
  -8   1   3   31.54    4.51
   8   1  -3   32.60    5.81
  -8   1   2   10.58    5.44
   8   1  -2    5.72    3.53
   8   1  -2    7.49    3.99
  -8   1   1   -2.88    4.39
   8   1  -1    3.73    4.21
  -8   1   0   19.48    5.78
   8   1   0   34.40    6.52
   8   1   0   33.70    5.98
  -8   1  -1   43.18    7.45
   8   1   1   35.86    6.65
   8   1   1   49.25    7.02
  -8   1  -2    8.19    5.66
   8   1   2   -1.23    4.47
  -8   1  -3   15.65    5.95
   8   1   3   17.53    5.49
   8   1   4   14.09    6.36
   8   1   5    0.49    3.88
  -8   2  12    6.90    5.77
  -8   2  11    6.82    6.66
   8   2 -11   23.65    6.30
   8   2 -11   21.08    7.08
  -8   2  10   36.66    8.25
   8   2 -10   40.80    6.53
   8   2 -10   29.88    6.79
   8   2 -10   42.54    5.26
   8   2  -9    2.29    2.24
  -8   2   9    6.88    5.72
   8   2  -9    4.28    4.05
   8   2  -9    5.38    3.73
  -8   2   8    8.92    5.63
   8   2  -8    7.84    4.56
   8   2  -8    6.33    4.03
  -8   2   7   11.58    5.57
   8   2  -7   21.72    5.17
   8   2  -7   14.94    4.46
  -8   2   6   15.28    5.66
   8   2  -6   19.84    4.62
   8   2  -6   22.62    5.26
  -8   2   5   25.11    6.92
   8   2  -5   21.57    5.33
   8   2  -5   24.66    5.37
   8   2  -4   77.78    8.25
   8   2  -4   73.06    7.90
  -8   2   4   83.39   10.88
   8   2  -3   68.21    8.20
   8   2  -3   66.11    7.54
  -8   2   3   71.63   10.11
  -8   2   2   34.71    7.92
   8   2  -2   50.83    7.80
   8   2  -2   38.29    6.17
   8   2  -1  101.56   10.04
   8   2  -1   95.18    9.12
  -8   2   1   87.05   11.20
  -8   2   0   33.86    7.61
   8   2   0   28.88    5.94
   8   2   0   26.61    5.59
  -8   2  -1    9.23    5.86
   8   2   1    6.58    4.71
  -8   2  -2   22.96    6.11
   8   2   2   29.08    6.79
  -8   2  -3   30.03    7.12
   8   2   3   18.68    5.89
   8   2   4    8.06    5.55
  -8   2  -4    9.97    5.12
  -8   3  11   21.29    7.48
   8   3 -11   37.44    7.33
  -8   3  10    7.87    5.69
   8   3 -10    3.28    4.56
   8   3 -10    3.63    3.24
  -8   3   9    9.52    6.44
   8   3  -9    9.92    5.27
   8   3  -9   19.28    5.28
  -8   3   8   -5.60    6.18
   8   3  -8    0.92    3.30
   8   3  -8   -3.98    3.51
  -8   3   7   12.47    6.14
   8   3  -7    7.31    3.61
   8   3  -7   13.07    4.47
  -8   3   6    3.34    4.62
   8   3  -6    1.99    3.73
   8   3  -6    3.13    2.74
   8   3  -6    4.81    3.48
  -8   3   5    4.92    4.91
   8   3  -5    7.25    3.33
   8   3  -5    5.20    3.14
   8   3  -4   45.25    6.96
   8   3  -4   43.82    6.50
  -8   3   4   62.96    9.45
  -8   3   3   77.88   11.10
   8   3  -3   85.46    8.91
   8   3  -3   75.96    7.92
   8   3  -2   92.09    9.36
   8   3  -2   90.52    8.54
  -8   3   2   82.42   11.07
  -8   3   1   41.58    8.66
   8   3  -1   35.52    6.33
   8   3  -1   37.08    5.94
  -8   3   0   -2.60    4.86
   8   3   0   12.45    5.38
  -8   3  -1   -8.07    5.01
   8   3   1    5.77    4.50
  -8   3  -2    5.88    5.22
   8   3   2    2.62    3.23
  -8   3  -3    2.25    5.05
   8   3   3   -3.86    4.65
  -8   3  -4    2.26    4.74
   8   3   4    3.30    4.98
  -8   4  10   43.78    9.58
   8   4 -10   22.34    6.84
  -8   4   9   12.28    6.99
   8   4  -9   12.66    5.37
   8   4  -9   27.17    5.88
  -8   4   8    8.77    5.93
   8   4  -8   11.23    4.22
   8   4  -8   16.15    4.84
  -8   4   7   32.32    8.25
   8   4  -7   26.15    5.88
   8   4  -7   23.80    5.62
  -8   4   6   32.33    8.06
   8   4  -6   18.03    5.00
   8   4  -6   31.50    5.31
   8   4  -6   27.21    5.65
  -8   4   5    7.44    6.10
   8   4  -5   12.93    4.18
   8   4  -5   20.38    4.66
   8   4  -5   17.54    4.26
  -8   4   4   -0.56    3.83
   8   4  -4    7.70    3.76
   8   4  -4    2.49    3.29
  -8   4   3    1.05    4.38
   8   4  -3    6.77    4.01
   8   4  -3    3.03    3.03
  -8   4   2    4.68    5.55
   8   4  -2    5.23    3.57
  -8   4   1   -1.18    5.85
   8   4  -1    3.61    3.03
  -8   4   0    8.27    5.68
   8   4   0   21.54    5.73
   8   4   0    8.44    3.96
  -8   4  -1   15.33    5.81
   8   4   1   10.50    4.58
  -8   4  -2   10.21    5.69
   8   4   2   22.32    6.08
  -8   4  -3    8.10    5.43
   8   4   3    1.24    3.61
  -8   5  10   -7.25    5.32
   8   5  -9    3.09    3.90
  -8   5   8    6.57    6.81
   8   5  -8    3.47    4.02
  -8   5   7   22.38    7.16
   8   5  -7   18.88    5.18
   8   5  -7   19.20    5.06
  -8   5   6   26.09    8.17
   8   5  -6   14.54    4.95
   8   5  -6   22.96    5.13
   8   5  -6   12.42    4.40
  -8   5   5   14.99    7.15
   8   5  -5    3.84    3.96
   8   5  -5    7.12    3.52
   8   5  -5    7.92    3.63
  -8   5   4    4.57    6.70
   8   5  -4   11.95    4.35
   8   5  -4   -1.39    2.94
   8   5  -4    6.53    3.57
  -8   5   3    5.02    7.53
   8   5  -3   14.45    4.56
  -8   5   2   22.28    8.70
   8   5  -2   23.96    5.52
  -8   5   1   12.89    8.30
   8   5  -1   21.87    5.57
   8   5  -1   28.12    5.98
  -8   5   0    5.21    7.94
   8   5   0    3.17    3.21
   8   5   0    8.80    4.65
  -8   5  -1   -1.59    7.64
   8   5   1   14.35    5.16
   8   5   1   -3.42    3.61
  -8   5  -2    4.23    6.99
   8   5   2    9.85    4.35
  -8   6   7   10.14    8.50
   8   6  -7    3.63    4.02
   8   6  -7    3.33    3.20
  -8   6   6    4.29    7.99
   8   6  -6   -4.52    4.60
   8   6  -6    4.89    3.54
  -8   6   5   24.28    9.31
   8   6  -5   36.54    6.49
  -8   6   4   51.20   10.74
   8   6  -4   55.85    7.48
   8   6  -4   45.62    7.24
  -8   6   3   27.62    9.82
   8   6  -3   21.99    5.30
   8   6  -3   26.25    5.15
  -8   6   2    9.39    7.29
   8   6  -2   16.20    4.45
   8   6  -2   13.19    4.51
  -8   6   1    2.19    6.82
   8   6  -1   10.55    3.85
   8   6  -1   13.95    4.98
  -8   6   0    7.36    7.46
   8   6   0    0.71    2.95
   8   6   0    6.57    3.56
   8   6   1    9.75    3.88
   8   6   1   -3.73    3.93
   8   6   2  -11.12    5.79
   8   7  -6   23.17    5.67
   8   7  -5   30.14    6.09
   8   7  -4  -13.40    4.48
   8   7  -2   -0.51    1.35
   8   7  -2   -3.48    4.01
   8   7  -1   11.93    4.09
   8   7  -1   -2.59    3.97
   8   7   0   -5.01    3.15
   8   7   0    8.28    5.03
   8   7   1   16.56    5.76
   9  -6  -1    1.82    4.67
  -9  -5   7   10.47    6.09
   9  -5  -6   -1.46    4.87
  -9  -5   6   -1.94    4.37
   9  -5  -5    5.35    5.01
   9  -5  -5  -10.37    5.62
  -9  -5   5   -8.93    5.46
   9  -5  -4    8.79    5.42
   9  -5  -4   10.79    6.14
  -9  -5   4   25.25    7.54
   9  -5  -3   26.89    6.30
   9  -5  -3   19.78    7.10
  -9  -5   3   30.56    8.08
   9  -5  -2   11.79    5.38
  -9  -5   2   -1.03    5.66
   9  -5  -1   11.42    4.74
   9  -5   0   11.36    4.89
  -9  -4   9    9.48    6.29
   9  -4  -8    9.13    6.99
  -9  -4   8   19.67    6.96
   9  -4  -7    2.75    3.64
   9  -4  -7   -5.40    4.80
   9  -4  -6   -0.47    4.01
   9  -4  -6    3.59    5.17
  -9  -4   6    5.22    6.02
   9  -4  -5   11.90    4.85
   9  -4  -5   13.58    5.57
  -9  -4   5    2.23    4.52
   9  -4  -4    4.65    4.47
   9  -4  -4    9.94    5.22
  -9  -4   4    9.39    6.06
   9  -4  -3    4.55    4.41
   9  -4  -3    5.26    4.70
  -9  -4   3   -2.50    4.56
   9  -4  -2    4.54    3.77
   9  -4  -2    7.20    5.69
  -9  -4   2   -5.69    4.67
   9  -4  -1   30.32    5.80
   9  -4  -1   19.87    6.36
  -9  -4   1   16.04    5.37
   9  -4   0   16.76    5.06
   9  -4   0   10.86    4.16
   9  -4   0   15.27    5.99
  -9  -4   0   14.13    6.64
   9  -4   1   16.26    4.92
   9  -4   1   21.71    5.49
   9  -4   1   21.60    6.35
   9  -4   2    6.55    4.43
  -9  -3  11   -5.01    5.78
  -9  -3  10   -7.29    5.48
   9  -3  -9   12.96    4.81
  -9  -3   9    3.94    5.26
   9  -3  -9    9.18    6.14
   9  -3  -8   48.38    9.22
  -9  -3   8   50.75    8.81
   9  -3  -8   49.43    6.61
   9  -3  -7    1.85    3.60
   9  -3  -7   16.08    5.89
  -9  -3   7   24.19    7.44
   9  -3  -6    1.92    3.23
   9  -3  -6    3.46    5.33
  -9  -3   6    1.93    4.22
   9  -3  -5    3.37    3.38
   9  -3  -5    4.56    3.74
  -9  -3   5    1.23    4.78
   9  -3  -4    3.12    3.88
   9  -3  -4    6.50    5.54
  -9  -3   4   -1.80    4.82
   9  -3  -3    6.28    4.14
   9  -3  -3    4.55    5.27
  -9  -3   3    5.42    4.76
   9  -3  -2   25.11    5.06
   9  -3  -2   25.91    6.13
   9  -3  -2   27.53    7.13
  -9  -3   2   21.39    6.15
   9  -3  -1   12.96    4.46
   9  -3  -1   30.23    6.16
   9  -3  -1   19.57    5.54
  -9  -3   1   27.44    6.89
   9  -3   0    2.84    3.50
   9  -3   0   -0.38    4.40
   9  -3   1    4.76    4.51
   9  -3   1    0.28    4.07
   9  -3   1    7.78    3.43
   9  -3   2    6.75    4.33
   9  -3   2    0.67    4.30
   9  -3   2    9.85    4.18
   9  -3   3   -0.35    3.68
   9  -3   3   -2.05    4.75
   9  -3   3   10.71    4.40
   9  -2 -11   -4.64    4.92
  -9  -2  11    0.22    5.52
   9  -2 -10   11.21    4.71
  -9  -2  10    6.66    4.55
   9  -2  -9   31.73    5.93
  -9  -2   9   39.06    7.84
   9  -2  -9   36.48    7.87
   9  -2  -8    9.73    3.62
  -9  -2   8    9.61    5.31
   9  -2  -8    7.42    5.78
   9  -2  -7    9.09    3.88
  -9  -2   7   10.36    5.46
   9  -2  -7    9.11    5.11
   9  -2  -6   39.06    5.61
  -9  -2   6   35.93    6.99
   9  -2  -6   27.93    6.61
   9  -2  -5    2.82    3.89
   9  -2  -5   -4.86    4.76
  -9  -2   5   -9.76    5.00
   9  -2  -4   17.28    4.60
   9  -2  -4    9.07    5.30
  -9  -2   4   19.91    6.01
   9  -2  -3   62.87    7.91
   9  -2  -3   58.88    8.59
  -9  -2   3   53.98    8.07
   9  -2  -2   13.04    5.27
   9  -2  -2    3.20    4.89
  -9  -2   2    9.55    4.85
   9  -2  -1   18.56    5.53
  -9  -2   1   10.28    5.27
   9  -2  -1   15.55    5.42
   9  -2   0    4.22    4.18
   9  -2   0   -1.46    4.67
   9  -2   1   -4.69    4.32
   9  -2   1   21.90    6.09
   9  -2   2    3.12    3.51
   9  -2   2   -8.13    5.02
   9  -2   3   24.32    6.23
   9  -2   3   15.87    5.78
   9  -2   4   -2.38    4.18
   9  -1 -12   40.00    6.41
   9  -1 -11    1.92    3.63
   9  -1 -10   -8.62    4.21
   9  -1 -10   10.58    6.46
   9  -1  -9    0.38    2.81
   9  -1  -9    6.38    5.24
   9  -1  -8   19.24    4.29
   9  -1  -8   16.52    6.04
  -9  -1   7   16.70    6.14
   9  -1  -7   17.55    4.37
  -9  -1   7   14.08    4.90
   9  -1  -7   19.38    6.34
  -9  -1   6   10.74    6.24
   9  -1  -6    7.54    3.12
  -9  -1   6    7.00    4.24
   9  -1  -6    3.54    4.31
  -9  -1   5    4.64    5.40
  -9  -1   5    7.70    4.83
   9  -1  -5   10.11    4.60
  -9  -1   4   20.49    6.56
   9  -1  -4   33.02    5.95
  -9  -1   4   17.54    5.29
   9  -1  -4   22.28    6.06
  -9  -1   3   20.34    6.61
   9  -1  -3   21.77    5.23
   9  -1  -3   17.03    5.49
  -9  -1   3   15.22    4.87
  -9  -1   2    1.09    4.24
   9  -1  -2    3.87    4.19
   9  -1  -2    5.84    4.33
  -9  -1   2    5.56    4.24
  -9  -1   1    8.42    4.66
   9  -1  -1    7.29    4.23
   9  -1  -1    7.30    4.60
  -9  -1   0    1.85    4.59
   9  -1   0    3.32    3.94
   9  -1   0    1.16    3.82
  -9  -1  -1    3.22    4.15
   9  -1   1    3.30    3.94
   9  -1   1    8.13    5.27
   9  -1   2    9.05    4.98
   9  -1   2    0.38    4.39
   9  -1   3    1.24    4.04
   9   0 -11   18.82    4.69
  -9   0  11    1.18    5.68
   9   0 -10   -0.83    2.93
  -9   0  10   -8.55    5.84
   9   0 -10   -0.45    5.71
   9   0  -9    0.93    3.13
  -9   0   9    0.56    4.04
   9   0  -9   -0.65    3.73
  -9   0   8    1.84    5.12
   9   0  -8    1.64    3.00
   9   0  -8   -6.58    5.03
  -9   0   7    6.25    5.53
   9   0  -7    8.36    4.22
  -9   0   6    1.12    4.22
   9   0  -6   -4.05    4.21
  -9   0   5    6.20    5.37
   9   0  -5    9.62    4.66
   9   0  -5    5.33    4.52
  -9   0   4    2.37    4.36
   9   0  -4    9.60    4.42
   9   0  -4    0.95    3.79
  -9   0   3    1.12    4.33
   9   0  -3   -1.08    3.30
  -9   0   3    0.35    2.97
   9   0  -3   -0.41    4.32
  -9   0   2   -0.79    4.50
   9   0  -2    0.61    3.59
   9   0  -2   -2.78    3.96
  -9   0   1   -7.15    4.84
   9   0  -1   -5.52    4.33
   9   0  -1   -9.85    4.81
  -9   0   0   18.98    6.29
   9   0   0   20.76    6.06
   9   0   0   27.84    6.52
  -9   0  -1    8.33    5.03
   9   0   1    7.74    4.37
   9   0   1   -5.83    4.11
  -9   0  -2   10.03    5.34
   9   0   2    1.52    5.37
   9   0   3   12.46    5.73
   9   1 -11    4.04    3.58
  -9   1  11    6.02    5.04
   9   1 -10    3.13    2.81
  -9   1  10   -3.75    6.03
   9   1 -10    0.49    5.26
   9   1  -9    4.28    2.95
  -9   1   9    7.24    5.62
   9   1  -9   16.88    5.07
  -9   1   8   26.38    7.35
   9   1  -8    8.00    4.62
  -9   1   7   11.11    6.34
   9   1  -7   17.80    4.89
  -9   1   6   17.17    6.76
   9   1  -6   17.27    5.00
  -9   1   5    2.23    5.63
   9   1  -5   -0.43    4.49
   9   1  -5   13.18    5.05
  -9   1   4   24.51    7.42
   9   1  -4   22.68    5.19
   9   1  -4   20.74    5.31
  -9   1   3   23.04    6.64
   9   1  -3   13.69    5.04
   9   1  -3   19.41    5.80
  -9   1   2    1.67    5.23
   9   1  -2    1.90    2.62
   9   1  -2    9.36    4.84
  -9   1   1   11.80    5.70
   9   1  -1    9.57    4.81
   9   1  -1    9.69    4.80
  -9   1   0    2.27    4.78
   9   1   0   -0.52    4.47
   9   1   0    6.52    4.19
  -9   1  -1   -6.58    4.68
   9   1   1    3.86    4.92
  -9   1  -2    8.95    5.28
   9   1   2   10.48    5.27
  -9   1  -3    5.57    5.69
   9   2 -10   25.25    4.81
  -9   2  10    9.49    6.24
  -9   2   9   37.41    9.15
   9   2  -9   29.69    6.78
  -9   2   8    2.96    4.79
   9   2  -8    7.77    4.94
  -9   2   7   17.44    6.42
   9   2  -7   11.52    4.71
  -9   2   6   34.77    8.75
   9   2  -6   41.82    6.60
   9   2  -6   31.23    6.22
  -9   2   5   -5.69    5.80
   9   2  -5    0.35    3.47
   9   2  -5    1.09    3.62
  -9   2   4   23.04    7.43
   9   2  -4   10.56    4.69
   9   2  -4   13.03    5.19
  -9   2   3   54.34    9.97
   9   2  -3   50.01    7.61
   9   2  -3   46.33    7.21
  -9   2   2   11.41    6.86
   9   2  -2    5.83    3.79
   9   2  -2   11.92    5.02
  -9   2   1    5.30    6.01
   9   2  -1   15.69    5.69
   9   2  -1   11.75    4.32
  -9   2   0  -11.50    5.93
   9   2   0    4.83    4.16
  -9   2  -1    3.34    5.85
   9   2   1   10.20    5.16
  -9   2  -2    1.20    5.52
   9   2   2    4.90    5.33
  -9   3   9   14.98    7.45
   9   3  -9    6.98    4.90
   9   3  -9    4.21    4.53
  -9   3   8   28.47    7.88
   9   3  -8   45.50    7.58
   9   3  -8   39.36    6.51
  -9   3   7    5.54    5.05
   9   3  -7    4.79    3.88
  -9   3   6   15.82    7.29
   9   3  -6    6.24    3.97
  -9   3   5    3.61    6.33
   9   3  -5    4.10    3.76
   9   3  -5    2.60    3.76
  -9   3   4   -2.31    7.01
   9   3  -4    5.49    3.40
   9   3  -4    3.08    3.81
  -9   3   3    0.44    5.84
   9   3  -3    0.25    4.41
   9   3  -3    3.34    3.62
  -9   3   2   26.41    7.93
   9   3  -2   23.06    6.11
   9   3  -2   36.06    6.52
  -9   3   1   17.44    7.23
   9   3  -1   27.89    5.93
  -9   3   0   -7.68    5.44
   9   3   0   13.62    4.89
  -9   3  -1    0.78    4.82
   9   3   1    5.13    4.53
  -9   4   8    1.59    5.61
   9   4  -8    1.36    2.81
   9   4  -8    7.37    4.53
  -9   4   7    1.50    6.16
   9   4  -7    4.18    3.59
   9   4  -7    3.56    2.75
   9   4  -7    5.38    4.24
  -9   4   6    5.03    6.41
   9   4  -6    7.82    3.94
   9   4  -6    4.37    4.26
  -9   4   5   10.84    6.64
   9   4  -5   12.55    4.52
   9   4  -5   15.21    4.54
  -9   4   4   12.66    7.00
   9   4  -4   14.94    4.48
   9   4  -4    3.37    3.58
  -9   4   3   -8.10    6.46
   9   4  -3    2.34    2.91
  -9   4   2    6.24    6.42
   9   4  -2    7.24    4.39
  -9   4   1   25.10    7.94
   9   4  -1   25.78    6.11
  -9   4   0   23.92    7.83
   9   4   0   15.19    5.03
   9   5  -8    5.81    4.10
   9   5  -7    5.16    3.40
   9   5  -7   -4.65    2.91
   9   5  -6    4.10    3.11
   9   5  -6   -2.50    2.69
   9   5  -6   -0.17    3.26
  -9   5   5    3.44    6.56
   9   5  -5    3.90    2.57
   9   5  -5    1.73    3.30
  -9   5   4   16.40    8.79
   9   5  -4   22.38    5.09
  -9   5   3   19.37    7.47
   9   5  -3   38.28    7.07
  -9   5   2    2.69    7.28
   9   5  -2   15.42    4.60
   9   5  -1   -5.18    3.03
   9   6  -7   -2.28    3.72
   9   6  -5    1.14    3.91
   9   6  -4   27.26    5.61
   9   6  -3   30.46    5.93
   9   6  -2    6.05    3.03
 -10  -4   6   -1.88    5.80
 -10  -4   5   10.59    5.80
 -10  -4   4   -8.83    5.28
 -10  -3   9   20.69    7.47
 -10  -3   8   10.51    7.12
 -10  -3   7   11.66    6.04
 -10  -3   5  -16.84    6.04
 -10  -3   4    1.75    4.84
 -10  -3   3    0.31    4.60
 -10  -3   2    5.95    5.20
  10  -3  -1   15.49    5.26
 -10  -2   7  -19.75    6.75
  10  -2  -6    2.51    3.44
  10  -2  -6   11.85    5.14
 -10  -2   6    5.84    4.49
  10  -2  -5   -0.45    4.12
 -10  -2   5    8.99    5.23
  10  -2  -4    1.07    4.11
  10  -2  -4   10.70    5.09
 -10  -2   4    0.21    4.17
  10  -2  -3    4.39    3.64
  10  -2  -3    0.32    5.95
 -10  -2   3    7.11    5.42
  10  -2  -2   33.99    6.74
 -10  -2   2   24.67    6.38
  10  -2  -2   30.24    7.75
  10  -2  -1    5.72    4.16
  10  -2  -1   14.73    6.35
  10  -2   0   -6.67    5.30
  10  -1  -8    6.83    4.00
  10  -1  -7    6.41    4.05
  10  -1  -7    6.04    4.17
  10  -1  -6   -3.32    3.22
  10  -1  -6   13.86    5.25
  10  -1  -5   -2.16    3.61
  10  -1  -4    3.73    3.77
  10  -1  -4  -13.29    5.25
  10  -1  -3   12.79    4.46
  10  -1  -3    8.39    4.13
  10  -1  -2    9.47    4.54
  10  -1  -2    4.30    5.73
 -10  -1   1   11.57    5.96
  10  -1  -1    3.44    3.74
  10  -1  -1   15.29    6.15
 -10  -1   0    6.20    5.02
  10  -1   0   -5.61    4.47
  10  -1   1    6.03    5.43
 -10  -1  -1    8.51    5.46
  10   0  -9    1.12    3.58
 -10   0   8   11.58    5.59
  10   0  -8   10.15    4.18
  10   0  -8    2.92    4.00
 -10   0   7    7.74    5.77
  10   0  -7    2.01    3.15
 -10   0   6    6.52    5.05
  10   0  -6   -6.81    4.30
 -10   0   5   -3.01    4.94
  10   0  -5    5.66    3.76
 -10   0   4   14.74    6.16
  10   0  -4    1.02    3.60
  10   0  -4   13.43    5.89
 -10   0   3  -17.16    6.59
  10   0  -3   -8.93    5.04
 -10   0   2   -8.05    5.61
  10   0  -2    0.92    3.93
  10   0  -2    5.49    4.63
 -10   0   1    0.01    4.94
  10   0  -1  -12.15    5.10
  10   0  -1    1.92    4.85
 -10   0   0   -4.80    5.74
  10   0   0   -3.33    4.47
 -10   0  -1    0.42    4.45
 -10   1  10   -2.17    4.87
 -10   1   9   27.80    9.49
  10   1  -9   23.23    5.30
 -10   1   8   14.77    6.66
  10   1  -8    2.54    3.92
 -10   1   7   10.83    6.61
  10   1  -7    3.86    4.99
 -10   1   6   -2.80    5.85
  10   1  -6    3.12    4.39
 -10   1   5    3.34    6.06
  10   1  -5    9.45    5.19
  10   1  -5    3.02    4.12
 -10   1   4    3.76    4.86
  10   1  -4    8.49    4.76
 -10   1   3   22.33    6.41
  10   1  -3   14.77    5.65
  10   1  -3   21.60    6.47
 -10   1   2   12.33    5.86
  10   1  -2   15.32    5.52
  10   1  -2    6.57    4.77
 -10   1   1    7.75    6.63
  10   1  -1    3.49    4.24
  10   1  -1    7.62    4.47
 -10   1   0   -2.68    6.75
  10   2 -10    2.75    3.47
 -10   2   9   11.23    6.54
 -10   2   8    3.93    6.51
 -10   2   7    3.44    6.88
  10   2  -7   -3.11    3.83
 -10   2   6    9.60    7.62
  10   2  -6    4.39    3.53
  10   2  -6    4.26    4.65
 -10   2   5    1.59    5.31
  10   2  -5    1.63    2.52
  10   2  -5    2.15    4.02
 -10   2   4    6.74    6.36
  10   2  -4    2.05    3.64
  10   2  -4   -4.86    4.38
 -10   2   3    4.95    5.78
  10   2  -3    4.83    3.77
  10   2  -3    7.78    4.36
 -10   2   2   22.85    8.02
  10   2  -2   32.40    7.06
 -10   2   1    6.77    5.96
  10   3  -7   11.24    4.52
 -10   3   6   -0.58    5.92
  10   3  -6    0.31    2.89
  10   3  -6   -4.23    4.79
 -10   3   5    1.11    5.71
  10   3  -5   -4.41    3.29
  10   3  -5   -2.31    3.64
 -10   3   4   -3.34    6.63
  10   3  -4   10.99    4.09
  10   3  -4   -7.91    4.84
 -10   3   3    6.41    5.65
  10   3  -3    1.26    3.10
  10   4  -7   13.98    4.24
  10   4  -7   13.03    4.90
  10   4  -6   -5.39    2.78
  10   4  -6    7.63    3.97
  10   4  -5   -2.05    3.55
  10   4  -5    3.93    4.48
 -11   0   2   22.60    7.87
 -11   1   7    4.94    7.13
 -11   1   6  -25.83    8.53
 -11   1   5   -0.53    5.65
 -11   1   4   24.55    8.85
  11   1  -3   -7.03    5.84
  11   2  -4    6.72    6.33
   0   0   0    0.00    0.00
;
_shelx_hkl_checksum              52836
_shelx_res_file
;
TITL cp9 in P2(1)
CELL 0.71073   8.2892   8.3401  11.0225  90.000 108.750  90.000
ZERR   2.00   0.0010   0.0007   0.0013   0.000   0.013   0.000
LATT -1
SYMM -X, 0.5+Y, -Z
SFAC C  H  O
UNIT 30 44 6
L.S. 10
ACTA 52
BOND $H
FMAP 2
PLAN 20
WGHT    0.040200    0.064600
FVAR       1.53705
MOLE 2
O1    3    0.343245    0.338662    0.351947    11.00000    0.03923    0.08667 =
         0.06548    0.01094    0.02139   -0.00377
H1O   2    0.308229    0.309050    0.409283    11.00000    0.07271
O2    3    0.764625    0.689624    0.464429    11.00000    0.06319    0.04651 =
         0.07430   -0.01018    0.03151   -0.00439
O3    3    0.568881    0.504542    0.457558    11.00000    0.05476    0.05822 =
         0.06359   -0.00754    0.03375   -0.00370
C1    1    0.527497    0.041909    0.224266    11.00000    0.06680    0.06483 =
         0.04756   -0.00672    0.01244   -0.02295
AFIX  23
H1A   2    0.479858    0.012946    0.290937    11.00000   -1.20000
H1B   2    0.438648    0.094302    0.156210    11.00000   -1.20000
AFIX   0
C2    1    0.582025   -0.109579    0.171761    11.00000    0.10854    0.06500 =
         0.06845   -0.02677    0.02108   -0.03500
AFIX  23
H2A   2    0.663917   -0.167477    0.240794    11.00000   -1.20000
H2B   2    0.483829   -0.178300    0.135739    11.00000   -1.20000
AFIX   0
C3    1    0.660994   -0.069058    0.069546    11.00000    0.11586    0.07289 =
         0.06007   -0.02807    0.02420   -0.01148
AFIX  23
H3A   2    0.576034   -0.016493   -0.001012    11.00000   -1.20000
H3B   2    0.693246   -0.167908    0.037060    11.00000   -1.20000
AFIX   0
C4    1    0.817592    0.039312    0.116246    11.00000    0.08153    0.06314 =
         0.05285   -0.01275    0.02516    0.00509
C5    1    0.766776    0.191282    0.178585    11.00000    0.05213    0.05063 =
         0.03891   -0.00257    0.01659   -0.00075
AFIX  13
H5    2    0.682243    0.246494    0.107794    11.00000   -1.20000
AFIX   0
C6    1    0.913393    0.311032    0.227095    11.00000    0.05847    0.06747 =
         0.06940   -0.01218    0.03836   -0.00918
AFIX  23
H6A   2    1.013351    0.254278    0.280127    11.00000   -1.20000
H6B   2    0.940132    0.354326    0.154132    11.00000   -1.20000
AFIX   0
C7    1    0.877158    0.446538    0.302430    11.00000    0.05396    0.04993 =
         0.05705   -0.00414    0.02744   -0.01238
AFIX  43
H7    2    0.955548    0.529665    0.328198    11.00000   -1.20000
AFIX   0
C8    1    0.736292    0.451089    0.333338    11.00000    0.04602    0.04224 =
         0.04182    0.00381    0.01867   -0.00167
C9    1    0.601494    0.324840    0.298115    11.00000    0.03714    0.04802 =
         0.03290    0.00514    0.00992   -0.00215
AFIX  13
H9    2    0.517773    0.355779    0.216213    11.00000   -1.20000
AFIX   0
C10   1    0.674361    0.160217    0.279335    11.00000    0.04501    0.04463 =
         0.03497   -0.00114    0.00881   -0.00665
C11   1    0.516767    0.342268    0.401418    11.00000    0.03968    0.05336 =
         0.04572    0.00565    0.01602   -0.00179
AFIX  13
H11   2    0.557729    0.259165    0.466999    11.00000   -1.20000
AFIX   0
C12   1    0.697093    0.562909    0.422028    11.00000    0.04686    0.04504 =
         0.05151    0.00422    0.02027    0.00415
C13   1    0.968406   -0.055591    0.204935    11.00000    0.10713    0.07492 =
         0.08699   -0.01649    0.03488    0.02703
AFIX 137
H13A  2    0.936809   -0.100543    0.274253    11.00000   -1.50000
H13B  2    1.064056    0.014764    0.238643    11.00000   -1.50000
H13C  2    0.998610   -0.140310    0.157338    11.00000   -1.50000
AFIX   0
C14   1    0.866408    0.092388   -0.001116    11.00000    0.12294    0.10413 =
         0.06981   -0.01623    0.05466    0.01157
AFIX 137
H14A  2    0.870495    0.000380   -0.052381    11.00000   -1.50000
H14B  2    0.976162    0.143137    0.026998    11.00000   -1.50000
H14C  2    0.783011    0.166748   -0.051156    11.00000   -1.50000
AFIX   0
C15   1    0.793324    0.098912    0.408180    11.00000    0.05836    0.04790 =
         0.04176    0.00131    0.01081    0.00326
AFIX 137
H15A  2    0.731874    0.092543    0.468475    11.00000   -1.50000
H15B  2    0.887555    0.171332    0.439901    11.00000   -1.50000
H15C  2    0.835033   -0.005526    0.396844    11.00000   -1.50000
AFIX   0
HKLF 4
REM  cp9 in P2(1)
REM R1 =  0.0429 for    2519 Fo > 4sig(Fo)  and  0.0705 for all    3411 data
REM    170 parameters refined using      1 restraints
END
WGHT      0.0402      0.0646
REM Highest difference peak  0.154,  deepest hole -0.157,  1-sigma level  0.031
Q1    1   0.7140  0.1607  0.2251  11.00000  0.05    0.15
Q2    1   0.5636  0.2870  0.4896  11.00000  0.05    0.15
Q3    1   0.5838 -0.2123 -0.0805  11.00000  0.05    0.12
Q4    1   1.0037  0.2912  0.1863  11.00000  0.05    0.12
Q5    1   0.5994  0.1142  0.2404  11.00000  0.05    0.12
Q6    1   0.7271  0.1353  0.3244  11.00000  0.05    0.11
Q7    1   0.8154  0.1223  0.1784  11.00000  0.05    0.11
Q8    1   0.6391  0.2287  0.2829  11.00000  0.05    0.11
Q9    1   0.5492  0.2475  0.0373  11.00000  0.05    0.10
Q10   1   0.6787 -0.1550  0.2981  11.00000  0.05    0.10
Q11   1   0.3116  0.0655 -0.1045  11.00000  0.05    0.10
Q12   1   0.5886  0.3480  0.3606  11.00000  0.05    0.10
Q13   1   0.5938  0.0764 -0.0204  11.00000  0.05    0.10
Q14   1   0.5671  0.3348  0.2670  11.00000  0.05    0.10
Q15   1   1.0861  0.2615  0.2923  11.00000  0.05    0.09
Q16   1   0.4395 -0.0261 -0.0974  11.00000  0.05    0.09
Q17   1   0.4370  0.0795 -0.1046  11.00000  0.05    0.09
Q18   1   0.5539  0.5530  0.5346  11.00000  0.05    0.09
Q19   1   0.7944  0.4553  0.0792  11.00000  0.05    0.09
Q20   1   0.7505  0.3606  0.5657  11.00000  0.05    0.09
;
_shelx_res_checksum              96727
_shelxl_version_number           2014/6
#END Tags that were not found in dictionaries
loop_
_space_group_symop_operation_xyz
'x, y, z'
'-x, y+1/2, -z'
loop_
_atom_site_type_symbol
_atom_site_label
_atom_site_fract_x
_atom_site_fract_y
_atom_site_fract_z
_atom_site_U_iso_or_equiv
_atom_site_adp_type
_atom_site_calc_flag
_atom_site_occupancy
O O1 0.3432(2) 0.3387(3) 0.3519(2) 0.0627(5) Uani d 1
H H1O 0.308(4) 0.309(4) 0.409(3) 0.073(10) Uiso d 1
O O2 0.7646(2) 0.6896(2) 0.46443(18) 0.0591(5) Uani d 1
O O3 0.5689(2) 0.5045(2) 0.45756(17) 0.0553(5) Uani d 1
C C1 0.5275(4) 0.0419(3) 0.2243(3) 0.0612(7) Uani d 1
H H1A 0.4799 0.0129 0.2909 0.073 Uiso calc 1
H H1B 0.4386 0.0943 0.1562 0.073 Uiso calc 1
C C2 0.5820(5) -0.1096(4) 0.1718(3) 0.0824(10) Uani d 1
H H2A 0.6639 -0.1675 0.2408 0.099 Uiso calc 1
H H2B 0.4838 -0.1783 0.1357 0.099 Uiso calc 1
C C3 0.6610(5) -0.0691(4) 0.0695(3) 0.0839(10) Uani d 1
H H3A 0.5760 -0.0165 -0.0010 0.101 Uiso calc 1
H H3B 0.6932 -0.1679 0.0371 0.101 Uiso calc 1
C C4 0.8176(4) 0.0393(3) 0.1162(3) 0.0650(8) Uani d 1
C C5 0.7668(3) 0.1913(3) 0.1786(2) 0.0468(6) Uani d 1
H H5 0.6822 0.2465 0.1078 0.056 Uiso calc 1
C C6 0.9134(3) 0.3110(3) 0.2271(3) 0.0609(7) Uani d 1
H H6A 1.0134 0.2543 0.2801 0.073 Uiso calc 1
H H6B 0.9401 0.3543 0.1541 0.073 Uiso calc 1
C C7 0.8772(3) 0.4465(3) 0.3024(2) 0.0514(6) Uani d 1
H H7 0.9555 0.5297 0.3282 0.062 Uiso calc 1
C C8 0.7363(3) 0.4511(3) 0.3333(2) 0.0423(5) Uani d 1
C C9 0.6015(3) 0.3248(3) 0.2981(2) 0.0397(5) Uani d 1
H H9 0.5178 0.3558 0.2162 0.048 Uiso calc 1
C C10 0.6744(3) 0.1602(3) 0.2793(2) 0.0425(5) Uani d 1
C C11 0.5168(3) 0.3423(3) 0.4014(2) 0.0457(6) Uani d 1
H H11 0.5577 0.2592 0.4670 0.055 Uiso calc 1
C C12 0.6971(3) 0.5629(3) 0.4220(2) 0.0467(6) Uani d 1
C C13 0.9684(5) -0.0556(4) 0.2049(3) 0.0888(11) Uani d 1
H H13A 0.9368 -0.1005 0.2743 0.133 Uiso calc 1
H H13B 1.0641 0.0148 0.2386 0.133 Uiso calc 1
H H13C 0.9986 -0.1403 0.1573 0.133 Uiso calc 1
C C14 0.8664(5) 0.0924(5) -0.0011(3) 0.0933(11) Uani d 1
H H14A 0.8705 0.0004 -0.0524 0.140 Uiso calc 1
H H14B 0.9762 0.1431 0.0270 0.140 Uiso calc 1
H H14C 0.7830 0.1667 -0.0512 0.140 Uiso calc 1
C C15 0.7933(3) 0.0989(3) 0.4082(2) 0.0506(6) Uani d 1
H H15A 0.7319 0.0925 0.4685 0.076 Uiso calc 1
H H15B 0.8876 0.1713 0.4399 0.076 Uiso calc 1
H H15C 0.8350 -0.0055 0.3968 0.076 Uiso calc 1
loop_
_atom_site_aniso_label
_atom_site_aniso_U_11
_atom_site_aniso_U_22
_atom_site_aniso_U_33
_atom_site_aniso_U_12
_atom_site_aniso_U_13
_atom_site_aniso_U_23
O1 0.0392(10) 0.0867(14) 0.0655(12) -0.0038(9) 0.0214(9) 0.0109(11)
O2 0.0632(12) 0.0465(10) 0.0743(12) -0.0044(9) 0.0315(10) -0.0102(10)
O3 0.0548(10) 0.0582(10) 0.0636(11) -0.0037(8) 0.0337(9) -0.0075(9)
C1 0.0668(17) 0.0648(18) 0.0476(13) -0.0229(14) 0.0124(12) -0.0067(13)
C2 0.109(3) 0.0650(19) 0.0684(19) -0.0350(18) 0.0211(19) -0.0268(16)
C3 0.116(3) 0.073(2) 0.0601(18) -0.011(2) 0.0242(19) -0.0281(16)
C4 0.082(2) 0.0631(18) 0.0529(15) 0.0051(15) 0.0252(15) -0.0128(14)
C5 0.0521(14) 0.0506(14) 0.0389(12) -0.0007(12) 0.0166(10) -0.0026(11)
C6 0.0585(16) 0.0675(17) 0.0694(17) -0.0092(14) 0.0384(14) -0.0122(15)
C7 0.0540(15) 0.0499(14) 0.0571(14) -0.0124(12) 0.0274(12) -0.0041(12)
C8 0.0460(13) 0.0422(12) 0.0418(12) -0.0017(11) 0.0187(10) 0.0038(10)
C9 0.0371(11) 0.0480(13) 0.0329(11) -0.0022(10) 0.0099(9) 0.0051(10)
C10 0.0450(13) 0.0446(13) 0.0350(11) -0.0066(10) 0.0088(10) -0.0011(10)
C11 0.0397(13) 0.0534(15) 0.0457(12) -0.0018(11) 0.0160(10) 0.0056(12)
C12 0.0469(14) 0.0450(14) 0.0515(13) 0.0041(11) 0.0203(11) 0.0042(12)
C13 0.107(3) 0.075(2) 0.087(2) 0.027(2) 0.035(2) -0.0165(19)
C14 0.123(3) 0.104(3) 0.070(2) 0.012(2) 0.055(2) -0.016(2)
C15 0.0584(15) 0.0479(14) 0.0418(13) 0.0033(11) 0.0108(11) 0.0013(11)
loop_
_atom_type_symbol
_atom_type_description
_atom_type_scat_dispersion_real
_atom_type_scat_dispersion_imag
_atom_type_scat_source
C C 0.0033 0.0016 'International Tables Vol C Tables 4.2.6.8 and 6.1.1.4'
H H 0.0000 0.0000 'International Tables Vol C Tables 4.2.6.8 and 6.1.1.4'
O O 0.0106 0.0060 'International Tables Vol C Tables 4.2.6.8 and 6.1.1.4'
loop_
_geom_angle_atom_site_label_1
_geom_angle_atom_site_label_2
_geom_angle_atom_site_label_3
_geom_angle
C11 O1 H1O 107(2)
C12 O3 C11 111.10(18)
C2 C1 C10 113.0(2)
C2 C1 H1A 109.0
C10 C1 H1A 109.0
C2 C1 H1B 109.0
C10 C1 H1B 109.0
H1A C1 H1B 107.8
C3 C2 C1 110.6(3)
C3 C2 H2A 109.5
C1 C2 H2A 109.5
C3 C2 H2B 109.5
C1 C2 H2B 109.5
H2A C2 H2B 108.1
C2 C3 C4 113.9(2)
C2 C3 H3A 108.8
C4 C3 H3A 108.8
C2 C3 H3B 108.8
C4 C3 H3B 108.8
H3A C3 H3B 107.7
C3 C4 C13 109.8(3)
C3 C4 C14 108.1(3)
C13 C4 C14 107.6(3)
C3 C4 C5 107.9(2)
C13 C4 C5 114.7(2)
C14 C4 C5 108.5(3)
C6 C5 C10 112.09(18)
C6 C5 C4 112.8(2)
C10 C5 C4 116.2(2)
C6 C5 H5 104.8
C10 C5 H5 104.8
C4 C5 H5 104.8
C7 C6 C5 114.2(2)
C7 C6 H6A 108.7
C5 C6 H6A 108.7
C7 C6 H6B 108.7
C5 C6 H6B 108.7
H6A C6 H6B 107.6
C8 C7 C6 121.4(2)
C8 C7 H7 119.3
C6 C7 H7 119.3
C7 C8 C12 126.7(2)
C7 C8 C9 124.3(2)
C12 C8 C9 108.38(19)
C8 C9 C11 102.97(18)
C8 C9 C10 111.75(17)
C11 C9 C10 118.68(18)
C8 C9 H9 107.6
C11 C9 H9 107.6
C10 C9 H9 107.6
C1 C10 C15 110.2(2)
C1 C10 C9 109.34(19)
C15 C10 C9 109.63(18)
C1 C10 C5 109.53(19)
C15 C10 C5 113.5(2)
C9 C10 C5 104.54(17)
O1 C11 O3 108.23(19)
O1 C11 C9 112.26(19)
O3 C11 C9 104.75(18)
O1 C11 H11 110.5
O3 C11 H11 110.5
C9 C11 H11 110.5
O2 C12 O3 121.0(2)
O2 C12 C8 129.6(2)
O3 C12 C8 109.4(2)
C4 C13 H13A 109.5
C4 C13 H13B 109.5
H13A C13 H13B 109.5
C4 C13 H13C 109.5
H13A C13 H13C 109.5
H13B C13 H13C 109.5
C4 C14 H14A 109.5
C4 C14 H14B 109.5
H14A C14 H14B 109.5
C4 C14 H14C 109.5
H14A C14 H14C 109.5
H14B C14 H14C 109.5
C10 C15 H15A 109.5
C10 C15 H15B 109.5
H15A C15 H15B 109.5
C10 C15 H15C 109.5
H15A C15 H15C 109.5
H15B C15 H15C 109.5
loop_
_geom_bond_atom_site_label_1
_geom_bond_atom_site_label_2
_geom_bond_distance
O1 C11 1.365(3)
O1 H1O 0.81(3)
O2 C12 1.217(3)
O3 C12 1.337(3)
O3 C11 1.493(3)
C1 C2 1.518(4)
C1 C10 1.533(3)
C1 H1A 0.9700
C1 H1B 0.9700
C2 C3 1.512(5)
C2 H2A 0.9700
C2 H2B 0.9700
C3 C4 1.529(4)
C3 H3A 0.9700
C3 H3B 0.9700
C4 C13 1.536(5)
C4 C14 1.539(4)
C4 C5 1.563(4)
C5 C6 1.531(3)
C5 C10 1.560(3)
C5 H5 0.9800
C6 C7 1.489(3)
C6 H6A 0.9700
C6 H6B 0.9700
C7 C8 1.318(3)
C7 H7 0.9300
C8 C12 1.461(3)
C8 C9 1.493(3)
C9 C11 1.525(3)
C9 C10 1.540(3)
C9 H9 0.9800
C10 C15 1.533(3)
C11 H11 0.9800
C13 H13A 0.9600
C13 H13B 0.9600
C13 H13C 0.9600
C14 H14A 0.9600
C14 H14B 0.9600
C14 H14C 0.9600
C15 H15A 0.9600
C15 H15B 0.9600
C15 H15C 0.9600
