#------------------------------------------------------------------------------
#$Date: 2016-02-20 00:18:51 +0200 (Sat, 20 Feb 2016) $
#$Revision: 176760 $
#$URL: svn://www.crystallography.net/cod/cif/2/01/95/2019590.cif $
#------------------------------------------------------------------------------
#
# This file is available in the Crystallography Open Database (COD),
# http://www.crystallography.net/. The original data for this entry
# were provided by IUCr Journals, http://journals.iucr.org/.
#
# The file may be used within the scientific community so long as
# proper attribution is given to the journal article from which the
# data were obtained.
#
data_2019590
loop_
_publ_author_name
'Cheng, Shao-Min'
'Wang, Xian-Fei'
'Yang, Fang'
'Chen, Hang'
'Liu, Wen-Long'
_publ_section_title
;
 Poly[(\m~5~-3-carboxybenzene-1,2-dicarboxylato)lead(II)]: a helical
 lead(II) coordination polymer
;
_journal_coeditor_code           YP3068
_journal_issue                   7
_journal_name_full               'Acta Crystallographica Section C'
_journal_page_first              693
_journal_page_last               696
_journal_paper_doi               10.1107/S2053229614013667
_journal_volume                  70
_journal_year                    2014
_chemical_formula_iupac          '[Pb (C9 H4 O6)]'
_chemical_formula_moiety         'C9 H4 O6 Pb'
_chemical_formula_sum            'C9 H4 O6 Pb'
_chemical_formula_weight         415.31
_chemical_name_systematic
;
Poly[(\m~5~-3-carboxybenzene-1,2-dicarboxylato)lead(II)]
;
_space_group_crystal_system      orthorhombic
_space_group_IT_number           19
_space_group_name_Hall           'P 2ac 2ab'
_space_group_name_H-M_alt        'P 21 21 21'
_symmetry_space_group_name_Hall  'P 2ac 2ab'
_symmetry_space_group_name_H-M   'P 21 21 21'
_atom_sites_solution_hydrogens   geom
_audit_creation_method           SHELXL2013
_cell_angle_alpha                90
_cell_angle_beta                 90
_cell_angle_gamma                90
_cell_formula_units_Z            4
_cell_length_a                   4.7900(8)
_cell_length_b                   7.7306(12)
_cell_length_c                   24.562(4)
_cell_measurement_reflns_used    2173
_cell_measurement_temperature    296(2)
_cell_measurement_theta_max      23.426
_cell_measurement_theta_min      2.762
_cell_volume                     909.5(3)
_computing_cell_refinement       'SAINT (Bruker, 2003)'
_computing_data_collection       'APEX2 (Bruker, 2005)'
_computing_data_reduction        'SAINT (Bruker, 2003)'
_computing_molecular_graphics
;
XP (Sheldrick, 2008) and DIAMOND (Brandenburg, 1999)
;
_computing_publication_material
;
SHELXL2013 (Sheldrick, 2008) and PLATON (Spek, 2009)
;
_computing_structure_refinement  'SHELXL2013 (Sheldrick, 2008)'
_computing_structure_solution    'SHELXL2013 (Sheldrick, 2008)'
_diffrn_ambient_temperature      296(2)
_diffrn_measured_fraction_theta_full 0.996
_diffrn_measured_fraction_theta_max 0.997
_diffrn_measurement_device_type  'Bruker APEXII CCD area-detector'
_diffrn_measurement_method       '\f and \w'
_diffrn_radiation_type           MoK\a
_diffrn_radiation_wavelength     0.71073
_diffrn_reflns_av_R_equivalents  0.0618
_diffrn_reflns_limit_h_max       6
_diffrn_reflns_limit_h_min       -6
_diffrn_reflns_limit_k_max       10
_diffrn_reflns_limit_k_min       -10
_diffrn_reflns_limit_l_max       30
_diffrn_reflns_limit_l_min       -31
_diffrn_reflns_number            7913
_diffrn_reflns_theta_full        25.242
_diffrn_reflns_theta_max         27.568
_diffrn_reflns_theta_min         2.762
_exptl_absorpt_coefficient_mu    18.559
_exptl_absorpt_correction_T_max  0.3566
_exptl_absorpt_correction_T_min  0.3183
_exptl_absorpt_correction_type   multi-scan
_exptl_absorpt_process_details   '(SADABS; Bruker, 2003)'
_exptl_crystal_colour            colourless
_exptl_crystal_density_diffrn    3.033
_exptl_crystal_description       block
_exptl_crystal_F_000             752
_exptl_crystal_size_max          0.080
_exptl_crystal_size_mid          0.070
_exptl_crystal_size_min          0.070
_refine_diff_density_max         0.921
_refine_diff_density_min         -1.889
_refine_ls_abs_structure_details
;
Flack <i>x</i> parameter determined using 712 quotients [(I+)-(I-)]/[(I+)+(I-)]
(Parsons & Flack, 2004)
;
_refine_ls_abs_structure_Flack   0.006(13)
_refine_ls_extinction_method     none
_refine_ls_goodness_of_fit_ref   0.947
_refine_ls_hydrogen_treatment    constr
_refine_ls_matrix_type           full
_refine_ls_number_parameters     146
_refine_ls_number_reflns         2091
_refine_ls_number_restraints     0
_refine_ls_restrained_S_all      0.947
_refine_ls_R_factor_all          0.0354
_refine_ls_R_factor_gt           0.0296
_refine_ls_shift/su_max          0.000
_refine_ls_shift/su_mean         0.000
_refine_ls_structure_factor_coef Fsqd
_refine_ls_weighting_details
'w = 1/[\s^2^(Fo^2^)+(0.0002P)^2^] where P=(Fo^2^+2Fc^2^)/3'
_refine_ls_weighting_scheme      calc
_refine_ls_wR_factor_gt          0.0526
_refine_ls_wR_factor_ref         0.0548
_reflns_number_gt                1920
_reflns_number_total             2091
_reflns_threshold_expression     I>2\s(I)
_cod_data_source_file            yp3068sup1.cif
_cod_data_source_block           I
_cod_depositor_comments          'Adding full bibliography for 2019590.cif.'
_cod_database_code               2019590
_cod_database_fobs_code          2019590
#BEGIN Tags that were not found in dictionaries:
_shelx_space_group_comment
;
The symmetry employed for this shelxl refinement is uniquely defined
by the following loop, which should always be used as a source of
symmetry information in preference to the above space-group names.
They are only intended as comments.
;
_shelx_estimated_absorpt_t_min   0.318
_shelx_estimated_absorpt_t_max   0.357
_shelx_hkl_checksum              94416
_shelx_hkl_file
;
   1   0   0    6.56   17.17
  -1   0   0   -5.17   10.06
   1   0   0   -7.18    6.63
   2   0   0 3643.04  216.41
  -2   0   0 3510.72  241.82
   3   0   0   -9.14   31.75
   3   0   0   -8.46   10.29
  -3   0   0  -15.90   17.38
  -4   0   0  395.49   58.12
   4   0   0  544.33   85.05
   5   0   0   45.50   55.21
  -5   0   0   17.97   32.58
   6   0   0 1114.95  165.72
   0  -1   0   -8.15    3.55
   0  -1   0  -12.69   18.60
  -1   1   0   10.68   12.67
  -1  -1   0   11.32   13.07
   1  -1   0   16.02   20.41
   1  -1   0    5.71   11.18
   1   1   0   26.53   27.28
  -2  -1   0 5163.69  342.07
   2  -1   0 5161.28  311.65
   2   1   0 5197.97  304.64
  -2   1   0 5239.49  342.55
   2   1   0 5026.24  341.97
   2  -1   0 5153.77  341.25
  -3  -1   0 1455.22  115.17
   3   1   0 1514.59  132.01
  -3   1   0 1365.61  113.14
   3   1   0 1412.30   91.68
   3  -1   0 1415.35  127.38
   3  -1   0 1436.10   99.48
  -4   1   0 4070.94  292.52
   4  -1   0 4141.23  308.73
   4   1   0 4159.26  308.88
  -4  -1   0 4073.23  292.69
  -5  -1   0  232.92   54.84
   5   1   0  181.90   74.75
   5  -1   0  155.69   69.55
  -5   1   0  169.25   48.76
  -6   1   0  109.96   53.23
   6   1   0  239.79   93.21
   6  -1   0  186.52   86.53
  -6  -1   0  260.96   64.88
   0  -2   0 5881.21  338.10
   0  -2   0 5509.22  366.54
   1  -2   0 4050.74  248.02
  -1   2   0 4198.91  266.90
   1   2   0 3951.48  242.34
  -1  -2   0 4245.12  275.91
  -1  -2   0 4057.39  266.41
   1  -2   0 3958.92  273.76
   2  -2   0 2216.68  176.45
  -2   2   0 2433.23  168.73
   2   2   0 2473.27  145.19
  -2  -2   0 2467.20  168.68
   2  -2   0 2323.04  155.19
  -3   2   0  657.69   67.81
   3  -2   0  691.18   83.84
   3   2   0  782.55   91.96
  -3  -2   0  643.09   66.53
   3  -2   0  676.54   59.43
   4   2   0  185.26   68.07
  -4  -2   0  223.04   46.78
   4  -2   0  225.39   66.02
  -4   2   0  155.92   42.63
   4  -2   0  213.72   35.69
  -5   2   0  668.48   83.86
   5  -2   0  475.38  101.87
  -5  -2   0  760.82   88.53
   5   2   0  759.38  117.65
   6  -2   0  411.54  111.61
  -6   2   0  323.39   70.13
  -6  -2   0  414.93   78.27
   6   2   0  316.25  110.92
   0  -3   0    0.66   39.64
   0  -3   0  -12.12    8.99
   0  -3   0   13.88   12.94
   1  -3   0 2953.50  190.20
  -1  -3   0 3161.01  202.47
   1  -3   0 2981.47  226.28
  -1   3   0 3005.40  200.07
   1   3   0 2954.72  184.83
  -1  -3   0 2848.77  218.82
   2   3   0 1270.01   89.94
   2  -3   0 1282.96  118.08
  -2  -3   0 1244.32   96.86
  -2   3   0 1319.78   97.52
   2  -3   0 1270.63   93.13
   2   3   0 1025.86  113.57
   3  -3   0 4179.35  261.70
  -3   3   0 4245.58  283.63
  -3  -3   0 4061.20  283.07
   3  -3   0 4168.29  300.20
   3   3   0 3586.69  295.27
   4  -3   0  396.15   84.46
  -4   3   0  477.58   61.83
  -4  -3   0  454.14   62.59
   4  -3   0  428.41   54.84
   4   3   0  399.08   90.50
   5  -3   0  913.31  131.74
   5   3   0 1046.62  141.34
  -5  -3   0  857.53  101.46
  -5   3   0  922.57  102.19
   0  -4   0   49.14   50.35
   0  -4   0   13.36   12.13
   1   4   0 7470.07  423.54
  -1   4   0 7123.38  456.53
   1  -4   0 7058.27  429.31
   1  -4   0 6251.28  486.67
  -1  -4   0 6841.65  478.22
  -2   4   0   69.03   22.94
   2   4   0   97.12   53.36
   2  -4   0   74.49   24.33
   2   4   0  134.52   29.84
  -2  -4   0  105.04   26.89
   2  -4   0  150.60   54.38
  -3   4   0  274.58   43.06
   3  -4   0  209.99   40.02
   3   4   0  232.59   73.23
   3  -4   0  119.06   54.18
  -3  -4   0  231.85   42.82
  -4  -4   0   38.81   30.65
   4  -4   0   16.06   28.60
  -4   4   0   33.36   31.93
   4  -4   0   19.48   45.05
   4   4   0  104.46   62.32
   5  -4   0  649.57  116.65
  -5   4   0  483.20   74.42
   5   4   0  450.17  113.44
  -5  -4   0  660.51   82.91
   0  -5   0   15.57   12.43
   0  -5   0  -10.90   42.34
   0   5   0    0.02   18.03
  -1   5   0  532.41   45.87
   1   5   0  557.87   51.54
   1  -5   0  635.49  115.53
   1  -5   0  524.86   55.03
  -1  -5   0  502.05   93.05
  -1  -5   0  304.75   56.72
  -2  -5   0  323.02   45.84
   2  -5   0  220.41   76.82
   2   5   0  180.92   75.17
   2  -5   0  306.27   46.55
  -2   5   0  302.31   39.34
   3  -5   0 2951.49  215.64
   3  -5   0 3372.80  269.52
  -3  -5   0 3209.34  228.91
  -3   5   0 3054.87  224.16
   3   5   0 3205.02  264.47
   4   5   0  641.76  115.91
  -4   5   0  557.37   73.76
   4  -5   0  611.83  114.56
   4  -5   0  635.54   75.05
  -4  -5   0  805.86   85.73
   5  -5   0  721.87  140.66
   5  -5   0  888.15   98.79
  -5   5   0 1037.34  106.35
   5   5   0 1121.22  162.23
   0   6   0 2647.45  177.77
   0  -6   0 2367.07  233.71
   1   6   0 2504.45  163.51
   1  -6   0 2189.79  243.03
  -1  -6   0 2129.40  218.12
   2  -6   0 1140.95  159.73
   2  -6   0  963.61   92.13
   3  -6   0   48.81   34.65
   3  -6   0   -0.30   60.43
   3   6   0   82.61   73.02
   4  -6   0   77.50   39.67
   4   6   0    7.97   71.57
   4  -6   0  110.25   68.26
   5  -6   0   72.16   83.65
   5   6   0   41.35   89.18
   0  -7   0   -5.51   54.79
   0   7   0  -21.07   23.92
   1   7   0   61.89   30.12
  -1  -7   0  104.26   80.43
  -1   7   0   50.20   29.11
   1  -7   0  105.78   80.52
   2  -7   0 2088.24  253.70
  -2  -7   0 2531.34  247.28
   3   7   0  -10.13   69.17
   3  -7   0  118.94   89.87
   4   7   0 1009.62  168.69
   0   8   0 2853.33  204.83
   0  -8   0 2920.91  282.73
  -1  -8   0   13.16   70.84
  -1   8   0   31.64   32.19
   1  -8   0  148.76   96.26
   2  -8   0  809.89  175.35
  -2   8   0  902.75   99.57
  -2  -8   0  899.62  165.20
  -3   8   0   33.09   36.29
   3   8   0   18.69   74.17
   3  -8   0   73.66   90.21
   0  -9   0   27.62   83.23
   0   9   0   21.99   31.85
   1  -9   0  120.26   93.62
  -1   9   0   62.93   37.03
  -1  -9   0   33.91   86.87
   2  -9   0  820.17  185.57
  -2   9   0  927.79  106.92
   0 -10   0  565.86  152.76
   1   0  -1 9610.53  563.42
   1   0   1 9525.90  561.93
   1   0  -1 9476.87  596.61
  -1   0  -1 9803.15  617.63
   1   0   1 9366.16  595.99
  -1   0   1 9996.44  617.76
   2   0   1 1336.07   87.87
  -2   0   1 1350.12  102.46
   2   0  -1 1463.22  113.50
   2   0   1 1292.38  110.09
   2   0  -1 1387.38   89.71
  -2   0  -1 1470.01  104.17
   3   0  -1  527.01   43.95
  -3   0   1  517.24   55.87
   3   0   1  477.54   41.01
   3   0   1  547.51   72.86
   3   0  -1  496.72   71.25
  -3   0  -1  414.54   53.25
  -4   0  -1  262.85   48.14
   4   0   1  242.61   66.67
  -4   0   1  228.15   46.96
   4   0  -1  412.86   77.74
  -5   0   1 1380.26  126.08
  -5   0  -1 1351.18  125.87
   5   0   1 1268.52  153.31
   5   0  -1 1290.72  156.53
  -6   0  -1   22.88   41.97
   6   0   1   95.39   76.66
  -6   0   1   22.18   39.56
   6   0  -1   22.83   64.85
   0  -1   1  157.96   34.56
   0  -1  -1  241.22   35.04
   0  -1  -1  299.52   28.47
   0   1  -1  394.71   24.79
   1  -1   1 1201.24   76.09
   1  -1   1 1260.60   90.14
   1   1  -1 1290.18   78.17
   1   1  -1 1322.89   94.82
   1   1   1  971.17   90.34
  -1   1  -1  965.24   81.24
   1  -1  -1 1049.44   76.57
  -1  -1  -1 1277.22   84.05
  -1   1   1 1264.82   83.26
   1  -1  -1  965.73   87.42
  -2   1  -1 2531.02  174.57
   2   1  -1 2520.72  152.41
  -2   1   1 2533.72  174.62
   2  -1   1 2407.87  179.48
   2  -1  -1 2377.11  179.10
   2  -1   1 2556.66  157.28
  -2  -1  -1 2547.15  175.15
   2  -1  -1 2599.47  159.15
   2   1   1 2457.68  149.31
  -2  -1   1 2438.85  173.81
   2   1  -1 2754.68  184.79
   2   1   1 2361.09  180.02
   3  -1  -1 4103.46  250.51
   3  -1   1 4069.39  286.20
   3   1   1 4248.49  288.97
  -3  -1  -1 3890.69  277.73
   3   1  -1 4226.18  290.33
   3  -1  -1 4042.15  286.77
   3  -1   1 3736.66  247.60
   3   1  -1 4042.25  243.11
  -3   1   1 3940.79  278.10
   3   1   1 4031.04  240.26
  -3  -1   1 4049.43  277.70
  -3   1  -1 4064.67  278.06
   4   1   1  603.35   91.94
   4  -1   1  413.44   82.92
  -4   1  -1  637.40   71.30
   4  -1  -1  542.72   54.01
  -4  -1   1  630.56   71.90
  -4  -1  -1  488.05   66.69
   4  -1  -1  578.32   92.76
  -4   1   1  603.01   71.93
   4   1  -1  516.21   91.86
   5   1  -1 1239.25  147.92
  -5  -1   1 1339.54  116.67
  -5   1  -1 1241.37  114.05
  -5   1   1 1110.01  111.49
  -5  -1  -1 1004.03  110.07
   5   1   1  968.90  134.31
   5  -1  -1  958.50  135.93
   5  -1   1 1049.12  138.35
   6  -1   1  -49.68   56.59
  -6   1   1   59.01   44.68
  -6  -1  -1   92.98   48.79
   6   1  -1   -1.62   66.96
   6  -1  -1   87.26   72.54
  -6   1  -1   96.79   54.70
  -6  -1   1   33.47   44.56
   6   1   1   53.21   78.58
   0  -2   1 8907.24  562.57
   0  -2  -1 8559.95  568.14
   0  -2  -1 8710.43  518.54
   0   2  -1 9095.08  520.46
  -1   2  -1 3600.22  243.44
   1   2  -1 3912.31  224.57
   1   2   1 3430.42  220.48
  -1  -2   1 3436.13  253.14
   1  -2   1 4011.05  255.36
  -1  -2   1 3346.96  242.47
  -1   2   1 3972.53  245.24
  -1  -2  -1 4034.08  246.04
   1  -2   1 3929.76  227.82
   1  -2  -1 3538.44  251.20
   2  -2   1 2168.68  138.94
  -2  -2   1 1666.55  146.53
   2   2  -1 2103.13  164.53
   2   2   1 2142.39  165.61
   2  -2  -1 1859.50  138.43
   2  -2  -1 2018.15  160.29
  -2   2   1 2336.14  152.33
  -2   2  -1 1956.87  148.99
  -2  -2  -1 2280.46  151.96
   2  -2   1 2424.60  165.05
   2   2  -1 2438.93  133.15
   3   2   1  170.12   53.78
   3  -2   1  156.76   46.65
  -3   2  -1  227.37   36.52
  -3  -2  -1   90.64   30.26
  -3   2   1  112.96   30.85
  -3  -2   1  210.58   36.07
   3   2  -1  144.74   52.45
   3  -2  -1  216.61   31.51
   3  -2   1  125.40   25.34
   3  -2  -1  227.26   54.09
   4   2   1   78.86   57.02
   4  -2   1  120.42   31.32
   4   2  -1   68.68   55.92
  -4  -2  -1  109.18   36.44
   4  -2  -1  116.19   56.36
   4  -2   1  164.13   57.01
  -4   2   1   91.77   37.06
   4  -2  -1   97.37   28.09
  -4   2  -1   96.35   37.24
  -4  -2   1  160.73   40.76
   5  -2   1  484.56   96.21
  -5   2  -1  333.04   62.57
  -5  -2   1  403.37   65.47
   5  -2  -1  322.45   84.92
  -5   2   1  489.91   69.35
   5   2   1  295.88   89.18
   5   2  -1  471.08  104.09
  -5  -2  -1  530.37   72.81
  -6  -2   1  563.34   88.05
  -6   2   1  548.76   88.28
   6   2  -1  534.57  123.63
  -6  -2  -1  470.19   84.86
   6   2   1  535.88  121.25
   6  -2  -1  611.32  126.05
   6  -2   1  640.68  128.62
  -6   2  -1  546.66   88.46
   0   3  -1  339.96   34.07
   0  -3   1  312.66   26.84
   0  -3  -1  294.49   31.27
   0  -3  -1  398.74   69.30
   0  -3   1  210.31   61.82
   0  -3  -1  313.95   33.04
  -1  -3   1  271.70   27.46
  -1   3   1  199.75   25.53
   1  -3   1  290.50   59.13
  -1  -3  -1  215.91   30.15
  -1  -3  -1  239.14   50.94
  -1   3  -1  264.34   26.54
   1   3   1  259.28   25.10
  -1  -3   1  216.74   50.12
   1   3  -1  191.02   25.30
   1  -3  -1  195.59   52.41
   1  -3   1  212.76   28.72
   1  -3  -1  234.32   29.90
  -2  -3   1 4169.15  268.88
  -2  -3  -1 3741.29  268.78
   2  -3   1 3887.52  250.67
   2   3   1 4111.11  284.95
   2  -3   1 3805.29  283.47
  -2   3   1 4011.56  269.58
   2   3   1 4146.41  243.19
   2   3  -1 3493.64  280.10
   2  -3  -1 4035.50  252.13
   2   3  -1 3867.87  247.96
  -2   3  -1 4278.61  269.56
   2  -3  -1 4015.00  284.56
  -3  -3   1  457.07   56.97
  -3  -3  -1  438.25   57.40
   3   3   1  512.79   82.79
   3  -3  -1  501.31   55.04
   3  -3   1  560.99   54.83
  -3   3   1  520.44   58.87
   3   3  -1  424.39   84.23
   3  -3  -1  532.59   79.62
  -3   3  -1  506.32   57.97
   3  -3   1  467.35   76.00
   4   3   1 2972.76  248.38
   4  -3  -1 2963.68  203.00
  -4  -3  -1 3071.52  224.56
   4   3  -1 2949.24  248.08
  -4   3  -1 2982.64  221.64
  -4   3   1 2966.29  222.16
   4  -3  -1 2980.30  244.62
   4  -3   1 3037.51  203.40
  -4  -3   1 2887.98  221.39
   4  -3   1 3054.42  245.95
   5   3   1  200.63   85.27
   5  -3  -1   57.55   58.49
  -5  -3  -1  118.86   46.45
   5   3  -1  168.34   80.46
   5  -3   1  211.72   75.33
  -5   3  -1  178.12   50.65
  -5   3   1  196.57   53.15
  -5  -3   1  194.77   52.43
   0   4  -1 8426.63  472.53
   0  -4  -1 8133.66  469.99
   0  -4  -1 6804.24  527.38
   0  -4   1 6305.71  526.14
   0  -4   1 7954.50  501.85
   0  -4  -1 8272.62  507.97
  -1  -4   1  217.95   31.66
   1  -4  -1  155.37   62.33
   1   4  -1  125.77   25.39
   1  -4  -1  118.00   27.01
   1  -4   1  124.77   27.49
   1   4   1  147.06   23.96
   1  -4   1  141.88   61.44
  -1   4   1  138.52   22.47
  -1  -4  -1   73.99   29.88
  -1   4  -1  151.38   21.35
  -1  -4  -1  205.99   56.93
  -1  -4   1  161.99   57.13
   2   4  -1 2554.63  161.51
  -2   4   1 2404.30  170.04
  -2   4  -1 2228.53  168.09
   2   4   1 2310.57  195.41
  -2  -4   1 2454.10  170.25
   2  -4   1 2328.30  202.90
   2   4  -1 2553.23  203.62
   2  -4  -1 2267.58  163.23
   2  -4  -1 2271.08  199.09
   2   4   1 2536.78  156.46
  -2  -4  -1 2376.01  172.35
   2  -4   1 2340.17  163.49
   3  -4  -1   84.23   30.58
   3   4  -1  116.37   63.55
   3  -4   1  156.27   36.21
  -3  -4   1   22.98   27.13
   3   4   1  102.90   62.58
  -3   4  -1   78.56   28.36
  -3   4   1   92.30   31.60
   3  -4   1  130.23   57.74
  -3  -4  -1   91.68   32.03
   3  -4  -1   33.29   41.91
   4  -4  -1  365.74   52.44
   4  -4  -1  325.98   80.12
  -4   4  -1  321.94   53.37
  -4   4   1  201.01   47.11
   4  -4   1  340.50   50.06
  -4  -4  -1  286.10   52.69
  -4  -4   1  321.57   53.20
   4   4  -1  276.91   80.81
   4  -4   1  238.90   76.11
   4   4   1  326.52   87.94
  -5  -4  -1    0.95   34.81
  -5  -4   1   54.61   38.01
   5  -4  -1   -9.09   45.92
  -5   4   1   51.16   38.80
   5   4  -1   38.55   65.16
   5  -4   1   40.68   58.94
   5   4   1  152.62   78.13
  -5   4  -1   21.19   32.60
   0  -5  -1   51.92   52.68
   0  -5   1  -37.62   51.13
   0  -5  -1   24.40   15.52
   0   5  -1    5.90   16.88
   0  -5  -1   18.89   17.69
  -1  -5   1  297.01   81.54
   1  -5  -1  417.11  100.33
  -1  -5   1  260.01   49.15
  -1  -5  -1  386.07   84.93
   1  -5   1  329.53   93.04
   1  -5   1  420.03   49.55
   1   5   1  484.81   45.48
   1   5  -1  541.34   49.60
   1  -5  -1  443.91   51.91
  -1   5   1  461.98   43.05
  -1   5  -1  462.44   41.03
  -1  -5  -1  337.19   57.94
   2  -5   1 2466.19  167.21
   2  -5   1 2208.87  213.50
   2   5   1 2239.48  203.97
  -2  -5   1 2305.38  170.10
  -2   5   1 2349.23  167.14
   2  -5  -1 2150.74  163.99
   2   5  -1 2330.48  213.82
   2  -5  -1 2044.64  209.51
  -2  -5  -1 2512.41  175.81
  -2   5  -1 2356.77  166.03
   3  -5   1  839.75  125.74
  -3   5  -1 1109.75   89.42
   3  -5   1  786.34   86.60
  -3  -5   1 1045.92   92.69
   3  -5  -1 1026.38   91.35
   3   5  -1  832.40  129.76
   3  -5  -1 1007.51  134.33
  -3  -5  -1  841.49   90.94
  -3   5   1  899.49   86.38
   3   5   1  920.69  128.79
   4   5   1 1786.08  187.58
   4  -5   1 1666.48  188.16
   4  -5   1 1617.92  138.04
  -4   5   1 1661.78  144.02
   4   5  -1 1861.22  195.66
   4  -5  -1 1679.63  188.18
   4  -5  -1 2016.08  146.35
  -4   5  -1 1677.24  143.16
  -4  -5  -1 1710.64  148.33
  -5   5   1  148.81   51.05
   5  -5  -1  241.34   92.31
  -5   5  -1  267.81   57.31
   5  -5  -1  396.35   63.60
   5   5   1  123.94   78.18
   5  -5   1  231.11   88.20
   5   5  -1  245.21   95.51
   0  -6   1 2783.94  260.23
   0   6   1 3047.94  201.83
   0   6  -1 3027.58  202.15
   0  -6  -1 2981.32  260.65
   1   6  -1 3410.54  209.79
   1  -6  -1 3293.13  214.90
  -1   6  -1 3116.81  215.04
  -1  -6  -1 3489.95  278.34
   1  -6   1 2883.57  286.33
   1  -6  -1 2638.12  280.96
   1   6   1 3247.94  206.16
  -1  -6   1 2294.25  260.21
   2  -6  -1  545.54  123.82
   2  -6  -1  817.60   79.12
   2  -6   1  546.04  122.99
   2  -6   1  643.67   73.56
   3   6   1  126.15   74.73
   3  -6   1  126.32   80.95
  -3   6   1  223.62   40.85
   3  -6   1  240.04   51.14
   3  -6  -1   88.35   66.82
   3   6  -1  271.53   98.93
   3  -6  -1  122.70   42.27
   4  -6  -1  153.96   47.93
   4  -6   1   52.03   69.95
   4   6  -1   96.63   78.77
   4  -6  -1  121.39   72.50
  -4   6   1   50.06   34.15
   4   6   1  161.39   81.62
   5  -6   1  182.98   92.28
   5   6  -1  332.59  118.47
   5   6   1  358.63  114.88
   5  -6  -1  406.86  120.07
   0  -7   1   46.63   70.05
   0   7  -1   45.43   29.18
   0  -7  -1   79.92   70.07
   0   7   1   24.52   25.49
  -1  -7  -1  739.83  131.90
  -1   7  -1  496.28   67.88
   1  -7   1  861.73  156.80
  -1  -7   1  669.93  130.02
   1   7   1  489.70   60.23
   1  -7  -1  542.91  129.33
   1   7  -1  632.70   66.83
  -2   7  -1   70.20   37.90
   2  -7  -1  158.86   45.05
  -2  -7   1   90.40   78.66
   2  -7   1  140.00   87.49
   2  -7  -1  122.87   89.77
   3   7   1 2699.77  246.30
   3  -7  -1 2273.33  184.77
   3  -7   1 2028.29  259.33
  -3   7  -1 2500.32  189.63
   3   7  -1 2583.11  256.17
   3  -7  -1 2312.40  266.25
   4  -7  -1  213.06   56.86
  -4   7  -1   45.85   41.69
   4   7  -1   86.33   97.94
   4  -7   1  138.75   92.75
   4  -7  -1  117.34   84.86
   4   7   1  188.10   98.80
   0   8  -1  105.10   38.65
   0   8   1   30.23   32.26
   0  -8  -1   53.72   75.83
   0  -8   1  186.18   83.69
   1  -8  -1 1980.50  229.48
  -1  -8   1 1734.39  217.02
  -1   8   1 1724.42  145.24
   1  -8   1 1684.48  223.82
  -1  -8  -1 1882.12  216.19
  -1   8  -1 1807.03  148.02
  -2  -8  -1   16.31   79.48
  -2   8   1   32.23   32.59
  -2  -8   1    5.73   80.78
   2  -8   1   64.00   83.23
   2  -8  -1   21.02   78.96
  -2   8  -1    1.70   33.54
  -3   8  -1  122.63   47.51
  -3   8   1  137.51   50.01
   3  -8   1  -23.31   86.34
   3   8   1  167.18   98.07
   3  -8  -1   76.06   96.24
   3   8  -1    5.85   84.20
   0   9  -1   84.76   39.17
   0  -9   1  121.61   89.65
   0   9   1   64.74   37.14
   0  -9  -1   -2.95   74.05
  -1  -9  -1  327.08  113.29
  -1   9   1  330.52   61.89
   1  -9  -1  253.76  101.53
  -1   9  -1  316.25   61.19
  -1  -9   1  444.22  132.26
   1  -9   1  385.13  121.06
   2  -9   1  360.36  133.89
  -2  -9   1  -26.49   88.40
   2  -9  -1  261.54  124.10
  -2   9   1  339.73   65.75
  -2   9  -1  285.58   64.08
   0 -10   1 1418.08  215.38
   0  10  -1 1189.68  122.39
   0 -10  -1 1315.90  211.26
   0   0  -2 8423.99  541.98
  -1   0   2 1821.05  124.66
   1   0  -2 1818.87  113.88
  -1   0  -2 1844.59  111.31
   1   0   2 1802.72  125.23
   1   0  -2 1828.82  127.38
  -1   0  -2 1891.30  125.85
   2   0  -2 2284.83  170.83
   2   0   2 2387.79  144.78
   2   0  -2 2350.93  148.11
  -2   0   2 2342.02  165.66
   2   0   2 2427.32  170.44
  -2   0  -2 2408.56  166.29
   3   0  -2  831.45   61.26
   3   0  -2  571.17   81.21
  -3   0  -2  731.83   73.15
  -3   0   2  761.21   73.73
   3   0   2  816.77   88.18
   3   0   2  820.87   57.86
   4   0   2  342.25   74.30
   4   0  -2  426.10   78.53
  -4   0   2  390.58   57.26
  -4   0  -2  281.51   51.79
   5   0  -2   90.65   58.01
   5   0   2   65.49   59.42
  -5   0  -2  149.59   43.49
  -5   0   2    4.86   34.52
  -6   0  -2 1059.61  122.53
  -6   0   2 1148.68  122.54
   6   0  -2 1244.42  167.80
   6   0   2 1149.57  165.96
   0  -1   2   22.08   23.53
   0   1  -2    7.68    8.09
   0  -1  -2   19.53   14.21
   0  -1  -2    6.59   11.21
   0  -1  -2   -1.38    2.56
   1   1  -2 1317.45   90.75
   1   1  -2 1192.88  102.73
  -1   1   2 1399.00   94.85
   1  -1   2 1393.30  100.71
  -1  -1  -2 1324.81   95.47
   1  -1   2 1361.83   86.99
  -2   1  -2 4697.58  318.48
   2   1  -2 4945.70  321.69
  -2  -1  -2 4921.25  320.02
   2  -1   2 4912.09  289.45
   2   1  -2 5026.25  287.06
   2   1   2 4711.34  318.39
  -2  -1   2 4412.97  317.28
   2  -1  -2 4494.31  317.15
   2  -1  -2 4811.14  292.16
  -2   1   2 4959.35  320.10
   3   1  -2 1213.14   80.00
  -3  -1  -2 1113.30   98.93
   3   1  -2 1165.23  115.76
   3  -1  -2 1198.72   86.83
   3  -1  -2 1208.32  113.17
  -3   1   2 1129.90   97.77
   3  -1   2 1065.62   82.34
   3   1   2 1181.66  115.41
  -3  -1   2 1107.14   96.33
   3  -1   2 1234.46  112.53
  -3   1  -2 1229.73   99.12
   4   1  -2 3590.94  286.58
   4   1   2 3666.38  284.48
   4  -1  -2 3676.80  239.62
   4  -1  -2 3873.16  289.11
  -4  -1   2 3817.81  270.71
  -4   1   2 3896.49  272.72
  -4  -1  -2 3899.09  271.99
  -4   1  -2 3612.67  269.93
   4  -1   2 3783.50  286.82
  -5  -1   2  160.36   48.63
  -5  -1  -2  158.28   50.28
   5  -1  -2  270.16   77.95
   5   1   2  192.67   68.49
   5   1  -2  175.34   75.88
   5  -1   2  204.43   71.04
  -5   1   2  177.61   48.46
  -5   1  -2  197.93   49.81
  -6  -1  -2  202.32   60.27
   6  -1   2  225.21   93.68
   6   1   2  153.33   86.72
  -6   1  -2   69.90   46.70
   6  -1  -2  388.90  100.86
  -6   1   2  209.30   62.54
  -6  -1   2  209.85   62.13
   6   1  -2   55.84   76.65
   0   2  -2 4419.20  246.49
   0  -2  -2 4429.94  272.98
   0  -2   2 3455.45  282.55
   0  -2  -2 3507.50  276.24
   1   2  -2 2612.52  184.40
   1  -2  -2 3460.23  189.23
  -1  -2   2 3293.41  197.73
   1  -2  -2 3192.21  210.49
  -1   2   2 2441.66  198.26
   1   2   2 3119.68  178.57
   1  -2   2 2504.48  206.01
  -1  -2   2 2966.92  212.35
   1   2   2 3008.74  206.20
  -1   2  -2 3264.78  198.50
   2  -2   2 2406.34  157.36
  -2   2  -2 2361.81  169.84
   2   2  -2 2379.82  184.04
   2   2   2 2463.82  182.31
   2  -2  -2 2334.13  158.67
  -2  -2  -2 2446.70  171.63
   2   2  -2 2539.04  154.95
  -2   2   2 2444.19  171.40
   2  -2   2 2592.77  183.94
  -3   2  -2  461.17   49.44
   3   2   2  420.92   71.51
  -3  -2   2  383.85   46.27
  -3  -2  -2  229.91   42.20
   3  -2  -2  403.19   63.96
   3  -2  -2  356.51   41.83
   3   2  -2  333.37   70.37
  -3   2   2  281.13   43.80
   3  -2   2  220.90   54.38
   3  -2   2  287.64   37.27
   4  -2  -2  341.33   44.63
   4  -2   2  355.52   75.59
   4  -2  -2  358.14   74.27
  -4  -2  -2  324.41   55.81
   4  -2   2  247.03   41.19
  -4   2  -2  382.32   56.21
  -4  -2   2  386.66   56.06
   4   2  -2  236.43   78.56
  -4   2   2  372.19   56.58
   4   2   2  417.40   82.14
   5   2  -2  853.55  122.28
  -5   2   2  484.83   74.72
   5  -2  -2  688.67  114.52
  -5   2  -2  614.14   78.64
  -5  -2  -2  676.38   83.67
   5   2   2  506.04  105.78
   5  -2   2  697.18  112.83
  -5  -2   2  488.92   75.20
  -6  -2  -2  632.15   91.82
   6   2   2  362.37  108.45
  -6   2  -2  529.84   85.18
   6  -2  -2  396.66  112.69
   6  -2   2  535.39  121.07
  -6   2   2  481.11   84.04
  -6  -2   2  571.87   86.74
   6   2  -2  400.18  117.22
   0  -3  -2  940.41  104.18
   0   3  -2  967.13   70.42
   0  -3  -2  929.68   66.67
   0  -3  -2  950.72   74.63
   0  -3   2  707.15  101.68
   1  -3   2 3835.33  269.29
  -1  -3  -2 4150.07  249.17
   1  -3  -2 3094.98  259.01
  -1   3   2 3920.88  243.81
   1  -3  -2 3416.33  228.20
  -1   3  -2 3562.12  239.77
   1   3  -2 3941.28  225.73
   1   3   2 3461.75  220.36
  -1  -3   2 3409.90  239.27
   1  -3   2 3884.44  229.26
  -1  -3   2 2912.86  254.79
  -1  -3  -2 4178.47  260.54
   2  -3  -2  636.84   79.88
   2   3   2  729.22   50.43
  -2  -3   2  724.40   58.84
  -2   3  -2  764.31   60.24
   2  -3  -2  714.42   60.31
   2   3   2  599.89   78.84
   2   3  -2  519.19   80.64
   2   3  -2  577.60   59.55
   2  -3   2  601.77   80.37
   2  -3   2  525.63   55.00
  -2   3   2  539.43   57.57
  -3   3   2 4253.99  280.01
  -3  -3  -2 4129.34  280.19
   3  -3  -2 4004.96  257.70
   3  -3  -2 3785.84  290.58
   3  -3   2 4027.47  256.49
   3  -3   2 3827.20  291.62
  -3   3  -2 3937.36  276.71
   3   3   2 3799.60  292.95
   3   3  -2 3971.16  297.54
   4  -3   2  322.86   47.03
   4   3  -2  389.02   89.45
  -4  -3  -2  288.45   53.31
  -4   3  -2  376.78   55.87
   4  -3  -2  435.00   81.64
  -4   3   2  286.33   53.14
   4   3   2  291.25   81.31
   4  -3   2  236.28   70.20
   4  -3  -2  339.63   48.71
  -4  -3   2  374.54   55.07
  -5   3   2  910.66  101.71
   5   3  -2  861.09  134.79
  -5  -3   2  836.86   98.84
   5   3   2  942.13  137.60
  -5  -3  -2  976.13  104.79
  -5   3  -2  894.51  100.30
   5  -3  -2  878.17  130.59
   5  -3   2 1125.83  140.22
   0   4  -2  144.45   27.10
   0  -4  -2   70.68   52.01
   0  -4  -2  142.77   25.00
   0  -4  -2  111.14   23.05
   0  -4   2  108.38   58.92
   1  -4   2 5874.32  478.74
   1  -4  -2 6182.24  478.74
   1   4  -2 7218.81  419.30
  -1  -4   2 5706.94  466.18
   1  -4  -2 7054.13  423.50
  -1   4  -2 7401.15  448.62
  -1   4   2 6696.28  451.37
  -1  -4  -2 7066.06  469.96
  -1  -4   2 7785.77  454.08
   1   4   2 7049.23  415.03
  -2  -4   2  630.09   63.68
   2   4  -2  740.36   72.13
   2  -4  -2  663.44   66.02
  -2  -4  -2  862.18   72.75
   2  -4  -2  646.28   94.61
  -2   4  -2  758.19   64.51
   2  -4   2  779.00  102.77
   2   4  -2  807.81  106.90
   2   4   2  848.02   99.36
  -2   4   2  748.41   66.34
   2  -4   2  703.66   66.32
  -3   4  -2  164.53   34.43
   3  -4  -2  132.62   35.09
   3  -4  -2  133.20   54.94
  -3  -4   2  127.80   34.49
  -3   4   2   60.21   30.83
   3   4   2  110.82   62.04
   3  -4   2   82.44   31.52
   3   4  -2   91.14   65.66
   3  -4   2  129.50   57.98
   4   4  -2  188.13   78.00
   4  -4   2  273.10   46.70
  -4  -4  -2  309.70   54.22
   4  -4  -2  261.02   73.26
  -4   4   2  199.86   44.92
  -4   4  -2  168.18   43.03
   4  -4  -2  188.34   41.65
   4  -4   2  295.73   76.03
   4   4   2  244.23   79.39
   5   4  -2  888.19  140.29
  -5  -4  -2  856.77   98.11
   5  -4  -2  729.83   83.99
  -5  -4   2  775.23   92.32
   5  -4  -2  851.98  131.26
   5  -4   2  895.88  133.23
  -5   4   2  788.17   93.57
  -5   4  -2  657.47   88.70
   5   4   2  735.46  127.99
   0  -5  -2  904.24   71.41
   0  -5   2  634.76  116.06
   0  -5  -2  794.94   69.38
   0   5  -2  859.93   73.74
   0  -5  -2  787.34  114.27
  -1  -5   2  359.83   94.62
   1  -5  -2  698.55   64.02
   1  -5   2  595.84  120.71
  -1   5  -2  659.09   66.60
   1  -5  -2  488.60  109.95
  -1  -5  -2  510.90   75.42
  -1  -5  -2  641.16  100.29
  -1   5   2  706.61   57.45
   1   5  -2  715.01   62.76
   1   5   2  662.19   57.66
  -1   5  -2  633.30   52.63
   2  -5   2  278.43   46.56
   2  -5  -2  466.17   92.11
  -2   5   2  269.64   43.15
  -2  -5  -2  519.26   58.23
   2   5   2  469.26   85.55
  -2   5  -2  444.02   45.31
   2  -5   2  271.80   86.44
   2  -5  -2  412.51   53.94
   2   5  -2  334.93   87.35
  -3  -5  -2 3346.23  236.47
   3   5  -2 3044.81  268.47
  -3   5  -2 3170.79  227.89
  -3   5   2 3258.77  230.87
   3  -5  -2 3002.87  267.23
   3  -5   2 3412.68  223.06
   3  -5  -2 3007.21  219.53
   3   5   2 3098.84  262.35
   3  -5   2 3268.15  273.33
   4   5   2  420.41  102.14
   4  -5  -2  495.50  103.61
   4  -5  -2  468.34   67.06
  -4   5   2  450.57   62.67
  -4   5  -2  428.28   61.95
   4   5  -2  394.54  105.27
   4  -5   2  534.09  107.41
   5   5  -2  664.32  138.34
  -5  -5  -2  701.97   94.54
  -5   5  -2  600.17   84.18
  -5   5  -2  726.06   84.39
  -5   5   2  663.93   87.50
   5  -5  -2  749.69   88.40
   5  -5   2  778.05  140.26
   5  -5  -2  754.33  139.69
   5   5   2  862.06  137.99
   0   6  -2 2984.29  199.38
   0  -6  -2 2801.29  255.77
   0  -6   2 2936.65  262.34
   1  -6   2 1290.89  178.85
   1  -6  -2 1280.99  107.79
   1  -6  -2 1235.17  171.93
  -1  -6   2 1140.45  155.82
  -1   6  -2 1209.26  106.58
   1   6  -2 1382.87  104.72
  -1  -6  -2 1704.48  168.75
   1   6   2 1258.22   99.25
   2  -6  -2  478.03  119.50
   2  -6  -2  709.72   80.91
  -2   6  -2  843.02   86.14
   2  -6   2  838.43  143.03
  -2   6   2  935.41   76.19
   3  -6  -2  278.01   54.91
  -3   6   2  202.12   42.79
   3  -6  -2  303.61   95.83
   3  -6   2  249.64   89.64
   3   6   2  445.33  102.46
   3   6  -2   66.03   70.28
  -3   6  -2  294.46   53.75
   4   6  -2  114.22   87.17
   4  -6   2  124.65   75.97
  -4   6  -2  251.81   54.72
  -4   6   2  185.92   45.90
   4  -6  -2  159.98   78.95
   4   6   2  169.76   80.39
   4  -6  -2  191.93   50.96
   0  -7   2  158.84   86.88
   0   7   2  121.92   34.86
   0   7  -2  119.54   37.17
   0  -7  -2  151.65   79.19
   1  -7   2  349.13  114.85
   1  -7  -2  396.37   59.47
  -1  -7   2  283.38  101.40
   1   7  -2  428.81   57.90
   1   7   2  443.01   54.05
  -1  -7  -2  497.62  112.35
   1  -7  -2  584.00  132.36
  -1   7  -2  491.02   64.64
   2  -7  -2 1982.79  150.31
  -2  -7   2 1477.70  198.38
  -2   7  -2 1841.60  148.39
   2  -7   2 1688.64  224.58
   2  -7  -2 1539.24  213.31
   3   7  -2  106.02   85.39
   3   7   2  112.58   83.09
   3  -7  -2   89.95   85.93
  -3   7  -2  191.91   50.00
   3  -7  -2   95.57   42.08
   3  -7   2  147.63   86.42
  -4   7  -2 1094.20  114.95
   4  -7  -2 1184.56  182.94
   4   7  -2  994.93  172.86
   4  -7  -2 1009.04  111.85
   4   7   2 1032.47  166.08
   0   8   2 1796.41  141.29
   0  -8   2 1443.72  202.66
   0   8  -2 1746.69  143.20
   0  -8  -2 2298.72  229.35
   1  -8  -2   68.50   76.65
   1  -8   2   19.61   77.42
  -1   8   2   66.21   36.94
  -1  -8   2  200.59   96.13
  -1  -8  -2  140.57   89.53
  -1   8  -2  141.09   47.28
   2  -8  -2  798.77  169.56
  -2   8  -2  904.43  100.57
  -2  -8   2  912.44  169.90
   2  -8   2  944.42  184.18
  -3   8  -2  137.02   53.43
   3   8   2  136.40   93.70
   3  -8  -2   58.90   89.87
   3  -8   2   92.85  107.27
   3   8  -2   52.72   91.28
   0   9   2   74.51   37.52
   0  -9   2   81.71   84.20
   0   9  -2   25.50   34.15
   0  -9  -2   89.97   87.35
   1  -9  -2  191.97  109.93
  -1  -9   2  273.64  114.18
  -1  -9  -2  168.23  100.05
  -1   9  -2  250.83   58.37
   1  -9   2  199.51  108.50
  -1   9   2  161.02   51.28
   2  -9   2  756.45  182.95
  -2   9  -2  980.83  105.50
  -2   9   2  801.55   99.33
   2  -9  -2  657.57  172.63
  -2  -9   2  737.43  172.65
   0  10  -2  335.15   65.53
   0 -10  -2  315.55  129.60
   0 -10   2  324.74  125.84
   0   0  -3    1.34   12.58
   0   0  -3    4.04    9.89
  -1   0   3 6568.18  424.52
   1   0  -3 5530.69  409.65
   1   0   3 6703.91  411.27
  -1   0  -3 6845.55  386.28
   1   0  -3 6735.98  389.72
  -1   0  -3 7004.31  425.76
   2   0  -3 2903.62  175.36
   2   0  -3 2882.12  198.49
  -2   0   3 2753.01  193.56
  -2   0  -3 2731.03  193.85
  -3   0   3  114.61   29.89
   3   0  -3  103.80   20.82
   3   0   3  119.35   43.76
   3   0  -3   85.17   45.20
  -3   0  -3   79.05   27.41
  -4   0  -3  847.89   88.02
  -4   0   3  950.79   89.56
   4   0   3  881.71  108.36
   4   0  -3  825.58  108.76
   5   0   3  845.55  124.83
   5   0  -3  825.30  124.64
  -5   0   3  898.20  100.71
  -5   0  -3 1010.04  101.16
   6   0  -3   26.40   67.60
   6   0   3   16.25   67.90
  -6   0  -3   12.96   40.07
  -6   0   3   79.64   44.68
   0   1  -3 1752.06   96.93
   0  -1   3 1345.74  112.19
   0  -1  -3 1235.82  110.97
   0  -1  -3 1616.84  108.06
   1  -1  -3 5559.64  341.99
  -1   1  -3 5819.80  370.71
   1   1  -3 6012.74  366.69
  -1  -1  -3 5828.80  372.63
   1  -1   3 6421.05  366.22
   1   1  -3 5806.39  345.16
   1  -1  -3 4676.56  359.68
  -1  -1   3 5736.25  369.75
  -1   1   3 5806.82  372.16
   1   1   3 5625.46  363.33
  -2   1   3 2646.68  185.35
   2  -1  -3 2798.62  191.49
   2  -1  -3 2854.19  169.97
   2   1  -3 2439.19  191.40
   2  -1   3 2602.90  166.12
   2   1   3 3005.44  193.57
   2   1  -3 2583.23  165.31
   2  -1   3 2290.08  186.20
  -2   1  -3 2761.59  184.75
  -2  -1   3 2850.89  184.86
  -2  -1  -3 2466.10  184.68
   3  -1  -3 5143.45  347.48
   3   1  -3 4684.83  302.37
   3  -1   3 4982.41  344.94
   3  -1  -3 5316.08  310.54
  -3  -1  -3 4712.61  339.93
  -3   1   3 4699.13  339.64
   3  -1   3 5108.90  306.13
  -3  -1   3 5313.23  341.41
  -3   1  -3 5153.98  341.28
   3   1   3 5043.57  345.60
  -4  -1  -3  454.43   63.01
  -4   1   3  458.99   63.55
   4  -1   3  529.29   85.47
   4   1  -3  490.87   87.29
  -4   1  -3  519.16   66.14
   4   1   3  620.64   91.30
   4  -1  -3  503.21   52.26
   4  -1  -3  417.81   81.49
  -4  -1   3  500.75   64.76
  -5   1  -3  726.24   92.57
  -5  -1  -3  826.86   97.27
   5  -1   3  914.96  125.19
   5   1  -3  869.30  127.64
   5  -1  -3  782.03  124.41
  -5   1   3 1061.04  101.85
   5   1   3  754.79  116.56
  -5  -1   3  891.97   98.83
  -6   1  -3  334.36   71.08
   6  -1   3  205.65   90.90
  -6  -1  -3  322.25   71.51
   6  -1  -3  360.86  103.60
   6   1  -3  120.17   78.07
  -6   1   3  285.22   69.24
   6   1   3  352.38  101.74
  -6  -1   3  390.73   74.94
  -1   2   3 5061.67  334.26
   1  -2  -3 5227.02  310.57
  -1  -2   3 5064.86  329.88
   1   2   3 4804.43  331.07
  -1  -2  -3 5057.87  299.76
   1  -2  -3 4877.97  334.24
  -1   2  -3 5042.24  330.83
   1  -2   3 5349.95  339.78
  -1   2  -3 4852.89  308.88
  -1  -2   3 4621.84  336.52
   1   2  -3 5498.98  310.10
  -1  -2  -3 5618.48  337.20
  -2   2   3 2852.47  185.22
   2   2  -3 2973.37  170.54
   2   2   3 2592.39  192.33
  -2  -2   3 2404.22  179.91
   2  -2  -3 2368.67  188.73
  -2  -2  -3 2775.62  185.80
   2  -2  -3 2658.90  171.55
   2   2  -3 2417.67  193.92
   2  -2   3 2733.46  169.30
   2  -2   3 2735.69  194.30
  -2   2  -3 2353.68  180.80
   3  -2  -3  645.56   82.19
  -3   2  -3  683.58   66.38
   3  -2   3  732.95   59.48
  -3  -2   3  561.37   63.53
   3   2   3  668.78   85.18
  -3  -2  -3  641.81   67.02
   3   2  -3  579.43   87.17
   3  -2   3  583.07   79.58
   3  -2  -3  613.55   59.36
  -3   2   3  665.47   65.94
  -4   2   3  448.41   63.20
   4   2  -3  416.41   88.53
   4   2   3  402.07   84.66
   4  -2  -3  528.95   56.84
   4  -2  -3  556.94   87.33
   4  -2   3  503.26   85.71
  -4  -2  -3  540.35   68.77
  -4   2  -3  442.78   61.69
  -4  -2   3  544.67   66.22
   4  -2   3  472.98   53.07
   5   2   3  554.21  104.94
  -5  -2   3  543.16   76.06
  -5   2   3  587.66   78.47
   5   2  -3  619.18  110.64
   5  -2  -3  548.81  104.97
  -5  -2  -3  499.34   74.88
  -5   2  -3  416.68   71.00
   5  -2   3  563.84  102.14
  -6  -2   3  665.52   92.39
   6  -2   3  435.47  116.87
  -6  -2  -3  551.05   90.48
   6   2  -3  522.70  124.28
  -6   2   3  590.17   88.95
  -6   2  -3  401.85   81.11
   6  -2  -3  320.13  103.67
   6   2   3  579.36  125.40
   0  -3  -3 2138.84  178.11
   0  -3   3 1743.65  179.00
   0  -3  -3 2270.24  161.60
   0  -3  -3 2360.99  144.14
   0   3  -3 2382.89  146.81
   1  -3  -3 2494.07  150.44
  -1  -3  -3 2043.26  167.38
   1  -3   3 2038.12  180.56
  -1  -3  -3 2295.49  161.99
  -1   3  -3 2508.83  151.75
  -1   3   3 1931.17  154.09
  -1  -3   3 2400.68  150.40
  -1  -3  -3 2009.74  138.02
   1  -3  -3 2666.99  186.33
  -1  -3   3 2021.51  174.58
   1   3  -3 2115.37  145.39
  -1   3  -3 2469.55  150.62
  -2  -3  -3 3545.65  237.84
  -2   3  -3 3371.00  232.41
   2  -3   3 3502.16  219.58
   2  -3  -3 3402.81  221.19
   2   3   3 3616.41  250.41
   2   3  -3 3477.91  222.47
  -2   3   3 3584.36  236.21
   2  -3   3 3579.17  253.56
  -2  -3   3 3264.47  231.06
   2   3  -3 3192.31  249.79
   2  -3  -3 3092.46  245.71
   3  -3  -3  630.13   60.91
   3   3   3  568.66   83.83
  -3  -3  -3  509.26   61.95
   3  -3  -3  621.23   86.38
   3   3  -3  383.61   81.26
  -3   3  -3  690.32   62.90
  -3  -3   3  447.67   53.91
   3  -3   3  401.01   75.31
  -3   3   3  431.38   57.02
   3  -3   3  580.71   57.10
  -4   3  -3 2693.26  196.46
  -4  -3  -3 2511.68  196.79
   4  -3  -3 2551.82  180.07
   4   3  -3 2440.50  221.39
  -4   3   3 2507.42  195.50
   4   3   3 2410.85  217.83
   4  -3  -3 2657.44  219.61
  -4  -3   3 2653.95  195.56
   4  -3   3 2560.60  220.52
   5  -3  -3  287.44   84.67
  -5   3   3  333.49   60.10
   5   3  -3  182.99   84.62
  -5  -3  -3  265.18   59.29
  -5  -3   3  136.99   47.01
   5  -3   3  193.05   80.23
  -5   3  -3  270.82   55.47
   5   3   3  373.50   94.02
   0  -4  -3 4281.39  265.30
   0  -4  -3 4084.02  312.76
   0  -4  -3 4475.25  291.17
   0   4  -3 4359.95  268.75
   0   4  -3 4424.45  274.26
   0  -4   3 3479.71  315.22
   1   4  -3  280.32   37.77
  -1   4  -3  442.10   35.03
  -1  -4   3  402.14   74.92
  -1   4  -3  382.16   44.85
  -1  -4  -3  269.09   31.58
  -1  -4  -3  292.32   50.38
  -1  -4  -3  389.56   66.67
  -1   4   3  326.50   37.42
  -1  -4   3  427.26   39.34
   1  -4  -3  346.41   41.79
   1  -4   3  294.13   77.44
   1  -4  -3  397.81   80.85
   2  -4  -3 2361.22  199.82
   2  -4  -3 2502.02  167.38
  -2  -4   3 2466.36  168.74
  -2  -4  -3 2409.31  176.33
   2  -4   3 2350.25  202.99
  -2   4   3 2277.45  170.97
   2   4  -3 2482.07  167.26
  -2   4  -3 2418.65  168.59
   2   4   3 2654.65  199.35
   2   4  -3 1959.86  196.35
  -3  -4   3 1043.26   92.87
  -3  -4  -3 1036.33   97.93
  -3   4   3 1004.32   92.45
   3  -4  -3  991.16   89.51
   3  -4   3 1002.90   88.69
   3   4  -3 1021.53  131.18
   3   4   3 1179.10  127.88
   3  -4  -3  995.53  120.46
  -3   4  -3 1149.38   93.42
   3  -4   3 1084.79  128.21
   4   4  -3  133.58   70.77
  -4   4   3   50.45   35.11
   4  -4  -3  153.90   37.59
   4  -4   3   63.65   53.34
  -4  -4  -3   66.92   38.43
   4  -4  -3  128.14   61.71
  -4  -4   3  222.37   43.39
  -4   4  -3  194.69   41.67
   4   4   3  257.79   78.75
   5   4   3  165.09   76.74
   5  -4  -3  147.90   42.59
   5  -4  -3  219.68   82.28
   5  -4   3  262.40   86.50
   5   4  -3  130.77   80.05
  -5  -4  -3  164.03   52.26
  -5   4  -3  183.05   48.31
  -5  -4   3  150.77   49.51
  -5   4   3  136.45   47.06
   0  -5  -3   69.74   23.62
   0  -5  -3   39.17   50.91
   0  -5   3   36.52   48.79
   0   5  -3   28.80   23.41
   0  -5  -3   79.61   25.28
  -1   5   3 1032.25   82.41
  -1   5  -3 1120.10   89.49
  -1  -5   3  697.55  119.14
   1  -5   3  973.79  143.32
  -1  -5  -3  778.30  100.39
   1   5   3 1026.50   78.06
  -1  -5  -3 1175.74  127.37
   1   5  -3 1259.24   88.08
   1  -5  -3 1035.11   86.00
   1  -5  -3 1054.96  143.35
  -2   5  -3 2251.46  158.19
   2   5   3 2252.09  195.47
   2  -5  -3 2334.75  161.67
   2   5  -3 2279.89  160.35
  -2  -5  -3 2462.68  175.83
   2   5  -3 1725.08  195.59
   2  -5  -3 2018.77  203.07
  -2   5  -3 2258.37  161.60
   2  -5   3 2129.49  209.48
  -2   5   3 2138.63  161.57
  -3   5  -3  927.98   81.37
  -3   5  -3  954.75   88.54
   3   5   3 1037.72  126.07
   3  -5   3  621.98  114.87
   3  -5  -3  900.92   84.91
  -3  -5  -3  782.27   86.38
   3  -5  -3  745.21  118.84
   3   5  -3  713.06  125.74
  -3   5   3  835.42   82.48
   4  -5   3 1272.19  161.60
   4   5   3 1138.18  147.39
   4  -5  -3 1151.13  111.20
  -4   5  -3 1227.88  112.08
  -4   5  -3 1169.66  111.76
  -4   5   3 1382.82  119.46
   4   5  -3 1487.08  170.97
  -4  -5  -3 1352.55  122.29
   4  -5  -3 1307.20  159.11
  -5   5   3  229.20   56.07
   5  -5  -3  301.69   99.52
   5   5  -3  248.65  104.19
   5  -5  -3  202.40   53.95
  -5   5  -3  215.41   51.92
   5  -5   3  321.81   96.56
  -5  -5  -3  281.55   64.74
  -5   5  -3  197.30   53.70
   5   5   3  434.60  104.80
   0  -6  -3 1275.67  154.19
   0  -6   3 1309.75  165.41
   0   6  -3 1314.92  107.24
   0  -6  -3 1370.62  105.41
   1   6   3 1667.69  130.96
  -1  -6  -3 2644.98  208.42
  -1   6   3 2064.05  139.60
   1  -6  -3 1640.11  207.49
   1  -6   3 2111.80  230.97
   1   6  -3 2136.79  142.41
   1  -6  -3 1863.71  141.34
  -1  -6   3 1201.72  181.47
  -1   6  -3 1760.94  142.12
   2   6   3 1026.02  132.93
   2  -6  -3  900.29   88.30
  -2   6   3  802.91   77.62
   2  -6  -3  754.75  136.47
  -2   6  -3  821.89   86.13
   2  -6   3 1086.79  160.48
   3   6   3  253.40   89.41
  -3   6  -3  327.39   56.78
  -3   6   3  323.25   50.11
   3   6  -3  217.73   93.59
   3  -6  -3  325.85   57.87
   3  -6  -3  315.26   99.14
   3  -6   3  268.00   93.52
   4  -6   3  238.44   89.74
   4   6   3  183.03   82.78
   4   6  -3  350.31  108.61
   4  -6  -3  244.16   58.33
  -4   6  -3  261.36   54.99
  -4   6   3  281.52   53.41
   4  -6  -3  302.74   96.91
   0  -7   3  760.25  143.67
   0   7  -3  970.65   91.88
   0  -7  -3 1160.58  151.23
  -1  -7  -3  643.46  119.59
  -1  -7   3  470.86  118.84
  -1   7  -3  596.85   73.33
   1  -7  -3  645.01   73.94
   1  -7  -3  650.93  134.66
   1  -7   3  568.92  135.76
   1   7  -3  567.02   66.24
  -2   7  -3  240.70   53.59
  -2  -7   3  239.50  102.29
   2  -7   3  266.40  110.32
   2  -7  -3  343.35  113.95
   2  -7  -3  335.48   59.33
   3   7   3 2002.94  210.20
  -3   7  -3 2085.88  158.77
   3  -7  -3 1878.29  156.28
   3   7  -3 1324.24  200.49
   3  -7   3 1479.80  217.43
   3  -7  -3 1926.05  231.66
   4   7   3  333.73  101.88
   4   7  -3  193.77  102.70
  -4   7  -3  253.44   61.04
   4  -7  -3   37.22   87.39
   4  -7  -3  291.27   63.71
   0  -8   3   10.77   66.45
   0   8  -3   20.70   30.71
   0  -8  -3  109.93   73.60
   0   8   3   34.63   31.39
   1  -8  -3 1680.09  213.17
  -1   8  -3 1773.29  146.32
  -1  -8  -3 2127.55  221.43
   1  -8   3 1755.83  225.81
   1   8  -3 1692.07  140.18
  -1  -8   3 1694.86  217.97
   2  -8   3   90.10   96.20
   2  -8  -3  120.82   90.97
  -2   8  -3   54.35   40.61
  -2  -8   3   81.31   94.46
   2  -8  -3   33.80   33.46
   3   8  -3  -66.61   68.48
   3  -8  -3   33.08   38.81
   3  -8   3   24.10   88.30
  -3   8  -3   28.59   38.68
   3   8   3  -60.99   66.14
   3  -8  -3  -14.88   78.40
   0   9  -3  285.88   59.80
   0   9   3  376.75   60.55
   0  -9   3  259.99  111.42
   0  -9  -3  490.25  122.08
  -1  -9   3  326.04  118.31
  -1   9  -3  462.68   73.68
  -1  -9  -3  410.14  126.71
  -1   9   3  444.77   66.84
   1  -9  -3  323.75  110.18
   1  -9   3  238.48  114.30
  -2  -9   3  144.08  119.41
  -2   9  -3  361.72   70.99
   2  -9   3  529.87  155.84
   2  -9  -3  362.88  133.14
  -2   9   3  340.02   66.62
   0 -10   3  807.30  178.89
   0 -10  -3  683.91  160.81
   0   0  -4 3065.10  240.33
   0   0  -4 4107.06  219.82
   1   0  -4 1099.65   71.53
  -1   0  -4  985.99   66.26
   1   0   4 1054.02   76.86
  -1   0  -4 1026.81   74.27
   1   0  -4  875.12   73.51
  -1   0   4  941.13   72.95
  -2   0  -4 1395.80   88.51
  -2   0  -4 1404.29  103.78
   2   0  -4 1302.31   92.32
   2   0  -4 1367.25  112.19
  -2   0   4 1438.81  104.06
   2   0   4 1251.48  108.20
   3   0  -4 2348.33  151.64
  -3   0  -4 2327.65  146.06
  -3   0   4 2186.16  169.86
  -3   0  -4 2309.92  170.55
   3   0   4 2401.05  179.98
   3   0  -4 2296.54  181.53
   4   0  -4  176.48   62.77
  -4   0   4  108.75   36.46
  -4   0  -4   64.32   33.76
   4   0   4   64.14   48.70
  -5   0  -4  336.96   61.72
  -5   0   4  388.71   63.55
   5   0  -4  219.36   78.76
   5   0   4  360.96   88.28
  -6   0   4 1035.80  114.50
   6   0  -4  863.78  150.10
   6   0   4  890.26  147.09
  -6   0  -4  830.08  108.71
   0  -1  -4  913.52   63.16
   0   1  -4  987.88   59.23
   0  -1  -4  611.61   51.00
   0  -1  -4  739.80   72.62
   0   1  -4  704.75   59.15
   0  -1   4  788.40   74.53
   1   1   4 4932.79  295.09
   1  -1   4 4596.78  296.31
   1  -1  -4 4480.04  293.34
   1  -1  -4 4736.75  278.10
   1   1  -4 4270.60  281.04
  -1  -1  -4 4299.37  301.58
  -1  -1  -4 4569.25  270.17
  -1   1  -4 4907.69  300.09
  -1  -1   4 4825.44  298.87
   1   1  -4 4402.71  297.23
  -1   1   4 4374.34  301.08
   2   1  -4 3636.00  216.21
   2  -1  -4 3423.99  238.86
   2   1   4 3456.96  238.63
  -2  -1   4 3514.19  236.33
   2  -1   4 3556.27  239.98
  -2  -1  -4 3430.22  238.24
   2   1  -4 3414.29  241.97
  -2   1  -4 3406.49  236.46
   2  -1  -4 3499.73  218.36
  -2   1   4 3474.72  237.92
  -2   1  -4 3495.72  215.14
  -3   1  -4  449.11   48.69
  -3  -1  -4  516.72   61.13
   3  -1  -4  634.25   54.72
  -3   1  -4  549.92   61.32
   3  -1  -4  580.16   77.03
   3  -1   4  616.96   78.51
  -3   1   4  616.79   63.69
   3   1  -4  558.59   49.12
   3   1  -4  636.17   85.07
   3   1   4  687.94   79.27
  -3  -1   4  589.88   62.19
   4  -1   4 1877.71  166.60
   4  -1  -4 1671.67  163.32
  -4   1  -4 1858.93  147.74
  -4   1   4 1750.25  147.72
   4   1   4 1903.09  165.94
   4   1  -4 1717.79  170.29
  -4  -1   4 1824.58  146.33
   4  -1  -4 1837.92  128.95
  -4  -1  -4 1700.94  146.10
  -5  -1   4  296.33   57.10
   5  -1   4  291.39   79.42
  -5  -1  -4  254.27   58.38
  -5   1   4  341.36   61.62
  -5   1  -4  155.58   50.01
   5   1   4  178.59   68.18
   5   1  -4  258.64   80.24
   5  -1  -4  307.48   82.73
  -6  -1   4  132.84   55.42
   6   1  -4   40.05   67.26
   6  -1  -4  175.97   85.44
   6  -1   4   90.47   74.01
  -6   1   4  122.81   54.67
   6   1   4  162.20   76.69
  -6   1  -4  113.53   51.13
  -6  -1  -4   88.85   47.22
   0  -2   4 1924.28  156.59
   0  -2  -4 1850.34  143.31
   0   2  -4 2010.63  123.27
   0  -2  -4 1708.12  140.20
   1   2   4 3620.49  247.65
  -1  -2   4 3870.06  242.37
  -1   2  -4 3610.06  229.63
   1  -2   4 3618.01  254.32
  -1  -2  -4 3780.03  250.74
  -1  -2  -4 3801.35  220.71
  -1   2  -4 3807.63  243.75
   1   2  -4 3646.66  232.18
  -1   2   4 3687.43  247.88
  -1  -2   4 3424.47  253.64
   2  -2   4 1734.71  128.77
   2   2   4 1278.99  122.42
   2  -2  -4 1334.22  119.79
  -2   2  -4 1228.02  102.28
  -2  -2   4 1412.97  109.64
  -2  -2  -4 1757.41  116.80
   2  -2  -4 1395.15  106.07
   2   2  -4 1769.43  109.76
  -2   2   4 1651.29  114.41
   2   2  -4 1448.79  128.07
  -2   2  -4 1478.25  110.95
  -3  -2  -4  840.56   81.38
   3   2   4 1104.57  104.70
   3  -2  -4  717.82   92.09
  -3   2   4  828.49   81.32
  -3  -2   4  994.33   81.99
   3   2  -4  838.75   66.74
  -3   2  -4  971.47   81.26
   3   2  -4  791.01  100.99
   3  -2   4  851.68   97.37
   3  -2  -4  881.62   75.46
   4  -2   4  631.90   94.94
  -4   2   4  660.49   76.20
   4  -2  -4  698.45   68.26
  -4  -2  -4  608.70   74.76
  -4   2  -4  705.40   65.95
   4  -2  -4  571.08   92.30
  -4  -2   4  689.52   76.38
   4   2  -4  557.96   99.22
   4   2   4  709.01  101.00
  -4   2  -4  648.37   73.87
  -5  -2  -4  608.21   81.79
  -5   2  -4  653.71   80.77
   5  -2  -4  560.62  105.21
  -5  -2   4  506.95   75.59
   5  -2   4  536.22  101.10
   5   2   4  507.07  102.85
  -5   2   4  551.35   77.44
   5   2  -4  566.19  110.35
  -6   2  -4  444.82   75.95
   6   2   4  387.55  107.49
  -6   2   4  435.38   77.95
  -6  -2   4  380.90   74.86
   6   2  -4  121.76   89.28
   6  -2  -4  433.56  112.37
  -6  -2  -4  365.39   77.95
   6  -2   4  401.68  105.41
   0  -3  -4 3853.67  267.68
   0  -3  -4 3551.10  237.45
   0  -3   4 4257.08  290.90
   0  -3  -4 3756.26  274.89
   0   3  -4 4128.93  242.21
   1   3  -4 2361.88  142.73
  -1  -3  -4 2252.37  162.83
  -1   3  -4 1973.29  140.63
   1  -3  -4 2097.21  170.99
   1  -3  -4 1964.12  140.36
  -1   3   4 2231.03  149.42
  -1  -3   4 1991.51  140.11
  -1  -3   4 1763.53  166.01
  -1  -3  -4 2150.26  131.20
   1  -3   4 2279.05  176.93
  -1   3  -4 2159.89  142.30
  -2  -3  -4 1399.77  106.97
  -2   3  -4 1242.67   98.40
  -2   3  -4 1204.61   98.89
   2  -3   4 1337.84  122.29
   2  -3  -4 1243.44  119.66
   2   3   4 1395.73  122.76
  -2   3   4 1316.91  103.11
   2  -3  -4 1275.01   99.35
   2   3  -4 1367.31  105.33
   2   3  -4 1333.27  125.83
  -2  -3   4 1387.75   99.69
  -3   3  -4 2812.07  195.81
   3  -3   4 2996.93  229.68
   3  -3  -4 2947.64  198.37
   3  -3  -4 2852.59  227.03
  -3   3  -4 2946.87  210.06
   3   3  -4 2992.63  235.75
   3   3   4 2905.70  228.39
  -3  -3   4 2968.49  209.58
  -3   3   4 3021.21  213.92
  -3  -3  -4 2901.89  214.56
   4  -3   4  207.68   64.80
   4   3   4  218.71   68.25
  -4  -3  -4  206.24   48.19
  -4  -3   4  295.41   49.85
  -4   3   4  201.12   46.96
   4  -3  -4  197.48   64.16
   4   3  -4  181.18   70.94
  -4   3  -4  185.75   43.20
  -4   3  -4  290.99   42.91
   4  -3  -4  163.95   39.28
   5   3   4  840.32  126.12
   5  -3  -4  680.91  115.68
  -5   3  -4  670.23   86.01
   5   3  -4  773.44  128.90
   5  -3   4  590.97  113.83
  -5  -3  -4  644.59   87.62
  -5  -3   4  636.29   82.28
  -5   3   4  630.51   85.40
   0  -4  -4  163.77   32.88
   0  -4   4  174.30   61.73
   0   4  -4  185.11   31.11
   0  -4  -4  105.11   51.79
   0  -4  -4  176.25   27.41
  -1   4  -4 3869.96  247.01
  -1  -4   4 3957.06  248.12
   1  -4  -4 3811.96  241.72
   1   4  -4 3662.21  238.32
  -1  -4  -4 3635.36  230.47
  -1   4  -4 3808.93  242.64
   1  -4  -4 3683.97  290.69
  -1  -4   4 3045.30  274.99
  -1   4   4 3806.31  255.36
  -1  -4  -4 3990.26  274.94
  -1  -4  -4 3804.16  271.30
  -2   4  -4 1554.62  117.90
   2  -4   4 1279.58  147.27
  -2   4   4 1434.13  117.95
  -2  -4   4 1601.57  114.50
   2   4   4 1678.37  143.00
  -2   4  -4 1659.04  115.91
   2   4  -4 1249.76  148.56
   2  -4  -4 1884.83  122.63
   2   4  -4 1610.76  122.53
  -2  -4  -4 1299.83  120.47
   2  -4  -4 1718.94  152.65
  -3   4   4  161.80   38.36
   3   4  -4  124.42   70.21
   3  -4   4  246.80   69.34
   3   4   4  285.55   71.58
  -3   4  -4  261.26   42.79
  -3  -4   4  318.93   43.82
  -3   4  -4  244.85   43.62
   3  -4  -4  244.08   44.00
   3  -4  -4  164.13   56.90
  -3  -4  -4  338.02   51.88
  -4  -4  -4 1187.67  114.62
   4   4  -4 1097.17  146.69
  -4   4  -4 1045.74  100.18
   4  -4  -4 1295.61  107.73
   4   4   4 1272.43  141.28
  -4   4  -4 1127.59  107.02
  -4  -4   4 1252.62  108.60
   4  -4  -4 1213.69  144.37
   4  -4   4 1237.36  148.39
  -4   4   4 1186.57  111.36
  -5  -4   4  595.12   79.51
  -5   4  -4  534.26   76.72
   5   4   4  561.27  112.46
  -5  -4  -4  532.01   81.98
  -5   4   4  646.10   82.72
   5   4  -4  418.90  110.93
   5  -4  -4  487.35  107.22
   5  -4  -4  556.43   72.22
   5  -4   4  482.71  107.10
   0  -5  -4 1492.76  152.12
   0  -5   4 1409.76  163.31
   0  -5  -4 1516.97  119.82
   0  -5  -4 1467.93  109.43
   0   5  -4 1582.79  115.87
   1  -5  -4  655.50  115.99
   1  -5   4  477.57  114.96
   1  -5  -4  828.21   70.60
   1   5  -4  750.84   69.41
  -1   5   4  737.29   65.23
  -1  -5  -4  759.42   60.75
  -1  -5   4  673.16  111.26
  -1  -5  -4  549.48   84.15
  -1   5  -4  746.53   70.51
  -1  -5  -4  770.05  105.04
   2  -5  -4 1442.90  165.52
  -2   5  -4 1523.86  113.43
  -2   5   4 1428.15  117.41
   2  -5  -4 1590.80  120.56
  -2  -5  -4 1468.47  130.94
   2   5  -4 1183.04  158.70
  -2   5  -4 1497.83  119.82
   2   5   4 1806.13  159.87
   2  -5   4 1530.44  171.42
   2   5  -4 1630.23  124.20
  -3   5  -4 1900.51  148.85
   3  -5  -4 1765.18  184.30
   3   5   4 1869.43  184.13
  -3   5   4 2056.79  154.12
  -3  -5  -4 2030.87  159.97
  -3   5  -4 1997.04  148.65
   3  -5   4 1929.14  192.43
   3   5  -4 1720.66  195.75
   3  -5  -4 1919.41  148.51
   4   5   4  601.72  104.42
   4  -5   4  236.25   83.29
   4  -5  -4  380.01   61.48
   4  -5  -4  619.32  110.25
  -4  -5  -4  410.21   69.13
   4   5  -4  465.80  111.06
  -4   5   4  436.03   65.48
  -4   5  -4  575.62   69.27
  -4   5  -4  598.14   68.41
  -5  -5  -4  471.51   77.78
   5  -5  -4  292.26   61.94
   5  -5  -4  511.02  119.08
  -5   5  -4  491.36   71.37
   5  -5   4  325.75  103.92
  -5   5   4  357.90   68.01
   5   5   4  277.18   91.53
   5   5  -4  375.84  110.89
   0  -6  -4 2610.76  182.26
   0  -6   4 2283.35  231.71
   0  -6  -4 2419.46  170.37
   0  -6  -4 2574.16  226.58
   0   6  -4 2343.36  174.48
   1   6  -4 1158.80   98.36
  -1  -6   4 1059.10  154.37
  -1  -6  -4  843.81  108.99
   1   6   4 1216.17   90.59
   1  -6   4  856.90  160.45
   1  -6  -4 1506.50  178.17
  -1   6  -4 1330.16  104.67
  -1   6   4 1021.71   92.55
   1  -6  -4 1404.33  103.00
  -1  -6  -4 1319.85  151.82
   2   6   4  529.05   97.27
   2  -6  -4  612.09   69.05
   2  -6   4  385.11  110.43
  -2   6  -4  497.44   66.40
  -2   6   4  556.09   59.96
   2  -6  -4  606.78  121.01
  -3   6   4  630.00   71.06
   3   6  -4  566.59  124.69
   3  -6  -4  637.97  122.86
   3  -6   4  759.14  136.09
  -3   6  -4  640.30   76.75
   3  -6  -4  647.13   76.81
   3   6   4  462.17  100.43
   4  -6  -4  479.05  118.39
  -4   6   4  288.87   57.19
   4  -6   4  431.87  112.22
  -4   6  -4  409.29   64.77
   4   6  -4  244.00  101.84
   4   6   4  425.90  101.93
   4  -6  -4  388.52   66.64
   0   7  -4   95.01   38.63
   0  -7  -4  142.54   36.66
   0  -7  -4  154.03   72.47
   0  -7   4  258.33   89.75
  -1  -7  -4 1466.26  177.40
   1  -7  -4 1786.50  133.13
  -1   7  -4 1739.26  135.02
   1  -7   4 1574.33  207.22
  -1  -7   4 1534.16  196.66
   1   7  -4 1312.66  124.27
   1  -7  -4 1908.22  208.99
   2  -7  -4 1116.96  172.19
  -2   7  -4 1128.60  106.81
   2  -7   4 1009.71  176.61
   2  -7  -4 1129.12  104.32
  -2  -7   4  729.22  151.40
   3   7   4  159.32   80.37
   3  -7  -4  164.90   51.72
   3  -7  -4    4.71   67.05
   3   7  -4  -45.62   68.32
  -3   7  -4   51.21   39.58
   3  -7   4   58.47   90.04
   4   7  -4  556.03  150.41
   4  -7  -4  829.65   99.35
  -4   7  -4  929.89  103.40
   4   7   4  822.43  144.94
   4  -7  -4  815.91  157.69
   4  -7   4  776.63  162.67
   0  -8   4 1636.64  214.86
   0   8  -4 1812.36  146.43
   0   8   4 1826.35  140.90
   0  -8  -4 1794.31  203.20
   1  -8   4  279.12  105.47
  -1   8  -4  264.42   56.10
  -1  -8   4  263.69  104.49
  -1  -8  -4  285.55   98.15
   1  -8  -4  257.18   55.58
   1  -8  -4  254.00  103.06
   1   8  -4  249.52   52.75
  -2   8  -4  854.85   95.63
   2  -8  -4  741.30   91.62
   2  -8   4  852.85  176.29
   2  -8  -4  615.52  157.99
  -2  -8   4  600.66  149.83
   3  -8  -4  714.17   95.21
   3   8  -4  526.74  146.39
   3  -8  -4  580.43  152.13
  -3   8  -4  922.89  102.40
   3  -8   4  809.02  170.63
   3   8   4  458.38  123.33
   0  -9  -4  169.40   88.44
   0  -9   4  203.96   95.44
   0   9  -4  201.66   53.94
   0   9   4  171.78   46.87
  -1  -9  -4  972.25  159.86
  -1   9   4  647.09   85.72
  -1  -9   4  640.60  151.12
  -1   9  -4  926.05  102.69
   1  -9   4  984.30  171.24
   1  -9  -4  665.70  144.05
   2  -9   4  638.57  167.62
   2  -9  -4  828.52  172.71
  -2  -9   4  231.09  130.98
  -2   9  -4  638.97   89.82
   0   0  -5  -15.98   15.93
   0   0  -5   -6.34   21.42
  -1   0  -5 7031.68  412.45
  -1   0  -5 6991.47  451.01
   1   0  -5 6974.00  416.21
   1   0   5 7046.19  433.95
   1   0  -5 6964.19  435.01
  -1   0   5 6737.06  449.87
  -2   0  -5 3651.13  219.21
  -2   0  -5 3657.20  246.67
   2   0  -5 3557.41  247.07
  -2   0   5 3634.13  245.68
   2   0   5 3517.27  244.16
   2   0  -5 3651.45  225.31
   3   0  -5  355.02   40.21
  -3   0  -5  394.77   37.47
  -3   0   5  422.23   51.40
   3   0  -5  387.37   64.04
   3   0   5  350.18   59.17
  -3   0  -5  339.69   48.73
   4   0   5 1284.72  133.47
   4   0  -5 1406.54  144.59
  -4   0  -5 1316.11  119.33
  -4   0   5 1388.81  118.92
   5   0  -5  376.67   90.01
   5   0   5  596.63   99.53
  -5   0  -5  397.81   68.66
  -5   0   5  439.50   70.74
   6   0   5   50.69   73.94
  -6   0   5  108.78   51.77
  -6   0  -5   43.75   49.76
   6   0  -5   72.89   76.94
   0  -1   5 3046.92  203.96
   0   1  -5 2560.79  200.12
   0  -1  -5 2572.89  210.68
   0  -1  -5 3293.66  182.87
   0   1  -5 3265.08  187.53
   0  -1  -5 3058.76  190.96
  -1   1   5 2359.38  169.64
   1  -1  -5 2571.50  158.20
   1  -1  -5 2757.70  168.36
   1  -1   5 2585.46  171.01
   1   1   5 2639.90  168.08
  -1   1  -5 2549.54  167.89
  -1  -1  -5 2453.60  151.41
  -1   1  -5 2327.00  155.83
  -1  -1   5 2548.08  166.68
   1   1  -5 2288.37  162.97
  -1  -1  -5 2360.65  170.66
   2   1  -5 2042.16  141.29
   2  -1  -5 2253.59  143.58
   2   1  -5 1891.82  159.41
  -2   1   5 2068.75  154.11
   2   1   5 2290.10  159.54
  -2   1  -5 2345.59  140.12
  -2   1  -5 2178.07  153.51
   2  -1  -5 2129.45  159.16
  -2  -1   5 2266.69  153.45
  -2  -1  -5 2187.45  131.69
   2  -1   5 2050.22  158.41
  -2  -1  -5 2052.02  155.07
  -3   1  -5 3025.73  211.25
   3   1   5 3053.98  219.88
   3  -1  -5 3219.31  224.56
  -3   1   5 2795.01  209.93
  -3   1  -5 3114.00  187.95
   3   1  -5 2680.69  222.71
  -3  -1   5 3039.41  210.04
  -3  -1  -5 2716.62  210.74
   3   1  -5 2743.62  186.00
   3  -1   5 2934.08  218.41
   3  -1  -5 2988.33  191.00
   4   1   5  276.42   66.41
  -4   1  -5  177.14   44.56
   4   1  -5  278.35   74.41
   4  -1   5  345.35   72.28
   4  -1  -5  172.37   60.54
  -4  -1  -5  285.41   50.80
   4  -1  -5  262.42   40.32
  -4   1   5  307.46   52.20
  -4  -1   5  199.72   45.90
   5  -1  -5  671.09  115.84
   5  -1   5  857.20  115.92
  -5   1   5  661.56   83.44
  -5  -1  -5  556.49   80.86
   5   1  -5  614.77  109.45
   5   1   5  613.30  106.34
  -5   1  -5  649.68   82.91
  -5  -1   5  587.21   81.59
  -6  -1   5  629.62   91.22
  -6   1   5  550.70   90.30
   6   1  -5  447.80  117.59
   6   1   5  555.39  118.97
  -6  -1  -5  587.76   90.03
   6  -1  -5  558.77  125.17
  -6   1  -5  499.66   87.46
   6  -1   5  602.29  119.04
   0  -2  -5 2872.30  244.48
   0   2  -5 3689.49  218.80
   0  -2   5 3853.13  253.66
   0  -2  -5 3738.44  239.72
  -1  -2   5 3188.40  249.43
  -1   2  -5 3506.51  227.41
   1   2   5 3502.29  242.58
  -1  -2  -5 3961.87  219.07
   1  -2  -5 3500.21  227.88
   1  -2   5 3919.08  253.58
  -1   2  -5 3637.05  240.57
   1  -2  -5 3459.29  245.61
  -1  -2   5 3627.49  238.96
   1   2  -5 4024.98  233.86
  -1  -2  -5 3798.82  249.78
  -2  -2  -5 2211.26  171.32
   2  -2  -5 2590.86  160.74
   2   2  -5 2046.49  179.24
   2  -2   5 2316.11  179.02
  -2   2  -5 2537.65  158.59
   2  -2  -5 2467.93  178.00
   2   2  -5 2250.44  160.66
   2   2   5 2535.04  179.99
  -2   2  -5 2662.31  170.42
  -2   2   5 2203.26  170.19
  -2  -2   5 2527.61  168.43
  -3  -2  -5 2368.69  166.51
   3   2  -5 2281.83  142.77
  -3   2   5 2246.32  162.89
   3  -2  -5 2163.49  149.80
  -3  -2   5 2106.79  158.35
   3  -2  -5 2036.65  171.47
   3   2   5 1966.43  171.38
  -3   2  -5 2121.08  159.41
  -3   2  -5 1945.73  144.56
   3   2  -5 2112.69  179.99
   3  -2   5 2101.94  172.35
   4   2   5 1145.68  129.70
   4   2  -5 1190.78  138.25
  -4   2   5 1239.19  112.30
   4  -2  -5 1171.66   99.74
  -4   2  -5 1205.11  110.19
  -4  -2   5 1235.11  108.37
   4  -2  -5 1147.52  129.83
  -4  -2  -5 1215.63  113.17
   4  -2   5 1277.69  129.03
  -5   2   5  704.53   87.09
   5   2   5  601.84  104.92
   5  -2   5  723.23  110.77
  -5  -2   5  553.70   79.26
  -5  -2  -5  743.49   88.82
  -5   2  -5  600.98   80.01
   5  -2  -5  668.15  112.65
   5   2  -5  374.29  102.20
  -6  -2  -5  317.64   74.93
   6   2   5  321.84  105.98
   6  -2  -5  241.59  102.68
   6  -2   5  274.34   95.06
   6   2  -5  207.98   96.08
  -6   2  -5  314.43   70.49
  -6  -2   5  429.69   76.12
  -6   2   5  408.83   78.14
   0  -3  -5 1651.39  111.00
  -1   3  -5 5581.61  353.67
  -1  -3   5 5146.46  387.99
   1  -3   5 5796.38  397.63
  -1  -3  -5 6229.05  381.70
  -1  -3  -5 5763.63  343.37
   1  -3  -5 5810.13  391.59
   1   3  -5 5685.05  354.72
  -1  -3  -5 6188.39  391.67
   1  -3  -5 5806.63  354.37
  -1  -3   5 5672.60  371.07
  -1   3  -5 5749.94  373.26
  -2   3   5 2421.57  171.62
  -2   3  -5 2320.75  160.86
   2   3  -5 2254.76  187.93
   2  -3   5 2693.80  193.46
   2  -3  -5 2387.12  185.05
   2   3  -5 2472.11  168.64
   2  -3  -5 2351.48  162.19
   2   3   5 2470.28  183.34
  -2   3  -5 2406.79  167.13
  -2  -3   5 2250.22  164.83
  -2  -3  -5 2334.86  173.97
   3   3  -5  434.79   85.99
  -3   3   5  424.96   59.43
  -3   3  -5  583.17   61.28
   3  -3  -5  545.52   59.93
  -3  -3  -5  431.39   62.31
   3   3   5  711.10   87.26
  -3   3  -5  580.15   59.24
  -3  -3   5  580.14   60.14
   3  -3   5  567.12   82.49
   3  -3  -5  612.20   83.53
   4   3  -5 1591.85  157.01
   4   3   5 1294.93  145.16
   4  -3  -5 1366.15  114.70
  -4   3   5 1454.38  125.53
  -4   3  -5 1316.87  120.54
   4  -3  -5 1415.55  143.66
   4  -3   5 1524.89  147.79
  -4  -3   5 1325.10  119.74
  -4  -3  -5 1555.24  129.33
  -4   3  -5 1285.36  109.44
   5  -3   5  393.52   96.63
   5   3   5  322.99   88.91
  -5  -3   5  459.30   68.71
  -5  -3  -5  491.03   75.49
  -5   3   5  451.13   71.12
   5  -3  -5  319.06   90.01
  -5   3  -5  415.60   67.16
   5   3  -5  502.52  111.75
   0  -4   5 5283.84  390.46
   0  -4  -5 5405.34  368.14
   0  -4  -5 5306.80  375.50
   0  -4  -5 5496.46  331.63
   0   4  -5 5382.40  335.10
  -1  -4  -5  514.52   69.77
  -1  -4   5  427.96   83.97
  -1   4  -5  515.94   55.44
  -1  -4   5  581.83   44.71
   1  -4  -5  529.40   54.61
  -1  -4  -5  548.25   46.39
  -1  -4  -5  578.14   75.85
   1   4  -5  624.08   59.33
   1  -4   5  509.06   93.70
   1  -4  -5  592.31   93.27
  -1   4  -5  530.12   44.41
   2  -4  -5 1346.06  131.90
   2   4   5 1410.41  126.33
  -2  -4   5 1451.88   99.63
   2   4  -5 1090.55  107.26
   2  -4  -5 1472.75  106.58
   2  -4   5 1159.50  134.14
  -2   4  -5 1306.37  104.48
   2   4  -5 1137.34  135.85
  -2   4  -5 1345.41   99.68
  -2   4   5 1104.40  101.58
   3   4  -5 1693.09  175.39
   3  -4  -5 1687.94  137.97
  -3  -4   5 1806.10  138.99
   3  -4   5 1872.32  173.58
   3  -4  -5 1703.29  167.02
   3   4   5 1884.63  169.45
  -3   4  -5 1790.76  139.91
  -3   4   5 1936.92  146.07
  -3   4  -5 1719.40  136.84
  -3  -4  -5 2074.47  152.35
   4  -4   5   59.96   55.11
  -4   4   5   80.85   36.70
   4   4  -5   45.58   61.22
  -4  -4  -5  112.04   43.13
   4  -4  -5   97.78   35.40
  -4   4  -5  156.94   40.18
  -4  -4   5   76.35   34.35
   4  -4  -5  230.74   67.93
  -4   4  -5   85.92   33.50
   4   4   5  147.23   65.32
   5   4  -5  460.95  111.46
  -5   4   5  370.92   68.79
   5  -4   5  483.90  104.52
   5   4   5  454.78  101.00
  -5  -4  -5  434.89   75.02
  -5   4  -5  449.23   69.09
   5  -4  -5  538.14  106.56
   5  -4  -5  445.00   65.38
   0  -5  -5  752.22   66.02
   0   5  -5  673.75   68.33
   0  -5   5  769.91  118.86
   0  -5  -5  698.93  104.15
   0  -5  -5  774.34   75.28
  -1  -5   5 1752.64  182.60
  -1  -5  -5 1447.90  150.59
   1  -5  -5 2075.36  134.38
  -1   5   5 1658.98  132.25
   1   5  -5 1816.00  131.22
  -1   5  -5 1668.42  131.10
  -1  -5  -5 2236.67  173.81
   1  -5  -5 1768.76  183.07
   1  -5   5 1736.15  195.02
  -1  -5  -5 1751.55  119.99
   2  -5   5 2253.02  210.75
   2  -5  -5 2159.40  202.28
  -2   5   5 2051.40  156.27
   2  -5  -5 1908.44  152.35
   2   5  -5 2314.26  160.68
  -2  -5  -5 2248.55  172.49
   2   5   5 2045.42  185.28
   2   5  -5 1965.01  197.73
  -2   5  -5 1990.47  153.08
   3   5  -5  308.37   96.05
   3   5   5  469.73   88.48
  -3   5   5  455.39   57.81
  -3   5  -5  350.17   50.64
   3  -5  -5  335.99   55.84
   3  -5   5  400.04   91.84
   3  -5  -5  327.77   83.92
  -3   5  -5  498.39   62.70
  -4  -5  -5  513.93   78.98
   4  -5  -5  541.12   72.50
   4  -5   5  742.07  119.97
   4   5   5  623.34  105.59
  -4   5  -5  614.00   73.18
   4  -5  -5  495.25  106.38
   4   5  -5  737.86  129.56
  -4   5   5  667.01   79.60
  -4   5  -5  686.52   75.31
  -5  -5  -5  371.80   71.22
   5  -5   5  403.55  107.58
   5   5   5  309.64   97.51
   5   5  -5  169.50   91.75
  -5   5   5  376.67   65.62
   5  -5  -5  255.72   56.50
   5  -5  -5   88.98   76.09
  -5   5  -5  289.48   60.91
   0  -6  -5 1390.07  108.85
   0  -6   5 1383.86  163.74
   0  -6  -5 1140.08   97.57
   0  -6  -5 1163.87  145.90
   0   6  -5 1080.85  101.58
  -1  -6  -5 1520.21  147.84
  -1   6   5 1148.93   93.41
  -1  -6  -5 1074.08  112.67
  -1  -6   5  821.04  140.76
   1  -6   5 1045.49  167.44
   1  -6  -5  870.71  145.52
  -1   6  -5  871.69   93.16
   1   6  -5 1178.22   98.21
   1  -6  -5 1165.84   95.88
   2  -6  -5  845.43   85.56
   2  -6  -5  726.67  133.51
  -2   6  -5  699.38   81.48
   2  -6   5  606.76  130.39
   2   6   5  930.17  119.15
  -2   6   5  815.90   76.59
  -2  -6  -5  877.87  102.90
   3   6  -5  521.12  121.90
  -3   6  -5  675.16   77.53
   3   6   5  545.44  104.76
   3  -6   5  530.84  119.98
   3  -6  -5  646.41   76.09
  -3   6   5  471.86   65.19
   3  -6  -5  730.88  125.28
   4   6  -5  853.40  145.97
   4  -6   5  767.13  142.22
   4   6   5  682.69  119.36
   4  -6  -5  648.79   83.15
  -4   6   5  714.22   84.76
   4  -6  -5  617.01  124.97
  -4   6  -5  581.02   78.64
   0   7  -5 1770.41  142.74
   0  -7  -5 1974.19  193.62
   0  -7  -5 1810.73  138.90
   0  -7   5 1746.95  205.40
  -1  -7  -5  282.25   87.36
   1   7  -5  326.83   53.07
   1  -7   5  175.68   90.56
  -1  -7   5  357.55  108.29
   1  -7  -5  446.80  111.80
  -1   7  -5  326.06   56.14
   1  -7  -5  325.70   55.10
   2  -7   5  658.44  152.26
  -2  -7   5  427.46  121.99
  -2   7  -5  560.94   75.64
   2  -7  -5  542.10   73.09
   2   7   5  701.82  116.49
   2  -7  -5  578.47  132.04
   3  -7  -5  963.87  159.61
  -3   7  -5  796.50   95.04
   3   7   5  837.42  130.46
   3  -7  -5  838.79   95.88
   3  -7   5  745.17  160.59
   3   7  -5  769.63  151.21
   4   7  -5   11.73   98.92
   4  -7   5  288.69  112.65
   4   7   5  231.59   94.09
   4  -7  -5   63.55   46.31
   4  -7  -5  -23.37   72.42
  -4   7  -5  211.44   56.78
   0  -8  -5   37.28   59.27
   0  -8   5   56.92   77.10
   0   8  -5   -4.96   27.95
   1  -8  -5 1363.64  121.43
   1   8  -5 1213.61  115.80
  -1  -8   5 1277.48  190.23
  -1   8  -5 1267.38  122.61
   1  -8   5 1135.21  185.53
   1  -8  -5 1411.23  182.96
  -1  -8  -5 1573.36  181.20
   2  -8  -5  641.08  152.27
  -2  -8   5  412.26  134.26
  -2   8  -5  443.61   73.70
   2  -8   5  762.85  170.90
   2  -8  -5  579.80   81.30
   2   8   5  475.47  106.92
   3  -8  -5  -81.71   63.69
  -3   8  -5   19.16   40.78
   3   8  -5  -35.99   77.57
   3   8   5  -22.56   65.76
   3  -8   5   14.97   82.48
   3  -8  -5   62.52   46.37
   0  -9  -5  784.07  145.95
   0   9   5  842.44   88.87
   0  -9   5  723.85  155.29
   0   9  -5  791.64   92.45
  -1  -9   5  318.49  119.12
  -1   9  -5  425.33   72.98
  -1   9   5  476.74   69.71
   1  -9   5  367.94  120.40
  -1  -9  -5  594.86  132.54
   1  -9  -5  425.94  122.43
  -2   9  -5  334.76   71.43
  -2  -9   5  157.97  121.34
   2  -9  -5  275.20   68.35
   2   9   5  538.96  121.57
   2  -9  -5  297.60  119.35
   2  -9   5  183.69  124.74
   0   0  -6 4422.10  318.99
   0   0  -6 4938.60  289.58
  -1   0   6 1686.75  122.61
  -1   0  -6 1725.98  114.54
  -1   0  -6 1685.34  123.51
   1   0   6 1802.01  120.05
   1   0  -6 1798.98  121.37
   1   0  -6 1826.39  118.81
  -2   0   6  689.61   60.60
   2   0   6  648.98   66.49
  -2   0  -6  591.55   49.68
   2   0  -6  612.36   68.73
  -2   0  -6  628.31   59.35
   2   0  -6  753.40   58.00
  -3   0  -6 3913.40  277.91
   3   0  -6 3863.03  251.31
   3   0  -6 3892.69  284.00
  -3   0  -6 4158.79  244.47
  -3   0   6 3965.36  277.34
   3   0   6 4092.84  281.65
  -4   0  -6   65.11   34.45
   4   0  -6   92.17   26.12
  -4   0   6   28.18   29.57
   4   0   6   64.05   47.33
   4   0  -6  128.91   52.18
  -5   0  -6 1398.44  132.77
   5   0  -6 1290.78  157.23
   5   0   6 1449.01  157.30
  -5   0   6 1428.72  130.82
  -6   0   6  246.70   66.01
   6   0  -6  358.08  106.79
   6   0   6  373.18  105.94
  -6   0  -6  204.32   63.71
   0   1  -6  231.97   32.32
   0   1  -6  166.08   31.85
   0  -1  -6  152.51   22.22
   0  -1  -6  166.95   22.66
   0  -1   6  183.99   38.47
   0  -1  -6  144.32   39.30
   1  -1  -6 7179.85  421.67
  -1  -1  -6 6270.63  396.89
   1   1   6 7502.36  421.40
   1  -1   6 6424.86  423.69
  -1   1  -6 7015.98  401.39
   1   1  -6 6257.29  423.89
  -1   1  -6 7019.65  434.86
   1   1  -6 6257.11  407.83
  -1  -1   6 7011.80  433.57
  -1  -1  -6 5981.99  437.42
   2   1   6 2287.13  154.71
   2  -1  -6 2111.92  138.08
  -2  -1  -6 1919.70  148.05
   2   1  -6 1923.39  154.25
  -2   1   6 1909.27  146.91
   2   1  -6 1965.25  137.50
  -2  -1   6 2146.91  146.68
  -2   1  -6 2051.53  146.89
  -2  -1  -6 1985.84  127.22
  -2   1  -6 2222.16  135.17
   2  -1  -6 2163.34  153.20
   2  -1   6 1852.63  150.31
  -3   1  -6  492.71   60.26
  -3   1  -6  516.80   51.27
   3  -1  -6  591.89   78.32
   3   1   6  572.20   74.12
   3  -1  -6  517.06   54.44
   3   1  -6  591.50   84.38
   3   1  -6  663.73   56.05
  -3  -1   6  517.42   59.91
   3  -1   6  611.91   76.20
  -3   1   6  587.07   61.83
  -3  -1  -6  601.37   65.66
  -4  -1   6  943.74   88.67
  -4   1   6  680.83   82.28
  -4   1  -6  932.87   88.67
   4  -1  -6  850.75   75.63
  -4  -1  -6  746.42   85.58
   4   1   6  875.22  104.94
   4   1  -6  723.63  107.65
   4  -1   6  649.98   96.86
   4  -1  -6  856.31  109.12
   5   1  -6  633.12  115.46
   5  -1   6  598.73  104.19
  -5   1   6  662.39   86.92
   5  -1  -6  737.48  117.84
   5   1   6  741.19  114.14
  -5  -1  -6  639.42   87.77
  -5   1  -6  768.30   88.68
  -5  -1   6  816.47   90.47
   6   1  -6   25.98   66.45
   6  -1   6  142.72   80.09
  -6  -1  -6  118.42   53.64
  -6   1  -6   98.41   51.50
  -6   1   6  157.89   57.42
   6  -1  -6   20.49   63.84
  -6  -1   6  145.16   54.23
   6   1   6    9.06   68.57
   0   2  -6 1619.00  113.82
   0  -2   6 1950.83  143.59
   0  -2  -6 1806.99  128.09
   0  -2  -6 1627.85  110.61
   0   2  -6 1804.97  116.88
   0  -2  -6 1582.85  136.55
   1  -2   6 2805.58  209.48
   1  -2  -6 2915.15  205.25
  -1   2  -6 2989.52  189.38
   1  -2  -6 3059.25  189.84
  -1  -2   6 3117.36  213.74
  -1  -2  -6 2733.06  206.95
   1  -2  -6 3118.18  205.81
   1   2  -6 2765.72  194.17
  -1  -2   6 3045.30  195.98
  -1  -2  -6 2863.50  179.92
   1   2   6 3033.72  201.22
  -1   2  -6 3118.06  197.98
   2  -2   6 2880.43  195.87
   2  -2  -6 2465.77  188.21
  -2   2  -6 2622.26  171.13
  -2   2  -6 2669.85  182.68
   2   2  -6 2518.52  195.26
   2   2   6 2479.27  188.51
   2  -2  -6 2580.98  173.16
  -2  -2  -6 2539.68  187.55
  -2  -2   6 2518.95  180.40
  -2   2   6 2691.72  186.31
   2   2  -6 2848.16  178.97
   3   2  -6 2030.49  173.16
  -3  -2   6 1991.90  151.28
   3  -2   6 2019.39  165.33
  -3   2   6 2135.15  155.89
   3  -2  -6 1959.50  165.39
  -3   2  -6 2016.48  140.07
  -3  -2  -6 2035.68  156.49
   3   2  -6 2109.88  138.86
   3  -2  -6 1990.45  143.33
   3   2   6 1982.57  164.80
  -3   2  -6 1846.99  151.20
   4  -2  -6 1335.53  109.93
  -4   2  -6 1372.73  119.26
   4   2  -6 1394.20  150.01
  -4  -2   6 1541.61  122.70
   4   2   6 1362.36  141.52
   4  -2  -6 1385.40  141.35
  -4   2   6 1293.16  121.28
  -4  -2  -6 1391.20  123.62
   4  -2   6 1310.81  140.91
  -5  -2  -6  577.15   83.88
   5  -2  -6  545.94  104.11
   5  -2   6  636.18  109.12
  -5  -2   6  734.89   85.26
  -5   2   6  534.58   79.28
   5   2  -6  482.76  106.30
   5   2   6  766.74  113.52
  -5   2  -6  595.00   81.00
   6  -2   6  325.00   94.93
   6  -2  -6  279.30  104.21
   6   2   6   85.48   70.37
   6   2  -6  174.50   94.16
   0  -3  -6 8997.23  557.10
   0  -3  -6 7240.18  569.77
   0  -3   6 9178.84  574.57
   0   3  -6 9184.24  518.41
  -1   3  -6 1035.69   70.18
  -1  -3   6  907.28   99.19
   1  -3  -6  890.54   78.41
  -1  -3  -6  882.09   87.65
  -1   3  -6  973.84   78.53
   1  -3   6  853.67  102.75
   1  -3  -6 1017.31   77.56
  -1  -3  -6  902.24   65.97
   1   3  -6  842.30   78.64
  -1  -3   6  962.31   67.00
  -2   3  -6 1829.37  138.26
   2   3   6 1827.36  154.25
   2   3  -6 2010.17  145.74
  -2   3   6 2000.17  144.70
   2   3  -6 1941.99  163.67
  -2  -3   6 1940.65  137.00
   2  -3   6 2237.28  166.73
  -2  -3  -6 1974.63  148.19
   2  -3  -6 1858.81  137.03
   2  -3  -6 1950.94  156.84
  -2   3  -6 1807.38  134.89
  -3  -3  -6 1188.22  103.19
   3   3   6 1118.16  117.64
  -3   3  -6 1067.43   90.01
   3   3  -6 1104.75  124.40
   3  -3  -6 1071.57   92.45
   3  -3  -6 1106.58  116.75
   3  -3   6 1253.31  118.68
  -3   3   6 1019.91   95.30
  -3  -3   6  945.26   90.60
  -3   3  -6 1105.92   94.46
   4  -3  -6  155.98   61.14
   4  -3   6  145.51   60.11
  -4  -3  -6  220.72   50.55
   4  -3  -6  234.58   43.36
   4   3   6  273.25   70.46
  -4   3   6  145.78   43.27
  -4  -3   6  222.33   44.04
   4   3  -6   64.69   60.16
  -4   3  -6   70.06   35.83
  -4   3  -6  203.61   39.11
   5  -3  -6  431.12   97.03
  -5   3  -6  561.56   73.89
  -5  -3  -6  360.29   70.55
  -5  -3   6  474.51   70.82
   5  -3   6  387.96   94.01
   5   3   6  462.70   95.95
   5   3  -6  294.83   97.60
  -5   3   6  386.24   68.06
   0  -4  -6   44.17   18.27
   0  -4   6   43.76   48.42
   0  -4  -6   36.69   25.05
   0   4  -6   34.54   21.11
   0  -4  -6  -40.51   29.26
   1   4  -6 1965.43  141.33
  -1  -4   6 1877.82  173.30
   1  -4  -6 1949.68  147.51
  -1  -4  -6 1987.86  129.09
   1  -4  -6 2005.02  140.39
  -1   4  -6 1869.05  140.48
   1  -4   6 2023.39  187.31
  -1  -4  -6 2061.68  162.50
  -1   4  -6 2004.59  134.33
  -1  -4   6 2057.13  132.16
   1  -4  -6 1821.20  175.00
  -2   4   6 2629.77  202.88
   2   4  -6 2870.05  202.86
   2  -4   6 3154.97  240.60
  -2  -4   6 2897.50  195.99
   2   4  -6 2394.55  227.01
  -2   4  -6 2945.10  198.30
  -2  -4  -6 2570.75  208.81
   2  -4  -6 3038.17  229.90
  -2   4  -6 2935.43  196.05
   2   4   6 3127.32  222.10
   2  -4  -6 3091.41  197.89
  -3   4   6  183.32   40.47
  -3   4  -6  169.45   37.02
  -3  -4  -6  205.19   44.98
   3   4   6  106.26   59.47
   3  -4   6  226.54   68.28
  -3   4  -6  133.36   37.56
   3   4  -6   84.48   65.10
   3  -4  -6  145.06   37.85
  -3  -4   6  175.45   35.64
   3  -4  -6  155.50   53.98
  -4   4  -6 2090.85  165.85
   4  -4  -6 2178.95  161.54
   4  -4   6 1949.59  196.07
   4  -4  -6 1997.56  192.28
   4   4  -6 2238.14  206.37
  -4   4   6 1995.61  169.33
  -4   4  -6 1926.16  155.23
   4   4   6 2040.13  191.62
  -4  -4  -6 2205.73  175.56
  -4  -4   6 2246.11  167.41
   5  -4  -6  128.46   72.28
  -5   4   6  252.92   58.31
   5   4  -6  228.23   91.77
   5  -4   6  235.78   78.25
  -5  -4  -6  217.96   60.58
  -5   4  -6  211.85   53.87
   5   4   6  232.62   86.94
   5  -4  -6  207.72   51.03
   0  -5  -6 3441.14  223.42
   0   5  -6 3394.75  228.83
   0  -5  -6 3491.12  249.78
   0  -5  -6 3471.40  267.64
   0  -5   6 3398.41  282.19
  -1  -5  -6  902.24  109.42
  -1  -5  -6  826.51  103.78
  -1  -5   6  981.99  128.54
   1  -5  -6 1013.89  136.13
  -1   5  -6  809.42   83.12
   1  -5   6  736.38  130.18
   1  -5  -6  954.49   82.80
  -1  -5  -6  924.36   71.55
   1   5  -6  916.40   85.15
   2   5  -6 1676.24  132.26
  -2   5  -6 1369.88  118.92
  -2  -5  -6 1849.87  144.16
   2  -5  -6 1323.14  117.60
   2   5  -6 1612.04  172.11
   2   5   6 1439.98  144.18
   2  -5  -6 1409.02  163.13
  -2   5   6 1493.94  121.07
   2  -5   6 1570.61  173.97
  -3  -5  -6  980.98   97.40
   3  -5  -6  956.19   91.27
   3   5  -6  728.98  130.05
  -3   5  -6  847.14   87.33
  -3   5   6  809.13   86.35
   3  -5  -6 1104.37  130.79
   3   5   6  925.81  120.00
   3  -5   6  843.68  127.73
   4  -5   6  340.24   91.85
  -4   5   6  305.89   57.11
  -4  -5  -6  380.70   66.66
   4   5  -6  438.31  107.39
   4   5   6  369.51   88.04
  -4   5  -6  343.63   57.11
   4  -5  -6  204.13   49.12
   4  -5  -6  227.36   78.52
   5  -5   6  243.10   90.68
   5   5   6  185.99   85.57
  -5  -5  -6  362.59   72.43
   5  -5  -6  348.01   62.78
   5   5  -6  145.93   94.65
   5  -5  -6  331.32  104.90
  -5   5   6  330.82   65.74
   0  -6  -6 1603.95  129.37
   0  -6  -6 1664.75  118.95
   0  -6   6 1462.40  178.09
   0   6  -6 1296.62  118.57
   0  -6  -6 1593.88  160.83
  -1  -6  -6  956.35  106.77
  -1   6   6  775.74   78.96
  -1   6  -6  889.78   86.89
  -1  -6  -6  865.19   74.27
   1  -6  -6  764.59  133.30
   1  -6   6 1079.50  162.88
   1  -6  -6  932.57   84.05
   1   6  -6  819.43   85.81
  -1  -6   6  840.57  135.07
  -1  -6  -6 1025.94  123.11
   2   6   6 1110.35  126.10
  -2   6  -6  914.84   93.59
  -2   6   6  900.75   85.75
  -2  -6  -6  927.31  112.15
   2  -6   6  832.38  146.63
   2  -6  -6  897.81   89.73
   2  -6  -6 1114.97  153.60
  -3  -6  -6 1359.43  122.96
   3   6   6 1015.70  132.70
   3  -6  -6  877.17  140.61
   3  -6   6 1118.19  161.76
   3   6  -6 1155.61  162.35
  -3   6   6  874.69   92.37
  -3   6  -6  877.56   97.17
   3  -6  -6  925.93   98.04
  -4   6   6  617.79   81.00
   4   6  -6  582.61  129.38
   4   6   6  667.24  117.50
  -4   6  -6  662.43   83.07
   4  -6  -6  607.62  122.16
   4  -6  -6  774.31   88.17
   4  -6   6  350.16  110.65
   0  -7   6  432.39  112.00
   0  -7  -6  297.41   50.74
   0   7  -6  414.14   61.37
   0  -7  -6  417.35   91.30
   1  -7  -6 1437.48  187.31
  -1  -7  -6 1543.50  174.12
  -1   7  -6 1850.09  142.93
  -1  -7   6 1665.53  200.59
   1  -7   6 1813.70  220.36
   1   7  -6 1591.09  135.94
   1  -7  -6 1778.86  137.97
   2  -7  -6  711.37   84.93
   2   7   6  800.53  118.78
   2  -7   6  602.77  144.56
  -2  -7   6  638.58  134.94
   2  -7  -6  686.25  139.08
  -2   7  -6  778.43   87.13
  -3   7  -6   89.41   42.13
   3  -7  -6  134.51   84.54
   3  -7  -6   82.26   43.00
   3   7  -6   82.90   88.34
   3  -7   6  136.27   90.21
   3   7   6  128.18   77.15
  -4   7  -6  603.85   80.43
   4  -7   6  275.08  112.01
   4  -7  -6  425.05   76.37
   4   7  -6  339.98  127.70
   4   7   6  337.82  105.14
   4  -7  -6  252.06  105.12
   0  -8  -6 1335.89  116.14
   0   8  -6 1246.49  119.82
   0  -8   6 1485.10  192.55
   0  -8  -6 1364.73  169.96
   1  -8  -6  290.52   58.17
   1   8  -6  388.37   63.76
  -1   8  -6  348.31   63.66
  -1  -8   6  227.54  101.20
  -1  -8  -6  483.85  103.92
   1  -8   6  343.87  118.30
   1  -8  -6  170.17   92.74
  -2  -8   6  189.38  107.41
   2  -8   6  253.58  119.22
   2  -8  -6  305.75   61.94
   2   8   6  316.67   93.25
  -2   8  -6  287.87   63.05
   2  -8  -6  183.97  102.30
   3  -8  -6 1392.03  134.57
   3  -8   6 1329.94  215.46
   3   8   6 1477.22  176.85
   3   8  -6  862.02  179.95
  -3   8  -6 1294.58  131.41
   3  -8  -6 1011.06  186.59
   0  -9   6  195.18  103.46
   0  -9  -6  362.73  110.18
   0   9  -6  377.49   68.12
  -1  -9  -6  962.58  153.87
  -1  -9   6  802.10  168.57
   1  -9  -6 1227.05  171.47
   1  -9   6 1107.26  183.12
  -1   9  -6  989.76  109.89
   2  -9  -6  358.23  123.87
  -2  -9   6  317.73  138.35
   2   9   6  456.41  114.95
   2  -9  -6  299.74   70.95
   2  -9   6  132.10  108.18
  -2   9  -6  351.33   74.56
   0   0  -7    5.72   25.33
   0   0  -7  -31.20   24.99
  -1   0  -7 1990.10  128.24
   1   0  -7 1996.02  132.26
  -1   0  -7 1785.98  135.84
  -1   0   7 1831.27  134.93
   1   0   7 1965.09  131.07
   1   0  -7 2069.03  132.58
  -2   0   7 4857.67  329.75
   2   0   7 4958.95  323.36
  -2   0  -7 4884.85  331.12
   2   0  -7 5061.41  305.66
  -2   0  -7 4901.31  298.31
  -3   0   7   94.11   30.21
   3   0  -7  155.35   28.81
  -3   0  -7   80.60   31.15
  -3   0  -7   96.69   21.80
   3   0  -7  154.44   47.61
   3   0   7  112.98   40.91
  -4   0  -7 2031.33  163.21
   4   0  -7 1976.42  177.98
   4   0  -7 1911.38  140.49
  -4   0   7 2108.66  162.04
   4   0   7 1988.29  175.68
   5   0  -7  342.00   89.94
   5   0   7  356.80   87.22
  -5   0   7  280.84   59.51
  -5   0  -7  372.38   64.56
  -6   0   7  275.46   70.35
   6   0  -7  211.28   92.20
   6   0   7  100.74   80.22
  -6   0  -7  121.74   56.57
   0  -1   7 8024.49  492.49
   0   1  -7 7423.06  511.27
   0   1  -7 7955.15  471.09
   0  -1  -7 7829.80  465.91
   1  -1   7 1332.08   96.84
  -1   1  -7 1156.95   91.74
  -1  -1   7 1227.48   91.06
  -1   1  -7 1234.37   90.08
   1   1  -7 1309.96   99.02
   1  -1  -7 1239.60   92.31
   1  -1  -7 1195.09   95.98
   1   1  -7 1330.80  100.57
  -1  -1  -7 1347.09   87.56
   1   1   7 1326.54   93.13
   1  -1  -7 1143.18   89.75
  -1  -1  -7 1404.50   99.26
  -2  -1   7 1882.41  149.50
   2  -1  -7 1884.87  141.10
  -2   1   7 2108.01  153.44
   2   1  -7 2461.05  165.27
  -2  -1  -7 2306.76  134.75
  -2   1  -7 1913.20  151.26
  -2   1  -7 1980.95  138.52
   2   1  -7 2295.78  147.14
  -2  -1  -7 2286.27  157.10
   2   1   7 2131.56  155.19
   2  -1   7 2253.02  158.13
   3   1   7 1651.84  134.29
   3  -1   7 1551.51  132.37
  -3  -1  -7 1413.57  122.45
   3  -1  -7 1454.97  110.74
  -3  -1   7 1483.22  119.02
   3  -1  -7 1697.57  138.14
   3   1  -7 1449.40  108.72
  -3   1   7 1341.89  119.18
   3   1  -7 1699.70  142.04
  -3   1  -7 1453.36  120.02
  -3   1  -7 1509.13  106.41
   4  -1  -7  438.01   80.94
   4   1   7  217.43   66.53
  -4  -1  -7  393.36   60.68
  -4   1  -7  337.68   54.22
   4  -1   7  454.83   75.22
   4  -1  -7  291.24   44.66
   4   1  -7  378.17   80.05
  -4   1   7  354.39   57.42
  -4  -1   7  231.93   50.07
   5  -1  -7  406.96   91.83
   5   1  -7  417.35   96.56
  -5   1   7  426.63   69.38
   5  -1   7  491.92   93.53
  -5  -1  -7  368.36   66.78
  -5   1  -7  278.64   61.79
   5   1   7  236.18   75.36
  -5  -1   7  345.23   64.07
  -6   1  -7  925.80  107.21
   6   1  -7  709.31  140.47
  -6   1   7  705.05   99.71
  -6  -1   7  711.95  101.37
   6   1   7  799.30  137.43
   6  -1  -7  627.10  130.52
  -6  -1  -7  776.09  104.71
   6  -1   7  667.77  127.67
   0   2  -7 1089.30   81.75
   0  -2  -7 1038.11  100.66
   0  -2   7 1092.22  101.21
   0   2  -7  913.61   75.39
   0  -2  -7 1140.32   86.40
   0  -2  -7 1139.45   75.35
  -1  -2   7  852.39   65.10
   1  -2  -7  827.17   74.77
   1   2   7  865.75   75.21
   1  -2   7 1100.47   90.53
   1   2  -7 1253.02   84.59
   1  -2  -7  790.18   68.99
  -1  -2   7  942.15   90.81
  -1  -2  -7 1092.02   83.41
  -1   2  -7  867.53   67.17
   1  -2  -7  759.55   76.01
  -1   2  -7  837.51   70.18
   2   2  -7 2660.87  188.35
  -2  -2   7 2392.22  167.96
  -2   2  -7 2213.03  168.81
   2  -2  -7 2416.68  162.82
  -2   2   7 2452.48  174.01
   2   2   7 2286.93  174.96
   2   2  -7 2561.80  169.39
   2  -2   7 2810.26  185.74
  -2  -2  -7 2404.12  175.57
  -2   2  -7 2169.66  158.46
   3   2  -7 2676.39  185.89
   3  -2  -7 3004.04  216.22
   3   2   7 2925.34  215.07
  -3   2   7 2657.00  204.21
   3  -2   7 2586.14  211.06
  -3  -2  -7 2515.89  205.48
  -3   2  -7 2900.02  203.58
  -3   2  -7 3024.93  187.62
   3   2  -7 2638.93  218.22
   3  -2  -7 3005.90  190.84
  -3  -2   7 2870.48  201.93
   4  -2   7 1209.83  131.68
  -4   2  -7 1227.80  112.99
   4  -2  -7 1238.60  104.69
   4  -2  -7 1442.62  136.19
  -4  -2  -7 1270.18  118.07
  -4   2   7 1254.42  114.58
   4   2  -7 1260.47  144.79
   4   2   7 1263.59  134.94
  -4  -2   7 1208.85  111.66
   5  -2  -7  829.12  122.89
   5   2  -7  977.66  134.23
   5  -2   7  756.67  116.15
  -5  -2  -7  673.57   94.03
  -5   2  -7  863.91   96.20
   5   2   7  798.14  116.52
  -5   2   7  830.68   98.03
  -5  -2   7 1003.47  100.17
   0  -3   7  638.89   85.26
   0  -3  -7  591.32   69.55
   0  -3  -7  583.03   69.87
   0  -3  -7  530.05   48.18
   0   3  -7  610.63   58.37
  -1   3  -7 4891.63  314.10
  -1  -3   7 4649.74  331.92
  -1  -3   7 4768.15  311.25
  -1  -3  -7 5028.53  291.57
   1  -3   7 5107.28  343.48
   1  -3  -7 4713.60  327.13
   1  -3  -7 5104.54  334.89
  -1  -3  -7 4840.21  337.26
  -1   3  -7 4659.97  301.15
  -1  -3  -7 4986.58  321.75
   1   3  -7 4598.94  303.37
   1  -3  -7 4557.71  299.17
   2   3  -7  653.05   72.51
   2   3   7  573.60   73.78
   2  -3  -7  569.91   60.02
   2  -3   7  735.19   85.11
  -2  -3  -7  706.63   68.95
  -2  -3   7  606.61   54.83
  -2   3   7  592.51   62.30
  -2   3  -7  517.15   58.97
  -2   3  -7  570.84   56.10
   2  -3  -7  676.57   77.76
   2   3  -7  656.73   88.51
  -3   3   7  252.19   42.74
   3   3   7  143.70   55.95
   3   3  -7  301.74   74.55
   3   3  -7  178.99   40.39
  -3  -3  -7  175.93   42.01
   3  -3  -7  124.60   34.15
  -3   3  -7  101.53   31.13
   3  -3   7  190.96   57.22
   3  -3  -7  158.08   53.99
  -3   3  -7   84.49   31.66
  -3  -3   7  110.24   31.16
  -4   3  -7  504.39   66.01
   4   3   7  540.41   91.11
   4  -3  -7  438.69   86.20
   4  -3   7  612.36   95.87
   4  -3  -7  544.36   65.88
  -4   3  -7  587.20   63.97
  -4  -3  -7  573.05   76.03
   4   3  -7  455.98   93.91
  -4   3   7  563.11   71.64
   5  -3  -7  641.77   75.00
  -5   3  -7  453.18   74.05
   5  -3   7  463.21   99.67
  -5  -3  -7  707.62   91.61
   5  -3  -7  497.81  102.41
   5   3   7  702.16  113.15
  -5   3   7  627.27   85.11
  -5  -3   7  698.51   84.27
   5   3  -7  509.47  110.98
   0   4  -7 1876.14  133.02
   0  -4  -7 1769.35  148.17
   0  -4  -7 1880.77  154.93
   0  -4   7 2135.32  176.05
   0  -4  -7 1710.23  125.74
  -1   4  -7  907.99   86.94
   1  -4  -7  992.06   92.04
   1  -4   7 1214.17  137.37
   1   4  -7 1199.38   95.88
  -1  -4  -7 1067.49  110.34
  -1  -4   7  935.65  117.18
   1  -4  -7 1034.33   88.06
  -1  -4  -7 1201.55   79.52
  -1   4  -7 1119.84   77.61
   2   4  -7  613.70   78.32
  -2   4  -7  631.05   59.67
   2  -4   7  656.95   96.66
  -2  -4  -7  609.88   73.72
   2   4  -7  603.58  100.49
   2   4   7  644.16   84.08
  -2   4   7  630.53   66.93
   2  -4  -7  579.80   65.50
  -2   4  -7  640.97   68.68
   2  -4  -7  656.72   93.33
  -2  -4   7  715.38   57.78
  -3   4  -7 3090.27  221.92
  -3   4  -7 3076.96  213.30
   3   4  -7 3201.08  260.23
   3   4   7 3049.76  241.83
  -3  -4   7 3030.08  219.76
   3  -4  -7 3096.83  246.46
   3  -4   7 3077.34  251.39
   3  -4  -7 3118.74  216.96
  -3  -4  -7 3445.76  236.73
  -3   4   7 2987.40  227.08
  -4   4  -7  164.55   41.56
   4   4  -7   78.21   67.44
  -4   4  -7  157.79   40.66
   4  -4   7  143.55   65.18
   4   4   7  287.47   77.12
  -4   4   7  129.13   41.78
   4  -4  -7  194.13   46.44
  -4  -4  -7  150.50   48.67
   4  -4  -7  196.27   62.74
  -5   4   7 1027.22  107.05
   5  -4   7  726.17  128.38
   5  -4  -7  922.75   97.92
  -5   4  -7 1009.02  103.80
  -5  -4  -7  826.08  109.53
   5  -4  -7 1004.85  139.53
   5   4   7  944.62  134.00
   5   4  -7  901.84  144.23
   0  -5  -7 1174.98  109.35
   0  -5  -7 1341.60  133.48
   0   5  -7 1176.03  100.85
   0  -5   7 1198.66  145.45
   0  -5  -7 1138.78   92.42
   1   5  -7 2262.57  163.91
   1  -5  -7 2169.29  208.03
  -1   5  -7 2035.23  160.80
  -1  -5  -7 2349.84  150.09
  -1  -5  -7 2367.06  189.89
  -1  -5  -7 1904.27  186.37
   1  -5  -7 2417.40  162.89
   1  -5   7 2368.31  226.18
  -1  -5   7 2503.57  211.73
   2   5   7 1023.58  115.92
  -2   5  -7  899.22   89.90
   2  -5   7 1013.98  139.58
   2   5  -7 1030.38  140.07
   2  -5  -7  959.04   89.89
   2   5  -7 1180.38  108.05
  -2   5   7  918.31   89.48
   2  -5  -7 1006.82  130.42
   3  -5  -7   86.54   54.39
  -3   5  -7  116.88   39.46
   3   5  -7  100.62   72.15
  -3   5   7  137.28   38.01
   3  -5   7  160.04   67.58
   3  -5  -7  167.71   43.17
   3   5   7  119.53   62.42
  -3  -5  -7   59.07   39.44
  -4  -5  -7  591.33   81.66
  -4   5   7  481.53   70.49
   4   5   7  455.98   94.75
   4  -5  -7  531.53   71.90
   4  -5   7  579.17  110.40
  -4   5  -7  487.53   68.24
   4  -5  -7  592.87  107.97
   4   5  -7  345.26  101.76
  -5   5   7  417.89   73.69
   5  -5   7  524.39  119.14
   5  -5  -7  435.93  107.95
   5  -5  -7  385.29   69.23
   5   5  -7  335.97  116.85
   5   5   7  489.27  109.07
  -5  -5  -7  491.19   83.27
   0  -6  -7  328.49   47.62
   0  -6  -7  411.45   60.30
   0  -6   7  415.93   97.90
   0  -6  -7  306.29   80.03
   0   6  -7  351.29   55.35
   1  -6  -7  683.00   74.12
  -1  -6  -7  621.33   92.01
   1  -6  -7  720.92  125.54
   1   6  -7  684.55   78.41
  -1  -6  -7  559.36   97.26
  -1  -6  -7  703.52   63.72
  -1   6  -7  700.45   78.98
  -1  -6   7  885.66  132.91
   1  -6   7  878.42  147.08
   2  -6  -7 1355.58  114.82
   2  -6   7 1287.10  177.99
  -2   6  -7 1598.48  123.17
   2   6  -7 1248.04  122.96
  -2  -6  -7 1250.68  133.87
  -2   6   7 1220.26  110.52
   2   6   7 1211.58  141.09
   2  -6  -7 1344.41  170.76
   3   6  -7  731.12  137.05
   3  -6  -7  768.50  129.20
   3   6   7  937.42  122.39
   3  -6  -7  931.62   93.69
  -3  -6  -7  723.05   98.09
   3  -6   7  797.00  143.14
  -3   6  -7  730.46   87.67
  -3   6   7  745.11   83.81
   4   6  -7 1207.61  177.43
   4  -6  -7 1059.34  157.90
   4   6   7 1229.74  150.73
  -4   6  -7 1159.36  114.67
  -4   6   7 1191.98  117.98
   4  -6  -7 1245.69  117.05
  -4  -6  -7 1209.53  128.52
   4  -6   7 1132.79  169.99
   0  -7  -7 3090.26  211.14
   0  -7   7 2582.24  266.74
   0  -7  -7 3138.19  262.48
   0   7  -7 3149.37  218.33
   1  -7  -7  202.50   47.50
   1  -7   7  171.29   91.30
  -1   7  -7  236.48   52.50
   1  -7  -7  288.11   91.78
  -1  -7   7  325.80  104.50
   1   7  -7  237.95   51.42
  -1  -7  -7  369.91   85.72
   2  -7   7  660.39  150.87
   2  -7  -7  668.25   84.53
  -2  -7   7  701.48  140.02
   2  -7  -7  759.33  142.85
  -2   7  -7  895.40   94.92
   2   7   7  678.29  114.92
   3  -7  -7  537.65  126.63
  -3   7  -7  379.51   70.42
   3   7   7  453.03   99.68
   3  -7  -7  537.08   74.86
   3   7  -7  197.54  104.45
   3  -7   7  487.69  130.80
  -4   7  -7  142.01   50.01
   4  -7   7   56.55   90.27
   4  -7  -7  190.02   58.19
   4   7  -7  258.58  116.53
   4  -7  -7  117.05   90.11
   4   7   7  113.78   74.32
   0  -8   7  101.92   81.06
   0   8  -7   26.44   38.00
   0  -8  -7   77.04   60.41
   0  -8  -7   56.40   31.35
   1  -8  -7  297.57   95.67
   1  -8  -7  437.62   65.36
  -1  -8  -7  238.12   86.67
  -1  -8   7  405.58  121.67
   1  -8   7  258.53  103.13
   1   8  -7  257.58   60.69
  -1   8  -7  259.81   59.87
  -2  -8   7 1341.02  195.44
   2  -8   7 1104.41  201.59
  -2   8  -7 1307.85  127.24
   2   8   7 1464.33  168.46
   2  -8  -7 1400.97  128.58
   2  -8  -7 1143.91  187.67
   3   8  -7  -41.18   75.87
  -3   8  -7  -20.25   36.27
   3   8   7   59.58   65.52
   3  -8  -7   61.62   42.94
   3  -8   7   93.73  101.38
   3  -8  -7    1.83   80.30
   0  -9  -7 1607.70  188.17
   0  -9   7 1407.20  203.11
   0   9  -7 1398.51  134.07
   1  -9  -7  424.07  113.26
   1  -9   7  652.04  144.59
  -1  -9   7  520.69  137.61
  -1  -9  -7  370.99  105.42
  -1   9  -7  470.93   77.68
  -2  -9   7  230.36  126.72
   2  -9  -7  235.52   65.02
   2   9   7  293.38   94.88
   2  -9  -7  319.29  114.37
   2  -9   7  358.20  141.72
  -2   9  -7  304.94   73.73
   0   0  -8  539.16   64.06
   0   0  -8  544.45   55.16
  -1   0  -8 2389.99  153.96
  -1   0  -8 2327.78  163.57
   1   0  -8 2339.87  157.39
   1   0  -8 2304.74  154.91
   1   0   8 2265.48  154.38
  -2   0   8  409.84   45.35
   2   0  -8  380.86   44.75
  -2   0  -8  390.72   46.29
   2   0  -8  422.57   54.52
  -2   0  -8  415.44   41.95
   2   0   8  422.95   50.42
  -3   0   8 5225.74  374.50
   3   0   8 5514.42  372.85
   3   0  -8 5701.52  344.23
  -3   0  -8 5481.30  376.50
   3   0  -8 5701.83  378.13
  -4   0  -8   57.96   34.98
   4   0  -8   67.33   49.76
  -4   0   8   46.85   29.62
   4   0   8   28.68   45.24
   4   0  -8   -0.65   20.17
   5   0  -8 1361.72  153.59
  -5   0   8 1216.51  118.88
  -5   0  -8 1132.53  117.65
   5   0   8 1160.13  142.60
  -6   0   8   94.88   49.83
   6   0   8   74.43   69.07
   6   0  -8  -16.77   69.81
  -6   0  -8   36.86   44.81
   0  -1  -8 1680.03  116.72
   0   1  -8 1791.96  132.10
   0  -1  -8 1716.48  110.60
   0  -1   8 1741.34  124.39
   0  -1  -8 1735.75  142.99
   1  -1  -8 8002.74  503.85
  -1  -1  -8 7392.89  456.93
   1  -1  -8 7932.80  477.54
   1   1  -8 7379.36  467.51
   1   1   8 7966.99  476.63
  -1   1  -8 7276.76  459.53
  -1   1  -8 7587.69  496.88
  -1  -1  -8 7331.07  502.68
   1   1  -8 7179.73  481.15
   1  -1  -8 7841.12  461.87
   1  -1   8 7958.62  482.51
  -1  -1   8 7822.93  495.99
  -2  -1  -8  919.70   82.43
   2  -1  -8  978.94   76.58
  -2  -1   8  824.90   76.08
  -2   1  -8  901.86   78.24
  -2   1   8  946.72   80.05
   2  -1   8  950.22   84.12
   2   1  -8 1069.39   83.52
   2   1   8  896.93   82.30
   2  -1  -8  991.09   86.49
  -2  -1  -8 1024.58   69.74
  -2   1  -8  867.39   72.18
  -3   1  -8  659.70   60.17
   3  -1   8  751.37   81.92
   3   1   8  574.44   74.93
   3   1  -8  770.32   94.49
   3  -1  -8  696.77   65.13
  -3  -1   8  641.71   66.33
  -3  -1  -8  555.97   68.21
  -3   1   8  614.22   68.47
   3   1  -8  702.28   64.46
   3  -1  -8  665.59   82.20
  -3   1  -8  585.99   66.95
  -4  -1   8  248.53   48.27
  -4  -1  -8  239.22   51.09
   4   1  -8  153.75   65.70
  -4   1   8  218.56   47.58
  -4   1  -8  180.65   46.39
   4  -1  -8  223.93   39.72
   4  -1  -8  239.30   66.80
   4   1   8  187.09   61.62
   4  -1   8  282.65   65.22
   5  -1   8  847.58  124.30
  -5  -1  -8  866.64  109.33
   5   1  -8  886.84  132.07
   5  -1  -8 1240.11  147.31
  -5   1  -8 1265.00  116.01
   5   1   8 1235.79  136.59
  -5  -1   8 1124.95  111.84
  -5   1   8 1020.07  111.71
  -6  -1   8  157.03   63.13
   6   1  -8  246.45   96.09
  -6   1  -8  280.80   68.78
   6   1   8  222.65   89.05
   6  -1  -8  210.22   90.46
  -6   1   8  258.55   69.65
  -6  -1  -8  230.39   69.34
   6  -1   8  284.60   94.06
   0  -2   8   62.21   33.88
   0  -2  -8    0.59   18.62
   0   2  -8   26.38   23.13
   0  -2  -8   44.32   30.62
   0   2  -8   26.29   14.02
   0  -2  -8   13.77   14.69
  -1   2  -8 1573.00  116.67
  -1  -2   8 1783.05  115.50
   1   2  -8 1445.77  122.20
   1   2   8 1700.09  120.98
   1  -2  -8 1704.92  116.45
  -1  -2  -8 1519.30  130.34
   1  -2  -8 1912.07  128.17
   1  -2   8 1651.27  132.04
  -1   2  -8 1732.06  117.49
  -1  -2  -8 1504.92  106.88
   1  -2  -8 1712.31  128.21
  -2   2  -8 3380.63  212.09
   2  -2  -8 3329.41  214.38
  -2  -2  -8 3362.82  195.15
   2  -2   8 3390.44  233.38
   2   2   8 3250.27  227.35
   2  -2  -8 3054.19  227.10
  -2   2  -8 3505.46  226.59
  -2  -2   8 3296.09  223.25
  -2   2   8 3206.82  230.00
   2   2  -8 3105.93  235.14
   2   2  -8 3172.06  219.62
  -2  -2  -8 3014.62  230.44
  -3  -2  -8 3092.60  209.04
   3   2  -8 2710.65  216.31
   3   2   8 2688.21  207.12
   3  -2   8 2930.05  212.80
   3   2  -8 2868.89  187.14
  -3   2   8 2824.21  204.06
   3  -2  -8 2598.16  206.99
   3  -2  -8 2561.62  185.60
  -3   2  -8 2743.05  183.78
  -3   2  -8 2484.48  197.67
   4  -2  -8 1375.26  140.52
   4  -2   8 1374.82  138.79
   4   2   8 1549.16  144.50
  -4  -2   8 1511.83  123.08
  -4   2   8 1188.35  120.02
   4  -2  -8 1387.48  113.26
  -4  -2  -8 1369.36  125.84
  -4   2  -8 1439.60  123.32
   4   2  -8 1347.22  148.55
   5  -2   8  560.80  100.49
   5   2  -8  575.98  113.44
  -5  -2   8  674.26   83.34
  -5   2  -8  560.21   80.36
  -5  -2  -8  665.17   87.64
   5   2   8  594.79  104.51
  -5   2   8  550.54   81.81
   5  -2  -8  903.27  119.85
   0  -3   8 8965.65  544.61
   0  -3  -8 7625.21  520.29
   0  -3  -8 8012.72  489.08
   0   3  -8 8165.07  495.14
   1  -3  -8  872.97   92.65
   1  -3  -8  888.23   79.29
   1  -3   8  846.03  101.16
  -1   3  -8  842.53   63.91
  -1  -3  -8  789.56   85.67
  -1   3  -8  789.00   72.56
   1   3  -8  865.58   78.43
  -1  -3   8  690.86   90.18
  -1  -3   8  850.71   60.83
   1  -3  -8  857.28   70.90
  -1  -3  -8  823.77   61.68
   2  -3  -8  981.10  111.59
  -2   3  -8 1318.75  104.43
   2   3   8 1384.88  119.60
   2  -3  -8 1206.57  102.72
   2  -3   8 1611.06  131.46
  -2   3   8 1527.40  113.90
  -2  -3   8 1333.82  101.41
   2   3  -8 1428.84  117.12
  -2   3  -8 1363.45  104.33
  -2  -3  -8 1498.08  118.03
   2   3  -8 1518.40  132.34
   3   3   8  237.57   61.71
   3  -3   8  420.42   75.99
   3   3  -8  385.77   56.53
  -3  -3  -8  466.57   60.55
   3  -3  -8  452.09   73.54
  -3   3   8  293.05   49.83
   3  -3  -8  368.87   52.52
  -3  -3   8  347.27   47.02
  -3   3  -8  327.26   48.58
  -3   3  -8  359.48   48.58
   3   3  -8  424.44   80.90
   4   3   8  160.42   67.29
   4  -3   8  438.96   81.49
  -4  -3  -8  364.97   62.53
   4  -3  -8  239.09   49.43
  -4   3   8  525.62   67.34
   4   3  -8  471.05   93.84
   4  -3  -8  343.19   75.61
  -4   3  -8  351.41   50.53
  -4   3  -8  302.89   53.99
   5   3  -8  124.06   69.71
  -5   3  -8  252.29   55.95
   5  -3  -8  155.45   68.09
   5  -3   8  135.71   64.79
  -5  -3   8  290.02   57.29
   5   3   8  172.46   75.70
  -5  -3  -8  145.09   55.31
  -5   3   8  179.17   54.35
   5  -3  -8  198.73   49.00
   0   4  -8  298.31   43.85
   0  -4  -8  345.08   59.93
   0  -4   8  250.87   72.21
   0  -4  -8  298.23   54.55
   0  -4  -8  273.27   36.52
  -1  -4  -8  520.40   66.01
   1   4  -8  523.71   61.62
   1  -4  -8  504.85   84.04
  -1  -4  -8  583.55   46.99
  -1   4  -8  381.57   52.89
  -1  -4  -8  460.60   75.11
  -1   4  -8  408.62   39.29
  -1  -4   8  467.17   79.77
   1  -4   8  545.14   96.99
   1  -4  -8  467.38   57.15
   1  -4  -8  501.57   54.00
   2   4  -8 3722.56  255.37
   2   4   8 3667.33  266.64
   2  -4  -8 3565.69  276.34
   2  -4  -8 3828.05  247.74
  -2   4   8 3587.61  261.43
  -2   4  -8 3695.10  246.50
  -2   4  -8 3933.93  252.68
  -2  -4  -8 3564.42  269.02
   2   4  -8 3616.58  286.53
   2  -4   8 3700.53  286.37
   3   4   8    6.24   48.07
  -3  -4  -8   -5.38   29.21
  -3   4   8   14.46   24.66
   3  -4  -8   -1.18   34.59
   3  -4  -8   58.54   29.55
   3  -4   8   -9.90   40.05
   3   4  -8   14.25   54.10
  -3   4  -8    2.84   24.51
  -3   4  -8   69.12   31.40
   4  -4   8 2354.30  214.06
   4  -4  -8 2352.68  178.46
   4  -4  -8 2421.18  211.04
   4   4   8 2409.07  206.01
  -4   4  -8 2220.22  172.17
  -4   4   8 2552.48  192.52
  -4   4  -8 2211.02  181.37
   4   4  -8 2569.93  225.72
  -4  -4  -8 2321.46  195.01
   5   4   8  122.41   72.02
   5  -4  -8   56.69   58.55
  -5   4   8   39.08   40.41
  -5   4  -8   24.39   37.77
   5  -4  -8   24.95   37.26
   5  -4   8   37.16   56.22
   5   4  -8   36.28   71.47
  -5  -4  -8    7.95   43.64
   0   5  -8 4320.96  264.71
   0  -5   8 4238.03  316.08
   0  -5  -8 3565.67  253.49
  -1  -5   8 1084.64  133.15
   1  -5   8  676.84  128.40
   1   5  -8  892.18   89.28
  -1  -5  -8 1016.19  104.57
  -1   5  -8  981.56   87.63
  -1  -5  -8  761.96   69.58
   1  -5  -8  969.95   83.41
   1  -5  -8  867.07   85.25
  -2   5   8 1512.54  129.80
   2  -5   8 1682.88  182.99
   2  -5  -8 1415.12  162.26
   2   5   8 1631.97  149.31
  -2   5  -8 1539.45  129.89
   2   5  -8 1875.63  178.04
  -2  -5  -8 1713.01  149.50
   2   5  -8 1528.59  138.12
   2  -5  -8 1652.77  128.33
  -3   5  -8  421.05   59.05
   3  -5  -8  460.56   88.08
   3  -5  -8  375.81   59.37
   3   5   8  330.96   78.28
  -3  -5  -8  302.77   59.44
  -3   5   8  298.50   52.45
   3   5  -8  269.89   91.62
   3  -5   8  326.51   91.66
   4   5   8  175.54   68.69
   4   5  -8   73.64   70.85
   4  -5  -8  269.98   54.71
  -4   5  -8  230.20   49.99
   4  -5   8  192.34   82.49
  -4  -5  -8  221.80   58.63
   4  -5  -8  202.24   76.22
  -4   5   8  204.04   49.99
   5  -5  -8  172.10   84.77
   5  -5   8  180.93   89.83
   5   5  -8  170.13   95.49
  -5   5   8  189.73   59.20
  -5  -5  -8  206.00   62.93
   5   5   8  111.69   80.91
   5  -5  -8  127.60   50.58
   0  -6  -8  463.14   67.77
   0  -6  -8  331.09   48.73
   0  -6  -8  495.97   87.88
   0   6  -8  409.21   61.06
   0  -6   8  411.95  100.46
  -1   6  -8  743.85   81.00
  -1  -6  -8  581.02   92.99
  -1  -6   8  973.51  133.94
  -1  -6  -8  847.46  107.24
   1  -6  -8  648.76  121.32
   1  -6   8  598.57  134.91
   1   6  -8  690.55   81.84
   1  -6  -8  733.59   76.09
   2  -6   8  862.29  149.72
   2   6   8 1043.15  121.89
   2  -6  -8  943.48   92.40
  -2  -6  -8  776.39  109.96
   2  -6  -8 1039.99  143.45
  -2   6   8  937.19   91.26
  -2   6  -8  881.57   94.25
   2   6  -8 1036.86  107.45
   3  -6  -8  939.42  144.04
   3   6  -8 1334.08  172.23
  -3   6  -8 1130.50  110.98
   3   6   8 1180.29  138.52
   3  -6  -8 1058.64  105.75
   3  -6   8 1279.92  168.52
  -3   6   8 1104.30  107.20
  -4  -6  -8  469.50   83.03
   4   6  -8  480.30  123.23
   4   6   8  524.24  100.17
  -4   6   8  492.19   75.17
   4  -6  -8  591.36  119.41
   4  -6  -8  604.91   80.98
   4  -6   8  465.23  119.21
  -4   6  -8  483.37   73.25
   0   7  -8  200.45   49.53
   0  -7  -8  304.82   81.14
   0  -7  -8  270.64   44.79
   0  -7   8  264.60   90.10
  -1  -7  -8 2385.39  214.51
   1  -7  -8 2369.68  178.31
   1  -7  -8 3019.95  246.05
  -1  -7   8 2595.60  244.64
   1  -7   8 2532.41  251.82
   1   7  -8 1972.60  177.39
  -1   7  -8 2445.87  184.66
   2  -7   8  142.74   89.69
   2  -7  -8  160.94   45.29
  -2   7  -8  193.86   51.61
   2  -7  -8   90.90   81.67
   2   7   8  214.38   75.53
  -2  -7   8  125.56   82.37
  -2   7   8  167.40   42.26
   3   7  -8  136.45   82.65
   3   7   8   97.89   71.21
   3  -7  -8   90.07   78.83
   3  -7   8   75.69   78.81
  -3   7   8   52.58   35.25
   3  -7  -8  125.19   46.97
  -3   7  -8   72.33   40.75
   4   7   8   37.53   68.25
  -4   7  -8  175.58   57.30
   4   7  -8   92.01   95.43
   4  -7   8  143.11  107.07
   4  -7  -8   61.16   48.95
   4  -7  -8   80.12   82.45
   0   8  -8  176.55   50.50
   0  -8  -8  168.45   73.68
   0  -8  -8   41.81   28.34
   0  -8   8  173.03   91.21
  -1   8  -8  338.79   66.23
   1   8  -8  372.91   67.38
  -1  -8  -8  398.59   95.03
   1  -8  -8  346.20   61.86
   1  -8  -8  303.66   91.89
  -1  -8   8   95.10   88.00
   1  -8   8  373.10  118.71
   2  -8  -8   44.63   39.39
  -2  -8   8   99.90   95.31
   2   8   8   76.22   67.85
  -2   8  -8   65.93   42.53
   2  -8   8  157.75  103.21
   2  -8  -8   38.42   82.52
   3  -8  -8 1192.46  197.69
   3  -8   8 1095.90  210.50
   3   8  -8 1437.51  216.91
   3  -8  -8 1528.95  138.82
   3   8   8 1417.14  174.41
  -3   8  -8 1483.02  140.97
   0  -9  -8  629.39  128.90
   0   9  -8  687.10   92.26
   0  -9   8  692.51  152.98
  -1  -9  -8  950.62  143.66
   1  -9  -8  892.33  100.64
  -1  -9   8  761.24  160.08
  -1   9  -8  747.80  100.77
   1  -9  -8  795.10  140.29
   1  -9   8  968.01  168.86
   2   9   8  195.75   88.29
  -2   9  -8  162.64   65.09
   2  -9   8   18.99   99.98
   2  -9  -8  183.96   58.38
   2  -9  -8  226.26  101.90
   0   0  -9   19.13   23.84
   0   0  -9   -1.76   24.38
   1   0   9  959.63   70.51
   1   0  -9  878.24   70.35
  -1   0  -9  806.87   74.53
   1   0  -9  949.62   76.29
   1   0  -9  911.64   77.94
  -1   0  -9  964.07   77.14
  -2   0  -9 4233.98  284.52
  -2   0   9 3946.35  281.34
   2   0  -9 4243.46  278.65
   2   0   9 4072.34  275.43
   2   0  -9 4325.72  266.23
  -2   0  -9 4057.48  256.85
  -3   0   9    1.75   21.91
   3   0   9   25.17   28.67
   3   0  -9   10.85   20.95
  -3   0  -9   -0.19   22.21
   3   0  -9  -26.88   33.47
   4   0  -9 3820.82  280.82
   4   0   9 3532.93  272.19
  -4   0   9 3599.59  265.40
  -4   0  -9 3685.69  267.20
   4   0  -9 3524.25  239.38
   5   0   9  146.49   57.64
  -5   0  -9   67.00   39.69
  -5   0   9   96.55   44.31
   5   0  -9   28.36   64.27
   0  -1  -9 8504.49  516.28
   0   1  -9 8926.38  567.99
   0  -1   9 8666.27  537.26
   0   1  -9 8011.30  520.40
   0  -1  -9 8872.20  580.49
  -1  -1   9 2518.21  172.05
  -1   1  -9 2283.19  164.76
  -1  -1  -9 2466.99  162.68
   1  -1  -9 2317.58  165.00
  -1  -1  -9 2628.50  181.98
   1  -1  -9 2571.33  180.31
   1  -1  -9 2573.68  165.79
   1   1  -9 2430.64  172.66
   1   1   9 2532.67  165.04
  -1   1  -9 2506.65  173.58
   1   1  -9 2500.49  171.75
   1  -1   9 2562.04  171.69
  -2   1  -9 3400.86  233.58
   2  -1  -9 3233.78  230.33
  -2  -1  -9 3355.13  236.61
   2   1  -9 3638.83  225.52
  -2   1   9 3152.63  234.12
  -2  -1   9 3347.59  231.34
  -2   1  -9 3536.72  215.92
   2   1  -9 3412.07  235.90
   2   1   9 3416.04  229.65
  -2  -1  -9 3213.61  209.97
   2  -1  -9 3367.56  219.47
   2  -1   9 3373.10  232.02
  -3   1  -9   82.14   27.72
   3   1   9   90.64   40.50
  -3  -1  -9  168.94   38.32
  -3   1  -9  133.45   35.44
   3  -1  -9  157.10   45.75
   3  -1   9   99.61   43.13
  -3  -1   9  108.56   32.14
   3  -1  -9   92.93   29.17
   3   1  -9   76.60   48.57
  -3   1   9   69.26   30.45
   3   1  -9  114.57   31.78
  -4  -1   9  131.32   40.31
   4   1   9   89.61   48.67
  -4   1  -9  164.62   43.59
   4  -1   9  176.41   54.56
   4  -1  -9   79.86   29.76
   4  -1  -9  126.57   52.13
   4   1  -9  123.38   57.81
  -4   1   9  209.82   46.05
  -4  -1  -9  145.16   43.23
   5   1   9   84.60   60.11
   5  -1   9  126.95   59.03
  -5   1   9  165.37   51.25
   5   1  -9   84.29   61.64
  -5  -1   9   -7.93   32.82
  -5  -1  -9   97.72   44.10
   5  -1  -9   87.32   65.08
  -5   1  -9    9.95   32.65
   0  -2  -9   41.93   32.33
   0  -2   9   37.08   30.86
   0  -2  -9   44.56   20.33
   0  -2  -9   15.91   15.72
   0   2  -9   51.41   24.96
   0   2  -9   44.51   18.01
   1  -2  -9 1651.39  122.21
  -1  -2  -9 1626.56  126.92
   1   2   9 1597.43  111.53
   1  -2  -9 1658.64  116.73
  -1   2  -9 1501.84  108.05
  -1   2  -9 1459.89  109.36
   1   2  -9 1275.59  116.57
  -1  -2  -9 1250.05   98.39
  -1  -2   9 1515.60  105.48
   1  -2  -9 1532.20  108.10
   1  -2   9 1457.35  122.86
  -2  -2  -9 2342.16  135.40
   2  -2   9 2203.87  167.05
  -2  -2  -9 2144.33  164.45
   2   2   9 2173.85  161.32
  -2   2   9 2366.75  165.32
   2   2  -9 2085.79  159.50
   2  -2  -9 2206.47  152.93
  -2   2  -9 2076.04  148.79
   2  -2  -9 2169.08  162.66
  -2  -2   9 2010.23  154.00
   2   2  -9 2396.96  173.54
  -2   2  -9 2049.40  156.61
  -3   2  -9 2774.35  190.95
   3  -2  -9 2754.22  200.48
  -3   2  -9 2701.99  175.23
   3   2  -9 2540.36  179.91
  -3  -2  -9 2236.90  192.02
   3   2   9 2759.94  200.02
  -3   2   9 2304.93  189.49
   3   2  -9 2411.95  205.82
   3  -2   9 2373.10  197.83
   3  -2  -9 2702.49  180.67
   4  -2  -9  904.19   88.42
   4   2  -9  926.36  121.64
   4   2   9 1090.04  116.75
  -4   2   9  982.10   96.56
  -4  -2   9  896.07   90.27
   4  -2  -9  994.80  115.32
  -4  -2  -9  928.77   99.77
   4  -2   9  858.24  110.51
  -4   2  -9  827.44   92.03
   5   2   9  686.33  109.16
  -5  -2  -9  621.72   89.59
   5   2  -9  670.49  116.49
  -5   2  -9  615.75   84.43
  -5   2   9  762.48   91.79
  -5  -2   9  660.77   83.70
   5  -2  -9  657.92  110.51
   5  -2   9  727.52  109.27
   0   3  -9  807.02   57.01
   0  -3  -9  826.82   78.18
   0  -3   9  934.52   97.39
   0  -3  -9  589.56   83.03
   0  -3  -9  836.81   66.38
   0   3  -9  744.17   74.04
   1  -3  -9 5917.94  388.11
   1  -3  -9 5673.66  351.61
  -1  -3  -9 5555.63  341.24
   1  -3   9 5565.05  391.52
  -1  -3   9 5779.14  365.07
   1   3   9 5581.73  367.24
  -1   3  -9 5738.02  368.41
   1  -3  -9 6128.95  384.86
  -1  -3  -9 5156.71  393.79
  -1  -3   9 5820.79  383.61
   1   3  -9 5155.87  356.03
  -1   3  -9 5612.42  352.77
   2  -3   9  199.28   52.75
  -2   3  -9  187.92   38.76
  -2   3   9  185.55   39.69
  -2  -3  -9  259.93   45.54
   2   3   9  190.18   46.59
   2   3  -9  135.86   52.37
   2  -3  -9  204.59   48.77
  -2   3  -9  268.10   35.98
   2  -3  -9  212.08   37.62
  -2  -3   9  244.80   31.95
   2   3  -9  215.16   50.14
   3  -3  -9  247.15   46.81
   3   3  -9  474.29   83.57
   3  -3   9  266.36   64.05
   3  -3  -9  327.38   64.74
  -3  -3  -9  294.75   54.41
  -3   3   9  254.75   47.49
   3   3   9  313.28   66.27
  -3   3  -9  269.09   45.25
   3   3  -9  201.60   50.24
  -3   3  -9  323.73   48.20
  -3  -3   9  260.94   41.93
   4  -3   9  130.08   57.52
  -4   3  -9  167.70   38.19
   4   3  -9   50.67   52.67
   4   3   9  112.02   55.98
  -4  -3  -9   76.79   39.54
   4  -3  -9  120.53   39.17
  -4   3  -9   94.48   37.03
  -4   3   9   97.12   37.55
  -4  -3   9  114.99   33.42
   4  -3  -9  102.57   53.97
  -5   3  -9  732.08   90.01
   5   3  -9  707.04  126.68
  -5   3   9  658.02   92.01
   5  -3  -9  727.52   84.66
   5  -3   9  701.86  115.90
   5  -3  -9  693.23  116.59
  -5  -3   9  721.61   87.98
  -5  -3  -9  715.32   96.97
   5   3   9  778.84  113.92
   0  -4  -9   59.66   36.84
   0  -4  -9   18.45   16.01
   0  -4   9   17.46   39.59
   0  -4  -9   16.58   32.16
   0   4  -9  -41.42   19.47
   1  -4  -9 1374.12  115.46
   1  -4   9 1510.88  155.71
   1   4  -9 1262.12  110.35
   1  -4  -9 1329.12  103.97
  -1  -4   9 1460.93  135.37
  -1  -4  -9 1277.80  115.43
  -1  -4  -9 1172.62  125.92
  -1  -4  -9 1323.52   94.03
  -1   4  -9 1194.05  106.10
   1  -4  -9 1319.75  135.87
   2  -4   9  139.26   58.22
   2  -4  -9   78.91   43.72
  -2   4   9   55.53   27.54
  -2   4  -9   48.53   22.42
   2  -4  -9   73.32   29.15
   2   4  -9   98.14   59.29
   2   4   9   40.82   42.27
  -2   4  -9   67.72   33.68
   2   4  -9  108.09   47.18
  -2  -4  -9   93.47   41.46
   3   4  -9 4139.10  323.21
  -3   4   9 4298.58  301.30
   3  -4  -9 4008.91  310.47
   3  -4  -9 4271.36  282.48
  -3   4  -9 3957.07  276.89
   3   4   9 4012.38  301.48
  -3   4  -9 4423.81  293.30
   3  -4   9 4476.55  323.03
  -3  -4  -9 4156.00  305.34
  -4   4  -9   16.88   29.86
   4  -4   9   60.01   50.55
  -4  -4  -9   -6.74   33.32
  -4   4   9   33.69   32.45
   4   4   9  -16.93   47.56
   4  -4  -9   32.52   45.80
   4   4  -9  -14.65   50.73
   4  -4  -9   24.17   31.28
  -4   4  -9   24.69   26.86
  -5   4  -9  700.09   89.70
  -5  -4  -9  613.75   96.33
   5   4   9  540.76  110.63
   5  -4   9  936.20  133.74
   5  -4  -9  842.69   92.32
   5  -4  -9  752.84  123.20
   5   4  -9  569.19  122.79
  -5   4   9  842.60  100.09
   0   5  -9 1617.33  119.90
   0  -5  -9 1749.26  142.16
   0  -5   9 1559.56  155.12
   0  -5  -9 1122.10  103.91
   0  -5  -9 1409.73  130.35
   1  -5  -9 4156.12  282.88
  -1  -5  -9 4499.68  272.87
  -1  -5  -9 4328.49  305.91
   1  -5  -9 4171.68  332.77
   1  -5   9 4236.01  349.29
   1   5  -9 4233.83  290.15
  -1  -5  -9 3996.72  326.83
  -1   5  -9 4390.94  288.25
   1  -5  -9 4478.25  310.14
  -1  -5   9 4904.26  340.59
  -2  -5  -9  262.49   61.75
  -2   5   9  272.99   48.72
  -2   5  -9  248.22   50.67
   2  -5   9  445.47   98.72
   2  -5  -9  248.59   74.23
   2   5  -9  244.84   64.47
   2   5  -9  287.07   87.59
   2   5   9  377.67   71.52
   2  -5  -9  253.01   47.51
   3  -5   9  187.30   72.90
  -3  -5  -9  252.43   58.72
   3  -5  -9  247.68   72.58
   3   5  -9   94.69   71.66
   3   5   9  165.23   63.08
   3  -5  -9  330.93   54.68
  -3   5  -9  258.65   53.48
  -3   5   9  154.04   44.58
   4   5  -9   67.01   78.75
  -4   5  -9   87.01   40.69
   4  -5  -9  112.45   43.17
  -4  -5  -9  124.78   50.64
   4   5   9  104.15   62.39
   4  -5  -9  123.38   64.60
  -4   5   9  138.76   47.61
   4  -5   9   40.44   59.62
  -5   5   9  402.86   72.83
   5  -5   9  495.54  119.30
   5  -5  -9  314.01   64.79
   5  -5  -9  268.95   94.53
   5   5  -9  554.14  125.66
  -5  -5  -9  310.38   74.43
   5   5   9  371.28   95.88
   0   6  -9   25.49   32.53
   0  -6  -9   52.76   22.69
   0  -6   9   -5.87   52.72
   0  -6  -9   -5.01   29.13
   0  -6  -9   29.83   37.18
  -1  -6   9  675.97  115.77
   1  -6  -9  561.26   65.30
   1  -6  -9  647.50  108.79
  -1  -6  -9  565.60   85.81
   1  -6   9  648.50  131.38
   1   6  -9  434.43   69.07
  -1   6  -9  455.39   65.38
   1  -6  -9  322.52   55.65
  -1  -6  -9  545.99   84.99
   2   6  -9 1762.35  144.78
   2  -6  -9 1587.08  130.23
   2   6   9 1611.97  152.94
  -2  -6  -9 1044.62  142.48
  -2   6   9 1703.58  133.75
   2  -6   9 1646.04  195.86
  -2   6  -9 1516.57  130.48
   2  -6  -9 1399.14  175.80
   3  -6  -9  871.95   99.76
   3   6   9  928.68  123.11
   3  -6   9  943.73  152.38
  -3   6   9  933.62   97.60
  -3  -6  -9 1000.62  117.00
   3  -6  -9  882.49  137.64
   3   6  -9 1311.05  163.92
  -3   6  -9 1025.20  104.20
   4   6   9 1061.20  137.19
   4  -6  -9 1059.99  154.70
  -4  -6  -9 1122.19  129.23
  -4   6   9 1124.45  115.31
   4   6  -9 1146.24  168.05
   4  -6  -9 1151.04  117.13
  -4   6  -9 1137.64  114.71
   4  -6   9  957.61  162.51
   0  -7  -9 3497.87  273.52
   0   7  -9 3043.87  232.83
   0  -7   9 3355.89  291.69
   0  -7  -9 3376.05  253.41
   1  -7  -9  229.98   49.08
   1  -7   9  381.44  107.09
  -1  -7   9  185.67   87.49
   1   7  -9  222.75   57.29
  -1   7  -9  181.78   54.15
  -1  -7  -9  296.40   76.42
   1  -7  -9  183.81   82.65
  -1   7   9  210.44   48.98
   2  -7   9  867.90  167.42
  -2   7   9 1228.85  106.51
   2   7   9 1022.06  132.71
   2  -7  -9 1050.10  107.59
  -2   7  -9  973.33  106.92
   2  -7  -9 1042.39  163.78
  -3   7   9   41.74   35.51
   3  -7  -9  106.94   78.05
   3   7  -9  112.75   91.14
   3  -7   9   98.32   86.89
   3   7   9   42.64   66.41
  -3   7  -9   91.58   45.09
   3  -7  -9  153.79   50.47
  -4   7  -9  174.84   54.71
   4   7   9  130.88   78.19
   4  -7   9  126.66   93.15
   4  -7  -9  117.18   90.25
  -4   7   9   96.43   45.17
   4  -7  -9   89.05   50.69
   4   7  -9  -37.06   93.44
   0  -8  -9   -2.20   19.61
   0  -8   9   33.64   69.06
   0  -8  -9   74.47   52.00
   0   8  -9   18.29   34.78
  -1   8  -9   75.91   45.83
  -1  -8  -9   89.56   65.54
   1  -8   9  205.08   91.84
   1  -8  -9   56.54   64.22
   1  -8  -9   65.48   37.98
   1   8  -9  155.00   55.22
  -1  -8   9  184.22   92.62
   2  -8  -9 1315.91  129.13
   2  -8  -9 1392.79  198.62
  -2  -8   9 1652.27  204.79
  -2   8  -9 1357.44  134.02
   2   8   9 1128.91  151.34
   2  -8   9 1811.90  232.32
   3  -8   9   11.12   85.26
   3   8  -9   65.85   94.22
   3   8   9   52.21   73.29
   3  -8  -9   -5.92   40.42
  -3   8  -9  112.41   49.85
   3  -8  -9  100.73   88.74
   0   9  -9 1264.90  131.91
   0  -9  -9 1494.67  177.65
   1  -9   9  389.10  121.38
  -1   9  -9  404.09   77.65
   1  -9  -9  393.53   70.86
  -1  -9   9  563.67  139.34
   1  -9  -9  219.14   92.30
  -1  -9  -9  257.27   94.18
   2   9   9  278.94   97.90
   2  -9  -9  468.37  127.91
  -2   9  -9  278.80   73.12
   2  -9   9  548.05  149.59
   2  -9  -9  491.02   84.30
   0   0 -10  197.01   38.38
   0   0 -10  141.52   42.03
  -1   0 -10 5790.56  360.78
   1   0 -10 5670.65  363.66
   1   0 -10 5701.95  388.53
  -1   0 -10 5971.19  389.98
   1   0 -10 5792.74  365.64
   1   0  10 5959.07  366.08
  -2   0  10   -0.41   15.82
   2   0  10   -2.35   22.13
   2   0 -10   -0.52   19.90
  -2   0 -10  -14.02   19.15
  -2   0 -10   10.40   21.88
   2   0 -10    7.58   24.83
  -3   0 -10 5492.13  372.37
  -3   0  10 5381.15  370.05
   3   0 -10 5436.10  342.83
   3   0  10 5260.93  364.51
   4   0 -10   34.57   27.77
   4   0  10   26.23   39.21
   4   0 -10   -2.62   38.39
  -4   0  10    3.82   27.63
  -4   0 -10   94.73   37.89
   5   0  10 1175.10  135.91
  -5   0 -10 1063.25  114.55
  -5   0  10 1084.50  113.78
   5   0 -10 1070.41  141.84
   0   1 -10 1216.80  100.82
   0  -1 -10 1315.05  113.66
   0   1 -10 1097.36   95.42
   0  -1 -10 1052.90   87.90
   0  -1  10 1164.99   88.20
   1  -1  10 7467.25  494.92
  -1  -1 -10 7957.25  524.32
  -1   1 -10 7627.92  476.99
   1   1 -10 7516.41  484.68
  -1  -1 -10 7472.50  473.95
   1  -1 -10 8360.67  490.01
  -1  -1  10 8323.58  514.07
   1   1  10 8221.64  488.79
  -1   1 -10 7898.88  514.61
   1  -1 -10 7633.22  478.66
   1  -1 -10 7855.86  522.40
   1   1 -10 7773.14  494.88
  -2   1 -10 1127.42   89.52
  -2  -1 -10  976.85   94.51
   2   1 -10 1163.83   98.91
   2   1 -10 1207.24  104.55
  -2   1 -10 1214.30   95.63
   2   1  10 1213.97   95.69
   2  -1 -10 1170.09   98.06
  -2  -1 -10 1106.56   85.65
   2  -1 -10 1180.00   92.90
  -2  -1  10 1116.66   91.77
  -2   1  10 1125.63   96.20
   2  -1  10 1088.76   96.45
   3   1 -10  278.88   44.40
   3   1  10  174.13   47.15
   3   1 -10  256.43   61.13
  -3  -1  10  105.77   34.39
  -3   1 -10  122.00   35.68
  -3   1 -10  134.24   31.67
  -3  -1 -10  193.41   42.12
  -3   1  10  160.47   38.59
   3  -1 -10  172.26   36.75
   3  -1  10  231.38   50.29
  -4   1 -10  147.60   40.89
  -4  -1 -10   75.10   37.14
  -4  -1  10  136.30   39.80
   4  -1 -10  184.75   40.66
   4  -1  10  124.38   50.69
   4   1 -10   87.68   49.78
  -4   1  10  129.34   41.51
   4   1  10  130.21   50.33
   4  -1 -10  110.13   50.16
   5  -1 -10  822.32  119.55
  -5   1 -10  748.35   93.31
  -5  -1 -10  732.43   96.60
  -5   1  10  738.36   94.07
   5   1 -10  770.49  118.72
   5   1  10  748.19  113.26
   5  -1  10  685.48  108.93
  -5  -1  10  831.77   96.54
   0   2 -10   60.59   27.58
   0  -2 -10   50.78   20.34
   0  -2 -10   17.29   30.96
   0  -2  10   56.09   31.15
   0  -2 -10   -0.61   14.34
   0   2 -10   22.41   18.90
   1   2 -10  628.14   71.83
   1  -2 -10  697.36   73.16
  -1  -2  10  714.50   57.11
   1  -2 -10  847.18   69.65
  -1   2 -10  672.58   60.05
   1  -2 -10  682.50   64.21
  -1  -2 -10  668.62   76.80
  -1  -2 -10  628.85   55.46
  -1   2 -10  678.85   67.89
   1   2  10  732.17   64.61
   1  -2  10  738.55   77.62
  -2   2  10 2395.63  167.50
   2  -2 -10 2119.79  153.75
  -2   2 -10 2179.37  159.20
  -2  -2 -10 2214.67  168.16
   2  -2  10 2449.61  172.69
   2  -2 -10 2019.57  161.63
  -2  -2  10 1961.15  155.12
   2   2  10 2067.03  160.17
  -2  -2 -10 2303.48  137.90
   2   2 -10 2218.96  163.50
  -2   2 -10 2208.10  152.69
  -3   2  10 2376.25  190.00
   3   2 -10 2536.35  205.50
  -3  -2 -10 2633.64  196.10
  -3   2 -10 2576.77  174.20
   3   2  10 2720.91  197.00
   3  -2 -10 2477.90  178.51
  -3   2 -10 2538.35  187.72
   3   2 -10 2681.90  182.40
   3  -2  10 2123.33  191.35
   4  -2 -10 1744.62  169.54
  -4   2  10 1872.18  161.26
  -4  -2 -10 2089.23  166.66
  -4  -2  10 2081.88  158.48
   4  -2 -10 1847.00  147.35
  -4   2 -10 1975.45  158.91
   4   2 -10 1941.61  180.04
   4   2  10 1828.08  166.68
   4  -2  10 1906.93  173.01
  -5   2 -10  416.56   67.82
  -5   2  10  409.26   72.01
   5   2 -10  355.21   94.91
  -5  -2 -10  357.95   72.55
  -5  -2  10  261.23   59.68
   5  -2  10  335.92   83.24
   5   2  10  372.26   84.57
   5  -2 -10  288.39   80.88
   0   3 -10 6923.87  441.52
   0  -3 -10 6588.41  437.99
   0  -3  10 7099.40  459.23
   0  -3 -10 6827.90  476.11
   0   3 -10 6631.49  425.29
   0  -3 -10 6967.99  417.84
   1   3 -10 1124.44   99.13
   1   3  10 1033.68   93.25
  -1   3 -10 1148.61   94.46
  -1   3 -10 1095.94   83.59
  -1  -3  10 1157.07  108.83
   1  -3 -10 1148.16   90.31
   1  -3 -10  984.48  104.04
  -1  -3 -10 1145.53  113.99
  -1  -3 -10 1100.87   80.71
   1  -3 -10 1117.17  102.04
   1  -3  10 1317.37  121.82
  -1  -3  10 1089.12   79.58
   2  -3 -10 1527.31  120.06
  -2  -3  10 1400.91  113.90
   2  -3  10 1627.51  140.97
  -2   3 -10 1492.00  117.93
  -2   3  10 1690.77  130.91
   2   3 -10 1673.16  133.73
  -2  -3 -10 1733.28  136.17
   2   3 -10 1772.23  147.54
   2   3  10 1543.73  128.98
  -2   3 -10 1449.16  118.52
   2  -3 -10 1606.40  134.34
   3  -3 -10    8.58   20.05
   3   3  10  -20.51   44.06
  -3   3 -10   83.79   32.01
   3  -3 -10  103.62   35.31
   3   3 -10  161.06   45.47
   3   3 -10   60.69   56.01
  -3  -3  10   55.04   27.35
  -3  -3 -10   57.52   35.63
  -3   3 -10   46.58   30.77
   3  -3  10   20.03   41.71
  -3   3  10  134.75   38.67
  -4  -3 -10  217.30   54.08
   4  -3  10  237.92   68.40
  -4   3  10  222.83   50.88
   4  -3 -10  137.09   42.67
  -4   3 -10   90.27   38.81
  -4  -3  10  150.32   41.58
   4   3 -10  318.59   79.59
   4  -3 -10   89.31   52.99
   4   3  10  145.01   63.24
  -5   3 -10  175.41   52.50
   5  -3  10  148.31   67.32
   5   3 -10  105.60   77.60
  -5   3  10  129.99   48.74
   5  -3 -10  185.61   70.22
  -5  -3  10   70.71   40.76
  -5  -3 -10  119.76   53.21
   5   3  10  159.95   67.22
   5  -3 -10  226.05   52.92
   0  -4 -10   88.34   25.17
   0   4 -10   62.96   33.28
   0  -4 -10   70.24   36.68
   0  -4 -10   94.74   41.45
   0  -4  10  173.39   56.02
  -1   4 -10   15.07   25.97
   1  -4  10  117.86   59.96
   1   4 -10   49.95   36.32
   1  -4 -10   21.05   21.05
   1  -4 -10   -1.10   26.14
  -1  -4  10   39.61   48.50
  -1  -4 -10   31.92   17.93
  -1  -4 -10   23.65   32.44
  -1  -4 -10    3.43   39.46
   1  -4 -10   -3.77   44.96
   2  -4 -10 3033.16  207.57
   2   4 -10 3079.66  220.65
   2   4  10 2959.08  220.14
  -2  -4 -10 2828.79  228.41
  -2   4 -10 3099.02  207.36
  -2   4  10 3001.28  220.29
   2  -4 -10 3124.99  234.87
   2  -4  10 2912.82  240.82
   2   4 -10 2679.43  237.19
  -2   4 -10 2822.57  205.03
   3  -4  10   68.49   45.32
  -3   4 -10   41.30   32.58
  -3  -4 -10   82.18   37.44
   3   4  10   84.87   51.03
   3  -4 -10   29.10   43.78
   3   4 -10   73.90   65.36
  -3   4 -10   78.64   30.54
  -3   4  10    2.60   27.95
   3  -4 -10   48.61   32.26
   4  -4 -10 1769.17  147.06
   4   4 -10 1891.79  184.48
   4  -4  10 1782.06  178.79
  -4   4  10 1677.42  153.91
   4  -4 -10 1752.18  171.73
  -4  -4 -10 1761.40  161.23
  -4   4 -10 1748.94  147.77
   4   4  10 1941.08  171.30
  -5  -4 -10   16.79   43.46
   5  -4 -10   33.22   36.99
   5   4  10   37.97   64.83
  -5   4  10   11.63   33.09
  -5   4 -10  -46.78   29.33
   5   4 -10  -91.07   57.18
   5  -4 -10  -42.47   48.68
   5  -4  10   17.03   56.30
   0   5 -10 3556.27  242.80
   0  -5 -10 3119.88  263.84
   0  -5  10 3804.17  285.65
   0  -5 -10 3768.05  263.08
   1   5 -10  927.15   98.12
  -1  -5 -10  876.82  115.78
  -1  -5 -10  954.93   80.94
  -1  -5 -10 1089.99  106.64
  -1  -5  10 1054.34  128.39
   1  -5 -10  902.07  127.39
   1  -5 -10 1137.99  103.80
   1  -5  10  985.99  140.58
   1  -5 -10 1035.09   90.47
  -1   5 -10 1020.26   98.37
   2   5 -10 1803.60  149.73
   2  -5 -10 1747.57  134.01
   2   5 -10 1853.34  183.19
  -2  -5 -10 1463.02  150.97
   2  -5  10 1508.21  178.56
   2  -5 -10 1652.70  166.00
  -2   5 -10 1569.65  133.30
   2   5  10 1682.58  148.71
  -2   5  10 1584.19  138.11
  -3   5 -10  100.83   38.44
   3   5  10   55.37   47.79
   3   5 -10   61.65   72.52
   3  -5 -10   84.51   53.99
  -3   5  10  201.11   47.08
   3  -5  10   87.40   64.54
  -3  -5 -10  174.06   52.85
   3  -5 -10   73.59   34.93
   4   5 -10   60.06   74.65
  -4   5 -10  134.45   43.10
  -4  -5 -10   82.44   45.55
   4   5  10   60.94   54.54
   4  -5 -10   30.18   53.21
  -4   5  10  124.50   43.32
   4  -5 -10   81.34   38.50
   4  -5  10  105.97   66.81
  -5  -5 -10  144.19   59.42
   5  -5 -10  122.88   50.73
   5  -5 -10  105.24   75.03
   5  -5  10   55.78   72.87
   5   5 -10   51.70   86.99
   5   5  10  164.36   78.49
  -5   5  10  233.81   65.46
   0   6 -10  -18.13   30.78
   0  -6 -10  -10.18   18.68
   0  -6  10  -13.65   54.68
   0  -6 -10    0.51   16.44
   0  -6 -10  -12.38   41.18
   1  -6 -10  620.71   73.08
   1   6 -10  621.69   82.89
  -1  -6  10  891.49  124.26
   1  -6 -10  627.17   77.48
  -1   6 -10  454.13   72.36
   1  -6 -10  682.74  108.74
   1  -6  10  702.79  131.74
  -2   6  10  885.42   90.02
  -2  -6 -10  663.08  105.69
   2   6 -10  919.69  103.62
   2   6  10  729.04  103.55
   2  -6 -10  979.08   95.75
   2  -6 -10  761.79  127.28
   2  -6  10  627.13  134.63
  -2   6 -10  944.05   95.11
  -3  -6 -10 1444.47  151.58
  -3   6  10 1580.16  136.37
   3  -6 -10 1304.10  128.22
   3   6 -10 1787.13  196.84
   3  -6  10 1485.06  191.13
   3  -6 -10 1423.44  173.06
  -3   6 -10 1505.06  134.42
   3   6  10 1479.23  154.51
   4  -6  10  987.71  154.18
   4  -6 -10  535.79  122.18
   4   6  10  595.66  109.53
   4   6 -10  963.91  153.68
  -4   6  10  905.77   99.97
   4  -6 -10  787.84   96.97
  -4  -6 -10  732.35  108.57
  -4   6 -10  757.25   93.20
   0  -7 -10    7.06   17.67
   0  -7  10  147.71   75.70
   0  -7 -10  115.74   52.99
   0   7 -10   20.09   37.38
   0  -7 -10   44.18   36.71
   1   7 -10 2561.03  196.99
  -1  -7 -10 2383.00  211.87
  -1  -7 -10 2348.60  210.17
  -1   7 -10 2370.86  190.04
   1  -7  10 2571.64  253.28
   1  -7 -10 2606.22  188.14
  -1  -7  10 2774.17  246.80
   1  -7 -10 2398.24  228.59
   2  -7 -10  187.17   89.50
   2   7  10  158.35   65.88
   2  -7  10   -8.12   80.78
  -2   7 -10   59.68   43.51
   2  -7 -10   87.37   42.32
  -2   7  10  100.88   39.34
   3   7 -10  -62.13   63.85
  -3   7  10   66.21   40.22
  -3   7 -10   66.35   43.03
   3  -7 -10   10.66   36.76
   3  -7  10   44.91   84.93
   3   7  10   55.90   58.91
   3  -7 -10   74.52   74.29
   4   7  10  -42.26   62.31
   4  -7  10    6.04   78.95
   4  -7 -10  -21.48   36.29
   4  -7 -10    6.53   71.18
   4   7 -10   90.35  103.81
  -4   7  10   -9.74   37.27
  -4   7 -10   25.29   40.23
   0  -8 -10    0.96   18.78
   0   8 -10   26.95   37.31
   0  -8 -10    3.10   47.68
   0  -8  10  -21.31   65.08
   1   8 -10  521.52   84.40
   1  -8 -10  319.20   64.65
  -1  -8 -10  653.95  108.27
   1  -8  10  589.47  131.24
   1  -8 -10  514.46  108.71
  -1   8 -10  568.10   82.09
  -1  -8  10  535.24  125.21
   2   8  10   47.24   57.86
   2  -8 -10   67.28   70.52
   2  -8  10   36.31   82.69
  -2   8 -10   11.20   40.92
   2  -8 -10   48.94   41.10
   3   8  10 1570.53  172.91
   3  -8 -10 1330.34  138.83
   3  -8 -10  998.94  183.52
  -3   8 -10 1487.23  143.45
   3  -8  10 1109.10  209.66
   3   8 -10 1675.80  220.19
   0  -9  10  543.56  133.63
   0  -9 -10  532.63  112.53
   0   9 -10  521.62   84.44
  -1   9 -10  859.60  110.86
   1  -9 -10  830.84  138.22
   1  -9  10  765.13  156.42
   1  -9 -10  891.40  105.26
  -1  -9  10 1224.12  181.70
  -1  -9 -10  953.87  137.93
   2  -9 -10   85.33   87.99
   2  -9  10  193.50  110.17
   2   9  10  135.83   74.75
   0   0 -11   11.39   26.68
   0   0 -11  -17.70   25.12
   1   0 -11  619.69   66.22
   1   0 -11  583.96   52.18
  -1   0 -11  606.80   64.10
  -1   0 -11  585.61   62.13
   1   0 -11  623.73   61.93
   1   0  11  595.79   51.01
   2   0 -11 4372.56  271.71
  -2   0 -11 3846.81  285.21
  -2   0  11 4112.47  285.30
   2   0  11 3982.08  274.83
   2   0 -11 4444.50  278.86
  -2   0 -11 4104.26  262.40
   3   0 -11  -18.98   33.60
  -3   0 -11    9.59   24.55
   3   0 -11  -14.04   22.62
   3   0  11    0.19   31.00
  -3   0  11   -0.20   20.28
   4   0  11 4526.54  321.03
   4   0 -11 4276.91  289.20
  -4   0 -11 4384.83  317.57
  -4   0  11 4439.55  316.48
   4   0 -11 4310.99  323.21
  -5   0  11   87.69   41.81
   5   0  11   18.87   47.51
   5   0 -11  -15.16   50.96
  -5   0 -11   57.59   42.07
   0   1 -11 7540.41  484.94
   0   1 -11 6854.91  446.16
   0  -1  11 7157.68  451.73
   0  -1 -11 7866.99  499.49
   0  -1 -11 6743.79  440.40
   1   1 -11 1346.73  107.78
  -1   1 -11 1136.62   97.38
   1   1  11 1219.06   89.35
   1  -1 -11 1185.32  105.69
  -1   1 -11 1239.12  100.47
   1  -1  11 1324.54   98.18
  -1  -1 -11 1250.27   96.42
   1  -1 -11 1204.04   89.74
  -1  -1 -11 1409.41  112.55
   1   1 -11 1408.24   98.77
   1  -1 -11 1095.34   96.64
   2   1  11 2132.29  149.40
  -2  -1  11 1740.99  147.26
  -2   1 -11 2071.64  152.62
   2  -1 -11 2112.21  150.98
  -2  -1 -11 2078.75  157.06
   2  -1  11 2036.18  152.40
  -2   1 -11 2037.20  144.80
  -2  -1 -11 2108.95  139.68
   2  -1 -11 1964.12  146.61
   2   1 -11 2055.44  155.88
  -2   1  11 2139.93  157.27
   2   1 -11 2074.42  153.06
  -3  -1  11  199.88   41.53
   3   1  11  243.41   53.17
   3   1 -11  216.87   45.72
  -3   1 -11  168.37   38.87
   3  -1  11  242.81   51.09
   3  -1 -11  253.80   43.30
  -3   1  11  239.44   45.89
  -3   1 -11  214.44   44.04
  -3  -1 -11  181.89   45.68
   3  -1 -11  303.74   57.48
   4   1  11  101.34   47.24
   4   1 -11  244.85   45.39
   4  -1 -11   91.97   37.24
  -4   1 -11  153.28   43.35
  -4  -1  11  125.21   41.94
  -4  -1 -11  180.23   49.43
   4  -1 -11   92.27   49.32
   4   1 -11  106.74   55.25
   4  -1  11  146.69   51.96
  -4   1  11  173.43   45.91
  -5   1 -11  182.74   53.37
   5  -1  11   61.80   58.49
  -5  -1 -11  171.63   55.36
   5   1  11  115.61   63.07
   5  -1 -11  165.74   64.60
  -5  -1  11  173.47   51.04
  -5   1  11  233.05   58.13
   5   1 -11   94.48   61.47
   0   2 -11  123.70   29.42
   0  -2 -11  161.55   24.81
   0  -2 -11  188.71   49.56
   0  -2  11  136.90   36.06
   0   2 -11  180.67   41.43
   0  -2 -11  175.25   29.15
  -1  -2 -11 1717.36  145.12
   1   2  11 1510.58  119.62
   1  -2 -11 1547.99  122.56
   1  -2  11 1935.35  141.25
   1   2 -11 1797.07  137.59
   1  -2 -11 1800.91  128.78
   1   2 -11 1721.36  133.25
   1  -2 -11 1763.73  142.38
  -1   2 -11 1569.08  127.59
  -1  -2  11 1735.78  122.64
  -1   2 -11 1712.06  125.76
  -1  -2 -11 1837.40  118.17
   2  -2 -11 1738.55  127.85
   2   2 -11 1568.89  138.94
   2  -2 -11 1633.33  130.80
   2   2  11 1642.01  130.53
   2   2 -11 1870.50  139.73
  -2  -2 -11 1708.46  137.40
  -2   2 -11 1800.45  127.98
  -2  -2  11 1620.40  125.33
  -2  -2 -11 1670.80  111.31
  -2   2 -11 1749.56  129.31
  -2   2  11 1644.81  135.18
   2  -2  11 1567.04  135.73
   3   2  11 1935.68  174.52
   3   2 -11 2631.73  174.03
  -3   2 -11 2287.48  173.11
   3  -2  11 2441.16  186.61
  -3  -2 -11 2706.84  186.31
   3  -2 -11 2159.43  177.46
   3  -2 -11 2125.68  163.82
  -3   2 -11 2235.70  160.56
  -3   2  11 2380.40  178.79
  -3  -2  11 1885.48  164.93
   3   2 -11 2488.50  192.75
   4  -2 -11 1039.63  118.32
  -4  -2 -11 1088.91  108.07
  -4   2 -11 1001.94  100.32
  -4  -2  11  971.81   97.70
  -4   2  11  984.18  102.13
   4   2 -11 1218.81  130.62
   4  -2 -11  938.75   93.35
   4   2  11  935.61  112.86
   4  -2  11  944.00  115.40
  -5   2  11  503.81   79.16
  -5   2 -11  249.95   62.04
   5   2  11  308.85   78.88
   5   2 -11  452.75   98.63
   5  -2 -11  333.13   87.43
  -5  -2  11  412.85   69.72
   5  -2  11  441.08   93.20
  -5  -2 -11  506.59   81.45
   0   3 -11  533.34   67.06
   0  -3 -11  796.80   88.25
   0  -3  11  722.36   82.47
   0   3 -11  572.76   50.59
   0  -3 -11  570.26   56.67
   0  -3 -11  647.01   63.61
  -1  -3  11 4736.66  319.23
  -1  -3 -11 4577.05  353.49
   1   3 -11 4824.57  320.69
  -1  -3 -11 5116.92  302.19
  -1   3 -11 4852.00  313.89
   1   3  11 4780.75  318.78
   1  -3 -11 4875.93  311.39
  -1  -3  11 5156.04  336.89
   1  -3  11 5004.31  349.19
  -1   3 -11 4960.23  324.47
   1  -3 -11 4727.35  346.16
   1  -3 -11 5153.29  337.40
  -2   3 -11  222.68   36.38
   2  -3 -11  186.49   47.34
  -2   3  11  258.36   47.05
   2   3 -11  152.77   51.38
   2  -3  11  221.91   57.35
  -2  -3 -11  226.45   50.85
  -2  -3  11  259.74   34.08
  -2   3 -11  222.44   42.24
   2   3 -11  252.35   59.59
   2  -3 -11  148.90   37.43
   2   3  11  184.25   44.39
  -3  -3  11  242.60   40.72
  -3   3  11  200.21   46.80
   3   3 -11  162.84   64.70
   3  -3 -11  222.13   44.57
   3  -3 -11  319.56   61.33
   3   3 -11  262.80   55.79
   3   3  11   66.49   51.56
  -3   3 -11  234.06   44.42
  -3   3 -11  186.22   41.54
   3  -3  11  323.48   65.79
  -3  -3 -11  289.04   54.41
   4  -3  11  164.34   61.41
  -4   3 -11  115.64   41.42
   4   3  11   98.29   57.25
  -4   3  11  136.86   45.86
   4   3 -11  110.80   68.11
  -4  -3 -11  112.76   46.83
  -4  -3  11  171.22   42.03
   4  -3 -11  103.79   54.02
   4  -3 -11   89.58   39.94
   5   3 -11  993.12  141.35
  -5   3 -11 1096.37  109.03
   5   3  11  902.94  122.22
  -5  -3 -11  899.44  114.21
  -5   3  11  820.76  108.65
   5  -3 -11  918.95  132.54
   5  -3  11  950.83  131.34
   5  -3 -11  990.30  103.23
   0   4 -11   15.94   29.71
   0  -4  11   30.58   38.90
   0  -4 -11    7.04   28.84
   0  -4 -11    9.36   36.56
   0  -4 -11   42.05   21.16
   1   4 -11 1100.69  106.39
  -1  -4 -11 1106.27   88.25
   1  -4 -11 1085.10  123.34
   1  -4  11 1088.62  134.75
  -1  -4  11 1309.23  125.29
  -1   4 -11 1207.86  103.34
   1  -4 -11 1382.41  100.64
  -1  -4 -11  855.32  121.36
   1  -4 -11 1427.70  119.67
   2  -4 -11   43.40   26.30
   2   4  11   23.03   42.12
  -2  -4 -11   18.47   37.95
  -2   4  11   98.33   36.83
  -2   4 -11   26.62   32.24
   2  -4 -11   89.32   47.57
   2   4 -11   29.83   48.90
   2   4 -11  125.95   66.09
   2  -4  11   15.63   45.39
   3   4  11 3260.90  260.41
  -3   4  11 3685.46  266.33
   3   4 -11 3987.24  290.13
   3  -4 -11 3385.46  247.16
  -3   4 -11 3515.97  254.06
  -3  -4 -11 3637.79  272.45
   3  -4 -11 3537.01  271.84
   3  -4  11 3817.41  285.53
  -3   4 -11 3601.42  246.13
  -4   4 -11   57.16   25.43
  -4  -4 -11   37.72   39.60
  -4   4 -11    4.24   31.58
   4   4  11   -2.34   44.62
   4  -4 -11   31.03   48.00
   4  -4  11   17.52   47.16
   4   4 -11   55.38   67.15
   4  -4 -11   60.48   33.98
  -4   4  11   63.83   38.60
   5  -4 -11 1060.21  108.91
   5   4 -11  948.34  146.74
   5  -4 -11 1036.14  139.37
  -5   4 -11  761.40   99.76
   5  -4  11  857.63  135.14
  -5  -4 -11 1040.60  122.72
   5   4  11  740.08  121.11
  -5   4  11  977.76  114.64
   0  -5  11 1760.05  154.25
   0   5 -11 1572.89  121.46
   0  -5 -11  982.13   99.07
   0  -5 -11 1448.99  127.61
   0  -5 -11 1444.18  132.92
  -1   5 -11 3643.71  259.36
  -1  -5 -11 3568.25  299.02
  -1  -5  11 4220.84  303.05
   1  -5 -11 4113.43  287.64
   1   5 -11 3938.35  265.92
   1  -5  11 3515.11  309.80
  -1  -5 -11 3945.05  274.77
  -1  -5 -11 3938.38  246.32
   1  -5 -11 3351.98  293.65
   1  -5 -11 3865.94  257.04
   2   5 -11  193.10   61.05
   2  -5 -11  294.46   80.36
  -2   5  11  224.30   48.36
   2   5 -11  187.44   72.75
  -2  -5 -11  200.97   62.62
   2  -5  11  304.64   86.36
   2   5  11  188.32   55.77
   2  -5 -11  161.15   42.97
  -2   5 -11  296.12   54.40
   3  -5  11   62.57   62.26
   3  -5 -11  -19.05   28.65
  -3   5 -11  107.02   42.38
  -3   5  11   92.43   40.17
   3   5  11   65.01   51.01
   3   5 -11    7.75   58.34
  -3  -5 -11  -22.65   35.28
   3  -5 -11   50.73   32.92
  -4  -5 -11  131.37   54.81
  -4   5 -11  177.66   50.69
   4  -5 -11  204.35   53.37
   4   5 -11  157.83   76.28
  -4   5  11  163.93   51.10
   4   5  11  116.75   64.87
   4  -5  11  214.20   79.52
   4  -5 -11  148.65   66.53
   0  -6 -11   23.18   48.92
   0  -6 -11  -14.19   12.34
   0  -6  11   -5.14   51.50
   0  -6 -11    7.58   33.91
   0   6 -11   41.73   40.64
  -1  -6 -11  496.92   78.42
  -1   6 -11  418.53   69.25
  -1  -6 -11  557.82   89.14
   1  -6 -11  600.96  101.38
   1  -6  11  448.88  111.56
   1   6 -11  596.12   81.23
   1  -6 -11  600.40   76.93
  -1  -6  11  567.94  103.85
   1  -6 -11  600.09   68.79
   2   6 -11 1205.72  123.32
   2  -6  11 1256.45  170.85
  -2   6 -11  989.63  106.29
   2  -6 -11 1064.55  105.70
   2  -6 -11 1261.67  152.64
   2   6 -11 1190.41  155.00
  -2   6  11 1083.58  107.89
   2   6  11 1155.58  122.08
  -2  -6 -11  943.14  127.66
  -3   6  11  993.96  104.07
   3   6 -11 1214.97  161.98
   3  -6 -11  858.14  101.47
   3  -6 -11 1245.45  151.89
  -3   6 -11 1043.49  105.78
  -3  -6 -11  758.41  116.39
   3   6  11  797.66  114.06
   3  -6  11 1026.31  156.09
   4   6  11  966.26  129.51
   4  -6  11 1061.42  165.53
   4  -6 -11  969.25  147.68
  -4   6  11 1204.24  118.66
  -4   6 -11 1044.71  109.61
   4   6 -11  936.08  159.62
   4  -6 -11  848.52  107.72
  -4  -6 -11 1023.20  132.22
   0   7 -11 2456.27  193.13
   0  -7  11 2318.49  232.96
   0  -7 -11 2433.98  206.03
   0  -7 -11 2607.51  215.50
  -1  -7 -11  -15.64   27.68
  -1   7 -11  112.71   48.16
   1  -7  11  187.91   90.52
   1   7 -11  133.94   56.29
   1  -7 -11  133.99   56.61
   1  -7 -11   19.66   30.04
  -1  -7 -11  120.70   51.32
  -1  -7  11   80.38   71.09
  -2   7  11  967.06  103.70
  -2   7 -11  974.96  107.82
  -2  -7 -11 1116.16  137.75
   2  -7  11  942.47  167.15
   2  -7 -11 1017.85  106.81
   2   7  11  968.81  120.79
   2  -7 -11  886.31  148.76
  -3   7  11   24.83   37.99
   3   7  11   89.73   63.92
   3  -7 -11   66.76   71.31
   3  -7  11   64.04   79.68
   3  -7 -11   62.12   42.47
  -3   7 -11   52.79   41.77
   3   7 -11   93.25   87.59
   0  -8 -11   -4.82   45.84
   0  -8  11   14.78   59.40
   0   8 -11   -7.32   37.53
   0  -8 -11   -2.60   21.25
   1   8 -11   27.52   45.48
   1  -8  11   48.68   70.60
  -1  -8  11   23.50   77.16
  -1  -8 -11   68.23   58.01
   1  -8 -11   14.76   56.55
  -1   8 -11   69.35   45.94
   1  -8 -11   25.13   34.84
   2   8  11 1432.04  154.18
   2  -8  11 1411.40  209.92
  -2   8 -11 1215.96  129.75
   2  -8 -11 1178.77  125.32
   2  -8 -11 1236.84  181.21
  -3   8 -11   46.26   48.93
   3   8 -11   54.33  100.51
   3   8  11   42.89   66.93
   3  -8 -11  -13.08   33.01
   3  -8  11  248.61  135.41
   0   9 -11 1345.04  140.62
   0  -9  11 1263.67  186.13
   1   9 -11  315.85   82.60
  -1  -9  11  285.90  117.91
   1  -9 -11  388.53   69.67
  -1   9 -11  294.56   75.74
   1  -9  11  282.86  111.95
   0   0 -12 2814.80  202.70
   0   0 -12 3194.86  228.60
   1   0  12 2173.72  142.32
   1   0 -12 2140.07  140.85
   1   0 -12 1866.97  151.67
  -1   0 -12 2116.00  161.67
   1   0 -12 2194.33  160.79
  -2   0 -12  338.91   48.16
   2   0 -12  352.00   47.89
   2   0  12  314.79   44.66
  -2   0 -12  281.89   46.28
   2   0 -12  294.02   49.49
  -2   0  12  276.47   43.42
   3   0 -12 3263.42  242.13
  -3   0 -12 3476.50  245.99
   3   0  12 3382.56  240.69
   3   0 -12 3390.92  228.58
  -3   0  12 3112.76  240.14
  -4   0  12   10.97   29.51
   4   0 -12   -1.89   25.39
   4   0 -12  -63.62   35.27
  -4   0 -12  -14.36   31.47
   4   0  12   25.76   37.93
   5   0 -12 1257.09  144.94
   5   0  12  836.79  120.48
  -5   0  12 1079.70  115.00
  -5   0 -12 1045.47  115.64
   0  -1 -12 1397.31  115.45
   0  -1 -12 1748.58  142.76
   0   1 -12 1615.63  129.50
   0  -1  12 1581.93  111.35
   0   1 -12 1509.12  123.51
  -1   1 -12 5205.53  340.97
   1  -1  12 5059.15  323.92
   1   1  12 4801.65  313.79
  -1   1 -12 4379.09  315.06
   1  -1 -12 4771.07  317.70
   1   1 -12 5243.86  322.61
   1   1 -12 5036.13  325.42
  -1  -1 -12 5251.45  351.84
  -1  -1 -12 4964.30  314.30
   1   1 -12 5123.67  337.60
   1  -1 -12 5008.00  348.52
   1  -1 -12 5100.97  315.21
   2   1 -12  647.35   78.24
  -2  -1 -12  652.58   77.60
   2   1 -12  746.42   82.00
   2  -1 -12  987.10   79.50
  -2   1  12  687.89   77.55
  -2   1 -12  909.29   78.73
   2  -1  12  783.88   78.48
  -2  -1 -12  627.50   67.70
   2  -1 -12  906.21   81.12
   2   1  12  963.02   77.88
  -2   1 -12  956.95   79.40
   3  -1  12  235.83   51.70
   3   1 -12  268.87   60.77
  -3  -1 -12  231.48   48.63
   3  -1 -12  214.38   44.49
  -3   1 -12  305.55   49.27
  -3   1  12  210.64   44.97
   3   1  12  225.16   50.79
   3   1 -12  153.03   44.73
  -3  -1  12  254.23   45.54
  -3   1 -12  283.22   48.49
   3  -1 -12  217.59   53.22
  -4   1 -12  415.60   68.09
   4   1  12  494.93   80.02
   4  -1 -12  465.51   65.61
  -4  -1  12  545.25   71.43
   4  -1  12  499.46   81.63
   4   1 -12  565.09   68.73
  -4   1  12  632.67   76.88
   4   1 -12  611.13   90.39
   4  -1 -12  490.75   84.97
  -4  -1 -12  521.92   75.11
   5   1 -12  545.38  102.62
  -5   1  12  581.10   86.15
  -5  -1 -12  490.93   84.62
  -5  -1  12  654.51   86.56
  -5   1 -12  625.99   85.92
   5  -1 -12  586.45  105.59
   5  -1  12  517.18   95.34
   5   1  12  628.58  100.18
   0  -2  12   66.90   30.09
   0  -2 -12   51.56   22.23
   0  -2 -12   26.98   34.58
   0   2 -12   65.08   24.32
   0  -2 -12   28.96   15.91
   0   2 -12   44.55   29.95
   1  -2 -12  730.45   72.52
   1  -2 -12  730.47   85.66
   1   2 -12  897.12   83.02
  -1   2 -12  836.37   73.38
   1   2 -12  910.61   89.38
  -1  -2 -12  756.20   92.95
   1  -2 -12  876.91   75.39
   1   2  12  782.98   67.45
  -1  -2  12  823.88   68.47
   1  -2  12  869.01   86.51
  -1   2 -12  709.12   76.22
  -1  -2 -12  889.89   69.57
   2   2  12 1450.57  120.69
   2  -2 -12 1420.61  121.35
   2   2 -12 1551.26  133.85
  -2   2 -12 1605.38  121.48
  -2   2 -12 1576.84  121.45
  -2   2  12 1457.30  127.93
   2  -2 -12 1574.57  119.95
  -2  -2 -12 1653.54  132.14
   2  -2  12 1654.03  131.08
   2   2 -12 1472.12  129.15
  -2  -2  12 1464.59  116.39
  -3   2 -12 2628.92  197.83
   3  -2 -12 2716.64  203.31
  -3   2 -12 2431.92  183.57
   3   2  12 2622.95  200.21
   3  -2  12 2634.07  206.24
  -3  -2 -12 2584.45  204.56
  -3  -2  12 2549.43  193.62
  -3   2  12 2789.04  204.65
   3   2 -12 2793.91  195.87
   3  -2 -12 2705.62  191.32
  -4  -2  12 1782.41  143.89
  -4  -2 -12 1828.54  155.35
   4   2  12 1641.93  152.58
   4  -2  12 1554.51  153.24
  -4   2 -12 1743.54  145.59
   4  -2 -12 1521.01  134.20
   4   2 -12 1975.16  171.98
   4  -2 -12 1276.28  144.67
  -4   2  12 1865.91  151.78
   5   2  12  448.37   94.31
   5  -2 -12  725.70   84.39
  -5   2 -12  631.54   85.36
   5  -2  12  634.30  109.27
   5   2 -12  668.65  113.43
   5  -2 -12  566.78  104.58
  -5  -2  12  792.52   92.27
  -5   2  12  543.49   87.49
  -5  -2 -12  672.79   95.33
   0   3 -12 7338.21  453.62
   0  -3  12 7668.06  480.01
   0  -3 -12 7200.69  443.27
   0   3 -12 7025.61  471.01
   0  -3 -12 7113.03  458.72
   1   3  12  839.34   75.88
   1  -3  12  808.26  100.83
  -1  -3 -12  660.60   95.73
  -1   3 -12  971.73   88.16
  -1  -3  12  853.64   65.72
  -1  -3  12 1000.09   96.26
   1  -3 -12  940.06   94.99
  -1  -3 -12  782.05   68.11
   1  -3 -12  757.38   76.49
  -1   3 -12  926.61   74.93
   1  -3 -12  815.22   89.83
   1   3 -12  733.89   86.09
   2   3 -12 1146.84  115.67
   2  -3 -12 1262.64  112.90
   2   3 -12 1080.47  113.90
   2  -3 -12 1249.97  104.55
  -2   3 -12 1380.05  109.28
  -2  -3  12 1207.92   95.63
   2  -3  12 1276.68  122.60
  -2  -3 -12 1161.80  117.62
   2   3  12 1323.41  109.69
  -2   3  12 1134.79  110.93
  -2   3 -12 1248.33  100.12
   3  -3 -12  448.04   72.35
  -3   3 -12  379.33   55.08
   3  -3 -12  350.63   57.24
  -3  -3  12  419.40   54.79
   3   3  12  358.08   68.40
  -3   3 -12  491.72   60.66
  -3  -3 -12  460.15   68.50
   3  -3  12  492.79   80.84
   3   3 -12  512.90   73.81
   3   3 -12  447.34   81.67
  -3   3  12  543.03   68.98
   4  -3 -12  267.13   56.26
   4  -3 -12  161.64   54.61
  -4   3  12  208.24   53.09
   4  -3  12  279.17   74.80
   4   3 -12  297.62   82.03
  -4  -3 -12  320.39   64.66
  -4  -3  12  193.34   46.51
  -4   3 -12  255.78   51.58
   4   3  12  137.88   62.34
  -5   3 -12  199.71   56.12
   5   3  12   66.68   60.99
   5  -3 -12  278.33   59.66
   5  -3  12  136.03   72.31
  -5   3  12  132.10   52.86
   5  -3 -12  309.32   85.35
   5   3 -12  151.96   77.13
  -5  -3 -12  133.26   58.40
   0  -4 -12   59.10   25.55
   0   4 -12  -18.65   32.50
   0  -4  12   40.30   44.86
   0  -4 -12   74.65   40.29
   0  -4 -12   49.80   32.75
   1  -4 -12  956.84  100.97
  -1  -4 -12  806.44  108.94
  -1  -4  12 1152.72  111.08
  -1   4 -12  810.38   85.97
   1  -4 -12  908.11   81.10
  -1  -4 -12  844.05   71.27
   1  -4  12  794.79  117.44
   1   4 -12  681.35   87.97
   1  -4 -12  764.67  100.78
   1   4  12  818.98   84.36
  -2  -4 -12 3115.79  254.73
   2  -4 -12 3462.64  254.14
   2  -4  12 3146.93  261.50
  -2   4 -12 3347.32  228.58
   2  -4 -12 3093.56  225.06
   2   4 -12 3517.67  259.20
   2   4  12 3351.57  236.67
  -2   4  12 3096.68  244.06
   2   4 -12 3438.41  242.66
  -3  -4 -12   69.13   39.44
  -3   4  12   66.67   33.33
  -3   4 -12  -13.59   26.14
   3   4 -12   72.89   51.01
   3  -4 -12   19.19   28.00
   3  -4 -12   58.19   44.21
   3   4 -12   94.38   62.05
   3  -4  12   34.00   49.68
   3   4  12   66.82   45.12
  -4  -4 -12 1711.12  163.90
   4  -4  12 1956.67  181.51
   4  -4 -12 1849.73  174.36
  -4   4  12 1925.21  160.94
   4  -4 -12 1757.61  148.76
   4   4 -12 1747.28  185.40
   4   4  12 1464.87  159.02
   5  -4  12   34.06   62.00
   5  -4 -12   57.12   42.93
   5  -4 -12   12.99   53.02
  -5  -4 -12   77.87   53.22
   5   4 -12  -51.79   65.71
   5   4  12   -3.54   61.57
  -5   4  12   63.28   49.13
   0  -5  12 3091.60  228.55
   0   5 -12 2858.62  197.94
   0  -5 -12 2481.84  213.65
   0  -5 -12 2946.44  206.17
   0  -5 -12 2119.33  176.65
   1  -5 -12  693.38   74.89
   1  -5 -12  675.11   86.82
   1  -5  12  922.56  128.92
   1   5 -12  558.90   79.79
   1  -5 -12  659.80  104.04
  -1  -5 -12  723.96  103.67
  -1  -5 -12  772.23   67.60
  -1  -5 -12  736.86   84.50
  -1  -5  12  563.58   96.42
  -1   5 -12  582.91   79.41
  -2   5 -12  887.15   93.44
   2  -5 -12  920.04   93.22
   2   5 -12 1052.86  112.67
   2   5 -12 1074.22  130.98
   2  -5 -12  909.59  124.05
   2   5  12  877.19  100.22
  -2   5  12  910.44   98.44
  -2  -5 -12  858.58  114.05
   2  -5  12  754.46  129.90
   3  -5  12  402.51   96.20
   3   5 -12  474.81  103.13
   3  -5 -12  259.42   74.76
  -3  -5 -12  334.22   75.69
   3   5  12  333.74   71.53
   3  -5 -12  450.16   65.54
  -3   5 -12  358.88   61.55
  -3   5  12  371.63   63.79
  -4   5 -12  267.46   56.03
   4  -5  12  355.72   97.94
   4  -5 -12  323.73   61.75
  -4   5  12  308.72   63.52
   4   5  12  169.25   70.04
   4  -5 -12  141.95   70.14
   4   5 -12  301.76   88.68
  -4  -5 -12  166.12   59.63
   0   6 -12  210.06   56.59
   0  -6 -12  229.03   64.25
   0  -6 -12  281.41   65.04
   0  -6  12  386.10   88.76
  -1   6 -12  880.21   94.76
  -1  -6  12 1002.28  129.85
   1  -6  12  791.09  136.49
   1  -6 -12  730.19  112.39
  -1  -6 -12  852.17  112.39
  -1  -6 -12  777.72   96.36
   1  -6 -12  940.02  103.10
   1  -6 -12  879.43   89.67
   1   6 -12  808.90   98.28
  -2  -6 -12  885.14  120.49
  -2   6  12  989.70  100.88
   2  -6 -12  807.69   92.31
   2  -6 -12  807.95  128.70
   2   6 -12  930.33  111.83
  -2   6 -12  756.33   92.91
   2   6 -12  987.77  141.72
   2   6  12  871.48  106.17
   2  -6  12  748.75  139.67
  -3  -6 -12 1545.26  156.95
   3   6 -12 1780.95  193.02
  -3   6 -12 1466.21  130.55
   3  -6 -12 1274.19  127.89
   3   6  12 1244.18  140.88
  -3   6  12 1327.42  130.23
   3  -6  12 1366.60  184.58
  -4  -6 -12  639.83  108.50
   4   6  12  594.96  104.04
  -4   6 -12  722.99   93.20
  -4   6  12  755.96   97.81
   4  -6 -12  646.55   92.22
   4  -6  12  736.98  142.40
   4   6 -12  806.96  144.94
   0   7 -12  493.85   76.24
   0  -7  12  486.70  106.15
   0  -7 -12  394.72   82.65
   1   7 -12 1731.28  162.24
   1  -7 -12 2035.35  188.52
   1  -7 -12 2131.08  157.09
  -1   7 -12 1769.09  158.22
  -1  -7  12 2097.31  203.45
   1  -7  12 1914.34  211.89
  -1  -7 -12 1676.55  170.05
  -1  -7 -12 1993.71  174.24
   2  -7 -12  329.69   64.43
   2   7  12  176.60   64.62
  -2   7  12  262.92   58.97
  -2   7 -12  337.77   68.24
   2  -7  12  342.99  113.60
   2  -7 -12  214.54   94.49
   3   7 -12   88.02   90.07
   3  -7 -12   12.54   33.84
  -3   7  12   45.85   38.55
   3  -7  12   98.12   83.60
   3   7  12   57.06   61.81
  -3   7 -12   14.38   43.07
   0  -8  12  267.43   95.91
   0   8 -12  335.26   70.26
   1   8 -12  215.25   68.25
   1  -8  12  228.38   95.34
  -1   8 -12  190.00   60.30
  -1  -8  12  216.16   93.42
   1  -8 -12  249.42   56.74
   2  -8  12  120.27  101.32
   2  -8 -12   89.49   46.98
  -2   8 -12  115.90   53.23
   0  -9  12  446.80  129.43
   0   9 -12  622.86   97.93
   1  -9 -12  846.65  105.33
   1  -9  12  965.85  163.86
   1   9 -12  796.16  113.77
  -1   9 -12  939.01  116.91
  -1  -9  12  837.80  159.88
   0   0 -13   10.32   26.37
   0   0 -13    1.82   27.13
   1   0 -13 2917.28  217.19
   1   0 -13 3014.96  192.16
   1   0  13 3066.69  193.71
  -1   0 -13 2922.15  220.54
   1   0 -13 2874.45  206.10
  -2   0  13 2639.96  194.26
   2   0 -13 2513.45  186.75
  -2   0 -13 2490.35  180.70
   2   0 -13 2724.36  185.87
  -2   0 -13 2617.03  195.67
   2   0  13 2724.22  185.48
  -3   0  13   69.04   33.68
  -3   0 -13   45.52   32.88
   3   0 -13   30.81   33.56
   3   0  13  102.63   40.09
   3   0 -13   70.89   41.77
   4   0 -13 2776.20  200.68
  -4   0  13 2803.40  216.07
  -4   0 -13 2739.01  217.36
   4   0  13 2698.91  218.13
  -5   0 -13  161.51   52.94
   5   0 -13  115.11   65.42
   5   0  13  308.52   79.91
  -5   0  13  145.53   51.48
   0   1 -13 8972.67  572.16
   0  -1  13 8552.80  530.21
   0   1 -13 7822.13  525.84
   0  -1 -13 9056.48  585.09
   0  -1 -13 8232.16  522.21
   1   1 -13  696.54   66.70
   1  -1 -13  541.26   72.85
  -1   1 -13  635.90   69.84
   1   1 -13  714.61   77.51
   1   1 -13  753.09   64.70
  -1  -1 -13  693.95   81.99
   1  -1  13  724.66   65.27
   1  -1 -13  669.79   55.28
   1  -1 -13  613.46   69.45
  -1   1 -13  708.76   74.37
   1   1  13  653.13   54.17
  -1  -1 -13  712.41   68.71
   2  -1 -13 1318.74  106.11
   2  -1  13 1133.21  106.13
  -2   1 -13 1329.97  109.85
   2  -1 -13 1474.55  112.96
  -2  -1 -13 1394.21  116.93
  -2   1 -13 1374.95  109.21
   2   1 -13 1223.32  111.69
   2   1 -13 1114.80  110.07
   2   1  13 1453.58  106.62
  -2   1  13 1376.10  115.81
  -2  -1 -13 1252.37  102.89
   3  -1 -13  833.15   90.66
  -3  -1 -13  889.08   95.81
   3  -1  13  927.80   97.84
   3   1 -13  992.90   98.97
  -3  -1  13  967.10   92.57
   3   1  13  928.69   96.50
   3   1 -13 1171.23  110.49
   3  -1 -13  981.08  101.38
  -3   1 -13  941.45   95.03
  -3   1  13  951.45   97.73
  -3   1 -13 1140.41   94.37
  -4   1  13  393.95   67.82
   4  -1 -13  326.69   72.25
  -4   1 -13  363.24   64.87
   4  -1 -13  515.77   68.00
   4  -1  13  501.37   79.14
  -4  -1  13  410.58   64.75
   4   1 -13  451.48   81.72
   4   1  13  504.43   79.35
   4   1 -13  414.07   65.18
  -4  -1 -13  387.74   69.64
   5   1 -13  475.94   96.93
  -5  -1 -13  400.37   76.61
  -5   1  13  424.90   76.59
  -5   1 -13  529.27   79.73
   5  -1  13  283.57   75.45
  -5  -1  13  435.55   71.75
   5  -1 -13  356.72   87.89
   5   1  13  338.13   83.00
   0  -2 -13  874.73   81.92
   0  -2  13 1012.71   87.58
   0  -2 -13 1021.16  110.78
   0   2 -13  929.16   93.03
   0   2 -13 1128.40   89.75
   1  -2 -13 1724.57  154.75
  -1   2 -13 1742.27  138.41
   1  -2  13 1983.46  149.99
   1  -2 -13 1790.36  134.55
  -1  -2 -13 1670.73  157.63
   1  -2 -13 1863.69  137.29
  -1   2 -13 1874.25  140.67
   1   2 -13 1885.17  142.10
   1   2 -13 1708.50  144.01
  -1  -2  13 2002.20  136.38
   1   2  13 1809.01  127.27
  -1  -2 -13 1898.71  131.00
  -2   2 -13 2179.10  163.33
  -2  -2 -13 2163.48  177.90
  -2   2  13 2287.90  177.68
   2   2 -13 2173.77  171.74
   2  -2 -13 2242.74  162.79
  -2   2 -13 2184.46  164.66
   2  -2  13 2238.26  171.27
   2   2 -13 2330.32  173.60
   2   2  13 2122.55  160.08
  -2  -2  13 2229.38  161.97
   2  -2 -13 2137.97  161.53
   3   2  13 1184.28  112.17
  -3   2 -13 1202.03  104.76
   3  -2  13 1150.81  117.11
  -3  -2 -13 1051.11  113.65
  -3   2  13 1281.51  115.28
  -3  -2  13 1188.68  104.36
  -3   2 -13 1111.41  106.31
   3   2 -13 1101.83  112.12
   3  -2 -13 1252.77  115.56
   3  -2 -13 1287.25  108.93
   3   2 -13 1159.04  123.11
   4  -2  13  825.44  112.36
   4  -2 -13 1146.55  117.54
   4   2  13  853.07  105.34
  -4  -2 -13 1045.55  110.15
  -4   2  13 1027.46  106.99
  -4  -2  13 1001.92   98.14
   4  -2 -13  894.94   96.40
  -4   2 -13  978.41  101.20
   4   2 -13  819.30  117.63
   5  -2 -13  506.09   94.41
   5  -2  13  265.63   80.46
   5  -2 -13  359.99   66.67
   5   2 -13  361.44   94.16
  -5  -2 -13  394.40   75.35
   5   2  13  345.67   80.34
  -5   2 -13  319.13   67.29
  -5   2  13  432.09   76.85
  -5  -2  13  308.15   65.20
   0  -3 -13  566.67   57.73
   0  -3  13  692.39   76.75
   0   3 -13  546.34   67.82
   0   3 -13  483.33   50.28
   0  -3 -13  590.29   83.52
   0  -3 -13  474.59   52.52
  -1  -3  13 3274.97  214.71
  -1   3 -13 3199.97  223.38
   1   3  13 2880.38  213.12
   1  -3  13 3367.59  246.65
  -1  -3  13 3344.37  232.73
  -1   3 -13 3115.05  222.33
  -1  -3 -13 2490.09  245.73
   1  -3 -13 3291.80  230.48
   1  -3 -13 3124.76  215.51
  -1  -3 -13 3420.23  207.17
   1   3 -13 3656.19  232.42
   1  -3 -13 3090.69  246.16
   2   3  13  741.94   79.19
   2  -3 -13  892.73   87.75
  -2   3 -13  799.56   83.10
   2   3 -13  712.18   92.79
  -2  -3  13  741.93   67.03
  -2   3 -13  832.79   73.60
  -2   3  13  695.50   84.11
  -2  -3 -13  719.51   90.86
   2  -3 -13  734.30   78.23
   2  -3  13  567.85   86.41
   2   3 -13  598.07   85.66
   3   3  13  336.33   63.19
   3   3 -13  209.98   64.97
  -3   3 -13  292.21   50.66
   3  -3  13  304.60   67.51
   3  -3 -13  459.15   69.54
  -3   3 -13  192.12   47.84
  -3  -3 -13  319.86   60.53
  -3  -3  13  287.80   45.96
   3  -3 -13  367.37   57.39
  -3   3  13  346.58   60.61
   3   3 -13  383.83   68.51
  -4   3  13  456.85   75.56
   4   3  13  488.52   83.08
   4  -3 -13  571.63   76.74
  -4   3 -13  482.20   68.73
   4   3 -13  457.12   89.60
   4  -3  13  418.20   82.97
   4  -3 -13  484.79   82.62
  -4  -3 -13  474.72   80.05
  -5   3  13  826.33  103.77
   5  -3 -13  744.63  115.92
  -5  -3 -13  737.33  103.98
  -5   3 -13  680.85   90.86
   5   3  13  444.60   97.77
   5  -3  13  767.87  122.03
   5   3 -13  724.00  121.75
   5  -3 -13  722.13   92.05
   0  -4  13 1227.18  126.62
   0  -4 -13 1266.31  102.57
   0   4 -13 1356.91  117.44
   0  -4 -13 1342.33  109.73
   0  -4 -13 1172.45  129.59
  -1  -4  13  444.42   73.54
   1   4  13  475.15   61.57
   1  -4 -13  482.70   79.22
  -1   4 -13  511.91   70.18
   1  -4 -13  504.66   77.49
   1  -4 -13  486.86   61.42
  -1  -4 -13  589.33   54.77
   1  -4  13  471.69   91.39
  -1  -4 -13  353.44   78.85
   1   4 -13  404.33   69.82
  -2  -4 -13  486.49   82.94
   2  -4 -13  532.05   68.31
   2   4  13  534.65   73.44
   2  -4  13  514.99   93.33
   2   4 -13  450.26   84.56
   2  -4 -13  589.58   85.85
   2   4 -13  576.59   85.31
  -2   4  13  583.49   76.92
  -2   4 -13  561.88   71.75
   3  -4  13 2808.83  242.27
  -3   4 -13 2835.32  209.72
   3  -4 -13 3006.11  215.22
   3  -4 -13 2762.08  229.53
  -3   4  13 3057.90  230.50
   3   4 -13 3163.88  243.86
  -3  -4 -13 2839.13  234.84
   3   4  13 2979.98  223.33
   3   4 -13 2814.81  223.51
  -4   4  13   48.51   37.52
   4   4 -13   39.42   60.29
   4  -4  13    9.51   52.56
  -4   4 -13   24.93   20.78
  -4  -4 -13    3.65   43.95
   4  -4 -13   39.10   35.86
   4  -4 -13   41.21   42.56
   4   4  13    8.40   48.38
  -5   4  13  786.46  106.32
   5   4  13  650.15  111.44
   5  -4  13  765.41  129.58
   5   4 -13  782.23  134.56
   5  -4 -13  752.85   98.10
  -5  -4 -13  771.85  111.04
   0  -5  13 1042.04  122.61
   0  -5 -13  827.80  109.24
   0   5 -13 1096.17  109.33
   0  -5 -13 1018.78  102.67
   0  -5 -13  935.26   86.75
   1  -5 -13 2002.28  152.90
   1  -5  13 1968.38  197.51
  -1  -5  13 1935.16  180.59
   1   5 -13 1978.87  162.85
   1  -5 -13 1868.31  171.33
  -1  -5 -13 2086.18  188.07
   1  -5 -13 1913.56  175.54
  -1   5 -13 1796.49  157.81
  -1  -5 -13 2079.80  142.56
   2  -5 -13  341.53   61.18
   2   5 -13  462.99   95.03
  -2   5  13  589.34   78.33
  -2   5 -13  439.99   69.21
   2   5 -13  425.03   79.38
   2   5  13  536.03   74.67
   2  -5 -13  384.50   88.50
  -2  -5 -13  441.95   85.78
   2  -5  13  586.48  109.58
  -3  -5 -13   85.15   52.98
   3   5 -13  105.79   63.23
  -3   5  13   57.21   39.21
   3  -5 -13   72.77   38.29
  -3   5 -13  194.81   50.98
   3  -5  13  125.70   69.12
   3   5  13  177.35   57.09
   3  -5 -13  160.38   63.16
   4   5 -13  364.96   99.17
  -4   5  13  388.70   72.91
   4   5  13  299.47   77.51
   4  -5  13  457.25  107.93
   4  -5 -13  328.46   68.46
  -4   5 -13  395.97   66.52
  -4  -5 -13  276.30   74.53
   0  -6 -13  339.43   73.44
   0  -6 -13  498.38   78.42
   0   6 -13  420.63   71.98
   0  -6  13  427.94   92.94
  -1  -6 -13  628.06   94.74
   1  -6  13  578.71  115.55
  -1  -6 -13  577.79   81.74
  -1   6 -13  440.94   74.62
   1   6 -13  627.74   86.64
   1  -6 -13  430.48   64.58
   1  -6 -13  616.19   85.66
  -1  -6  13  438.64   93.91
   2   6 -13 1080.97  119.96
  -2  -6 -13  729.61  119.75
  -2   6  13  976.09  107.41
   2   6 -13 1082.23  145.99
   2  -6  13  840.34  147.66
   2  -6 -13 1019.20  102.17
   2   6  13  984.55  109.34
  -2   6 -13  754.05   97.96
  -3   6 -13  540.85   81.19
  -3   6  13  514.38   80.03
   3   6  13  456.24   86.69
   3  -6 -13  701.35   87.30
   3   6 -13  772.84  130.67
   3  -6  13  480.77  122.17
  -3  -6 -13  431.95   93.82
   4  -6  13  635.39  135.02
   4   6 -13  609.15  130.53
  -4   6 -13  533.56   82.35
  -4  -6 -13  624.59  107.86
  -4   6  13  677.10   94.86
   4  -6 -13  565.78   90.69
   0  -7  13 2212.52  208.51
   0   7 -13 1857.73  166.84
   0  -7 -13 1983.11  181.57
  -1  -7  13  317.96   93.20
   1  -7 -13  267.56   55.25
  -1   7 -13  244.07   63.19
   1  -7  13  133.52   83.11
  -1  -7 -13  235.76   65.83
   1  -7 -13  213.61   59.02
   1   7 -13  230.80   67.77
   2   7 -13  819.44  111.20
  -2   7  13  831.89   98.53
   2  -7 -13  610.75   87.14
   2  -7  13  569.28  138.49
  -2   7 -13  769.69   98.51
  -2  -7 -13  612.93  110.64
   2   7 -13  933.44  146.99
  -3  -7 -13  273.98   86.93
   3  -7 -13  553.13   83.61
   3   7 -13  459.87  120.94
  -3   7 -13  453.25   79.25
   3  -7  13  430.49  129.11
  -3   7  13  541.47   81.79
   0  -8  13   46.66   68.03
   0   8 -13  -24.35   39.88
   1   8 -13  397.06   81.55
   1  -8  13  462.97  112.07
  -1   8 -13  307.87   72.81
  -1  -8  13  458.95  110.94
   1  -8 -13  300.72   61.26
   2  -8 -13 1015.69  111.74
  -2   8 -13  890.11  112.21
   2  -8  13  802.39  164.20
   0   9 -13 1044.65  128.02
  -1   9 -13  331.11   85.47
  -1  -9  13  256.95  114.89
   1  -9 -13  334.80   69.65
   1  -9  13  325.13  116.28
   1   9 -13  395.10   88.59
   0   0 -14 2944.09  215.68
   0   0 -14 2552.79  192.95
   1   0 -14  634.16   51.55
   1   0 -14  718.08   74.37
   1   0 -14  631.93   73.33
   1   0  14  599.01   53.02
  -1   0 -14  671.59   77.51
   2   0 -14  702.34   79.68
   2   0  14  792.21   72.59
  -2   0 -14  689.57   78.29
  -2   0  14  776.93   79.67
   2   0 -14  735.28   73.07
  -2   0 -14  814.95   78.61
  -3   0 -14 2144.21  175.93
   3   0 -14 2234.05  173.19
   3   0 -14 2156.86  167.00
   3   0  14 2073.23  168.62
  -3   0  14 2279.74  174.77
  -4   0  14   34.69   36.71
   4   0 -14   67.04   51.60
   4   0 -14   65.39   37.13
  -4   0 -14  124.68   45.20
   4   0  14   82.80   45.42
   5   0  14  598.76   97.16
   5   0 -14  552.69  103.49
  -5   0 -14  424.02   80.79
  -5   0  14  588.79   86.29
   0   1 -14  623.15   76.49
   0  -1 -14  758.74   92.63
   0  -1 -14  711.96   74.78
   0  -1  14  753.34   61.90
   0   1 -14  790.22   81.06
   1  -1 -14 3015.33  212.30
   1  -1  14 3113.95  208.80
  -1  -1 -14 2900.38  234.76
   1  -1 -14 3239.95  197.94
   1  -1 -14 2771.18  229.59
  -1   1 -14 2929.99  212.38
  -1  -1 -14 3106.36  207.87
   1   1  14 3084.40  196.92
   1   1 -14 2977.22  219.27
  -1   1 -14 3163.04  226.29
   1   1 -14 3126.19  205.02
   1   1 -14 3112.21  217.92
  -2  -1 -14 1685.07  121.70
  -2   1 -14 1537.26  126.72
  -2   1 -14 1671.21  130.93
   2   1  14 1483.95  119.48
   2  -1 -14 1549.23  128.95
   2   1 -14 1742.38  130.68
   2  -1  14 1492.05  123.58
  -2   1  14 1516.00  135.22
   2  -1 -14 1662.63  122.77
  -2  -1 -14 1525.40  135.25
   2   1 -14 1515.97  132.73
  -3  -1  14  636.23   70.12
  -3   1 -14  446.84   66.21
  -3   1 -14  509.78   65.70
   3  -1 -14  525.21   72.28
   3  -1  14  506.34   71.86
   3  -1 -14  506.77   68.40
  -3  -1 -14  629.13   78.26
   3   1  14  572.32   73.13
  -3   1  14  541.27   72.09
   3   1 -14  494.20   69.56
   3   1 -14  677.31   83.18
  -4  -1 -14  567.07   81.71
  -4   1 -14  628.76   80.53
   4  -1  14  566.34   85.14
   4   1  14  458.53   80.92
   4  -1 -14  637.64   92.21
   4   1 -14  725.35   82.20
  -4   1  14  539.10   78.05
   4  -1 -14  600.44   76.42
  -4  -1  14  498.09   73.53
   5  -1  14  381.54   84.31
  -5  -1 -14  378.26   77.83
  -5  -1  14  458.00   76.61
   5  -1 -14  435.18   93.50
  -5   1 -14  469.50   78.09
   5   1  14  421.53   88.99
  -5   1  14  496.18   82.87
   5   1 -14  502.66  100.52
   0  -2 -14 1860.61  154.59
   0  -2  14 1522.56  123.09
   0   2 -14 1654.13  129.41
   0   2 -14 1562.75  134.17
   0  -2 -14 1593.46  122.85
   1  -2  14 1040.00   98.02
  -1  -2 -14  819.41  105.65
  -1   2 -14  909.99   88.19
  -1  -2 -14  985.48   81.82
   1  -2 -14  945.94   87.60
   1   2  14  817.46   73.62
   1   2 -14 1211.15  102.24
   1   2 -14 1139.30   91.43
  -1   2 -14  968.39   95.23
   1  -2 -14  738.05   97.62
  -1  -2  14 1054.50   83.72
   2   2 -14 1996.47  159.59
   2  -2 -14 1914.30  152.25
  -2   2  14 2198.82  170.79
   2   2  14 1923.46  148.78
  -2   2 -14 2153.80  157.72
   2  -2 -14 2110.10  152.32
   2   2 -14 2131.18  165.71
  -2  -2  14 2052.33  151.93
  -2   2 -14 2001.86  155.03
  -2  -2 -14 1966.02  167.24
   2  -2  14 1851.14  156.89
  -3  -2 -14 1449.71  126.02
  -3   2 -14 1136.50  113.05
  -3   2 -14 1180.22  111.57
   3   2  14 1204.65  115.54
  -3  -2  14 1181.75  109.17
   3   2 -14 1416.24  131.57
   3  -2 -14 1289.44  117.80
  -3   2  14 1450.59  124.25
   3   2 -14 1274.16  121.64
   3  -2  14 1335.37  125.98
   3  -2 -14 1258.91  115.38
  -4  -2  14 1007.70   98.54
   4   2  14  820.48  104.18
  -4   2 -14  891.28  100.22
   4  -2  14  867.90  112.34
   4  -2 -14  779.45   94.67
   4  -2 -14 1043.53  114.12
   4   2 -14 1097.59  123.58
  -4   2  14  964.37  107.33
  -4  -2 -14  948.89  110.61
   5   2 -14  653.57  111.59
  -5   2  14  616.04   91.19
  -5  -2  14  511.20   79.18
   5  -2  14  475.25   97.19
   5   2  14  382.00   88.38
  -5  -2 -14  432.82   84.91
  -5   2 -14  461.90   76.83
   5  -2 -14  517.05   78.44
   0   3 -14 5515.23  363.18
   0   3 -14 4913.08  368.74
   0  -3 -14 5698.30  351.74
   0  -3  14 5724.47  375.39
   0  -3 -14 6548.90  412.82
  -1  -3 -14  730.17  108.47
   1  -3 -14  940.97   87.72
   1   3 -14 1005.58  101.97
  -1  -3 -14 1071.82   80.93
  -1   3 -14  863.67   92.63
   1   3  14  846.12   79.10
  -1   3 -14  931.12   85.78
   1  -3  14 1029.57  113.09
  -1  -3  14 1135.02  106.28
   1  -3 -14  783.71  103.34
  -2   3  14 1304.94  121.97
   2  -3 -14 1224.92  109.73
   2  -3  14 1160.45  125.10
   2   3 -14 1331.70  125.12
  -2   3 -14 1263.40  104.89
  -2   3 -14 1210.49  114.37
  -2  -3 -14 1299.97  125.31
   2   3 -14 1115.84  120.01
   2   3  14 1282.81  109.49
  -3  -3 -14 1048.79  115.40
   3   3 -14 1186.41  120.77
  -3   3  14 1242.20  118.39
   3  -3 -14 1193.20  110.21
  -3   3 -14 1195.34  106.86
   3  -3  14 1300.13  127.69
   3  -3 -14 1130.93  117.23
  -3   3 -14 1042.06  103.52
   3   3  14 1197.85  114.51
  -4   3  14  213.44   56.58
   4  -3 -14  226.79   52.60
   4   3 -14  261.98   75.67
   4  -3  14  212.93   70.54
  -4   3 -14  192.94   50.98
  -4  -3 -14   79.66   46.02
   4   3  14   67.18   52.47
  -5  -3 -14  371.00   80.34
  -5   3 -14  245.43   63.40
   5   3  14  345.76   84.91
  -5   3  14  377.64   77.94
   5  -3  14  373.83   96.43
   5  -3 -14  394.71   72.29
   5   3 -14  365.17   97.73
   0  -4  14   80.97   46.48
   0   4 -14   47.75   39.92
   0  -4 -14   30.77   41.62
   0  -4 -14   74.97   29.79
  -1  -4  14 1831.17  152.65
  -1   4 -14 1765.75  141.90
  -1  -4 -14 1558.84  161.11
   1  -4 -14 1575.69  155.27
   1  -4  14 1526.47  160.89
   1   4 -14 1439.59  140.92
  -1  -4 -14 1684.02  122.48
   1  -4 -14 1795.32  133.89
   2   4 -14 1603.32  141.65
   2   4  14 1333.59  121.71
  -2   4 -14 1378.34  127.03
   2   4 -14 1140.53  129.16
   2  -4  14 1656.66  156.42
  -2  -4 -14 1640.35  149.59
   2  -4 -14 1312.87  120.10
  -2   4  14 1612.23  138.80
  -3   4 -14  111.87   45.74
   3  -4  14   49.23   48.80
   3  -4 -14  185.32   47.16
   3   4 -14   64.09   54.72
  -3   4  14  212.30   54.14
   3   4  14  104.28   50.08
  -3  -4 -14  196.82   58.08
   3   4 -14  192.48   63.78
  -4  -4 -14 1256.64  133.91
   4  -4 -14 1264.31  122.33
   4  -4  14 1037.43  141.57
   4   4  14  961.68  125.02
   4   4 -14 1338.61  148.97
  -4   4  14 1334.84  130.43
   5   4 -14  164.51   88.35
   5  -4 -14  129.70   56.44
  -5   4  14  148.28   60.16
   5  -4  14  211.61   88.72
  -5  -4 -14  102.27   63.74
   0  -5 -14 2025.49  181.97
   0  -5  14 2016.90  180.22
   0  -5 -14 1932.24  146.83
   0   5 -14 1914.01  164.46
  -1  -5  14  803.14  108.14
   1   5 -14  728.14   95.32
  -1  -5 -14  798.40  111.65
   1  -5 -14  848.94   86.68
   1  -5  14  715.19  118.66
  -1   5 -14  857.85   97.20
   1  -5 -14  775.60  101.85
  -2   5 -14  892.64  100.10
  -2   5  14 1088.31  108.86
   2  -5  14  987.95  140.42
   2  -5 -14  880.19   96.51
   2   5 -14  901.86  108.88
  -2  -5 -14  790.65  117.51
   2   5 -14 1085.08  131.78
   3  -5  14  831.25  125.63
  -3  -5 -14  496.36   93.81
   3  -5 -14  655.17   87.01
  -3   5 -14  535.88   78.86
  -3   5  14  644.41   87.80
   3   5 -14  749.00  114.97
   4  -5  14  304.82   97.69
  -4  -5 -14  357.57   84.26
  -4   5 -14  364.54   67.23
   4  -5 -14  300.08   66.37
  -4   5  14  307.80   70.84
   4   5 -14  289.59   93.59
   0   6 -14 1097.25  119.18
   0  -6  14 1134.50  138.03
   0  -6 -14 1107.43  129.37
  -1   6 -14  616.69   90.84
   1   6 -14  761.34  100.02
  -1  -6 -14  892.08  112.41
  -1  -6  14  739.16  113.59
   1  -6  14  851.15  129.37
   1  -6 -14  713.51   97.75
   1  -6 -14  755.67   83.67
  -2   6 -14  603.13   87.31
   2   6 -14  731.18  124.80
   2  -6 -14  609.07   82.74
  -2  -6 -14  518.06  103.12
   2   6 -14  639.62   99.71
   2  -6  14  702.74  130.31
  -2   6  14  775.58   96.47
   3   6 -14  719.38  125.77
   3  -6 -14  729.59   94.04
  -3   6  14  748.05   97.89
   3  -6  14  762.04  144.73
  -3   6 -14  793.09   96.50
  -3  -6 -14  676.34  113.48
   4  -6 -14  671.49   94.22
  -4  -6 -14  371.90   94.32
  -4   6  14  504.02   86.66
   4  -6  14  307.15  107.19
  -4   6 -14  489.93   81.42
   4   6 -14  570.42  126.11
   0  -7  14  611.18  109.30
   0   7 -14  565.63   90.95
   0  -7 -14  481.84   89.75
   1  -7 -14 1324.73  138.37
   1  -7 -14 1241.46  119.89
  -1   7 -14 1399.60  138.17
  -1  -7  14 1432.51  165.15
   1  -7  14 1086.35  160.41
   1   7 -14 1380.68  139.58
  -1  -7 -14 1399.48  145.75
   2  -7  14  639.30  142.54
  -2   7  14  849.12  104.44
  -2  -7 -14  779.62  119.74
   2   7 -14  743.96  135.75
   2   7 -14  878.02  117.17
   2  -7 -14  694.24   92.17
  -2   7 -14  645.42   94.30
  -3   7  14  127.57   53.09
   3  -7  14  200.74  100.38
  -3  -7 -14   81.03   63.04
  -3   7 -14   83.56   55.79
   3  -7 -14  103.22   48.85
   3   7 -14  150.47   94.09
   0   8 -14  888.55  116.05
   0  -8  14  722.54  132.39
  -1  -8  14  190.59   90.44
   1   8 -14  242.14   74.69
   1  -8 -14  205.48   54.51
  -1   8 -14  217.74   67.74
   1  -8  14  174.48   84.57
   2  -8 -14  262.67   64.65
   2  -8  14  366.80  122.24
   2   8 -14  187.94   92.92
  -2   8 -14  232.77   69.65
   0  -9  14  296.28  110.31
   0   9 -14  306.51   89.56
   0   0 -15  -26.89   25.62
   0   0 -15    4.41   30.09
   1   0 -15 2722.17  210.85
  -1   0 -15 2837.23  216.83
   1   0 -15 2642.91  198.58
  -1   0 -15 2896.85  196.92
   2   0 -15 1394.56  105.85
  -2   0 -15 1401.51  119.25
   2   0  15 1289.29  104.05
   2   0 -15 1183.14  115.53
  -2   0  15 1258.57  114.33
  -2   0 -15 1211.17  111.10
   3   0  15  284.52   51.63
  -3   0 -15  155.28   47.49
   3   0 -15  152.25   48.84
  -3   0  15  246.71   49.94
   3   0 -15  258.83   55.06
   4   0 -15 1813.79  151.91
   4   0 -15 2031.90  171.89
  -4   0 -15 1826.40  163.77
  -4   0  15 1702.92  158.18
   4   0  15 2002.03  166.20
   5   0  15  558.56   93.78
  -5   0  15  334.08   73.43
  -5   0 -15  484.57   81.80
   0   1 -15 4688.49  348.21
   0  -1 -15 5991.67  394.19
   0   1 -15 5860.48  380.94
   0  -1 -15 4831.73  346.04
   0  -1  15 5733.13  342.94
  -1  -1 -15  558.70   82.14
  -1   1 -15  612.01   74.10
  -1   1 -15  517.82   71.20
   1   1 -15  599.79   77.37
   1  -1  15  614.27   62.17
  -1  -1 -15  710.48   70.63
   1  -1 -15  468.25   74.16
   1   1 -15  603.98   58.95
   1   1 -15  722.68   69.95
   1  -1 -15  573.34   71.09
  -2  -1 -15 1173.44  114.81
  -2   1 -15 1268.48  109.58
   2  -1  15 1249.24  104.70
   2   1 -15 1183.10  115.52
   2   1 -15 1232.74  106.12
  -2  -1 -15 1233.53  101.59
   2   1  15 1211.30   99.23
  -2   1  15 1117.77  113.87
  -2   1 -15 1208.94  110.65
   2  -1 -15 1122.95  107.10
  -3   1  15 2117.64  169.01
  -3  -1  15 2003.07  160.42
   3   1 -15 2053.57  163.72
  -3  -1 -15 1999.37  168.84
   3   1 -15 1956.86  165.93
   3  -1 -15 1855.71  156.08
  -3   1 -15 1956.44  163.04
   3  -1  15 1956.63  160.64
   3   1  15 2011.94  158.53
  -4   1 -15  329.38   61.62
   4  -1  15  249.98   62.47
  -4  -1 -15  244.32   57.84
   4  -1 -15  238.21   57.19
   4   1 -15  133.04   49.38
  -4   1  15  163.99   56.09
  -4  -1  15  259.14   55.31
   4   1 -15  117.92   57.88
   4   1  15  193.69   57.69
  -5  -1 -15  505.47   90.08
   5   1  15  609.78  100.72
  -5   1  15  557.08   89.35
  -5  -1  15  741.55   94.74
  -5   1 -15  701.64   95.10
   5  -1  15  486.21   97.89
   0  -2 -15 1836.07  147.62
   0  -2  15 2100.65  149.84
   0   2 -15 2029.96  162.66
   0   2 -15 1971.78  156.20
   0  -2 -15 2385.29  185.84
  -1   2 -15 1923.07  149.07
   1  -2  15 1648.77  145.30
   1   2 -15 1984.44  141.04
  -1  -2 -15 1578.80  162.69
  -1   2 -15 1899.72  148.83
  -1  -2 -15 1945.43  134.90
   1  -2 -15 1412.44  153.66
   1  -2 -15 1839.71  141.86
   1   2 -15 2057.42  154.30
   2   2 -15 1493.38  122.54
  -2  -2  15 1390.85  110.34
  -2   2 -15 1329.59  118.65
   2   2 -15 1410.66  128.44
  -2   2 -15 1319.30  113.26
  -2   2  15 1341.63  125.76
   2  -2  15 1126.98  113.28
  -2  -2 -15 1306.95  127.30
   2  -2 -15 1243.20  113.70
  -3  -2 -15 1164.29  114.79
   3   2 -15 1234.14  120.69
   3   2 -15 1085.32  114.45
   3   2  15 1191.07  109.09
   3  -2 -15 1226.23  111.99
   3  -2  15 1045.40  115.41
  -3   2 -15 1160.06  107.95
  -3   2  15 1021.13  110.05
  -3   2 -15 1117.68  109.54
  -3  -2  15 1092.81  102.45
   4  -2  15  512.62   85.94
  -4  -2  15  437.71   67.38
   4  -2 -15  461.69   73.31
  -4  -2 -15  477.09   81.14
  -4   2  15  470.85   78.16
  -4   2 -15  505.44   73.21
   4   2  15  564.79   83.16
   5  -2 -15  261.29   61.67
   5  -2  15  260.71   79.66
  -5  -2 -15  207.27   67.57
  -5  -2  15  305.42   64.02
  -5   2 -15  315.34   68.84
   5   2 -15  249.34   82.09
  -5   2  15  327.42   72.72
   0  -3  15  174.54   45.56
   0   3 -15  186.65   51.60
   0  -3 -15  187.06   57.11
   0  -3 -15   99.29   33.64
   1  -3  15 2172.90  175.85
  -1   3 -15 1999.69  161.40
  -1   3 -15 1927.46  156.90
   1  -3 -15 1718.41  175.91
  -1  -3 -15 1884.15  182.21
   1  -3 -15 1938.80  152.05
   1   3 -15 2366.91  173.35
  -1  -3 -15 2262.96  147.04
   2   3 -15 2786.95  201.89
   2  -3  15 2302.28  199.09
  -2   3 -15 2436.74  185.55
  -2  -3 -15 2579.61  211.57
   2   3 -15 2504.72  195.92
  -2   3 -15 2301.78  188.28
  -2   3  15 2898.76  212.24
   2  -3 -15 2363.47  185.85
  -3   3 -15  256.83   55.79
  -3  -3 -15  277.25   64.67
  -3   3  15  349.07   66.92
   3  -3  15  293.00   68.50
   3  -3 -15  435.59   65.34
   3   3 -15  318.01   69.44
   3   3 -15  346.83   71.32
  -3   3 -15  355.03   57.01
   4  -3  15 1047.83  129.47
   4  -3 -15 1194.13  117.24
  -4   3 -15 1061.79  113.14
  -4  -3 -15 1154.28  129.24
   4   3 -15 1550.86  150.12
  -4   3  15 1159.38  122.30
  -5   3  15  507.25   90.85
   5  -3  15  467.86   99.52
   5  -3 -15  523.11   83.59
   5   3 -15  523.84  110.58
  -5   3 -15  330.31   71.92
  -5  -3 -15  398.25   85.81
   0  -4 -15 2950.91  243.60
   0  -4 -15 3043.01  205.96
   0   4 -15 2864.53  219.99
   0  -4  15 3019.59  227.95
  -1  -4 -15  772.50   70.21
   1   4 -15  705.78   94.46
   1  -4 -15  676.37   75.72
   1  -4  15  691.24  105.94
   1  -4 -15  594.09   94.71
  -1   4 -15  729.34   90.11
  -1  -4  15  746.69   91.11
  -1  -4 -15  679.73  102.64
  -2   4 -15 1232.51  114.06
   2  -4  15  965.42  129.94
  -2   4  15 1184.31  121.46
   2   4 -15 1161.94  127.52
   2   4 -15 1198.44  123.64
   2  -4 -15 1218.43  109.87
  -2  -4 -15 1147.07  132.07
   3  -4 -15 1577.67  131.89
   3   4 -15 1142.68  140.40
  -3   4  15 1438.08  139.54
  -3   4 -15 1460.84  130.84
  -3  -4 -15 1417.96  148.08
   3   4 -15 1599.03  147.58
   3  -4  15 1336.03  152.84
   4   4 -15   40.81   64.72
  -4   4  15  142.10   55.34
   4  -4 -15  107.35   47.17
   4  -4  15   87.68   59.79
  -4  -4 -15   74.37   47.66
   0  -5 -15  424.21   56.37
   0   5 -15  351.51   67.29
   0  -5  15  407.67   82.01
   0  -5 -15  522.96   85.45
  -1  -5 -15 1643.16  158.92
  -1   5 -15 1511.00  139.50
   1  -5 -15 1278.41  149.44
   1  -5  15 1741.76  173.33
   1   5 -15 1509.05  144.30
  -1  -5  15 1411.24  145.56
   1  -5 -15 1574.45  127.72
   2  -5 -15 1292.35  115.69
  -2   5  15 1188.44  125.41
   2   5 -15 1451.70  135.99
  -2   5 -15 1084.13  116.61
  -2  -5 -15  768.70  125.06
   2   5 -15 1301.42  139.54
   2  -5  15 1118.40  149.32
   3   5 -15  294.93   82.45
   3  -5 -15  118.45   47.33
  -3   5 -15   94.89   49.87
  -3  -5 -15  201.28   66.98
  -3   5  15  235.87   58.65
   3  -5  15  218.36   86.50
   4  -5 -15  746.32   98.16
   4   5 -15  751.66  127.42
  -4   5  15  833.07  107.14
  -4  -5 -15  818.27  118.60
  -4   5 -15  569.25   87.68
   4  -5  15  664.48  127.39
   0  -6 -15 1000.79  119.95
   0  -6  15  906.33  122.31
   0   6 -15  798.23  105.34
   1  -6 -15  662.99   80.49
  -1   6 -15  602.30   88.83
   1  -6 -15  723.52  100.81
  -1  -6 -15  756.59  106.93
   1   6 -15  797.67  101.43
   1  -6  15  535.54  110.02
  -1  -6  15  579.29  100.94
   2   6 -15  532.01  106.30
  -2   6  15  531.09   86.92
   2  -6 -15  678.33   82.87
   2   6 -15  495.50   93.01
  -2  -6 -15  377.08   92.69
   2  -6  15  446.40  112.12
  -2   6 -15  456.66   79.54
   3   6 -15  294.68   97.99
  -3   6 -15  400.91   72.15
  -3   6  15  405.33   75.59
   3  -6  15  365.64  111.87
   3  -6 -15  282.71   66.79
  -3  -6 -15  213.22   78.60
  -4  -6 -15  263.48   86.16
   4  -6 -15  343.50   73.84
  -4   6  15  380.58   84.46
  -4   6 -15  357.83   74.14
   4   6 -15  480.32  117.15
   4  -6  15  503.23  127.35
   0  -7 -15  794.24  114.35
   0  -7  15  819.58  129.11
   0   7 -15  875.71  111.35
  -1   7 -15  335.86   74.80
   1  -7 -15  217.23   55.77
   1   7 -15  294.42   76.92
  -1  -7 -15  392.33   79.91
   1  -7  15  303.31   92.31
  -1  -7  15  337.09   94.30
   1  -7 -15  405.39   79.02
  -2  -7 -15  427.91   98.00
   2   7 -15  651.99  126.49
  -2   7 -15  521.45   89.23
   2   7 -15  333.68   87.35
  -2   7  15  554.99   88.45
   2  -7  15  692.20  141.71
   2  -7 -15  481.21   80.43
   3   7 -15  907.88  145.85
  -3   7  15  790.29  105.63
  -3   7 -15  780.82  106.58
   3  -7  15  780.25  160.49
  -3  -7 -15  478.59  116.18
   3  -7 -15  864.97  106.05
   0   8 -15   22.03   53.79
   0  -8  15   69.07   70.00
  -1   8 -15  896.13  113.69
   1  -8  15  488.34  119.40
   1  -8 -15  853.81   99.61
   1   8 -15  803.31  113.76
  -1  -8  15  736.02  127.93
  -2   8 -15  665.59  105.16
   2  -8  15  588.84  142.75
   2   8 -15  699.03  141.53
   2  -8 -15  636.80   94.22
   0   0 -16 3252.41  242.79
   0   0 -16 3918.94  272.13
   1   0 -16  709.59   87.93
  -1   0 -16  763.94   94.72
  -1   0 -16  841.57   85.56
   1   0 -16  995.63   94.88
  -2   0 -16 1204.79  116.06
  -2   0 -16 1101.35  108.31
  -2   0  16 1393.82  117.45
   2   0 -16 1197.59  113.53
   3   0 -16  725.44   91.63
  -3   0 -16  890.00   96.95
  -3   0  16  919.43   96.41
   3   0  16  781.96   88.13
  -4   0  16  247.98   56.77
  -4   0 -16  185.09   56.04
   4   0 -16  201.53   55.62
   4   0  16  149.46   56.90
  -5   0 -16  200.04   63.08
  -5   0  16  167.96   57.23
   0  -1 -16  101.07   38.16
   0   1 -16   90.35   37.22
   0  -1 -16   99.70   42.86
   0   1 -16   62.42   37.09
   1   1 -16 1179.05  107.71
   1   1 -16 1214.53  101.83
  -1   1 -16 1086.81  104.01
   1  -1 -16  772.00  105.16
   1  -1 -16 1059.97  100.53
  -1  -1 -16 1258.06  101.25
  -1   1 -16 1076.69  107.27
  -1  -1 -16  893.04  111.31
  -2   1 -16 2569.68  179.43
  -2  -1 -16 2353.70  189.80
   2   1 -16 2109.89  178.11
  -2  -1 -16 2218.23  166.29
   2  -1  16 2249.33  170.26
  -2   1  16 2323.12  189.12
  -2   1 -16 2531.15  183.50
   2  -1 -16 2300.26  177.27
   3   1 -16  263.93   63.69
  -3   1 -16  556.52   71.12
  -3  -1 -16  435.99   69.95
  -3   1  16  451.12   70.76
   3  -1  16  405.28   63.75
  -3  -1  16  503.27   65.28
   3  -1 -16  484.78   71.58
  -4   1  16 1296.25  131.70
  -4  -1  16 1290.24  123.85
   4  -1  16 1337.30  131.99
  -4   1 -16 1161.03  125.49
   4  -1 -16 1263.34  125.51
  -4  -1 -16 1363.27  134.57
   4   1 -16 1429.33  130.23
  -5  -1 -16  246.04   71.60
   5  -1  16  313.95   82.80
  -5  -1  16  453.83   77.04
  -5   1 -16  285.94   71.49
  -5   1  16  236.83   69.94
   0   2 -16 1997.98  166.05
   0   2 -16 2075.80  160.13
   0  -2 -16 2106.93  155.31
   0  -2 -16 2344.53  186.20
   0  -2  16 1901.80  148.45
  -1   2 -16 2113.41  163.08
   1  -2 -16 1459.73  167.59
   1   2 -16 2262.73  151.60
  -1   2 -16 2013.61  162.97
   1  -2 -16 2081.27  154.96
  -1  -2 -16 2078.59  146.91
   1  -2  16 1955.48  157.68
  -1  -2 -16 1674.85  173.68
   1   2 -16 2195.46  164.73
   2  -2 -16 1339.51  122.65
  -2   2 -16 1470.59  126.01
   2   2 -16 1451.63  123.92
  -2  -2 -16 1161.30  129.30
   2  -2  16 1233.77  118.37
  -2  -2  16 1475.02  116.71
  -2   2  16 1337.40  133.81
  -2   2 -16 1449.34  120.69
   2   2 -16 1539.77  132.89
  -3  -2  16  605.79   68.57
   3  -2 -16  587.77   78.68
   3   2 -16  406.32   75.35
  -3   2  16  537.35   78.10
   3   2 -16  425.51   76.14
   3  -2  16  497.22   75.92
  -3   2 -16  701.04   77.92
  -3  -2 -16  407.87   74.59
  -3   2 -16  507.50   69.76
  -4   2 -16  423.99   72.06
  -4  -2  16  374.72   64.23
  -4   2  16  423.68   75.90
   4  -2  16  451.36   80.14
   4  -2 -16  465.06   73.93
  -4  -2 -16  420.20   79.50
   5  -2 -16  387.71   70.82
  -5   2 -16  248.19   64.11
   5  -2  16  182.30   72.68
  -5   2  16  190.23   63.93
  -5  -2  16  228.29   63.12
  -5  -2 -16  129.59   62.53
   0   3 -16 1052.51  112.40
   0  -3  16 1116.54  102.70
   0  -3 -16 1215.71  123.77
   0  -3 -16 1015.17   95.16
   1  -3 -16  711.75   77.28
   1  -3 -16  687.94   97.81
   1   3 -16  760.91   93.93
  -1  -3 -16  641.72  102.28
  -1   3 -16  684.23   85.19
  -1  -3 -16  650.79   67.02
   1  -3  16  558.95   86.82
  -2   3  16  778.26   97.78
  -2   3 -16  675.41   76.45
  -2  -3 -16  761.24  100.10
   2  -3 -16  690.79   84.26
  -2   3 -16  701.69   88.74
   2   3 -16  944.70   98.17
   2  -3  16  720.50   94.27
   2   3 -16  758.61   94.50
  -3   3 -16 2357.39  180.69
   3   3 -16 2455.47  192.86
   3   3 -16 2123.27  185.92
   3  -3  16 2117.72  189.88
  -3   3  16 2214.33  193.15
   3  -3 -16 2320.84  179.84
  -3  -3 -16 2182.95  195.53
  -3   3 -16 2243.07  177.35
  -4  -3 -16  257.17   69.86
   4  -3  16  300.80   79.93
   4  -3 -16  317.02   64.89
  -4   3  16  263.76   68.76
  -4   3 -16  316.43   62.58
   5  -3 -16  511.11   84.53
   5  -3  16  642.52  112.69
  -5   3  16  423.53   89.76
  -5  -3 -16  371.05   87.72
  -5   3 -16  581.56   87.37
   0  -4 -16   39.98   27.28
   0  -4 -16   -5.81   37.47
   0   4 -16  -12.10   39.55
   0  -4  16  -22.69   35.39
   1   4 -16 1464.89  147.32
  -1   4 -16 1769.37  148.59
   1  -4 -16 1785.04  139.73
  -1  -4 -16 1732.00  128.45
  -1  -4 -16 1762.64  172.29
   1  -4 -16 1531.70  161.90
  -1  -4  16 1848.94  150.99
   1  -4  16 1461.92  157.95
   2  -4 -16  701.26   85.90
  -2   4  16  742.56  100.40
   2  -4  16  965.67  119.46
   2   4 -16  837.48  103.90
   2   4 -16  967.34  103.81
  -2  -4 -16  719.27  106.68
  -2   4 -16  588.52   86.97
  -3   4 -16  100.90   47.90
   3  -4  16  123.46   61.33
  -3  -4 -16  153.97   60.20
   3   4 -16   85.86   57.10
   3  -4 -16   92.20   43.59
  -3   4  16  128.62   52.30
   3   4 -16  220.39   64.13
  -4   4  16  536.48   89.25
  -4  -4 -16  550.03   96.39
   4  -4 -16  614.09   87.21
   4  -4  16  629.13  109.73
   4   4 -16  320.69   90.92
   0  -5  16  701.94   98.22
   0  -5 -16  739.81   78.17
   0  -5 -16  860.23  111.40
   0   5 -16  752.16   94.44
   1  -5 -16  771.86   85.95
  -1  -5  16  931.44  108.36
  -1  -5 -16  903.41  116.53
   1  -5  16  824.20  118.08
   1  -5 -16  721.53  106.81
   1   5 -16  779.28  103.74
  -1   5 -16  905.67  104.42
  -2   5 -16  759.92   96.98
  -2   5  16  836.25  106.39
   2   5 -16  684.04  103.33
   2  -5 -16  739.49   88.92
  -2  -5 -16  693.31  113.49
   2  -5  16  885.75  129.64
   3  -5  16 1184.22  158.94
   3   5 -16 1388.22  156.07
  -3  -5 -16 1131.17  145.21
  -3   5 -16 1228.36  127.60
  -3   5  16 1404.89  139.68
  -4   5  16  234.79   68.27
   4  -5 -16  362.14   76.14
   4  -5  16  269.78   91.68
  -4  -5 -16  245.24   82.94
   4   5 -16  147.21   73.86
  -4   5 -16  354.04   71.40
   0   6 -16 1347.68  137.54
   0  -6 -16 1243.00  144.75
   0  -6  16 1310.63  145.07
   1  -6 -16  692.37  103.82
  -1  -6  16  641.05  103.98
   1  -6 -16  716.44   85.83
  -1   6 -16  695.13   98.48
   1  -6  16  824.54  120.03
   1   6 -16  723.02  102.80
  -1  -6 -16  726.30  106.39
   2   6 -16  506.15   91.32
   2  -6  16  398.84  113.30
  -2  -6 -16  467.32   98.86
  -2   6  16  559.64   90.94
  -2   6 -16  533.79   86.84
   2   6 -16  441.51  101.95
   2  -6 -16  445.17   76.05
  -3   6 -16  596.41   91.27
  -3  -6 -16  362.37   95.06
   3  -6  16  539.42  125.20
  -3   6  16  491.05   88.88
   3  -6 -16  571.59   85.85
   3   6 -16  527.09  113.19
   0  -7 -16   44.60   48.82
   0  -7  16    0.13   52.59
   0   7 -16   63.68   51.09
   0  -7 -16   20.74   26.42
   1  -7 -16  772.36   91.54
   1  -7 -16  744.63  108.41
  -1  -7  16  573.28  111.04
   1  -7  16  656.37  117.94
   1   7 -16  779.20  109.47
  -1  -7 -16  807.45  110.43
  -1   7 -16  643.99  100.27
   2  -7  16  742.39  149.96
   2   7 -16  935.30  144.81
  -2   7 -16  840.04  112.76
   2   7 -16  820.95  123.51
  -2  -7 -16  797.39  125.71
   2  -7 -16  801.92  101.59
  -2   7  16  896.76  116.76
  -3  -7 -16   81.05   72.21
  -3   7  16   71.25   53.35
  -3   7 -16  107.66   61.50
   3  -7  16   92.63   92.83
   3   7 -16   85.73   82.00
   3  -7 -16   66.55   51.52
   0  -8  16 1306.47  168.58
   0   8 -16 1276.85  145.90
   1   8 -16  183.96   78.56
   1  -8  16  277.46   90.57
   1  -8 -16  195.59   56.91
  -1  -8  16  243.03   90.14
  -1   8 -16  273.53   78.55
  -2   8  16  299.62   79.77
  -2   8 -16  268.33   81.99
   2  -8  16  527.62  130.33
   2   8 -16  341.62  111.42
   2  -8 -16  435.18   80.87
   0   0 -17   19.58   31.63
   0   0 -17   -8.99   28.99
   1   0 -17 3479.81  263.28
  -1   0 -17 3779.28  244.86
  -1   0 -17 2829.75  261.63
   1   0 -17 3967.09  251.27
  -2   0 -17  495.92   67.29
  -2   0 -17  501.16   73.83
   2   0 -17  392.39   68.40
  -2   0  17  544.10   73.09
  -3   0  17   63.03   37.87
   3   0 -17   70.43   43.92
  -3   0 -17   64.66   40.50
  -4   0 -17  489.17   84.26
  -4   0  17  652.54   87.65
   4   0 -17  605.61   87.52
  -5   0  17  529.33   88.80
  -5   0 -17  350.69   80.39
   0  -1 -17 1195.84  118.50
   0  -1 -17  982.80  102.19
   0   1 -17 1075.63  107.58
   0   1 -17 1183.70  109.88
  -1  -1 -17  987.84  120.10
   1   1 -17 1000.69  102.13
  -1   1 -17 1022.28  110.79
  -1  -1 -17 1187.46  102.15
   1  -1 -17 1150.48  106.03
   1   1 -17 1427.95  116.97
   1  -1 -17  922.92  115.73
  -1   1 -17 1247.03  110.98
  -2  -1 -17  795.58   77.03
   2  -1 -17  655.14   82.17
  -2   1 -17  578.18   80.10
  -2  -1 -17  691.48   88.04
   2   1 -17  702.64   89.85
  -2   1  17  766.44   92.60
  -2   1 -17  677.32   83.41
  -3   1 -17 2434.50  192.70
   3  -1 -17 2424.60  187.19
  -3  -1  17 2468.71  189.69
  -3  -1 -17 2290.35  196.12
   3   1 -17 2059.02  185.40
  -3   1  17 2466.19  198.37
   4  -1 -17  233.96   61.87
  -4  -1  17  364.14   65.01
   4   1 -17  362.31   71.43
  -4  -1 -17  322.88   71.18
  -4   1  17  336.21   70.00
  -4   1 -17  195.78   57.54
  -5   1  17  571.40   99.37
  -5  -1 -17  576.73   97.13
  -5   1 -17  681.29   96.77
  -5  -1  17  688.39   96.87
   0  -2 -17 1793.74  164.25
   0  -2 -17 1523.11  135.58
   0   2 -17 1848.94  143.96
   0   2 -17 1854.19  150.63
  -1  -2 -17 1447.00  153.42
  -1  -2 -17 1881.93  129.85
  -1   2 -17 1432.90  138.44
   1  -2 -17 1829.98  137.06
   1   2 -17 1925.09  149.57
  -1   2 -17 1613.43  139.93
   1  -2 -17 1134.46  147.21
  -2  -2  17 1470.26  118.56
   2   2 -17 1312.52  132.45
   2  -2 -17 1471.63  126.64
  -2   2  17 1184.44  133.44
  -2   2 -17 1521.46  125.26
  -2   2 -17 1411.15  129.04
  -2  -2 -17 1223.01  133.69
  -3   2 -17  378.79   64.40
   3   2 -17  409.84   75.20
  -3  -2 -17  472.17   79.82
  -3   2 -17  287.72   62.31
  -3   2  17  428.96   76.42
   3  -2 -17  433.23   70.71
  -3  -2  17  461.28   62.12
  -4   2  17  262.19   66.68
   4  -2 -17  223.41   60.94
  -4   2 -17  191.82   58.12
  -4  -2 -17  218.16   63.80
   4   2 -17  301.48   67.39
  -5   2  17  203.92   69.12
  -5   2 -17  254.56   68.73
   5  -2 -17  245.49   63.14
  -5  -2 -17  218.92   73.99
   0   3 -17   48.72   46.40
   0  -3 -17   35.54   29.48
   0  -3 -17   38.10   44.17
  -1   3 -17  364.27   66.50
  -1  -3 -17  239.35   71.59
   1  -3 -17  375.65   57.79
  -1  -3 -17  244.04   44.67
   1  -3  17  298.33   67.58
   1  -3 -17  240.68   70.58
   1   3 -17  239.98   65.44
  -2  -3 -17 1574.37  166.64
   2  -3 -17 1978.81  151.45
  -2   3  17 1723.64  163.46
  -2   3 -17 1800.02  150.77
   2   3 -17 1823.65  159.17
   2  -3  17 1712.75  157.18
   3  -3 -17  361.37   64.41
  -3  -3 -17  241.04   67.18
  -3   3 -17  267.79   61.13
  -3   3  17  178.93   58.22
   3   3 -17  200.29   60.94
   3  -3  17  242.41   65.29
  -3   3 -17  236.74   52.71
  -4   3 -17 1476.38  144.34
  -4  -3 -17 1636.12  159.28
   4  -3  17 1381.82  157.55
   4  -3 -17 1492.89  143.03
  -4   3  17 1720.54  161.17
   0   4 -17 4018.09  304.36
   0  -4 -17 5083.02  346.10
   0  -4  17 3864.52  304.68
   0  -4 -17 4708.43  294.26
  -1   4 -17  341.44   70.87
  -1  -4  17  338.95   64.05
   1  -4 -17  262.96   55.38
   1  -4  17  372.72   77.91
  -1  -4 -17  292.08   48.19
  -1  -4 -17  575.89   92.96
   1  -4 -17  265.37   73.93
   1   4 -17  303.49   73.57
  -2   4  17  945.01  119.15
   2  -4 -17 1088.67  104.89
   2  -4  17  977.13  125.42
  -2   4 -17 1129.20  115.70
  -2  -4 -17  714.18  116.68
   2   4 -17 1022.23  117.73
   2   4 -17 1134.36  117.73
  -3   4  17  541.33   92.02
   3  -4 -17  463.25   78.00
   3  -4  17  412.95   92.47
  -3   4 -17  719.92   89.86
   3   4 -17  621.43   95.20
  -3  -4 -17  630.65   99.31
   4  -4  17   80.10   61.01
  -4   4  17   85.59   53.55
   4  -4 -17  143.21   54.63
  -4  -4 -17  153.16   65.21
   0  -5 -17  123.16   37.50
   0  -5  17  159.64   56.02
   0  -5 -17   84.88   53.72
   0   5 -17   58.08   50.19
   1  -5  17  735.36  106.29
   1   5 -17  795.25  101.82
  -1   5 -17  648.57   93.04
   1  -5 -17  561.60   75.58
  -1  -5  17  596.76   88.40
  -1  -5 -17  690.10  105.57
   1  -5 -17  448.86   92.73
  -2   5 -17  961.03  115.26
  -2   5  17 1146.50  131.56
   2  -5 -17 1222.62  112.94
   2  -5  17  928.06  137.79
   2   5 -17 1254.56  129.78
  -2  -5 -17  706.95  123.50
   2   5 -17 1323.67  136.08
   3  -5  17  488.29  107.90
   3  -5 -17  427.89   78.63
  -3  -5 -17  481.69  100.37
  -3   5 -17  649.79   89.20
  -3   5  17  379.72   82.64
   4  -5 -17 1155.52  130.02
  -4   5  17 1307.31  143.79
  -4   5 -17  938.48  119.98
   4  -5  17 1067.91  157.69
   0   6 -17  802.11  108.50
   0  -6 -17  810.68  116.51
   0  -6  17  694.64  105.40
   1  -6  17 1192.98  147.13
  -1  -6  17 1228.61  139.41
   1   6 -17 1233.62  138.51
   1  -6 -17 1419.90  123.07
  -1  -6 -17 1420.48  147.30
  -1   6 -17 1027.50  130.05
   1  -6 -17 1292.36  148.13
   2  -6  17  218.96   87.40
   2  -6 -17  522.30   78.49
   2   6 -17  470.01   99.49
  -2   6 -17  441.39   80.81
  -2   6  17  302.85   78.48
   2   6 -17  518.48   94.97
  -2  -6 -17  225.86   80.35
   3   6 -17  244.47   88.03
  -3  -6 -17   -4.85   55.48
   3  -6 -17  188.70   62.07
  -3   6  17  179.99   64.58
  -3   6 -17  264.32   68.04
   3  -6  17   43.17   77.86
   0  -7  17  137.94   72.72
   0  -7 -17  129.13   60.08
   0   7 -17  276.95   74.89
   1  -7  17  296.30   88.09
  -1  -7  17  398.00   91.13
   1  -7 -17  406.28   72.22
   1   7 -17  425.56   90.47
   1  -7 -17  412.30   89.91
  -1   7 -17  532.82   93.31
  -1  -7 -17  337.42   81.37
  -2   7 -17  179.98   68.01
  -2   7  17  290.79   78.38
   2   7 -17  184.30   85.16
   2  -7 -17  233.94   62.29
  -2  -7 -17  131.74   69.74
   2   7 -17  231.42   85.65
   2  -7  17  170.25   90.55
   3  -7  17 1186.00  191.56
  -3   7  17 1394.45  147.76
  -3  -7 -17  851.67  151.93
   3   7 -17 1241.10  169.48
   0  -8 -17  121.67   64.76
   0  -8  17   68.06   69.44
   0   8 -17   71.99   58.22
   1  -8 -17 1171.95  127.98
   1   8 -17 1307.83  150.57
   1  -8  17 1236.05  161.67
  -1   8 -17 1469.98  158.81
   0   0 -18 5344.75  377.73
   0   0 -18 6285.99  416.34
  -1   0 -18   21.07   40.53
  -1   0 -18   30.25   33.71
   1   0 -18   19.59   35.41
   1   0 -18   71.33   41.63
  -2   0  18 2250.52  177.08
  -2   0 -18 1997.24  158.92
  -2   0 -18 2062.51  175.78
   2   0 -18 1949.19  166.82
  -3   0 -18  218.50   56.58
   3   0 -18  220.71   58.96
  -3   0  18  196.14   52.08
  -4   0  18   69.36   46.18
   4   0 -18   40.44   47.68
  -4   0 -18   80.72   47.40
  -5   0  18   84.98   55.06
  -5   0 -18   73.09   56.39
   0   1 -18   86.76   42.59
   0   1 -18   77.43   38.11
   0  -1 -18   59.53   43.66
   0  -1 -18   39.45   34.16
   1  -1 -18  238.22   52.78
   1   1 -18  253.68   51.59
  -1   1 -18  194.36   55.42
   1   1 -18  313.48   62.97
   1  -1 -18  179.67   58.62
  -1   1 -18  128.84   52.95
  -1  -1 -18  284.70   69.29
   2   1 -18 2541.43  197.40
   2  -1 -18 2466.46  194.56
  -2  -1 -18 2238.51  205.82
  -2   1  18 2402.86  208.09
  -2  -1 -18 2603.94  182.67
  -2   1 -18 2644.06  193.96
  -2   1 -18 2698.04  204.74
   3  -1 -18  850.97   98.17
  -3  -1  18  884.59   94.38
  -3   1 -18  718.40   91.86
   3   1 -18  670.44   93.42
  -3   1  18  655.82   93.60
  -3  -1 -18  964.41  107.12
  -4   1  18 2192.56  185.15
  -4  -1  18 2133.60  177.67
  -4  -1 -18 2013.99  181.83
   4   1 -18 1867.21  173.28
  -4   1 -18 1986.24  178.05
   4  -1 -18 1828.24  170.37
  -5  -1 -18  313.38   78.19
  -5   1 -18  240.32   72.50
  -5   1  18  192.11   69.04
  -5  -1  18  248.52   70.92
   0   2 -18 2808.00  226.65
   0  -2 -18 3296.18  251.74
   0   2 -18 3283.94  229.54
   0  -2 -18 2853.95  215.29
   1   2 -18 3096.70  207.90
   1  -2 -18 2365.77  227.51
   1   2 -18 3265.77  217.16
  -1  -2 -18 2630.41  231.56
  -1   2 -18 2994.10  213.59
   1  -2 -18 2944.69  205.74
  -1  -2 -18 2885.25  197.04
  -1   2 -18 2037.92  207.19
  -2  -2  18 1212.06  112.54
  -2   2 -18 1309.93  121.97
  -2  -2 -18 1234.87  135.26
   2  -2 -18 1268.02  120.59
  -2   2  18 1431.28  138.65
  -2   2 -18 1262.60  123.28
   2   2 -18 1303.03  130.35
   3   2 -18  111.25   52.10
  -3  -2 -18  108.01   53.26
  -3  -2  18  173.49   45.66
  -3   2 -18  132.48   54.88
   3  -2 -18  102.06   44.38
  -3   2  18   43.21   44.61
  -3   2 -18  148.51   47.23
   4  -2 -18   75.18   48.84
  -4   2  18  133.89   54.21
  -4   2 -18   89.07   47.84
  -4  -2 -18   92.38   52.15
   4   2 -18   62.91   56.26
  -5   2  18  296.97   81.02
  -5   2 -18  293.89   70.81
  -5  -2 -18  137.99   68.49
   0  -3 -18  214.82   61.48
   0   3 -18  164.22   58.45
   0  -3 -18  148.05   43.24
   1  -3 -18  555.28   71.93
   1   3 -18  506.24   84.01
  -1   3 -18  699.22   91.42
  -1  -3 -18  499.56   95.57
   1  -3 -18  627.34   99.17
  -1  -3 -18  527.65   65.46
  -2   3 -18  120.02   50.03
   2   3 -18  265.87   64.64
  -2   3  18  155.36   59.43
  -2  -3 -18  149.82   60.32
   2  -3 -18  134.43   48.28
  -3   3 -18 2060.65  174.29
   3   3 -18 2364.51  190.25
  -3   3  18 2339.46  197.62
   3  -3 -18 2067.40  178.68
  -3  -3 -18 2017.07  194.96
   4  -3 -18  396.07   76.53
  -4   3  18  400.35   84.46
  -4  -3 -18  293.02   81.62
   0  -4 -18  135.38   57.85
   0   4 -18  122.05   55.35
   0  -4 -18  114.16   39.02
   1  -4 -18 3611.48  243.31
  -1  -4 -18 3397.62  228.98
  -1   4 -18 3513.35  250.47
   1  -4 -18 2837.94  271.11
   1   4 -18 3317.12  253.41
  -1  -4 -18 3297.48  278.00
   2  -4 -18  253.48   59.09
  -2  -4 -18  366.54   85.26
   2   4 -18  242.10   71.75
  -2   4 -18  399.58   71.43
  -2   4  18  224.75   70.23
  -3   4  18   74.36   49.51
   3   4 -18   67.36   56.77
   3  -4 -18  105.25   48.78
  -3  -4 -18   92.86   56.40
  -3   4 -18   75.91   49.31
  -4   4  18   74.79   53.22
  -4  -4 -18  -14.97   48.22
   4  -4 -18   70.22   49.21
   0   5 -18   75.95   52.21
   0  -5 -18  176.24   44.82
   0  -5 -18  114.45   54.90
   1  -5 -18  580.17   77.10
   1   5 -18  638.91   95.18
   1  -5 -18  427.22   93.89
  -1   5 -18  516.91   87.11
  -1  -5 -18  830.16  111.77
  -2   5 -18  471.22   85.59
   2  -5  18  537.61  107.37
   2   5 -18  435.37   89.74
  -2  -5 -18  422.22   97.74
   2  -5 -18  457.99   73.70
  -2   5  18  531.48   96.51
  -3   5 -18 1529.47  147.24
  -3   5  18 1309.06  153.28
  -4   5  18  174.99   70.67
   4  -5 -18  193.17   65.35
  -4  -5 -18  116.01   73.32
   0  -6 -18 1970.44  181.70
   0   6 -18 1642.40  163.52
   0  -6  18 1546.63  161.88
   1  -6 -18  623.24  111.15
  -1   6 -18  783.66  110.44
   1  -6 -18  967.34  102.34
  -1  -6  18  836.27  110.88
   1  -6  18  967.38  124.38
   1   6 -18  867.59  118.85
  -1  -6 -18 1001.89  123.51
   2  -6  18  574.05  122.72
  -2   6  18  586.59  101.40
   2  -6 -18  570.07   86.78
   2   6 -18  558.30  102.84
  -2  -6 -18  554.55  107.58
  -2   6 -18  506.49   93.03
  -3   6  18   89.46   58.26
   3  -6  18    6.87   76.34
  -3  -6 -18   29.14   63.67
  -3   6 -18   97.29   57.99
   3  -6 -18  196.21   60.80
   0   7 -18    1.95   52.36
   0  -7  18   50.45   51.89
   0  -7 -18   22.24   46.34
   1  -7 -18  132.26   48.05
   1   7 -18  127.84   72.79
  -1  -7  18   91.07   66.17
   1  -7  18  161.41   69.69
  -1  -7 -18  182.21   62.50
   1  -7 -18   59.70   58.47
  -1   7 -18  148.08   68.06
   2   7 -18  668.58  117.70
  -2   7 -18  832.10  113.87
  -2   7  18  737.50  116.98
  -2  -7 -18  706.32  120.33
   2  -7 -18  843.70  105.75
   2  -7  18  725.25  139.33
   0   8 -18 1463.08  157.88
   0  -8  18 1187.92  157.54
   0  -8 -18 1106.02  149.54
  -1  -8 -18   71.34   59.23
   1  -8 -18   35.66   47.82
  -1  -8  18  -12.71   60.63
   1  -8  18   -0.42   55.91
   1  -8 -18   79.78   59.78
   1   8 -18  -69.86   60.42
  -1   8 -18   93.14   74.86
   0   0 -19   78.77   43.58
   0   0 -19   19.63   34.06
  -1   0 -19 4286.15  268.45
   1   0 -19 3696.47  287.69
  -1   0 -19 3125.23  285.98
   1   0 -19 4126.75  271.32
   2   0 -19   42.90   39.47
  -2   0 -19   33.22   37.27
  -2   0  19   40.34   36.65
  -2   0 -19   28.13   39.35
  -3   0  19   98.34   46.03
  -3   0 -19  192.89   58.39
   3   0 -19  142.34   54.46
  -4   0 -19    7.69   40.97
  -4   0  19   56.28   44.77
   4   0 -19   -3.78   45.42
  -5   0  19  521.60   91.37
  -5   0 -19  398.36   88.80
   0  -1 -19   36.24   39.44
   0   1 -19   35.04   30.21
   0   1 -19   11.01   38.98
   0  -1 -19   18.59   34.63
   1  -1 -19  705.52   95.56
   1   1 -19  690.99   87.06
  -1   1 -19  512.97   83.60
   1   1 -19  599.09   78.90
   1  -1 -19  631.18   80.26
  -1  -1 -19  554.84   92.06
  -1   1 -19  705.78   87.14
  -2   1 -19  252.87   60.63
  -2  -1 -19  262.72   66.86
  -2   1 -19  360.06   63.33
  -2   1  19  424.93   76.92
   2   1 -19  349.77   68.99
   2  -1 -19  368.25   66.80
  -3   1  19 2349.32  204.78
  -3  -1 -19 2401.28  204.57
  -3   1 -19 2314.14  197.49
   3   1 -19 2385.63  195.82
   3  -1 -19 2359.50  193.33
  -3  -1  19 2485.93  196.26
  -4  -1 -19  222.31   65.92
  -4  -1  19  389.40   72.42
   4  -1 -19  389.22   77.65
  -4   1  19  314.50   75.53
   4   1 -19  397.50   79.86
  -4   1 -19  366.49   74.67
   0   2 -19 2943.18  233.98
   0   2 -19 3258.75  237.72
   0  -2 -19 3540.31  264.31
   0  -2 -19 3080.22  226.70
   1   2 -19 1559.20  134.18
   1  -2 -19 1290.99  144.81
  -1  -2 -19 1433.60  116.62
  -1   2 -19 1384.04  133.49
   1   2 -19 1444.47  119.79
  -1  -2 -19 1318.85  148.23
   1  -2 -19 1159.18  120.32
  -1   2 -19 1077.42  123.58
  -2   2 -19  766.54   90.17
  -2  -2 -19  643.36   99.42
  -2  -2  19  770.20   84.64
   2  -2 -19  860.55   96.98
  -2   2 -19  869.74   97.21
  -2   2  19  707.28  102.52
   2   2 -19  711.51   95.02
  -3  -2 -19   16.42   43.13
  -3   2  19   30.62   42.14
  -3   2 -19   61.66   49.55
  -3   2 -19   18.27   33.84
   3   2 -19   18.80   47.56
  -3  -2  19   62.17   35.22
   3  -2 -19   34.27   35.27
  -4   2  19   49.31   50.23
   4   2 -19   97.74   55.07
  -4   2 -19  120.83   54.80
   4  -2 -19  232.94   66.21
  -4  -2 -19   95.32   53.95
   0  -3 -19  296.30   55.04
   0  -3 -19  375.23   76.25
   0   3 -19  240.32   66.00
   1   3 -19  100.04   52.23
   1  -3 -19   59.67   35.69
  -1  -3 -19   28.90   46.42
  -1   3 -19  110.28   52.04
   1  -3 -19   55.87   55.22
  -1  -3 -19   36.66   31.23
   2   3 -19 1521.96  143.73
  -2   3  19 1399.44  149.98
  -2   3 -19 1497.46  140.08
   2  -3 -19 1716.03  138.51
  -2  -3 -19 1014.22  143.40
   3   3 -19   81.13   55.22
   3  -3 -19   57.80   41.64
  -3  -3 -19   55.46   51.04
  -3   3 -19   38.22   48.35
  -3   3  19  160.25   61.55
  -4  -3 -19 1446.47  160.21
  -4   3  19 1502.86  160.79
   4  -3 -19 1705.60  153.95
   0  -4 -19 4218.26  321.78
   0  -4 -19 3955.07  275.18
   0   4 -19 3937.91  292.86
  -1  -4 -19  105.22   57.28
   1  -4 -19  -45.03   40.41
  -1   4 -19   82.85   55.06
   1   4 -19  119.22   54.28
   1  -4 -19   15.32   31.64
  -2  -4 -19 1065.18  146.67
  -2   4  19 1339.62  147.39
  -2   4 -19 1294.68  131.76
   2   4 -19 1233.88  132.52
   2  -4 -19 1301.41  125.61
  -3  -4 -19  -15.02   48.33
  -3   4  19    9.66   46.30
   3  -4 -19   72.44   47.93
  -3   4 -19   -1.15   41.90
   3   4 -19   -6.30   53.83
  -4  -4 -19  166.93   71.42
  -4   4  19   83.94   61.10
   4  -4 -19  118.16   58.72
   0   5 -19  193.60   67.14
   0  -5 -19  142.59   60.70
   0  -5 -19   88.03   39.26
   1  -5 -19  337.75   85.55
   1   5 -19  253.49   77.40
  -1  -5 -19  285.88   75.80
  -1   5 -19  271.90   75.30
   1  -5 -19  306.56   60.67
  -2   5 -19 1434.61  143.15
  -2   5  19 1344.08  151.73
   2  -5 -19 1183.55  125.86
   2   5 -19 1140.41  133.72
  -2  -5 -19 1313.68  160.47
   3   5 -19  397.32   92.35
  -3   5  19  596.81  104.81
   3  -5 -19  528.50   88.58
  -3  -5 -19  409.81  101.62
  -3   5 -19  456.97   89.21
   0  -6 -19 1159.90  137.59
   0   6 -19  818.74  120.34
   1   6 -19 1446.59  151.78
  -1  -6 -19 1454.84  155.48
  -1   6 -19 1458.32  151.82
   1  -6 -19 1251.07  158.98
   1  -6 -19 1427.32  133.35
   2   6 -19  251.51   81.12
   2  -6 -19  283.32   68.85
  -2   6 -19  262.63   78.84
  -2  -6 -19  238.93   80.59
  -2   6  19  221.97   71.82
   3  -6 -19   40.19   47.68
  -3   6  19  135.47   66.34
  -3  -6 -19  144.40   78.07
  -3   6 -19  121.44   66.28
   0  -7 -19   52.76   53.60
   0   7 -19   49.38   60.94
   1  -7 -19  356.26   71.03
  -1  -7 -19  344.58   81.83
   1  -7 -19  263.80   83.87
   1   7 -19  263.47   85.74
  -1   7 -19  329.89   83.70
  -2   7  19    7.53   56.10
   2   7 -19  -30.22   63.50
  -2   7 -19  132.59   63.68
   2  -7 -19  130.78   56.68
  -2  -7 -19   34.57   54.30
   0  -8 -19   40.63   62.37
   0   8 -19   -8.73   62.74
   0   0 -20 5220.19  371.29
   0   0 -20 6009.39  406.75
   1   0 -20  -22.18   35.27
   1   0 -20   29.51   37.38
  -1   0 -20   30.42   44.07
  -1   0 -20   43.88   39.43
  -2   0 -20 1927.35  151.12
   2   0 -20 1785.32  159.11
  -2   0  20 1880.85  165.20
  -2   0 -20 1682.44  164.30
  -3   0  20  -37.31   31.38
   3   0 -20   20.97   40.23
  -3   0 -20    0.99   36.65
   4   0 -20   46.88   48.35
  -4   0  20  154.04   54.22
  -4   0 -20  130.32   57.64
   0   1 -20   86.64   46.23
   0   1 -20  180.70   49.20
   0  -1 -20  146.56   49.50
   0  -1 -20  107.89   52.36
   1   1 -20  137.11   47.03
  -1  -1 -20  112.27   56.78
  -1   1 -20   18.82   43.01
  -1   1 -20   22.59   43.62
   1   1 -20  190.90   57.84
   1  -1 -20   29.92   39.53
  -1  -1 -20   16.61   25.10
   1  -1 -20   12.24   42.44
   2   1 -20 2729.61  209.99
  -2   1  20 2459.56  220.12
   2  -1 -20 2708.44  207.74
  -2  -1 -20 2801.54  229.12
  -2   1 -20 2580.82  215.95
  -3   1  20  704.32   97.67
  -3  -1  20  582.43   79.49
  -3  -1 -20  533.48   90.65
  -3   1 -20  548.65   86.40
   3   1 -20  474.49   83.53
   3  -1 -20  458.35   84.27
  -4  -1  20 1500.25  149.63
  -4   1 -20 1604.70  156.03
  -4  -1 -20 1597.43  159.38
   4   1 -20 1397.68  153.35
   4  -1 -20 1398.32  150.90
  -4   1  20 1771.52  165.16
   0   2 -20 2217.83  195.22
   0   2 -20 2478.51  196.47
   0  -2 -20 2550.76  192.21
   0  -2 -20 3039.64  225.97
  -1  -2 -20 2331.35  173.02
   1  -2 -20 2175.83  179.08
   1  -2 -20 2224.66  208.73
  -1   2 -20 2077.50  187.97
   1   2 -20 2293.91  179.87
  -1   2 -20 2216.03  187.71
  -1  -2 -20 2530.31  214.06
   1   2 -20 2506.32  192.84
  -2   2  20  651.82  101.94
  -2  -2  20  715.46   81.09
  -2  -2 -20  498.20   96.14
  -2   2 -20  670.87   93.36
   2  -2 -20  845.81   98.76
   2   2 -20  631.70   93.33
  -2   2 -20  651.34   88.28
   3  -2 -20   57.42   42.15
  -3   2  20   50.59   46.92
   3   2 -20   29.50   46.26
  -3  -2 -20   30.39   44.25
  -3   2 -20   -5.55   37.62
  -4  -2 -20  113.31   56.39
   4  -2 -20   85.52   51.15
  -4   2  20   17.79   52.41
  -4   2 -20   93.98   51.29
   4   2 -20   -7.19   49.64
   0  -3 -20   58.98   40.24
   0  -3 -20    9.30   42.80
   0   3 -20  -12.57   46.90
   1  -3 -20  563.67   99.95
  -1  -3 -20  575.82   98.32
   1   3 -20  567.40   84.53
  -1   3 -20  524.81   86.11
  -1  -3 -20  578.28   69.98
   1  -3 -20  427.09   71.60
  -2   3 -20  179.76   63.15
   2  -3 -20  194.38   56.86
   2   3 -20   93.74   60.06
  -2   3  20   68.47   53.86
  -2  -3 -20  153.02   63.29
  -3   3 -20 1927.42  174.38
   3  -3 -20 1970.53  178.16
   3   3 -20 2054.14  183.86
  -3   3  20 2155.05  199.85
  -3  -3 -20 2026.88  199.05
  -4  -3 -20  189.94   75.86
  -4   3  20  374.39   89.22
   4  -3 -20  363.05   79.95
   0   4 -20  149.34   66.75
   0  -4 -20   89.98   39.87
   0  -4 -20  165.96   62.72
   1  -4 -20 2873.95  249.91
   1  -4 -20 2849.49  211.68
  -1  -4 -20 2845.08  240.83
  -1   4 -20 2489.93  218.69
   1   4 -20 2552.73  216.88
   2  -4 -20  -13.45   32.94
   2   4 -20   62.86   49.97
  -2   4 -20   35.91   50.55
  -2   4  20    4.00   46.32
  -2  -4 -20   36.23   49.00
  -3  -4 -20   29.97   55.23
   3  -4 -20    2.33   40.13
  -3   4 -20   44.74   54.89
  -3   4  20   87.89   56.38
   3   4 -20   42.51   55.57
  -4  -4 -20   78.64   69.24
  -4   4  20   67.57   66.32
   4  -4 -20   -7.43   45.99
   0  -5 -20   32.72   32.21
   0  -5 -20   50.76   51.32
   0   5 -20   12.54   50.61
   1   5 -20  481.06   91.22
  -1   5 -20  250.39   80.51
  -1  -5 -20  424.36   85.23
   1  -5 -20  373.36   68.30
   1  -5 -20  247.19   77.29
   2  -5 -20  422.11   73.36
  -2   5  20  211.56   74.43
  -2  -5 -20  287.64   84.39
   2   5 -20  505.57   92.82
  -2   5 -20  389.77   83.87
  -3   5  20 1654.95  173.80
   3   5 -20 1650.45  167.81
  -3  -5 -20 1316.85  179.37
  -3   5 -20 1676.94  162.97
   0  -6 -20 2142.70  196.28
   0   6 -20 1526.35  170.78
  -1  -6 -20  711.79  111.73
  -1   6 -20  819.31  115.57
   1  -6 -20  750.91  120.76
   1   6 -20  646.42  111.94
   1  -6 -20  743.49   95.96
   2  -6 -20  138.59   59.63
  -2   6  20  245.41   77.62
   2   6 -20  205.53   80.48
  -2   6 -20  361.63   85.12
  -2  -6 -20  185.68   78.75
  -3  -6 -20   42.75   67.44
   3  -6 -20  143.95   65.31
  -3   6  20  116.99   75.05
  -3   6 -20  164.89   71.58
   0   7 -20   72.93   64.44
   0  -7 -20    5.49   47.65
  -1  -7 -20   53.29   56.69
  -1   7 -20  111.54   66.28
   1   7 -20   74.74   75.18
   1  -7 -20   56.84   58.26
   1  -7 -20  155.10   53.92
   2  -7 -20  812.60  111.11
  -2   7 -20 1038.98  132.71
   2   7 -20  957.58  135.67
  -2   7  20  788.97  128.96
  -2  -7 -20  629.78  116.58
   0   0 -21   89.19   43.50
   0   0 -21   55.19   39.47
  -1   0 -21 2453.80  235.91
   1   0 -21 3123.20  226.04
   1   0 -21 3219.32  244.04
  -1   0 -21 3078.81  220.19
   2   0 -21  263.06   63.39
  -2   0  21  308.85   68.93
  -2   0 -21  301.70   58.84
  -2   0 -21  221.26   66.66
  -3   0  21  404.03   74.33
   3   0 -21  211.66   64.36
  -3   0 -21  216.68   69.33
   4   0 -21  169.13   61.33
  -4   0 -21  189.67   64.06
  -4   0  21  315.17   73.72
   0   1 -21  451.50   72.93
   0  -1 -21  553.24   78.76
   0   1 -21  545.06   81.91
   0  -1 -21  554.98   83.78
  -1   1 -21  693.73   85.70
  -1   1 -21  609.72   88.66
  -1  -1 -21  475.74   70.90
   1  -1 -21  688.30   98.76
   1  -1 -21  781.50   90.67
   1   1 -21  608.89   87.48
  -1  -1 -21  491.28   93.20
   1   1 -21  473.09   78.23
   2   1 -21  453.46   78.10
  -2   1 -21  473.02   81.64
   2  -1 -21  550.10   82.89
  -2  -1 -21  415.41   82.25
  -2   1  21  374.04   81.41
  -3   1 -21 2197.16  200.21
  -3  -1  21 2529.76  201.96
   3   1 -21 2379.79  200.39
  -3   1  21 2616.96  216.84
   3  -1 -21 2151.64  194.92
  -3  -1 -21 2320.74  210.31
   4   1 -21  141.76   67.86
  -4   1 -21  152.66   61.11
  -4  -1  21  210.42   65.29
  -4   1  21   84.22   55.03
  -4  -1 -21  174.31   71.13
   4  -1 -21  190.93   66.87
   0   2 -21 3052.96  230.42
   0  -2 -21 3512.35  258.28
   0  -2 -21 2838.45  221.06
   0   2 -21 2822.42  227.31
  -1   2 -21 1356.18  128.20
   1  -2 -21 1314.77  122.15
  -1  -2 -21  954.16  107.60
   1   2 -21 1040.14  121.47
  -1  -2 -21 1176.24  139.32
   1  -2 -21 1516.03  149.16
  -1   2 -21 1369.35  128.80
   2  -2 -21  702.90   90.81
  -2   2  21  435.52   91.70
  -2  -2 -21  421.25   90.34
  -2   2 -21  491.94   80.53
   2   2 -21  655.39   90.83
  -2   2 -21  810.02   98.61
  -3   2  21   68.23   51.18
   3  -2 -21  104.71   53.42
  -3  -2 -21   37.07   52.39
   3   2 -21  131.12   57.04
  -3   2 -21   97.56   53.82
  -4   2 -21  125.99   61.94
   4   2 -21   87.66   63.22
  -4   2  21   64.12   57.70
   4  -2 -21  216.01   67.01
  -4  -2 -21  260.85   78.82
   0   3 -21  -21.45   40.85
   0  -3 -21  -21.43   28.70
   0  -3 -21   23.94   42.66
  -1  -3 -21  112.01   57.80
   1  -3 -21  239.86   59.29
  -1  -3 -21  171.96   45.01
   1   3 -21  199.81   63.55
  -1   3 -21  155.99   60.28
   1  -3 -21  253.15   79.99
  -2   3  21 1331.76  161.09
  -2   3 -21 1796.75  158.04
  -2  -3 -21 1301.85  163.35
   2   3 -21 1725.01  154.94
   2  -3 -21 1527.87  143.80
  -3   3  21  303.62   84.35
  -3   3 -21  286.64   73.08
  -3  -3 -21  208.92   74.23
   3   3 -21  269.64   75.96
   3  -3 -21  242.35   69.96
   4  -3 -21 1610.40  165.09
  -4   3  21 1547.57  176.81
  -4  -3 -21 1508.30  180.06
   0  -4 -21 2568.05  199.76
   0  -4 -21 2756.75  236.99
   0   4 -21 2632.07  219.26
  -1   4 -21  -34.59   52.64
   1  -4 -21   49.03   39.91
   1   4 -21  -20.29   43.94
  -1  -4 -21  -31.86   36.66
   1  -4 -21   47.93   49.43
  -2  -4 -21  745.81  124.98
  -2   4  21  780.65  124.77
   2  -4 -21 1118.70  117.01
  -2   4 -21 1040.65  122.00
   2   4 -21  885.03  116.33
   3  -4 -21   96.00   55.49
   3   4 -21   85.64   63.49
  -3   4 -21  126.10   64.36
  -3  -4 -21  112.11   70.44
  -3   4  21  140.89   66.22
  -4   4  21   77.27   68.91
   0   5 -21   35.17   59.72
   0  -5 -21   38.35   49.65
   0  -5 -21  -26.71   30.24
  -1  -5 -21  431.79   89.04
   1  -5 -21  361.42   67.49
   1  -5 -21  190.71   74.95
   1   5 -21  335.05   87.37
  -1   5 -21  210.18   77.79
   2   5 -21 1445.14  149.48
  -2  -5 -21 1111.34  157.10
   2  -5 -21 1670.63  144.71
  -2   5  21  988.82  146.31
  -2   5 -21 1454.57  149.51
   3   5 -21  282.82   87.37
  -3   5  21  400.67   95.81
  -3   5 -21  337.89   84.91
  -3  -5 -21  199.01   87.70
   3  -5 -21  331.31   79.35
   0   6 -21  748.14  119.22
   0  -6 -21  911.65  128.87
   1  -6 -21  801.54  130.97
  -1   6 -21  929.91  127.04
  -1  -6 -21  727.78  116.14
   1  -6 -21  884.20  106.66
   1   6 -21 1051.35  134.70
   2   6 -21  172.60   75.85
  -2  -6 -21  189.62   77.27
   2  -6 -21  313.72   76.76
  -2   6 -21  200.87   77.15
  -2   6  21  171.59   71.37
   0  -7 -21  110.50   65.53
   0   7 -21   60.60   72.48
   1  -7 -21  189.98   61.07
   1  -7 -21  207.39   75.81
  -1  -7 -21  314.81   83.83
   1   7 -21  222.20   90.25
  -1   7 -21  123.13   80.51
   0   0 -22 3349.61  250.09
   0   0 -22 3526.80  269.07
  -1   0 -22  -29.78   31.05
   1   0 -22    6.81   42.47
   1   0 -22   72.60   44.76
  -1   0 -22   18.34   41.59
  -2   0 -22  540.64   77.77
   2   0 -22  663.52   92.59
  -2   0 -22  539.24   94.48
  -2   0  22  681.31   94.59
  -3   0 -22  139.37   60.91
   3   0 -22  192.19   62.28
  -3   0  22  230.11   63.84
  -4   0  22   82.11   54.38
  -4   0 -22   56.07   57.00
   4   0 -22   61.06   57.35
   0   1 -22  310.76   60.30
   0   1 -22  216.23   60.53
   0  -1 -22  294.23   62.17
   0  -1 -22  199.77   59.94
  -1  -1 -22  217.73   67.69
   1  -1 -22  330.38   65.68
   1   1 -22  269.67   59.88
  -1   1 -22  237.05   59.72
  -1   1 -22  270.24   63.98
  -1  -1 -22  244.31   54.58
   1   1 -22   78.59   52.92
   1  -1 -22  305.58   77.21
  -2   1  22 1185.86  152.26
  -2   1 -22 1590.25  154.20
   2  -1 -22 1603.32  146.00
   2   1 -22 1813.14  151.88
  -2  -1 -22 1408.50  161.37
  -3   1  22  528.32   95.67
  -3  -1  22  497.67   83.22
   3   1 -22  499.20   87.33
  -3  -1 -22  456.29   91.44
  -3   1 -22  640.48   99.19
   3  -1 -22  422.37   86.97
  -4   1 -22 1106.53  132.94
  -4  -1 -22  986.89  134.97
  -4  -1  22  970.03  123.49
   4  -1 -22 1078.41  130.14
   4   1 -22  926.82  127.25
  -4   1  22 1054.90  135.09
   0   2 -22  776.43  104.06
   0  -2 -22  957.27  103.69
   0  -2 -22 1074.05  123.47
  -1   2 -22 1021.59  121.23
   1   2 -22  927.76  115.66
   1  -2 -22 1133.22  117.55
  -1  -2 -22 1095.28  134.76
  -1   2 -22 1175.00  121.25
  -1  -2 -22 1207.02  110.60
   1  -2 -22 1512.77  154.49
  -2   2 -22  550.78   91.01
  -2  -2 -22  572.32  107.13
  -2   2 -22  892.68  108.01
  -2   2  22  694.21  109.94
   2   2 -22  867.85  105.92
   2  -2 -22  733.10  100.04
  -3   2  22   69.49   56.69
  -3   2 -22   79.13   52.26
  -3  -2 -22   65.09   56.62
   3   2 -22  136.21   60.48
   3  -2 -22  154.64   60.84
  -4   2 -22  248.75   76.09
   4  -2 -22  286.47   78.46
  -4  -2 -22  288.33   84.44
  -4   2  22  222.90   79.37
   4   2 -22  189.02   74.16
   0   3 -22  423.77   80.91
   0  -3 -22  380.71   67.66
   0  -3 -22  380.97   83.87
   1  -3 -22  677.35  113.23
  -1   3 -22  682.05  101.30
   1  -3 -22  573.07   85.99
  -1  -3 -22  740.11   85.87
   1   3 -22  737.12  102.26
  -1  -3 -22  736.44  111.15
  -2   3  22  189.28   72.43
  -2  -3 -22  156.05   68.11
  -2   3 -22  127.62   63.24
   2   3 -22  189.31   63.54
   2  -3 -22  269.29   70.32
  -3   3 -22 1633.94  155.50
   3   3 -22 1573.43  156.64
  -3   3  22 1341.77  167.27
  -3  -3 -22 1162.82  163.45
   3  -3 -22 1568.24  157.24
  -4   3  22  184.47   77.77
  -4  -3 -22  146.87   76.48
   4  -3 -22  129.37   68.16
   0   4 -22   50.94   61.42
   0  -4 -22   62.13   50.35
   0  -4 -22   74.86   40.61
   1   4 -22 1576.89  170.02
  -1   4 -22 1797.12  178.68
   1  -4 -22 1923.29  167.00
  -1  -4 -22 2079.93  189.41
   1  -4 -22 2058.41  201.45
  -2   4 -22  373.60   80.89
  -2  -4 -22   33.75   55.58
   2   4 -22  234.10   74.74
   2  -4 -22  367.12   74.85
  -2   4  22  143.91   71.13
  -3   4 -22  -17.40   55.46
  -3   4  22  112.97   62.78
  -3  -4 -22   35.37   68.40
   3  -4 -22  -13.42   43.73
   3   4 -22   -2.69   53.39
   0  -5 -22  416.89   91.05
   0   5 -22  277.36   82.16
   0  -5 -22  407.57   69.59
  -1   5 -22  714.69  112.26
   1   5 -22  541.37  103.83
   1  -5 -22  674.08  118.37
  -1  -5 -22  588.07  104.26
   1  -5 -22  573.07   88.31
  -2  -5 -22  283.84   88.50
  -2   5  22  282.62   84.46
   2   5 -22  420.29   91.07
  -2   5 -22  300.92   83.51
   2  -5 -22  380.73   79.72
  -3  -5 -22  791.82  143.49
   3  -5 -22 1199.18  135.85
   3   5 -22  942.37  134.59
  -3   5  22 1108.72  156.09
  -3   5 -22  974.71  129.83
   0  -6 -22  802.50  128.63
   0   6 -22 1122.32  139.85
  -1   6 -22  383.04   91.83
   1   6 -22  422.27  101.10
  -1  -6 -22  398.82   91.62
   1  -6 -22  382.29   75.40
   1  -6 -22  384.76  100.72
  -2   6  22  451.34  104.16
   2  -6 -22  624.24   98.67
  -2   6 -22  355.33   93.50
   2   6 -22  205.59   86.20
   0  -7 -22   44.75   60.12
   0   7 -22   -0.84   65.64
  -1  -7 -22  274.54   80.63
   1  -7 -22  139.51   74.27
  -1   7 -22   90.68   82.77
   1   7 -22  198.73   88.12
   1  -7 -22  234.44   70.23
   0   0 -23   31.18   37.53
   0   0 -23   31.21   37.88
  -1   0 -23 1773.63  180.34
   1   0 -23 2113.92  175.26
  -1   0 -23 1837.64  164.10
   1   0 -23 2380.46  190.65
  -2   0 -23  235.25   60.40
   2   0 -23  433.48   76.24
  -2   0  23  342.96   75.96
  -2   0 -23  198.13   70.38
   3   0 -23  101.55   55.97
  -3   0  23  127.95   58.64
  -3   0 -23  105.63   61.63
   4   0 -23  516.82  102.37
  -4   0 -23  647.97  110.97
  -4   0  23  675.44  108.06
   0   1 -23 1495.01  147.32
   0   1 -23 1748.89  151.24
   0  -1 -23 1581.13  156.25
   0  -1 -23 1669.31  147.27
   1   1 -23  666.21   95.79
   1   1 -23  689.14   95.26
  -1  -1 -23  790.33   92.70
   1  -1 -23  941.96  120.63
  -1   1 -23  723.85   96.86
  -1   1 -23 1051.09  111.68
   1  -1 -23  820.89   99.81
  -1  -1 -23  678.52  105.97
   2   1 -23  534.67   86.81
  -2  -1 -23  487.21   96.07
   2  -1 -23  426.11   80.39
  -2   1  23  660.29  102.05
  -2   1 -23  428.00   86.91
   3   1 -23 1701.88  162.08
  -3  -1  23 1434.75  153.18
  -3  -1 -23 1850.62  179.26
   3  -1 -23 1801.27  166.36
  -3   1  23 1622.20  169.13
  -3   1 -23 1487.45  159.75
  -4   1 -23  269.20   79.84
  -4  -1  23  211.17   71.38
  -4  -1 -23  161.85   78.31
   4  -1 -23  180.01   68.38
  -4   1  23  295.36   84.49
   4   1 -23  186.54   73.83
   0  -2 -23 1453.09  131.55
   0  -2 -23 1344.49  147.67
   0   2 -23 1213.34  132.73
   1  -2 -23 2023.49  188.08
   1   2 -23 1839.32  164.28
  -1  -2 -23 1842.18  150.52
   1  -2 -23 1572.67  152.75
  -1  -2 -23 1647.58  173.96
  -1   2 -23 1790.55  164.12
  -2   2  23  512.54   99.24
  -2   2 -23  568.23   91.03
   2   2 -23  450.22   82.91
   2  -2 -23  485.75   86.61
  -2  -2 -23  371.57   91.55
  -3   2  23  345.53   91.60
   3   2 -23  319.28   75.31
   3  -2 -23  341.46   77.23
  -3  -2 -23  222.91   79.74
  -4   2  23  182.35   79.98
  -4  -2 -23  206.93   80.55
   4   2 -23  125.29   73.67
   4  -2 -23  251.42   81.12
   0  -3 -23  -36.44   39.60
   0   3 -23   -4.04   47.71
   0  -3 -23   34.26   38.86
  -1   3 -23  603.23   99.75
  -1  -3 -23  693.25  104.69
   1  -3 -23  472.04   82.38
   1  -3 -23  905.79  123.93
  -1  -3 -23  562.75   78.49
   1   3 -23  403.74   84.80
  -2   3  23  774.52  125.70
  -2   3 -23 1190.08  129.12
   2  -3 -23  942.46  114.31
  -2  -3 -23  541.87  116.15
   2   3 -23 1115.58  122.00
   3   3 -23  335.84   82.30
  -3   3  23  233.52   80.78
   3  -3 -23  282.06   76.54
  -3  -3 -23  262.67   85.79
   0  -4 -23 2218.06  208.93
   0  -4 -23 2165.76  178.61
   1  -4 -23  105.46   70.55
   1  -4 -23  155.71   55.12
  -1   4 -23   32.99   64.12
   1   4 -23  -25.87   50.78
  -1  -4 -23   13.77   46.50
  -2  -4 -23  377.37  101.59
   2   4 -23  686.95  105.32
   2  -4 -23  697.52  102.29
  -2   4  23  592.14  111.77
  -2   4 -23  687.15  104.55
  -3  -4 -23  266.18   95.32
   3   4 -23  439.20   91.43
  -3   4 -23  426.63   94.03
   3  -4 -23  431.84   88.64
  -3   4  23  394.09  104.31
   0  -5 -23  191.39   71.16
   0   5 -23  240.97   83.64
   0  -5 -23   69.66   46.40
   1   5 -23  429.73  101.01
   1  -5 -23  509.55  111.51
  -1   5 -23  904.03  124.60
   1  -5 -23  751.40   98.74
  -1  -5 -23  683.48  109.74
  -2   5  23  593.99  113.59
  -2  -5 -23  455.42  104.71
   2  -5 -23  658.53   99.42
   2   5 -23  574.80  104.15
  -2   5 -23  615.53  111.33
  -3   5  23  139.24   74.05
   3  -5 -23   98.39   66.67
  -3  -5 -23   57.74   75.41
   0  -6 -23  578.23  108.97
   0   6 -23  515.09  109.82
  -1  -6 -23  598.63  110.78
  -1   6 -23  724.93  119.15
   1   6 -23  651.37  118.09
   1  -6 -23  684.92  124.62
   1  -6 -23  793.20  103.61
  -2  -6 -23  278.59   87.55
  -2   6 -23  328.69   93.71
   2  -6 -23  279.57   79.56
   2   6 -23  292.28   93.30
  -2   6  23   95.86   79.14
   0   0 -24 2197.24  190.29
   0   0 -24 2528.92  204.45
   1   0 -24  380.47   78.06
   1   0 -24  240.83   65.32
  -1   0 -24  366.10   76.60
  -1   0 -24  393.82   68.47
   2   0 -24  368.38   78.06
  -2   0 -24  418.59   90.93
  -2   0  24  626.51   95.95
  -3   0 -24  581.19  104.41
   3   0 -24  599.38   99.99
  -3   0  24  574.69  101.00
  -4   0 -24  125.89   75.54
   4   0 -24  124.60   68.24
  -4   0  24  256.33   82.21
   0   1 -24   88.64   48.60
   0   1 -24  174.52   53.02
   0  -1 -24  289.18   61.26
   0  -1 -24  143.51   58.48
  -1  -1 -24 1008.67  131.56
  -1   1 -24 1276.13  130.75
   1   1 -24 1079.77  124.19
   1  -1 -24 1065.29  124.20
   1  -1 -24 1727.80  157.50
   1   1 -24 1353.27  130.29
  -1   1 -24 1093.98  123.76
  -1  -1 -24 1262.14  121.23
   2  -1 -24  678.98   99.19
  -2   1 -24  624.85   88.43
  -2   1 -24  489.17   96.86
   2   1 -24  752.62   99.59
  -2   1  24  828.34  115.32
  -2  -1 -24  537.67  103.67
  -3   1  24  110.00   67.16
   3  -1 -24   85.95   59.64
   3   1 -24  176.70   62.53
  -3   1 -24  126.13   64.10
  -3  -1 -24  201.65   76.70
  -3  -1  24  194.24   62.28
  -4   1  24  747.22  122.24
  -4   1 -24  548.77  108.64
   4  -1 -24  469.08  102.93
  -4  -1 -24  663.38  120.48
   4   1 -24  552.20  105.46
   0   2 -24  482.03   84.68
   0  -2 -24  465.20   89.90
   0  -2 -24  661.11   86.90
   1  -2 -24  852.42  120.28
  -1  -2 -24  405.45   74.45
   1   2 -24  768.31  103.13
  -1  -2 -24  651.95  103.90
  -1   2 -24  968.14  109.80
   1  -2 -24  842.95  102.44
   2  -2 -24  544.35   92.28
   2   2 -24  585.76   95.14
  -2   2 -24  514.28   89.37
  -2   2  24  565.26  103.30
  -2  -2 -24  372.71   93.99
   3   2 -24  486.91   92.16
   3  -2 -24  436.96   88.43
  -3   2  24  480.96  106.22
  -3  -2 -24  411.26  102.36
   0  -3 -24 1207.45  138.71
   0  -3 -24 1161.64  119.08
   0   3 -24  934.55  125.32
   1  -3 -24  667.32   95.63
  -1   3 -24  582.28  103.16
  -1  -3 -24  546.36   98.13
   1  -3 -24  782.47  122.30
   1   3 -24  724.79  103.61
  -2  -3 -24  241.33   80.46
   2  -3 -24  478.27   86.85
  -2   3 -24  365.48   86.85
  -2   3  24  236.28   79.05
   2   3 -24  299.88   76.67
   3  -3 -24  964.76  127.88
   3   3 -24 1015.33  125.93
  -3   3  24  687.82  131.24
  -3  -3 -24  661.61  128.39
   0   4 -24   53.78   62.51
   0  -4 -24   77.48   54.38
   0  -4 -24   25.89   39.54
   1  -4 -24 1387.61  140.71
  -1   4 -24 1423.36  153.45
   1   4 -24 1231.59  145.17
  -1  -4 -24 1308.17  152.50
   1  -4 -24 1275.12  164.42
  -2   4 -24  502.52   98.87
   2  -4 -24  508.55   92.33
  -2   4  24  359.45   99.53
  -2  -4 -24  413.22  100.03
   2   4 -24  338.40   85.85
  -3   4 -24   23.28   64.75
   3   4 -24   -2.21   59.30
  -3  -4 -24   33.54   73.54
   3  -4 -24   44.70   56.34
  -3   4  24   90.73   72.90
   0  -5 -24 1011.23  111.81
   0  -5 -24  922.24  132.32
   0   5 -24  771.49  124.26
   1  -5 -24  361.46   98.50
  -1   5 -24  276.87   86.00
  -1  -5 -24  265.38   78.16
   1  -5 -24  244.67   68.71
   1   5 -24  341.96   88.24
  -2  -5 -24  247.01   86.96
  -2   5 -24  369.22   98.27
  -2   5  24  211.76   82.81
   2   5 -24  385.38   89.24
   2  -5 -24  316.97   81.29
   0   6 -24  547.41  112.48
   0  -6 -24  630.26  115.48
  -1  -6 -24  341.62   88.14
   1  -6 -24  462.66  107.77
  -1   6 -24  348.13  104.24
   1   6 -24  530.04  108.41
   1  -6 -24  300.91   71.47
   0   0 -25   29.25   40.41
   0   0 -25   24.44   39.94
  -1   0 -25 1190.72  137.07
   1   0 -25 1298.81  132.92
  -1   0 -25 1253.84  128.00
   1   0 -25 1268.68  140.80
   2   0 -25  326.74   77.13
  -2   0  25  545.88   93.10
  -2   0 -25  276.72   82.29
   3   0 -25   13.04   48.67
  -3   0 -25    1.14   55.29
  -3   0  25   74.71   56.33
   0  -1 -25 1371.79  134.24
   0   1 -25 1285.65  134.63
   0   1 -25 1366.87  134.90
   0  -1 -25 1447.16  145.56
   1  -1 -25  324.83   72.39
  -1   1 -25  393.79   72.30
   1  -1 -25  463.33   91.60
  -1   1 -25  261.61   65.73
   1   1 -25  315.67   72.31
   1   1 -25  342.67   71.25
  -1  -1 -25  335.85   77.11
  -1  -1 -25  298.04   63.84
  -2  -1 -25  356.43   91.56
   2   1 -25  519.97   88.48
  -2   1 -25  189.71   73.88
  -2   1 -25  470.69   78.14
   2  -1 -25  344.46   77.55
  -2   1  25  517.38   99.29
   3  -1 -25  517.64  100.80
  -3   1  25  808.52  124.02
  -3  -1 -25  508.37  111.44
  -3   1 -25  767.45  118.52
   3   1 -25  720.27  109.55
   0  -2 -25 1079.37  128.37
   0  -2 -25  819.15  105.26
   0   2 -25 1077.82  121.93
   1   2 -25  715.41  104.75
  -1   2 -25  847.80  108.33
  -1  -2 -25  814.86  116.49
   1  -2 -25  794.19  105.93
   1  -2 -25  870.43  125.83
   2  -2 -25  462.17   88.82
   2   2 -25  390.34   82.45
  -2   2  25  470.95   98.98
  -2  -2 -25  384.59   95.06
  -2   2 -25  344.61   79.50
  -3  -2 -25  406.91  104.85
  -3   2  25  377.88  101.11
   3  -2 -25  360.08   85.84
   3   2 -25  545.97   95.34
   0   3 -25  137.88   65.68
   0  -3 -25  133.39   57.82
   0  -3 -25  -20.04   36.93
   1   3 -25  808.39  116.82
   1  -3 -25 1318.56  155.98
  -1   3 -25 1071.61  129.50
  -1  -3 -25  915.23  128.65
   1  -3 -25 1103.81  123.33
  -2   3  25  590.33  109.85
   2   3 -25  703.24  103.17
   2  -3 -25  573.66   95.52
  -2  -3 -25  481.16  106.25
  -2   3 -25  585.37  102.07
  -3   3  25  123.74   73.42
  -3  -3 -25   80.64   69.55
   3  -3 -25  207.10   76.13
   3   3 -25  126.70   67.66
   0  -4 -25  703.99   96.25
   0   4 -25  644.50  112.70
   0  -4 -25  943.86  126.45
   1  -4 -25  276.43   82.89
   1   4 -25  190.44   74.05
   1  -4 -25  271.36   72.97
  -1  -4 -25  273.36   77.20
  -1   4 -25  296.20   85.41
  -2   4 -25  298.79   85.53
   2  -4 -25  262.23   76.39
  -2  -4 -25  211.61   83.13
   2   4 -25  204.98   71.04
  -2   4  25  162.13   79.07
  -3   4  25  586.77  129.43
   0  -5 -25  521.86  101.18
   0   5 -25  242.13   82.84
   0  -5 -25  407.86   78.66
   1  -5 -25  729.68  102.23
   1   5 -25  628.94  110.99
  -1   5 -25  632.31  118.97
   1  -5 -25  572.81  119.42
  -1  -5 -25  789.98  116.57
  -2   5  25  294.19   94.18
   2  -5 -25  307.68   81.25
   2   5 -25  378.18   96.15
  -2  -5 -25  302.26   92.67
  -2   5 -25  471.24  102.93
   0   6 -25  505.43  119.29
   0  -6 -25  534.36  112.80
  -1  -6 -25  344.30   89.39
   1   6 -25  290.93   98.03
   1  -6 -25  157.07   62.73
  -1   6 -25  457.33  114.05
   1  -6 -25  269.63   91.62
   0   0 -26 1555.44  151.71
   0   0 -26 1467.08  147.17
  -1   0 -26  459.07   85.17
   1   0 -26  531.83   86.72
   1   0 -26  426.30   85.10
  -1   0 -26  410.90   77.28
  -2   0 -26   84.72   57.95
   2   0 -26  137.95   61.13
  -2   0  26  121.74   58.22
  -3   0 -26 1453.66  181.31
   3   0 -26 1870.23  172.72
  -3   0  26 1466.60  170.39
   0   1 -26  247.46   70.67
   0  -1 -26  227.04   63.27
   0  -1 -26  413.60   81.35
   0   1 -26  287.89   64.43
  -1   1 -26 1247.78  138.22
  -1   1 -26 1420.36  143.41
  -1  -1 -26 1412.72  136.59
   1  -1 -26 1519.87  150.48
   1  -1 -26 1508.41  159.67
   1   1 -26 1615.42  149.12
  -1  -1 -26 1302.51  151.89
   1   1 -26 1589.68  150.69
  -2   1 -26  278.88   72.17
  -2   1 -26  252.04   78.73
   2  -1 -26  375.34   82.52
   2   1 -26  375.08   80.99
  -2   1  26  546.62  101.46
  -2  -1 -26  251.00   83.14
   3   1 -26  107.34   65.23
  -3   1  26  135.20   68.07
   3  -1 -26  178.82   67.72
  -3   1 -26  194.08   76.86
  -3  -1 -26  156.52   79.18
   0  -2 -26  305.13   68.47
   0   2 -26  231.43   71.85
   0  -2 -26  254.80   70.84
   1  -2 -26  369.28   81.51
  -1   2 -26  450.99   85.61
   1  -2 -26  452.23   97.33
  -1  -2 -26  352.75   83.29
   1   2 -26  364.80   80.25
   2  -2 -26  567.02   98.63
  -2   2 -26  553.61   92.76
  -2  -2 -26  480.72  104.05
  -2   2  26  543.81  108.83
   2   2 -26  618.84  100.88
  -3   2  26  656.10  123.57
   3   2 -26  668.97  105.19
  -3  -2 -26  313.23  102.46
   3  -2 -26  630.62  106.74
   0  -3 -26 1721.78  172.56
   0  -3 -26 1800.11  154.12
   0   3 -26 1200.41  153.85
   1   3 -26  325.89   84.19
   1  -3 -26  597.06   92.19
   1  -3 -26  511.59  106.38
  -1   3 -26  314.96   86.56
  -1  -3 -26  375.13   85.43
  -2   3  26  704.56  118.59
   2  -3 -26  532.54   94.04
   2   3 -26  490.03   97.68
  -2   3 -26  417.85   96.05
  -2  -3 -26  673.41  120.98
  -3  -3 -26  207.33   89.64
  -3   3  26  255.82   98.16
   3   3 -26  283.15   86.27
   3  -3 -26  262.32   87.67
   0  -4 -26   95.86   53.17
   0   4 -26  -74.06   46.56
   0  -4 -26   33.71   41.96
   1   4 -26  388.98   91.75
  -1  -4 -26  500.00   96.49
   1  -4 -26  466.65  107.45
   1  -4 -26  369.40   86.38
  -1   4 -26  563.97  109.41
   2  -4 -26  691.81  114.36
  -2   4  26  801.43  129.56
  -2  -4 -26  573.39  118.82
   2   4 -26  761.95  113.61
  -2   4 -26  761.33  120.85
   0   5 -26  946.24  139.54
   1  -5 -26  209.85   71.28
   1  -5 -26  187.18   80.67
  -1  -5 -26  207.46   72.65
   1   5 -26  285.10   89.84
  -1   5 -26  113.18   82.21
   0   0 -27   30.97   42.26
   0   0 -27  -11.23   38.62
  -1   0 -27  134.77   52.41
  -1   0 -27  249.44   67.40
   1   0 -27   54.79   46.95
   1   0 -27  295.03   72.95
   2   0 -27 1514.32  150.78
  -2   0 -27  957.82  144.62
  -2   0  27 1450.47  156.90
   3   0 -27    5.18   53.70
  -3   0  27   67.05   58.65
  -3   0 -27  -48.80   58.85
   0  -1 -27 1941.54  173.17
   0   1 -27 1705.49  157.49
   0  -1 -27 1420.30  147.57
   0   1 -27 1538.11  155.13
  -1   1 -27  176.29   65.60
   1  -1 -27  373.28   86.45
  -1  -1 -27  260.64   72.68
  -1   1 -27  325.34   69.92
   1   1 -27  382.11   81.26
   1  -1 -27  325.44   75.73
  -1  -1 -27  329.76   68.05
  -2  -1 -27  604.79  112.78
   2   1 -27  602.99   95.53
  -2   1 -27  380.61   92.77
   2  -1 -27  602.35   97.36
  -2   1 -27  468.51   87.52
  -2   1  27  632.76  107.62
   3   1 -27  227.01   75.60
  -3  -1 -27  201.86   88.22
  -3   1 -27  165.40   79.39
   3  -1 -27  243.27   77.55
  -3   1  27   54.95   63.16
   0  -2 -27  269.87   75.03
   0  -2 -27  172.70   58.70
   0   2 -27  258.73   71.39
  -1  -2 -27  380.38   80.75
   1   2 -27  201.12   67.49
   1  -2 -27  134.28   58.83
   1  -2 -27  296.79   85.90
  -1   2 -27  223.11   71.31
   2  -2 -27  607.55  100.27
  -2   2 -27  345.32   83.53
  -2  -2 -27  431.46  102.99
   2   2 -27  562.70   96.19
  -2   2  27  386.41   95.79
   3   2 -27  539.66  105.53
   3  -2 -27  611.35  107.40
  -3   2  27  576.00  120.81
  -3  -2 -27  323.70  107.69
   0  -3 -27   74.31   57.23
   0  -3 -27  203.97   65.65
   0   3 -27  294.00   81.74
   1   3 -27 1231.16  141.97
  -1  -3 -27 1133.36  146.20
   1  -3 -27 1328.55  145.88
  -1   3 -27 1349.88  150.95
   1  -3 -27 1453.37  171.64
   2   3 -27  148.71   70.06
  -2  -3 -27  221.59   84.16
  -2   3  27  324.06   92.60
   2  -3 -27  200.83   67.38
  -2   3 -27  169.56   76.58
   0  -4 -27  255.28   81.41
   0  -4 -27  187.50   63.36
   0   4 -27  213.15   75.94
   1   4 -27  331.52   89.03
  -1  -4 -27  170.71   72.14
   1  -4 -27  229.71   75.95
   1  -4 -27  276.35   92.74
  -1   4 -27  334.74   93.14
  -2  -4 -27    2.41   63.41
  -2   4 -27  -39.27   64.18
  -2   4  27   24.50   62.80
   2   4 -27   11.95   64.22
   2  -4 -27   48.13   62.42
   0   5 -27  453.26  112.42
   0  -5 -27  351.20   96.67
  -1  -5 -27  559.47  109.24
   1   5 -27  722.94  120.09
   1  -5 -27  910.34  141.66
  -1   5 -27  834.74  136.62
   1  -5 -27  747.01  112.75
   0   0 -28  421.46   82.23
   0   0 -28  413.70   80.79
   1   0 -28  363.55   79.79
  -1   0 -28  269.61   72.74
   1   0 -28  354.95   82.40
  -1   0 -28  411.83   78.22
   2   0 -28    8.65   50.92
  -2   0 -28   20.75   55.71
  -2   0  28   21.83   47.87
  -3   0 -28 1118.39  164.92
  -3   0  28 1284.08  159.45
   0   1 -28  594.84   94.42
   0  -1 -28  553.12   96.96
   0  -1 -28  624.33   94.26
  -1   1 -28 1406.79  148.02
   1   1 -28 1582.62  156.28
   1  -1 -28 1380.54  152.95
   1  -1 -28 1671.85  169.12
  -1  -1 -28 1478.94  141.95
  -1  -1 -28 1388.34  156.39
  -2   1  28  184.59   73.33
   2   1 -28  328.09   80.53
   2  -1 -28  183.37   71.96
  -2  -1 -28  232.87   79.93
   0  -2 -28   45.43   49.07
   0  -2 -28   29.87   41.32
   0   2 -28  -16.43   53.09
   1  -2 -28  113.50   66.90
   1   2 -28  255.93   74.53
   1  -2 -28  396.99   83.35
  -1  -2 -28  249.90   73.30
  -1   2 -28  212.39   73.70
   2  -2 -28  391.70   92.05
  -2   2  28  733.14  122.52
  -2   2 -28  663.74  104.08
  -2  -2 -28  476.21  105.33
   2   2 -28  330.70   86.36
   0   3 -28 1634.09  171.02
   0  -3 -28 1562.84  158.36
   0  -3 -28 1814.30  181.45
  -1  -3 -28  162.31   66.35
   1  -3 -28  188.33   63.87
   1  -3 -28  254.81   83.10
  -1   3 -28  107.22   65.81
   1   3 -28  147.13   68.24
   2   3 -28  528.03  103.59
   2  -3 -28  530.91  101.16
  -2   3  28  428.92  107.93
  -2  -3 -28  421.58  104.78
  -2   3 -28  535.89  104.87
   0  -4 -28  -10.15   45.64
   0   4 -28   -5.59   56.10
   0  -4 -28   33.87   47.20
   1  -4 -28  109.39   57.59
   1  -4 -28  127.03   78.85
   1   4 -28  150.24   75.82
  -1  -4 -28  115.76   65.90
  -1   4 -28   29.12   69.48
   0   0 -29   44.57   49.60
   0   0 -29    3.59   40.77
  -1   0 -29  -22.13   41.51
   1   0 -29  -17.12   42.97
   1   0 -29   -0.59   41.70
  -1   0 -29   42.56   42.51
  -2   0 -29 1086.77  150.52
  -2   0  29 1573.36  164.98
   2   0 -29 1174.93  143.64
   0  -1 -29 1732.25  165.43
   0  -1 -29 1932.31  183.21
   0   1 -29 1861.26  175.02
   1  -1 -29  372.05   90.64
  -1  -1 -29  348.50   80.72
  -1  -1 -29  321.94   73.09
   1  -1 -29  442.72   85.56
  -1   1 -29  282.93   76.75
   1   1 -29  365.75   80.02
   2   1 -29  567.13  102.90
  -2  -1 -29  389.95   98.46
   2  -1 -29  502.17   97.74
  -2   1  29  866.46  122.94
   0   2 -29  -48.57   41.56
   0  -2 -29   23.87   43.75
   0  -2 -29   11.61   48.75
   1  -2 -29  210.06   76.21
  -1   2 -29   97.66   64.91
  -1  -2 -29   39.52   49.05
   1  -2 -29  264.10   74.81
   1   2 -29  237.54   74.55
  -2  -2 -29  449.13  102.68
   2  -2 -29  259.01   82.56
  -2   2 -29  382.16   90.08
   2   2 -29  465.32   97.39
   0  -3 -29  194.58   74.36
   0   3 -29  191.35   77.09
   0  -3 -29  136.37   60.57
   1   3 -29 1220.89  144.92
  -1  -3 -29 1203.88  146.60
   1  -3 -29 1307.99  164.56
   1  -3 -29 1273.48  144.12
  -1   3 -29  929.37  135.85
   0  -4 -29   15.14   45.85
   0  -4 -29   34.43   57.76
   0   4 -29  -32.23   57.46
   0   0 -30    4.76   45.52
   0   0 -30   10.71   46.34
  -1   0 -30  584.80   93.12
   1   0 -30  447.36   91.40
   1   0 -30  564.34   96.09
  -1   0 -30  312.69   77.31
   2   0 -30   -8.11   51.21
  -2   0 -30   22.86   60.60
  -2   0  30   62.98   55.39
   0  -1 -30  260.10   77.62
   0  -1 -30  219.30   68.56
   0   1 -30  178.03   68.91
  -1  -1 -30 1071.81  126.67
  -1   1 -30 1372.76  141.64
  -1  -1 -30 1042.29  136.31
   1  -1 -30 1228.91  149.37
  -2   1  30  152.85   66.34
  -2  -1 -30  -54.07   50.89
   2  -1 -30  147.51   77.86
   2   1 -30   40.66   63.72
   0  -2 -30   31.68   52.21
   0   2 -30  106.84   66.58
   0  -2 -30  107.77   54.64
  -1   2 -30  110.23   67.07
  -1  -2 -30  150.40   65.83
   1  -2 -30  129.39   67.05
   1  -2 -30  131.10   67.49
   1   2 -30  207.69   74.75
   0  -3 -30 1491.32  152.60
   0  -3 -30 1364.52  166.84
   1  -3 -30  111.70   67.89
  -1  -3 -30  121.43   65.53
   0   0 -31  -35.83   39.05
   0   0 -31  -16.72   44.20
   1   0 -31   95.32   62.04
  -1   0 -31  104.10   57.82
  -1   0 -31  146.05   61.94
   1   0 -31  116.02   60.41
   0   1 -31 1105.95  135.54
   0  -1 -31 1123.94  133.01
   0  -1 -31 1158.31  141.24
   1  -1 -31  353.82   89.15
   1  -1 -31  252.29   81.30
   1   1 -31  322.12   82.26
  -1  -1 -31  181.54   68.27
  -1   1 -31  279.60   78.17
   0   2 -31   39.84   64.80
   0  -2 -31   78.44   55.39
   0  -2 -31   57.99   60.94
   0   0   0    0.00    0.00
;
_shelx_res_checksum              69068
_shelx_res_file
;
TITL TBC166 in P2(1)2(1)2(1)
CELL 0.71073   4.7900   7.7306  24.5625  90.000  90.000  90.000
ZERR    4.00   0.0008   0.0012   0.0039   0.000   0.000   0.000
LATT -1
SYMM 0.5-X, -Y, 0.5+Z
SYMM -X, 0.5+Y, 0.5-Z
SYMM 0.5+X, 0.5-Y, -Z
SFAC C  H  O  Pb
UNIT 36  16  24  4
OMIT  0 0 2
OMIT 0 3 5
OMIT 0 1 4
L.S. 10
ACTA
BOND $H
FMAP 2
PLAN 20
HTAB O6 O1_$1
EQIV $1 x-1, y+1, z
HTAB C4 O6_$2
EQIV $2 1/2+x,3/2-y,1-z
HTAB C5 O6_$2
SIZE 0.08 0.07 0.07
TEMP 23.000
WGHT    0.000200
FVAR       0.42312
PB1   4    0.573045    0.315441    0.224565    11.00000    0.01956    0.01638 =
         0.01564   -0.00035    0.00175    0.00080
C1    1    0.347803    0.290753    0.385008    11.00000    0.01701    0.01471 =
         0.01383   -0.00281    0.00090   -0.00076
C2    1    0.193175    0.430498    0.365664    11.00000    0.01331    0.02698 =
         0.01787    0.00804    0.00438   -0.00136
C3    1    0.148420    0.575971    0.400079    11.00000    0.02472    0.01820 =
         0.01562    0.00127   -0.00044    0.00514
C4    1    0.268768    0.580842    0.451201    11.00000    0.03268    0.02223 =
         0.01245   -0.00530   -0.00266    0.00455
AFIX  43
H4    2    0.238635    0.675986    0.473614    11.00000   -1.20000
AFIX   0
C5    1    0.434674    0.444805    0.469511    11.00000    0.03625    0.03121 =
         0.01956   -0.00164   -0.01420    0.01231
AFIX  43
H5    2    0.523215    0.451691    0.503137    11.00000   -1.20000
AFIX   0
C6    1    0.466667    0.299820    0.437402    11.00000    0.02893    0.02518 =
         0.02312    0.00938   -0.00470    0.00608
AFIX  43
H6    2    0.568536    0.206341    0.450568    11.00000   -1.20000
AFIX   0
C7    1    0.386497    0.127480    0.353022    11.00000    0.02176    0.02088 =
         0.02989    0.00325    0.00135    0.00086
C8    1    0.063318    0.427955    0.308903    11.00000    0.02287    0.00463 =
         0.01837    0.00104    0.00086    0.00247
C9    1   -0.029613    0.719878    0.381331    11.00000    0.02290    0.01185 =
         0.01879   -0.00165    0.00432    0.00411
O1    3    0.457866   -0.005919    0.378774    11.00000    0.04462    0.02215 =
         0.03465   -0.00123   -0.00688    0.01145
O2    3    0.334309    0.126765    0.302390    11.00000    0.02848    0.01781 =
         0.02145   -0.00291   -0.00237   -0.00200
O3    3    0.207948    0.480939    0.269318    11.00000    0.02058    0.02032 =
         0.01528    0.00125    0.00932    0.00355
O4    3   -0.182504    0.375892    0.306697    11.00000    0.02268    0.04183 =
         0.01714   -0.00286   -0.00253   -0.00555
O5    3   -0.072458    0.754348    0.333780    11.00000    0.03031    0.03661 =
         0.01095    0.00372   -0.00283    0.01563
O6    3   -0.149965    0.806704    0.421273    11.00000    0.04141    0.02328 =
         0.02289   -0.00067    0.00091    0.01778
AFIX 147
H6A   2   -0.251455    0.881796    0.408458    11.00000   -1.50000
AFIX   0
HKLF 4
REM  TBC166 in P2(1)2(1)2(1)
REM R1 =  0.0296 for    1920 Fo > 4sig(Fo)  and  0.0354 for all    2091 data
REM    146 parameters refined using      0 restraints
END
WGHT      0.0000      0.0000
REM Highest difference peak  0.921,  deepest hole -1.889,  1-sigma level  0.211
Q1    1   0.5582  0.3114  0.3653  11.00000  0.05    0.92
Q2    1  -0.0639  0.3220  0.2852  11.00000  0.05    0.88
Q3    1   0.5983  0.4447  0.2230  11.00000  0.05    0.87
Q4    1  -0.0810  0.4549  0.3074  11.00000  0.05    0.80
Q5    1   0.5694  0.0520  0.3617  11.00000  0.05    0.73
Q6    1   0.3976  0.3964  0.3672  11.00000  0.05    0.72
Q7    1   0.5702 -0.0722  0.3487  11.00000  0.05    0.72
Q8    1   0.1755  0.7220  0.3754  11.00000  0.05    0.72
Q9    1  -0.4200  0.4598  0.3482  11.00000  0.05    0.71
Q10   1   0.8376  0.3663  0.2217  11.00000  0.05    0.70
Q11   1   0.2051  0.1770  0.3778  11.00000  0.05    0.69
Q12   1  -0.4191  0.9282  0.4259  11.00000  0.05    0.68
Q13   1   0.4134  0.2238  0.3633  11.00000  0.05    0.66
Q14   1   0.5739  0.3993  0.2693  11.00000  0.05    0.66
Q15   1   0.0885  0.1879  0.2855  11.00000  0.05    0.65
Q16   1   0.2431  0.7123  0.3398  11.00000  0.05    0.65
Q17   1   0.3818 -0.1209  0.3375  11.00000  0.05    0.65
Q18   1   0.3030  0.3178  0.4343  11.00000  0.05    0.64
Q19   1   0.7631  0.2002  0.2141  11.00000  0.05    0.64
Q20   1   0.7926  0.3335  0.1812  11.00000  0.05    0.63
;
_shelxl_version_number           .2013
#END Tags that were not found in dictionaries
loop_
_space_group_symop_operation_xyz
'x, y, z'
'-x+1/2, -y, z+1/2'
'-x, y+1/2, -z+1/2'
'x+1/2, -y+1/2, -z'
loop_
_atom_site_type_symbol
_atom_site_label
_atom_site_fract_x
_atom_site_fract_y
_atom_site_fract_z
_atom_site_U_iso_or_equiv
_atom_site_adp_type
_atom_site_calc_flag
_atom_site_occupancy
Pb Pb1 0.57304(7) 0.31544(5) 0.22456(2) 0.01720(11) Uani d 1
C C1 0.3478(18) 0.2908(14) 0.3850(4) 0.015(2) Uani d 1
C C2 0.193(2) 0.4305(15) 0.3657(4) 0.019(2) Uani d 1
C C3 0.148(2) 0.5760(15) 0.4001(4) 0.020(2) Uani d 1
C C4 0.269(2) 0.5808(15) 0.4512(4) 0.022(2) Uani d 1
H H4 0.2386 0.6760 0.4736 0.027 Uiso calc 1
C C5 0.435(3) 0.4448(15) 0.4695(4) 0.029(3) Uani d 1
H H5 0.5232 0.4517 0.5031 0.035 Uiso calc 1
C C6 0.467(2) 0.2998(16) 0.4374(4) 0.026(2) Uani d 1
H H6 0.5685 0.2063 0.4506 0.031 Uiso calc 1
C C7 0.386(2) 0.1275(14) 0.3530(5) 0.024(3) Uani d 1
C C8 0.063(2) 0.4280(12) 0.3089(4) 0.015(2) Uani d 1
C C9 -0.030(2) 0.7199(12) 0.3813(4) 0.018(2) Uani d 1
O O1 0.4579(19) -0.0059(10) 0.3788(3) 0.034(2) Uani d 1
O O2 0.3343(15) 0.1268(9) 0.3024(3) 0.0226(18) Uani d 1
O O3 0.2079(13) 0.4809(8) 0.2693(3) 0.0187(15) Uani d 1
O O4 -0.1825(15) 0.3759(11) 0.3067(3) 0.027(2) Uani d 1
O O5 -0.0725(17) 0.7543(9) 0.3338(3) 0.0260(17) Uani d 1
O O6 -0.1500(15) 0.8067(11) 0.4213(3) 0.0292(18) Uani d 1
H H6A -0.2515 0.8818 0.4085 0.044 Uiso calc 1
loop_
_atom_site_aniso_label
_atom_site_aniso_U_11
_atom_site_aniso_U_22
_atom_site_aniso_U_33
_atom_site_aniso_U_12
_atom_site_aniso_U_13
_atom_site_aniso_U_23
Pb1 0.01956(16) 0.01638(18) 0.01564(18) 0.00080(18) 0.00175(18) -0.00035(18)
C1 0.017(5) 0.015(6) 0.014(5) -0.001(4) 0.001(4) -0.003(4)
C2 0.013(4) 0.027(6) 0.018(6) -0.001(5) 0.004(4) 0.008(5)
C3 0.025(6) 0.018(6) 0.016(6) 0.005(4) 0.000(4) 0.001(5)
C4 0.033(6) 0.022(6) 0.012(6) 0.005(5) -0.003(5) -0.005(5)
C5 0.036(6) 0.031(6) 0.020(6) 0.012(6) -0.014(6) -0.002(5)
C6 0.029(5) 0.025(6) 0.023(6) 0.006(5) -0.005(5) 0.009(5)
C7 0.022(6) 0.021(6) 0.030(7) 0.001(4) 0.001(5) 0.003(5)
C8 0.023(5) 0.005(4) 0.018(5) 0.002(5) 0.001(5) 0.001(4)
C9 0.023(5) 0.012(5) 0.019(5) 0.004(4) 0.004(4) -0.002(4)
O1 0.045(5) 0.022(4) 0.035(5) 0.011(4) -0.007(4) -0.001(4)
O2 0.028(4) 0.018(4) 0.021(4) -0.002(3) -0.002(3) -0.003(3)
O3 0.021(3) 0.020(4) 0.015(4) 0.004(3) 0.009(3) 0.001(3)
O4 0.023(4) 0.042(5) 0.017(4) -0.006(3) -0.003(3) -0.003(4)
O5 0.030(4) 0.037(4) 0.011(4) 0.016(4) -0.003(4) 0.004(3)
O6 0.041(5) 0.023(4) 0.023(4) 0.018(4) 0.001(3) -0.001(4)
loop_
_atom_type_symbol
_atom_type_description
_atom_type_scat_dispersion_real
_atom_type_scat_dispersion_imag
_atom_type_scat_source
C C 0.0033 0.0016 'International Tables Vol C Tables 4.2.6.8 and 6.1.1.4'
H H 0.0000 0.0000 'International Tables Vol C Tables 4.2.6.8 and 6.1.1.4'
O O 0.0106 0.0060 'International Tables Vol C Tables 4.2.6.8 and 6.1.1.4'
Pb Pb -3.3944 10.1111 'International Tables Vol C Tables 4.2.6.8 and 6.1.1.4'
loop_
_geom_angle_atom_site_label_1
_geom_angle_atom_site_label_2
_geom_angle_atom_site_label_3
_geom_angle_site_symmetry_1
_geom_angle_site_symmetry_3
_geom_angle
O4 Pb1 O3 1_655 . 82.4(3)
O4 Pb1 O2 1_655 3_655 87.1(3)
O3 Pb1 O2 . 3_655 75.2(2)
O4 Pb1 O2 1_655 . 73.2(2)
O3 Pb1 O2 . . 69.8(2)
O2 Pb1 O2 3_655 . 141.5(2)
C2 C1 C6 . . 119.2(10)
C2 C1 C7 . . 122.7(9)
C6 C1 C7 . . 118.1(10)
C1 C2 C3 . . 119.4(9)
C1 C2 C8 . . 121.2(10)
C3 C2 C8 . . 119.4(9)
C4 C3 C2 . . 119.9(10)
C4 C3 C9 . . 120.3(10)
C2 C3 C9 . . 119.8(9)
C3 C4 C5 . . 120.7(11)
C3 C4 H4 . . 119.6
C5 C4 H4 . . 119.6
C6 C5 C4 . . 119.5(10)
C6 C5 H5 . . 120.2
C4 C5 H5 . . 120.2
C5 C6 C1 . . 121.2(10)
C5 C6 H6 . . 119.4
C1 C6 H6 . . 119.4
O1 C7 O2 . . 122.9(11)
O1 C7 C1 . . 117.4(11)
O2 C7 C1 . . 119.6(10)
O4 C8 O3 . . 126.2(10)
O4 C8 C2 . . 115.4(9)
O3 C8 C2 . . 118.4(10)
O5 C9 O6 . . 121.9(9)
O5 C9 C3 . . 124.3(9)
O6 C9 C3 . . 113.8(9)
C7 O2 Pb1 . 3_645 103.0(7)
C7 O2 Pb1 . . 128.1(7)
Pb1 O2 Pb1 3_645 . 104.9(3)
C8 O3 Pb1 . . 124.9(6)
C8 O4 Pb1 . 1_455 124.4(7)
C9 O6 H6A . . 109.5
loop_
_geom_bond_atom_site_label_1
_geom_bond_atom_site_label_2
_geom_bond_site_symmetry_2
_geom_bond_distance
_geom_bond_publ_flag
Pb1 O4 1_655 2.379(7) y
Pb1 O3 . 2.430(6) y
Pb1 O2 3_655 2.535(7) y
Pb1 O2 . 2.663(8) y
Pb1 O5 3_545 2.833(8) y
Pb1 O3 3_645 2.795(6) y
Pb1 O5 3_645 2.829(8) y
C1 C2 . 1.393(14) ?
C1 C6 . 1.409(14) ?
C1 C7 . 1.498(15) ?
C2 C3 . 1.423(15) ?
C2 C8 . 1.527(15) ?
C3 C4 . 1.382(13) ?
C3 C9 . 1.475(14) ?
C4 C5 . 1.393(15) ?
C4 H4 . 0.9300 ?
C5 C6 . 1.379(15) ?
C5 H5 . 0.9300 ?
C6 H6 . 0.9300 ?
C7 O1 . 1.257(13) ?
C7 O2 . 1.269(13) ?
C8 O4 . 1.246(12) ?
C8 O3 . 1.262(12) ?
C9 O5 . 1.215(12) ?
C9 O6 . 1.321(12) ?
O2 Pb1 3_645 2.535(7) ?
O4 Pb1 1_455 2.379(7) ?
O6 H6A . 0.8200 ?
loop_
_geom_hbond_atom_site_label_D
_geom_hbond_atom_site_label_H
_geom_hbond_atom_site_label_A
_geom_hbond_site_symmetry_A
_geom_hbond_distance_DH
_geom_hbond_distance_HA
_geom_hbond_distance_DA
_geom_hbond_angle_DHA
O6 H6A O1 1_465 0.82 1.80 2.592(11) 163
