#------------------------------------------------------------------------------
#$Date: 2016-02-14 06:40:26 +0200 (Sun, 14 Feb 2016) $
#$Revision: 176432 $
#$URL: svn://www.crystallography.net/cod/cif/2/01/95/2019557.cif $
#------------------------------------------------------------------------------
#
# This file is available in the Crystallography Open Database (COD),
# http://www.crystallography.net/. The original data for this entry
# were provided by IUCr Journals, http://journals.iucr.org/.
#
# The file may be used within the scientific community so long as
# proper attribution is given to the journal article from which the
# data were obtained.
#
data_2019557
loop_
_publ_author_name
'Orben, Claudia M.'
'Dittrich, Birger'
_publ_section_title
;
 Hydrogen ADPs with Cu <i>K</i>\a data? Invariom and Hirshfeld atom
 modelling of fluconazole
;
_journal_coeditor_code           GZ3261
_journal_issue                   6
_journal_name_full               'Acta Crystallographica Section C'
_journal_page_first              580
_journal_page_last               583
_journal_paper_doi               10.1107/S2053229614010195
_journal_volume                  70
_journal_year                    2014
_chemical_formula_iupac          'C13 H12 F2 N6 O, H2 O'
_chemical_formula_moiety         'C13 H12 F2 N6 O, H2 O'
_chemical_formula_sum            'C13 H14 F2 N6 O2'
_chemical_formula_weight         324.29
_chemical_name_common            fluconazole
_chemical_name_systematic
;
2-(2,4-Difluorophenyl)-1,3-bis(1<i>H</i>-1,2,4-triazol-1-yl)propan-2-ol
monohydrate
;
_space_group_IT_number           2
_symmetry_cell_setting           triclinic
_symmetry_space_group_name_Hall  '-P 1'
_symmetry_space_group_name_H-M   'P -1'
_audit_creation_method           'TONTO v3.2 ($Rev: 176432 $)'
_cell_angle_alpha                70.990(2)
_cell_angle_beta                 78.911(2)
_cell_angle_gamma                84.627(2)
_cell_formula_units_Z            2
_cell_length_a                   5.5708(3)
_cell_length_b                   11.6873(6)
_cell_length_c                   12.1490(7)
_cell_measurement_reflns_used    9877
_cell_measurement_temperature    100(2)
_cell_measurement_theta_max      74.1062
_cell_measurement_theta_min      3.9067
_cell_volume                     733.48(7)
_computing_cell_refinement       'SAINT (Bruker, 2013)'
_computing_data_collection       'APEX2 (Bruker, 2008)'
_computing_data_reduction        'SAINT (Bruker, 2013)'
_computing_molecular_graphics
'PLATON (Spek, 2009) and <i>ORTEPIII</i> (Burnett & Johnson, 1996)'
_computing_publication_material  'publCIF (Westrip, 2010)'
_computing_structure_refinement  'TONTO (Jayatilaka & Grimwood, 2003)'
_computing_structure_solution    'SHELXS97 (Sheldrick, 2008)'
_diffrn_ambient_temperature      100(2)
_diffrn_measured_fraction_theta_full 0.978
_diffrn_measured_fraction_theta_max 0.954
_diffrn_measurement_device_type  'Bruker SMART 6000'
_diffrn_measurement_method       '\w and \f scans'
_diffrn_radiation_monochromator  'INCOATEC optics'
_diffrn_radiation_source         'rotating anode'
_diffrn_radiation_type           CuK\a
_diffrn_radiation_wavelength     1.54178
_diffrn_reflns_av_R_equivalents  0.0304
_diffrn_reflns_limit_h_max       6
_diffrn_reflns_limit_h_min       -6
_diffrn_reflns_limit_k_max       13
_diffrn_reflns_limit_k_min       -13
_diffrn_reflns_limit_l_max       13
_diffrn_reflns_limit_l_min       -14
_diffrn_reflns_number            15433
_diffrn_reflns_theta_full        67.679
_diffrn_reflns_theta_max         74.094
_diffrn_reflns_theta_min         3.906
_exptl_absorpt_coefficient_mu    1.042
_exptl_absorpt_correction_T_max  0.7538
_exptl_absorpt_correction_T_min  0.6819
_exptl_absorpt_correction_type   empirical
_exptl_absorpt_process_details   '(<i>SADABS</i>; Sheldrick, 2012)'
_exptl_crystal_colour            colourless
_exptl_crystal_density_diffrn    1.470
_exptl_crystal_description       block
_exptl_crystal_F_000             336
_exptl_crystal_size_max          0.18
_exptl_crystal_size_mid          0.10
_exptl_crystal_size_min          0.08
_refine_ls_extinction_method     none
_refine_ls_goodness_of_fit_ref   2.6353
_refine_ls_hydrogen_treatment    refall
_refine_ls_matrix_type           full
_refine_ls_number_constraints    0
_refine_ls_number_parameters     334
_refine_ls_number_reflns         2824
_refine_ls_number_restraints     0
_refine_ls_R_factor_all          0.0194
_refine_ls_R_factor_gt           0.0194
_refine_ls_shift/su_max          0.0039
_refine_ls_structure_factor_coef F
_refine_ls_weighting_details     w=1/\s(F)
_refine_ls_weighting_scheme      calc
_refine_ls_wR_factor_ref         0.0242
_reflns_number_gt                2824
_reflns_number_total             2824
_reflns_threshold_expression     'I > 0\s(I)'
_cod_data_source_file            gz3261sup1.cif
_cod_data_source_block           Hirshfeld-HADP
_cod_depositor_comments
'Adding full bibliography for 2019555--2019559.cif.'
_cod_original_cell_volume        733.47(7)
_cod_original_sg_symbol_Hall     '-p 1'
_cod_database_code               2019557
_cod_database_fobs_code          2019557
#BEGIN Tags that were not found in dictionaries:
_shelx_hkl_checksum              27139
_shelx_hkl_file
;
   1   0   0 1674.57 23.8921
   2   0   0 2199.57 38.9125
   3   0   0 280.336 5.08876
   4   0   0 476.089 6.96400
   5   0   0 76.9868 1.58685
   6   0   0 37.6443 0.96964
  -6   1   0 3.84335 0.33341
  -5   1   0 12.7261 0.54413
  -4   1   0 5.40085 0.32920
  -3   1   0 1083.23 18.1780
  -2   1   0 471.875 7.66298
  -1   1   0 949.039 15.0689
   0   1   0 569.908 7.20383
   1   1   0 1111.13 17.9986
   2   1   0 535.492 8.93233
   3   1   0 423.571 8.45740
   4   1   0 17.2905 0.57941
   5   1   0 17.6924 0.69005
   6   1   0 0.29711 0.22455
  -6   2   0 190.639 4.28739
  -5   2   0 1.85043 0.28729
  -4   2   0 69.6773 1.22300
  -3   2   0 1522.81 25.7084
  -2   2   0 220.296 3.37161
  -1   2   0 3325.85 51.7500
   0   2   0 495.054 8.14036
   1   2   0 4520.55 63.4427
   2   2   0 2044.76 36.1345
   3   2   0 663.536 11.6647
   4   2   0 130.388 2.06346
   5   2   0 143.300 2.63491
   6   2   0 201.252 4.14195
  -6   3   0 3.83715 0.40258
  -5   3   0 9.26057 0.60991
  -3   3   0 131.927 2.32020
  -2   3   0 36.9791 0.83913
  -1   3   0 27.8435 0.64264
   0   3   0 10.2049 0.45154
   1   3   0 8365.84 133.294
   2   3   0 3.00813 0.28255
   3   3   0 213.542 4.50707
   4   3   0 186.089 2.82161
   5   3   0 118.169 1.94295
   6   3   0 2.55225 0.27182
  -6   4   0 7.09159 0.46901
  -5   4   0 1.78810 0.24702
  -4   4   0 167.619 2.90467
  -3   4   0 29.4880 0.79902
  -2   4   0 1527.87 28.7168
  -1   4   0 4.44183 0.59332
   0   4   0 81.2766 1.36821
   1   4   0 4404.69 73.2429
   2   4   0 89.2328 1.62549
   3   4   0 358.748 6.42509
   4   4   0 53.6372 0.98107
   5   4   0 15.5085 0.50666
   6   4   0 595.643 16.7018
  -6   5   0 4.03779 0.43680
  -5   5   0 65.2517 1.55930
  -4   5   0 74.3240 1.44079
  -3   5   0 11.2605 0.51110
  -2   5   0 138.832 1.92171
  -1   5   0 503.292 7.09527
   0   5   0 1805.19 29.6397
   1   5   0 483.588 7.74562
   2   5   0 702.953 13.0334
   3   5   0 514.330 10.8901
   4   5   0 43.5859 1.15939
   5   5   0 86.4739 1.75231
  -6   6   0 29.2075 1.13790
  -5   6   0 275.413 4.88418
  -4   6   0 104.011 2.05743
  -3   6   0 1.04069 0.19529
  -2   6   0 121.614 1.91807
  -1   6   0 1951.03 26.6061
   0   6   0 238.974 3.74934
   1   6   0 21.9491 0.79162
   2   6   0 62.6681 1.93071
   3   6   0 69.7825 1.11126
   4   6   0 18.8056 0.72327
   5   6   0 136.792 2.83264
   6   6   0 5.83593 0.32993
  -5   7   0 311.593 5.46387
  -4   7   0 11.7506 0.49761
  -3   7   0 1167.90 17.4822
  -2   7   0 33.9971 0.63215
  -1   7   0 1100.82 14.7507
   0   7   0 547.030 7.50833
   1   7   0 314.536 5.20286
   2   7   0 385.483 7.34630
   3   7   0 100.155 1.77317
   4   7   0 533.772 10.8976
   5   7   0 36.4690 0.89514
  -5   8   0 16.4963 0.54212
  -4   8   0 279.821 4.99108
  -3   8   0 104.011 1.78884
  -2   8   0 95.9597 1.39463
  -1   8   0 35.0921 0.55904
   0   8   0 11.1335 0.42410
   1   8   0 72.6070 1.19165
   2   8   0 0.06030 0.13766
   3   8   0 59.5136 1.13249
   4   8   0 146.358 3.54983
   5   8   0 165.783 3.90589
  -4   9   0 45.9070 1.14250
  -3   9   0 133.219 2.42352
  -2   9   0 12.2565 0.36951
  -1   9   0 55.3743 0.97700
   0   9   0 1328.13 18.8570
   1   9   0 3.98752 0.22928
   2   9   0 1.97484 0.17909
   3   9   0 37.9138 0.79399
   4   9   0 94.2465 2.34805
   5   9   0 45.9497 1.16853
  -4  10   0 36.1312 1.00123
  -3  10   0 83.2459 1.57317
  -2  10   0 21.2957 0.48247
  -1  10   0 68.2145 1.06675
   0  10   0 183.631 2.75666
   1  10   0 6.77880 0.28343
   2  10   0 0.22928 0.14766
   3  10   0 39.2145 0.79657
   4  10   0 6.13484 0.39225
  -3  11   0 10.1811 0.50056
  -2  11   0 516.397 7.27764
  -1  11   0 86.4765 1.38515
   0  11   0 23.4566 0.52930
   1  11   0 12.0973 0.41984
   2  11   0 227.367 3.65843
   3  11   0 20.2151 0.50766
   4  11   0 11.1675 0.39739
  -3  12   0 27.5333 1.08240
  -2  12   0 73.8787 1.48775
  -1  12   0 29.8363 0.60656
   0  12   0 270.683 3.92783
   1  12   0 39.9299 0.78627
   2  12   0 7.73114 0.29840
   3  12   0 5.50123 0.26730
  -1  13   0 0.27861 0.10575
   0  13   0 0.24062 0.11702
   1  13   0 39.1580 0.93267
   2  13   0 20.2804 0.70579
  -1 -13   1 1.81447 0.16162
   0 -13   1 13.1174 0.40021
   1 -13   1 13.1869 0.37003
  -2 -12   1 78.2970 1.72812
  -1 -12   1 68.7066 1.31839
   0 -12   1 1.01570 0.14447
   1 -12   1 6.68748 0.26099
   2 -12   1 9.96264 0.34822
  -3 -11   1 37.5688 0.76742
  -2 -11   1 14.0774 0.34218
  -1 -11   1 127.815 2.15162
   0 -11   1 119.036 1.84074
   1 -11   1 165.054 2.67276
   2 -11   1 0.59779 0.13239
   3 -11   1 1.35367 0.24558
  -4 -10   1 17.5979 0.58056
  -3 -10   1 420.892 6.74584
  -2 -10   1 193.794 2.85839
  -1 -10   1 81.3638 1.47601
   0 -10   1 28.6700 0.60423
   1 -10   1 9.26539 0.31783
   2 -10   1 202.518 2.98008
   3 -10   1 5.15889 0.35358
   4 -10   1 7.72690 0.49611
  -5  -9   1 304.244 6.96845
  -4  -9   1 204.211 4.79722
  -3  -9   1 13.4987 0.42107
  -2  -9   1 333.718 4.85053
  -1  -9   1 22.6241 0.48159
   0  -9   1 47.1684 0.85369
   1  -9   1 224.438 3.33145
   2  -9   1 22.4315 0.50736
   3  -9   1 60.1720 1.14029
   4  -9   1 12.3292 0.44196
  -5  -8   1 0.25706 0.18096
  -4  -8   1 1.03271 0.29386
  -3  -8   1 130.300 2.24589
  -2  -8   1 3.58763 0.20661
  -1  -8   1 11.2923 0.36109
   0  -8   1 81.4993 1.23805
   1  -8   1 147.618 2.07227
   2  -8   1 6.38940 0.28723
   3  -8   1 54.3314 0.90369
   4  -8   1 237.667 4.26409
   5  -8   1 167.945 4.16876
  -5  -7   1 105.961 2.02417
  -4  -7   1 88.1538 2.26352
  -3  -7   1 396.756 6.44002
  -2  -7   1 476.220 6.44048
  -1  -7   1 393.113 6.80259
   0  -7   1 14.8306 0.49806
   1  -7   1 495.059 6.82996
   2  -7   1 1057.10 13.8836
   3  -7   1 0.25353 0.14869
   4  -7   1 88.1846 1.77305
   5  -7   1 96.2333 1.80498
  -5  -6   1 0.49112 0.21299
  -4  -6   1 124.166 2.39966
  -3  -6   1 135.698 2.60539
  -2  -6   1 6.18064 0.62267
  -1  -6   1 231.129 4.12660
   0  -6   1 546.043 8.12000
   1  -6   1 203.521 2.81491
   2  -6   1 1411.83 18.5501
   3  -6   1 711.503 12.3503
   4  -6   1 752.254 15.0895
   5  -6   1 94.9998 1.82628
  -6  -5   1 11.6576 0.73919
  -5  -5   1 106.663 2.05915
  -4  -5   1 25.1283 0.72030
  -3  -5   1 2.69434 0.32387
  -2  -5   1 1897.71 39.5164
  -1  -5   1 3465.37 62.2856
   0  -5   1 34.1592 0.71437
   1  -5   1 176.286 2.79098
   2  -5   1 520.040 6.77667
   3  -5   1 369.467 4.89717
   4  -5   1 57.9677 1.36440
   5  -5   1 110.861 2.46375
   6  -5   1 104.838 3.75462
  -6  -4   1 207.137 7.97343
  -5  -4   1 25.9822 0.67546
  -4  -4   1 58.7357 1.36792
  -3  -4   1 96.9358 2.38449
  -2  -4   1 121.629 2.02125
  -1  -4   1 20.2366 0.52216
   0  -4   1 2166.67 35.5223
   1  -4   1 11.0976 0.50254
   2  -4   1 28.7018 0.80467
   3  -4   1 268.877 4.12817
   4  -4   1 102.585 1.89000
   5  -4   1 6.55239 0.39722
   6  -4   1 30.4698 1.00360
  -6  -3   1 490.896 14.0332
  -5  -3   1 13.6065 0.50384
  -4  -3   1 19.6677 0.58257
  -3  -3   1 10.8395 0.58179
  -2  -3   1 840.477 13.7242
  -1  -3   1 3513.31 54.9985
   0  -3   1 7749.38 118.924
   1  -3   1 4248.58 66.1989
   2  -3   1 241.668 3.72113
   3  -3   1 822.276 11.6935
   4  -3   1 85.0166 1.46094
   5  -3   1 590.308 10.9341
   6  -3   1 2.56619 0.33778
  -6  -2   1 52.5021 1.82632
  -5  -2   1 232.743 4.53376
  -4  -2   1 37.7278 0.73777
  -3  -2   1 60.1419 1.60073
  -2  -2   1 65.5550 1.27575
   0  -2   1 3399.98 53.9257
   1  -2   1 1822.71 30.3162
   2  -2   1 1755.68 33.1097
   3  -2   1 224.642 3.81518
   4  -2   1 507.546 7.10549
   5  -2   1 754.560 13.9369
   6  -2   1 48.6210 1.31339
  -6  -1   1 32.8651 0.86235
  -5  -1   1 92.2062 2.08046
  -4  -1   1 1609.14 23.2894
  -3  -1   1 54.8237 1.49828
  -2  -1   1 2033.90 33.5028
  -1  -1   1 6621.69 126.365
   0  -1   1 650.510 9.75312
   1  -1   1 174.416 2.63782
   2  -1   1 0.40234 0.22535
   3  -1   1 169.016 2.93210
   4  -1   1 45.7353 0.93471
   5  -1   1 284.874 5.00867
   6  -1   1 57.4027 1.35135
  -6   0   1 8.52102 0.42944
  -5   0   1 273.901 4.91270
  -4   0   1 1031.67 14.7655
  -3   0   1 388.206 6.98390
  -2   0   1 477.573 7.58488
  -1   0   1 3955.68 55.3455
   0   0   1 83.1744 1.03984
   2   0   1 347.664 5.80316
   3   0   1 66.8383 1.53315
   4   0   1 1074.94 16.1721
   5   0   1 515.327 11.3258
   6   0   1 1.79947 0.28364
  -6   1   1 5.96006 0.36486
  -5   1   1 1.05449 0.25976
  -4   1   1 15.5799 0.55120
  -3   1   1 631.928 10.8335
  -2   1   1 1716.34 29.9622
  -1   1   1 1363.52 22.9659
   0   1   1 2543.07 31.2343
   1   1   1 1845.20 26.8516
   2   1   1 161.133 2.63264
   3   1   1 0.16890 0.32593
   4   1   1 86.7797 1.57570
   5   1   1 228.536 5.36068
   6   1   1 31.5062 0.88594
  -6   2   1 5.29694 0.44025
  -5   2   1 96.4611 2.07979
  -4   2   1 39.7938 1.02320
  -3   2   1 1638.95 30.8122
  -2   2   1 894.880 15.3789
  -1   2   1 2754.26 44.9899
   0   2   1 4310.00 85.5602
   1   2   1 2377.64 36.5049
   2   2   1 1800.93 35.2565
   3   2   1 413.798 8.22454
   4   2   1 137.188 2.59182
   5   2   1 1274.08 21.5937
   6   2   1 825.714 19.1815
  -6   3   1 6.89973 0.46085
  -5   3   1 10.5756 0.62881
  -4   3   1 102.194 2.12898
  -3   3   1 313.097 5.00934
  -2   3   1 287.071 4.39520
  -1   3   1 433.958 7.19850
   0   3   1 824.374 16.7031
   1   3   1 704.094 11.9921
   2   3   1 99.5362 1.74680
   3   3   1 349.244 8.04155
   4   3   1 373.403 5.59851
   5   3   1 24.2821 0.68275
   6   3   1 214.188 4.38131
  -6   4   1 0.04050 0.25593
  -5   4   1 30.7245 1.02645
  -4   4   1 523.947 9.69595
  -3   4   1 163.785 2.81133
  -2   4   1 4858.54 84.3731
  -1   4   1 1156.48 20.0034
   0   4   1 6148.34 98.4818
   1   4   1 21.3561 0.53697
   2   4   1 4231.79 77.7751
   3   4   1 13.1219 0.65920
   4   4   1 248.258 3.83306
   5   4   1 13.6179 0.43831
   6   4   1 258.497 4.85649
  -6   5   1 0.22086 0.22936
  -5   5   1 57.4221 1.79443
  -4   5   1 0.42293 0.19460
  -3   5   1 36.4315 0.91401
  -2   5   1 121.010 1.69250
  -1   5   1 455.414 7.13423
   0   5   1 143.583 2.44223
   1   5   1 80.1484 1.58542
   2   5   1 159.941 3.27221
   3   5   1 9.22836 0.58244
   4   5   1 0.14284 0.17360
   5   5   1 18.5433 0.56704
   6   5   1 57.2685 1.42833
  -6   6   1 1.10543 0.21738
  -5   6   1 270.846 5.57186
  -4   6   1 28.9478 0.78631
  -3   6   1 37.6061 0.78919
  -2   6   1 112.384 1.70601
  -1   6   1 107.091 1.59734
   0   6   1 2734.39 51.4210
   1   6   1 72.1384 1.70748
   2   6   1 84.3417 2.20203
   3   6   1 0.37283 0.18713
   4   6   1 320.278 4.79473
   5   6   1 66.9704 1.40034
   6   6   1 64.2587 1.52784
  -5   7   1 8.99490 0.45059
  -4   7   1 17.4084 0.59108
  -3   7   1 28.1165 0.66635
  -2   7   1 0.50509 0.15803
  -1   7   1 0.97435 0.19054
   0   7   1 8.84070 0.40948
   1   7   1 9.50489 0.44596
   2   7   1 534.760 11.3746
   3   7   1 410.384 6.64655
   4   7   1 73.0851 1.55402
   5   7   1 196.320 3.65032
   6   7   1 110.274 3.81001
  -5   8   1 0.78396 0.28094
  -4   8   1 38.9398 0.91623
  -3   8   1 570.247 8.67818
  -2   8   1 19.5218 0.48976
  -1   8   1 434.028 5.17513
   0   8   1 84.2046 1.70172
   1   8   1 117.773 2.22665
   2   8   1 70.6103 1.04941
   3   8   1 365.452 5.95529
   4   8   1 358.065 6.43585
   5   8   1 6.47633 0.42689
  -4   9   1 108.118 2.36086
  -3   9   1 15.2186 0.51975
  -2   9   1 61.0860 1.09518
  -1   9   1 504.698 6.26409
   0   9   1 465.096 6.19092
   1   9   1 23.6601 0.46455
   2   9   1 97.6761 1.40975
   3   9   1 61.7493 1.16495
   4   9   1 311.684 5.57569
   5   9   1 119.214 2.83150
  -4  10   1 93.3632 1.97389
  -3  10   1 372.986 6.32634
  -2  10   1 121.696 2.18145
  -1  10   1 31.6404 0.55621
   0  10   1 202.329 3.05178
   1  10   1 199.756 3.07372
   2  10   1 128.570 1.80471
   3  10   1 65.3312 1.20663
   4  10   1 0.13985 0.21667
   5  10   1 109.739 2.56097
  -3  11   1 310.673 6.02293
  -2  11   1 79.0330 1.31821
  -1  11   1 167.281 2.32927
   0  11   1 185.988 3.07954
   1  11   1 264.291 3.51799
   2  11   1 56.3384 0.94951
   3  11   1 43.9471 0.83800
   4  11   1 0.20301 0.11954
  -3  12   1 0.19770 0.19234
  -2  12   1 47.6730 0.91472
  -1  12   1 13.4588 0.37727
   0  12   1 26.4210 0.54561
   1  12   1 103.284 1.56550
   2  12   1 45.6763 0.84537
   3  12   1 11.3109 0.40453
  -2  13   1 175.911 6.17278
  -1  13   1 51.3069 0.88875
   0  13   1 134.384 2.15463
   1  13   1 16.7626 0.43125
   2  13   1 21.4536 0.56387
   0  14   1 5.23872 0.34093
   0 -13   2 4.88421 0.28858
  -2 -12   2 255.189 5.31796
  -1 -12   2 103.285 2.25009
   0 -12   2 3.45347 0.24229
   1 -12   2 71.2772 1.18530
   2 -12   2 0.93266 0.12796
  -3 -11   2 1.34595 0.17011
  -2 -11   2 38.0496 0.73219
  -1 -11   2 0.38558 0.15912
   0 -11   2 324.201 5.14341
   1 -11   2 43.2594 0.81659
   2 -11   2 0.38150 0.14409
   3 -11   2 22.8796 0.96473
  -4 -10   2 50.5047 1.24634
  -3 -10   2 49.3115 1.12802
  -2 -10   2 0.49880 0.13916
  -1 -10   2 524.435 7.46319
   0 -10   2 10.1976 0.39939
   1 -10   2 15.5453 0.41214
   2 -10   2 11.0103 0.33265
   3 -10   2 3.75324 0.26093
   4 -10   2 22.3943 0.93079
  -4  -9   2 27.9377 0.82389
  -3  -9   2 21.6637 0.66598
  -2  -9   2 104.928 1.63181
  -1  -9   2 415.073 5.99921
   0  -9   2 339.693 4.94665
   1  -9   2 2.36851 0.18549
   2  -9   2 4.19415 0.24877
   3  -9   2 54.1256 1.03983
   4  -9   2 14.1824 0.59899
  -5  -8   2 138.481 3.22346
  -4  -8   2 15.9475 0.64230
  -3  -8   2 461.500 9.11677
  -2  -8   2 65.3036 1.08462
  -1  -8   2 294.365 4.28812
   0  -8   2 56.9074 1.08641
   1  -8   2 107.183 1.70363
   2  -8   2 239.828 3.95364
   3  -8   2 380.704 5.58602
   4  -8   2 0.13563 0.14844
   5  -8   2 1.29164 0.23657
  -5  -7   2 0.58920 0.15904
  -4  -7   2 5.15532 0.35190
  -3  -7   2 18.8359 0.60824
  -2  -7   2 1822.35 26.2781
  -1  -7   2 26.6079 0.50745
   0  -7   2 21.3388 0.61025
   1  -7   2 90.2801 1.37703
   2  -7   2 14.4072 0.49080
   3  -7   2 89.3779 1.36071
   4  -7   2 9.62615 0.43739
   5  -7   2 10.1786 0.39920
  -5  -6   2 370.241 6.60646
  -4  -6   2 23.6621 0.68199
  -3  -6   2 273.645 4.55949
  -2  -6   2 296.811 4.40877
  -1  -6   2 2908.32 51.3050
   0  -6   2 174.199 2.69875
   1  -6   2 103.412 1.64873
   2  -6   2 1083.36 14.3444
   3  -6   2 15.1676 0.43453
   4  -6   2 25.8555 0.72871
   5  -6   2 221.727 3.97097
  -5  -5   2 76.4187 1.53470
  -4  -5   2 11.1018 0.50340
  -3  -5   2 259.418 4.30367
  -2  -5   2 2533.02 50.4785
  -1  -5   2 2910.57 46.5009
   0  -5   2 3487.22 60.9939
   1  -5   2 235.814 3.05760
   2  -5   2 79.7237 1.31308
   3  -5   2 192.566 2.49910
   4  -5   2 35.0212 0.82736
   5  -5   2 2.15287 0.26600
   6  -5   2 2.88624 0.23928
  -6  -4   2 30.0183 1.07823
  -5  -4   2 71.3053 1.37874
  -4  -4   2 195.875 3.40780
  -3  -4   2 720.253 11.0729
  -1  -4   2 280.424 3.93264
   0  -4   2 943.766 16.1383
   1  -4   2 449.684 6.67717
   2  -4   2 25.1063 0.68825
   3  -4   2 1246.87 17.4625
   4  -4   2 44.2541 0.96795
   5  -4   2 47.6763 1.13419
   6  -4   2 7.16401 0.32662
  -6  -3   2 40.6303 1.44314
  -5  -3   2 76.9437 1.72083
  -4  -3   2 0.60575 0.22486
  -3  -3   2 249.739 5.49951
  -2  -3   2 1280.50 20.6133
  -1  -3   2 2659.93 42.8479
   0  -3   2 3585.16 56.6240
   1  -3   2 906.900 16.2365
   2  -3   2 278.058 4.30514
   3  -3   2 2.26355 0.27170
   4  -3   2 2462.53 36.3256
   5  -3   2 251.920 4.33577
   6  -3   2 4.89483 0.30361
  -6  -2   2 19.9352 0.92573
  -5  -2   2 72.2529 1.65195
  -4  -2   2 723.670 16.2245
  -3  -2   2 12.1454 0.55656
  -2  -2   2 216.511 2.94117
  -1  -2   2 103.361 1.66414
   0  -2   2 5827.81 319.798
   1  -2   2 3.08018 0.40868
   2  -2   2 1335.65 24.5831
   3  -2   2 781.495 11.1590
   4  -2   2 163.874 2.69856
   5  -2   2 1.15717 0.20714
   6  -2   2 30.1167 0.75008
  -6  -1   2 24.2318 1.03566
  -5  -1   2 201.072 4.05171
  -4  -1   2 0.53241 0.23144
  -3  -1   2 1724.22 28.0126
  -2  -1   2 1006.56 15.5133
  -1  -1   2 4562.33 71.8212
   0  -1   2 1076.60 19.1632
   1  -1   2 0.72271 0.16327
   2  -1   2 1484.55 28.0282
   3  -1   2 1064.60 18.1185
   4  -1   2 531.335 7.15339
   5  -1   2 1200.98 19.3300
   6  -1   2 242.190 5.76394
  -6   0   2 95.0065 2.92952
  -5   0   2 6.45130 0.40750
  -4   0   2 11.5957 0.52854
  -3   0   2 80.6286 1.58639
  -2   0   2 1626.50 25.5967
  -1   0   2 6768.29 119.139
   0   0   2 504.641 7.99038
   1   0   2 1452.35 21.9548
   2   0   2 15.2554 0.58252
   3   0   2 52.2295 1.31406
   4   0   2 300.143 4.27657
   5   0   2 612.732 9.50395
   6   0   2 177.336 3.67968
  -6   1   2 6.97283 0.40826
  -5   1   2 93.3645 1.83626
  -4   1   2 37.4616 0.90237
  -3   1   2 279.558 4.65384
  -2   1   2 574.831 9.51446
  -1   1   2 4809.00 77.8499
   0   1   2 195.196 2.96902
   1   1   2 210.388 2.94031
   2   1   2 373.961 6.36346
   3   1   2 1206.73 27.8024
   4   1   2 243.181 3.50062
   5   1   2 1732.14 26.5253
   6   1   2 21.3878 0.71576
  -6   2   2 2.08058 0.31503
  -5   2   2 754.875 14.2181
  -4   2   2 90.8799 1.79198
  -3   2   2 264.440 4.27693
  -2   2   2 218.342 3.98499
  -1   2   2 965.508 17.1326
   0   2   2 852.924 13.5803
   1   2   2 1754.68 24.3492
   2   2   2 258.133 4.47341
   3   2   2 314.026 7.31228
   4   2   2 126.063 2.24645
   5   2   2 82.3309 1.56905
   6   2   2 529.962 10.5933
  -6   3   2 51.4851 1.95394
  -5   3   2 35.2118 1.12018
  -4   3   2 262.977 5.90059
  -3   3   2 249.600 4.06627
  -2   3   2 26.8794 0.79193
  -1   3   2 321.498 4.81731
   0   3   2 282.208 4.17083
   1   3   2 76.0865 1.20652
   2   3   2 105.361 2.10673
   3   3   2 1708.73 42.2056
   4   3   2 301.724 4.46030
   5   3   2 90.1086 1.90147
   6   3   2 15.5304 0.59599
  -6   4   2 6.96746 0.49589
  -5   4   2 65.9159 1.75274
  -4   4   2 21.1993 0.71969
  -3   4   2 0.87408 0.28249
  -2   4   2 148.677 2.45178
  -1   4   2 7.43664 0.38909
   0   4   2 23.8928 0.59750
   1   4   2 1475.80 25.8850
   2   4   2 461.863 8.82692
   3   4   2 248.479 5.87901
   4   4   2 212.342 2.52161
   5   4   2 13.6118 0.52196
   6   4   2 43.9108 0.99332
  -6   5   2 0.84936 0.22937
  -5   5   2 4.57943 0.51729
  -4   5   2 0.68794 0.26636
  -3   5   2 310.158 4.56667
  -2   5   2 127.626 1.82868
  -1   5   2 334.838 5.33735
   0   5   2 114.531 1.99665
   1   5   2 247.929 4.08915
   2   5   2 10.0643 0.56416
   3   5   2 744.254 23.7338
   4   5   2 167.568 2.34437
   5   5   2 0.22533 0.18129
   6   5   2 46.2652 1.01475
  -5   6   2 11.1790 0.66546
  -4   6   2 525.751 10.6384
  -3   6   2 156.811 2.54938
  -2   6   2 528.023 6.77913
  -1   6   2 523.609 6.78758
   0   6   2 1089.97 20.1802
   1   6   2 12.8302 0.59185
   2   6   2 89.2779 2.30187
   3   6   2 576.135 14.0738
   4   6   2 1135.39 14.4972
   5   6   2 1023.30 18.7691
   6   6   2 1.95922 0.26471
  -5   7   2 114.532 2.46342
  -4   7   2 13.7177 0.52014
  -3   7   2 7.03201 0.35974
  -2   7   2 261.940 3.23567
  -1   7   2 5.63657 0.36883
   0   7   2 768.948 11.3790
   1   7   2 116.568 2.15273
   2   7   2 24.1028 0.98548
   3   7   2 221.228 3.04637
   4   7   2 160.932 2.52163
   5   7   2 78.2115 1.59267
   6   7   2 42.5527 1.27786
  -5   8   2 379.357 13.1270
  -4   8   2 11.7650 0.53309
  -3   8   2 171.579 2.78689
  -2   8   2 188.573 2.72167
  -1   8   2 1.69220 0.15260
   0   8   2 338.759 5.66625
   1   8   2 4.35548 0.36086
   2   8   2 1739.57 18.9400
   3   8   2 2.60900 0.19047
   4   8   2 247.703 3.99928
   5   8   2 86.3565 2.15335
  -5   9   2 0.82525 0.20316
  -4   9   2 62.0962 1.25176
  -3   9   2 445.265 7.54279
  -2   9   2 44.9470 0.86678
  -1   9   2 284.480 3.60115
   0   9   2 141.858 2.04672
   1   9   2 163.091 2.08704
   2   9   2 118.549 1.56455
   3   9   2 1.23591 0.16246
   4   9   2 665.284 11.7431
   5   9   2 171.684 4.02940
  -4  10   2 40.5263 0.94787
  -3  10   2 61.3936 1.22928
  -2  10   2 374.356 5.62323
  -1  10   2 0.36593 0.14211
   0  10   2 29.5690 0.51120
   1  10   2 33.4948 0.55550
   2  10   2 215.492 3.19413
   3  10   2 5.25464 0.27975
   4  10   2 49.7907 1.02542
   5  10   2 6.49939 0.32110
  -3  11   2 92.5937 1.68853
  -2  11   2 90.3061 1.48807
  -1  11   2 164.600 2.30263
   0  11   2 73.3852 1.02990
   1  11   2 530.542 6.94105
   2  11   2 58.4577 1.14358
   3  11   2 33.6469 0.62483
   4  11   2 29.3948 0.63904
  -3  12   2 21.5297 0.90462
  -2  12   2 15.5547 0.37765
  -1  12   2 55.1948 0.85128
   0  12   2 11.1238 0.38603
   1  12   2 132.965 1.83783
   2  12   2 7.05435 0.26946
   3  12   2 532.954 11.0552
   4  12   2 0.69589 0.20282
  -2  13   2 1.28312 0.24857
  -1  13   2 209.401 3.97109
   0  13   2 52.9639 0.94086
   1  13   2 23.9979 0.57070
   2  13   2 58.1070 1.11294
   3  13   2 43.3435 0.97650
   0  14   2 0.25812 0.12941
   1  14   2 121.245 2.56284
  -1 -12   3 138.842 2.93752
   0 -12   3 5.20594 0.27948
   1 -12   3 47.6174 1.06933
  -2 -11   3 0.63877 0.12450
  -1 -11   3 8.07117 0.32742
   0 -11   3 13.0535 0.42161
   1 -11   3 78.3281 1.48026
   2 -11   3 16.1956 0.42906
   3 -11   3 2.03253 0.28023
  -3 -10   3 29.9399 0.82584
  -2 -10   3 175.948 2.91138
  -1 -10   3 7.19454 0.29814
   0 -10   3 54.6403 1.04422
   1 -10   3 5.15383 0.26623
   2 -10   3 19.6424 0.50429
   3 -10   3 272.887 5.05372
  -4  -9   3 1.21389 0.18752
  -3  -9   3 21.9830 0.63845
  -2  -9   3 172.370 2.56778
  -1  -9   3 277.690 4.05820
   0  -9   3 5.30498 0.28349
   1  -9   3 7.22036 0.31286
   2  -9   3 302.836 4.89818
   3  -9   3 18.6787 0.54955
   4  -9   3 196.967 4.91064
  -4  -8   3 185.867 4.36627
  -3  -8   3 1031.31 20.0300
  -2  -8   3 162.447 2.43580
  -1  -8   3 1.52232 0.18215
   0  -8   3 432.696 6.23259
   1  -8   3 577.797 8.94443
   2  -8   3 6.01151 0.33908
   3  -8   3 338.862 4.99580
   4  -8   3 285.965 4.73268
   5  -8   3 23.5452 0.95335
  -5  -7   3 44.5889 1.32330
  -4  -7   3 124.986 2.15171
  -3  -7   3 210.007 3.62072
  -2  -7   3 1084.39 13.9682
  -1  -7   3 634.503 9.05628
   0  -7   3 121.983 1.61654
   1  -7   3 0.31230 0.12700
   2  -7   3 118.491 1.89818
   3  -7   3 152.700 2.68469
   4  -7   3 122.782 2.17885
   5  -7   3 7.61938 0.44368
  -5  -6   3 1.02461 0.17755
  -4  -6   3 46.4527 0.94315
  -3  -6   3 189.060 3.00497
  -2  -6   3 2299.68 34.2630
  -1  -6   3 630.878 10.6270
   0  -6   3 170.346 2.66847
   1  -6   3 5.21236 0.31640
   2  -6   3 770.536 9.40915
   3  -6   3 8.39355 0.39775
   4  -6   3 8.21185 0.33640
   5  -6   3 122.907 2.63772
  -5  -5   3 23.1325 0.59985
  -4  -5   3 148.261 2.82883
  -3  -5   3 79.4228 1.47333
  -2  -5   3 569.262 10.6156
  -1  -5   3 53.4864 1.17297
   0  -5   3 41.0759 0.75711
   1  -5   3 1291.29 15.7046
   2  -5   3 41.5725 1.00121
   3  -5   3 48.7832 0.95733
   4  -5   3 766.919 10.7055
   5  -5   3 126.191 2.74772
   6  -5   3 62.9071 1.60517
  -6  -4   3 14.9744 0.59701
  -5  -4   3 313.712 6.74890
  -4  -4   3 212.134 3.68573
  -3  -4   3 45.5246 0.86998
  -2  -4   3 372.667 7.12178
  -1  -4   3 1490.32 22.7780
   0  -4   3 1509.33 25.5686
   1  -4   3 124.513 2.16086
   2  -4   3 66.9147 1.07655
   3  -4   3 534.670 7.55345
   4  -4   3 404.274 5.78086
   5  -4   3 0.24040 0.20480
   6  -4   3 16.1212 0.54045
  -6  -3   3 21.5545 0.83443
  -5  -3   3 76.8758 1.69822
  -4  -3   3 708.209 11.8825
  -3  -3   3 22.9612 0.59799
  -2  -3   3 38.3866 0.96684
  -1  -3   3 3189.12 55.1958
   0  -3   3 428.851 6.51030
   1  -3   3 1576.89 27.5909
   2  -3   3 396.836 5.96403
   3  -3   3 132.135 2.24795
   4  -3   3 294.230 3.79606
   5  -3   3 915.628 15.1476
   6  -3   3 0.12719 0.16453
  -6  -2   3 0.10099 0.29068
  -5  -2   3 85.5019 1.88078
  -4  -2   3 57.7956 1.37429
  -3  -2   3 275.555 6.05970
  -2  -2   3 212.405 3.48388
  -1  -2   3 978.851 17.8206
   0  -2   3 671.609 13.3833
   1  -2   3 1618.23 28.0851
   2  -2   3 107.115 2.14754
   3  -2   3 303.223 4.59212
   4  -2   3 136.813 1.99891
   5  -2   3 60.9276 1.15910
   6  -2   3 57.6330 1.23732
  -6  -1   3 4.12136 0.44215
  -5  -1   3 147.760 3.03903
  -4  -1   3 141.915 2.59624
  -3  -1   3 7.53566 0.42009
  -2  -1   3 2848.29 52.2862
  -1  -1   3 1395.78 23.8048
   0  -1   3 928.549 17.2571
   1  -1   3 5.66735 0.34817
   2  -1   3 221.882 3.45544
   3  -1   3 490.588 7.87648
   4  -1   3 342.053 4.08342
   5  -1   3 16.2611 0.49477
   6  -1   3 11.9779 0.39464
  -6   0   3 52.7647 2.64048
  -5   0   3 91.3702 1.75943
  -4   0   3 36.6719 0.87268
  -3   0   3 138.268 2.74147
  -2   0   3 11.1777 0.42360
  -1   0   3 8863.35 129.346
   0   0   3 4886.77 78.4874
   1   0   3 6124.01 105.377
   2   0   3 81.0220 1.52239
   3   0   3 455.128 7.31549
   4   0   3 18.8906 0.45616
   5   0   3 23.9420 0.60123
   6   0   3 221.578 3.91687
  -6   1   3 4.40408 0.52473
  -5   1   3 161.072 2.97438
  -4   1   3 22.0757 0.64502
  -3   1   3 1165.30 16.6904
  -2   1   3 46.9781 1.02560
  -1   1   3 352.440 5.79716
   0   1   3 789.518 13.6444
   1   1   3 285.508 4.80727
   2   1   3 4533.80 82.3479
   3   1   3 1286.72 33.1904
   4   1   3 210.887 2.86715
   5   1   3 492.514 7.66772
   6   1   3 115.109 2.14990
  -5   2   3 19.8697 0.65549
  -4   2   3 558.381 8.46526
  -3   2   3 1.58060 0.24358
  -2   2   3 2093.02 35.1077
  -1   2   3 2224.03 45.3252
   0   2   3 1144.21 19.1935
   1   2   3 314.790 5.53290
   2   2   3 2534.27 43.3659
   3   2   3 74.2516 1.89098
   4   2   3 225.294 3.15851
   5   2   3 428.494 6.64836
   6   2   3 195.370 3.10560
  -6   3   3 15.9557 0.70248
  -5   3   3 216.933 4.92350
  -4   3   3 29.5151 0.69562
  -3   3   3 74.0680 1.47308
  -2   3   3 308.922 4.76473
  -1   3   3 305.696 4.50130
   0   3   3 79.2575 1.34464
   1   3   3 13.9031 0.38802
   2   3   3 413.265 7.31170
   3   3   3 0.98221 0.34997
   4   3   3 777.631 9.24589
   5   3   3 337.486 4.60510
   6   3   3 42.0503 0.91784
  -5   4   3 11.0792 0.59008
  -4   4   3 1.18344 0.27465
  -3   4   3 26.8616 0.77181
  -2   4   3 7.03343 0.36595
  -1   4   3 313.776 4.67547
   0   4   3 77.0309 1.20731
   1   4   3 1.57624 0.17143
   2   4   3 373.693 9.04138
   3   4   3 203.780 4.96668
   4   4   3 310.625 3.90722
   5   4   3 11.8550 0.35672
   6   4   3 312.610 5.85933
  -5   5   3 299.419 7.58799
  -4   5   3 734.976 18.0343
  -3   5   3 324.448 4.68645
  -2   5   3 390.355 5.06708
  -1   5   3 0.15094 0.19242
   0   5   3 197.507 2.95662
   1   5   3 385.935 6.21966
   2   5   3 82.7625 2.08196
   3   5   3 1353.97 44.2457
   4   5   3 240.966 3.13455
   5   5   3 141.585 2.11720
   6   5   3 6.54062 0.43812
  -5   6   3 49.0847 1.51965
  -4   6   3 4.05913 0.42066
  -3   6   3 15.7011 0.56323
  -2   6   3 452.294 5.84239
  -1   6   3 826.597 10.6964
   0   6   3 10.7063 0.52647
   1   6   3 78.1321 1.79390
   2   6   3 1.70153 0.31686
   3   6   3 310.553 10.7268
   4   6   3 22.3952 0.44086
   5   6   3 37.2003 0.70527
   6   6   3 96.5782 1.88355
  -5   7   3 60.9999 1.74558
  -4   7   3 852.839 16.9982
  -3   7   3 37.5855 0.80515
  -2   7   3 362.976 3.95980
  -1   7   3 55.4416 1.03416
   0   7   3 186.320 3.29401
   1   7   3 80.6079 1.57915
   2   7   3 223.641 5.54386
   3   7   3 45.4743 0.73987
   4   7   3 10.9443 0.34875
   5   7   3 16.2840 0.42363
   6   7   3 4.30415 0.31092
  -5   8   3 207.352 7.25085
  -4   8   3 63.2432 1.96382
  -3   8   3 370.999 5.73371
  -2   8   3 104.439 1.59537
  -1   8   3 20.9104 0.42892
   0   8   3 269.984 4.59804
   1   8   3 343.320 5.70567
   2   8   3 159.528 2.17306
   3   8   3 36.3360 0.63623
   4   8   3 98.5914 1.54674
   5   8   3 6.07277 0.28460
   6   8   3 52.7711 1.90821
  -4   9   3 15.1191 0.59115
  -3   9   3 212.898 3.74345
  -2   9   3 193.698 2.79660
  -1   9   3 661.157 8.31973
   0   9   3 777.829 9.02691
   1   9   3 145.185 1.80756
   2   9   3 560.168 7.42439
   3   9   3 176.413 2.46921
   4   9   3 9.76483 0.32809
   5   9   3 266.334 4.75862
  -3  10   3 111.378 2.34430
  -2  10   3 212.762 3.28812
  -1  10   3 105.412 1.61883
   0  10   3 0.07508 0.12227
   1  10   3 287.007 3.57442
   2  10   3 135.178 1.90197
   3  10   3 2.43158 0.18263
   4  10   3 131.101 1.96072
   5  10   3 12.7014 0.44931
  -3  11   3 0.59285 0.16400
  -2  11   3 117.338 2.08659
  -1  11   3 59.5795 1.08586
   0  11   3 131.128 1.71841
   1  11   3 67.3929 1.06847
   2  11   3 458.918 6.11655
   3  11   3 8.90622 0.30964
   4  11   3 31.1611 0.67651
  -3  12   3 11.5987 0.56834
  -2  12   3 157.149 2.40820
  -1  12   3 160.012 2.52360
   0  12   3 272.208 3.37327
   1  12   3 12.5870 0.30690
   2  12   3 73.4261 1.16601
   3  12   3 61.1957 1.20415
   4  12   3 0.11218 0.13295
  -2  13   3 69.9779 1.40772
  -1  13   3 54.0403 1.00476
   0  13   3 323.675 4.58769
   1  13   3 7.34353 0.27870
   2  13   3 103.530 1.67295
   3  13   3 4.65504 0.35070
  -1  14   3 3.16336 0.21422
   0  14   3 5.32230 0.29390
   1  14   3 158.953 2.86855
   2  14   3 22.1478 0.73160
  -2 -11   4 5.81363 0.37672
  -1 -11   4 36.9170 0.88355
   0 -11   4 197.208 3.48197
   1 -11   4 11.0171 0.34158
   2 -11   4 73.2407 2.14570
  -3 -10   4 675.012 22.5836
  -2 -10   4 41.5373 1.11118
  -1 -10   4 299.933 4.31947
   0 -10   4 4.87173 0.28762
   1 -10   4 75.9293 1.31390
   2 -10   4 552.424 8.65327
   3 -10   4 1.67214 0.16205
  -4  -9   4 32.2740 1.21454
  -3  -9   4 54.4604 1.10875
  -2  -9   4 28.1158 0.77653
  -1  -9   4 448.450 6.44823
   0  -9   4 0.13820 0.14813
   1  -9   4 16.2517 0.47775
   2  -9   4 59.2706 1.12911
   3  -9   4 117.571 2.29273
   4  -9   4 52.7195 1.95936
  -4  -8   4 78.5553 2.81907
  -3  -8   4 190.537 3.25770
  -2  -8   4 343.544 5.12458
  -1  -8   4 155.936 2.37212
   0  -8   4 303.718 4.08953
   1  -8   4 228.468 4.10651
   2  -8   4 3.81969 0.27599
   3  -8   4 221.301 4.21034
   4  -8   4 112.732 1.95473
  -4  -7   4 149.170 3.02429
  -3  -7   4 60.0610 1.08498
  -2  -7   4 88.8053 1.47283
  -1  -7   4 12.5439 0.38031
   0  -7   4 324.253 4.35153
   1  -7   4 874.279 12.1979
   2  -7   4 185.721 2.85595
   3  -7   4 380.679 6.31833
   4  -7   4 13.2456 0.42656
   5  -7   4 6.53695 0.46937
  -5  -6   4 50.6909 1.36755
  -4  -6   4 9.50461 0.37315
  -3  -6   4 54.5998 1.00449
  -2  -6   4 125.214 1.84823
  -1  -6   4 68.0488 1.08358
   0  -6   4 167.199 2.00394
   1  -6   4 232.252 2.96136
   2  -6   4 492.013 7.15024
   3  -6   4 4030.04 71.5896
   4  -6   4 62.0532 1.22649
   5  -6   4 82.3141 2.27201
  -5  -5   4 74.3365 1.43912
  -4  -5   4 0.43641 0.19317
  -3  -5   4 63.2014 1.08137
  -2  -5   4 187.093 2.82276
  -1  -5   4 0.64853 0.27418
   0  -5   4 3345.90 48.2266
   1  -5   4 78.8541 1.34761
   2  -5   4 19.1292 0.46162
   3  -5   4 14.4847 0.49299
   4  -5   4 776.495 11.7895
   5  -5   4 33.4921 0.88777
  -5  -4   4 92.3992 2.39871
  -4  -4   4 153.104 2.48783
  -3  -4   4 3.86410 0.22686
  -2  -4   4 7.76814 0.57559
  -1  -4   4 191.010 2.77931
   0  -4   4 1241.56 16.1750
   1  -4   4 59.1469 0.95398
   2  -4   4 573.056 7.36941
   3  -4   4 671.559 10.6942
   4  -4   4 669.252 9.44989
   5  -4   4 24.9397 0.56039
   6  -4   4 5.07345 0.28336
  -5  -3   4 6.10010 0.46473
  -4  -3   4 161.816 2.62981
  -3  -3   4 192.862 3.06379
  -2  -3   4 434.246 7.05072
  -1  -3   4 181.160 2.55776
   0  -3   4 113.662 1.90100
   1  -3   4 10.9047 0.51719
   2  -3   4 245.758 3.53006
   3  -3   4 26.0674 0.84316
   4  -3   4 427.558 5.48419
   5  -3   4 11.9859 0.33848
   6  -3   4 204.487 4.20927
  -5  -2   4 142.985 2.91777
  -4  -2   4 29.3237 0.87514
  -3  -2   4 385.493 6.23682
  -2  -2   4 14.1344 0.40495
  -1  -2   4 249.940 3.76896
   0  -2   4 180.200 3.19030
   1  -2   4 108.638 1.81405
   2  -2   4 34.7335 0.82963
   3  -2   4 228.636 3.59220
   4  -2   4 231.504 3.25889
   5  -2   4 0.16837 0.14477
   6  -2   4 3.30625 0.25706
  -6  -1   4 2.17688 0.27467
  -5  -1   4 127.902 2.63314
  -4  -1   4 203.608 3.58246
  -3  -1   4 40.7169 0.75266
  -2  -1   4 338.587 5.95989
  -1  -1   4 22.9238 0.57351
   0  -1   4 129.804 2.17607
   1  -1   4 267.281 3.94253
   2  -1   4 1475.99 27.5368
   3  -1   4 137.848 2.54611
   4  -1   4 139.028 1.88126
   5  -1   4 743.898 10.1341
   6  -1   4 175.674 3.91940
  -6   0   4 110.570 4.28792
  -5   0   4 69.9061 1.56316
  -4   0   4 272.453 4.76400
  -3   0   4 661.856 10.9464
  -2   0   4 4173.89 73.2328
  -1   0   4 106.944 1.74230
   0   0   4 22.3813 0.60802
   1   0   4 116.810 1.93494
   2   0   4 691.433 11.7683
   3   0   4 795.001 12.5743
   4   0   4 163.730 2.00270
   5   0   4 47.1071 0.75153
   6   0   4 1.65428 0.23597
  -5   1   4 135.364 2.42731
  -4   1   4 5.51419 0.47662
  -3   1   4 105.742 1.73279
  -2   1   4 4.06826 0.31117
  -1   1   4 53.5190 1.19983
   0   1   4 3809.66 58.5604
   1   1   4 77.9379 1.27067
   2   1   4 1154.20 19.9510
   3   1   4 854.050 16.6380
   4   1   4 903.747 9.79579
   5   1   4 174.185 2.48374
   6   1   4 89.9613 1.84911
  -5   2   4 470.440 8.73282
  -4   2   4 158.224 2.85682
  -3   2   4 868.751 11.5982
  -2   2   4 235.364 3.39807
  -1   2   4 139.198 2.39041
   0   2   4 2564.72 40.8208
   1   2   4 3928.50 70.9377
   2   2   4 2.30212 0.30584
   3   2   4 78.1751 2.00777
   4   2   4 194.538 2.56369
   5   2   4 41.2246 0.71086
   6   2   4 28.5876 0.64243
  -5   3   4 64.0084 1.64975
  -4   3   4 28.1718 0.68051
  -3   3   4 0.22309 0.18390
  -2   3   4 656.042 8.36411
  -1   3   4 517.832 9.02823
   0   3   4 382.466 5.84786
   1   3   4 456.128 10.0253
   2   3   4 936.253 20.8693
   3   3   4 1417.87 39.0708
   4   3   4 388.172 4.86482
   5   3   4 17.0477 0.40506
   6   3   4 119.019 1.95250
  -5   4   4 509.639 11.0364
  -4   4   4 0.64835 0.19867
  -3   4   4 506.044 5.76390
  -2   4   4 57.0266 0.88092
  -1   4   4 200.074 3.35447
   0   4   4 71.2033 1.23368
   1   4   4 584.871 10.6146
   2   4   4 337.238 7.49983
   3   4   4 299.854 7.05220
   4   4   4 74.5562 1.22620
   5   4   4 422.344 5.74065
   6   4   4 20.6907 0.51140
  -5   5   4 0.10791 0.25794
  -4   5   4 1.58388 0.31999
  -3   5   4 29.3930 0.65049
  -2   5   4 303.635 4.02958
  -1   5   4 50.8302 1.03331
   0   5   4 5.43616 0.32671
   1   5   4 942.062 17.1563
   2   5   4 48.6786 1.37591
   3   5   4 36.0755 2.19308
   4   5   4 2.03759 0.18656
   5   5   4 14.9964 0.41580
   6   5   4 5.33741 0.28906
  -5   6   4 29.8316 1.02099
  -4   6   4 9.07807 0.77599
  -3   6   4 166.647 2.64324
  -2   6   4 619.311 7.91650
  -1   6   4 257.737 3.70002
   0   6   4 36.1937 0.96088
   1   6   4 2201.41 45.8210
   2   6   4 737.733 15.2524
   3   6   4 142.388 3.35238
   4   6   4 473.512 7.23817
   5   6   4 464.517 6.53977
   6   6   4 22.3241 0.69797
  -5   7   4 166.177 5.87171
  -4   7   4 198.490 5.20796
  -3   7   4 6.39506 0.43031
  -2   7   4 301.527 3.59136
  -1   7   4 78.9149 1.44016
   0   7   4 1624.36 22.8441
   1   7   4 680.760 10.8457
   2   7   4 123.175 3.29314
   3   7   4 18.4869 0.41999
   4   7   4 64.5173 1.07163
   5   7   4 1.92628 0.19164
   6   7   4 39.3186 1.09124
  -5   8   4 4.35061 0.40663
  -4   8   4 284.326 7.18917
  -3   8   4 4.69509 0.35525
  -2   8   4 32.5684 0.57129
  -1   8   4 692.725 7.65666
   0   8   4 315.535 5.27821
   1   8   4 175.770 3.11567
   2   8   4 44.7671 0.74654
   3   8   4 100.686 1.56977
   4   8   4 1.58028 0.17936
   5   8   4 1.40922 0.16098
   6   8   4 59.6418 2.15555
  -4   9   4 152.174 3.89389
  -3   9   4 251.829 4.36368
  -2   9   4 285.611 4.04010
  -1   9   4 142.615 1.92204
   0   9   4 15.3958 0.33550
   1   9   4 259.734 3.12495
   2   9   4 681.414 9.97140
   3   9   4 142.764 2.02866
   4   9   4 91.4219 1.57957
   5   9   4 217.515 3.47767
  -4  10   4 58.6482 2.22783
  -3  10   4 376.954 6.38688
  -2  10   4 239.075 3.40483
  -1  10   4 562.210 7.09308
   0  10   4 34.9708 0.57106
   1  10   4 63.9313 0.91720
   2  10   4 91.4328 1.34356
   3  10   4 1294.69 17.1460
   4  10   4 1.76462 0.16628
   5  10   4 67.0503 1.26117
  -3  11   4 3.30064 0.22942
  -2  11   4 44.2832 0.82859
  -1  11   4 327.599 4.50991
   0  11   4 13.5177 0.33307
   1  11   4 70.9191 0.99702
   2  11   4 85.6304 1.25933
   3  11   4 93.2356 1.47965
   4  11   4 4.83193 0.21853
  -3  12   4 36.2883 1.44402
  -2  12   4 11.1419 0.32567
  -1  12   4 14.7158 0.41171
   0  12   4 62.4936 0.88536
   1  12   4 55.5750 0.86364
   2  12   4 83.9461 1.38577
   3  12   4 11.8351 0.34041
   4  12   4 52.0230 1.17605
  -2  13   4 27.0447 0.60499
  -1  13   4 8.72931 0.30913
   0  13   4 442.592 5.98769
   1  13   4 17.2369 0.34775
   2  13   4 57.4823 0.88979
   3  13   4 29.5803 0.62107
  -1  14   4 44.9938 1.11747
   0  14   4 247.481 5.75730
   1  14   4 72.8058 1.18465
   2  14   4 59.6957 1.36335
  -1 -11   5 13.7916 0.58850
   0 -11   5 335.766 6.97216
   1 -11   5 311.108 8.66341
  -2 -10   5 5.66202 0.30809
  -1 -10   5 13.6151 0.33989
   0 -10   5 16.1616 0.39508
   1 -10   5 7.55604 0.30936
   2 -10   5 46.1266 1.45012
   3 -10   5 150.387 4.22775
  -3  -9   5 1.29819 0.15944
  -2  -9   5 388.414 7.61781
  -1  -9   5 1.19209 0.15947
   0  -9   5 102.213 1.58813
   1  -9   5 94.5775 1.62172
   2  -9   5 563.073 9.94744
   3  -9   5 239.650 4.44110
  -4  -8   5 39.3699 1.44837
  -3  -8   5 237.309 5.50177
  -2  -8   5 7.49992 0.36737
  -1  -8   5 119.558 1.85687
   0  -8   5 47.4846 0.85879
   1  -8   5 132.680 2.19250
   2  -8   5 1031.27 18.0143
   3  -8   5 144.220 2.80441
   4  -8   5 0.62948 0.14617
  -4  -7   5 101.185 2.10299
  -3  -7   5 185.560 2.75427
  -2  -7   5 1.04839 0.17530
  -1  -7   5 813.170 11.5339
   0  -7   5 153.280 2.16290
   1  -7   5 521.428 7.36626
   2  -7   5 88.9663 1.48974
   3  -7   5 186.448 3.21586
   4  -7   5 7.64188 0.32572
   5  -7   5 174.420 6.10874
  -4  -6   5 1.36848 0.19870
  -3  -6   5 12.4018 0.37812
  -2  -6   5 10.9375 0.34362
  -1  -6   5 1002.40 15.3418
   0  -6   5 461.416 6.10892
   1  -6   5 172.581 2.38973
   2  -6   5 232.164 3.45587
   3  -6   5 896.084 14.5081
   4  -6   5 164.936 2.85506
   5  -6   5 108.985 2.87597
  -5  -5   5 48.8385 1.53965
  -4  -5   5 241.707 4.00181
  -3  -5   5 33.7234 0.70377
  -2  -5   5 103.128 1.64953
  -1  -5   5 8.41288 0.30186
   0  -5   5 6.32135 0.30020
   1  -5   5 203.781 2.96944
   2  -5   5 172.765 2.32616
   3  -5   5 144.982 2.42612
   4  -5   5 27.7527 0.69688
   5  -5   5 0.63423 0.16228
  -5  -4   5 6.15188 0.41851
  -4  -4   5 11.5818 0.40062
  -3  -4   5 8.48566 0.33519
  -2  -4   5 6.05725 0.28347
  -1  -4   5 250.940 4.04639
   0  -4   5 346.123 4.06501
   1  -4   5 575.433 7.40485
   2  -4   5 713.037 8.30552
   3  -4   5 14.4061 0.39503
   4  -4   5 135.706 2.11636
   5  -4   5 2.45166 0.22158
   6  -4   5 24.0663 0.97633
  -5  -3   5 19.1027 0.70849
  -4  -3   5 36.8196 0.88463
  -3  -3   5 11.5831 0.37562
  -2  -3   5 10.6843 0.42479
  -1  -3   5 383.020 4.93768
   0  -3   5 775.144 8.90845
   1  -3   5 184.718 2.44238
   2  -3   5 12.0108 0.45364
   3  -3   5 483.737 5.64281
   4  -3   5 98.0357 1.51954
   5  -3   5 166.997 2.39373
   6  -3   5 107.968 2.72221
  -5  -2   5 1.95386 0.27451
  -4  -2   5 34.3697 0.86557
  -3  -2   5 89.2019 1.37314
  -2  -2   5 192.211 2.70544
  -1  -2   5 753.411 9.05625
   0  -2   5 73.9641 1.35645
   1  -2   5 3548.04 63.0920
   2  -2   5 1.19035 0.23040
   3  -2   5 275.336 4.43566
   4  -2   5 120.042 1.65469
   5  -2   5 590.627 8.02837
   6  -2   5 25.6204 0.78346
  -5  -1   5 3.92106 0.32274
  -4  -1   5 172.305 3.10354
  -3  -1   5 0.08918 0.23206
  -2  -1   5 74.7230 1.12853
  -1  -1   5 200.606 3.60937
   0  -1   5 986.956 18.0885
   1  -1   5 970.370 18.5258
   2  -1   5 957.423 14.0869
   3  -1   5 211.748 3.32932
   4  -1   5 473.720 6.05697
   5  -1   5 251.851 3.28281
   6  -1   5 1.45317 0.20639
  -5   0   5 28.9965 0.79431
  -4   0   5 114.155 2.15162
  -3   0   5 8.51802 0.37147
  -2   0   5 1815.27 22.8545
  -1   0   5 99.4570 1.81590
   0   0   5 585.112 9.56976
   1   0   5 99.9373 1.58258
   2   0   5 3595.95 66.1806
   3   0   5 2204.57 38.1708
   4   0   5 13.3364 0.33554
   5   0   5 125.753 1.72237
   6   0   5 26.3605 0.62767
  -5   1   5 0.89409 0.22290
  -4   1   5 7.16242 0.54089
  -3   1   5 185.944 2.34076
  -2   1   5 1726.50 21.7518
  -1   1   5 1268.42 21.3157
   0   1   5 207.401 3.12909
   1   1   5 22.8130 0.58333
   2   1   5 170.815 3.01338
   3   1   5 101.332 2.13622
   4   1   5 23.8891 0.45869
   5   1   5 28.1709 0.55222
   6   1   5 252.113 4.33857
  -5   2   5 5.29595 0.45816
  -4   2   5 19.3814 0.60450
  -3   2   5 250.887 2.96351
  -2   2   5 52.8847 0.83499
  -1   2   5 245.987 3.82382
   0   2   5 3026.48 48.3369
   1   2   5 172.030 3.05939
   2   2   5 33.5972 0.94918
   3   2   5 3.58920 0.35840
   4   2   5 0.93194 0.14825
   5   2   5 149.119 2.12428
   6   2   5 33.1567 0.72589
  -5   3   5 1.14601 0.27313
  -4   3   5 7.26826 0.43247
  -3   3   5 148.035 2.00182
  -2   3   5 485.420 5.76882
  -1   3   5 2.13148 0.23668
   0   3   5 68.6869 1.34360
   1   3   5 48.7779 1.16131
   2   3   5 1767.18 34.8887
   3   3   5 297.464 7.07387
   4   3   5 3.06155 0.19258
   5   3   5 3.97075 0.22923
   6   3   5 23.2861 0.46374
  -5   4   5 7.15262 0.95864
  -4   4   5 0.43277 0.19213
  -3   4   5 211.621 2.91111
  -2   4   5 144.621 1.95337
  -1   4   5 785.559 10.8265
   0   4   5 9999.99 138.818
   1   4   5 383.904 6.12965
   2   4   5 948.460 20.2194
   3   4   5 144.776 3.75440
   4   4   5 94.5189 1.51704
   5   4   5 478.839 6.51873
   6   4   5 104.149 1.55637
  -5   5   5 19.5979 0.74841
  -4   5   5 66.6094 1.56921
  -3   5   5 710.360 9.72270
  -2   5   5 11.9914 0.41600
  -1   5   5 42.6594 0.76106
   0   5   5 970.216 16.2481
   1   5   5 236.249 4.16403
   2   5   5 37.4405 1.52709
   3   5   5 0.81343 0.63849
   4   5   5 344.235 4.92505
   5   5   5 38.8223 0.70447
   6   5   5 67.7905 1.05260
  -5   6   5 0.71888 0.22668
  -4   6   5 25.4188 0.66990
  -3   6   5 117.790 1.63512
  -2   6   5 358.616 3.98779
  -1   6   5 636.098 8.12321
   0   6   5 7.72919 0.37490
   1   6   5 1757.28 36.3416
   2   6   5 747.464 15.6679
   3   6   5 325.056 4.82440
   4   6   5 2.14964 0.19328
   5   6   5 273.971 4.52609
   6   6   5 10.4352 0.27655
  -5   7   5 6.72624 0.45611
  -4   7   5 122.977 3.36955
  -3   7   5 216.712 3.02261
  -2   7   5 5.06585 0.24634
  -1   7   5 101.567 1.77221
   0   7   5 9.70402 0.38573
   1   7   5 440.111 7.12561
   2   7   5 135.244 3.28722
   3   7   5 78.6277 1.24619
   4   7   5 1.75877 0.18233
   5   7   5 9.21234 0.34452
   6   7   5 79.4765 1.80343
  -4   8   5 43.0848 1.12770
  -3   8   5 0.44565 0.15415
  -2   8   5 1354.75 16.8658
  -1   8   5 304.275 3.76162
   0   8   5 153.061 2.11253
   1   8   5 1157.79 15.0710
   2   8   5 896.806 11.6519
   3   8   5 108.910 1.68586
   4   8   5 3.78653 0.22246
   5   8   5 94.2441 1.64240
   6   8   5 18.0390 0.56211
  -4   9   5 4.27724 0.40380
  -3   9   5 2.36570 0.22305
  -2   9   5 10.1476 0.31338
  -1   9   5 509.805 6.44916
   0   9   5 97.8568 1.46287
   1   9   5 14.0702 0.32885
   2   9   5 155.013 2.39228
   3   9   5 117.320 1.80589
   4   9   5 209.762 3.09349
   5   9   5 46.9658 0.87203
  -4  10   5 0.22571 0.25358
  -3  10   5 3.64317 0.24792
  -2  10   5 183.844 2.42782
  -1  10   5 1402.41 17.3626
   0  10   5 6.06364 0.29429
   1  10   5 242.101 3.04531
   2  10   5 162.317 2.26193
   3  10   5 2.74742 0.22896
   4  10   5 20.2024 0.44403
   5  10   5 30.0993 0.50582
  -3  11   5 62.2912 1.65415
  -2  11   5 4.70169 0.24176
  -1  11   5 418.604 5.71697
   0  11   5 1841.48 24.5784
   1  11   5 174.885 2.23833
   2  11   5 507.812 7.46944
   3  11   5 21.1657 0.51263
   4  11   5 0.22513 0.12578
  -3  12   5 81.5931 2.95960
  -2  12   5 47.5479 0.82410
  -1  12   5 20.3317 0.42889
   0  12   5 0.61696 0.14894
   1  12   5 109.737 1.56270
   2  12   5 53.6219 0.92129
   3  12   5 132.245 2.18171
   4  12   5 262.562 4.14463
  -2  13   5 26.7322 0.59412
  -1  13   5 176.777 2.97165
   0  13   5 795.117 10.6898
   1  13   5 93.4064 1.32415
   2  13   5 0.15577 0.13366
   3  13   5 1.69977 0.12955
  -1  14   5 15.6813 0.46162
   0  14   5 109.421 2.17505
   1  14   5 422.376 6.89546
   2  14   5 0.97036 0.13152
  -1 -10   6 226.752 5.20402
   0 -10   6 19.2304 0.43839
   1 -10   6 2.91861 0.21559
   2 -10   6 86.0732 2.48094
  -2  -9   6 17.4171 0.55903
  -1  -9   6 7.38922 0.35678
   0  -9   6 230.953 3.63095
   1  -9   6 1.26363 0.14800
   2  -9   6 112.871 2.12733
   3  -9   6 35.6556 1.12950
  -3  -8   6 16.2219 0.50707
  -2  -8   6 34.7585 0.74863
  -1  -8   6 84.3869 1.58150
   0  -8   6 13.2695 0.37588
   1  -8   6 7.10565 0.31137
   2  -8   6 3.66013 0.31639
   3  -8   6 261.157 4.82508
   4  -8   6 41.5556 0.97605
  -3  -7   6 39.6846 0.79478
  -2  -7   6 9.77107 0.38093
  -1  -7   6 77.9899 1.50927
   0  -7   6 1485.65 19.2757
   1  -7   6 4.57540 0.27761
   2  -7   6 58.2770 1.13181
   3  -7   6 41.4606 0.88253
   4  -7   6 52.5585 0.99022
  -4  -6   6 0.08421 0.13776
  -3  -6   6 78.8220 1.25341
  -2  -6   6 30.7805 0.64147
  -1  -6   6 144.819 2.23273
   0  -6   6 19.3802 0.43580
   1  -6   6 81.0369 1.23108
   2  -6   6 103.189 1.84024
   3  -6   6 0.23146 0.18688
   4  -6   6 53.0293 1.03915
   5  -6   6 1.78578 0.15182
  -4  -5   6 66.0995 1.31210
  -3  -5   6 111.536 1.73063
  -2  -5   6 69.7791 1.13806
  -1  -5   6 17.1550 0.47539
   0  -5   6 392.751 4.55914
   1  -5   6 1.22978 0.15877
   2  -5   6 427.811 5.92205
   3  -5   6 150.963 2.27140
   4  -5   6 44.3725 0.94367
   5  -5   6 2.44119 0.20774
  -5  -4   6 164.278 4.72791
  -4  -4   6 0.43376 0.19965
  -3  -4   6 49.8255 0.96155
  -2  -4   6 81.4791 1.23239
  -1  -4   6 78.3617 1.16584
   0  -4   6 290.164 3.10849
   1  -4   6 43.9184 0.69792
   2  -4   6 76.0238 1.06701
   3  -4   6 220.124 3.07479
   4  -4   6 64.4995 1.05219
   5  -4   6 3.41921 0.27775
  -5  -3   6 176.379 4.31353
  -4  -3   6 2.13272 0.25566
  -3  -3   6 107.919 1.71278
  -2  -3   6 39.4680 0.69210
  -1  -3   6 140.938 1.94246
   0  -3   6 38.3254 0.68167
   1  -3   6 1.39352 0.24750
   2  -3   6 114.604 1.56752
   3  -3   6 423.059 5.40682
   4  -3   6 59.9765 0.92655
   5  -3   6 170.216 2.63008
   6  -3   6 137.457 4.86224
  -5  -2   6 28.7277 0.79451
  -4  -2   6 120.964 2.25711
  -3  -2   6 109.658 1.81228
  -2  -2   6 43.0650 0.58648
  -1  -2   6 84.3243 1.25667
   0  -2   6 279.632 3.38548
   1  -2   6 672.323 8.04979
   2  -2   6 97.2244 1.71427
   3  -2   6 1.68108 0.32165
   4  -2   6 1209.34 17.0392
   5  -2   6 4.51403 0.24593
   6  -2   6 25.9180 0.75257
  -4  -1   6 1.44838 0.27225
  -3  -1   6 41.3162 0.76096
  -2  -1   6 28.5168 0.56849
  -1  -1   6 123.308 1.80664
   0  -1   6 29.1550 0.57073
   1  -1   6 539.094 7.03699
   2  -1   6 73.0309 1.34111
   3  -1   6 245.577 2.95273
   4  -1   6 0.58302 0.14437
   5  -1   6 1.73399 0.16366
   6  -1   6 7.06815 0.23986
  -5   0   6 22.2859 0.77896
  -4   0   6 64.6853 1.32785
  -3   0   6 381.471 4.87845
  -2   0   6 245.984 3.31118
  -1   0   6 250.684 3.16859
   0   0   6 2.66536 0.24236
   1   0   6 103.460 2.05572
   2   0   6 1274.79 19.8931
   3   0   6 195.069 3.77076
   4   0   6 354.333 4.70913
   5   0   6 99.7413 1.40309
   6   0   6 104.412 1.70793
  -5   1   6 34.3270 0.83584
  -4   1   6 441.338 7.55081
  -3   1   6 140.720 1.88600
  -2   1   6 124.783 1.74071
  -1   1   6 5.51229 0.26222
   0   1   6 405.732 6.36230
   1   1   6 253.283 3.87469
   2   1   6 44.6292 1.04612
   3   1   6 258.211 4.80784
   4   1   6 4.46335 0.22255
   5   1   6 424.710 5.75776
   6   1   6 44.3121 0.70529
  -5   2   6 40.9462 1.20846
  -4   2   6 23.2785 0.71150
  -3   2   6 147.445 1.94196
  -2   2   6 1837.93 22.5138
  -1   2   6 7.91909 0.32919
   0   2   6 793.059 11.4973
   1   2   6 346.071 5.56623
   2   2   6 257.433 4.79168
   3   2   6 473.340 8.33631
   4   2   6 3.87736 0.21840
   5   2   6 1113.62 15.3257
   6   2   6 33.4244 0.56814
  -5   3   6 2.76769 0.34023
  -4   3   6 377.636 6.80580
  -3   3   6 227.271 3.07342
  -2   3   6 194.162 2.67393
  -1   3   6 1408.48 17.4377
   0   3   6 1125.76 18.6816
   1   3   6 376.074 5.74016
   2   3   6 196.056 3.73475
   3   3   6 356.907 8.40031
   4   3   6 117.600 1.70957
   5   3   6 5.60978 0.27791
   6   3   6 13.5591 0.35264
  -5   4   6 77.5900 2.00790
  -4   4   6 373.671 6.75547
  -3   4   6 1.50874 0.16761
  -2   4   6 265.092 3.39381
  -1   4   6 84.5675 1.19711
   0   4   6 256.730 4.21508
   1   4   6 2072.23 33.5795
   2   4   6 1360.62 30.9149
   3   4   6 73.5405 2.23433
   4   4   6 1299.06 17.3594
   5   4   6 10.5435 0.33053
   6   4   6 19.1701 0.42123
  -5   5   6 10.8503 0.93067
  -4   5   6 77.4721 1.75825
  -3   5   6 230.263 3.01438
  -2   5   6 227.685 2.75265
  -1   5   6 728.222 11.1928
   0   5   6 5.01156 0.28814
   1   5   6 241.451 4.27181
   2   5   6 39.6906 1.61030
   3   5   6 349.217 5.70694
   4   5   6 77.8517 1.23126
   5   5   6 41.6013 0.74228
   6   5   6 0.69175 0.13429
  -4   6   6 16.3405 0.50654
  -3   6   6 273.915 3.82699
  -2   6   6 1054.26 13.1661
  -1   6   6 3.83096 0.25536
   0   6   6 127.390 2.06020
   1   6   6 245.633 4.10528
   2   6   6 142.107 3.63680
   3   6   6 25.0861 0.69152
   4   6   6 0.22353 0.15584
   5   6   6 36.1216 0.71503
   6   6   6 511.579 7.74456
  -4   7   6 30.8637 0.83801
  -3   7   6 818.594 10.2650
  -2   7   6 12.2742 0.34732
  -1   7   6 8.86251 0.28475
   0   7   6 122.930 2.04785
   1   7   6 120.450 2.21333
   2   7   6 263.226 4.37561
   3   7   6 155.810 2.33597
   4   7   6 261.373 4.32495
   5   7   6 5.14899 0.29095
   6   7   6 5.11025 0.21413
  -4   8   6 33.4256 1.16419
  -3   8   6 7.34546 0.29842
  -2   8   6 893.126 11.1618
  -1   8   6 1091.71 14.6000
   0   8   6 2037.98 22.3289
   1   8   6 29.6148 0.50426
   2   8   6 68.4824 1.12946
   3   8   6 554.205 7.96927
   5   8   6 352.055 5.73781
  -4   9   6 10.0273 0.64741
  -3   9   6 90.9223 1.45684
  -2   9   6 225.333 3.16606
  -1   9   6 343.004 4.39332
   0   9   6 110.351 1.63263
   1   9   6 72.8307 1.01213
   2   9   6 643.064 9.41151
   3   9   6 5.55308 0.33201
   4   9   6 2.29651 0.19431
   5   9   6 145.684 2.76610
  -4  10   6 163.540 5.70871
  -3  10   6 68.8536 1.27266
  -2  10   6 200.850 2.82729
  -1  10   6 439.766 5.58095
   0  10   6 957.981 12.8650
   1  10   6 76.4802 1.06578
   2  10   6 517.341 7.60071
   3  10   6 108.142 1.85064
   4  10   6 439.431 6.31891
   5  10   6 2.06187 0.14907
  -3  11   6 0.48984 0.32082
  -2  11   6 133.140 1.90296
  -1  11   6 18.3072 0.42788
   0  11   6 27.9439 0.55947
   1  11   6 60.7202 0.94356
   2  11   6 4.87593 0.27740
   3  11   6 242.059 3.92805
   4  11   6 22.6668 0.48946
  -2  12   6 210.840 4.00054
  -1  12   6 426.553 5.78281
   0  12   6 212.599 2.96103
   1  12   6 3.29002 0.19062
   3  12   6 177.461 2.88908
   4  12   6 41.1895 0.72435
  -2  13   6 17.8205 0.52810
  -1  13   6 60.5826 1.10316
   0  13   6 187.858 2.79691
   1  13   6 10.7110 0.31516
   2  13   6 5.31538 0.24224
   3  13   6 109.651 1.79385
  -1  14   6 170.682 5.34269
   0  14   6 155.378 3.03809
   1  14   6 0.09121 0.10475
   2  14   6 50.6594 1.25966
  -2  -9   7 0.02283 0.18163
  -1  -9   7 332.437 7.60342
   0  -9   7 1.36515 0.12613
   1  -9   7 67.9877 1.12657
   2  -9   7 229.008 6.41628
  -2  -8   7 3.54650 0.30366
  -1  -8   7 24.6425 0.65415
   0  -8   7 84.7144 1.43813
   1  -8   7 12.2996 0.35182
   2  -8   7 7.78805 0.36234
   3  -8   7 7.14737 0.42461
  -3  -7   7 1.67458 0.16587
  -2  -7   7 0.71958 0.16564
  -1  -7   7 0.06255 0.16559
   0  -7   7 23.3678 0.51696
   1  -7   7 403.470 5.71886
   2  -7   7 182.087 3.34976
   3  -7   7 0.97529 0.21701
   4  -7   7 1.04014 0.13571
  -3  -6   7 67.7632 1.14275
  -2  -6   7 75.1018 1.23667
  -1  -6   7 108.525 1.72524
   0  -6   7 3.88506 0.22775
   1  -6   7 329.269 4.38979
   2  -6   7 246.258 4.01475
   3  -6   7 45.4996 0.95064
   4  -6   7 53.5588 1.01580
  -4  -5   7 6.56812 0.33507
  -3  -5   7 38.5163 0.69651
  -2  -5   7 322.447 4.75398
  -1  -5   7 302.260 4.30795
   0  -5   7 547.336 6.55115
   1  -5   7 14.1181 0.34884
   2  -5   7 209.059 2.86360
   3  -5   7 3.58368 0.22387
   4  -5   7 30.2197 0.69370
   5  -5   7 556.069 12.0528
  -4  -4   7 11.5674 0.46951
  -3  -4   7 6.81465 0.30091
  -2  -4   7 87.5212 1.26188
  -1  -4   7 108.578 1.53293
   0  -4   7 10.9000 0.33218
   1  -4   7 173.340 2.11100
   2  -4   7 161.735 2.13716
   3  -4   7 55.8383 0.91524
   4  -4   7 0.68742 0.14414
   5  -4   7 144.104 3.22796
  -4  -3   7 4.84202 0.38610
  -3  -3   7 25.1667 0.53315
  -2  -3   7 113.175 1.57133
  -1  -3   7 39.0967 0.64204
   0  -3   7 48.2031 0.68395
   1  -3   7 26.3201 0.46103
   2  -3   7 326.607 4.11985
   3  -3   7 15.3320 0.38944
   4  -3   7 14.1137 0.37899
   5  -3   7 16.2099 0.40294
   6  -3   7 139.328 4.91167
  -5  -2   7 25.0829 0.64960
  -4  -2   7 9.93209 0.43020
  -3  -2   7 34.1477 0.72925
  -2  -2   7 0.80975 0.14176
  -1  -2   7 434.999 4.58193
   0  -2   7 7.13290 0.32775
   1  -2   7 1.26173 0.22177
   2  -2   7 64.1859 0.89611
   3  -2   7 222.634 2.91435
   4  -2   7 9.34789 0.34618
   5  -2   7 274.411 3.80671
   6  -2   7 24.1824 0.99500
  -5  -1   7 22.1144 0.61767
  -4  -1   7 18.3200 0.56625
  -3  -1   7 167.184 2.35342
  -2  -1   7 358.424 4.30737
  -1  -1   7 1468.92 17.4004
   0  -1   7 10.1883 0.38228
   1  -1   7 355.624 4.61137
   2  -1   7 31.2042 0.84735
   3  -1   7 36.2385 0.62380
   4  -1   7 42.4635 0.78949
   5  -1   7 1.74753 0.18070
   6  -1   7 253.835 4.44395
  -5   0   7 27.1774 0.71142
  -4   0   7 25.2450 0.62299
  -3   0   7 994.037 13.5272
  -2   0   7 31.3471 0.54769
  -1   0   7 120.203 1.68851
   0   0   7 81.5530 1.29487
   1   0   7 200.032 2.57411
   2   0   7 261.794 4.19281
   3   0   7 384.122 4.65548
   4   0   7 251.485 3.52507
   5   0   7 7.76740 0.28019
   6   0   7 3.03747 0.16777
  -5   1   7 0.20013 0.21159
  -4   1   7 40.0347 0.89175
  -3   1   7 5.67518 0.25724
  -2   1   7 1003.44 9.88015
  -1   1   7 1456.77 18.3025
   0   1   7 0.31255 0.15287
   1   1   7 441.223 5.35930
   2   1   7 90.7008 1.67916
   3   1   7 0.79006 0.14033
   4   1   7 30.2991 0.54776
   5   1   7 556.585 7.55846
   6   1   7 3.98305 0.19571
  -5   2   7 46.4246 1.67217
  -4   2   7 553.588 12.4603
  -3   2   7 797.653 9.73460
  -2   2   7 0.75888 0.13047
  -1   2   7 750.703 9.83070
   0   2   7 3663.92 47.3705
   1   2   7 167.637 2.25054
   2   2   7 239.034 4.06991
   3   2   7 52.2187 0.83108
   4   2   7 548.026 7.79079
   5   2   7 7.05681 0.29859
   6   2   7 3.25828 0.18127
  -5   3   7 95.3655 3.12165
  -4   3   7 57.4783 1.50102
  -3   3   7 870.321 11.2663
  -2   3   7 49.4387 0.73602
  -1   3   7 6.00155 0.29199
   0   3   7 614.045 7.41717
   1   3   7 3.58954 0.23749
   2   3   7 101.477 2.10262
   3   3   7 738.941 12.3535
   4   3   7 13.9784 0.36810
   5   3   7 203.572 2.85837
   6   3   7 34.5860 0.59717
  -5   4   7 62.5787 2.08676
  -4   4   7 21.5515 0.65072
  -3   4   7 91.7618 1.36959
  -2   4   7 7.72103 0.30393
  -1   4   7 119.646 1.66955
   0   4   7 44.3702 0.72206
   1   4   7 451.048 6.63431
   2   4   7 368.660 8.49112
   3   4   7 9.03913 0.29912
   4   4   7 311.465 4.25711
   5   4   7 361.990 4.92982
   6   4   7 9.86860 0.27939
  -4   5   7 26.6507 0.78679
  -3   5   7 207.797 2.94835
  -2   5   7 2.07432 0.18657
  -1   5   7 253.187 3.42285
   0   5   7 113.186 1.71841
   1   5   7 332.041 5.02691
   2   5   7 97.7440 4.05292
   3   5   7 1.53319 0.16914
   4   5   7 284.076 4.08190
   5   5   7 347.732 4.96163
   6   5   7 11.4562 0.29360
  -4   6   7 24.3707 0.72249
  -3   6   7 78.2415 1.24313
  -2   6   7 1546.95 19.2551
  -1   6   7 306.026 3.89206
   0   6   7 529.763 7.75931
   1   6   7 406.000 6.62207
   2   6   7 871.518 27.7603
   3   6   7 841.594 13.5369
   4   6   7 78.4637 1.33439
   5   6   7 357.790 5.46163
   6   6   7 64.9750 0.98414
  -4   7   7 331.626 6.43890
  -3   7   7 105.513 1.47763
  -2   7   7 474.025 6.02707
  -1   7   7 281.244 3.89589
   0   7   7 212.442 2.55631
   1   7   7 56.7755 1.10277
   2   7   7 238.248 3.38060
   3   7   7 402.935 5.82078
   4   7   7 80.2018 1.45583
   5   7   7 33.8762 0.71034
   6   7   7 23.3090 0.46823
  -4   8   7 0.66915 0.22214
  -3   8   7 36.3039 0.61487
  -2   8   7 602.889 8.13587
  -1   8   7 529.145 7.17155
   0   8   7 90.3764 1.36909
   1   8   7 224.492 3.12648
   2   8   7 488.657 7.16243
   3   8   7 94.1408 1.47703
   4   8   7 779.816 12.5587
   5   8   7 22.1535 0.52160
   6   8   7 0.49334 0.15227
  -4   9   7 126.848 4.47789
  -3   9   7 129.622 2.19015
  -2   9   7 19.7093 0.46159
  -1   9   7 4.03115 0.23210
   0   9   7 12.1599 0.35278
   1   9   7 440.594 6.00664
   2   9   7 519.060 7.62566
   3   9   7 132.670 2.23758
   4   9   7 2.42759 0.22415
   5   9   7 7.80725 0.29705
  -3  10   7 230.198 3.37680
  -2  10   7 38.0548 0.67945
  -1  10   7 0.69414 0.16474
   0  10   7 12.9659 0.36776
   1  10   7 137.940 2.00242
   2  10   7 137.815 2.15582
   3  10   7 39.0297 0.79408
   4  10   7 1548.61 24.2988
   5  10   7 554.533 8.87148
  -3  11   7 2.95384 0.36547
  -2  11   7 0.67169 0.14479
  -1  11   7 452.593 6.14781
   0  11   7 42.4943 0.74177
   1  11   7 67.9661 1.17645
   2  11   7 295.558 4.39898
   3  11   7 0.58983 0.17422
   4  11   7 663.010 10.4807
  -2  12   7 39.7295 0.87863
  -1  12   7 24.3001 0.46092
   0  12   7 17.9756 0.40279
   1  12   7 349.685 5.31825
   2  12   7 7.39913 0.28398
   3  12   7 259.344 4.16751
   4  12   7 71.9850 1.19532
  -2  13   7 1.10373 0.23513
  -1  13   7 34.1064 0.64242
   0  13   7 3.00385 0.17963
   1  13   7 17.9186 0.42958
   2  13   7 36.3975 0.67661
   3  13   7 21.4796 0.49486
   0  14   7 206.624 3.99592
   1  14   7 0.34839 0.10010
   2  14   7 12.6198 0.33969
  -2  -8   8 23.0527 0.92518
  -1  -8   8 66.9791 1.64895
   0  -8   8 1.23758 0.17829
   1  -8   8 2.79848 0.17932
   2  -8   8 10.0973 0.46577
   3  -8   8 159.732 4.48079
  -2  -7   8 0.40058 0.15816
  -1  -7   8 377.970 6.44035
   0  -7   8 32.0573 0.80054
   1  -7   8 3.08294 0.19358
   2  -7   8 72.6534 1.41735
   3  -7   8 59.3943 1.44741
  -3  -6   8 88.6964 1.64346
  -2  -6   8 3.81526 0.22785
  -1  -6   8 30.6950 0.61865
   0  -6   8 6.64148 0.31708
   1  -6   8 732.208 9.69667
   2  -6   8 51.1570 0.99904
   3  -6   8 3.02174 0.24245
   4  -6   8 123.936 3.54856
  -3  -5   8 0.37202 0.14974
  -2  -5   8 132.039 2.03295
  -1  -5   8 39.6713 0.71997
   0  -5   8 22.9825 0.48672
   1  -5   8 13.0194 0.32890
   2  -5   8 2.20502 0.17893
   3  -5   8 3.09453 0.25585
   4  -5   8 236.457 4.37456
  -4  -4   8 62.2988 1.39441
  -3  -4   8 63.5302 1.02734
  -2  -4   8 370.977 5.13438
  -1  -4   8 10.3683 0.38134
   0  -4   8 361.803 4.75124
   1  -4   8 5.51258 0.24407
   2  -4   8 146.559 1.97054
   3  -4   8 13.6499 0.41107
   4  -4   8 427.805 5.39170
   5  -4   8 37.5633 0.91248
  -4  -3   8 2.57944 0.24667
  -3  -3   8 61.5826 1.08039
  -2  -3   8 734.497 10.0748
  -1  -3   8 48.7634 0.77059
   0  -3   8 20.7970 0.47773
   1  -3   8 101.990 1.30991
   2  -3   8 73.0767 1.14356
   3  -3   8 125.935 1.87151
   4  -3   8 13.0400 0.35158
   5  -3   8 66.1482 1.14347
  -4  -2   8 2.89924 0.27358
  -3  -2   8 79.4865 1.35515
  -2  -2   8 932.632 10.3600
  -1  -2   8 307.493 3.76997
   0  -2   8 175.590 2.22456
   1  -2   8 6.55280 0.28953
   2  -2   8 101.449 1.40384
   3  -2   8 345.998 4.42694
   4  -2   8 2.17021 0.19101
   5  -2   8 93.8245 1.37655
  -4  -1   8 20.0871 0.60563
  -3  -1   8 3.76491 0.22507
  -2  -1   8 2.79928 0.19679
  -1  -1   8 417.103 5.05823
   0  -1   8 54.7481 0.72791
   1  -1   8 8.12879 0.34333
   2  -1   8 253.126 3.69379
   3  -1   8 98.2486 1.49984
   4  -1   8 254.590 3.58230
   5  -1   8 78.0629 1.19178
   6  -1   8 25.9089 0.52703
  -4   0   8 54.1089 1.00185
  -3   0   8 100.454 1.41915
  -2   0   8 90.2163 1.40726
  -1   0   8 42.4747 0.76755
   0   0   8 31.0462 0.71335
   1   0   8 1268.44 16.3910
   2   0   8 106.771 1.40656
   3   0   8 275.976 3.81359
   4   0   8 161.470 2.34239
   5   0   8 289.791 4.00955
   6   0   8 33.2271 0.58824
  -5   1   8 112.709 3.59283
  -4   1   8 756.462 11.5175
  -3   1   8 24.7187 0.47252
  -2   1   8 188.384 2.35457
  -1   1   8 694.658 7.29475
   0   1   8 133.079 1.84634
   1   1   8 32.2515 0.69726
   2   1   8 77.8874 1.53718
   3   1   8 356.688 4.89877
   4   1   8 3.67704 0.22811
   5   1   8 20.6677 0.49041
   6   1   8 1.41432 0.13282
  -5   2   8 0.64497 0.24778
  -4   2   8 280.994 5.97306
  -3   2   8 235.959 3.01393
  -2   2   8 407.221 4.89863
  -1   2   8 420.382 5.05761
   0   2   8 8.88679 0.33179
   1   2   8 30.2267 0.58422
   2   2   8 49.0315 1.07322
   3   2   8 4.89046 0.25270
   4   2   8 246.851 3.71067
   5   2   8 54.0814 0.87465
   6   2   8 7.10307 0.22108
  -4   3   8 7.13207 0.72041
  -3   3   8 1177.61 15.1374
  -2   3   8 699.664 9.06534
  -1   3   8 595.028 6.33136
   0   3   8 375.806 4.65439
   1   3   8 334.367 4.12486
   2   3   8 250.618 4.93631
   3   3   8 385.781 5.69481
   4   3   8 55.3753 0.93359
   5   3   8 322.589 4.40464
   6   3   8 5.82589 0.21462
  -4   4   8 75.4031 1.52252
  -3   4   8 350.519 4.63325
  -2   4   8 86.9488 1.30913
  -1   4   8 152.868 1.79754
   0   4   8 85.4086 1.25756
   1   4   8 1807.28 22.8919
   2   4   8 9.53996 0.75003
   3   4   8 6.70903 0.25641
   4   4   8 0.52038 0.15117
   5   4   8 56.4400 0.89883
   6   4   8 403.052 6.11094
  -4   5   8 31.4355 0.83546
  -3   5   8 1269.55 16.9482
  -2   5   8 329.214 4.56802
  -1   5   8 373.169 4.89225
   0   5   8 416.443 5.56079
   1   5   8 57.4027 1.12713
   2   5   8 201.918 7.23276
   3   5   8 863.982 13.0646
   4   5   8 63.7149 1.04281
   5   5   8 13.6873 0.36542
   6   5   8 13.6941 0.30571
  -4   6   8 68.9839 1.51068
  -3   6   8 2.03668 0.18360
  -2   6   8 966.505 13.0054
  -1   6   8 75.1360 1.19706
   0   6   8 245.589 3.20855
   1   6   8 1.35953 0.26021
   2   6   8 747.935 11.7889
   3   6   8 30.2685 0.80166
   4   6   8 71.6701 1.32395
   5   6   8 100.176 1.63741
   6   6   8 63.8634 1.03334
  -4   7   8 23.6715 0.75268
  -3   7   8 106.031 1.58586
  -2   7   8 444.514 6.09374
  -1   7   8 0.25346 0.13271
   0   7   8 5.81285 0.26370
   1   7   8 61.3648 1.04768
   2   7   8 97.2557 1.65641
   3   7   8 197.106 3.29612
   4   7   8 161.297 2.74097
   5   7   8 308.712 5.04609
   6   7   8 10.0342 0.25915
  -3   8   8 29.2031 0.51073
  -2   8   8 3.04174 0.20997
  -1   8   8 282.595 3.93148
   0   8   8 37.2370 0.67874
   1   8   8 20.4086 0.43490
   2   8   8 22.1282 0.48089
   3   8   8 343.109 5.49686
   4   8   8 93.8209 1.66060
   5   8   8 47.1664 0.88549
  -3   9   8 0.34241 0.12554
  -2   9   8 16.7934 0.41338
  -1   9   8 145.362 2.33030
   0   9   8 294.976 4.43151
   1   9   8 584.300 7.90556
   2   9   8 5.28830 0.28251
   3   9   8 1401.96 22.0875
   4   9   8 302.880 5.66913
   5   9   8 1.83488 0.16094
  -3  10   8 10.4668 0.31554
  -2  10   8 275.523 4.10533
  -1  10   8 141.154 2.04540
   0  10   8 1658.53 24.0210
   1  10   8 43.7774 0.82380
   2  10   8 25.9315 0.55355
   3  10   8 11.3217 0.38878
   4  10   8 65.8055 1.35277
   5  10   8 90.0117 1.72178
  -2  11   8 60.4221 0.99136
  -1  11   8 33.7845 0.66431
   0  11   8 60.7347 0.96758
   1  11   8 67.3585 1.16131
   2  11   8 20.0920 0.55031
   3  11   8 327.111 6.08124
   4  11   8 5.02962 0.22749
  -2  12   8 21.6025 0.49259
  -1  12   8 43.2307 0.82284
   0  12   8 1.39860 0.16529
   1  12   8 16.2103 0.39916
   2  12   8 106.328 2.17892
   3  12   8 48.7507 0.87435
   4  12   8 0.15679 0.11186
  -1  13   8 7.01252 0.29456
   0  13   8 7.40405 0.26206
   1  13   8 192.453 3.20485
   2  13   8 123.577 2.46302
   3  13   8 70.4258 1.42414
   0  14   8 53.1259 1.94914
   1  14   8 43.4454 0.90914
   2  14   8 74.6142 2.42784
   0  -8   9 4.01594 0.37085
  -1  -7   9 156.354 3.64515
   0  -7   9 55.0086 1.16006
   1  -7   9 55.1382 1.45619
   2  -7   9 0.25922 0.13514
   3  -7   9 39.3737 1.18558
  -2  -6   9 0.77973 0.14064
  -1  -6   9 197.058 3.12717
   0  -6   9 122.306 1.84405
   1  -6   9 0.26776 0.15722
   2  -6   9 76.7378 1.34962
   3  -6   9 0.75259 0.15394
  -3  -5   9 81.4067 1.79325
  -2  -5   9 4.60530 0.26044
  -1  -5   9 1.09535 0.17553
   0  -5   9 0.59370 0.18568
   1  -5   9 246.693 3.34849
   2  -5   9 0.76172 0.14748
   3  -5   9 473.096 8.71169
   4  -5   9 45.1923 1.39617
  -3  -4   9 126.544 2.77565
  -2  -4   9 128.874 1.88573
  -1  -4   9 7.96527 0.36194
   0  -4   9 11.6686 0.35147
   1  -4   9 21.8201 0.47710
   2  -4   9 53.6870 0.83681
   3  -4   9 285.563 4.22134
   4  -4   9 23.0529 0.46091
  -3  -3   9 70.6123 1.34632
  -2  -3   9 15.6984 0.42872
  -1  -3   9 125.041 1.77936
   0  -3   9 2.95928 0.21325
   1  -3   9 107.350 1.69286
   2  -3   9 0.37765 0.15761
   3  -3   9 0.23687 0.16450
   4  -3   9 33.9246 0.62205
   5  -3   9 9.25612 0.28069
  -4  -2   9 82.4711 1.81016
  -3  -2   9 197.084 3.03315
  -2  -2   9 3.71791 0.21534
  -1  -2   9 65.6301 0.97075
   0  -2   9 109.890 1.47736
   1  -2   9 159.270 2.36982
   2  -2   9 277.010 3.52598
   3  -2   9 1140.78 16.5847
   4  -2   9 113.728 1.75150
   5  -2   9 18.7930 0.38236
  -4  -1   9 8.07301 0.37948
  -3  -1   9 68.8287 1.01314
  -2  -1   9 10.2241 0.36637
  -1  -1   9 12.8327 0.36080
   0  -1   9 430.704 5.20415
   1  -1   9 395.258 5.05662
   2  -1   9 51.8348 0.88927
   3  -1   9 28.8180 0.60646
   4  -1   9 235.947 3.30034
   5  -1   9 38.0974 0.66321
  -4   0   9 691.948 15.6483
  -3   0   9 45.9671 0.74558
  -2   0   9 63.8610 1.01375
  -1   0   9 4.38925 0.24939
   0   0   9 871.034 10.3315
   1   0   9 4.31050 0.25758
   2   0   9 110.885 1.66802
   3   0   9 0.72368 0.18480
   4   0   9 1073.76 14.4480
   5   0   9 39.7231 0.68006
   6   0   9 93.3769 2.44982
  -4   1   9 636.420 15.2166
  -3   1   9 596.702 7.03443
  -2   1   9 135.086 1.75162
  -1   1   9 89.0959 1.20934
   0   1   9 2.27402 0.18197
   1   1   9 427.781 5.65958
   2   1   9 2.49189 0.19426
   3   1   9 33.8723 0.70429
   4   1   9 368.209 5.03801
   5   1   9 2.01467 0.18426
  -4   2   9 25.8835 0.86411
  -3   2   9 130.920 1.74474
  -2   2   9 777.143 9.16618
  -1   2   9 116.100 1.51619
   0   2   9 24.2780 0.46319
   1   2   9 207.411 2.67905
   2   2   9 64.2731 1.02677
   3   2   9 159.403 2.29139
   4   2   9 170.545 2.44291
   5   2   9 304.434 4.52758
   6   2   9 22.3258 0.43171
  -4   3   9 141.525 3.46859
  -3   3   9 45.2536 0.77116
  -2   3   9 69.8733 1.03202
  -1   3   9 216.775 2.78322
   0   3   9 146.604 1.78131
   1   3   9 25.5922 0.58706
   2   3   9 1302.33 20.4032
   3   3   9 39.3226 0.69508
   4   3   9 2.43911 0.21422
   5   3   9 118.877 1.86299
   6   3   9 1.80844 0.13029
  -4   4   9 31.1529 0.97802
  -3   4   9 10.4939 0.33229
  -2   4   9 4.62346 0.26969
  -1   4   9 84.8043 1.27489
   0   4   9 4.82437 0.22382
   1   4   9 0.14378 0.15217
   2   4   9 2619.78 44.6653
   3   4   9 668.317 9.76526
   4   4   9 159.476 2.26252
   5   4   9 68.3013 1.08456
   6   4   9 63.3956 1.02304
  -4   5   9 11.6662 0.55535
  -3   5   9 27.8626 0.55899
  -2   5   9 3.09024 0.22316
  -1   5   9 156.548 2.28073
   0   5   9 9.10374 0.31451
   1   5   9 17.8318 0.44709
   3   5   9 947.425 14.2595
   4   5   9 395.696 5.61381
   5   5   9 65.4445 1.03764
   6   5   9 85.4319 1.33860
  -3   6   9 15.8732 0.39439
  -2   6   9 8.30430 0.34011
  -1   6   9 1.82128 0.18843
   0   6   9 809.091 10.8810
   1   6   9 154.325 2.62581
   2   6   9 218.431 5.47109
   3   6   9 60.5924 1.12597
   4   6   9 6.83528 0.33244
   5   6   9 9.30685 0.30865
   6   6   9 8.72157 0.26879
  -4   7   9 49.4159 1.67139
  -3   7   9 0.85437 0.14226
  -2   7   9 186.004 2.66580
  -1   7   9 75.4797 1.21494
   0   7   9 9.83076 0.35886
   1   7   9 484.163 7.13181
   2   7   9 437.647 10.7834
   3   7   9 2255.33 41.1006
   4   7   9 10.1685 0.37141
   5   7   9 81.1308 1.41778
  -3   8   9 4.05809 0.22345
  -2   8   9 19.1140 0.49132
  -1   8   9 767.609 11.2285
   0   8   9 118.927 1.75239
   1   8   9 11.6475 0.35848
   2   8   9 16.2496 0.52110
   3   8   9 45.8320 1.02023
   4   8   9 617.415 10.0082
   5   8   9 11.7497 0.33897
  -3   9   9 174.797 3.30120
  -2   9   9 0.58802 0.14368
  -1   9   9 98.7140 1.49210
   0   9   9 150.485 2.36167
   1   9   9 15.2463 0.45890
   2   9   9 281.614 5.53089
   3   9   9 8.00624 0.38850
   4   9   9 337.776 6.27341
   5   9   9 3.36240 0.20878
  -3  10   9 6.19072 0.36696
  -2  10   9 34.1496 0.63491
  -1  10   9 49.9356 0.83435
   0  10   9 0.25802 0.15700
   1  10   9 464.696 7.02040
   2  10   9 0.30617 0.19541
   3  10   9 12.7431 0.38140
   4  10   9 145.951 2.78485
   5  10   9 4.16194 0.20314
  -2  11   9 137.971 2.56425
  -1  11   9 6.25937 0.27362
   0  11   9 57.0584 0.99161
   1  11   9 335.646 5.10082
   2  11   9 0.36741 0.19065
   3  11   9 39.0507 0.73788
   4  11   9 10.2145 0.33247
  -2  12   9 60.2333 1.96114
  -1  12   9 165.907 2.71100
   0  12   9 23.1791 0.48783
   1  12   9 12.9105 0.33667
   2  12   9 29.9854 0.73083
   3  12   9 12.3713 0.30579
   4  12   9 2.39322 0.22363
  -1  13   9 3.84794 0.23666
   0  13   9 32.4175 0.70252
   1  13   9 41.2893 0.75756
   2  13   9 2.95781 0.21112
   3  13   9 2.56792 0.22709
   0  -7  10 14.2308 0.65146
   1  -7  10 14.0581 0.63865
  -1  -6  10 21.5666 0.55025
   0  -6  10 200.195 3.45824
   1  -6  10 157.086 5.44378
   2  -6  10 44.3969 1.04886
  -2  -5  10 215.055 3.87265
  -1  -5  10 123.573 2.00656
   0  -5  10 167.758 2.47303
   1  -5  10 20.7140 0.48641
   2  -5  10 169.640 2.99355
   3  -5  10 83.9895 1.88541
  -2  -4  10 25.4488 0.59095
  -1  -4  10 83.4132 1.18359
   0  -4  10 0.77403 0.16645
   1  -4  10 25.6465 0.50637
   2  -4  10 12.6611 0.34881
   3  -4  10 58.2622 1.03113
   4  -4  10 1.08775 0.15466
  -3  -3  10 0.15649 0.14615
  -2  -3  10 71.0958 1.51669
  -1  -3  10 152.808 1.95450
   0  -3  10 5.75101 0.29256
   1  -3  10 287.606 3.73895
   2  -3  10 3.90992 0.23711
   3  -3  10 85.7328 1.30479
   4  -3  10 96.1277 1.59280
  -3  -2  10 40.5562 0.81892
  -2  -2  10 19.8471 0.45801
  -1  -2  10 212.755 2.65805
   0  -2  10 68.7300 1.07746
   1  -2  10 17.4766 0.51251
   2  -2  10 13.8750 0.39889
   3  -2  10 289.802 4.00613
   4  -2  10 321.875 5.02363
   5  -2  10 85.7690 1.77350
  -3  -1  10 5.37731 0.29662
  -2  -1  10 23.0976 0.50296
  -1  -1  10 92.0918 1.36607
   0  -1  10 466.153 5.62873
   1  -1  10 81.9074 1.21491
   2  -1  10 410.436 6.01884
   3  -1  10 125.179 1.85973
   4  -1  10 0.71172 0.17184
   5  -1  10 1.29790 0.12246
  -3   0  10 114.255 1.53720
  -2   0  10 3.20823 0.20255
  -1   0  10 3.75222 0.24315
   0   0  10 466.141 5.61251
   1   0  10 684.566 9.43501
   2   0  10 64.9080 1.06527
   3   0  10 29.7556 0.61222
   4   0  10 105.133 1.71062
   5   0  10 61.5565 1.04629
  -4   1  10 49.8199 1.69257
  -3   1  10 125.444 1.58160
  -2   1  10 0.07387 0.17950
  -1   1  10 48.2154 0.82325
   0   1  10 59.9139 0.95580
   1   1  10 115.919 1.78126
   2   1  10 49.8532 1.01117
   3   1  10 3.88745 0.24871
   4   1  10 11.0764 0.34236
   5   1  10 80.7549 1.34563
  -4   2  10 211.842 6.66029
  -3   2  10 199.185 2.52910
  -2   2  10 25.4073 0.48092
  -1   2  10 131.776 1.70848
   0   2  10 17.5997 0.42566
   1   2  10 2041.13 27.6968
   2   2  10 545.593 8.43025
   3   2  10 549.475 8.12572
   4   2  10 8.43801 0.32760
   5   2  10 74.4126 1.25304
  -4   3  10 32.3596 1.19681
  -3   3  10 142.072 1.96023
  -2   3  10 517.095 6.76857
  -1   3  10 35.1188 0.61514
   0   3  10 2.10243 0.18529
   1   3  10 7.35655 0.36493
   2   3  10 795.776 12.2933
   3   3  10 804.401 11.7187
   4   3  10 9.82885 0.35380
   5   3  10 68.2975 1.16951
  -4   4  10 19.8966 0.83107
  -3   4  10 1.55944 0.15664
  -2   4  10 259.007 3.49133
  -1   4  10 547.729 7.15102
   0   4  10 248.917 3.70785
   1   4  10 6.38396 0.30268
   2   4  10 1993.05 33.9099
   3   4  10 1024.85 14.9120
   4   4  10 15.0240 0.40363
   5   4  10 106.288 1.74126
   6   4  10 0.33152 0.21550
  -4   5  10 1.41500 0.26701
  -3   5  10 0.37174 0.14301
  -2   5  10 76.4579 1.21953
  -1   5  10 136.071 2.01262
   0   5  10 617.476 8.35914
   1   5  10 46.2599 0.88664
   3   5  10 208.839 3.62366
   4   5  10 0.66978 0.16340
   5   5  10 37.7235 0.70210
  -3   6  10 2.93939 0.19927
  -1   6  10 17.5951 0.45532
   0   6  10 173.833 2.49638
   1   6  10 0.28423 0.16374
   3   6  10 282.807 5.22903
   4   6  10 191.281 3.18315
   5   6  10 142.729 2.37893
  -3   7  10 2.89157 0.18567
  -2   7  10 56.1792 0.93663
  -1   7  10 139.491 2.05160
   0   7  10 407.732 6.03716
   1   7  10 16.7500 0.46698
   3   7  10 265.711 4.98036
   4   7  10 48.3728 0.91958
   5   7  10 21.4985 0.46750
  -3   8  10 0.34722 0.14199
  -2   8  10 54.9609 0.97046
  -1   8  10 116.891 1.88607
   0   8  10 577.951 8.46948
   1   8  10 0.09419 0.14802
   3   8  10 486.979 8.99552
   4   8  10 126.448 2.43732
   5   8  10 30.1335 0.57784
  -3   9  10 22.2390 0.83749
  -2   9  10 1.56595 0.16558
  -1   9  10 29.7207 0.62868
   0   9  10 268.249 4.46521
   1   9  10 86.4632 1.59257
   2   9  10 19.1473 0.56236
   3   9  10 48.7917 1.05381
   4   9  10 80.2073 1.58442
   5   9  10 36.9527 0.75552
  -2  10  10 84.2962 1.62419
  -1  10  10 9.44569 0.32823
   0  10  10 148.669 2.29876
   1  10  10 256.194 4.34962
   2  10  10 0.68146 0.18682
   3  10  10 84.7575 2.23892
   4  10  10 1.05420 0.16660
  -2  11  10 43.2067 1.03497
  -1  11  10 117.137 1.95415
   0  11  10 4.47317 0.25179
   1  11  10 56.2058 1.06812
   2  11  10 383.187 7.41454
   3  11  10 292.956 5.68535
   4  11  10 2.94622 0.19277
  -1  12  10 3.80591 0.21233
   0  12  10 189.907 3.57744
   1  12  10 2.28238 0.17686
   2  12  10 65.4193 1.35955
   3  12  10 0.94494 0.12791
   0  13  10 115.081 2.17434
   1  13  10 67.6193 1.65975
   2  13  10 4.13945 0.25207
   1  -6  11 44.2877 1.61963
  -1  -5  11 7.62362 0.27616
   0  -5  11 22.7534 0.50891
   1  -5  11 59.6196 1.40790
   2  -5  11 36.0517 1.39399
  -2  -4  11 31.7254 0.90957
  -1  -4  11 183.892 3.34133
   0  -4  11 238.054 3.75500
   1  -4  11 100.830 1.59320
   2  -4  11 16.4119 0.45322
   3  -4  11 215.383 3.71853
  -2  -3  11 67.2310 1.51883
  -1  -3  11 129.157 1.93722
   0  -3  11 829.198 10.3614
   1  -3  11 54.6195 1.01205
   2  -3  11 29.1400 0.65178
   3  -3  11 1.52929 0.15215
   4  -3  11 121.136 2.30823
  -2  -2  11 26.2554 0.79667
  -1  -2  11 30.4624 0.57285
   0  -2  11 12.2880 0.36516
   1  -2  11 382.900 5.33563
   2  -2  11 54.9648 1.07513
   3  -2  11 33.0585 0.59876
   4  -2  11 110.114 1.97965
  -3  -1  11 0.49170 0.15093
  -2  -1  11 1.80216 0.19367
  -1  -1  11 16.4702 0.43318
   0  -1  11 183.397 2.45875
   1  -1  11 202.168 2.95485
   2  -1  11 546.145 8.46922
   3  -1  11 23.9312 0.50136
   4  -1  11 90.6558 1.52695
   5  -1  11 45.0412 1.33589
  -3   0  11 22.5702 0.48916
  -2   0  11 13.8038 0.37003
  -1   0  11 0.16484 0.17462
   0   0  11 3.87620 0.22115
   1   0  11 664.546 9.17705
   2   0  11 174.040 2.86750
   3   0  11 54.8227 0.91097
   4   0  11 58.8573 1.00199
   5   0  11 20.0606 0.44037
  -3   1  11 170.405 3.00116
  -2   1  11 72.4931 0.99106
  -1   1  11 99.5568 1.45179
   0   1  11 88.6011 1.32276
   1   1  11 34.3182 0.70569
   2   1  11 675.826 10.4354
   3   1  11 545.212 8.02558
   4   1  11 13.4726 0.39159
   5   1  11 123.939 2.18874
  -3   2  11 0.52290 0.17662
  -1   2  11 32.7870 0.62558
   0   2  11 203.576 2.73755
   1   2  11 770.766 10.5972
   2   2  11 612.883 9.45675
   3   2  11 18.8456 0.48013
   4   2  11 56.6677 1.06947
   5   2  11 84.0053 1.36693
  -3   3  11 6.28249 0.32956
  -2   3  11 225.016 3.03661
  -1   3  11 597.007 8.51913
   0   3  11 10.2712 0.34284
   1   3  11 140.752 2.33058
   2   3  11 0.40526 0.18189
   3   3  11 5.37775 0.31204
   4   3  11 119.114 2.18759
   5   3  11 29.6570 0.56034
  -3   4  11 0.45429 0.18827
  -2   4  11 41.0240 0.75210
  -1   4  11 0.17311 0.14707
   0   4  11 468.633 6.74905
   1   4  11 0.76830 0.16514
   2   4  11 291.474 6.00043
   3   4  11 7.50642 0.33090
   4   4  11 66.2983 1.28576
   5   4  11 136.952 2.17056
  -3   5  11 14.4770 0.42964
  -2   5  11 20.8273 0.46368
  -1   5  11 5.01377 0.27056
   0   5  11 39.8020 0.82962
   1   5  11 339.216 5.65420
   3   5  11 23.4816 0.89419
   4   5  11 180.493 3.13188
   5   5  11 4.48953 0.20277
  -3   6  11 73.4767 1.71107
  -2   6  11 104.813 1.55970
  -1   6  11 666.647 9.01213
   0   6  11 75.8358 1.19835
   1   6  11 267.703 6.00607
   3   6  11 0.29786 0.16528
   4   6  11 351.035 6.45196
   5   6  11 0.32915 0.13732
  -3   7  11 74.9300 1.72297
  -2   7  11 61.1867 0.96949
  -1   7  11 1.31555 0.17113
   0   7  11 43.1580 0.81940
   1   7  11 93.1420 2.48028
   4   7  11 55.8428 1.34811
   5   7  11 53.4220 1.04991
  -3   8  11 0.74933 0.18074
  -2   8  11 119.236 2.00650
  -1   8  11 37.3796 0.72690
   0   8  11 7.71018 0.32106
   1   8  11 0.20686 0.16367
   3   8  11 0.22716 0.19177
   4   8  11 47.0577 0.97521
   5   8  11 1.65516 0.15507
  -2   9  11 82.5804 1.92169
  -1   9  11 5.79383 0.27442
   0   9  11 14.6601 0.43651
   1   9  11 171.856 4.28362
   3   9  11 0.52401 0.21669
   4   9  11 55.3900 1.11272
  -2  10  11 68.1969 1.57779
  -1  10  11 89.9619 1.74149
   0  10  11 433.756 7.03327
   1  10  11 3.40803 0.54757
   2  10  11 14.2892 0.52845
   3  10  11 55.3657 1.48771
   4  10  11 18.0363 0.42405
  -1  11  11 1.96641 0.18597
   0  11  11 12.0311 0.44374
   1  11  11 3.22267 0.31134
   2  11  11 354.401 8.21526
   3  11  11 1.99861 0.20321
   0  12  11 0.89202 0.14884
   1  12  11 2.16137 0.21662
   2  12  11 1.64383 0.17237
   0  -4  12 76.6617 1.74900
   1  -4  12 102.650 2.31821
   2  -4  12 0.62448 0.20832
  -1  -3  12 26.7210 0.68357
   0  -3  12 414.719 6.44329
   1  -3  12 292.146 4.82582
   2  -3  12 23.0189 0.66326
   3  -3  12 0.47262 0.14292
  -2  -2  12 92.3988 1.99051
  -1  -2  12 0.62941 0.18040
   0  -2  12 27.8227 0.51581
   1  -2  12 348.739 4.84527
   2  -2  12 256.362 4.28070
   3  -2  12 2.27054 0.22461
  -2  -1  12 3.65528 0.38431
  -1  -1  12 1.42676 0.18721
   0  -1  12 643.713 8.05410
   1  -1  12 0.62033 0.18249
   2  -1  12 165.316 3.01051
   3  -1  12 124.707 2.18459
   4  -1  12 0.33440 0.10856
  -2   0  12 3.73399 0.28777
  -1   0  12 606.395 7.71082
   0   0  12 172.915 2.49675
   1   0  12 509.656 7.07415
   2   0  12 71.2640 1.29602
   3   0  12 57.8935 1.18029
   4   0  12 6.50425 0.26018
  -2   1  12 84.0921 1.30688
  -1   1  12 19.7944 0.44191
   0   1  12 6.04058 0.31471
   1   1  12 350.523 4.92899
   2   1  12 68.7116 1.25935
   3   1  12 107.933 2.02570
   4   1  12 7.90339 0.29782
  -2   2  12 83.4266 1.37650
  -1   2  12 58.9511 0.91864
   0   2  12 105.142 1.50484
   1   2  12 38.3272 0.82052
   2   2  12 466.922 7.25342
   3   2  12 0.07947 0.19431
   4   2  12 3.31125 0.22132
   5   2  12 7.37196 0.22818
   0   3  12 365.888 4.97311
   1   3  12 8.04532 0.37689
   2   3  12 138.459 2.99689
   3   3  12 224.861 4.54070
   4   3  12 18.9519 0.47846
   5   3  12 102.467 1.79454
  -2   4  12 47.3598 0.82736
  -1   4  12 0.10332 0.12445
   0   4  12 9.52148 0.36514
   1   4  12 31.8217 0.85730
   2   4  12 129.210 4.05073
   3   4  12 788.727 15.4430
   4   4  12 138.659 2.46307
   5   4  12 8.00256 0.27046
  -2   5  12 168.540 2.53586
  -1   5  12 7.26133 0.28479
   0   5  12 264.974 4.08747
   1   5  12 99.2291 2.77748
   4   5  12 128.326 2.84835
   5   5  12 0.89849 0.13679
  -2   6  12 27.6041 0.53989
  -1   6  12 11.2689 0.33115
   0   6  12 130.770 2.33817
   4   6  12 3.65796 0.26781
  -2   7  12 7.17573 0.30490
  -1   7  12 46.9599 0.83919
   0   7  12 84.5801 1.38350
   4   7  12 10.9873 0.48247
  -2   8  12 0.72663 0.14817
  -1   8  12 52.1061 0.97013
   0   8  12 21.8330 0.52812
   4   8  12 17.4857 0.63051
  -2   9  12 12.3472 0.37042
  -1   9  12 52.1261 1.06038
   0   9  12 19.2714 0.51559
   1   9  12 4.10209 0.41420
  -1  10  12 0.94495 0.15020
   0  10  12 27.4671 0.74647
   1  10  12 18.2815 0.79006
   0  11  12 104.220 2.36150
   1  11  12 125.558 4.00774
   0  -2  13 3.71127 0.36626
   1  -2  13 219.406 4.83147
   2  -2  13 41.2168 1.00721
  -1  -1  13 3.74562 0.24777
   0  -1  13 0.43192 0.16929
   1  -1  13 43.1665 0.85180
   2  -1  13 120.673 2.35943
   3  -1  13 94.0294 2.14400
  -1   0  13 136.318 2.93185
   0   0  13 0.31557 0.15206
   1   0  13 239.207 3.55161
   2   0  13 11.9990 0.42868
   3   0  13 331.745 7.25408
  -2   1  13 177.065 5.53563
  -1   1  13 28.8904 0.60440
   0   1  13 3.37278 0.21203
   1   1  13 19.5821 0.52532
   2   1  13 28.4380 0.61470
   3   1  13 6.08778 0.31704
   4   1  13 8.96712 0.33838
  -2   2  13 102.176 3.26323
  -1   2  13 4.51271 0.25480
   0   2  13 80.7663 1.23636
   1   2  13 264.896 4.11846
   2   2  13 331.909 5.18321
   3   2  13 41.6910 0.93687
   4   2  13 3.31197 0.26383
  -2   3  13 104.655 3.35206
  -1   3  13 30.4741 0.68832
   0   3  13 17.4892 0.48522
   1   3  13 43.6639 0.97424
   2   3  13 47.1282 1.18117
   3   3  13 40.4826 1.04776
   4   3  13 185.566 4.10964
  -2   4  13 0.50496 0.22697
  -1   4  13 655.631 10.6253
   0   4  13 3.49431 0.27281
   1   4  13 268.438 6.77971
   3   4  13 55.6695 1.78433
   4   4  13 57.2289 1.34093
  -2   5  13 17.2482 0.70524
  -1   5  13 11.4507 0.38939
   0   5  13 104.071 1.70788
   1   5  13 0.06503 0.27240
   4   5  13 222.629 7.54570
  -2   6  13 108.023 3.43594
  -1   6  13 16.6267 0.40405
   0   6  13 7.25263 0.35612
  -1   7  13 171.980 3.15597
   0   7  13 23.2810 0.61396
  -1   8  13 12.7929 0.40986
   0   8  13 33.6508 0.72353
  -1   9  13 134.269 2.99914
   0   9  13 121.872 2.74429
   0  10  13 1.23739 0.13032
   0   0  14 48.0224 1.94550
   1   0  14 3.42690 0.34053
   2   0  14 14.3660 0.57989
   0   1  14 61.9262 1.87656
   1   1  14 5.06308 0.40157
   2   1  14 219.953 6.35294
   3   1  14 114.684 3.37103
   0   2  14 97.5664 2.12905
   1   2  14 209.363 6.06797
   2   2  14 9.37240 0.50446
   3   2  14 77.8870 2.32964
  -1   3  14 21.5200 0.81630
   0   3  14 42.3385 1.45998
   1   3  14 0.51906 0.23766
   2   3  14 21.7571 0.80613
   3   3  14 65.0156 1.97081
  -1   4  14 10.5424 0.52369
   0   4  14 9.32438 0.52470
  -1   5  14 9.91101 0.49422
   0   5  14 142.878 4.52345
   0   6  14 43.1881 1.46808
   0   7  14 32.7435 1.13131
   0   0   0 0.00000 0.00000
;
_shelx_res_checksum              47516
_shelx_res_file
;
REM TRY     49   FINAL CC 60.17   TIME       1 SECS
REM Fragments: 4 2 1 1 1 1 1 1 1
REM
TITL solve in P-1
CELL 1.54178   5.57076  11.68726  12.14897   70.9901   78.9111   84.6273
REM CELL 1.54178 5.5707   11.6884   12.1499   70.9876   78.9069   84.6336
ZERR    2.00   0.00004   0.00009   0.00009    0.0003    0.0003    0.0003
LATT  1
SFAC C H N F O
DISP $C  0.01916  0.00957 89.8801!source kissel
DISP $H -0.00001  0.00000 0.654994!source kissel
DISP $N  0.03298  0.01886 172.961!source kissel
DISP $F  0.07549  0.05534 497.888!source kissel
DISP $O  0.05170  0.03357 303.933!source kissel
UNIT 26 28 12 4 4
TEMP -173.000
FMAP
LIST 4
ACTA
BOND $H
L.S. 10
DFIX 0.84 0.01 O1W H1W O1W H2W
DANG 1.34 0.01 H1W H2W
REM SADI 0.02 O1W H1W H2W O1W
REM SHEL 999 0.835
REM WGHT 0.064000 1.030500
REM WGHT 0.039400 0.363400
WGHT    0.000000
FVAR       1.29139
C1    1    0.343938    0.322748    0.711381    11.00000    0.01267    0.01454 =
         0.01761   -0.00182   -0.00203    0.00106
H1W   2    0.526788    0.327227    1.011067    11.00000   -1.50000
F1    4    0.024261    0.369264    0.541280    11.00000    0.02265    0.02122 =
         0.02505   -0.00821   -0.01241    0.00409
N1    3    0.272015    0.518172    0.758309    11.00000    0.01467    0.01394 =
         0.01839   -0.00277   -0.00375   -0.00094
O1    5    0.551816    0.291383    0.766588    11.00000    0.01139    0.02487 =
         0.01898   -0.00520   -0.00331    0.00123
AFIX 148
H1    2    0.513144    0.290540    0.837218    11.00000   -1.50000
AFIX   0
C2    1    0.389643    0.273650    0.606590    11.00000    0.01718    0.01498 =
         0.01263   -0.00380   -0.00307   -0.00554
H2W   2    0.555718    0.207713    1.036293    11.00000   -1.50000
F2    4    0.497632    0.135593    0.326671    11.00000    0.05000    0.04067 =
         0.02663   -0.02121   -0.00143   -0.00104
N2    3    0.041449    0.557359    0.795386    11.00000    0.01488    0.01929 =
         0.02411   -0.00506   -0.00317    0.00122
C3    1    0.228061    0.298460    0.527338    11.00000    0.01807    0.01458 =
         0.01658   -0.00244   -0.00486   -0.00191
N3    3    0.312439    0.597329    0.894645    11.00000    0.02346    0.01641 =
         0.02311   -0.00473   -0.00553   -0.00119
C4    1    0.259987    0.254324    0.432438    11.00000    0.02822    0.01876 =
         0.01874   -0.00024   -0.00216   -0.00380
AFIX  43
H4    2    0.147033    0.274398    0.379013    11.00000   -1.20000
AFIX   0
N4    3    0.133248    0.135720    0.833366    11.00000    0.01452    0.01562 =
         0.01541   -0.00261   -0.00221   -0.00109
C5    1    0.463168    0.179931    0.419049    11.00000    0.03178    0.02202 =
         0.02191   -0.00635    0.00587   -0.00481
N5    3    0.011066    0.073529    0.784122    11.00000    0.02167    0.01884 =
         0.02823   -0.00602   -0.00629   -0.00323
C6    1    0.628690    0.149543    0.496067    11.00000    0.02226    0.02201 =
         0.03018   -0.00939    0.00423    0.00120
AFIX  43
H6    2    0.766220    0.097288    0.485398    11.00000   -1.20000
AFIX   0
N6    3    0.250556   -0.053923    0.904936    11.00000    0.03235    0.01784 =
         0.02048   -0.00309   -0.00674    0.00140
C7    1    0.590229    0.197090    0.590105    11.00000    0.01784    0.02083 =
         0.01922   -0.00610   -0.00407   -0.00334
AFIX  43
H7    2    0.703072    0.176720    0.643596    11.00000   -1.20000
AFIX   0
C8    1    0.319130    0.462699    0.664968    11.00000    0.02274    0.01511 =
         0.01432   -0.00450   -0.00489   -0.00307
AFIX  23
H8A   2    0.471859    0.494705    0.610872    11.00000   -1.20000
H8B   2    0.183873    0.486120    0.618873    11.00000   -1.20000
AFIX   0
O1W   5    0.475479    0.268021    0.998356    11.00000    0.02731    0.01631 =
         0.02563   -0.00458   -0.01009    0.00234
C13   1    0.273430    0.058346    0.903390    11.00000    0.02528    0.01587 =
         0.02212   -0.00165   -0.00818    0.00082
AFIX  43
H13   2    0.376146    0.080730    0.946487    11.00000   -1.20000
AFIX   0
C12   1    0.088231   -0.039008    0.831018    11.00000    0.03287    0.01778 =
         0.02385   -0.00857   -0.00570   -0.00346
AFIX  43
H12   2    0.033703   -0.105108    0.814116    11.00000   -1.20000
AFIX   0
C11   1    0.113464    0.267037    0.798461    11.00000    0.01232    0.01414 =
         0.01697   -0.00265   -0.00284    0.00095
AFIX  23
H11A  2    0.093467    0.293511    0.869350    11.00000   -1.20000
H11B  2   -0.032784    0.295880    0.760646    11.00000   -1.20000
AFIX   0
C10   1    0.430041    0.542981    0.818199    11.00000    0.01683    0.01551 =
         0.02112   -0.00315   -0.00658   -0.00286
AFIX  43
H10   2    0.600888    0.524292    0.807307    11.00000   -1.20000
AFIX   0
C9    1    0.077934    0.604398    0.876817    11.00000    0.02243    0.01896 =
         0.01972   -0.00675   -0.00486    0.00126
AFIX  43
H9    2   -0.051177    0.640328    0.919351    11.00000   -1.20000
REM #####
AFIX   0
HKLF 4
REM  solve in P-1
REM R1 =  0.0459 for    2762 Fo > 4sig(Fo)  and  0.0468 for all    2824 data
REM    216 parameters refined using      3 restraints
END
WGHT      0.0534      0.7843
REM Highest difference peak  0.433,  deepest hole -0.526,  1-sigma level  0.099
Q1    1   0.3884  0.2920  0.6425  11.00000  0.05    0.38
Q2    1   0.2324  0.2925  0.7563  11.00000  0.05    0.36
Q3    1   0.5730  0.1745  0.5614  11.00000  0.05    0.36
Q4    1   0.3076  0.2655  0.5828  11.00000  0.05    0.31
Q5    1   0.5725  0.1295  0.5613  11.00000  0.05    0.30
Q6    1   0.3897  0.3078  0.7230  11.00000  0.05    0.29
Q7    1   0.6249  0.2291  0.7574  11.00000  0.05    0.27
Q8    1   0.3275  0.3710  0.6961  11.00000  0.05    0.26
Q9    1   0.5357  0.2181  0.2345  11.00000  0.05    0.25
Q10   1   0.1243  0.1993  0.8166  11.00000  0.05    0.24
Q11   1   0.3067  0.2805  0.7960  11.00000  0.05    0.24
Q12   1   0.3323 -0.1160  0.9180  11.00000  0.05    0.23
Q13   1   0.4575  0.0970  0.5981  11.00000  0.05    0.23
Q14   1   0.3948 -0.0964  0.8863  11.00000  0.05    0.22
Q15   1  -0.0683 -0.1302  0.8624  11.00000  0.05    0.22
Q16   1   0.4223  0.1981  0.6416  11.00000  0.05    0.22
Q17   1   0.4542  0.3363  0.9135  11.00000  0.05    0.21
Q18   1  -0.1135 -0.0776  0.9274  11.00000  0.05    0.21
Q19   1   0.1172 -0.0595  0.8987  11.00000  0.05    0.21
Q20   1   0.4696  0.1216  0.5000  11.00000  0.05    0.21
;
_shelxl_version_number           .02013
#END Tags that were not found in dictionaries
loop_
_space_group_symop_id
_space_group_symop_operation_xyz
1 +X,+Y,+Z
2 -X,-Y,-Z
loop_
_atom_site_label
_atom_site_fract_x
_atom_site_fract_y
_atom_site_fract_z
_atom_site_U_iso_or_equiv
_atom_site_adp_type
_atom_site_occupancy
F1 0.02430(6) 0.36905(3) 0.54117(3) 0.01830(10) Uani 1.0000000
F2 0.49844(8) 0.13584(4) 0.32713(3) 0.03310(10) Uani 1.0000000
O1 0.55125(7) 0.29170(3) 0.76741(4) 0.01440(10) Uani 1.0000000
O1W 0.47602(8) 0.26775(4) 0.99853(4) 0.01840(10) Uani 1.0000000
N1 0.27214(8) 0.51823(4) 0.75840(4) 0.01240(10) Uani 1.0000000
N2 0.04306(9) 0.55754(4) 0.79541(4) 0.01580(10) Uani 1.0000000
N3 0.31193(9) 0.59694(4) 0.89405(4) 0.01670(10) Uani 1.0000000
N4 0.13255(8) 0.13578(4) 0.83287(4) 0.01220(10) Uani 1.0000000
N5 0.01210(9) 0.07372(4) 0.78470(4) 0.01860(10) Uani 1.0000000
N6 0.25040(10) -0.05360(4) 0.90512(4) 0.0203(2) Uani 1.0000000
C1 0.34472(9) 0.32300(4) 0.71163(4) 0.01120(10) Uani 1.0000000
C2 0.38880(10) 0.27391(4) 0.60684(4) 0.0120(2) Uani 1.0000000
C3 0.22710(10) 0.29855(4) 0.52696(5) 0.0139(2) Uani 1.0000000
C4 0.25900(10) 0.25435(5) 0.43193(5) 0.0187(2) Uani 1.0000000
C5 0.46340(10) 0.17972(5) 0.41851(5) 0.0214(2) Uani 1.0000000
C6 0.62920(10) 0.14936(6) 0.49580(5) 0.0216(2) Uani 1.0000000
C7 0.59040(10) 0.19682(5) 0.58985(5) 0.0163(2) Uani 1.0000000
C8 0.31870(10) 0.46267(5) 0.66483(5) 0.0142(2) Uani 1.0000000
C13 0.27330(10) 0.05873(5) 0.90351(5) 0.0187(2) Uani 1.0000000
C12 0.08820(10) -0.03928(5) 0.83100(5) 0.0213(2) Uani 1.0000000
C11 0.11430(10) 0.26708(4) 0.79882(5) 0.0118(2) Uani 1.0000000
C10 0.42930(10) 0.54275(5) 0.81781(5) 0.0150(2) Uani 1.0000000
C9 0.07650(10) 0.60433(5) 0.87674(5) 0.0178(2) Uani 1.0000000
H1 0.511(2) 0.2908(9) 0.8513(9) 0.025(3) Uani 1.0000000
H2 0.561(2) 0.1941(9) 1.0340(10) 0.036(4) Uani 1.0000000
H3 0.539(2) 0.3245(9) 1.0239(9) 0.033(3) Uani 1.0000000
H4 0.130(2) 0.2789(8) 0.3720(8) 0.040(3) Uani 1.0000000
H6 0.783(2) 0.0899(9) 0.4836(9) 0.047(4) Uani 1.0000000
H7 0.717(2) 0.1732(8) 0.6520(8) 0.034(3) Uani 1.0000000
H8B 0.172(2) 0.4927(7) 0.6150(8) 0.037(3) Uani 1.0000000
H8A 0.491(2) 0.4944(7) 0.6088(7) 0.035(3) Uani 1.0000000
H13 0.384(2) 0.0864(8) 0.9512(9) 0.049(3) Uani 1.0000000
H12 0.025(2) -0.1124(8) 0.8117(9) 0.050(4) Uani 1.0000000
H11B -0.048(2) 0.2961(7) 0.7600(7) 0.030(3) Uani 1.0000000
H11A 0.095(2) 0.2926(7) 0.8771(7) 0.032(3) Uani 1.0000000
H10 0.618(2) 0.5226(8) 0.8037(8) 0.038(3) Uani 1.0000000
H9 -0.074(2) 0.6444(9) 0.9219(8) 0.041(3) Uani 1.0000000
loop_
_atom_site_aniso_label
_atom_site_aniso_U_11
_atom_site_aniso_U_22
_atom_site_aniso_U_33
_atom_site_aniso_U_12
_atom_site_aniso_U_13
_atom_site_aniso_U_23
F1 0.0163(6) 0.0177(5) 0.0210(7) 0.0011(4) -0.0081(5) 0.0002(5)
F2 0.0458(9) 0.0302(7) 0.0234(8) -0.0002(6) 0.0003(7) -0.0124(6)
O1 0.0075(7) 0.0192(6) 0.0164(8) 0.0005(5) -0.0017(6) -0.0005(6)
O1W 0.0215(8) 0.0163(7) 0.0174(9) -0.0015(7) -0.0072(7) -0.0009(7)
N1 0.0112(8) 0.0115(7) 0.0145(8) -0.0018(6) -0.0021(6) 0.0012(6)
N2 0.0110(8) 0.0175(7) 0.0188(9) -0.0004(6) -0.0032(7) -0.0007(7)
N3 0.0174(9) 0.0139(7) 0.0187(9) -0.0032(6) -0.0047(7) -0.0021(7)
N4 0.0118(8) 0.0126(7) 0.0121(8) -0.0005(6) -0.0005(6) 0.0024(6)
N5 0.0182(9) 0.0151(7) 0.0220(10) -0.0025(7) -0.0060(7) 0.0024(7)
N6 0.0290(10) 0.0131(7) 0.0192(9) 0.0018(7) -0.0052(8) 0.0044(7)
C1 0.0092(9) 0.0127(8) 0.0120(10) -0.0006(6) -0.0012(7) 0.0008(7)
C2 0.0111(9) 0.0135(7) 0.0116(9) -0.0008(7) -0.0005(7) 0.0002(7)
C3 0.0147(9) 0.0145(8) 0.0120(10) -0.0015(7) -0.0029(8) 0.0008(7)
C4 0.0230(10) 0.0189(9) 0.0140(10) -0.0033(8) -0.0034(9) -0.0005(8)
C5 0.0270(10) 0.0206(9) 0.0160(10) -0.0015(8) 0.0017(9) -0.0044(8)
C6 0.0210(10) 0.0199(9) 0.0240(10) 0.0027(9) 0.0034(9) -0.0059(9)
C7 0.0130(10) 0.0172(8) 0.0190(10) 0.0016(7) 0.0000(8) -0.0023(8)
C8 0.0170(10) 0.0134(8) 0.0130(10) -0.0030(7) -0.0019(9) 0.0019(7)
C13 0.0220(10) 0.0145(8) 0.0200(10) -0.0008(8) -0.0085(9) 0.0047(8)
C12 0.0280(10) 0.0127(8) 0.0230(10) -0.0031(8) -0.0046(9) 0.0011(8)
C11 0.0090(10) 0.0133(8) 0.0130(10) 0.0009(7) 0.0000(8) 0.0013(7)
C10 0.0110(10) 0.0146(8) 0.0200(10) -0.0023(7) -0.0027(8) -0.0008(8)
C9 0.0170(10) 0.0169(8) 0.0200(10) 0.0010(8) -0.0012(8) -0.0023(8)
H1 0.03(2) 0.03(2) 0.02(2) -0.01(2) -0.01(2) -0.01(2)
H2 0.04(2) 0.01(2) 0.05(3) 0.01(2) 0.00(2) 0.01(2)
H3 0.04(2) 0.02(2) 0.04(3) -0.01(2) -0.01(2) 0.00(2)
H4 0.04(2) 0.04(2) 0.04(2) 0.00(2) -0.02(2) 0.01(2)
H6 0.04(2) 0.04(2) 0.05(3) 0.01(2) 0.01(2) -0.01(2)
H7 0.02(2) 0.03(2) 0.05(2) 0.010(10) 0.00(2) 0.00(2)
H8A 0.05(2) 0.020(10) 0.04(2) 0.000(10) -0.02(2) 0.000(10)
H8B 0.04(2) 0.03(2) 0.03(2) -0.01(2) 0.01(2) 0.000(10)
H13 0.05(2) 0.03(2) 0.07(3) -0.01(2) -0.03(2) 0.02(2)
H12 0.07(3) 0.03(2) 0.06(3) -0.02(2) -0.02(2) 0.00(2)
H11B 0.02(2) 0.04(2) 0.04(2) 0.000(10) 0.000(10) 0.010(10)
H11A 0.03(2) 0.030(10) 0.03(2) 0.000(10) 0.000(10) 0.00(2)
H10 0.03(2) 0.04(2) 0.05(2) -0.01(2) 0.00(2) -0.01(2)
H9 0.04(2) 0.04(2) 0.05(2) 0.00(2) 0.00(2) -0.02(2)
loop_
_geom_angle_atom_site_label_1
_geom_angle_atom_site_label_2
_geom_angle_atom_site_label_3
_geom_angle
_geom_angle_publ_flag
N2 N1 C10 109.55(5) no
N2 N1 C8 120.91(4) yes
C8 N1 C10 129.51(5) yes
N1 N2 C9 102.92(5) yes
C9 N3 C10 103.15(5) yes
C11 N4 C13 129.11(5) no
N5 N4 C11 121.28(4) no
N5 N4 C13 109.41(5) no
N4 N5 C12 102.82(5) no
C12 N6 C13 102.59(5) no
O1 C1 C8 108.37(4) yes
O1 C1 C2 108.02(4) yes
O1 C1 C11 110.23(4) no
F1 C3 C4 116.59(5) no
C2 C3 C4 124.04(5) no
F1 C3 C2 119.37(5) yes
C3 C4 C5 116.88(5) no
F2 C5 C4 118.01(5) no
F2 C5 C6 119.73(5) no
C4 C5 C6 122.26(6) no
C5 C6 C7 118.82(6) no
C2 C7 C6 121.38(5) no
N1 C8 C1 113.12(4) no
N1 C10 N3 110.17(5) yes
N4 C11 C1 110.64(4) no
N4 C13 N6 110.60(5) no
N5 C12 N6 114.58(5) no
N2 C9 N3 114.20(5) yes
loop_
_geom_bond_atom_site_label_1
_geom_bond_atom_site_label_2
_geom_bond_site_symmetry_1
_geom_bond_site_symmetry_2
_geom_bond_distance
_geom_bond_publ_flag
F1 C3 1_555 1_555 1.3520(7) yes
F2 C5 1_555 1_555 1.3426(7) yes
O1 C1 1_555 1_555 1.4058(7) yes
O1 H1 1_555 1_555 1.007(11) yes
O1W H2 1_555 1_555 0.958(11) no
O1W H3 1_555 1_555 0.940(11) no
N1 N2 1_555 1_555 1.3588(7) yes
N1 C8 1_555 1_555 1.4550(8) yes
N1 C10 1_555 1_555 1.3398(8) yes
N2 C9 1_555 1_555 1.3240(8) yes
N3 C10 1_555 1_555 1.3261(8) yes
N3 C9 1_555 1_555 1.3582(8) yes
N4 N5 1_555 1_555 1.3558(7) yes
N4 C13 1_555 1_555 1.3367(7) no
N4 C11 1_555 1_555 1.4524(8) no
N5 C12 1_555 1_555 1.3205(8) no
N6 C13 1_555 1_555 1.3243(8) no
N6 C12 1_555 1_555 1.3571(8) no
C1 C2 1_555 1_555 1.5301(7) yes
C1 C8 1_555 1_555 1.5461(8) no
C1 C11 1_555 1_555 1.5426(8) no
C2 C3 1_555 1_555 1.3931(8) yes
C2 C7 1_555 1_555 1.3985(8) no
C3 C4 1_555 1_555 1.3874(8) no
C4 C5 1_555 1_555 1.3852(8) no
C4 H4 1_555 1_555 1.071(10) no
C5 C6 1_555 1_555 1.3839(8) no
C6 C7 1_555 1_555 1.3986(9) no
C6 H6 1_555 1_555 1.074(11) no
C7 H7 1_555 1_555 1.077(10) no
C8 H8B 1_555 1_555 1.070(11) no
C8 H8A 1_555 1_555 1.080(11) no
C13 H13 1_555 1_555 1.063(11) no
C12 H12 1_555 1_555 1.059(10) no
C11 H11B 1_555 1_555 1.069(11) no
C11 H11A 1_555 1_555 1.068(9) no
C10 H10 1_555 1_555 1.055(11) no
C9 H9 1_555 1_555 1.066(11) no
loop_
_geom_torsion_atom_site_label_1
_geom_torsion_atom_site_label_2
_geom_torsion_atom_site_label_3
_geom_torsion_atom_site_label_4
_geom_torsion
_geom_torsion_publ_flag
C8 N1 N2 C9 -178.27(5) no
C10 N1 N2 C9 -0.05(6) no
N2 N1 C8 C1 -101.66(6) no
C10 N1 C8 C1 80.51(7) no
N2 N1 C10 N3 0.28(7) no
C8 N1 C10 N3 178.30(5) no
N1 N2 C9 N3 -0.20(6) no
C10 N3 C9 N2 0.36(7) no
C9 N3 C10 N1 -0.37(6) no
C11 N4 N5 C12 175.70(5) no
C13 N4 N5 C12 0.43(6) no
N5 N4 C11 C1 -101.84(5) no
C13 N4 C11 C1 72.40(7) no
N5 N4 C13 N6 -0.40(6) no
C11 N4 C13 N6 -175.18(5) no
N4 N5 C12 N6 -0.34(6) no
C13 N6 C12 N5 0.11(7) no
C12 N6 C13 N4 0.18(6) no
O1 C1 C2 C3 -174.40(5) no
O1 C1 C2 C7 8.53(6) no
C8 C1 C2 C3 -56.92(6) no
C8 C1 C2 C7 126.00(5) no
C11 C1 C2 C3 65.40(6) no
C11 C1 C2 C7 -111.68(6) no
O1 C1 C8 N1 -63.67(6) no
C2 C1 C8 N1 179.08(4) no
C11 C1 C8 N1 57.83(6) no
O1 C1 C11 N4 -65.08(5) no
C2 C1 C11 N4 53.77(6) no
C8 C1 C11 N4 174.50(4) no
C1 C2 C3 F1 0.53(8) no
C1 C2 C3 C4 -179.07(5) no
C7 C2 C3 F1 177.72(5) no
C7 C2 C3 C4 -1.87(8) no
C1 C2 C7 C6 178.56(5) no
C3 C2 C7 C6 1.33(8) no
F1 C3 C4 C5 -178.51(5) no
C2 C3 C4 C5 1.09(9) no
C3 C4 C5 F2 -179.95(5) no
C3 C4 C5 C6 0.28(9) no
F2 C5 C6 C7 179.49(5) no
C4 C5 C6 C7 -0.75(9) no
C5 C6 C7 C2 -0.09(9) no
