#------------------------------------------------------------------------------
#$Date: 2015-05-13 22:40:32 +0300 (Wed, 13 May 2015) $
#$Revision: 136365 $
#$URL: svn://www.crystallography.net/cod/cif/2/01/99/2019944.cif $
#------------------------------------------------------------------------------
#
# This file is available in the Crystallography Open Database (COD),
# http://www.crystallography.net/. The original data for this entry
# were provided by IUCr Journals, http://journals.iucr.org/.
#
# The file may be used within the scientific community so long as
# proper attribution is given to the journal article from which the
# data were obtained.
#
data_2019944
loop_
_publ_author_name
'Ghazaryan, Vahram V.'
'Zakharov, Boris A.'
'Petrosyan, Aram M.'
'Boldyreva, Elena V.'
_publ_section_title
;
 <small>L</small>-Argininium phosphite -- a new candidate for NLO
 materials
;
_journal_coeditor_code           YF3083
_journal_issue                   5
_journal_name_full               'Acta Crystallographica Section C'
_journal_page_first              415
_journal_page_last               421
_journal_paper_doi               10.1107/S2053229615006956
_journal_volume                  71
_journal_year                    2015
_chemical_formula_iupac          'C6 H15 N4 O2 + , H2 O3 P -'
_chemical_formula_moiety         'C6 H15 N4 O2 +, H2 O3 P -'
_chemical_formula_sum            'C6 H17 N4 O5 P'
_chemical_formula_weight         256.20
_chemical_name_common
;
<i>L</i>-Argininium phosphite
;
_chemical_name_systematic
;
<i>L</i>-Argininium phosphite
;
_space_group_crystal_system      monoclinic
_space_group_IT_number           4
_space_group_name_Hall           'P 2yb'
_space_group_name_H-M_alt        'P 1 21 1'
_symmetry_space_group_name_Hall  'P 2yb'
_symmetry_space_group_name_H-M   'P 1 21 1'
_atom_sites_solution_hydrogens   difmap
_audit_creation_method           SHELXL-2013
_cell_angle_alpha                90
_cell_angle_beta                 105.249(3)
_cell_angle_gamma                90
_cell_formula_units_Z            2
_cell_length_a                   9.3993(3)
_cell_length_b                   4.86380(13)
_cell_length_c                   13.2395(4)
_cell_measurement_reflns_used    5391
_cell_measurement_temperature    296(2)
_cell_measurement_theta_max      31.8387
_cell_measurement_theta_min      1.5910
_cell_volume                     583.95(3)
_computing_cell_refinement
;
CrysAlis PRO (Agilent, 2012)
;
_computing_data_collection
;
CrysAlis PRO (Agilent, 2012)
;
_computing_data_reduction
;
CrysAlis PRO (Agilent, 2012)
;
_computing_molecular_graphics
;
Mercury (Macrae <i>et al.</i>,  2008) and <i>PLATON</i> (Spek,
2009)
;
_computing_publication_material
;
publCIF (Westrip, 2010)
;
_computing_structure_refinement
;
SHELXL2013 (Sheldrick, 2015) and <i>X-STEP32</i> (Stoe & Cie,
2000)
;
_computing_structure_solution
;
SHELXS97 (Sheldrick, 2008)
;
_diffrn_ambient_temperature      296(2)
_diffrn_detector_area_resol_mean 10.3457
_diffrn_measured_fraction_theta_full 1.000
_diffrn_measured_fraction_theta_max 1.000
_diffrn_measurement_device_type
;
Agilent Xcalibur Gemini Ultra diffractometer with Ruby detector
;
_diffrn_measurement_method       \w
_diffrn_radiation_monochromator  graphite
_diffrn_radiation_source         'Enhance (Mo) X-ray Source'
_diffrn_radiation_type           MoK\a
_diffrn_radiation_wavelength     0.71073
_diffrn_reflns_av_R_equivalents  0.0280
_diffrn_reflns_limit_h_max       13
_diffrn_reflns_limit_h_min       -13
_diffrn_reflns_limit_k_max       6
_diffrn_reflns_limit_k_min       -6
_diffrn_reflns_limit_l_max       18
_diffrn_reflns_limit_l_min       -18
_diffrn_reflns_number            11214
_diffrn_reflns_theta_full        25.242
_diffrn_reflns_theta_max         30.502
_diffrn_reflns_theta_min         1.594
_exptl_absorpt_coefficient_mu    0.250
_exptl_absorpt_correction_T_max  1.00000
_exptl_absorpt_correction_T_min  0.98851
_exptl_absorpt_correction_type   multi-scan
_exptl_absorpt_process_details
;
(CrysAlis PRO; Agilent, 2012)
;
_exptl_crystal_colour            colourless
_exptl_crystal_density_diffrn    1.457
_exptl_crystal_description       prism
_exptl_crystal_F_000             272
_exptl_crystal_size_max          0.300
_exptl_crystal_size_mid          0.300
_exptl_crystal_size_min          0.100
_refine_diff_density_max         0.233
_refine_diff_density_min         -0.256
_refine_ls_abs_structure_details
;
Flack x determined using 1329 quotients [(I+)-(I-)]/[(I+)+(I-)]
(Parsons et al., 2013)
;
_refine_ls_abs_structure_Flack   -0.03(4)
_refine_ls_extinction_method     none
_refine_ls_goodness_of_fit_ref   1.058
_refine_ls_hydrogen_treatment    refall
_refine_ls_matrix_type           full
_refine_ls_number_parameters     213
_refine_ls_number_reflns         3545
_refine_ls_number_restraints     1
_refine_ls_restrained_S_all      1.058
_refine_ls_R_factor_all          0.0363
_refine_ls_R_factor_gt           0.0317
_refine_ls_shift/su_max          0.001
_refine_ls_shift/su_mean         0.000
_refine_ls_structure_factor_coef Fsqd
_refine_ls_weighting_details
'w=1/[\s^2^(Fo^2^)+(0.0445P)^2^+0.0095P] where P=(Fo^2^+2Fc^2^)/3'
_refine_ls_weighting_scheme      calc
_refine_ls_wR_factor_gt          0.0782
_refine_ls_wR_factor_ref         0.0820
_reflns_number_gt                3247
_reflns_number_total             3545
_reflns_threshold_expression     I>2\s(I)
_cod_data_source_file            yf3083sup1.cif
_cod_data_source_block           I
_cod_database_code               2019944
_shelx_space_group_comment
;
The symmetry employed for this shelxl refinement is uniquely defined
by the following loop, which should always be used as a source of
symmetry information in preference to the above space-group names.
They are only intended as comments.
;
_shelx_estimated_absorpt_t_min   0.929
_shelx_estimated_absorpt_t_max   0.975
_shelx_hkl_file
;
   0  -7   0-204.237 187.516  11 0.28492-0.28530-0.51040-0.51040 0.85745-0.85804
   0  -7   1 474.869 227.284  11 0.30311-0.28887-0.46385-0.55691 0.88260-0.82765
   0  -7  -1 477.635 257.511  11 0.26518-0.28019-0.55703-0.46379 0.82874-0.88487
   0  -6   0 602.038 232.539  11 0.31280-0.31313-0.43748-0.43748 0.89542-0.89592
   0  -6  -1 1025.45 290.956  11 0.29137-0.30633-0.49429-0.38071 0.86654-0.92258
   0  -6   1 855.140 281.511  11 0.33224-0.31795-0.38083-0.49410 0.91969-0.86465
   0  -6  -2-300.030 188.494  11 0.26810-0.29768-0.55037-0.32466 0.83307-0.94466
   0  -6   2-33.0417 133.750  11 0.34961-0.32069-0.32519-0.54971 0.93950-0.82891
   0  -6  -3 618.916 235.190  11 0.24319-0.28740-0.60488-0.27018 0.79519-0.96232
   0  -6   3 760.168 265.677  11 0.36490-0.32135-0.27136-0.60351 0.95511-0.78898
   0  -6  -4 6100.23 680.076  11 0.21690-0.27574-0.65707-0.21802 0.75320-0.97588
   0  -6   4 4007.94 579.625  11 0.37816-0.31998-0.22004-0.65480 0.96692-0.74524
   0  -6  -5 1688.59 377.825  11 0.18951-0.26297-0.70629-0.16884 0.70751-0.98573
   0  -6   5 1544.60 377.622  11 0.38950-0.31669-0.17180-0.70300 0.97538-0.69817
   0  -6   6 1772.90 408.567  11 0.39907-0.31164-0.12710-0.74768 0.98103-0.64827
   0  -6  -6 1538.60 375.097  11 0.16131-0.24939-0.75200-0.12316 0.65861-0.99238
   0  -6  -7 2802.41 479.097  11 0.13257-0.23529-0.79384-0.08135 0.60703-0.99634
   0  -6   7 2960.16 511.055  11 0.40704-0.30498-0.08622-0.78852 0.98437-0.59606
   0  -6   8 3756.66 599.922  11 0.41360-0.29692-0.04936-0.82535 0.98592-0.54207
   0  -6  -8 3116.40 537.498  11 0.10358-0.22092-0.83155-0.04367 0.55327-0.99812
   0  -6  -9 1079.34 302.981  11 0.07455-0.20652-0.86501-0.01024 0.49785-0.99825
   0  -6   9 1114.00 348.782  11 0.41894-0.28763-0.01659-0.85809 0.98613-0.48674
   0  -5   0-51.7387 103.359  11 0.33749-0.33776-0.36457-0.36457 0.92588-0.92630
   0  -5  -1 674.853 241.093  11 0.31369-0.32859-0.43501-0.29415 0.89656-0.95253
   0  -5   1 430.012 199.956  11 0.35854-0.34419-0.29437-0.43473 0.94885-0.89373
   0  -5   2 6608.87 638.941  11 0.37672-0.34774-0.22583-0.50324 0.96573-0.85506
   0  -5  -2 7578.98 670.864  11 0.28739-0.31692-0.50427-0.22493 0.86096-0.97246
   0  -5  -3 2257.35 370.534  11 0.25897-0.30312-0.57097-0.15826 0.81941-0.98647
   0  -5   3 1824.32 357.721  11 0.39206-0.34846-0.16023-0.56882 0.97705-0.81083
   0  -5   4 6840.18 665.948  11 0.40470-0.34647-0.09859-0.63041 0.98354-0.76178
   0  -5  -4 7283.30 676.729  11 0.22887-0.28765-0.63395-0.09531 0.77255-0.99515
   0  -5   5 4812.52 569.878  11 0.41489-0.34203-0.04172-0.68726 0.98606-0.70876
   0  -5  -5 4874.77 564.082  11 0.19758-0.27099-0.69230-0.03699 0.72116-0.99930
   0  -5   6 9031.67 789.584  11 0.42292-0.33543 0.00990-0.73885 0.98551-0.65266
   0  -5  -6 9044.46 774.393  11 0.16557-0.25361-0.74539 0.01606 0.66613-0.99981
   0  -5  -7 496.683 192.523   9 0.82770-0.93034-0.55835-0.17115 0.16886-0.55776
   0  -5  -7 677.946 237.853  11 0.13329-0.23595-0.79285 0.06349 0.60833-0.99756
   0  -5   7 296.799 198.667  11 0.42912-0.32700 0.05602-0.78494 0.98273-0.59434
   0  -5  -8 151.676 124.294   9 0.81384-0.93107-0.57202-0.15750 0.11812-0.56254
   0  -5  -8 293.360 181.500  11 0.10111-0.21839-0.83456 0.10517 0.54862-0.99339
   0  -5   8 605.612 234.320  11 0.43380-0.31706 0.09660-0.82548 0.97849-0.53456
   0  -5  -9 6449.68 706.017  11 0.06932-0.20124-0.87059 0.14117 0.48770-0.98802
   0  -5   9 5941.31 682.258  11 0.43728-0.30592 0.13176-0.86061 0.97346-0.47398
   0  -5  -9 5963.07 618.538   9 0.79852-0.93034-0.58359-0.14595 0.06941-0.56936
   0  -5 -10 811.869 323.073  11 0.03817-0.18471-0.90113 0.17167 0.42622-0.98208
   0  -5 -10 728.774 272.068   9 0.78192-0.92834-0.59332-0.13624 0.02248-0.57796
   0  -5  10 736.975 271.886  11 0.43981-0.29382 0.16171-0.89053 0.96815-0.41313
   0  -5 -11 4274.07 596.870  11 0.00782-0.16898-0.92646 0.19697 0.36464-0.97604
   0  -5  11 4074.52 589.911  11 0.44162-0.28100 0.18674-0.91553 0.96300-0.35243
   0  -5 -11 3475.76 501.768   9 0.76417-0.92517-0.60141-0.12816-0.02292-0.58808
   0  -5  12 2244.65 448.977  11 0.44288-0.26763 0.20717-0.93593 0.95829-0.29218
   0  -5 -12 1626.91 351.360   9 0.74533-0.92093-0.60803-0.12156-0.06699-0.59953
   0  -5 -13 711.278 258.824   9 0.72545-0.91564-0.61330-0.11631-0.10992-0.61212
   0  -4   0 54870.2 1556.53  11 0.35931-0.35952-0.29165-0.29165 0.94962-0.94996
   0  -4   0 56829.6 1181.16   9 0.81292-0.81331-0.29175-0.29175 0.69961-0.69980
   0  -4  -1 38241.5 997.960   9 0.84065-0.85563-0.35309-0.23043 0.61663-0.67235
   0  -4   1 35895.0 1265.97  11 0.38256-0.36815-0.20186-0.38141 0.97040-0.91519
   0  -4   1 38979.6 954.085   9 0.77020-0.75599-0.22017-0.36331 0.77976-0.72443
   0  -4  -1 37120.1 1279.39  11 0.33190-0.34675-0.38187-0.20147 0.91929-0.97517
   0  -4  -2 14111.7 634.897   9 0.85605-0.88562-0.40419-0.17935 0.53510-0.64634
   0  -4   2 14712.2 580.954   9 0.71135-0.68255-0.14026-0.44320 0.85133-0.74047
   0  -4  -2 12841.8 760.707  11 0.30086-0.33033-0.46981-0.11357 0.87957-0.99099
   0  -4   2 12754.8 768.101  11 0.40148-0.37245-0.11512-0.46813 0.98219-0.87143
   0  -4  -3 25175.2 885.815   9 0.86205-0.90622-0.44617-0.13739 0.45744-0.62421
   0  -4   3 23853.1 1064.11  11 0.41622-0.37256-0.03365-0.54956 0.98615-0.81986
   0  -4  -3 26219.4 1096.11  11 0.26694-0.31104-0.55304-0.03037 0.83134-0.99831
   0  -4  -4 11440.1 628.360   9 0.86118-0.91994-0.48049-0.10308 0.38464-0.60693
   0  -4  -4 12024.9 764.373  11 0.23103-0.28976-0.62967 0.04623 0.77601-0.99852
   0  -4   4 11586.2 758.196  11 0.42719-0.36890 0.04091-0.62409 0.98388-0.76204
   0  -4  -5 16984.1 914.714  11 0.19406-0.26741-0.69845 0.11499 0.71523-0.99328
   0  -4  -5 17070.2 802.169   9 0.85535-0.92871-0.50861-0.07498 0.31679-0.59460
   0  -4   5 16694.5 922.962  11 0.43495-0.36203 0.10758-0.69073 0.97706-0.69967
   0  -4  -6 1452.26 296.404  11 0.15683-0.24481-0.75882 0.17531 0.65070-0.98430
   0  -4   6 1512.37 288.497  11 0.44014-0.35260 0.16600-0.74911 0.96732-0.63439
   0  -4  -6 1288.13 241.883   9 0.84594-0.93388-0.53173-0.05188 0.25356-0.58689
   0  -4  -7 853.075 237.885  11 0.12002-0.22263-0.81070 0.22717 0.58396-0.97310
   0  -4  -7 796.766 206.438   9 0.83386-0.93640-0.55082-0.03280 0.19442-0.58328
   0  -4   7 783.510 231.180  11 0.44338-0.34121 0.21625-0.79934 0.95605-0.56758
   0  -4   8 515.823 204.830  11 0.44520-0.32840 0.25876-0.84181 0.94438-0.50036
   0  -4  -8 326.891 166.627  11 0.08411-0.20134-0.85445 0.27088 0.51628-0.96097
   0  -4  -8 353.491 153.512   9 0.81976-0.93689-0.56664-0.01700 0.13882-0.58320
   0  -4   9 5680.95 612.623  11 0.44605-0.31463 0.29411-0.87714 0.93312-0.43356
   0  -4  -9 5975.88 581.022   9 0.80404-0.93576-0.57976-0.00390 0.08625-0.58616
   0  -4  -9 5369.26 584.433  11 0.04943-0.18129-0.89063 0.30703 0.44864-0.94887
   0  -4 -10 5828.22 593.842   9 0.78698-0.93330-0.59061 0.00692 0.03626-0.59169
   0  -4  10 5658.38 624.146  11 0.44629-0.30024 0.32298-0.90597 0.92286-0.36775
   0  -4 -10 6053.93 639.573  11 0.01617-0.16265-0.91992 0.33630 0.38174-0.93751
   0  -4 -11 1719.18 352.183   9 0.76877-0.92968-0.59951 0.01581-0.01155-0.59940
   0  -4  11 1971.05 384.071  11 0.44617-0.28550 0.34602-0.92897 0.91394-0.30330
   0  -4 -12 1371.42 339.028   9 0.74951-0.92502-0.60671 0.02299-0.05751-0.60897
   0  -4  12 1406.26 343.959  11 0.44589-0.27059 0.36386-0.94678 0.90660-0.24040
   0  -4  13 1603.04 365.132  11 0.44557-0.25564 0.37705-0.95995 0.90090-0.17916
   0  -4 -13 393.512 200.383   9 0.72928-0.91938-0.61240 0.02867-0.10188-0.62012
   0  -4  14 3274.13 547.080  11 0.44530-0.24074 0.38610-0.96896 0.89687-0.11959
   0  -4 -14 3158.96 528.945   9 0.70812-0.91280-0.61672 0.03297-0.14492-0.63261
   0  -4  15 1802.81 420.738  11 0.44512-0.22593 0.39140-0.97423 0.89446-0.06163
   0  -4 -15 1400.46 349.408   9 0.68602-0.90530-0.61977 0.03600-0.18681-0.64624
   0  -3   0-8.03301 45.9030   9 0.76929-0.76958-0.21881-0.21881 0.78113-0.78128
   0  -3   0 36.0644 80.4133  11 0.37848-0.37864-0.21874-0.21874 0.96718-0.96743
   0  -3  -1 4480.55 297.429   9 0.82135-0.83623-0.30843-0.12921 0.67846-0.73413
   0  -3   1 4152.81 270.360   9 0.68763-0.67333-0.11157-0.32603 0.87285-0.81747
   0  -3   1 4156.73 205.627   5-0.56334 0.57775-0.14138-0.29606 0.63709-0.58176
   0  -3   1 4223.51 373.487  11 0.40494-0.39048-0.09735-0.34010 0.98363-0.92834
   0  -3  -1 3890.21 356.727  11 0.34487-0.35966-0.34092-0.09659 0.93429-0.99008
   0  -3   2 4252.59 200.935   5-0.37869 0.40771-0.03157-0.40585 0.79272-0.68186
   0  -3   2 3606.59 251.951   9 0.57761-0.54871 0.00551-0.44310 0.93941-0.82850
   0  -3   2 3448.91 343.973  11 0.42399-0.39490 0.01739-0.45481 0.98520-0.87437
   0  -3  -2 3702.90 346.697  11 0.30537-0.33479-0.45779 0.02025 0.88563-0.99697
   0  -3  -2 3581.17 281.378   9 0.84951-0.87899-0.37923-0.05843 0.57651-0.68770
   0  -3   3 14146.7 508.421   9 0.45047-0.40698 0.11955-0.55712 0.97210-0.80567
   0  -3  -3 14039.5 583.702   9 0.86101-0.90508-0.43382-0.00386 0.48145-0.64816
   0  -3   3 15127.8 386.869   5-0.13708 0.18071 0.09796-0.53536 0.91491-0.74853
   0  -3   3 14437.6 703.535  11 0.43628-0.39256 0.12104-0.55842 0.97513-0.80875
   0  -3  -3 14524.3 699.528  11 0.26193-0.30597-0.56437 0.12680 0.82387-0.99075
   0  -3   4 13062.4 693.303  11 0.44310-0.38476 0.21115-0.64850 0.95732-0.73540
   0  -3   4 13178.7 391.103   5 0.10380-0.04556 0.21453-0.65190 0.96434-0.74245
   0  -3  -4 12393.5 585.611   9 0.86166-0.92033-0.47580 0.03810 0.39519-0.61742
   0  -3   4 12063.4 491.237   9 0.32279-0.26471 0.21888-0.65644 0.97336-0.75141
   0  -3  -4 12542.7 667.238  11 0.21664-0.27531-0.65758 0.21997 0.75276-0.97519
   0  -3  -5 38662.5 1206.79  11 0.17133-0.24462-0.73631 0.29867 0.67619-0.95416
   0  -3   5 41627.1 1275.54  11 0.44593-0.37296 0.28712-0.72444 0.93547-0.65800
   0  -3   5 43836.8 784.612   5 0.29498-0.22213 0.29835-0.73570 0.95349-0.67608
   0  -3   5 44707.5 758.755   1 0.34815-0.27468-0.65831 0.22147-0.55394 0.83121
   0  -3  -5 40225.0 1109.77   9 0.85543-0.92869-0.50835 0.07063 0.31746-0.59522
   0  -3  -6 9566.04 624.011  11 0.12733-0.21526-0.80098 0.36331 0.59743-0.93095
   0  -3   6 9034.10 620.655  11 0.44613-0.35853 0.34963-0.78692 0.91249-0.57948
   0  -3  -6 9186.75 565.497   9 0.84479-0.93264-0.53390 0.09617 0.24719-0.58048
   0  -3   6 10474.2 423.507   5 0.42900-0.34153 0.35186-0.78919 0.91571-0.58279
   0  -3   7 34046.3 1245.92  11 0.44479-0.34256 0.40007-0.83733 0.89043-0.50188
   0  -3  -7 36301.9 1185.00   9 0.83122-0.93366-0.55419 0.11644 0.18315-0.57196
   0  -3  -7 34743.8 1223.45  11 0.08548-0.18803-0.85290 0.41520 0.51890-0.90796
   0  -3  -8 11657.1 713.773   9 0.81562-0.93265-0.57047 0.13269 0.12422-0.56855
   0  -3   8 10540.1 721.564  11 0.44270-0.32585 0.44007-0.87730 0.87055-0.42645
   0  -3  -8 11185.4 727.359  11 0.04615-0.16333-0.89375 0.45601 0.44214-0.88674
   0  -3  -9 1091.90 259.363  11 0.00947-0.14128-0.92519 0.48742 0.36804-0.86819
   0  -3  -9 1018.37 243.291   9 0.79853-0.93016-0.58358 0.14579 0.06945-0.56931
   0  -3   9 868.161 241.853  11 0.44041-0.30893 0.47122-0.90842 0.85352-0.35387
   0  -3  10 12429.2 851.204  11 0.43826-0.29215 0.49493-0.93210 0.83958-0.28439
   0  -3 -10 11998.6 802.187   9 0.78028-0.92650-0.59416 0.15635 0.01808-0.57346
   0  -3  11 8697.67 734.878  11 0.43643-0.27570 0.51240-0.94953 0.82876-0.21802
   0  -3 -11 9052.81 727.642   9 0.76104-0.92185-0.60264 0.16481-0.03050-0.58040
   0  -3 -12 8301.32 741.577   9 0.74092-0.91633-0.60934 0.17149-0.07678-0.58965
   0  -3  12 8515.57 711.077  10 0.46212-0.28688 0.51747-0.95478 0.81644-0.15016
   0  -3  12 9480.45 800.803  11 0.43503-0.25967 0.52459-0.96169 0.82091-0.15463
   0  -3  13 1445.44 323.209  10 0.46429-0.27446 0.52408-0.96136 0.81103-0.08921
   0  -3  13 1865.40 391.496  11 0.43409-0.24411 0.53230-0.96937 0.81582-0.09400
   0  -3 -13 2292.32 411.720   9 0.71999-0.90999-0.61448 0.17662-0.12116-0.60080
   0  -3  14 3149.27 507.852  11 0.43361-0.22899 0.53614-0.97317 0.81325-0.03588
   0  -3 -14 3036.23 497.173   9 0.69827-0.90286-0.61825 0.18037-0.16393-0.61354
   0  -3  14 3015.49 458.224  10 0.46531-0.26089 0.52723-0.96449 0.80841-0.03106
   0  -3 -15 403.251 148.585   9 0.67575-0.89493-0.62075 0.18286-0.20537-0.62763
   0  -3  15 656.422 227.767  11 0.43355-0.21431 0.53659-0.97359 0.81294 0.01997
   0  -3  15 461.284 191.177  10 0.46536-0.24635 0.52739-0.96463 0.80828 0.02462
   0  -3  16 658.878 257.469  10 0.46456-0.23096 0.52492-0.96214 0.81034 0.07810
   0  -3  16 368.212 248.591  11 0.43387-0.20001 0.53402-0.97100 0.81466 0.07379
   0  -3 -16 1052.62 320.667   9 0.65241-0.88618-0.62208 0.18417-0.24568-0.64285
   0  -2   0 43813.2 937.006  11 0.39517-0.39528-0.14583-0.14583 0.97892-0.97909
   0  -2   0 43977.6 720.068   9 0.71584-0.71603-0.14587-0.14588 0.84687-0.84697
   0  -2   1 1963.31 153.603   9 0.55256-0.53816 0.02945-0.32118 0.94891-0.89348
   0  -2   1 2089.31 121.530   5-0.30700 0.32148 0.00832-0.29993 0.83733-0.78194
   0  -2  -1 2163.54 215.576  11 0.34824-0.36298-0.32979 0.03810 0.93801-0.99372
   0  -2   1 2023.65 209.045  11 0.42658-0.41207 0.03635-0.32797 0.98418-0.92880
   0  -2  -1 1824.93 160.985   9 0.80973-0.82452-0.28573-0.00604 0.70700-0.76262
   0  -2  -2 208.724 70.8736   9 0.85084-0.88022-0.38373 0.09194 0.56928-0.68042
   0  -2   2 236.661 62.6452   9 0.34287-0.31388 0.20410-0.49581 0.97490-0.86395
   0  -2   2 184.180 86.2163  11 0.44239-0.41324 0.19884-0.49043 0.96027-0.84934
   0  -2   2 198.780 44.2468   5 0.07066-0.04157 0.19920-0.49080 0.96161-0.85070
   0  -2  -2 128.562 68.2323  11 0.29045-0.31982-0.49661 0.20489 0.86525-0.97651
   0  -2  -3 98060.4 1501.43  11 0.22854-0.27253-0.63461 0.34286 0.77202-0.93882
   0  -2  -3 98245.5 1347.10   9 0.86224-0.90622-0.45013 0.15832 0.44952-0.61618
   0  -2   3 101695. 949.034   5 0.39136-0.34766 0.33733-0.62890 0.92916-0.76273
   0  -2   3 98967.0 1529.58  11 0.44628-0.40251 0.33198-0.62354 0.91945-0.75299
   0  -2   4 88519.0 1026.58   5 0.57970-0.52139 0.40536-0.69690 0.83476-0.61280
   0  -2  -4 87652.0 635.608   8 0.66202-0.72065 0.17213-0.46402-0.52902 0.30677
   0  -2  -4 88862.9 1385.09   9 0.85866-0.91722-0.49587 0.20404 0.34861-0.57080
   0  -2  -4 88461.4 1499.53  11 0.16811-0.22673-0.74141 0.44963 0.67057-0.89292
   0  -2   4 92214.7 947.942   1 0.33708-0.27839-0.65854 0.36734-0.56207 0.78393
   0  -2   4 89768.0 1524.36  11 0.44302-0.38463 0.43490-0.72643 0.87325-0.65124
   0  -2   5 46352.3 735.722   1 0.56010-0.48684-0.63188 0.34072-0.37174 0.64912
   0  -2   5 44231.4 1130.38  11 0.43651-0.36348 0.51169-0.80319 0.82920-0.55165
   0  -2  -5 44194.2 1061.32   9 0.84760-0.92076-0.52842 0.23658 0.26311-0.54083
   0  -2  -5 45034.3 1116.45  11 0.11232-0.18556-0.82064 0.52883 0.56965-0.84753
   0  -2   6 14255.0 678.592  11 0.42919-0.34154 0.56783-0.85930 0.79102-0.45793
   0  -2  -6 14900.6 662.221   9 0.83268-0.92043-0.55236 0.26050 0.18931-0.52255
   0  -2  -6 15374.2 689.522  11 0.06225-0.15012-0.87793 0.58609 0.47390-0.80733
   0  -2   6 14883.9 650.239  10 0.47480-0.38716 0.55735-0.84893 0.78208-0.44896
   0  -2   6 15205.8 461.862   1 0.69714-0.60932-0.58555 0.29443-0.21841 0.55130
   0  -2   7 61382.3 1402.84  10 0.48509-0.38286 0.59241-0.88397 0.74822-0.35957
   0  -2  -7 61916.1 1440.81   9 0.81564-0.91798-0.57045 0.27857 0.12428-0.51304
   0  -2   7 66217.4 1061.54   1 0.78259-0.68021-0.53780 0.24672-0.09988 0.48829
   0  -2  -7 60019.1 1443.77  11 0.01781-0.12031-0.91860 0.62672 0.38510-0.77408
   0  -2   7 60515.1 1476.28  11 0.42239-0.32011 0.60830-0.89973 0.75992-0.37128
   0  -2  -8 39177.2 1219.24   9 0.79732-0.91425-0.58438 0.29249 0.06583-0.51011
   0  -2   8 44219.3 942.241   1 0.83858-0.72164-0.49333 0.20229-0.00621 0.45013
   0  -2   8 39716.1 1193.96  10 0.49165-0.37483 0.61658-0.90812 0.72261-0.27842
   0  -2   8 41601.8 1285.66  11 0.41669-0.29979 0.63700-0.92840 0.73583-0.29164
   0  -2  -9 16826.6 849.228   9 0.77812-0.90965-0.59523 0.30332 0.01240-0.51220
   0  -2   9 18174.9 651.093   1 0.87713-0.74562-0.45249 0.16149 0.07071 0.42874
   0  -2  -9 17781.7 627.649   7 0.50714-0.63923-0.86067 0.56896 0.16671-0.66677
   0  -2   9 17391.6 834.904  10 0.49579-0.36437 0.63283-0.92435 0.70424-0.20452
   0  -2   9 16377.3 852.685  11 0.41229-0.28076 0.65684-0.94821 0.71808-0.21835
   0  -2  10 5268.92 514.260  11 0.40917-0.26301 0.66990-0.96124 0.70588-0.15061
   0  -2  10 4726.31 470.336  10 0.49830-0.35229 0.64319-0.93469 0.69201-0.13675
   0  -2 -10 5814.54 539.470   9 0.75825-0.90437-0.60369 0.31175-0.03716-0.51818
   0  -2 -11 3647.97 454.586   9 0.73778-0.89850-0.61022 0.31827-0.08367-0.52719
   0  -2  11 3146.24 432.229  11 0.40723-0.24644 0.67767-0.96898 0.69842-0.08761
   0  -2  11 3203.42 406.892  10 0.49968-0.33908 0.64905-0.94052 0.68490-0.07410
   0  -2  12 5356.08 547.860  10 0.50021-0.32502 0.65136-0.94282 0.68205-0.01571
   0  -2  12 4809.25 537.754  11 0.40632-0.23091 0.68120-0.97247 0.69498-0.02862
   0  -2 -12 5237.99 562.737   9 0.71674-0.89205-0.61514 0.32317-0.12776-0.53862
   0  -2  13 5913.18 603.125  10 0.50008-0.31030 0.65080-0.94223 0.68275 0.03912
   0  -2  13 5956.41 626.792  11 0.40631-0.21627 0.68125-0.97249 0.69493 0.02697
   0  -2 -13 5438.01 606.116   9 0.69512-0.88502-0.61868 0.32669-0.16990-0.55201
   0  -2 -14 6593.99 690.104   9 0.67289-0.87738-0.62098 0.32898-0.21044-0.56698
   0  -2  14 6552.42 688.227  11 0.40705-0.20239 0.67835-0.96956 0.69776 0.07969
   0  -2  14 7274.07 695.940  10 0.49939-0.29501 0.64781-0.93923 0.68641 0.09100
   0  -2  15-37.4043 129.640  11 0.40843-0.18913 0.67291-0.96408 0.70302 0.12998
   0  -2 -15 126.999 165.784   9 0.65001-0.86910-0.62215 0.33013-0.24968-0.58327
   0  -2  15-144.090 142.165  10 0.49820-0.27923 0.64274-0.93414 0.69255 0.14040
   0  -2  16 7008.75 745.250  10 0.49652-0.26296 0.63580-0.92718 0.70078 0.18770
   0  -2 -16 7061.54 777.721   9 0.62644-0.86012-0.62227 0.33023-0.28784-0.60064
   0  -2  16 6175.62 725.352  11 0.41032-0.17640 0.66518-0.95633 0.71034 0.17819
   0  -2  17 3633.07 589.189  11 0.41263-0.16408 0.65538-0.94649 0.71943 0.22465
   0  -2 -17 4139.97 613.388   9 0.60213-0.85040-0.62137 0.32931-0.32508-0.61892
   0  -2  17 3375.65 553.766  10 0.49437-0.24621 0.62715-0.91850 0.71078 0.23324
   0  -1   0 28.6260 28.1840   9 0.65364-0.65374-0.07294-0.07294 0.89854-0.89859
   0  -1   0-12.9795 39.3327  11 0.40948-0.40953-0.07291-0.07291 0.98509-0.98517
   0  -1  -1 159874. 1095.33   9 0.83151-0.84620-0.33051 0.18461 0.64889-0.70446
   0  -1  -1 153430. 1253.61  11 0.31672-0.33140-0.42650 0.28064 0.90046-0.95609
   0  -1   1 161447. 967.994   9 0.23290-0.21841 0.28168-0.42754 0.95939-0.90391
   0  -1   1 155237. 1275.19  11 0.44565-0.43108 0.27441-0.42021 0.93957-0.88411
   0  -1   1 163289. 779.958   5 0.25588-0.24134 0.28188-0.42768 0.95956-0.90410
   0  -1  -2 187723. 1402.16   9 0.86234-0.89162-0.45300 0.30709 0.44369-0.55479
   0  -1   2 189414. 1534.23  11 0.43615-0.40695 0.51494-0.66070 0.82714-0.71614
   0  -1  -2 189160. 1513.05  11 0.20661-0.23592-0.67615 0.53026 0.73625-0.84743
   0  -1   3 99086.4 1226.84  11 0.41278-0.36895 0.65472-0.80046 0.72002-0.55347
   0  -1   3 102090. 847.697   1 0.51643-0.47252-0.64113 0.49557-0.41390 0.58035
   0  -1  -3 102087. 1186.59   9 0.85360-0.89748-0.51394 0.36801 0.30288-0.46950
   0  -1   3 99765.2 1154.40  10 0.49617-0.45235 0.63439-0.78018 0.70243-0.53587
   0  -1  -3 98964.9 1208.15  11 0.11276-0.15670-0.82008 0.67415 0.57048-0.73719
   0  -1   4 40949.9 631.676   1 0.68983-0.63136-0.58883 0.44331-0.22757 0.44953
   0  -1  -4 39259.5 828.446   9 0.83545-0.89391-0.54870 0.40275 0.20139-0.42353
   0  -1  -4 39322.9 838.254  11 0.04056-0.09913-0.89895 0.75299 0.43100-0.65326
   0  -1   4 38902.6 803.279  10 0.50992-0.45150 0.69902-0.84478 0.61783-0.39574
   0  -1   5 108268. 1470.67  10 0.51510-0.44210 0.73394-0.87969 0.56259-0.28495
   0  -1  -5 107354. 1515.44   9 0.81520-0.88826-0.57084 0.42487 0.12276-0.40043
   0  -1   5 111508. 1212.01   1 0.77794-0.70491-0.54092 0.39544-0.10697 0.38445
   0  -1   6 3295.41 237.997   1 0.83062-0.74302-0.50054 0.35510-0.02061 0.35360
   0  -1  -6 3462.78 225.219   7 0.49880-0.58681-0.86477 0.71888 0.17955-0.51290
   0  -1  -6 3005.24 279.507   9 0.79467-0.88233-0.58607 0.44009 0.05807-0.39126
   0  -1   6 3438.54 292.504  10 0.51706-0.42946 0.75325-0.89898 0.52817-0.19500
   0  -1   7 128352. 1879.36  10 0.51778-0.41559 0.76367-0.90938 0.50819-0.11948
   0  -1  -7 126182. 1463.39   7 0.55311-0.65576-0.83051 0.68459 0.08947-0.47837
   0  -1  -7 127440. 1947.66   9 0.77425-0.87650-0.59707 0.45107 0.00234-0.39105
   0  -1   7 125498. 1572.03   1 0.86597-0.76381-0.46549 0.32009 0.04701 0.34150
   0  -1   8 4147.72 375.028  10 0.51803-0.40125 0.76860-0.91429 0.49834-0.05410
   0  -1  -8 4383.11 394.353   9 0.75392-0.87076-0.60523 0.45921-0.04733-0.39690
   0  -1  -8 4504.97 299.664   7 0.59156-0.70886-0.79208 0.64613 0.01360-0.45804
   0  -1  -9 32055.6 844.612   7 0.61960-0.75154-0.75190 0.60592-0.05209-0.44790
   0  -1  -9 31761.7 1119.90   9 0.73359-0.86502-0.61133 0.46529-0.09274-0.40702
   0  -1   9 30247.1 1055.14  10 0.51808-0.38671 0.76986-0.91552 0.49578 0.00399
   0  -1  10 19807.4 909.352  10 0.51802-0.37205 0.76847-0.91412 0.49860 0.05672
   0  -1 -10 20606.8 717.448   7 0.64040-0.78698-0.71081 0.56481-0.11044-0.44510
   0  -1 -10 18927.7 925.287   9 0.71311-0.85914-0.61584 0.46978-0.13503-0.42025
   0  -1  11 36089.8 1293.14  10 0.51785-0.35729 0.76505-0.91067 0.50546 0.10539
   0  -1 -11 36882.1 1349.45   9 0.69240-0.85302-0.61903 0.47295-0.17500-0.43581
   0  -1 -12 9796.73 732.809   9 0.67134-0.84655-0.62110 0.47500-0.21318-0.45316
   0  -1  12 9480.80 705.078  10 0.51755-0.34240 0.75995-0.90556 0.51544 0.15095
   0  -1  13 3405.79 439.444  10 0.51707-0.32732 0.75341-0.89900 0.52787 0.19406
   0  -1 -13 2841.58 425.288   9 0.64984-0.83965-0.62216 0.47605-0.24996-0.47190
   0  -1 -14 2902.78 404.384   8 0.75210-0.95708 0.12495-0.27131-0.42585-0.35147
   0  -1  14 3040.31 451.252  10 0.51637-0.31203 0.74557-0.89114 0.54224 0.23522
   0  -1 -14 2599.80 429.677   9 0.62784-0.83224-0.62229 0.47616-0.28562-0.49176
   0  -1  15 7155.97 706.286  10 0.51540-0.29648 0.73651-0.88206 0.55819 0.27481
   0  -1 -15 7345.28 729.669   9 0.60526-0.82425-0.62154 0.47539-0.32039-0.51252
   0  -1 -15 6914.31 634.926   8 0.72998-0.94959 0.13739-0.28379-0.45331-0.37953
   0  -1 -16 2077.66 423.814   9 0.58203-0.81561-0.61994 0.47377-0.35442-0.53401
   0  -1 -16 1441.71 324.418   8 0.70651-0.94077 0.14994-0.29637-0.48082-0.40753
   0  -1  16 2049.18 399.827  10 0.51413-0.28061 0.72628-0.87181 0.57542 0.31312
   0  -1 -17 1113.78 327.323   9 0.55808-0.80625-0.61749 0.47130-0.38784-0.55611
   0  -1  17 433.085 194.445  10 0.51251-0.26440 0.71490-0.86040 0.59371 0.35036
   0  -1  18 898.696 290.113  10 0.51049-0.24779 0.70235-0.84784 0.61289 0.38672
   0  -1 -18 1049.07 323.767   9 0.53334-0.79611-0.61418 0.46798-0.42076-0.57871
   0   0   1 137.254 23.9403  10 0.46510-0.45051 0.87965-0.87963 0.02777 0.02777
   0   0  -1 132.662 25.4454   9 0.76217-0.77677-0.60220 0.60218-0.02776-0.02776
   0   0   2 27759.5 438.465  10 0.47128-0.44210 0.87897-0.87893 0.05554 0.05554
   0   0  -2 28306.4 388.704   7 0.62094-0.65023-0.74961 0.74955-0.05555-0.05555
   0   0  -2 27723.4 450.115   9 0.75038-0.77957-0.60643 0.60639-0.05552-0.05552
   0   0  -3 69249.0 874.754   9 0.73796-0.78174-0.61017 0.61012-0.08329-0.08329
   0   0  -3 70489.9 757.798   7 0.63122-0.67515-0.73055 0.73047-0.08332-0.08332
   0   0   3 68965.9 849.629  10 0.47711-0.43333 0.87761-0.87755 0.08331 0.08330
   0   0  -4 208915. 1500.09   7 0.64061-0.69918-0.71032 0.71021-0.11109-0.11109
   0   0  -4 204138. 1745.29   9 0.72491-0.78328-0.61342 0.61335-0.11105-0.11105
   0   0   4 206300. 1707.17  10 0.48258-0.42421 0.87556-0.87548 0.11107 0.11107
   0   0  -5 7282.15 319.633   7 0.64910-0.72232-0.68892 0.68878-0.13887-0.13887
   0   0   5 7245.29 361.970  10 0.48768-0.41472 0.87282-0.87271 0.13884 0.13884
   0   0  -5 7403.72 376.573   9 0.71121-0.78418-0.61618 0.61609-0.13881-0.13881
   0   0  -6 9573.27 400.223   7 0.65667-0.74453-0.66630 0.66614-0.16664-0.16664
   0   0   6 8980.16 442.024  10 0.49243-0.40487 0.86937-0.86925 0.16661 0.16661
   0   0  -6 9101.21 456.495   9 0.69688-0.78444-0.61844 0.61833-0.16657-0.16657
   0   0  -7 15401.0 643.844   9 0.68189-0.78404-0.62020 0.62007-0.19433-0.19433
   0   0   7 14725.8 618.897  10 0.49680-0.39466 0.86522-0.86508 0.19438 0.19438
   0   0  -7 15799.9 555.730   7 0.66330-0.76580-0.64245 0.64226-0.19441-0.19441
   0   0  -8 43502.5 984.443   7 0.66896-0.78611-0.61732 0.61710-0.22219-0.22219
   0   0  -8 43237.6 1165.51   9 0.66624-0.78298-0.62144 0.62129-0.22210-0.22210
   0   0   8 42750.1 1130.91  10 0.50080-0.38406 0.86036-0.86020 0.22215 0.22215
   0   0  -9 49424.4 1125.81   7 0.67361-0.80540-0.59087 0.59062-0.24996-0.24996
   0   0  -9 47654.4 1307.25   9 0.64990-0.78124-0.62216 0.62199-0.24986-0.24986
   0   0   9 47355.7 1275.71  10 0.50442-0.37309 0.85475-0.85457 0.24992 0.24992
   0   0 -10 9375.06 619.748   9 0.63288-0.77881-0.62234 0.62216-0.27762-0.27762
   0   0  10 9755.37 624.807  10 0.50765-0.36173 0.84841-0.84820 0.27768 0.27768
   0   0 -10 9545.12 529.401   7 0.67721-0.82365-0.56305 0.56277-0.27773-0.27773
   0   0 -11 14979.9 696.895   7 0.67971-0.84079-0.53377 0.53347-0.30551-0.30551
   0   0  11 13452.4 770.705  10 0.51048-0.34996 0.84129-0.84107 0.30545 0.30545
   0   0 -11 14100.2 807.449   9 0.61515-0.77567-0.62197 0.62177-0.30538-0.30538
   0   0 -12 762.226 230.150   9 0.59669-0.77180-0.62104 0.62082-0.33314-0.33314
   0   0 -12 881.255 186.285   7 0.68105-0.85677-0.50297 0.50264-0.33328-0.33328
   0   0  12 826.686 225.470  10 0.51290-0.33779 0.83339-0.83315 0.33322 0.33322
   0   0  13 473.010 194.093  10 0.51490-0.32520 0.82468-0.82441 0.36099 0.36099
   0   0 -13 512.457 150.262   7 0.68115-0.87152-0.47054 0.47018-0.36105-0.36105
   0   0  14 6737.59 642.394  10 0.51646-0.31217 0.81513-0.81484 0.38876 0.38876
   0   0 -14 6701.63 653.966   9 0.55747-0.76177-0.61741 0.61716-0.38867-0.38867
   0   0 -15-102.867 141.074   9 0.53667-0.75556-0.61467 0.61440-0.41643-0.41643
   0   0  15-8.54314 135.141  10 0.51757-0.29869 0.80471-0.80441 0.41653 0.41653
   0   0 -16 6522.65 676.787   8 0.73751-0.97173 0.13322-0.13378-0.44413-0.44413
   0   0  16 7851.08 764.114  10 0.51821-0.28474 0.79339-0.79306 0.44429 0.44430
   0   0 -16 7614.02 758.362   9 0.51502-0.74850-0.61127 0.61098-0.44419-0.44419
   0   0 -17 3618.71 557.312   9 0.49248-0.74056-0.60719 0.60688-0.47195-0.47195
   0   0 -17 3328.43 512.126   8 0.71428-0.96313 0.14585-0.14645-0.47189-0.47189
   0   0  17 4605.09 620.105  10 0.51836-0.27029 0.78112-0.78078 0.47206 0.47206
   0   0 -18 296.263 172.413   8 0.68967-0.95316 0.15857-0.15920-0.49965-0.49965
   0   0  18 453.491 220.525  10 0.51799-0.25533 0.76786-0.76750 0.49983 0.49983
   0   0 -18-231.850 169.288   9 0.46901-0.73168-0.60239 0.60206-0.49971-0.49971
   0   0 -19-256.089 183.296   8 0.66359-0.94172 0.17138-0.17204-0.52740-0.52740
   0   1   0 1.33850 33.7036   7 0.54004-0.53990 0.07286 0.07286-0.66647 0.66655
   0   1   1 158012. 1162.86  10 0.01156 0.00299 0.41632-0.27045-0.87398 0.92957
   0   1  -1 155342. 1237.70   7 0.62227-0.63677-0.13738 0.28308-0.57927 0.52380
   0   1   1 157968. 1078.21   7 0.37426-0.35947 0.36010-0.21435-0.72572 0.78134
   0   1   2 181204. 1364.67  10 0.17047-0.14132 0.63473-0.48884-0.68211 0.79323
   0   1  -2 185141. 1468.75   7 0.65725-0.68639-0.27005 0.41572-0.50529 0.39427
   0   1   2 188676. 1198.02   7 0.12937-0.09994 0.64382-0.49804-0.69333 0.80450
   0   1  -3 100134. 1180.32   7 0.67135-0.71513-0.34992 0.49556-0.45297 0.28640
   0   1   3 98803.6 1130.74  10 0.27131-0.22757 0.75047-0.60456-0.50976 0.67643
   0   1  -4 36636.0 776.432   7 0.67693-0.73536-0.39691 0.54253-0.41914 0.19702
   0   1  -4 37853.8 731.379   9 0.42591-0.48418-0.59222 0.73802-0.54788 0.32584
   0   1   4 38162.0 780.368  10 0.33503-0.27671 0.81134-0.66540-0.37367 0.59587
   0   1  -5 107321. 1372.75   9 0.47379-0.54666-0.60341 0.74920-0.49415 0.21658
   0   1  -5 104851. 1425.96   7 0.67911-0.75218-0.42325 0.56884-0.39911 0.12145
   0   1   5 107265. 1438.41  10 0.37760-0.30468 0.84460-0.69865-0.26641 0.54415
   0   1  -6 3187.24 271.213   7 0.67990-0.76762-0.43604 0.58160-0.38909 0.05588
   0   1  -6 3049.92 261.192   9 0.49835-0.58581-0.60831 0.75407-0.46483 0.13173
   0   1   6 3237.87 279.980  10 0.40782-0.32030 0.86322-0.71725-0.17924 0.51252
   0   1  -7 124782. 1773.35   9 0.50977-0.61183-0.61037 0.75612-0.45075 0.06213
   0   1   7 128274. 1875.34  10 0.43039-0.32829 0.87342-0.72743-0.10589 0.49470
   0   1  -7 128726. 1788.96   7 0.68009-0.78245-0.43948 0.58501-0.38636-0.00239
   0   1  -8 3964.70 340.626   7 0.67991-0.79691-0.43612 0.58162-0.38903-0.05527
   0   1   8 4237.96 371.063  10 0.44796-0.33126 0.87836-0.73235-0.04220 0.48655
   0   1  -8 4190.39 360.199   9 0.51306-0.62971-0.61094 0.75667-0.44664 0.00250
   0   1  -9 29595.1 1001.08   9 0.51091-0.64214-0.61057 0.75628-0.44934-0.05033
   0   1   9 30837.4 1055.83  10 0.46203-0.33074 0.87974-0.73371 0.01454 0.48534
   0   1  -9 29296.1 951.261   7 0.67940-0.81104-0.42755 0.57303-0.39576-0.10409
   0   1 -10 19695.8 819.296   7 0.67849-0.82478-0.41482 0.56027-0.40561-0.14979
   0   1  10 20456.6 912.948  10 0.47355-0.32767 0.87853-0.73248 0.06617 0.48925
   0   1 -10 19578.5 874.270   9 0.50484-0.65067-0.60950 0.75519-0.45686-0.09833
   0   1  11 36949.8 1293.36  10 0.48312-0.32264 0.87531-0.72923 0.11394 0.49702
   0   1 -11 37146.7 1170.61   7 0.67710-0.83803-0.39860 0.54402-0.41788-0.19306
   0   1 -11 35962.7 1248.62   9 0.49580-0.65623-0.60783 0.75350-0.46793-0.14279
   0   1 -12 8545.47 591.451   7 0.67509-0.85067-0.37934 0.52473-0.43207-0.23442
   0   1  12 8364.47 657.335  10 0.49112-0.31605 0.87042-0.72433 0.15874 0.50775
   0   1 -12 8698.59 654.998   9 0.48439-0.65940-0.60560 0.75126-0.48165-0.18459
   0   1  13 2990.67 420.954  10 0.49782-0.30816 0.86409-0.71798 0.20122 0.52082
   0   1 -13 2533.86 349.473   7 0.67237-0.86259-0.35732 0.50269-0.44780-0.27424
   0   1 -13 3409.93 439.453   9 0.47098-0.66059-0.60282 0.74845-0.49742-0.22434
   0   1 -14 3523.97 417.292   7 0.66879-0.87365-0.33273 0.47807-0.46476-0.31282
   0   1  14 3487.38 476.865  10 0.50341-0.29916 0.85646-0.71033 0.24183 0.53574
   0   1 -14 2945.29 426.943   9 0.45584-0.66005-0.59946 0.74508-0.51480-0.26248
   0   1 -15 7450.99 708.128   9 0.43914-0.65794-0.59552 0.74112-0.53346-0.29935
   0   1  15 7119.27 696.103  10 0.50801-0.28916 0.84761-0.70146 0.28095 0.55216
   0   1 -16 1429.68 365.156   8 0.74500-0.97918 0.12901 0.01631-0.43483-0.45334
   0   1  16 2118.25 404.736  10 0.51170-0.27826 0.83758-0.69141 0.31884 0.56980
   0   1 -16 1907.81 373.839   9 0.42100-0.65438-0.59095 0.73654-0.55316-0.33518
   0   1  17 176.760 145.150  10 0.51456-0.26653 0.82639-0.68020 0.35572 0.58846
   0   1 -17 742.368 255.528   8 0.72332-0.97214 0.14101 0.00427-0.46127-0.48241
   0   1 -17 978.122 292.103   9 0.40147-0.64945-0.58573 0.73130-0.57370-0.37016
   0   1  18 826.359 287.145  10 0.51661-0.25398 0.81404-0.66783 0.39176 0.60796
   0   1 -18 1101.49 327.783   9 0.38059-0.64317-0.57980 0.72535-0.59494-0.40444
   0   1 -18 882.559 294.440   8 0.70031-0.96376 0.15315-0.00790-0.48784-0.51136
   0   2   0 45275.6 762.034   4 0.81621-0.81615 0.14571 0.14571 0.75385-0.75377
   0   2   0 47517.7 580.062   8 0.71423-0.71416 0.14588 0.14588-0.47194 0.47212
   0   2   0 43981.4 855.148   7 0.50408-0.50378 0.14573 0.14573-0.68832 0.68847
   0   2  -1 2244.28 208.079   7 0.56069-0.57504 0.02702 0.26441-0.65050 0.59510
   0   2  -1 2356.37 159.540   4 0.65252-0.66702 0.31051-0.01911 0.83844-0.89381
   0   2  -1 2487.59 111.013   3 0.35921-0.37374 0.32955-0.03818 0.93678-0.99251
   0   2   1 2347.55 196.912   7 0.42226-0.40732 0.28787 0.00362-0.71789 0.77359
   0   2   1 2346.70 202.036  10-0.04653 0.06104 0.32686-0.03514-0.92285 0.97849
   0   2  -2 101.894 41.0492   4 0.36578-0.39484 0.49323-0.20184 0.85776-0.96859
   0   2   2 127.097 67.4670  10 0.05675-0.02765 0.48242-0.19068-0.82825 0.93943
   0   2  -2 101.665 82.5153   7 0.59818-0.62718-0.06666 0.35806-0.61260 0.50165
   0   2   2 139.275 63.2554   7 0.31199-0.28241 0.44439-0.15288-0.72785 0.83909
   0   2   3 94689.9 1195.30   7 0.17690-0.13268 0.59795-0.30641-0.70747 0.87425
   0   2  -3 97197.0 1454.39   7 0.62240-0.66604-0.13780 0.42917-0.57906 0.41257
   0   2   3 96886.6 1364.34  10 0.14579-0.10210 0.60348-0.31172-0.71779 0.88451
   0   2   4 88648.4 1376.63  10 0.21824-0.15995 0.69212-0.40034-0.60612 0.82837
   0   2   4 86970.4 1147.74   7 0.02897 0.02990 0.72817-0.43660-0.65278 0.87512
   0   2  -4 89028.9 1463.21   7 0.63784-0.69612-0.19023 0.48157-0.55164 0.32960
   0   2  -5 44018.0 1081.79   7 0.64758-0.72051-0.22769 0.51901-0.53059 0.25300
   0   2   5 43393.8 1027.91  10 0.27576-0.20288 0.75508-0.46328-0.50103 0.77882
   0   2  -6 14160.5 646.266   7 0.65361-0.74117-0.25333 0.54462-0.51547 0.18234
   0   2   6 14440.2 632.321  10 0.32129-0.23382 0.79920-0.50738-0.40522 0.73855
   0   2  -7 61655.6 1406.29   7 0.65715-0.75936-0.26959 0.56085-0.50558 0.11690
   0   2   7 59740.4 1365.22  10 0.35761-0.25554 0.82986-0.53802-0.31875 0.70761
   0   2  -8 39400.9 1172.96   7 0.65896-0.77582-0.27832 0.56955-0.50016 0.05593
   0   2   8 41535.2 1204.53  10 0.38694-0.27028 0.85086-0.55900-0.24062 0.68502
   0   2  -9 15634.4 772.920   7 0.65949-0.79098-0.28090 0.57211-0.49854-0.00123
   0   2   9 16884.0 818.972  10 0.41094-0.27969 0.86484-0.57296-0.16958 0.66952
   0   2  10 6515.76 541.150  10 0.43082-0.28497 0.87357-0.58167-0.10444 0.65991
   0   2 -10 5124.39 466.745   7 0.65897-0.80512-0.27838 0.56956-0.50012-0.05520
   0   2  11 3495.33 422.596  10 0.44745-0.28701 0.87826-0.58634-0.04416 0.65517
   0   2 -11 3268.55 387.390   7 0.65755-0.81834-0.27152 0.56267-0.50439-0.10648
   0   2 -12 4444.72 467.807   7 0.65527-0.83070-0.26086 0.55199-0.51092-0.15550
   0   2  12 4892.35 521.818  10 0.46146-0.28643 0.87974-0.58780 0.01211 0.65444
   0   2  13 5955.30 600.206  10 0.47332-0.28370 0.87858-0.58662 0.06505 0.65703
   0   2 -13 5561.30 541.390   7 0.65213-0.84221-0.24684 0.53794-0.51936-0.20261
   0   2 -14 6945.14 629.666   7 0.64808-0.85280-0.22975 0.52081-0.52940-0.24810
   0   2  14 7904.32 722.087  10 0.48336-0.27915 0.87519-0.58321 0.11524 0.66238
   0   2  15 367.385 189.200  10 0.49185-0.27305 0.86985-0.57784 0.16312 0.67004
   0   2 -15-114.737 154.565   8 0.75367-0.97317 0.12404 0.16719-0.42384-0.40872
   0   2 -15 357.974 182.778   7 0.64306-0.86242-0.20978 0.50082-0.54081-0.29225
   0   2  16 6003.95 683.657  10 0.49897-0.26557 0.86274-0.57072 0.20907 0.67963
   0   2 -16 5089.81 581.152   7 0.63697-0.87097-0.18706 0.47807-0.55336-0.33524
   0   2 -16 5895.96 705.090   8 0.73469-0.96883 0.13479 0.15641-0.44759-0.44049
   0   2  17 4332.47 610.828  10 0.50485-0.25686 0.85400-0.56196 0.25338 0.69086
   0   2 -17 4188.74 624.960   8 0.71441-0.96319 0.14578 0.14538-0.47173-0.47186
   0   3   0-24.2319 63.9434  10-0.11267 0.11254 0.21877 0.21877-0.96471 0.96487
   0   3   0 21.5279 54.7854   4 0.75237-0.75228 0.21856 0.21856 0.79727-0.79715
   0   3   0 32.3627 69.0737   7 0.46413-0.46369 0.21859 0.21859-0.70571 0.70593
   0   3   0 25.2795 30.6479   8 0.55443-0.55431 0.21882 0.21882-0.62826 0.62853
   0   3  -1 4856.12 185.578   3 0.40060-0.41507 0.33977 0.09727 0.92628-0.98213
   0   3   1 4784.19 348.731   7 0.40556-0.39048 0.31379 0.12342-0.72130 0.77706
   0   3  -1 4626.21 281.492   4 0.62922-0.64368 0.32922 0.10789 0.84470-0.90004
   0   3  -1 4857.29 265.118   8 0.68912-0.70364 0.15884 0.27875-0.50024 0.44500
   0   3   1 4417.76 149.602   8 0.18166-0.16690 0.32964 0.10803-0.84561 0.90140
   0   3   1 4166.80 308.343   4 0.82990-0.81525 0.12797 0.30917 0.74196-0.68639
   0   3   1 4232.47 333.752  10-0.03900 0.05347 0.33873 0.09884-0.91715 0.97284
   0   3  -1 4152.54 342.642   7 0.50961-0.52382 0.13501 0.30215-0.68538 0.63006
   0   3   2 3879.11 310.355   7 0.33244-0.30271 0.41777 0.01947-0.72806 0.83937
   0   3   2 3870.41 324.385  10 0.03383-0.00477 0.44927-0.01168-0.85230 0.96353
   0   3  -2 4064.63 274.444   8 0.75228-0.78144 0.12485 0.31272-0.42562 0.31486
   0   3  -2 3934.57 243.810   4 0.44498-0.47401 0.45161-0.01451 0.86319-0.97398
   0   3  -2 3853.15 340.223   7 0.54414-0.57298 0.06404 0.37309-0.66353 0.55266
   0   3  -3 15062.8 686.634   7 0.56990-0.61339 0.00541 0.43169-0.64239 0.47597
   0   3   3 14207.3 579.759   7 0.24466-0.20029 0.52548-0.08821-0.72158 0.88843
   0   3   3 14706.2 639.016  10 0.10221-0.05855 0.54579-0.10818-0.77533 0.94210
   0   3   4 13368.0 625.032  10 0.16389-0.10565 0.62650-0.18887-0.69184 0.91415
   0   3   4 12882.0 545.478   7 0.14418-0.08516 0.62995-0.19266-0.69810 0.92050
   0   3  -4 12045.5 638.516   7 0.58887-0.64700-0.04185 0.47892-0.62333 0.40136
   0   3   5 40154.4 971.355   7 0.03511 0.03855 0.72348-0.28616-0.65567 0.93362
   0   3   5 39137.5 1108.71  10 0.21803-0.14519 0.69188-0.25423-0.60647 0.88431
   0   3  -5 40389.6 1204.93   7 0.60265-0.67542-0.07900 0.51604-0.60708 0.32957
   0   3   6 8909.93 556.198  10 0.26476-0.17733 0.74362-0.30595-0.52240 0.85578
   0   3  -6 8917.18 590.332   7 0.61248-0.69990-0.10732 0.54434-0.59394 0.26088
   0   3  -7 34758.3 1204.09   7 0.61929-0.72136-0.12802 0.56501-0.58392 0.19531
   0   3   7 36244.2 1168.44  10 0.30477-0.20274 0.78385-0.34616-0.44146 0.83038
   0   3   8 11301.7 684.819  10 0.33891-0.22230 0.81465-0.37694-0.36452 0.80897
   0   3  -8 10948.7 700.761   7 0.62376-0.74047-0.14215 0.57911-0.57687 0.13272
   0   3  -9 808.093 214.519   7 0.62636-0.75771-0.15058 0.58752-0.57259 0.07288
   0   3   9 695.246 199.058  10 0.36808-0.23687 0.83779-0.40006-0.29181 0.79180
   0   3 -10 12532.0 803.271   7 0.62741-0.77341-0.15405 0.59096-0.57081 0.01556
   0   3  10 12870.0 802.928  10 0.39305-0.24725 0.85473-0.41698-0.22320 0.77873
   0   3 -11 9479.66 724.563   7 0.62714-0.78778-0.15315 0.59003-0.57127-0.03953
   0   3  11 10308.8 751.515  10 0.41449-0.25410 0.86662-0.42884-0.15839 0.76946
   0   3  12 8839.23 724.825  10 0.43295-0.25797 0.87432-0.43653-0.09702 0.76362
   0   3 -12 9588.75 749.793   7 0.62567-0.80096-0.14835 0.58520-0.57373-0.09261
   0   3 -13 1777.29 337.756   7 0.62310-0.81302-0.14002 0.57684-0.57795-0.14394
   0   3  13 2438.68 402.179  10 0.44887-0.25929 0.87853-0.44071-0.03869 0.76083
   0   3 -14 2834.30 484.486   8 0.74240-0.94722 0.13048 0.30667-0.43808-0.33887
   0   3  14 3418.34 500.789  10 0.46260-0.25843 0.87973-0.44190 0.01696 0.76071
   0   3 -14 2593.30 421.711   7 0.61943-0.82400-0.12845 0.56524-0.58371-0.19373
   0   3  15 570.897 235.058  10 0.47441-0.25565 0.87833-0.44048 0.07026 0.76295
   0   3 -15 251.133 186.596   8 0.72623-0.94569 0.13944 0.29767-0.45781-0.37466
   0   3 -15 270.646 173.466   7 0.61466-0.83388-0.11385 0.55062-0.59082-0.24217
   0   3 -16 687.699 252.682   7 0.60875-0.84261-0.09638 0.53312-0.59909-0.28944
   0   3 -16 643.562 259.101   8 0.70868-0.94277 0.14881 0.28827-0.47835-0.40964
   0   3  16 536.195 232.307  10 0.48454-0.25119 0.87461-0.43674 0.12152 0.76723
   0   4   0 54909.2 1383.47  10-0.06850 0.06833 0.29170 0.29170-0.93841 0.93862
   0   4   0 52754.0 1383.98   7 0.41998-0.41940 0.29145 0.29145-0.71840 0.71869
   0   4  -1 34653.2 1149.74   7 0.45945-0.47350 0.22667 0.35621-0.70736 0.65210
   0   4   1 35115.8 1115.10   7 0.37202-0.35679 0.36331 0.21963-0.72595 0.78179
   0   4  -1 35450.5 1113.97  10-0.12256 0.10780 0.20201 0.38136-0.96966 0.91434
   0   4   1 37887.8 1151.08  10-0.01266 0.02708 0.37963 0.20379-0.89571 0.95146
   0   4   1 37951.2 1062.68   4 0.75270-0.73801 0.21823 0.36462 0.79709-0.74148
   0   4   2 13304.0 665.883   4 0.80702-0.77777 0.15714 0.42572 0.76124-0.65018
   0   4   2 12649.3 677.976  10 0.04310-0.01408 0.46277 0.12067-0.84279 0.95407
   0   4   2 13813.7 689.976   7 0.31477-0.28490 0.44083 0.14214-0.72793 0.83931
   0   4  -2 12811.3 715.473   7 0.49142-0.52012 0.16962 0.41323-0.69453 0.58372
   0   4   3 23619.8 936.714  10 0.09707-0.05346 0.53878 0.04467-0.78167 0.94849
   0   4  -3 24077.8 999.608   7 0.51700-0.56034 0.12044 0.46238-0.68124 0.51489
   0   4  -3 27552.8 842.596   8 0.67191-0.71567 0.16736 0.41604-0.51872 0.35254
   0   4   3 25766.7 930.574   7 0.24791-0.20340 0.52178 0.06121-0.72206 0.88899
   0   4  -4 11174.7 700.536   7 0.53721-0.59520 0.07890 0.50390-0.66845 0.44655
   0   4   4 11959.6 630.268   7 0.17180-0.11264 0.60306-0.02004-0.70611 0.92859
   0   4   4 11537.1 668.167  10 0.14794-0.08974 0.60625-0.02277-0.71477 0.93713
   0   4  -4 12037.9 611.524   8 0.70552-0.76391 0.15046 0.43292-0.48195 0.26026
   0   4  -5 16268.6 871.864   7 0.55298-0.62561 0.04454 0.53823-0.65681 0.37936
   0   4  -5 17788.8 796.267   8 0.72588-0.79892 0.13963 0.44371-0.45822 0.18101
   0   4   5 16271.2 811.904  10 0.19490-0.12210 0.66462-0.08112-0.64442 0.92232
   0   4   5 19014.5 786.470   7 0.08764-0.01384 0.68090-0.09785-0.67821 0.95623
   0   4   6 1420.13 268.285  10 0.23754-0.15016 0.71405-0.13053-0.57262 0.90606
   0   4  -6 1843.62 308.951   7 0.56509-0.65236 0.01680 0.56594-0.64671 0.31372
   0   4  -6 1833.87 279.423   8 0.73762-0.82529 0.13316 0.45014-0.44400 0.11127
   0   4  -7 715.453 211.866   7 0.57417-0.67609-0.00489 0.58761-0.63839 0.24985
   0   4  -7 919.977 212.306   8 0.74335-0.84566 0.12995 0.45332-0.43690 0.04865
   0   4   7 693.028 199.177  10 0.27583-0.17385 0.75515-0.17161-0.50090 0.88987
   0   4  -8 501.943 193.311   7 0.58074-0.69731-0.02112 0.60380-0.63191 0.18783
   0   4  -8 418.041 175.345   8 0.74466-0.86161 0.12921 0.45403-0.43526-0.00850
   0   4   8 161.008 126.940  10 0.30994-0.19337 0.78874-0.20518-0.43030 0.87481
   0   4   9 4857.34 518.018  10 0.34018-0.20902 0.81572-0.23214-0.36150 0.86155
   0   4  -9 4928.10 552.687   7 0.58520-0.71641-0.03240 0.61506-0.62729 0.12765
   0   4  -9 5525.44 561.959   8 0.74255-0.87414 0.13040 0.45280-0.43790-0.06138
   0   4 -10 6180.50 613.090   8 0.73767-0.88390 0.13314 0.45003-0.44394-0.11086
   0   4  10 6344.56 610.704  10 0.36692-0.22116 0.83693-0.25333-0.29485 0.85043
   0   4 -10 6006.92 620.424   7 0.58785-0.73370-0.03921 0.62184-0.62444 0.06927
   0   4 -11 1688.78 355.461   7 0.58891-0.74940-0.04195 0.62456-0.62329 0.01256
   0   4 -11 1938.40 375.289   8 0.73046-0.89133 0.13713 0.44600-0.45272-0.15759
   0   4  11 1842.89 356.293  10 0.39051-0.23016 0.85315-0.26952-0.23050 0.84162
   0   4 -12 858.591 275.795   8 0.72121-0.89672 0.14215 0.44094-0.46377-0.20206
   0   4  12 1417.60 320.991  10 0.41130-0.23636 0.86503-0.28139-0.16845 0.83511
   0   4 -12 1846.86 385.314   7 0.58853-0.76367-0.04097 0.62355-0.62370-0.04257
   0   4  13 956.956 285.227  10 0.42960-0.24006 0.87312-0.28946-0.10862 0.83081
   0   4 -13 983.231 280.408   7 0.58683-0.77661-0.03656 0.61911-0.62555-0.09627
   0   4 -13 1093.50 310.610   8 0.71013-0.90027 0.14804 0.43501-0.47668-0.24466
   0   4 -14 3572.36 544.955   7 0.58385-0.78828-0.02896 0.61148-0.62871-0.14866
   0   4 -14 3463.02 538.331   8 0.69734-0.90212 0.15467 0.42835-0.49116-0.28570
   0   4  14 3420.80 522.907  10 0.44567-0.24155 0.87790-0.29422-0.05088 0.82860
   0   4 -15 1927.23 437.446   8 0.68294-0.90235 0.16194 0.42105-0.50697-0.32541
   0   4 -15 1286.69 338.286   7 0.57963-0.79870-0.01833 0.60083-0.63304-0.19987
   0   4  15 1063.68 320.433  10 0.45976-0.24104 0.87970-0.29600 0.00495 0.82831
   0   5   0 69.0274 113.728   7 0.37131-0.37058 0.36432 0.36432-0.72602 0.72638
   0   5   0 0.53760 85.7312  10-0.02240 0.02219 0.36462 0.36462-0.90391 0.90417
   0   5   1 580.926 181.643  10 0.02245-0.00807 0.43253 0.29674-0.86358 0.91938
   0   5  -1 476.946 170.866  10-0.06623 0.05143 0.29537 0.43386-0.93687 0.88160
   0   5  -1 511.135 200.979   7 0.40710-0.42101 0.31144 0.41717-0.72102 0.66583
   0   5   1 463.066 173.193   7 0.32927-0.31389 0.42197 0.30670-0.72808 0.78399
   0   5   2 7762.32 609.282  10 0.06736-0.03838 0.49749 0.23180-0.81653 0.92787
   0   5  -2 8311.04 629.544  10-0.10809 0.07870 0.22647 0.50274-0.96230 0.85149
   0   5   2 8194.97 624.677   7 0.28049-0.25047 0.48352 0.24517-0.72594 0.83740
   0   5   2 8704.16 596.300   4 0.72183-0.69255 0.24902 0.47954 0.81270-0.70160
   0   5  -2 8193.58 659.453   7 0.43722-0.46578 0.26384 0.46474-0.71417 0.60344
   0   5   3 2406.31 339.725   4 0.76691-0.72308 0.20318 0.52541 0.78885-0.62229
   0   5   3 2155.79 330.487  10 0.11140-0.06783 0.55821 0.17110-0.76376 0.93064
   0   5   3 2157.75 322.968   7 0.22472-0.18006 0.54771 0.18101-0.71819 0.88520
   0   5  -3 2020.81 348.308   7 0.46231-0.50550 0.22175 0.50681-0.70636 0.54009
   0   5   4 7643.97 613.685   4 0.80065-0.74225 0.16484 0.56375 0.76611-0.54410
   0   5   4 7874.19 591.673   7 0.16196-0.10265 0.61279 0.11595-0.70339 0.92594
   0   5  -4 7271.89 649.729   7 0.48297-0.54081 0.18515 0.54338-0.69830 0.47647
   0   5   4 8027.41 638.936  10 0.15381-0.09565 0.61374 0.11559-0.70645 0.92887
   0   5   5 5220.97 539.035   4 0.82583-0.75287 0.13334 0.59527 0.74561-0.46815
   0   5   5 5307.05 526.002  10 0.19399-0.12124 0.66353 0.06582-0.64586 0.92381
   0   5  -5 5286.13 569.872   7 0.49979-0.57227 0.15391 0.57459-0.69050 0.41313
   0   5  -6 7735.10 697.406   7 0.51329-0.60041 0.12781 0.60067-0.68336 0.35044
   0   5   6 8159.29 663.600  10 0.23157-0.14423 0.70735 0.02202-0.58317 0.91665
   0   5   7 433.494 194.491  10 0.26633-0.16439 0.74527-0.01588-0.51939 0.90841
   0   5  -7 501.145 221.276   7 0.52391-0.62568 0.10654 0.62191-0.67711 0.28865
   0   5   8 366.555 170.773  10 0.29821-0.18168 0.77755-0.04814-0.45535 0.89991
   0   5  -8 363.448 196.939   7 0.53203-0.64844 0.08981 0.63861-0.67194 0.22793
   0   5  -9 6276.23 678.270   7 0.53796-0.66902 0.07730 0.65109-0.66793 0.16837
   0   5  -9 6993.27 651.349   8 0.66118-0.79273 0.17253 0.55655-0.52989 0.03070
   0   5   9 6514.23 645.258  10 0.32727-0.19614 0.80455-0.07512-0.39167 0.89177
   0   5  10 485.172 196.910  10 0.35360-0.20788 0.82670-0.09725-0.32880 0.88444
   0   5 -10 511.244 195.000   8 0.66135-0.80754 0.17245 0.55660-0.52971-0.02500
   0   5 -10 919.324 286.773   7 0.54197-0.68767 0.06874 0.65963-0.66510 0.11000
   0   5 -11 3679.47 522.309   8 0.65834-0.81917 0.17388 0.55513-0.53279-0.07743
   0   5 -11 3902.93 568.461   7 0.54423-0.70457 0.06384 0.66449-0.66346 0.05281
   0   5  11 4291.57 554.242  10 0.37737-0.21706 0.84444-0.11497-0.26704 0.87821
   0   5  12 1407.55 338.223  10 0.39875-0.22385 0.85816-0.12867-0.20656 0.87326
   0   5 -12 1179.91 320.997   8 0.65262-0.82809 0.17658 0.55240-0.53860-0.12713
   0   5 -12 1555.94 370.232   7 0.54490-0.71989 0.06238 0.66592-0.66297-0.00323
   0   5 -13 327.276 197.659   8 0.64452-0.83463 0.18034 0.54859-0.54671-0.17454
   0   5  13 37.3654 135.472  10 0.41792-0.22843 0.86824-0.13873-0.14743 0.86968
   0   6   0 390.737 170.135  10 0.02585-0.02610 0.43755 0.43755-0.86025 0.86057
   0   6   0 576.190 211.121   7 0.31760-0.31672 0.43718 0.43718-0.72799 0.72843
   0   6  -1 521.781 183.572  10-0.01075-0.00409 0.38255 0.49253-0.89407 0.83885
   0   6  -1 990.654 270.088   7 0.35102-0.36479 0.39270 0.48163-0.72750 0.67238
   0   6   1 758.393 219.712  10 0.06309-0.04875 0.49145 0.38366-0.82129 0.87715
   0   6   1 725.161 221.442   7 0.27920-0.26368 0.48508 0.38931-0.72582 0.78180
   0   6  -2-183.961 149.174   7 0.37984-0.40825 0.35205 0.52225-0.72511 0.61445
   0   6   2-29.9343 103.173  10 0.10040-0.07147 0.54333 0.33181-0.77757 0.88896
   0   6   2-186.180 149.257   7 0.23550-0.20533 0.53579 0.33863-0.72010 0.83163
   0   6  -2 157.897 121.536  10-0.04615 0.01671 0.32746 0.54760-0.92256 0.81181
   0   6   3 1082.71 269.486  10 0.13723-0.09370 0.59239 0.28277-0.72964 0.89657
   0   6  -3 926.856 289.125   7 0.40446-0.44751 0.31547 0.55881-0.72150 0.55529
   0   6  -3 890.560 247.501  10-0.07983 0.03580 0.27328 0.60176-0.94580 0.77950
   0   6  -4 6047.67 610.068  10-0.11138 0.05276 0.22094 0.65408-0.96404 0.74221
   0   6  -4 5515.99 640.735   7 0.42530-0.48299 0.28305 0.59120-0.71719 0.49544
   0   6   4 4584.65 534.481  10 0.17309-0.11497 0.63798 0.23719-0.67818 0.90065
   0   6   5 1370.16 306.308  10 0.20758-0.13486 0.67968 0.19551-0.62391 0.90191
   0   6  -5 1628.99 371.674   7 0.44274-0.51507 0.25479 0.61943-0.71263 0.43533
   0   6  -5 1420.13 321.959  10-0.14048 0.06727 0.17125 0.70375-0.97774 0.70037
   0   6   6 2831.15 439.528  10 0.24039-0.15309 0.71722 0.15800-0.56754 0.90108
   0   6  -6 2700.00 467.924   7 0.45714-0.54412 0.23061 0.64359-0.70814 0.37529
   0   6  -7 2654.32 489.494   7 0.46883-0.57046 0.21038 0.66379-0.70398 0.31559
   0   6   7 2750.19 427.773  10 0.27132-0.16943 0.75049 0.12475-0.50973 0.89881
   0   6   7 2334.33 432.284   4 0.78833-0.68622 0.17931 0.69504 0.77498-0.38657
   0   6  -8 3343.12 542.656   7 0.47809-0.59436 0.19395 0.68019-0.70034 0.25641
   0   6   8 3385.50 514.830   4 0.80305-0.68638 0.16196 0.71240 0.76430-0.32044
   0   6   8 2543.70 423.967  10 0.30024-0.18375 0.77951 0.09575-0.45108 0.89569
   0   6  -9 1168.94 330.123   7 0.48517-0.61608 0.18114 0.69298-0.69734 0.19786
   0   6   9 1013.70 305.874   4 0.81410-0.68287 0.14837 0.72601 0.75559-0.25628
   0   6   9 718.447 254.331  10 0.32710-0.19602 0.80440 0.07087-0.39205 0.89220
   0   6  10 1076.61 313.016  10 0.35189-0.20622 0.82534 0.04996-0.33305 0.88873
   0   6  10 1509.54 382.850   4 0.82213-0.67634 0.13815 0.73624 0.74884-0.19408
   0   7  -1 741.875 238.153   7 0.28999-0.30360 0.47196 0.54810-0.72671 0.67167
   0   7  -2-264.003 172.158   7 0.31793-0.34619 0.43676 0.58328-0.72800 0.61741
   0   7  -3 593.302 227.100   7 0.34223-0.38513 0.40467 0.61534-0.72785 0.56172
   1  -7  -3-50.1943 115.198  11 0.22966-0.19561-0.63240-0.38846 0.77381-0.92041
   1  -7  -2 430.718 214.838  11 0.25213-0.20345-0.58593-0.43489 0.80900-0.90006
   1  -7  -1 564.505 255.428  11 0.27318-0.20988-0.53857-0.48222 0.84055-0.87606
   1  -7   0 875.975 287.706  11 0.29270-0.21477-0.49092-0.52985 0.86838-0.84835
   1  -7   1 70.5185 122.029  11 0.31060-0.21804-0.44358-0.57715 0.89254-0.81696
   1  -6 -10 1461.13 391.000  11 0.05213-0.12042-0.88802 0.01276 0.45399-0.98931
  -1  -6   9 155.640 161.430  11 0.41426-0.36126-0.04549-0.82921 0.98600-0.50723
   1  -6  -9 260.445 198.653  11 0.08164-0.13530-0.85722-0.01800 0.51154-0.99131
  -1  -6   8 1568.33 376.412  11 0.40827-0.36990-0.07955-0.79518 0.98475-0.56153
   1  -6  -8 952.246 308.628  11 0.11130-0.15033-0.82194-0.05325 0.56774-0.99197
   1  -6  -7 206.339 175.794  11 0.14086-0.16527-0.78223-0.09292 0.62209-0.99078
  -1  -6   7 639.131 263.437  11 0.40100-0.37725-0.11755-0.75722 0.98196-0.61428
   1  -6  -6 205.300 176.681  11 0.17009-0.17987-0.73827-0.13685 0.67404-0.98718
  -1  -6   6-181.003 178.791  11 0.39225-0.38313-0.15935-0.71545 0.97717-0.66503
   1  -6  -5 2456.83 445.784  11 0.19868-0.19383-0.69036-0.18474 0.72302-0.98062
  -1  -6   5 3147.83 532.119  11 0.38188-0.38738-0.20472-0.67011 0.96988-0.71328
   1  -6  -4 2773.21 469.316  11 0.22634-0.20686-0.63894-0.23612 0.76849-0.97054
  -1  -6   4 2986.89 501.987  11 0.36971-0.38985-0.25328-0.62158 0.95961-0.75855
  -1  -6   3 1240.89 322.262  11 0.35564-0.39040-0.30455-0.57035 0.94589-0.80038
   1  -6  -3 865.924 268.081  11 0.25274-0.21863-0.58462-0.29041 0.80993-0.95645
  -1  -6   2 601.453 233.691  11 0.33960-0.38898-0.35792-0.51701 0.92832-0.83835
   1  -6  -2 338.478 189.460  11 0.27759-0.22886-0.52814-0.34686 0.84696-0.93793
   1  -6  -1 1190.09 305.569  11 0.30065-0.23730-0.47035-0.40461 0.87929-0.91471
  -1  -6   1 896.188 287.470  11 0.32155-0.38556-0.41267-0.46229 0.90658-0.87216
  -1  -6   0 777.270 251.269  11 0.30154-0.38018-0.46800-0.40699 0.88049-0.90162
   1  -6   0 709.433 235.197  11 0.32172-0.24374-0.41216-0.46277 0.90680-0.88668
   1  -6   1 635.000 232.795  11 0.34067-0.24806-0.35450-0.52040 0.92955-0.85388
  -1  -6  -1 568.703 242.025  11 0.27969-0.37296-0.52311-0.35191 0.84999-0.92666
  -1  -6  -2 542.087 222.274  11 0.25616-0.36405-0.57717-0.29789 0.81515-0.94736
   1  -6   2 373.083 198.057  11 0.35745-0.25021-0.29824-0.57663 0.94774-0.81653
   1  -6   3 1528.65 361.486  11 0.37207-0.25021-0.24420-0.63064 0.96172-0.77497
  -1  -6  -3 1594.56 365.526  11 0.23116-0.35368-0.62942-0.24567 0.77620-0.96396
   1  -6   4 1264.57 343.346  11 0.38464-0.24815-0.19304-0.68177 0.97196-0.72967
  -1  -6  -4 2160.58 440.551  11 0.20494-0.34209-0.67918-0.19594 0.73348-0.97678
  -1  -6  -5 3928.45 590.381  11 0.17778-0.32955-0.72589-0.14926 0.68739-0.98623
   1  -6   5 2497.82 459.940  11 0.39528-0.24416-0.14530-0.72947 0.97898-0.68114
   1  -6   6 990.857 328.425  11 0.40417-0.23843-0.10137-0.77337 0.98333-0.62995
  -1  -6  -6 1190.64 331.698  11 0.14993-0.31633-0.76911-0.10607 0.63840-0.99279
  -1  -6  -7 401.571 206.085  11 0.12167-0.30270-0.80853-0.06669 0.58701-0.99694
   1  -6   7 153.642 161.670  11 0.41151-0.23113-0.06150-0.81321 0.98556-0.57663
   1  -6   8-95.8216 169.069  11 0.41749-0.22249-0.02581-0.84887 0.98618-0.52171
  -1  -6  -8 114.572 178.923  11 0.09323-0.28888-0.84396-0.03129 0.53369-0.99917
  -1  -6  -9 370.813 217.902  11 0.06481-0.27509-0.87530 0.00002 0.47890-0.99992
   1  -6   9-477.030 243.095  11 0.42230-0.21268 0.00568-0.88033 0.98565-0.46564
   1  -5 -13 1728.52 392.052   9 0.76424-0.87618-0.60138-0.12818-0.02273-0.67875
  -1  -5  13 1605.95 403.383  11 0.44234-0.33078 0.19811-0.92687 0.96043-0.25940
   1  -5 -12 376.495 185.578   9 0.78265-0.88000-0.59294-0.13660 0.02444-0.67039
  -1  -5  12 430.112 213.847  11 0.44116-0.34423 0.18003-0.90882 0.96444-0.31896
   1  -5 -11-99.7121 142.692  11 0.01366-0.09651-0.92192 0.19246 0.37661-0.96740
   1  -5 -11 112.441 98.7829   9 0.79969-0.88245-0.58280-0.14672 0.07294-0.66337
  -1  -5  11 292.048 195.793  11 0.43949-0.35718 0.15757-0.88638 0.96894-0.37900
  -1  -5  10 2.80748 119.850  11 0.43716-0.36948 0.13043-0.85928 0.97367-0.43927
   1  -5 -10 343.615 173.774   9 0.81524-0.88340-0.57080-0.15871 0.12292-0.65783
   1  -5 -10 285.503 191.585  11 0.04487-0.11310-0.89496 0.16553 0.43958-0.97481
   1  -5  -9 815.242 274.302  11 0.07690-0.13051-0.86245 0.13305 0.50241-0.98210
  -1  -5   9 589.145 223.966  11 0.43399-0.38094 0.09835-0.82723 0.97827-0.49942
   1  -5  -9 961.494 272.747   9 0.82912-0.88269-0.55671-0.17277 0.17454-0.65392
   1  -5  -8 7034.21 699.726  11 0.10958-0.14856-0.82410 0.09474 0.56453-0.98868
   1  -5  -8 5610.68 584.301   9 0.84109-0.88006-0.54029-0.18918 0.22795-0.65181
  -1  -5   8 6942.23 716.152  11 0.42974-0.39131 0.06110-0.79001 0.98229-0.55898
   1  -5  -7 2262.10 367.612   9 0.85083-0.87521-0.52122-0.20823 0.28327-0.65161
   1  -5  -7 1925.56 361.508  11 0.14262-0.16697-0.77973 0.05040 0.62525-0.99386
  -1  -5   7 2283.77 417.731  11 0.42415-0.40034 0.01852-0.74747 0.98515-0.61739
   1  -5  -6 3483.86 432.621   9 0.85792-0.86771-0.49915-0.23028 0.34059-0.65341
  -1  -5   6 3299.65 484.261  11 0.41691-0.40774-0.02938-0.69960 0.98618-0.67395
   1  -5  -6 3277.32 475.782  11 0.17567-0.18539-0.72932 0.00002 0.68374-0.99680
  -1  -5   5 2775.27 428.283  11 0.40774-0.41319-0.08245-0.64655 0.98459-0.72791
   1  -5  -5 2770.06 374.204   9 0.86184-0.85704-0.47367-0.25574 0.39989-0.65718
   1  -5  -5 3338.51 455.761  11 0.20830-0.20340-0.67307-0.05620 0.73906-0.99657
  -1  -5   4 161.274 126.235  11 0.39633-0.41641-0.14032-0.58872 0.97958-0.77844
   1  -5  -4 417.145 210.649  11 0.24002-0.22049-0.61145-0.11778 0.79023-0.99220
   1  -5  -4 210.986 131.293   9 0.86194-0.84254-0.44436-0.28504 0.46102-0.66279
   1  -5  -3 1924.49 288.024   9 0.85743-0.82344-0.41079-0.31858 0.52359-0.66984
  -1  -5   3 2694.12 430.461  11 0.38244-0.41714-0.20236-0.52671 0.97031-0.82472
   1  -5  -3 2289.48 372.989  11 0.27031-0.23615-0.54527-0.18394 0.83633-0.98276
  -1  -5   2 1675.59 346.484  11 0.36589-0.41522-0.26770-0.46140 0.95605-0.86600
   1  -5  -2 901.281 249.039  11 0.29865-0.24986-0.47560-0.25357 0.87656-0.96745
   1  -5  -1 8377.15 699.057  11 0.32458-0.26117-0.40381-0.32533 0.91036-0.94570
  -1  -5   1 9303.73 754.878  11 0.34660-0.41056-0.33522-0.39391 0.93621-0.90171
  -1  -5   0 4658.48 540.420  11 0.32463-0.40321-0.40367-0.32550 0.91042-0.93146
   1  -5   0 4693.61 539.691  11 0.34776-0.26972-0.33139-0.39771 0.93748-0.91728
   1  -5   1 21182.8 1113.07  11 0.36797-0.27530-0.25990-0.46918 0.95800-0.88226
  -1  -5  -1 21128.6 1129.59  11 0.30014-0.39336-0.47169-0.25751 0.87860-0.95518
   1  -5   2 3220.32 454.665  11 0.38517-0.27787-0.19077-0.53827 0.97235-0.84106
  -1  -5  -2 2467.65 398.272  11 0.27344-0.38128-0.53796-0.19127 0.84093-0.97306
  -1  -5  -3 8943.85 746.389  11 0.24491-0.36737-0.60129-0.12797 0.79786-0.98553
   1  -5   3 7393.07 680.641  11 0.39944-0.27752-0.12526-0.60375 0.98121-0.79438
  -1  -5  -4 329.216 167.333  11 0.21498-0.35207-0.66070-0.06859 0.75005-0.99326
   1  -5   4-320.340 183.355  11 0.41101-0.27446-0.06433-0.66465 0.98545-0.74308
   1  -5   5 696.595 253.868  11 0.42017-0.26899-0.00864-0.72031 0.98602-0.68809
  -1  -5  -5 905.917 277.872  11 0.18409-0.33581-0.71544-0.01389 0.69826-0.99702
  -1  -5  -6 12155.3 910.928  11 0.15269-0.31904-0.76503 0.03567 0.64333-0.99764
   1  -5   6 12037.8 908.395  11 0.42725-0.26145 0.04143-0.77034 0.98384-0.63037
  -1  -5  -7 315.177 186.974  11 0.12116-0.30213-0.80921 0.07982 0.58606-0.99591
   1  -5   7 154.847 127.705  11 0.43262-0.25219 0.08575-0.81463 0.97979-0.57078
  -1  -5  -8 4716.46 604.800  11 0.08981-0.28541-0.84794 0.11852 0.52718-0.99257
   1  -5   8 4799.35 610.851  11 0.43660-0.24155 0.12439-0.85324 0.97462-0.51006
  -1  -5  -9 1846.05 407.624  11 0.05890-0.26913-0.88132 0.15187 0.46733-0.98827
   1  -5   9 1709.75 368.733  11 0.43949-0.22981 0.15755-0.88637 0.96895-0.44885
   1  -5  10 2527.56 467.407  11 0.44154-0.21723 0.18552-0.91431 0.96326-0.38762
  -1  -5 -10 2189.36 437.849  11 0.02864-0.25349-0.90955 0.18007 0.40705-0.98353
   1  -5  11-8.20663 108.953  11 0.44296-0.20403 0.20862-0.93738 0.95794-0.32675
   1  -5  12 386.886 200.131  11 0.44393-0.19037 0.22720-0.95593 0.95324-0.26651
  -1  -4  15 322.783 218.347  11 0.44576-0.30489 0.36957-0.95243 0.90416-0.09195
   1  -4 -15 444.198 226.521   9 0.72715-0.86818-0.61291 0.02919-0.10636-0.70612
   1  -4 -14 1761.12 398.519   9 0.74836-0.87479-0.60708 0.02338-0.06015-0.69681
  -1  -4  14 1566.23 385.190  11 0.44592-0.31968 0.36228-0.94518 0.90726-0.15060
  -1  -4  13 3356.34 539.468  11 0.44611-0.33449 0.35104-0.93396 0.91192-0.21080
   1  -4 -13 3103.68 499.621   9 0.76839-0.88023-0.59967 0.01599-0.01250-0.68893
  -1  -4  12 7711.62 774.395  11 0.44626-0.34927 0.33540-0.91836 0.91813-0.27256
   1  -4 -12 8160.57 761.437   9 0.78717-0.88441-0.59050 0.00684 0.03677-0.68268
  -1  -4  11 350.541 205.903  11 0.44627-0.36390 0.31488-0.89786 0.92584-0.33581
   1  -4 -11 1172.51 288.937   9 0.80457-0.88722-0.57938-0.00427 0.08791-0.67829
  -1  -4  10 2459.05 419.055  11 0.44597-0.37823 0.28890-0.87192 0.93487-0.40039
   1  -4 -10 2772.89 419.667   9 0.82040-0.88846-0.56602-0.01761 0.14116-0.67602
   1  -4 -10 3142.37 451.126  11 0.02249-0.09067-0.91476 0.33116 0.39461-0.92977
   1  -4  -9 3046.25 418.555   9 0.83441-0.88788-0.55010-0.03351 0.19679-0.67613
   1  -4  -9 2966.68 424.714  11 0.05695-0.11050-0.88327 0.29971 0.46350-0.94311
  -1  -4   9 3053.30 454.490  11 0.44514-0.39203 0.25687-0.83992 0.94494-0.46600
  -1  -4   8 7047.65 650.325  11 0.44348-0.40500 0.21817-0.80125 0.95557-0.53218
   1  -4  -8 6870.39 617.050  11 0.09292-0.13185-0.84432 0.26078 0.53312-0.95718
   1  -4  -8 6252.49 569.604   9 0.84621-0.88509-0.53120-0.05239 0.25509-0.67890
   1  -4  -7 25.4575 87.6465   9 0.85530-0.87958-0.50880-0.07478 0.31630-0.68459
   1  -4  -7 435.528 182.839  11 0.13016-0.15446-0.79714 0.21364 0.60262-0.97114
  -1  -4   7 176.087 144.717  11 0.44061-0.41675 0.17223-0.75535 0.96607-0.59822
   1  -4  -6 12225.8 723.840   9 0.86096-0.87065-0.48226-0.10130 0.38062-0.69339
  -1  -4   6 11455.6 784.498  11 0.43605-0.42682 0.11862-0.70177 0.97549-0.66318
   1  -4  -6 11682.8 763.013  11 0.16826-0.17793-0.74117 0.15770 0.67083-0.98381
   1  -4  -5 27550.7 1137.05  11 0.20662-0.20166-0.67614 0.09270 0.73626-0.99370
  -1  -4   5 30528.7 1246.99  11 0.42925-0.43465 0.05714-0.64032 0.98263-0.72587
   1  -4  -5 29913.3 1084.92   9 0.86227-0.85737-0.45084-0.13270 0.44808-0.70532
   1  -4  -4 7891.12 540.062   9 0.85800-0.83850-0.41371-0.16981 0.51842-0.72014
  -1  -4   4 7694.14 616.489  11 0.41965-0.43967-0.01203-0.57118 0.98607-0.78485
   1  -4  -4 8027.26 610.742  11 0.24444-0.22486-0.60227 0.01886 0.79714-0.99903
   1  -4  -3 24141.4 1027.19  11 0.28079-0.24658-0.52045-0.06292 0.85157-0.99791
  -1  -4   3 23215.6 1054.87  11 0.40667-0.44132-0.08819-0.49506 0.98425-0.83857
   1  -4  -3 23801.9 897.173   9 0.84663-0.81254-0.37006-0.21345 0.59095-0.73714
  -1  -4   2 14609.8 824.192  11 0.38989-0.43916-0.17007-0.41321 0.97564-0.88551
   1  -4  -2 15319.9 696.257   9 0.82645-0.77777-0.31921-0.26427 0.66426-0.75493
   1  -4  -2 14034.6 779.708  11 0.31465-0.26581-0.43233-0.15101 0.89780-0.98860
   1  -4  -1 3766.01 413.941  11 0.34507-0.28161-0.34025-0.24306 0.93452-0.96977
  -1  -4   1 3679.00 423.222  11 0.36905-0.43295-0.25582-0.32749 0.95900-0.92441
   1  -4  -1 4037.51 354.840   9 0.79580-0.73253-0.26097-0.32250 0.73610-0.77125
   1  -4   0 5089.87 390.198   9 0.75349-0.67562-0.19589-0.38756 0.80339-0.78301
   1  -4   0 4947.29 467.974  11 0.37134-0.29325-0.24703-0.33625 0.96107-0.94079
  -1  -4   0 4615.37 468.013  11 0.34419-0.42272-0.34315-0.24019 0.93353-0.95448
  -1  -4  -1 2357.01 344.942  11 0.31563-0.40879-0.42957-0.15380 0.89907-0.97557
   1  -4   1 1560.42 273.890  11 0.39307-0.30035-0.15559-0.42766 0.97767-0.90184
  -1  -4  -1 2256.10 232.635   9 0.86242-0.95565-0.45848-0.12509 0.43243-0.50871
   1  -4   1 2235.71 260.294   9 0.69943-0.60697-0.12565-0.45779 0.86256-0.78666
  -1  -4  -2 325.420 174.152  11 0.28398-0.39177-0.51268-0.07072 0.85613-0.98817
   1  -4   2 472.801 186.400  11 0.41025-0.30290-0.06860-0.51461 0.98528-0.85391
  -1  -4  -2 296.199 104.542   9 0.85905-0.96688-0.49399-0.08960 0.35315-0.48495
   1  -4   2 584.666 142.260   9 0.63515-0.52810-0.05295-0.53046 0.91037-0.77895
  -1  -4  -3 14097.6 640.617   9 0.85071-0.97313-0.52149-0.06211 0.28252-0.46985
   1  -4   3 13547.4 800.144  11 0.42320-0.30122 0.01184-0.59503 0.98543-0.79852
  -1  -4  -3 13104.2 792.714  11 0.25001-0.37243-0.59047 0.00704 0.80576-0.99335
   1  -4   3 13158.0 626.032   9 0.56380-0.44216 0.01880-0.60220 0.94486-0.75791
   1  -4   4 12690.2 788.522  11 0.43247-0.29587 0.08439-0.66754 0.97995-0.73748
   1  -4   4 13450.6 640.913   9 0.48956-0.35332 0.08633-0.66971 0.96589-0.72342
  -1  -4  -4 12502.5 793.056  11 0.21457-0.35160-0.66147 0.07800 0.74937-0.99251
  -1  -4  -4 13419.7 663.618   9 0.83927-0.97628-0.54316-0.04047 0.21906-0.46191
   1  -4   5 8636.22 532.632   9 0.41666-0.26583 0.14714-0.73049 0.97511-0.67712
  -1  -4  -5 8532.91 562.096   9 0.82579-0.97739-0.56048-0.02316 0.16134-0.45972
   1  -4   5 9053.00 685.848  11 0.43874-0.28751 0.14838-0.73150 0.97063-0.67262
  -1  -4  -5 8485.06 668.867  11 0.17844-0.33010-0.72481 0.14131 0.68853-0.98721
  -1  -4  -6 10744.1 664.620   9 0.81087-0.97707-0.57451-0.00915 0.10816-0.46207
   1  -4   6 10850.5 775.063  11 0.44268-0.27683 0.20373-0.78682 0.95911-0.60556
   1  -4   6 10607.5 610.111   9 0.34855-0.18313 0.19986-0.78320 0.97523-0.62171
  -1  -4  -6 10433.1 754.544  11 0.14232-0.30862-0.78015 0.19662 0.62473-0.97895
  -1  -4  -7 11584.9 824.324  11 0.10677-0.28769-0.82761 0.24405 0.55927-0.96903
  -1  -4  -7 11563.8 727.953   9 0.79486-0.97565-0.58595 0.00228 0.05860-0.46802
   1  -4   7 10663.6 790.620  11 0.44492-0.26444 0.25079-0.83385 0.94672-0.53763
  -1  -4  -8 6103.85 619.055  11 0.07216-0.26771-0.86757 0.28398 0.49323-0.95854
  -1  -4  -8 6638.67 585.813   9 0.77794-0.97333-0.59532 0.01162 0.01191-0.47686
   1  -4   8 5980.15 614.390  11 0.44599-0.25088 0.29014-0.87317 0.93446-0.46982
  -1  -4  -9 788.654 232.711   9 0.76022-0.97020-0.60295 0.01924-0.03247-0.48800
   1  -4   9 731.385 233.153  11 0.44629-0.23655 0.32249-0.90548 0.92304-0.40286
   1  -4  10 2972.89 473.532  11 0.44614-0.22178 0.34855-0.93151 0.91292-0.33720
  -1  -4 -10 2659.27 440.267  11 0.00671-0.23151-0.92730 0.34364 0.36236-0.93876
  -1  -4 -10 3026.99 435.478   9 0.74174-0.96631-0.60910 0.02537-0.07498-0.50101
  -1  -4 -11 1789.71 351.694   9 0.72253-0.96169-0.61395 0.03019-0.11596-0.51556
   1  -4  11 2647.36 452.659  11 0.44578-0.20679 0.36903-0.95196 0.90439-0.27312
  -1  -4 -12 4704.30 593.329   9 0.70258-0.95634-0.61762 0.03385-0.15568-0.53136
   1  -4  12 4645.06 624.437  11 0.44535-0.19173 0.38454-0.96744 0.89757-0.21076
   1  -4  13 3966.40 588.745  11 0.44496-0.17672 0.39564-0.97850 0.89250-0.15014
  -1  -4 -13 4052.22 569.128   9 0.68188-0.95023-0.62020 0.03641-0.19436-0.54821
   1  -4  14 992.174 310.091  11 0.44467-0.16180 0.40279-0.98562 0.88915-0.09125
  -1  -4 -14 1475.16 337.965   9 0.66039-0.94334-0.62176 0.03795-0.23216-0.56593
  -1  -4 -15 784.133 291.907   9 0.63809-0.93563-0.62234 0.03852-0.26924-0.58437
   1  -3 -16 472.608 245.579   9 0.69561-0.85113-0.61861 0.18075-0.16897-0.69899
  -1  -3  16-68.6343 132.080  11 0.43609-0.28053 0.51547-0.95247 0.82680 0.04103
   1  -3 -15 4031.13 582.287   9 0.71856-0.85949-0.61478 0.17693-0.12408-0.68836
  -1  -3  15 3068.38 517.702  11 0.43600-0.29507 0.51624-0.95327 0.82631-0.01402
   1  -3 -14 10663.1 906.591   9 0.74052-0.86685-0.60945 0.17163-0.07768-0.67923
  -1  -3  14 10700.0 900.320  11 0.43628-0.30998 0.51373-0.95079 0.82791-0.07117
   1  -3 -13 249.362 168.970   9 0.76144-0.87319-0.60248 0.16467-0.02952-0.67186
  -1  -3  13 611.560 219.456  11 0.43696-0.32529 0.50751-0.94461 0.83183-0.13063
  -1  -3  12 3011.66 454.899  11 0.43805-0.34100 0.49705-0.93418 0.83829-0.19264
   1  -3 -12 4151.28 522.301   9 0.78125-0.87840-0.59366 0.15587 0.02069-0.66655
  -1  -3  11 303.985 164.661  11 0.43951-0.35709 0.48165-0.91881 0.84749-0.25738
   1  -3 -11 195.935 162.355   9 0.79981-0.88237-0.58272 0.14495 0.07330-0.66363
  -1  -3  10 16182.1 955.537  11 0.44127-0.37348 0.46046-0.89765 0.85956-0.32500
   1  -3 -10 16021.3 924.657   9 0.81691-0.88488-0.56930 0.13155 0.12872-0.66353
   1  -3  -9 8055.46 626.386  11 0.01568-0.06917-0.92031 0.48257 0.38075-0.86027
  -1  -3   9 8920.87 527.547   5 0.54589-0.49282 0.39410-0.83139 0.85722-0.37833
   1  -3  -9 7696.94 611.034   9 0.83223-0.88560-0.55293 0.11519 0.18741-0.66670
  -1  -3   9 8395.21 658.480  11 0.44317-0.39001 0.43242-0.86965 0.87453-0.39550
   1  -3  -8 14097.5 789.521  11 0.05411-0.09297-0.88609 0.44838 0.45789-0.88187
  -1  -3   8 12540.7 778.179  11 0.44493-0.40640 0.39631-0.83357 0.89219-0.46871
   1  -3  -8 13320.4 767.042   9 0.84529-0.88406-0.53297 0.09525 0.24992-0.67369
  -1  -3   7 18920.5 920.624  11 0.44611-0.42220 0.35071-0.78800 0.91205-0.54411
   1  -3  -7 18856.0 874.354  11 0.09544-0.11968-0.84135 0.40368 0.53789-0.90633
   1  -3  -7 18216.5 843.599   9 0.85535-0.87954-0.50861 0.07091 0.31679-0.68504
   1  -3  -6 8663.19 574.597  11 0.13950-0.14911-0.78417 0.34653 0.61961-0.93250
  -1  -3   6 9775.41 450.756   5 0.34553-0.33629 0.31909-0.75645 0.94246-0.63012
   1  -3  -6 8708.71 558.079   9 0.86137-0.87096-0.47877 0.04108 0.38855-0.70127
  -1  -3   6 9680.22 640.856  11 0.44605-0.43677 0.29416-0.73148 0.93311-0.62072
  -1  -3   5 57346.8 1018.56   5 0.22726-0.23263 0.26959-0.70697 0.96270-0.70588
  -1  -3   5 52289.1 1414.80  11 0.44384-0.44918 0.22531-0.66267 0.95373-0.69689
  -1  -3   5 57053.1 968.329   9 0.25769-0.26327 0.26490-0.70249 0.96435-0.70744
   1  -3  -5 54861.6 1321.74   9 0.86178-0.85678-0.44207 0.00441 0.46552-0.72271
   1  -3  -5 55547.7 1397.87  11 0.18571-0.18070-0.71272 0.27511 0.70104-0.95838
  -1  -3   4 829.161 111.323   9 0.41410-0.43428 0.14919-0.58679 0.97526-0.77387
   1  -3  -4 883.080 181.607  11 0.23299-0.21334-0.62576 0.18818 0.77912-0.98092
  -1  -3   4 949.855 132.628   5 0.07862-0.09860 0.20291-0.64031 0.96239-0.76108
  -1  -3   4 649.028 173.896  11 0.43831-0.45828 0.14333-0.58072 0.97152-0.77022
   1  -3  -4 894.483 174.779   9 0.85434-0.83475-0.39687-0.04077 0.54758-0.74925
  -1  -3   3 2432.63 197.905   5-0.09191 0.05732 0.12074-0.55816 0.92942-0.78363
   1  -3  -3 2361.73 279.063  11 0.27959-0.24533-0.52334 0.08580 0.84985-0.99611
  -1  -3   3 2262.99 170.636   9 0.57904-0.61381 0.00411-0.44174 0.93881-0.79295
  -1  -3   3 2414.24 299.479  11 0.42815-0.46274 0.04834-0.48576 0.98334-0.83758
   1  -3  -3 1993.14 232.839   9 0.83607-0.80188-0.34136-0.09627 0.63365-0.77979
  -1  -3   2 30131.2 999.027  11 0.41211-0.46133-0.05806-0.37938 0.98568-0.89546
  -1  -3   2 30220.0 670.174   5-0.26498 0.21578 0.03110-0.46855 0.86005-0.76978
   1  -3  -2 28945.5 941.873  11 0.32331-0.27441-0.40754-0.02998 0.90878-0.99950
  -1  -3   2 29137.5 595.836   9 0.71818-0.76754-0.14883-0.28881 0.84449-0.75415
   1  -3  -2 29954.1 851.612   9 0.80328-0.75451-0.27399-0.16362 0.72105-0.81167
  -1  -3   1 36033.6 682.282   9 0.80693-0.87088-0.28056-0.15710 0.71325-0.67844
   1  -3  -1 36276.7 905.733   9 0.75234-0.68897-0.19428-0.24331 0.80490-0.84000
  -1  -3   1 36543.2 1087.84  11 0.38934-0.45319-0.17253-0.26495 0.97528-0.94061
   1  -3  -1 36025.3 1049.09  11 0.36178-0.29826-0.28278-0.15471 0.95208-0.98725
  -1  -3   1 36046.5 748.761   5-0.41921 0.35540-0.05473-0.38274 0.76396-0.72921
  -1  -3   0 68381.6 999.240   9 0.84905-0.92759-0.37769-0.05999 0.57897-0.59968
   1  -3   0 66412.0 1201.82   9 0.68112-0.60316-0.10396-0.33361 0.87821-0.85778
  -1  -3   0 67472.7 1478.23  11 0.35972-0.43820-0.29017-0.14734 0.95004-0.97091
  -1  -3   0 67685.1 1057.14   5-0.54297 0.46455-0.12867-0.30883 0.65769-0.67846
   1  -3   0 69139.9 1449.64  11 0.39313-0.31498-0.15535-0.28210 0.97770-0.95733
  -1  -3   0 70917.6 735.360   2-0.06561-0.01232-0.21363-0.22317-0.95782 0.93700
  -1  -3  -1 25909.5 919.059  11 0.32402-0.41712-0.40545-0.03209 0.90967-0.98609
  -1  -3  -1 27927.9 562.906   2 0.27244-0.36496-0.17331-0.26352-0.84166 0.76531
  -1  -3  -1 25296.6 654.765   9 0.86195-0.95509-0.44458 0.00689 0.46058-0.53682
   1  -3   1 25109.4 890.325  11 0.41648-0.32370-0.03208-0.40535 0.98616-0.91025
   1  -3   1 25347.9 741.522   9 0.59109-0.49853-0.00773-0.42983 0.93356-0.85761
   1  -3   2 43341.1 980.517   9 0.48828-0.38113 0.08744-0.52498 0.96615-0.83467
  -1  -3  -2 43700.8 1210.62  11 0.28374-0.39147-0.51328 0.07571 0.85578-0.98774
  -1  -3  -2 44574.8 940.189   9 0.85969-0.96742-0.49060 0.05288 0.36123-0.49299
   1  -3   2 44262.1 1198.85  11 0.43212-0.32472 0.08128-0.51866 0.98029-0.84883
   1  -3   3 6343.82 473.470  11 0.44123-0.31920 0.18103-0.61839 0.96423-0.77723
  -1  -3  -3 7316.41 413.655   9 0.84999-0.97232-0.52319 0.08546 0.27784-0.46512
   1  -3   3 6659.13 395.445   9 0.38180-0.26006 0.17458-0.61210 0.97612-0.78912
  -1  -3  -3 6801.12 496.299  11 0.24074-0.36310-0.60998 0.17237 0.79135-0.97886
  -1  -3  -4 117.515 76.9863   9 0.83658-0.97350-0.54712 0.10937 0.20649-0.44930
   1  -3   4 57.8256 59.2413   9 0.28057-0.14424 0.24905-0.68655 0.96820-0.72568
   1  -3   4 215.141 123.427  11 0.44542-0.30876 0.26578-0.70310 0.94226-0.69971
   1  -3   5 3682.59 391.641  11 0.44626-0.29498 0.33582-0.77311 0.91797-0.61988
  -1  -3  -5 4028.01 409.297  11 0.15345-0.30506-0.76390 0.32623 0.64468-0.94327
  -1  -3  -5 4098.70 357.838   9 0.82118-0.97269-0.56525 0.12749 0.14401-0.44233
  -1  -3  -6 6407.28 536.389  11 0.11161-0.27785-0.82154 0.38383 0.56833-0.92247
   1  -3   6 6293.28 524.937  11 0.44508-0.27917 0.39249-0.82975 0.89396-0.54032
  -1  -3  -6 7117.93 498.897   9 0.80461-0.97072-0.57934 0.14155 0.08805-0.44191
   1  -3   6 7360.94 390.952   1 0.44564-0.27940-0.65166 0.21474-0.47683 0.83013
  -1  -3  -7 19554.8 875.186   9 0.78724-0.96794-0.59046 0.15266 0.03698-0.44635
  -1  -3  -7 19819.6 958.491  11 0.07189-0.25276-0.86786 0.43013 0.49270-0.90238
   1  -3   7 18697.4 936.442  11 0.44286-0.26232 0.43755-0.87477 0.87188-0.46270
  -1  -3  -8 7580.08 622.485  11 0.03455-0.23004-0.90438 0.46661 0.41896-0.88419
  -1  -3  -8 8067.08 598.474   9 0.76923-0.96452-0.59931 0.16149-0.01040-0.45450
   1  -3   8 7475.35 619.718  11 0.44028-0.24512 0.47276-0.90996 0.85264-0.38791
   1  -3   9 10602.9 762.443  11 0.43777-0.22798 0.49976-0.93692 0.83664-0.31637
  -1  -3  -9 11518.4 753.288   9 0.75065-0.96053-0.60634 0.16850-0.05491-0.46551
   1  -3  10 179.940 140.559  11 0.43558-0.21116 0.51990-0.95704 0.82395-0.24814
  -1  -3 -10 205.318 136.433   9 0.73150-0.95598-0.61186 0.17400-0.09719-0.47876
  -1  -3 -11 3827.82 487.581   9 0.71178-0.95085-0.61608 0.17820-0.13769-0.49378
   1  -3  11 3768.94 494.979  11 0.43384-0.19479 0.53432-0.97142 0.81447-0.18311
   1  -3  11 3615.97 455.718  10 0.46592-0.22698 0.52910-0.96645 0.80684-0.17552
  -1  -3 -12 1294.35 311.515   9 0.69146-0.94512-0.61915 0.18125-0.17675-0.51025
   1  -3  12 1300.04 303.320  10 0.46861-0.21507 0.53748-0.97482 0.79971-0.11286
   1  -3  12 2117.11 398.593  11 0.43259-0.17892 0.54391-0.98098 0.80796-0.12106
   1  -3  13 881.125 271.137  11 0.43185-0.16356 0.54938-0.98641 0.80418-0.06174
  -1  -3 -13 610.292 235.102   9 0.67050-0.93876-0.62116 0.18324-0.21464-0.52788
   1  -3  13 1087.84 279.632  10 0.47005-0.20192 0.54203-0.97934 0.79577-0.05337
   1  -3  14 2402.90 417.927  10 0.47046-0.18774 0.54333-0.98062 0.79463 0.00330
   1  -3  14 2051.12 425.381  11 0.43159-0.14867 0.55128-0.98829 0.80285-0.00486
  -1  -3 -14 3113.88 498.782   9 0.64887-0.93172-0.62218 0.18425-0.25158-0.54647
   1  -3  15 631.079 257.029  11 0.43176-0.13421 0.55005-0.98702 0.80371 0.04982
   1  -3  15 444.824 204.546  10 0.46998-0.17267 0.54182-0.97909 0.79595 0.05752
   1  -3  16 3403.03 528.230  10 0.46871-0.15681 0.53782-0.97507 0.79942 0.10958
  -1  -3 -16 3857.19 594.809   9 0.60339-0.91542-0.62144 0.18347-0.32319-0.58591
   1  -3  16 2799.85 520.361  11 0.43231-0.12014 0.54600-0.98294 0.80652 0.10255
  -1  -2  18 572.202 253.510  11 0.41804-0.23318 0.63054-0.92165 0.74140 0.23760
   1  -2 -17 1464.98 380.600   9 0.64753-0.81755-0.62222 0.33021-0.25379-0.66964
  -1  -2  17 881.720 301.873  10 0.49010-0.32024 0.61071-0.90204 0.72902 0.19443
  -1  -2  17 1240.94 331.020  11 0.41580-0.24556 0.64118-0.93232 0.73216 0.19130
  -1  -2  16 711.601 246.473  10 0.49200-0.33674 0.61792-0.90928 0.72114 0.14678
  -1  -2  16 825.800 315.372  11 0.41392-0.25831 0.64970-0.94088 0.72457 0.14334
   1  -2 -16 878.640 286.048   9 0.67206-0.82749-0.62104 0.32906-0.21190-0.65601
  -1  -2  15 3299.78 494.105  10 0.49338-0.35270 0.62325-0.91462 0.71520 0.09718
   1  -2 -15 3816.84 546.152   9 0.69578-0.83661-0.61859 0.32662-0.16865-0.64374
  -1  -2  15 3654.66 529.697  11 0.41250-0.27152 0.65593-0.94714 0.71892 0.09345
  -1  -2  14 788.681 262.147  11 0.41164-0.28529 0.65962-0.95086 0.71552 0.04130
   1  -2 -14 450.004 196.991   9 0.71871-0.84494-0.61475 0.32280-0.12378-0.63308
  -1  -2  14 661.476 225.845  10 0.49420-0.36812 0.62648-0.91788 0.71154 0.04530
   1  -2 -13 1723.33 351.901   9 0.74083-0.85247-0.60936 0.31743-0.07700-0.62434
  -1  -2  13 2283.77 385.767  11 0.41145-0.29973 0.66042-0.95169 0.71478-0.01350
  -1  -2  13 1922.30 346.924  10 0.49442-0.38293 0.62734-0.91876 0.71056-0.00926
   1  -2 -12 2860.72 426.664   9 0.76211-0.85917-0.60222 0.31031-0.02791-0.61790
  -1  -2  12 2808.56 410.736  10 0.49393-0.39703 0.62542-0.91686 0.71274-0.06698
  -1  -2  12 2262.60 368.541  11 0.41206-0.31496 0.65784-0.94914 0.71716-0.07143
   1  -2 -11 8176.04 655.266   9 0.78247-0.86493-0.59303 0.30114 0.02396-0.61425
  -1  -2  11 8834.99 675.666  11 0.41358-0.33111 0.65121-0.94254 0.72321-0.13302
   1  -2 -11 10636.0 581.944   7 0.54140-0.62450-0.83956 0.54788 0.11031-0.70084
  -1  -2  11 8925.84 665.268  10 0.49258-0.41027 0.62015-0.91160 0.71867-0.12844
  -1  -2  10 16718.2 867.186  10 0.49010-0.42239 0.61073-0.90221 0.72899-0.19430
  -1  -2  10 16496.0 881.930  11 0.41614-0.34829 0.63960-0.93096 0.73355-0.19890
   1  -2 -10 17541.2 716.828   7 0.49505-0.56351-0.86650 0.57485 0.18523-0.72020
   1  -2 -10 17688.6 913.190   9 0.80176-0.86962-0.58139 0.28951 0.07921-0.61397
   1  -2  -9 34525.4 1205.43   9 0.81969-0.87296-0.56671 0.27485 0.13858-0.61782
  -1  -2   9 31810.9 1133.88  10 0.48611-0.43299 0.59606-0.88755 0.74448-0.26533
  -1  -2   9 33813.8 1196.77  11 0.41982-0.36660 0.62171-0.91311 0.74888-0.26978
  -1  -2   8 3631.79 371.078  10 0.47996-0.44143 0.57456-0.86607 0.76592-0.34230
  -1  -2   8 3932.44 395.211  11 0.42464-0.38605 0.59577-0.88720 0.76990-0.34634
   1  -2  -8 3830.42 389.633   9 0.83581-0.87449-0.54819 0.25635 0.20301-0.62673
  -1  -2   7 10412.3 582.487  10 0.47068-0.44674 0.54404-0.83557 0.79401-0.42593
  -1  -2   7 10360.2 598.503  11 0.43045-0.40649 0.55932-0.85078 0.79717-0.42915
   1  -2  -7 10862.2 595.112  11 0.02449-0.04867-0.91309 0.62124 0.39866-0.76701
   1  -2  -7 10944.6 605.877   9 0.84933-0.87342-0.52469 0.23286 0.27366-0.64186
  -1  -2   6 35876.2 1053.52  11 0.43679-0.42745 0.50908-0.80057 0.83085-0.51838
   1  -2  -6 34983.9 997.408  11 0.07217-0.08173-0.86757 0.57575 0.49323-0.80604
   1  -2  -6 34759.7 1008.50   9 0.85894-0.86843-0.49453 0.20272 0.35185-0.66452
  -1  -2   5 4060.58 269.498   5 0.55141-0.55671 0.39597-0.68753 0.85375-0.59687
  -1  -2   5 4185.56 155.683   1 0.84970-0.85464-0.48264 0.19160 0.01465 0.24221
   1  -2  -5 4104.00 327.287  11 0.12635-0.12128-0.80230 0.51052 0.59563-0.85289
   1  -2  -5 3932.44 324.086   9 0.86239-0.85729-0.45531 0.16352 0.43897-0.69611
  -1  -2   5 3844.74 332.911  11 0.44265-0.44794 0.44090-0.73242 0.87012-0.61319
  -1  -2   4 23826.7 781.251  11 0.44612-0.46604 0.35004-0.64160 0.91232-0.71094
   1  -2  -4 24372.9 748.962  11 0.18689-0.16719-0.71074 0.41898 0.70305-0.90477
   1  -2  -4 24823.2 752.136   9 0.85594-0.83625-0.40369 0.11192 0.53597-0.73759
  -1  -2   4 24036.3 595.743   5 0.43450-0.45442 0.35395-0.64554 0.91354-0.71218
  -1  -2   3 92746.6 1469.24  11 0.44417-0.47872 0.23246-0.52405 0.95184-0.80600
   1  -2  -3 92808.4 1398.80  11 0.25184-0.21751-0.58656 0.29484 0.80856-0.95473
   1  -2  -3 94277.6 1370.29   9 0.83355-0.79927-0.33528 0.04353 0.64225-0.78834
  -1  -2   3 92741.0 1093.01   5 0.26291-0.29744 0.28487-0.57647 0.95862-0.81278
   1  -2  -2 39859.0 843.227   9 0.78644-0.73756-0.24545-0.04629 0.75332-0.84389
   1  -2  -2 38661.7 870.622  11 0.31635-0.26740-0.42753 0.13584 0.90000-0.99063
  -1  -2   2 40294.5 533.954   9 0.52678-0.57605 0.05326-0.34503 0.95699-0.86660
  -1  -2   2 40163.0 691.504   5 0.03937-0.08850 0.18452-0.47615 0.95784-0.86751
  -1  -2   2 40172.6 937.386  11 0.43279-0.48196 0.08731-0.37893 0.97961-0.88931
   1  -2  -1 8369.09 369.732   9 0.70462-0.64115-0.13195-0.15976 0.85778-0.89283
  -1  -2   1 9226.67 329.925   5-0.20006 0.13631 0.06549-0.35715 0.89050-0.85568
  -1  -2   1 8821.65 434.804  11 0.40823-0.47203-0.07978-0.21188 0.98474-0.94999
  -1  -2   1 9058.87 254.373   9 0.76570-0.82956-0.21349-0.07830 0.78644-0.75158
   1  -2  -1 8813.92 413.503  11 0.37293-0.30935-0.24087-0.05079 0.96248-0.99757
  -1  -2   0 48450.7 1011.83  11 0.36913-0.44756-0.25549-0.03620 0.95908-0.97987
  -1  -2   0 51894.1 807.297   5-0.40638 0.32802-0.04734-0.24433 0.77336-0.79407
  -1  -2   0 52754.4 612.169   2 0.13593-0.21394-0.19255-0.09863-0.90205 0.88132
   1  -2   0 49230.3 976.191  11 0.41433-0.33613-0.04506-0.24656 0.98601-0.96555
  -1  -2   0 51318.6 674.258   9 0.85112-0.92957-0.38472 0.09291 0.56768-0.58834
   1  -2   0 49587.1 882.759   9 0.58315-0.50509 0.00010-0.29180 0.93707-0.91660
  -1  -2  -1 13607.0 542.572  11 0.31802-0.41106-0.42281 0.13110 0.90212-0.97845
  -1  -2  -1 13563.7 439.472   5-0.55818 0.46522-0.13814-0.15356 0.64240-0.71863
   1  -2   1 13117.7 514.717  11 0.43778-0.34495 0.13727-0.42886 0.97255-0.89655
  -1  -2  -1 13418.1 396.790   9 0.86188-0.95492-0.47314 0.18132 0.40106-0.47724
   1  -2   1 13839.6 470.819   9 0.43106-0.33841 0.13551-0.42719 0.97408-0.89809
  -1  -2  -2 38964.3 763.390   9 0.85078-0.95842-0.52133 0.22949 0.28297-0.41468
   1  -2   2 39410.4 932.620  11 0.44599-0.33854 0.29039-0.58195 0.93438-0.80283
   1  -2   2 37968.2 801.115   9 0.27133-0.16408 0.25550-0.54716 0.96673-0.83521
  -1  -2  -2 38606.1 948.930  11 0.26024-0.36791-0.56815 0.27641 0.82133-0.95320
  -1  -2  -3 35647.3 810.167   9 0.83396-0.95619-0.55070 0.25884 0.19483-0.38207
   1  -2   3 34446.9 917.222  11 0.44436-0.32228 0.40980-0.70133 0.88580-0.69871
  -1  -2  -3 34207.9 930.120  11 0.20137-0.32368-0.68558 0.39380 0.72753-0.91495
   1  -2   4 28467.1 882.183  11 0.43787-0.30116 0.49882-0.79032 0.83721-0.59458
  -1  -2  -4 29874.0 447.355   8 0.20640-0.34325 0.32420-0.61612-0.83594 0.59307
  -1  -2  -4 29152.8 890.550  11 0.14531-0.28224-0.77585 0.48404 0.63011-0.87308
  -1  -2  -4 28491.1 793.987   9 0.81574-0.95256-0.57036 0.27849 0.12462-0.36738
  -1  -2  -5 22695.2 477.679   8 0.42593-0.57741 0.26466-0.55661-0.72214 0.42376
   1  -2   5 21810.8 812.105  11 0.42983-0.27849 0.56357-0.85504 0.79411-0.49594
   1  -2   5 21449.3 614.967   1 0.43614-0.28469-0.65269 0.36141-0.48480 0.78269
   1  -2   5 20676.9 715.328  10 0.47591-0.32457 0.56101-0.85263 0.77871-0.48056
  -1  -2  -5 20501.7 732.559   9 0.79724-0.94865-0.58443 0.29254 0.06560-0.36388
  -1  -2  -5 20611.4 794.463  11 0.09395-0.24550-0.84311 0.55127 0.53506-0.83357
  -1  -2  -6 33367.0 1066.48  11 0.04776-0.21394-0.89222 0.60035 0.44533-0.79939
   1  -2   6 31707.1 941.433  10 0.48803-0.32210 0.60304-0.89464 0.73720-0.38351
   1  -2   6 32980.4 1049.98  11 0.42207-0.25611 0.61000-0.90144 0.75854-0.40482
   1  -2   6 34703.6 832.765   1 0.57093-0.40491-0.62922 0.33798-0.36085 0.71425
  -1  -2  -6 33041.4 1002.04   9 0.77869-0.94470-0.59495 0.30304 0.01389-0.36770
  -1  -2  -6 34745.0 689.392   8 0.52890-0.69502 0.22869-0.52068-0.64882 0.29492
  -1  -2  -7 9167.42 568.867   9 0.76008-0.94068-0.60300 0.31108-0.03281-0.37652
  -1  -2  -7 9267.99 402.184   8 0.58109-0.76184 0.20805-0.50007-0.60566 0.19624
   1  -2   7 7705.61 503.211  10 0.49540-0.31487 0.63126-0.92284 0.70607-0.29684
  -1  -2  -7 8817.54 582.598  11 0.00649-0.18730-0.92747 0.63556 0.36192-0.77152
  -1  -2  -7 8776.31 347.715   7 0.46136-0.64243-0.87908 0.58735 0.23370-0.64331
   1  -2   7 9118.28 454.738   1 0.67092-0.49034-0.59683 0.30563-0.25068 0.65960
   1  -2   7 8057.34 556.715  11 0.41543-0.23484 0.64287-0.93427 0.73067-0.32141
   1  -2   8 8911.23 572.563  10 0.49987-0.30475 0.64988-0.94145 0.68387-0.21911
  -1  -2  -8 9672.10 454.365   8 0.60765-0.80305 0.19682-0.48888-0.58190 0.11697
  -1  -2  -8 8915.52 598.868   9 0.74130-0.93650-0.60923 0.31728-0.07595-0.38890
   1  -2   8 8378.62 596.936  11 0.41020-0.21498 0.66569-0.95706 0.70987-0.24506
   1  -2   9 2658.48 367.803  11 0.40639-0.19654 0.68095-0.97229 0.69522-0.17487
   1  -2   9 2314.85 314.518  10 0.50253-0.29282 0.66167-0.95321 0.66908-0.14878
  -1  -2  -9 2340.23 334.995   9 0.72228-0.93206-0.61400 0.32204-0.11648-0.40390
  -1  -2  -9 2351.54 246.848   8 0.61958-0.82961 0.19161-0.48370-0.57081 0.05036
   1  -2  10 18016.8 961.744  11 0.40389-0.17942 0.69042-0.98172 0.68584-0.10994
   1  -2  10 17103.6 876.783  10 0.50399-0.27968 0.66843-0.95995 0.66032-0.08448
  -1  -2 -10 18176.7 952.051   9 0.70291-0.92729-0.61756 0.32558-0.15504-0.42086
   1  -2  10 20761.8 821.803   1 0.84463-0.62036-0.48760 0.19652 0.00504 0.57043
  -1  -2 -11 29206.8 1274.20   9 0.68312-0.92210-0.62008 0.32807-0.19209-0.43933
   1  -2  11 28027.2 1257.43  11 0.40256-0.16346 0.69532-0.98659 0.68088-0.04944
   1  -2  11 29996.3 1219.95  10 0.50460-0.26570 0.67134-0.96284 0.65647-0.02510
  -1  -2 -12 1384.49 299.584   9 0.66285-0.91641-0.62163 0.32961-0.22795-0.45900
   1  -2  12 1422.51 303.184  10 0.50457-0.25108 0.67122-0.96270 0.65664 0.03027
   1  -2  12 1466.32 316.836  11 0.40223-0.14850 0.69653-0.98777 0.67964 0.00734
  -1  -2 -13 1000.77 310.350   9 0.64202-0.91017-0.62231 0.33027-0.26286-0.47961
   1  -2  13 780.732 234.825  10 0.50402-0.23594 0.66859-0.96005 0.66011 0.08234
   1  -2  13 672.896 231.097  11 0.40274-0.13439 0.69467-0.98588 0.68154 0.06099
   1  -2  14 5149.77 631.402  11 0.40396-0.12098 0.69018-0.98136 0.68607 0.11200
  -1  -2 -14 5011.05 613.727   9 0.62057-0.90332-0.62214 0.33009-0.29701-0.50099
   1  -2  14 5557.99 613.621  10 0.50300-0.22033 0.66384-0.95528 0.66629 0.13169
   1  -2  15 1153.65 316.621  11 0.40576-0.10815 0.68338-0.97453 0.69284 0.16078
   1  -2  15 853.150 273.047  10 0.50154-0.20427 0.65722-0.94864 0.67474 0.17878
  -1  -2 -15 872.171 291.419   9 0.59846-0.89580-0.62115 0.32908-0.33053-0.52299
   1  -2  16 741.094 271.113  11 0.40803-0.09580 0.67449-0.96560 0.70150 0.20766
   1  -2  16 587.091 242.200  10 0.49964-0.18778 0.64890-0.94030 0.68509 0.22397
  -1  -2 -16 658.010 263.141   9 0.57561-0.88755-0.61936 0.32726-0.36353-0.54552
   1  -2  17 990.772 342.101  11 0.41069-0.08383 0.66365-0.95473 0.71178 0.25292
  -1  -2 -17 1267.38 338.581   9 0.55198-0.87851-0.61674 0.32463-0.39610-0.56847
   1  -2  17 1292.08 338.439  10 0.49729-0.17084 0.63899-0.93037 0.69703 0.26757
  -1  -1  18 1178.03 360.904  10 0.50799-0.32358 0.68840-0.83387 0.63313 0.34590
   1  -1 -18 1737.82 395.574   9 0.58022-0.76473-0.61978 0.47363-0.35700-0.62191
   1  -1 -17 3855.80 572.226   9 0.60574-0.77566-0.62157 0.47543-0.31966-0.60372
  -1  -1  17 3964.65 578.552  10 0.51009-0.34027 0.70000-0.84548 0.61638 0.30712
  -1  -1  16 2612.38 448.221  10 0.51180-0.35658 0.71035-0.85586 0.60078 0.26719
   1  -1 -16 2250.45 427.620   9 0.63054-0.78586-0.62232 0.47621-0.28136-0.58651
   1  -1 -15 591.399 222.244   9 0.65466-0.79539-0.62201 0.47591-0.24190-0.57044
  -1  -1  15 665.486 240.976  10 0.51318-0.37255 0.71943-0.86496 0.58653 0.22589
   1  -1 -14 13852.0 948.989   9 0.67817-0.80431-0.62055 0.47447-0.20104-0.55577
  -1  -1  14 13495.8 908.079  10 0.51425-0.38821 0.72718-0.87272 0.57394 0.18295
   1  -1 -13 655.091 214.295   9 0.70112-0.81267-0.61784 0.47178-0.15848-0.54281
  -1  -1  13 916.872 245.739  10 0.51505-0.40360 0.73349-0.87905 0.56337 0.13799
   1  -1 -12 24381.9 924.792   7 0.63748-0.73508-0.71742 0.57144-0.10153-0.54447
   1  -1 -12 20839.9 1051.57   9 0.72356-0.82052-0.61372 0.46768-0.11383-0.53194
  -1  -1  12 22066.6 1047.20  10 0.51559-0.41874 0.73819-0.88378 0.55528 0.09054
   1  -1 -11 15783.2 713.047   7 0.61808-0.70104-0.75445 0.60850-0.04821-0.54225
  -1  -1  11 14096.9 802.408  10 0.51591-0.43365 0.74105-0.88665 0.55029 0.03999
   1  -1 -11 14476.4 836.531   9 0.74552-0.82788-0.60797 0.46195-0.06655-0.52369
  -1  -1  10 1652.40 280.843  10 0.51597-0.44830 0.74164-0.88727 0.54924-0.01449
   1  -1 -10 2008.71 298.538   9 0.76700-0.83477-0.60026 0.45425-0.01596-0.51876
   1  -1 -10 1886.72 237.208   7 0.59369-0.66201-0.78947 0.64354 0.00899-0.54389
   1  -1  -9 22867.9 765.512   7 0.56307-0.61674-0.82195 0.67606 0.07101-0.55037
   1  -1  -9 23131.3 932.388   9 0.78793-0.84111-0.59007 0.44409 0.03890-0.51810
  -1  -1   9 23426.3 915.691  10 0.51573-0.46265 0.73937-0.88502 0.55323-0.07402
   1  -1  -8 39744.6 1145.40   9 0.80817-0.84675-0.57666 0.43069 0.09935-0.52302
  -1  -1   8 38765.4 1101.48  10 0.51502-0.47653 0.73322-0.87889 0.56381-0.14014
   1  -1  -8 40187.9 955.775   7 0.52442-0.56345-0.85093 0.70506 0.13903-0.56284
   1  -1  -7 21897.8 662.989   7 0.47514-0.49953-0.87454 0.72870 0.21440-0.58267
  -1  -1   7 22087.8 780.506  10 0.51348-0.48959 0.72156-0.86725 0.58311-0.21498
   1  -1  -7 22396.9 800.038   9 0.82730-0.85129-0.55881 0.41286 0.16726-0.53540
   1  -1  -6 12851.4 565.576   9 0.84443-0.85383-0.53455 0.38862 0.24527-0.55789
  -1  -1   6 12555.3 547.600  10 0.51036-0.50106 0.70156-0.84726 0.61408-0.30149
  -1  -1   5 50015.0 997.280  10 0.50394-0.50923 0.66821-0.81393 0.66061-0.40355
   1  -1  -5 48083.7 999.373   9 0.85758-0.85239-0.50055 0.35464 0.33713-0.59423
  -1  -1   4 133655. 1501.85  10 0.49056-0.51045 0.61246-0.75821 0.72712-0.52560
   1  -1  -4 135092. 1443.66  11 0.04995-0.03020-0.89013 0.74421 0.44966-0.65130
   1  -1  -4 136460. 1537.68   9 0.86228-0.84249-0.45096 0.30507 0.44783-0.64941
  -1  -1   4 136905. 1523.09  11 0.41389-0.43375 0.64982-0.79555 0.72447-0.52300
  -1  -1   3 228767. 1793.01  11 0.43400-0.46848 0.53305-0.67882 0.81531-0.66939
   1  -1  -3 225946. 1669.41  11 0.13454-0.10016-0.79112 0.64522 0.61061-0.75670
   1  -1  -3 227338. 1805.06   9 0.84837-0.81399-0.37550 0.22962 0.58243-0.72848
  -1  -1   3 226270. 1790.21  10 0.46237-0.49685 0.51822-0.66399 0.81583-0.66985
  -1  -1   2 141095. 1116.40   5 0.42470-0.47377 0.35023-0.49604 0.91737-0.82698
   1  -1  -2 138547. 1181.26  11 0.24653-0.19752-0.59789 0.45203 0.80037-0.89092
   1  -1  -2 136348. 1265.35   9 0.79390-0.74493-0.25775 0.11189 0.73973-0.83026
  -1  -1   2 136906. 1286.18  11 0.44624-0.49535 0.33838-0.48417 0.91697-0.82659
  -1  -1   1 191505. 1234.89   5 0.10411-0.16779 0.21468-0.36051 0.96436-0.92949
  -1  -1   1 182400. 1399.38  11 0.42810-0.49184 0.04799-0.19382 0.98337-0.94853
   1  -1  -1 191183. 1309.94  11 0.36684-0.30321-0.26416 0.11833 0.95695-0.99195
   1  -1  -1 187607. 1369.05   9 0.66153-0.59796-0.08167-0.06417 0.89306-0.92806
  -1  -1   0 279007. 1731.15  11 0.36046-0.43882-0.28754 0.14169 0.95077-0.97148
   1  -1   0 286066. 1617.04  11 0.43814-0.35988 0.14138-0.28718 0.97186-0.95132
  -1  -1   0 285561. 1549.29   5-0.24901 0.17071 0.03965-0.18551 0.86806-0.88870
   1  -1   0 284557. 1656.14   9 0.42968-0.35152 0.13663-0.28245 0.97420-0.95368
  -1  -1  -1 355010. 2056.43  11 0.26117-0.35417-0.56606 0.42017 0.82274-0.89899
  -1  -1  -1 344235. 1851.84   5-0.50506 0.41216-0.10545-0.04043 0.69350-0.76967
  -1  -1  -1 348497. 1615.42   9 0.80534-0.89829-0.57881 0.43286 0.09033-0.16647
   1  -1   1 354242. 1960.26  11 0.44177-0.34889 0.45373-0.59950 0.86326-0.78717
  -1  -1  -2 96127.1 741.806   8 0.28463-0.39215 0.30538-0.45135-0.80134 0.66960
   1  -1   2 92552.9 969.918  10 0.49823-0.39070 0.64288-0.78871 0.69238-0.56079
   1  -1   2 91807.2 1113.27  11 0.41723-0.30972 0.63443-0.78016 0.73806-0.60643
  -1  -1  -2 91314.9 1143.97  11 0.16469-0.27231-0.74676 0.60084 0.66458-0.79637
  -1  -1  -2 94897.3 1022.73   9 0.78347-0.89100-0.59251 0.44655 0.02664-0.15830
   1  -1   3 42015.0 703.884   1 0.34859-0.22648-0.65830 0.51262-0.55362 0.74058
  -1  -1  -3 40974.7 792.747   9 0.76551-0.88764-0.60087 0.45489-0.01963-0.16756
   1  -1   3 42318.2 750.945  10 0.51387-0.39175 0.72431-0.87012 0.57865-0.39152
  -1  -1  -3 43690.7 607.728   8 0.54382-0.66598 0.22297-0.36898-0.63693 0.44967
  -1  -1  -3 40212.7 828.206  11 0.08580-0.20805-0.85254 0.70659 0.51951-0.70685
   1  -1   4 136109. 1400.37   1 0.52031-0.38364-0.64040 0.49476-0.41026 0.65274
  -1  -1  -4 133807. 1594.79   9 0.74899-0.88572-0.60688 0.46088-0.05869-0.18402
  -1  -1  -4 132690. 1643.39  11 0.02399-0.16087-0.91350 0.76752 0.39766-0.64054
   1  -1   4 132342. 1497.99  10 0.51769-0.38098 0.76213-0.90793 0.51120-0.26853
  -1  -1  -4 138337. 1272.67   8 0.65197-0.78877 0.17688-0.32292-0.53927 0.29649
  -1  -1  -4 137147. 917.133   7 0.47705-0.61404-0.87385 0.72793 0.21167-0.45456
  -1  -1  -5 157562. 1897.38   9 0.73295-0.88427-0.61149 0.46548-0.09410-0.20413
   1  -1   5 157067. 1665.19   1 0.63644-0.48520-0.60975 0.46415-0.29079 0.58879
  -1  -1  -5 156981. 1548.55   8 0.70134-0.85278 0.15262-0.29869-0.48668 0.18839
   1  -1   5 154730. 1781.40  10 0.51836-0.36706 0.78084-0.92661 0.47268-0.17447
  -1  -1  -5 160807. 1160.26   7 0.56943-0.72106-0.81602 0.67008 0.05883-0.35727
  -1  -1  -6 7934.20 391.305   8 0.72440-0.89049 0.14043-0.28654-0.45999 0.10617
  -1  -1  -6 7839.20 466.266   9 0.71692-0.88283-0.61511 0.46907-0.12740-0.22636
  -1  -1  -6 8530.88 305.065   7 0.61519-0.78147-0.75916 0.61319-0.04096-0.31303
   1  -1   6 7777.36 406.430   1 0.71746-0.55167-0.57585 0.43029-0.19224 0.54574
   1  -1   6 7940.33 443.731  10 0.51831-0.35241 0.78997-0.93573 0.45224-0.09850
  -1  -1  -7 22962.1 552.290   7 0.64157-0.82249-0.70806 0.56206-0.11411-0.29543
   1  -1   7 23230.1 749.277   1 0.77630-0.59594-0.54202 0.39649-0.10946 0.51849
  -1  -1  -7 23079.2 718.411   8 0.73374-0.91446 0.13532-0.28146-0.44875 0.03942
   1  -1   7 23292.8 817.252  10 0.51820-0.33772 0.79370-0.93943 0.44355-0.03427
  -1  -1  -7 22797.6 851.003   9 0.70066-0.88116-0.61791 0.47185-0.15938-0.24990
  -1  -1  -8 17501.5 528.329   7 0.65823-0.85380-0.66108 0.51505-0.17285-0.29223
   1  -1   8 15652.1 717.045  10 0.51819-0.32311 0.79400-0.93971 0.44284 0.02197
  -1  -1  -8 16029.2 653.087   8 0.73494-0.93030 0.13465-0.28083-0.44728-0.01756
  -1  -1  -8 16642.6 779.847   9 0.68401-0.87911-0.61998 0.47391-0.19047-0.27433
  -1  -1  -9 56180.8 1308.12   8 0.73078-0.94078 0.13695-0.28316-0.45234-0.06802
  -1  -1  -9 61394.0 1066.20   7 0.66913-0.87934-0.61646 0.47041-0.22311-0.29751
   1  -1   9 55820.0 1317.24   1 0.85484-0.64536-0.47742 0.33198 0.02463 0.49542
  -1  -1  -9 55429.9 1508.85   9 0.66690-0.87659-0.62140 0.47531-0.22095-0.29938
   1  -1   9 55037.9 1432.31  10 0.51826-0.30859 0.79191-0.93760 0.44775 0.07260
  -1  -1 -10 6371.93 473.577   8 0.72277-0.94740 0.14131-0.28756-0.46193-0.11394
  -1  -1 -10 6627.15 563.471   9 0.64924-0.87352-0.62217 0.47607-0.25097-0.32489
   1  -1  10 5160.78 479.809  10 0.51834-0.29408 0.78800-0.93368 0.45675 0.11914
  -1  -1 -11 7313.82 539.905   8 0.71176-0.95103 0.14719-0.29347-0.47481-0.15659
  -1  -1 -11 7409.90 624.671   9 0.63098-0.86985-0.62233 0.47620-0.28065-0.35073
   1  -1  11 7526.03 604.896  10 0.51837-0.27951 0.78261-0.92826 0.46881 0.16262
   1  -1  12 128.246 123.011  10 0.51828-0.26483 0.77591-0.92154 0.48322 0.20374
  -1  -1 -12 315.840 147.188   8 0.69827-0.95219 0.15420-0.30051-0.49012-0.19679
  -1  -1 -12 175.304 173.866   9 0.61208-0.86554-0.62186 0.47571-0.31008-0.37683
   1  -1  13 1365.07 297.340  10 0.51800-0.24996 0.76804-0.91365 0.49947 0.24303
  -1  -1 -13 2324.68 338.024   8 0.68263-0.95119 0.16209-0.30844-0.50729-0.23513
  -1  -1 -13 1722.17 341.128   9 0.59249-0.86055-0.62076 0.47460-0.33929-0.40313
  -1  -1 -14 1002.55 293.080   9 0.57218-0.85483-0.61902 0.47284-0.36835-0.42959
  -1  -1 -14 906.457 241.172   8 0.66503-0.94822 0.17069-0.31708-0.52591-0.27203
   1  -1  14 1204.09 292.952  10 0.51749-0.23485 0.75905-0.90464 0.51718 0.28086
   1  -1  15 1808.57 376.147  10 0.51669-0.21946 0.74898-0.89455 0.53606 0.31751
  -1  -1 -15 2688.27 479.192   9 0.55110-0.84835-0.61663 0.47043-0.39728-0.45619
  -1  -1 -15 1672.22 326.887   8 0.64556-0.94339 0.17987-0.32629-0.54568-0.30778
   1  -1  16 1270.19 335.213  10 0.51555-0.20373 0.73783-0.88338 0.55591 0.35320
  -1  -1 -16 926.511 299.916   9 0.52922-0.84106-0.61356 0.46735-0.42611-0.48289
  -1  -1 -17 3025.65 530.373   9 0.50648-0.83291-0.60979 0.46356-0.45484-0.50968
   1  -1  17 3099.98 511.742  10 0.51404-0.18763 0.72559-0.87112 0.57656 0.38809
   1   0 -19 6873.73 772.774   8 0.72799-0.92791 0.13848-0.13912-0.45570-0.57848
  -1   0  18 1963.80 443.701  10 0.51728-0.33291 0.75608-0.75570 0.52284 0.45625
   1   0 -18 1627.20 383.949   9 0.51697-0.70138-0.61160 0.61133-0.44173-0.53713
   1   0 -18 1893.69 397.286   8 0.75429-0.93957 0.12369-0.12429-0.42305-0.55562
  -1   0  17 3633.56 550.948  10 0.51804-0.34827 0.76891-0.76855 0.49770 0.42585
   1   0 -17 3080.48 494.530   9 0.54178-0.71160-0.61539 0.61514-0.40971-0.51362
  -1   0  16-280.879 188.026  10 0.51836-0.36318 0.78076-0.78041 0.47285 0.39517
   1   0 -16 57.4400 129.365   9 0.56581-0.72104-0.61836 0.61812-0.37723-0.49059
  -1   0  15 66.9052 152.891  10 0.51827-0.37768 0.79166-0.79133 0.44835 0.36413
   1   0 -15-402.313 196.310   9 0.58914-0.72977-0.62051 0.62029-0.34418-0.46811
  -1   0  14 395.695 190.463  10 0.51780-0.39181 0.80164-0.80134 0.42427 0.33267
   1   0 -14 660.309 184.112   7 0.67958-0.80633-0.53568 0.53538-0.30374-0.45329
   1   0 -14 414.325 190.004   9 0.61184-0.73788-0.62185 0.62164-0.31044-0.44632
  -1   0  13 748.787 226.021  10 0.51700-0.40560 0.81074-0.81046 0.40073 0.30068
   1   0 -13 1029.85 256.586   9 0.63399-0.74544-0.62234 0.62216-0.27585-0.42540
   1   0 -13 1077.69 218.117   7 0.67648-0.78858-0.56958 0.56930-0.27134-0.43013
   1   0 -12-267.362 144.655   9 0.65569-0.75254-0.62197 0.62180-0.24016-0.40556
  -1   0  12 86.1137 142.219  10 0.51590-0.41909 0.81898-0.81871 0.37786 0.26801
   1   0 -12-23.4721 83.0632   7 0.67179-0.76925-0.60208 0.60183-0.23836-0.40757
  -1   0  11 3360.87 389.597  10 0.51456-0.43235 0.82635-0.82611 0.35585 0.23448
   1   0 -11 3054.94 331.205   7 0.66550-0.74831-0.63335 0.63312-0.20464-0.38574
   1   0 -11 3623.89 406.525   9 0.67703-0.75930-0.62064 0.62050-0.20308-0.38711
   1   0 -10 58026.9 1351.51   7 0.65751-0.72568-0.66351 0.66331-0.16997-0.36487
   1   0 -10 57221.3 1491.30   9 0.69814-0.76582-0.61827 0.61814-0.16417-0.37050
  -1   0  10 57558.9 1462.83  10 0.51304-0.44541 0.83287-0.83264 0.33496 0.19983
  -1   0   9 3839.98 364.023  10 0.51141-0.45838 0.83850-0.83829 0.31559 0.16367
   1   0  -9 3849.56 335.275   7 0.64769-0.70122-0.69271 0.69254-0.13405-0.34524
   1   0  -9 3434.04 350.695   9 0.71919-0.77227-0.61465 0.61454-0.12279-0.35636
  -1   0   8 2724.70 286.314  10 0.50979-0.47135 0.84319-0.84301 0.29831 0.12541
   1   0  -8 2647.10 258.336   7 0.63578-0.67466-0.72112 0.72098-0.09647-0.32727
   1   0  -8 2714.06 288.581   9 0.74038-0.77887-0.60949 0.60940-0.07798-0.34564
   1   0  -7 2960.72 259.838   7 0.62134-0.64558-0.74892 0.74880-0.05659-0.31161
  -1   0   7 2912.27 270.880  10 0.50834-0.48449 0.84684-0.84667 0.28407 0.08411
   1   0  -7 2878.23 277.588   9 0.76198-0.78588-0.60227 0.60220-0.02822-0.33988
   1   0  -6 162514. 1744.94   7 0.60369-0.61328-0.77632 0.77623-0.01343-0.29922
   1   0  -6 160823. 1819.66   9 0.78435-0.79366-0.59204 0.59198 0.02905-0.34163
  -1   0   6 160933. 1813.80  10 0.50729-0.49804 0.84919-0.84904 0.27444 0.03821
   1   0  -5 77.6101 55.4556   9 0.80789-0.80260-0.57687 0.57683 0.09846-0.35551
  -1   0   5 55.9926 58.4483  10 0.50705-0.51239 0.84970-0.84958 0.27228-0.01517
   1   0  -5 2.05529 50.0993   7 0.58156-0.57651-0.80359 0.80353 0.03463-0.29173
   1   0  -4 13449.8 418.984   7 0.55260-0.53290-0.83094 0.83090 0.09041-0.29196
  -1   0   4 12807.6 408.582  10 0.50827-0.52820 0.84699-0.84689 0.28344-0.08187
   1   0  -4 12990.5 415.681   9 0.83263-0.81275-0.55242 0.55240 0.18911-0.39064
  -1   0   4 14238.4 246.585   6-0.34792 0.32805 0.93429-0.93438-0.01826 0.21984
   1   0  -3 790996. 2838.30   7 0.51184-0.47750-0.85819 0.85819 0.15933-0.30534
  -1   0   3 785053. 1881.71   6-0.21240 0.17794 0.97632-0.97640-0.01864 0.16469
   1   0  -2 4828.35 175.979   9 0.85537-0.80630-0.40119 0.40121 0.54025-0.63073
  -1   0   2 4720.28 171.582  10 0.51789-0.56700 0.80029-0.80023 0.42763-0.33713
  -1   0   2 4984.99 154.580   6-0.11527 0.06622 0.99321-0.99327-0.01867 0.10918
   1   0  -1 28796.4 343.360   9 0.67226-0.60860-0.09378 0.09381 0.88515-0.92010
  -1   0   1 28235.9 299.296  10 0.48547-0.54918 0.59377-0.59373 0.74683-0.71186
  -1   0   0 48039.1 486.156   8-0.03910-0.03911 0.36787-0.36789-0.90628 0.88565
  -1   0  -1 627.460 69.5545   9 0.36182-0.45467-0.57418 0.57410-0.61343 0.53734
  -1   0  -1 722.050 73.8601   8 0.43498-0.52783 0.26172-0.26178-0.71627 0.64013
   1   0   1 1049.90 74.8796  10 0.33633-0.24344 0.81245-0.81245-0.37063 0.44674
  -1   0  -1 727.309 61.8704   6-0.06022-0.03262 0.99816-0.99817-0.01861-0.05750
  -1   0  -2 3347.47 123.419   7 0.63729-0.74484-0.18822 0.18809-0.55273 0.42100
   1   0   2 3261.15 167.234  10 0.40662-0.29913 0.86258-0.86256-0.18292 0.31457
  -1   0  -2 3169.30 173.367   8 0.63803-0.74551 0.18333-0.18342-0.55311 0.42145
  -1   0  -2 3634.91 130.090   6-0.12065 0.01320 0.99255-0.99255-0.01867-0.11297
  -1   0  -2 3414.93 187.178   9 0.50352-0.61096-0.60926 0.60917-0.45849 0.32688
  -1   0  -3 117846. 892.156   7 0.67398-0.79618-0.36988 0.36972-0.43889 0.25161
  -1   0  -3 116522. 1256.77   9 0.55994-0.68198-0.61770 0.61760-0.38530 0.19816
   1   0   3 115767. 1171.81  10 0.43691-0.31483 0.87560-0.87557-0.08305 0.27023
  -1   0  -3 122058. 738.950   6-0.22064 0.09860 0.97440-0.97438-0.01863-0.16855
  -1   0  -3 117700. 1215.41   8 0.72292-0.84505 0.14123-0.14135-0.46174 0.27457
   1   0   4 7921.85 352.284  10 0.45491-0.31825 0.87938-0.87932-0.01489 0.25761
  -1   0  -4 8314.72 280.739   7 0.68017-0.81701-0.44106 0.44087-0.38511 0.14229
  -1   0  -4 7827.15 369.736   9 0.58423-0.72086-0.62012 0.62000-0.35126 0.10859
   1   0   4 8014.94 367.997   1 0.76621-0.62976-0.54851 0.54855-0.12450 0.36708
  -1   0  -4 8292.00 185.807   6-0.36120 0.22456 0.92892-0.92889-0.01820-0.22452
  -1   0  -5 64752.8 1172.50   9 0.59357-0.74479-0.62083 0.62069-0.33772 0.03954
   1   0   5 66610.9 1130.54  10 0.46756-0.31630 0.87947-0.87939 0.03862 0.25964
   1   0   5 66854.4 1158.34   1 0.80909-0.65807-0.51845 0.51853-0.05762 0.35571
  -1   0  -5 68730.7 909.846   7 0.68112-0.83261-0.46884 0.46862-0.36247 0.06411
  -1   0  -6 204786. 1732.47   7 0.68122-0.84735-0.47605 0.47580-0.35644 0.00253
   1   0   6 198707. 2164.88   1 0.84126-0.67569-0.49082 0.49094-0.00126 0.35487
  -1   0  -6 194566. 2213.00   9 0.59472-0.76053-0.62091 0.62075-0.33603-0.01768
   1   0   6 202277. 2159.78  10 0.47729-0.31144 0.87755-0.87745 0.08423 0.26956
  -1   0  -7 91959.1 1650.24   9 0.59082-0.77122-0.62064 0.62046-0.34174-0.06750
   1   0   7 85989.0 1537.99  10 0.48520-0.30476 0.87426-0.87414 0.12511 0.28422
  -1   0  -7 88627.4 1243.53   7 0.68117-0.86194-0.47176 0.47149-0.36004-0.04942
  -1   0  -8 2838.80 243.308   7 0.68092-0.87633-0.46017 0.45987-0.36964-0.09537
  -1   0  -8 2847.97 323.065   9 0.58347-0.77847-0.62006 0.61986-0.35235-0.11241
   1   0   8 3290.97 328.141  10 0.49182-0.29678 0.86987-0.86973 0.16295 0.30192
  -1   0  -9 5911.36 483.438   9 0.57359-0.78318-0.61916 0.61895-0.36638-0.15390
  -1   0  -9 5692.60 362.409   7 0.68028-0.89034-0.44341 0.44308-0.38322-0.13733
   1   0   9 5471.34 453.695  10 0.49745-0.28782 0.86452-0.86436 0.19870 0.32171
  -1   0 -10 32372.4 1184.77   9 0.56171-0.78590-0.61791 0.61767-0.38287-0.19294
   1   0  10 30914.0 1123.58  10 0.50226-0.27804 0.85826-0.85808 0.23297 0.34298
  -1   0 -11 4551.91 363.956   7 0.67709-0.91644-0.39859 0.39821-0.41788-0.21376
  -1   0 -11 4165.98 436.721   8 0.75107-0.99031 0.12554-0.12595-0.42716-0.20414
   1   0  11 3995.92 435.924  10 0.50636-0.26754 0.85114-0.85094 0.26615 0.36533
  -1   0 -11 3535.63 417.799   9 0.54818-0.78696-0.61625 0.61600-0.40120-0.23013
   1   0  12 21820.8 1060.38  10 0.50981-0.25640 0.84315-0.84293 0.29850 0.38852
  -1   0 -12 21485.8 1076.51   9 0.53321-0.78658-0.61417 0.61390-0.42093-0.26592
  -1   0 -12 20060.1 993.627   8 0.73694-0.99082 0.13354-0.13398-0.44483-0.24199
  -1   0 -13 206.839 151.898   8 0.72113-0.98964 0.14219-0.14267-0.46386-0.27847
   1   0  13 403.602 175.284  10 0.51266-0.24466 0.83428-0.83404 0.33021 0.41234
  -1   0 -13 230.851 166.813   9 0.51695-0.78491-0.61160 0.61131-0.44176-0.30062
  -1   0 -14 900.301 263.717   8 0.70373-0.98688 0.15139-0.15189-0.48399-0.31386
  -1   0 -14 1277.68 303.817   9 0.49947-0.78203-0.60852 0.60821-0.46346-0.33444
   1   0  14 840.435 247.131  10 0.51493-0.23234 0.82453-0.82428 0.36142 0.43667
   1   0  15 133.568 146.798  10 0.51663-0.21944 0.81387-0.81360 0.39222 0.46140
  -1   0 -15-2.30521 114.388   8 0.68477-0.98256 0.16103-0.16157-0.50498-0.34838
  -1   0 -15 4.99563 128.590   9 0.48085-0.77799-0.60488 0.60456-0.48585-0.36757
  -1   0 -16 8622.06 820.362   9 0.46110-0.77284-0.60065 0.60031-0.50882-0.40013
   1   0  16 8131.83 787.994  10 0.51776-0.20598 0.80227-0.80197 0.42270 0.48647
  -1   0 -16 7718.17 753.081   8 0.66428-0.97671 0.17105-0.17162-0.52668-0.38220
  -1   0 -17 7358.37 755.519   8 0.64224-0.96930 0.18140-0.18201-0.54897-0.41542
  -1   0 -17 8852.26 878.433   9 0.44023-0.76657-0.59579 0.59542-0.53226-0.43221
   1   0  17 8964.52 857.522  10 0.51831-0.19194 0.78969-0.78937 0.45290 0.51180
  -1   0 -18-52.5977 182.342   9 0.41824-0.75917-0.59024 0.58986-0.55609-0.46390
  -1   0 -18 129.355 153.835   8 0.61859-0.96029 0.19205-0.19270-0.57174-0.44817
   1   1 -19 5765.12 719.551   9 0.40410-0.60301-0.58645 0.73203-0.57097-0.46336
   1   1 -18 1072.99 325.698   9 0.42781-0.61213-0.59270 0.73830-0.54583-0.43299
  -1   1  18 1559.04 373.177  10 0.51756-0.33324 0.80486-0.65863 0.41613 0.56301
   1   1 -17 3362.16 520.443   9 0.45037-0.62010-0.59820 0.74382-0.52097-0.40232
  -1   1  17 4151.15 582.766  10 0.51616-0.34642 0.81732-0.67110 0.38260 0.54100
  -1   1  16 2122.58 410.176  10 0.51405-0.35891 0.82870-0.68251 0.34847 0.51960
   1   1 -16 2708.55 404.455   7 0.67377-0.82966-0.36817 0.51354-0.44011-0.42793
   1   1 -16 2163.40 406.541   9 0.47181-0.62694-0.60299 0.74863-0.49646-0.37131
  -1   1  15 797.087 253.788  10 0.51124-0.37069 0.83905-0.69288 0.31361 0.49893
   1   1 -15 635.067 227.909   9 0.49213-0.63267-0.60713 0.75278-0.47237-0.33987
   1   1 -15 425.285 172.034   7 0.67704-0.81828-0.39798 0.54338-0.41834-0.39416
  -1   1  14 14447.3 920.196  10 0.50767-0.38171 0.84837-0.70221 0.27785 0.47915
   1   1 -14 14198.9 849.112   7 0.67928-0.80588-0.42577 0.57119-0.39715-0.35980
   1   1 -14 13596.1 877.803   9 0.51133-0.63728-0.61064 0.75632-0.44881-0.30791
   1   1 -13 677.051 207.356   9 0.52938-0.64074-0.61359 0.75928-0.42589-0.27530
  -1   1  13 884.994 244.845  10 0.50330-0.39194 0.85664-0.71050 0.24098 0.46048
   1   1 -13 880.968 214.636   7 0.68063-0.79258-0.45156 0.59700-0.37667-0.32474
  -1   1  12 22054.9 1029.02  10 0.49805-0.40128 0.86384-0.71772 0.20273 0.44319
   1   1 -12 20654.9 971.054   9 0.54622-0.64298-0.61600 0.76171-0.40381-0.24186
   1   1 -12 22258.8 980.956   7 0.68121-0.77853-0.47533 0.62080-0.35705-0.28881
   1   1 -11 14842.1 776.468   9 0.56175-0.64392-0.61791 0.76364-0.38282-0.20733
   1   1 -11 13342.2 729.615   7 0.68116-0.76383-0.49701 0.64251-0.33850-0.25181
   1   1 -10 2050.81 285.259   9 0.57580-0.64337-0.61937 0.76512-0.36327-0.17136
  -1   1  10 1944.43 290.707  10 0.48433-0.41675 0.87471-0.72864 0.12041 0.41444
   1   1 -10 1768.27 264.263   7 0.68062-0.74864-0.51648 0.66201-0.32128-0.21349
  -1   1   9 23023.4 879.545  10 0.47542-0.42242 0.87808-0.73203 0.07506 0.40425
   1   1  -9 23013.2 870.462   7 0.67973-0.73311-0.53351 0.67907-0.30575-0.17347
   1   1  -9 21788.2 828.410   9 0.58809-0.64107-0.62043 0.76620-0.34570-0.13340
   1   1  -8 40241.2 1040.00   9 0.59817-0.63656-0.62114 0.76692-0.33095-0.09263
   1   1  -8 41894.4 1108.29   7 0.67867-0.71741-0.54777 0.69336-0.29240-0.13127
  -1   1   8 39762.6 1082.04  10 0.46460-0.42620 0.87968-0.73364 0.02557 0.39820
  -1   1   7 21413.3 733.269  10 0.45117-0.42736 0.87890-0.73289-0.02976 0.39799
   1   1  -7 22000.0 763.466   7 0.67766-0.70175-0.55873 0.70434-0.28192-0.08620
   1   1  -7 20492.7 683.314   9 0.60525-0.62904-0.62154 0.76734-0.32041-0.04764
   1   1  -6 10861.1 509.126   7 0.67694-0.68639-0.56552 0.71116-0.27532-0.03725
  -1   1   6 11809.7 502.459  10 0.43391-0.42470 0.87465-0.72865-0.09365 0.40635
   1   1  -6 11295.2 458.871   9 0.60781-0.61702-0.62167 0.76749-0.31655 0.00402
   1   1  -5 48696.5 844.672   9 0.60271-0.59732-0.62141 0.76724-0.32420 0.06720
   1   1  -5 47798.6 994.129   7 0.67680-0.67161-0.56675 0.71242-0.27411 0.01708
  -1   1   5 49849.8 933.112  10 0.41058-0.41595 0.86466-0.71868-0.17070 0.42787
   1   1  -4 135135. 1543.97   7 0.67753-0.65769-0.56003 0.70572-0.28066 0.07918
  -1   1   4 135908. 1380.76  10 0.37662-0.39659 0.84391-0.69796-0.26908 0.47071
   1   1  -4 138244. 1236.15   9 0.58216-0.56218-0.61995 0.76580-0.35422 0.15274
   1   1  -3 230301. 1289.49   9 0.52124-0.48667-0.61231 0.75818-0.43632 0.29037
   1   1  -3 222982. 1832.16   7 0.67921-0.64473-0.54095 0.68667-0.29883 0.15290
  -1   1   3 224912. 1555.77  10 0.32193-0.35649 0.79978-0.65385-0.40379 0.54988
   1   1  -2 142376. 1044.28   3 0.64694-0.59801 0.38667-0.24089 0.80456-0.89508
  -1   1   2 139607. 1232.57   7 0.08547-0.13430 0.68275-0.53705-0.67735 0.76789
   1   1  -2 136758. 1284.46   7 0.68110-0.63197-0.50080 0.64655-0.33518 0.24479
  -1   1   2 139018. 1045.30  10 0.22205-0.27120 0.69650-0.55059-0.59965 0.69020
  -1   1   1 190904. 1405.40   7 0.25759-0.32107 0.51064-0.36496-0.72341 0.75840
  -1   1   1 191931. 1074.70  10 0.02632-0.09007 0.43825-0.29235-0.85979 0.89480
   1   1   0 274987. 1383.48   7 0.65455-0.57614-0.25759 0.40339-0.51291 0.53361
  -1   1   0 283332. 1731.66   7 0.40661-0.48474 0.31219-0.16654-0.72111 0.70055
  -1   1   0 295317. 1614.42   4 0.54822-0.62639 0.38806-0.24237 0.85895-0.87944
   1   1   0 275447. 1672.42  10-0.14133 0.21958 0.16979-0.02396-0.97809 0.99872
   1   1   1 357473. 1983.87  10 0.02103 0.07182 0.43042-0.28457-0.86496 0.94112
  -1   1  -1 351247. 1993.58   7 0.51342-0.60619 0.12753 0.01809-0.68328 0.60717
   1   1   1 358574. 1347.78   7 0.53736-0.44430 0.07859 0.06724-0.66835 0.74460
   1   1   2 90974.1 1081.87  10 0.15160-0.04416 0.61093-0.46507-0.70959 0.84129
  -1   1  -2 89772.1 1064.59   7 0.57993-0.68733-0.01907 0.16467-0.63274 0.50109
   1   1   2 95006.9 626.701   7 0.17920-0.07150 0.59563-0.44977-0.70807 0.83987
  -1   1  -2 92660.0 1095.15   8 0.69886-0.80630 0.15390-0.00811-0.48947 0.35791
  -1   1  -3 39981.1 763.887   7 0.61827-0.74032-0.12485 0.27041-0.58548 0.39828
   1   1   3 39050.4 774.115  10 0.24436-0.12233 0.72161-0.57572-0.56038 0.74762
  -1   1  -3 38842.5 795.758   8 0.75035-0.87244 0.12596 0.01980-0.42808 0.24100
   1   1   4 128405. 1530.95  10 0.30885-0.17222 0.78772-0.64181-0.43267 0.67544
  -1   1  -4 130578. 1466.15   7 0.63973-0.77642-0.19716 0.34270-0.54784 0.30509
   1   1   5 154185. 1819.56  10 0.35475-0.20353 0.82762-0.68169-0.32593 0.62424
  -1   1  -5 155939. 1831.38   9 0.36259-0.51371-0.57441 0.72014-0.61269 0.31455
  -1   1  -5 159078. 1720.02   7 0.65163-0.80297-0.24466 0.39017-0.52065 0.22236
   1   1   6 8465.91 466.171  10 0.38862-0.22281 0.85195-0.70600-0.23587 0.58971
  -1   1  -6 8525.22 427.959   7 0.65813-0.82411-0.27426 0.41974-0.50269 0.14885
  -1   1  -6 7771.85 445.918   9 0.39766-0.56338-0.58467 0.73039-0.57762 0.22396
   1   1   7 22391.9 811.566  10 0.41450-0.23410 0.86662-0.72065-0.15837 0.56775
  -1   1  -7 22715.1 741.077   7 0.66145-0.84207-0.29083 0.43629-0.49227 0.08289
  -1   1  -7 22599.8 814.544   9 0.41844-0.59875-0.59029 0.73598-0.55588 0.14670
   1   1   8 16486.0 747.467  10 0.43488-0.23988 0.87496-0.72898-0.09026 0.55518
  -1   1  -8 15496.5 645.313   7 0.66276-0.85803-0.29771 0.44314-0.48787 0.02294
  -1   1  -8 15462.5 721.799   9 0.42958-0.62448-0.59315 0.73883-0.54392 0.07921
  -1   1  -9 53831.0 1257.91   7 0.66265-0.87257-0.29715 0.44255-0.48823-0.03225
   1   1   9 54499.1 1449.01  10 0.45131-0.24172 0.87892-0.73292-0.02922 0.54967
  -1   1  -9 52879.2 1408.28   9 0.43391-0.64341-0.59423 0.73989-0.53920 0.01896
  -1   1 -10 6071.68 513.690   9 0.43324-0.65732-0.59407 0.73971-0.53994-0.03582
  -1   1 -10 5977.23 444.996   7 0.66142-0.88598-0.29069 0.43606-0.49236-0.08367
   1   1  10 5612.70 497.531  10 0.46479-0.24061 0.87967-0.73364 0.02643 0.54956
  -1   1 -11 7659.69 607.002   9 0.42870-0.66738-0.59293 0.73855-0.54487-0.08642
   1   1  11 7444.00 607.663  10 0.47600-0.23723 0.87793-0.73188 0.07789 0.55364
  -1   1 -11 7149.40 511.249   7 0.65917-0.89837-0.27937 0.42471-0.49951-0.13207
  -1   1 -12 108.073 91.5707   7 0.65593-0.90978-0.26390 0.40922-0.50906-0.17806
  -1   1 -12 244.616 154.351   9 0.42109-0.67436-0.59098 0.73658-0.55306-0.13375
  -1   1 -12 278.129 169.091   8 0.74596-0.99979 0.12847 0.01697-0.43363-0.25310
   1   1  12 269.751 154.983  10 0.48538-0.23201 0.87416-0.72809 0.12607 0.56100
  -1   1 -13 2417.42 333.360   7 0.65166-0.92015-0.24479 0.39008-0.52058-0.22209
  -1   1 -13 1935.88 358.156   8 0.73110-0.99958 0.13677 0.00863-0.45195-0.29030
  -1   1 -13 1709.17 332.753   9 0.41092-0.67878-0.58830 0.73389-0.56384-0.17849
   1   1  13 1459.70 317.806  10 0.49324-0.22528 0.86868-0.72259 0.17161 0.57099
   1   1  14 805.529 263.608  10 0.49981-0.21726 0.86167-0.71556 0.21503 0.58311
  -1   1 -14 915.490 262.103   8 0.71473-0.99784 0.14561-0.00024-0.47136-0.32640
  -1   1 -14 899.931 261.536   9 0.39857-0.68102-0.58493 0.73049-0.57669-0.22116
  -1   1 -15 1956.57 379.575   9 0.38428-0.68133-0.58087 0.72642-0.59124-0.26214
   1   1  15 2717.82 460.147  10 0.50525-0.20811 0.85327-0.70714 0.25672 0.59696
  -1   1 -15 2888.84 475.832   8 0.69689-0.99464 0.15491-0.00957-0.49166-0.36161
  -1   1 -16 1162.85 323.652   8 0.67758-0.98997 0.16459-0.01929-0.51271-0.39608
  -1   1 -16 1653.34 356.707   9 0.36825-0.67989-0.57613 0.72166-0.60717-0.30173
   1   1  16 793.983 252.777  10 0.50966-0.19792 0.84355-0.69740 0.29697 0.61224
  -1   1 -17 2595.49 468.061   8 0.65680-0.98382 0.17461-0.02934-0.53437-0.42994
   1   1  17 3521.83 555.883  10 0.51312-0.18680 0.83254-0.68637 0.33603 0.62872
  -1   1 -18 4739.29 672.484   8 0.63450-0.97617 0.18493-0.03970-0.55655-0.46328
  -1   2  18 420.840 210.621  10 0.51188-0.32759 0.83701-0.54492 0.32085 0.65834
  -1   2  17 1368.20 351.597  10 0.50791-0.33822 0.84782-0.55576 0.28009 0.64357
   1   2 -17 977.118 274.502   7 0.65150-0.82189-0.24413 0.53520-0.52097-0.40255
  -1   2  16 1181.55 307.104  10 0.50293-0.34783 0.85723-0.56519 0.23807 0.63005
   1   2 -16 444.613 193.010   7 0.65719-0.81293-0.26978 0.56088-0.50546-0.36251
   1   2 -15 3990.44 501.695   7 0.66188-0.80297-0.29307 0.58419-0.49084-0.32158
  -1   2  15 3679.93 504.794  10 0.49683-0.35632 0.86520-0.57317 0.19456 0.61803
   1   2 -14 721.394 228.035   9 0.36955-0.49540-0.57652 0.86807-0.60589-0.15078
   1   2 -14 381.783 181.627   7 0.66569-0.79214-0.31396 0.60510-0.47730-0.27957
  -1   2  14 470.211 213.228  10 0.48951-0.36359 0.87161-0.57960 0.14925 0.60779
   1   2 -13 1780.19 323.364   7 0.66873-0.78054-0.33234 0.62352-0.46502-0.23631
  -1   2  13 1981.76 344.461  10 0.48079-0.36947 0.87632-0.58434 0.10179 0.59972
   1   2 -13 2064.18 332.269   9 0.37899-0.49025-0.57933 0.87090-0.59654-0.10461
   1   2 -12 3190.82 384.252   9 0.38531-0.48198-0.58117 0.87276-0.59020-0.05542
  -1   2  12 3051.19 404.059  10 0.47045-0.37372 0.87911-0.58714 0.05169 0.59428
   1   2 -12 2772.81 378.400   7 0.67109-0.76825-0.34807 0.63927-0.45425-0.19153
   1   2 -11 9551.21 615.651   9 0.38778-0.46985-0.58188 0.87348-0.58771-0.00239
   1   2 -11 9155.17 647.783   7 0.67285-0.75537-0.36092 0.65215-0.44526-0.14497
  -1   2  11 8501.07 629.337  10 0.45817-0.37603 0.87963-0.58769-0.00164 0.59207
  -1   2  10 16901.7 838.705  10 0.44352-0.37597 0.87741-0.58548-0.05896 0.59386
   1   2 -10 16204.6 750.855   9 0.38529-0.45277-0.58116 0.87279-0.59022 0.05564
   1   2 -10 16575.7 838.428   7 0.67406-0.74194-0.37054 0.66179-0.43842-0.09627
   1   2  -9 32572.0 1121.94   7 0.67477-0.72800-0.37646 0.66775-0.43415-0.04499
   1   2  -9 34588.0 1026.51   9 0.37616-0.42905-0.57850 0.87013-0.59936 0.12031
  -1   2   9 32266.5 1089.88  10 0.42587-0.37292 0.87168-0.57978-0.12129 0.60065
   1   2  -8 3706.72 370.435   7 0.67495-0.71354-0.37805 0.66936-0.43301 0.00941
  -1   2   8 4347.38 381.109  10 0.40432-0.36597 0.86133-0.56944-0.18989 0.61372
   1   2  -7 10240.9 579.794   7 0.67452-0.69847-0.37438 0.66572-0.43566 0.06761
  -1   2   7 10324.4 546.459  10 0.37760-0.35383 0.84459-0.55273-0.26643 0.63472
   1   2  -6 33477.5 991.421   7 0.67327-0.68257-0.36419 0.65556-0.44294 0.13044
  -1   2   6 34747.9 928.733  10 0.34377-0.33460 0.81872-0.52688-0.35289 0.66564
   1   2  -5 4002.02 332.142   7 0.67075-0.66540-0.34570 0.63710-0.45589 0.19893
  -1   2   5 4197.13 307.185  10 0.30008-0.30550 0.77935-0.48753-0.45143 0.70864
  -1   2   4 24178.4 676.347  10 0.24261-0.26262 0.71968-0.42788-0.56354 0.76522
  -1   2   4 22838.3 656.751   7 0.02718-0.04658 0.72952-0.43803-0.65193 0.85363
   1   2  -4 23223.9 746.275   7 0.66610-0.64612-0.31636 0.60779-0.47571 0.27430
   1   2  -3 95533.0 972.729   3 0.75049-0.71615 0.39584-0.10435 0.70850-0.85466
  -1   2   3 93513.7 1241.85  10 0.16658-0.20119 0.62988-0.33810-0.68788 0.83402
   1   2  -3 91265.9 1392.83   7 0.65778-0.62315-0.27258 0.56403-0.50373 0.35787
  -1   2   3 91140.9 1288.03   7 0.14419-0.17823 0.62994-0.33848-0.69810 0.84425
   1   2  -2 42790.1 505.687   4 0.64582-0.59667 0.31599-0.02458 0.84035-0.93064
  -1   2   2 40295.0 777.153  10 0.06815-0.11734 0.49861-0.20685-0.81565 0.90625
   1   2  -2 42491.3 631.038   3 0.52033-0.47133 0.36592-0.07447 0.88140-0.97202
   1   2  -2 39648.9 865.657   7 0.64294-0.59367-0.20932 0.50080-0.54106 0.45075
  -1   2   2 39242.5 855.208   7 0.25502-0.30371 0.51361-0.22218-0.72307 0.81367
   1   2  -1 8714.55 389.653   7 0.61669-0.55277-0.11999 0.41150-0.58785 0.55308
  -1   2   1 9340.96 416.026   7 0.35240-0.41573 0.39081-0.09941-0.72743 0.76248
  -1   2   1 9523.19 266.605   8 0.08778-0.15128 0.34814-0.05637-0.87696 0.91204
  -1   2   1 9303.04 362.651  10-0.05056-0.01323 0.32047-0.02873-0.92582 0.96089
  -1   2   1 10163.6 411.838   4 0.75996-0.82354 0.21061 0.08080 0.79297-0.75798
  -1   2   0 50593.1 859.961   4 0.63318-0.71132 0.32610-0.03470 0.84371-0.86417
   1   2   0 50023.9 866.692   7 0.57090-0.49234 0.00301 0.28853-0.64146 0.66224
  -1   2   0 51348.8 718.876   8 0.41594-0.49408 0.26784 0.02389-0.72851 0.70807
   1   2   0 49992.5 960.604  10-0.12903 0.20725 0.19097 0.10071-0.97271 0.99339
  -1   2   0 49535.6 967.745   7 0.43208-0.51005 0.27219 0.01919-0.71552 0.69504
  -1   2  -1 13777.8 430.666   8 0.58346-0.67623 0.20707 0.08463-0.60359 0.52763
  -1   2  -1 14173.5 441.871   4 0.44808-0.54078 0.44986-0.15848 0.86325-0.93916
   1   2   1 14144.1 520.780  10-0.03300 0.12581 0.34814-0.05644-0.91246 0.98868
  -1   2  -1 13623.3 523.698   7 0.49352-0.58614 0.16571 0.12564-0.69354 0.61751
   1   2   1 14356.2 439.300   7 0.49385-0.40065 0.16510 0.12646-0.69339 0.76972
  -1   2  -2 40164.8 918.031   7 0.53882-0.64609 0.07547 0.21585-0.66733 0.53575
   1   2   2 39977.4 902.594  10 0.05821 0.04919 0.48451-0.19279-0.82666 0.95841
   1   2   2 40008.8 702.056   7 0.37299-0.26514 0.36192-0.07033-0.72585 0.85773
  -1   2  -2 40257.1 821.464   8 0.67140-0.77880 0.16761 0.12405-0.51926 0.38779
  -1   2  -2 39637.4 433.178   2-0.12923 0.02169-0.21851 0.50971-0.96734 0.83589
  -1   2  -3 32407.3 809.321   8 0.71987-0.84192 0.14287 0.14876-0.46535 0.27836
   1   2   3 33852.8 628.636   7 0.20479-0.08230 0.56917-0.27755-0.71416 0.90158
   1   2   3 33021.6 852.595  10 0.13861-0.01662 0.59419-0.30245-0.72774 0.91503
  -1   2  -3 33225.6 873.492   7 0.57120-0.69310 0.00230 0.28900-0.64119 0.45406
  -1   2  -3 35927.6 521.687   2 0.31969-0.44183-0.16565 0.45682-0.81621 0.62923
  -1   2  -4 30366.0 873.304   7 0.59385-0.73040-0.05497 0.34624-0.61772 0.37504
   1   2   4 29130.8 837.800  10 0.20625-0.06966 0.67812-0.38636-0.62609 0.86892
  -1   2  -4 30298.9 856.258   8 0.74715-0.88384 0.12779 0.16381-0.43213 0.18962
  -1   2  -5 21498.7 767.017   7 0.60943-0.76062-0.09835 0.38958-0.59817 0.29995
   1   2   5 20721.0 748.260  10 0.26184-0.11066 0.74052-0.44874-0.52797 0.82634
   1   2   6 33395.9 1004.19  10 0.30720-0.14143 0.78616-0.49436-0.43624 0.79014
  -1   2  -6 34010.3 1006.86   7 0.61992-0.78576-0.12999 0.42120-0.58295 0.22918
   1   2   7 8323.38 538.869  10 0.34430-0.16394 0.81916-0.52734-0.35163 0.76106
  -1   2  -7 7985.54 511.983   7 0.62674-0.80722-0.15185 0.44304-0.57194 0.16262
   1   2   8 9677.69 612.844  10 0.37485-0.17990 0.84267-0.55083-0.27384 0.73882
  -1   2  -8 9496.03 580.807   7 0.63084-0.82597-0.16559 0.45675-0.56481 0.09995
  -1   2  -9 1903.93 276.813   7 0.63286-0.84263-0.17253 0.46366-0.56115 0.04075
   1   2   9 2355.33 332.342  10 0.40023-0.19068 0.85901-0.56716-0.20218 0.72269
   1   2  10 18864.9 940.645  10 0.42149-0.19735 0.86985-0.57797-0.13582 0.71187
  -1   2 -10 18537.5 875.584   7 0.63320-0.85761-0.17371 0.46481-0.56053-0.01543
  -1   2 -11 31616.2 1321.48   8 0.74535-0.98451 0.12881 0.16254-0.43439-0.19673
  -1   2 -11 30302.6 1161.46   7 0.63212-0.87117-0.16995 0.46102-0.56252-0.06898
   1   2  11 30879.6 1263.26  10 0.43943-0.20070 0.87634-0.58444-0.07398 0.70557
   1   2  12 1134.85 275.121  10 0.45465-0.20132 0.87935-0.58743-0.01598 0.70310
  -1   2 -12 1520.92 281.038   7 0.62974-0.88344-0.16186 0.45290-0.56676-0.12028
  -1   2 -12 992.992 264.447   8 0.73365-0.98745 0.13537 0.15595-0.44885-0.23778
   1   2  13 715.087 219.365  10 0.46760-0.19968 0.87946-0.58752 0.03879 0.70386
  -1   2 -13 702.365 235.336   8 0.72027-0.98870 0.14266 0.14862-0.46488-0.27727
  -1   2 -13 614.000 196.726   7 0.62615-0.89449-0.14990 0.44091-0.57294-0.16966
  -1   2 -14 6027.97 588.272   7 0.62133-0.90432-0.13441 0.42540-0.58075-0.21739
   1   2  14 6451.84 671.055  10 0.47862-0.19611 0.87712-0.58516 0.09082 0.70737
  -1   2 -14 5483.23 627.601   8 0.70531-0.98838 0.15057 0.14068-0.48219-0.31547
   1   2  15 923.030 306.245  10 0.48798-0.19088 0.87263-0.58065 0.14053 0.71321
  -1   2 -15 904.924 285.351   8 0.68882-0.98653 0.15900 0.13221-0.50057-0.35261
   1   2  16 635.222 267.531  10 0.49587-0.18418 0.86620-0.57420 0.18825 0.72102
  -1   2 -16-220.573 183.107   8 0.67084-0.98319 0.16788 0.12330-0.51985-0.38885
  -1   2 -17 917.812 307.396   8 0.65137-0.97835 0.17716 0.11398-0.53987-0.42435
   1   2  17 963.429 331.947  10 0.50243-0.17615 0.85800-0.56598 0.23429 0.73052
  -1   3  17 1506.35 370.451  10 0.49715-0.32751 0.86484-0.42693 0.19672 0.72699
   1   3 -17 1695.87 375.773   7 0.62604-0.79627-0.14954 0.58633-0.57312-0.35032
   1   3 -16 75.7625 115.874   7 0.63213-0.78772-0.17000 0.60682-0.56249-0.30540
  -1   3  16 65.6175 111.802  10 0.48946-0.33440 0.87164-0.43374 0.14899 0.71918
   1   3 -15 3572.20 511.139   7 0.63720-0.77815-0.18791 0.62475-0.55290-0.25945
  -1   3  15 3538.02 521.978  10 0.48034-0.33987 0.87650-0.43862 0.09949 0.71315
  -1   3  14 10447.9 839.322  10 0.46962-0.34375 0.87923-0.44137 0.04792 0.70918
   1   3 -14 10118.1 827.666   7 0.64133-0.76763-0.20316 0.64003-0.54451-0.21229
  -1   3  13 414.467 183.547  10 0.45709-0.34581 0.87956-0.44173-0.00606 0.70763
   1   3 -13 69.7303 137.223   7 0.64456-0.75622-0.21562 0.65252-0.53751-0.16375
  -1   3  12 4174.45 490.384  10 0.44247-0.34578 0.87715-0.43934-0.06285 0.70888
   1   3 -12 3112.83 437.448   7 0.64694-0.74395-0.22507 0.66200-0.53210-0.11361
  -1   3  11 68.7408 97.9232  10 0.42538-0.34329 0.87149-0.43369-0.12290 0.71339
   1   3 -11 141.005 136.383   7 0.64845-0.73082-0.23125 0.66821-0.52853-0.06163
  -1   3  10 16564.4 878.898  10 0.40537-0.33787 0.86190-0.42413-0.18673 0.72168
   1   3 -10 16169.6 913.138   7 0.64906-0.71679-0.23379 0.67077-0.52705-0.00757
  -1   3   9 7843.18 579.111  10 0.38181-0.32890 0.84748-0.40972-0.25490 0.73431
   1   3  -9 7425.24 600.926   7 0.64868-0.70177-0.23221 0.66922-0.52797 0.04890
  -1   3   8 13884.3 728.612  10 0.35395-0.31563 0.82698-0.38925-0.32794 0.75182
   1   3  -8 14088.9 791.052   7 0.64714-0.68558-0.22590 0.66294-0.53163 0.10810
   1   3  -7 19115.3 883.869   7 0.64418-0.66797-0.21410 0.65117-0.53837 0.17039
  -1   3   7 19257.3 813.918  10 0.32081-0.29709 0.79877-0.36106-0.40630 0.77464
   1   3  -6 9676.82 609.480   7 0.63937-0.64852-0.19584 0.63293-0.54856 0.23613
  -1   3   6 8926.01 531.637  10 0.28127-0.27214 0.76071-0.32302-0.49009 0.80290
   1   3  -5 53808.2 1375.83   7 0.63210-0.62661-0.16989 0.60701-0.56255 0.30567
  -1   3   5 52340.1 1195.07   7 0.03503-0.03963 0.72355-0.28631-0.65563 0.91295
  -1   3   5 54481.6 1243.19  10 0.23407-0.23953 0.71016-0.27249-0.57878 0.83605
   1   3  -4 882.171 186.977   7 0.62145-0.60131-0.13478 0.57193-0.58057 0.37923
  -1   3   4 912.303 165.321   7 0.12676-0.14601 0.64622-0.20901-0.69246 0.89423
  -1   3   4 803.343 156.517  10 0.17809-0.19814 0.64417-0.20652-0.67060 0.87234
   1   3  -3 2319.55 163.143   3 0.73421-0.69981 0.39504 0.04212 0.72631-0.87257
   1   3  -3 2801.88 159.863   4 0.31573-0.28111 0.51673-0.07964 0.85093-0.99664
  -1   3   3 2285.44 241.605  10 0.11279-0.14744 0.56008-0.12245-0.76198 0.90818
   1   3  -3 2493.65 279.820   7 0.60609-0.57131-0.08873 0.52590-0.60264 0.45685
  -1   3   3 2427.92 263.256   7 0.21293-0.24683 0.56049-0.12330-0.71589 0.86211
  -1   3   2 27262.0 845.695   4 0.78864-0.83763 0.17895 0.25819 0.77476-0.68427
   1   3  -2 30489.8 602.356   4 0.61629-0.56712 0.33923 0.09788 0.84773-0.93798
  -1   3   2 28768.1 823.660  10 0.03893-0.08817 0.45672-0.01911-0.84709 0.93775
  -1   3   2 28426.5 872.317   7 0.29064-0.33918 0.47116-0.03400-0.72676 0.81744
   1   3  -2 28493.3 892.349   7 0.58417-0.53475-0.02977 0.46697-0.62837 0.53813
   1   3  -2 30520.0 591.346   3 0.51923-0.47016 0.36570 0.07142 0.88192-0.97265
  -1   3   1 36108.2 901.858  10-0.04072-0.02311 0.33603 0.10156-0.91847 0.95359
  -1   3   1 34974.2 910.244   4 0.71891-0.78246 0.25182 0.18530 0.81403-0.77900
  -1   3   1 38457.2 602.632   8 0.07046-0.13392 0.35118 0.08646-0.88184 0.91701
   1   3  -1 38019.8 759.455   4 0.78326-0.71953 0.18509 0.25203 0.77843-0.81323
  -1   3   1 36764.4 1003.50   7 0.35809-0.42127 0.38294 0.05419-0.72709 0.76222
   1   3  -1 36631.0 966.827   7 0.55318-0.48912 0.04409 0.39314-0.65665 0.62195
  -1   3   0 65849.1 1218.66  10-0.12134 0.04292 0.20409 0.23348-0.96907 0.94866
  -1   3   0 66802.2 1192.18   4 0.61992-0.69803 0.33645 0.10066 0.84691-0.86733
  -1   3   0 64652.9 1354.98   7 0.41468-0.49250 0.29976 0.13735-0.71954 0.69912
   1   3   0 66952.8 1356.21  10-0.09802 0.17619 0.24330 0.19423-0.95673 0.97747
   1   3   0 64664.2 1238.12   7 0.50993-0.43123 0.13438 0.30288-0.68521 0.70606
  -1   3   0 67585.3 945.543   8 0.34857-0.42667 0.28808 0.14953-0.76830 0.74796
   1   3   1 26505.2 770.817   7 0.45078-0.35743 0.24139 0.19590-0.71020 0.78660
   1   3   1 26913.4 868.937  10-0.03002 0.12278 0.35280 0.08475-0.91009 0.98636
  -1   3  -1 27218.8 897.286   7 0.46081-0.55328 0.22432 0.21275-0.70689 0.63092
  -1   3  -1 27848.5 683.527   8 0.50511-0.59784 0.23753 0.20004-0.66708 0.59122
  -1   3  -1 27208.6 729.513   4 0.48552-0.57819 0.42801 0.00908 0.86317-0.93904
  -1   3  -2 44879.7 962.735   8 0.59670-0.70407 0.20151 0.23603-0.59185 0.46047
  -1   3  -2 43875.1 1168.92   7 0.49755-0.60466 0.15815 0.27890-0.69161 0.56010
   1   3   2 44534.9 1137.69  10 0.03707 0.07029 0.45401-0.01644-0.84900 0.98081
   1   3   2 43558.8 964.696   7 0.37230-0.26431 0.36290 0.07441-0.72592 0.85787
  -1   3  -2 43710.1 893.859   4 0.31507-0.42230 0.51703-0.07995 0.85083-0.98215
   1   3   3 6462.87 366.061   7 0.27260-0.14996 0.49299-0.05565-0.72517 0.91266
  -1   3  -3 6583.86 469.390   7 0.52626-0.64802 0.10173 0.33529-0.67565 0.48860
  -1   3  -3 6430.97 399.283   8 0.65233-0.77434 0.17671 0.26080-0.53890 0.35200
   1   3   3 6768.67 462.166  10 0.10048 0.02147 0.54344-0.10585-0.77747 0.96481
  -1   3  -4 294.063 111.734   8 0.68675-0.82340 0.16003 0.27744-0.50283 0.26042
   1   3   4 177.128 113.837  10 0.15843-0.02189 0.61962-0.18201-0.69980 0.94268
   1   3   4 247.300 79.3666   7 0.15301-0.01573 0.62150-0.18413-0.70079 0.94382
  -1   3  -4 180.739 124.421   7 0.54832-0.68473 0.05488 0.38211-0.66041 0.41781
  -1   3  -5 3778.83 383.779   7 0.56501-0.71606 0.01697 0.41999-0.64678 0.34863
   1   3   5 3903.19 375.669  10 0.21014-0.05900 0.68269-0.24507-0.61968 0.91809
  -1   3  -5 3721.63 350.509   8 0.70786-0.85915 0.14923 0.28821-0.47928 0.18135
  -1   3  -6 5796.90 488.209   7 0.57740-0.74309-0.01279 0.44973-0.63526 0.28156
  -1   3  -6 6890.15 508.542   8 0.72011-0.88603 0.14275 0.29466-0.46507 0.11163
   1   3   6 6746.56 507.657  10 0.25555-0.08982 0.73380-0.29615-0.53981 0.89376
  -1   3  -7 19444.3 908.572   7 0.58633-0.76666-0.03528 0.47219-0.62609 0.21684
   1   3   7 20195.7 909.015  10 0.29507-0.11475 0.77448-0.33682-0.46191 0.87140
  -1   3  -7 20145.4 910.557   8 0.72611-0.90667 0.13950 0.29787-0.45795 0.04899
  -1   3  -8 7276.44 581.453   7 0.59247-0.78745-0.05131 0.48819-0.61930 0.15451
  -1   3  -8 7272.74 588.526   8 0.72750-0.92270 0.13875 0.29859-0.45629-0.00819
   1   3   8 7769.64 589.625  10 0.32932-0.13441 0.80637-0.36868-0.38695 0.85198
  -1   3  -9 10911.4 726.665   7 0.59632-0.80594-0.06161 0.49846-0.61483 0.09449
  -1   3  -9 9909.88 712.459   8 0.72531-0.93515 0.13993 0.29736-0.45890-0.06109
   1   3   9 10746.5 722.786  10 0.35896-0.14945 0.83091-0.39320-0.31533 0.83589
  -1   3 -10 283.183 123.084   7 0.59824-0.82250-0.06682 0.50365-0.61253 0.03665
   1   3  10 223.735 149.423  10 0.38462-0.16052 0.84935-0.41162-0.24711 0.82321
  -1   3 -10 171.616 149.705   8 0.72024-0.94472 0.14267 0.29459-0.46491-0.11060
   1   3  11 3865.97 483.241  10 0.40686-0.16817 0.86271-0.42496-0.18217 0.81380
  -1   3 -11 3878.46 501.277   8 0.71274-0.95186 0.14667 0.29056-0.47367-0.15736
  -1   3 -11 3380.41 438.514   7 0.59849-0.83739-0.06749 0.50429-0.61223-0.01920
   1   3  12 2094.31 383.993  10 0.42617-0.17288 0.87180-0.43403-0.12027 0.80745
  -1   3 -12 1373.85 315.469   8 0.70313-0.95688 0.15170 0.28550-0.48466-0.20188
  -1   3 -12 1687.91 330.072   7 0.59723-0.85078-0.06406 0.50083-0.61375-0.07323
  -1   3 -13 863.975 260.346   7 0.59457-0.86276-0.05689 0.49363-0.61689-0.12564
  -1   3 -13 649.136 249.702   8 0.69162-0.96001 0.15759 0.27957-0.49751-0.24455
   1   3  13 1187.01 322.026  10 0.44293-0.17505 0.87726-0.43948-0.06115 0.80386
  -1   3 -14 2421.60 446.510   8 0.67835-0.96138 0.16421 0.27291-0.51189-0.28568
  -1   3 -14 2030.68 383.523   7 0.59055-0.87339-0.04625 0.48297-0.62146-0.17661
   1   3  14 3089.45 488.095  10 0.45747-0.17500 0.87959-0.44178-0.00452 0.80277
  -1   3 -15 389.102 234.736   8 0.66342-0.96109 0.17146 0.26563-0.52758-0.32551
   1   3  15 513.626 224.670  10 0.47005-0.17299 0.87916-0.44134 0.04989 0.80390
  -1   3 -15 481.186 206.201   7 0.58519-0.88267-0.03237 0.46905-0.62730-0.22632
  -1   3 -16 2620.00 511.086   8 0.64688-0.95919 0.17925 0.25780-0.54436-0.36425
   1   3  16 3124.92 532.715  10 0.48089-0.16924 0.87628-0.43843 0.10233 0.80699
   1   4 -15-92.5795 140.874   7 0.60427-0.74507-0.08356 0.66614-0.60501-0.20727
   1   4 -15 364.888 199.453   8 0.73963-0.88084 0.13204 0.45097-0.44152-0.37024
  -1   4  15 297.846 170.556  10 0.46605-0.32563 0.87959-0.29587 0.03195 0.78074
  -1   4  14 1500.02 347.704  10 0.45293-0.32710 0.87915-0.29544-0.02282 0.77997
   1   4 -14 1408.65 327.942   7 0.60809-0.73425-0.09447 0.67708-0.59998-0.15675
   1   4 -14 1525.96 368.340   8 0.75502-0.88159 0.12326 0.45979-0.42210-0.33414
  -1   4  13 2765.53 441.626  10 0.43785-0.32661 0.87589-0.29220-0.07968 0.78130
   1   4 -13 3541.21 523.868   7 0.61084-0.72236-0.10249 0.68511-0.59623-0.10495
   1   4 -12 7703.16 746.981   7 0.61251-0.70938-0.10740 0.69006-0.59390-0.05174
  -1   4  12 7505.45 694.021  10 0.42056-0.32392 0.86944-0.28577-0.13886 0.78494
  -1   4  11 659.723 218.748  10 0.40077-0.31872 0.85933-0.27568-0.20057 0.79112
   1   4 -11 704.047 268.593   7 0.61303-0.69526-0.10897 0.69166-0.59315 0.00306
  -1   4  10 2712.48 395.668  10 0.37812-0.31066 0.84496-0.26133-0.26500 0.80001
   1   4 -10 2793.67 426.224   7 0.61233-0.67992-0.10688 0.68960-0.59415 0.05960
  -1   4   9 3113.40 403.678  10 0.35220-0.29934 0.82559-0.24199-0.33227 0.81174
   1   4  -9 3355.01 453.301   7 0.61025-0.66319-0.10076 0.68350-0.59704 0.11804
   1   4  -8 7686.32 658.406   7 0.60659-0.64488-0.09015 0.67291-0.60199 0.17854
  -1   4   8 6577.97 554.925  10 0.32257-0.28429 0.80036-0.21677-0.40235 0.82628
   1   4  -7 86.1596 111.452   7 0.60103-0.62468-0.07449 0.65729-0.60911 0.24121
  -1   4   7 298.670 132.778  10 0.28873-0.26505 0.76821-0.18465-0.47500 0.84340
   1   4  -6 12560.2 781.993   7 0.59317-0.60218-0.05317 0.63599-0.61850 0.30614
  -1   4   6 12563.6 707.388  10 0.25024-0.24115 0.72804-0.14450-0.54966 0.86252
  -1   4   5 29417.8 1039.06   7 0.08158-0.08604 0.68605-0.10308-0.67580 0.93319
  -1   4   5 28946.8 1036.17  10 0.20676-0.21226 0.67872-0.09520-0.62525 0.88257
   1   4  -5 27173.3 1112.46   7 0.58247-0.57684-0.02546 0.60831-0.63014 0.37333
  -1   4   4 8369.20 584.200   4 0.81150-0.83133 0.15162 0.43125 0.75770-0.55627
   1   4  -4 7930.52 586.468   7 0.56822-0.54794 0.00942 0.57346-0.64392 0.44266
  -1   4   4 8577.74 553.790  10 0.15821-0.17831 0.61934-0.03584-0.70012 0.90190
  -1   4   4 9143.49 580.235   7 0.15516-0.17427 0.61942-0.03647-0.70142 0.90327
  -1   4   3 23933.3 900.583  10 0.10493-0.13962 0.54949 0.03399-0.77193 0.91818
  -1   4   3 23403.4 933.418   4 0.77466-0.80905 0.19472 0.38814 0.78404-0.63806
  -1   4   3 23630.8 934.773   7 0.22284-0.25659 0.54977 0.03315-0.71784 0.86414
   1   4  -3 23792.7 974.573   7 0.54949-0.51457 0.05230 0.53060-0.65952 0.51381
  -1   4   2 14686.1 699.592  10 0.04782-0.09710 0.46961 0.11386-0.83783 0.92854
  -1   4   2 15056.1 751.978   7 0.28356-0.33195 0.47982 0.10307-0.72621 0.81696
   1   4  -2 13442.0 713.908   7 0.52516-0.47560 0.10397 0.47896-0.67634 0.58617
  -1   4   2 14629.4 713.661   4 0.72478-0.77374 0.24618 0.33666 0.81134-0.72081
   1   4  -1 3232.11 357.001  10-0.11148 0.17502 0.22078 0.36258-0.96409 0.92934
   1   4  -1 3754.31 376.537   7 0.49387-0.42966 0.16505 0.41791-0.69338 0.65876
  -1   4   1 3658.68 352.193  10-0.01156-0.05231 0.38131 0.20213-0.89477 0.92994
  -1   4   1 4312.23 372.325   4 0.65797-0.72148 0.30601 0.27682 0.83682-0.80174
  -1   4   1 3989.21 399.319   7 0.33682-0.39986 0.41194 0.17092-0.72799 0.76319
   1   4   0 5548.93 375.029   4 0.77669-0.69837 0.19246 0.39038 0.78274-0.76205
  -1   4   0 4639.35 374.107   4 0.56997-0.64805 0.37312 0.20969 0.85617-0.87655
  -1   4   0 4458.39 388.115  10-0.07114-0.00733 0.28743 0.29599-0.94017 0.91981
   1   4   0 4615.96 403.937   7 0.45408-0.37523 0.23582 0.34717-0.70915 0.73007
   1   4   0 4794.11 435.571  10-0.06023 0.13836 0.30501 0.27836-0.93274 0.95353
  -1   4   0 3965.85 404.098   7 0.38262-0.46030 0.34801 0.23483-0.72478 0.70444
  -1   4  -1 1745.88 280.669   7 0.42132-0.51364 0.28936 0.29345-0.71811 0.64222
  -1   4  -1 2554.41 265.655   4 0.45714-0.54977 0.44471 0.13809 0.86339-0.93922
   1   4   1 2038.64 270.395   7 0.40417-0.31067 0.31592 0.26710-0.72155 0.79802
  -1   4  -1 2071.27 268.144  10-0.12859 0.03553 0.19172 0.39168-0.97251 0.89661
   1   4   1 1846.60 277.733  10-0.00757 0.10029 0.38742 0.19598-0.89130 0.96762
   1   4   2 201.183 97.1123   7 0.34268-0.23454 0.40407 0.17898-0.72784 0.85986
  -1   4  -2 330.164 102.604   8 0.48194-0.58927 0.24582 0.33760-0.68407 0.55278
   1   4   2 178.166 115.057  10 0.04499 0.06233 0.46551 0.11791-0.84081 0.97267
  -1   4  -2 504.321 132.077   4 0.31795-0.42515 0.51573 0.06705 0.85129-0.98258
  -1   4  -2 249.237 130.552   7 0.45350-0.56047 0.23680 0.34598-0.70934 0.57790
   1   4   3 13167.2 731.499  10 0.09603 0.02588 0.53737 0.04607-0.78294 0.97033
  -1   4  -3 13946.9 632.086   8 0.55089-0.67285 0.22021 0.36317-0.63117 0.44437
   1   4   3 14288.1 662.545   7 0.26863-0.14585 0.49771 0.08536-0.72475 0.91231
  -1   4  -3 12421.4 744.457   7 0.47990-0.60151 0.19070 0.39205-0.69960 0.51261
   1   4   4 14747.0 657.171   7 0.18195-0.04453 0.59284-0.00974-0.70877 0.95188
  -1   4  -4 12071.4 749.170   7 0.50126-0.63751 0.15112 0.43160-0.68976 0.44723
  -1   4  -4 13738.3 679.197   8 0.59652-0.73312 0.20159 0.38176-0.59202 0.34970
   1   4   4 11918.2 715.613  10 0.14447-0.00797 0.60178-0.01832-0.71964 0.96257
  -1   4  -5 8331.00 564.608   8 0.62683-0.77808 0.18839 0.39493-0.56393 0.26609
   1   4   5 7797.56 588.814  10 0.18958-0.03849 0.65820-0.07472-0.65283 0.95130
  -1   4  -5 7426.30 602.318   7 0.51830-0.66919 0.11786 0.46484-0.68048 0.38241
  -1   4  -6 10836.4 744.381   7 0.53165-0.69719 0.09060 0.49207-0.67219 0.31857
  -1   4  -6 11441.5 703.644   8 0.64661-0.81249 0.17938 0.40390-0.54463 0.19128
   1   4   6 9826.57 679.575  10 0.23096-0.06528 0.70666-0.12317-0.58423 0.93823
  -1   4  -7 11124.5 720.282   8 0.65881-0.83933 0.17366 0.40959-0.53232 0.12345
  -1   4  -7 10976.4 768.696   7 0.54187-0.72206 0.06894 0.51370-0.66517 0.25600
   1   4   7 10858.4 739.662  10 0.26852-0.08824 0.74756-0.16405-0.51517 0.92471
   1   4   8 5284.37 536.935  10 0.30233-0.10746 0.78152-0.19798-0.44666 0.91174
  -1   4  -8 5900.11 561.903   8 0.66533-0.86049 0.17054 0.41267-0.52560 0.06121
  -1   4  -8 5573.93 571.548   7 0.54942-0.74425 0.05247 0.53014-0.65958 0.19486
  -1   4  -9 849.285 249.223   8 0.66744-0.87724 0.16953 0.41365-0.52340 0.00350
   1   4   9 855.106 242.599  10 0.33260-0.12314 0.80923-0.22568-0.37936 0.89997
  -1   4  -9 680.303 238.329   7 0.55466-0.76413 0.04077 0.54181-0.65547 0.13521
  -1   4 -10 2707.97 417.116   8 0.66601-0.89044 0.17022 0.41292-0.52490-0.05052
   1   4  10 2482.66 398.151  10 0.35961-0.13555 0.83141-0.24783-0.31368 0.88983
  -1   4 -10 2574.95 418.637   7 0.55788-0.78200 0.03346 0.54909-0.65285 0.07704
   1   4  11 2652.01 434.795  10 0.38363-0.14499 0.84869-0.26510-0.24985 0.88154
  -1   4 -11 1932.17 388.108   7 0.55931-0.79807 0.03020 0.55233-0.65167 0.02031
  -1   4 -11 2653.51 442.384   8 0.66162-0.90069 0.17232 0.41079-0.52944-0.10150
  -1   4 -12 4356.85 570.705   7 0.55910-0.81250 0.03068 0.55181-0.65184-0.03506
   1   4  12 4168.18 547.571  10 0.40497-0.15173 0.86168-0.27806-0.18795 0.87518
  -1   4 -12 4988.31 613.654   8 0.65468-0.90840 0.17561 0.40747-0.53652-0.14993
  -1   4 -13 3277.99 500.834   7 0.55736-0.82541 0.03466 0.54782-0.65328-0.08917
  -1   4 -13 3142.94 511.029   8 0.64551-0.91386 0.17989 0.40315-0.54573-0.19624
   1   4  13 3270.52 519.931  10 0.42387-0.15603 0.87086-0.28722-0.12796 0.87072
   1   4  14 1636.37 385.860  10 0.44057-0.15815 0.87666-0.29300-0.06981 0.86811
  -1   4 -14 2365.81 455.113   8 0.63430-0.91729 0.18503 0.39798-0.55675-0.24074
  -1   4 -14 1579.29 369.090   7 0.55415-0.83684 0.04191 0.54054-0.65588-0.14212
  -1   4 -15 295.098 181.620   7 0.54950-0.84684 0.05228 0.53014-0.65951-0.19403
  -1   5  14 382.200 216.262  10 0.44224-0.31645 0.87709-0.14754-0.06371 0.82091
   1   5 -14 776.385 282.340   8 0.69247-0.81900 0.15716 0.57177-0.49657-0.25958
   1   5 -13 1321.89 351.258   7 0.56916-0.68053 0.00717 0.72118-0.64306-0.05805
   1   5 -13 938.427 290.605   8 0.70414-0.81603 0.15117 0.57778-0.48352-0.21711
  -1   5  13 967.529 288.098  10 0.42594-0.31474 0.87171-0.14218-0.12105 0.82272
   1   5 -12-178.249 141.757   8 0.71398-0.81123 0.14601 0.58298-0.47224-0.17288
  -1   5  12 33.1754 97.0219  10 0.40757-0.31096 0.86308-0.13357-0.18001 0.82615
  -1   5  11 219.938 149.805  10 0.38693-0.30492 0.85086-0.12136-0.24064 0.83124
   1   5 -11 285.694 178.104   8 0.72183-0.80444 0.14182 0.58721-0.46304-0.12655
   1   5 -11 243.151 184.091   7 0.56929-0.65137 0.00687 0.72154-0.64295 0.05293
   1   5 -10-179.782 139.898   8 0.72743-0.79541 0.13878 0.59028-0.45637-0.07771
  -1   5  10-145.069 132.288  10 0.36381-0.29639 0.83461-0.10514-0.30292 0.83798
   1   5 -10-22.7241 116.557   7 0.56721-0.63464 0.01181 0.71663-0.64483 0.11036
  -1   5   9 352.109 157.186  10 0.33799-0.28516 0.81386-0.08441-0.36671 0.84624
   1   5  -9 596.152 233.054   7 0.56350-0.61630 0.02050 0.70796-0.64810 0.16917
   1   5  -8 7793.79 729.330   7 0.55797-0.59612 0.03326 0.69524-0.65278 0.22940
  -1   5   8 7043.72 692.843   4 0.82968-0.79124 0.12827 0.60037 0.74217-0.31888
  -1   5   8 5926.08 577.977  10 0.30925-0.27102 0.78810-0.05867-0.43180 0.85578
   1   5  -7 1590.48 330.977   7 0.55034-0.57384 0.05043 0.67809-0.65887 0.29104
  -1   5   7 2280.81 389.923   4 0.81551-0.79163 0.14660 0.58203 0.75443-0.38660
  -1   5   7 1262.58 270.022  10 0.27742-0.25378 0.75678-0.02737-0.49776 0.86621
  -1   5   6 3500.00 423.899  10 0.24238-0.23333 0.71942 0.00997-0.56396 0.87688
  -1   5   6 2946.04 414.592   4 0.79676-0.78745 0.16947 0.55914 0.76898-0.45661
   1   5  -6 2970.83 452.259   7 0.54026-0.54912 0.07241 0.65614-0.66632 0.35404
  -1   5   5 3121.48 394.841   7 0.08703-0.09135 0.68142 0.04728-0.67797 0.93543
  -1   5   5 3009.77 411.525   4 0.77223-0.77747 0.19739 0.53120 0.78557-0.52865
  -1   5   5 2729.12 371.416  10 0.20413-0.20968 0.67562 0.05375-0.62955 0.88692
   1   5  -5 2876.60 412.165   7 0.52730-0.52152 0.09960 0.62898-0.67500 0.41826
   1   5  -4 328.140 169.217   7 0.51094-0.49051 0.13242 0.59619-0.68466 0.48347
  -1   5   4 304.286 160.610   4 0.74038-0.76019 0.23081 0.49777 0.80368-0.60221
  -1   5   4 339.463 140.249  10 0.16285-0.18299 0.62520 0.10415-0.69336 0.89520
  -1   5   4 341.393 149.555   7 0.14890-0.16786 0.62545 0.10322-0.69955 0.90147
   1   5  -3 2306.71 354.789   7 0.49056-0.45549 0.17123 0.55740-0.69493 0.54928
  -1   5   3 2492.09 350.242   4 0.69929-0.73366 0.27008 0.45849 0.82236-0.67634
  -1   5   3 1749.81 304.378   7 0.20559-0.23919 0.56832 0.16033-0.71434 0.86071
  -1   5   3 2200.11 320.112  10 0.11893-0.15366 0.56829 0.16104-0.75406 0.90036
   1   5  -3 1943.99 328.642  10-0.13846 0.17277 0.17476 0.55441-0.97689 0.83111
  -1   5   2 1289.47 266.091   7 0.25670-0.30495 0.51167 0.21694-0.72329 0.81411
  -1   5   2 1395.28 257.593  10 0.07301-0.12233 0.50545 0.22386-0.81014 0.90090
   1   5  -2 1115.10 259.908  10-0.10063 0.14954 0.23895 0.49024-0.95821 0.86798
   1   5  -2 1301.90 279.418   7 0.46542-0.41570 0.21635 0.51231-0.70525 0.61515
  -1   5   2 1349.34 248.072   4 0.64664-0.69557 0.31531 0.41323 0.84012-0.74955
   1   5  -1 9382.10 675.906   7 0.43471-0.37036 0.26793 0.46076-0.71484 0.68029
   1   5  -1 8649.46 663.678  10-0.06038 0.12388 0.30477 0.42443-0.93285 0.89815
  -1   5   1 8683.02 666.713   7 0.30210-0.36499 0.45692 0.27166-0.72745 0.76273
  -1   5   1 9020.86 628.788  10 0.02596-0.08987 0.43771 0.29158-0.86015 0.89537
  -1   5   0 4601.85 455.676  10-0.02114-0.05737 0.36658 0.36269-0.90286 0.88255
  -1   5   0 4419.54 486.224   7 0.34186-0.41940 0.40516 0.32339-0.72786 0.70759
   1   5   0 4458.87 466.820   7 0.39757-0.31857 0.32590 0.40282-0.72267 0.74366
   1   5   0 4502.14 480.225  10-0.01841 0.09650 0.37078 0.35844-0.90059 0.92143
  -1   5  -1 23954.3 1023.19  10-0.06713-0.02597 0.29391 0.43534-0.93749 0.86164
   1   5   1 21739.0 1049.05  10 0.02446 0.06822 0.43550 0.29375-0.86162 0.93799
   1   5   1 25732.6 1072.71   7 0.35310-0.25946 0.38984 0.33890-0.72739 0.80393
  -1   5  -1 22604.6 1093.22   7 0.37627-0.46845 0.35721 0.37132-0.72551 0.64970
   1   5   2 3299.43 385.741   7 0.30052-0.19224 0.45889 0.26988-0.72737 0.85946
  -1   5  -2 2591.20 396.634   7 0.40568-0.51251 0.31361 0.41489-0.72128 0.58991
  -1   5  -2 2927.52 367.438  10-0.11094 0.00324 0.22169 0.50754-0.96380 0.83242
   1   5   2 2805.51 387.591  10 0.06740 0.03987 0.49756 0.23171-0.81648 0.94839
  -1   5  -3 8037.70 685.232   7 0.43055-0.55202 0.27465 0.45382-0.71591 0.52900
   1   5   3 7080.54 610.501  10 0.10963 0.01223 0.55584 0.17345-0.76601 0.95345
   1   5   4 165.846 114.832  10 0.15047-0.01401 0.60948 0.11982-0.71120 0.95419
  -1   5  -4-85.8803 138.617   7 0.45133-0.58744 0.24047 0.48798-0.71003 0.46757
  -1   5  -5 825.746 244.391   7 0.46846-0.61921 0.21103 0.51739-0.70412 0.40612
   1   5   5 980.721 254.310  10 0.18939-0.03834 0.65797 0.07135-0.65313 0.95165
  -1   5  -6 11460.4 860.195   7 0.48237-0.64777 0.18623 0.54216-0.69855 0.34500
   1   5   6 12202.6 838.094  10 0.22603-0.06039 0.70106 0.02828-0.59280 0.94686
   1   5   7 83.5701 108.049  10 0.26017-0.07993 0.73874-0.00938-0.53113 0.94073
  -1   5  -7 174.374 158.114   7 0.49343-0.67347 0.16588 0.56248-0.69359 0.28449
   1   5   8 5785.02 613.675  10 0.29172-0.09689 0.77118-0.04179-0.46887 0.93400
  -1   5  -8 5012.53 596.918   7 0.50196-0.69664 0.14978 0.57856-0.68941 0.22476
  -1   5  -9 1423.15 319.727   8 0.58716-0.79692 0.20553 0.52353-0.60034 0.08053
   1   5   9 1701.59 346.572  10 0.32067-0.11125 0.79864-0.06924-0.40661 0.92728
  -1   5  -9 1289.56 334.327   7 0.50824-0.71756 0.13769 0.59062-0.68613 0.16594
  -1   5 -10 2479.59 421.751   8 0.59051-0.81491 0.20413 0.52489-0.59738 0.02205
  -1   5 -10 2654.48 456.023   7 0.51248-0.73645 0.12938 0.59890-0.68380 0.10807
   1   5  10 2029.76 392.210  10 0.34711-0.12309 0.82147-0.09204-0.34481 0.92101
  -1   5 -11-33.3151 97.1291   8 0.59017-0.82920 0.20427 0.52472-0.59768-0.03316
   1   5  11 250.822 179.767  10 0.37113-0.13252 0.84001-0.11057-0.28377 0.91551
  -1   5 -12 384.634 189.794   8 0.58669-0.84036 0.20572 0.52323-0.60076-0.08560
   1   5  12 191.989 138.319  10 0.39288-0.13968 0.85462-0.12516-0.22370 0.91098
  -1   5 -12 243.828 135.389   7 0.51556-0.76882 0.12330 0.60493-0.68206-0.00477
  -1   5 -13 167.086 168.631   8 0.58047-0.84878 0.20830 0.52061-0.60620-0.13568
  -1   6  10 1454.16 377.137   4 0.78639-0.71880 0.18153 0.69285 0.77631-0.24208
   1   6  -9-170.680 170.750   7 0.51001-0.56266 0.13423 0.73996-0.68517 0.20632
  -1   6   9 165.542 192.244   4 0.77565-0.72262 0.19363 0.68073 0.78341-0.30464
   1   6  -8 1420.61 348.718   7 0.50297-0.54097 0.14784 0.72638-0.68889 0.26559
  -1   6   8 1558.01 361.914   4 0.76145-0.72298 0.20903 0.66532 0.79210-0.36878
   1   6  -7 270.098 186.408   7 0.49375-0.51711 0.16528 0.70897-0.69344 0.32568
  -1   6   7 462.656 215.768   4 0.74313-0.71922 0.22803 0.64630 0.80225-0.43438
  -1   6   7 117.505 128.047  10 0.28160-0.25800 0.76105 0.11421-0.48943 0.85793
  -1   6   6 344.667 163.363  10 0.25050-0.24149 0.72833 0.14691-0.54917 0.86213
  -1   6   6 256.057 168.132   4 0.71983-0.71048 0.25094 0.62338 0.81362-0.50120
   1   6  -6 40.2953 168.255   7 0.48207-0.49078 0.18678 0.68749-0.69868 0.38647
  -1   6   5 3159.06 435.424  10 0.21727-0.22285 0.69100 0.18423-0.60776 0.86519
   1   6  -5 2480.53 406.727  10-0.13482 0.13990 0.18104 0.69394-0.97531 0.71852
   1   6  -5 3047.12 462.442   7 0.46759-0.46166 0.21256 0.66174-0.70445 0.44778
  -1   6   4 2312.68 378.921  10 0.18210-0.20228 0.64910 0.22610-0.66446 0.86635
   1   6  -4 2323.37 412.600   7 0.44992-0.42935 0.24283 0.63151-0.71047 0.50935
   1   6  -4 2244.50 390.927  10-0.10635 0.12603 0.22939 0.64560-0.96136 0.76010
   1   6  -3 950.152 280.588   7 0.42864-0.39342 0.27773 0.59663-0.71639 0.57082
  -1   6   3 1265.81 268.756  10 0.14532-0.18009 0.60287 0.27231-0.71845 0.86481
  -1   6   3 1460.28 309.916   7 0.17222-0.20567 0.60265 0.27172-0.70623 0.85267
   1   6  -3 1030.09 278.074  10-0.07564 0.10991 0.28012 0.59490-0.94311 0.79739
  -1   6   2 469.024 191.737   7 0.21744-0.26554 0.55563 0.31871-0.71680 0.80769
   1   6  -2 432.331 194.296   7 0.40323-0.35337 0.31735 0.55704-0.72172 0.63169
  -1   6   2 754.937 211.780  10 0.10735-0.15671 0.55275 0.32241-0.76890 0.85972
   1   6  -2 312.403 164.497  10-0.04297 0.09184 0.33248 0.54256-0.92018 0.83000
  -1   6   1 1087.46 277.646   7 0.25802-0.32076 0.51014 0.36417-0.72347 0.75881
   1   6  -1 963.414 256.058   7 0.37316-0.30866 0.36168 0.51274-0.72584 0.69136
   1   6  -1 927.176 241.236  10-0.00874 0.07220 0.38562 0.48944-0.89233 0.85768
  -1   6   1 619.036 193.914  10 0.06872-0.13268 0.49942 0.37572-0.81500 0.85028
  -1   6   0 649.862 210.726   7 0.29407-0.37145 0.46693 0.40736-0.72699 0.70679
  -1   6   0 521.473 180.593  10 0.03007-0.10862 0.44377 0.43136-0.85607 0.83581
   1   6   0 539.837 188.589  10 0.02660 0.05145 0.43865 0.43643-0.85952 0.88041
   1   6   0 597.374 220.297   7 0.33788-0.25873 0.41052 0.46392-0.72797 0.74904
  -1   6  -1 554.569 198.915  10-0.00795-0.08519 0.38682 0.48828-0.89164 0.81585
   1   6   1 807.605 233.935  10 0.06255 0.03009 0.49068 0.38441-0.82189 0.89832
  -1   6  -1 833.471 275.793   7 0.32577-0.41780 0.42656 0.44770-0.72808 0.65234
   1   6   2 274.635 164.504  10 0.09860 0.00863 0.54088 0.33423-0.77979 0.91175
  -1   6  -2 120.893 118.726  10-0.04471-0.06302 0.32973 0.54535-0.92149 0.79016
  -1   6  -2 497.233 216.752   7 0.35339-0.46006 0.38945 0.48478-0.72737 0.59608
  -1   6  -3 967.028 302.340   7 0.37722-0.49853 0.35585 0.51835-0.72541 0.53857
   1   6   3 1429.89 321.691  10 0.13427-0.01245 0.58854 0.28660-0.73366 0.92116
   1   6   4 1408.93 317.853  10 0.16913-0.03271 0.63306 0.24210-0.68410 0.92714
  -1   6  -4 1220.85 318.372   7 0.39755-0.53352 0.32592 0.54826-0.72267 0.48028
   1   6   5 3571.42 495.775  10 0.20279-0.05178 0.67403 0.20115-0.63173 0.93031
  -1   6  -5 3372.63 530.874   7 0.41471-0.56532 0.29970 0.57444-0.71953 0.42160
   1   6   6 966.614 272.931  10 0.23498-0.06938 0.71118 0.16402-0.57718 0.93129
  -1   6  -6 1093.57 314.553   7 0.42897-0.59422 0.27719 0.59693-0.71631 0.36283
  -1   6  -7 220.103 183.346   7 0.44060-0.62050 0.25831 0.61578-0.71323 0.30421
   1   6   7-43.3810 132.015  10 0.26548-0.08528 0.74437 0.13085-0.52103 0.93067
  -1   6  -8-286.644 200.467   7 0.44984-0.64438 0.24297 0.63110-0.71050 0.24593
   1   6   8 145.055 164.106  10 0.29416-0.09937 0.77359 0.10165-0.46382 0.92900
   1   6   9 304.231 183.814  10 0.32094-0.11156 0.79889 0.07637-0.40600 0.92673
   1   7  -4 637.492 264.346  10-0.04051 0.06015 0.33636 0.68449-0.91830 0.71710
   1   7  -4 402.896 208.179   7 0.38440-0.36368 0.34541 0.67465-0.72456 0.52351
   1   7  -3 157.199 161.093   7 0.36252-0.32716 0.37675 0.64334-0.72677 0.58127
   1   7  -3-276.246 178.327  10-0.01347 0.04770 0.37838 0.64249-0.89641 0.75074
   1   7  -2 122.473 116.217   7 0.33697-0.28696 0.41174 0.60838-0.72799 0.63804
   1   7  -2 330.921 204.257  10 0.01492 0.03390 0.42133 0.59955-0.87082 0.78068
  -1   7   1 255.122 175.487   7 0.20582-0.26841 0.56808 0.45196-0.71439 0.74981
   1   7  -1 542.816 227.793  10 0.04439 0.01902 0.46465 0.55626-0.84143 0.80684
   1   7   0 543.017 223.692  10 0.07463 0.00337 0.50773 0.51320-0.80828 0.82922
  -1   7   0 556.696 235.722   7 0.23947-0.31671 0.53134 0.48867-0.72076 0.70063
  -1   7  -1 238.069 177.104   7 0.26941-0.36130 0.49678 0.52321-0.72483 0.64916
   1   7   1 477.674 204.686  10 0.10531-0.01271 0.54999 0.47095-0.77146 0.84794
  -1   7  -2 1736.47 396.210   7 0.29585-0.40237 0.46472 0.55523-0.72710 0.59589
   1   7   2 863.225 271.570  10 0.13608-0.02889 0.59089 0.43008-0.73121 0.86323
   1   7   3 1247.08 317.400  10 0.16662-0.04484 0.62993 0.39105-0.68782 0.87537
   1   7   4 300.318 188.246  10 0.19665-0.06027 0.66671 0.35429-0.64163 0.88472
   2  -7  -3 1890.43 415.980  11 0.23535-0.12299-0.62100-0.39983 0.78286-0.90884
   2  -7  -2 265.345 173.927  11 0.25787-0.13088-0.57340-0.44740 0.81775-0.88818
   2  -7  -1 2198.55 446.327  11 0.27888-0.13727-0.52505-0.49572 0.84883-0.86371
   2  -7   0-1.06503 70.7576  11 0.29827-0.14203-0.47659-0.54414 0.87605-0.83539
   2  -7   1 344.340 201.562  11 0.31596-0.14509-0.42865-0.59205 0.89949-0.80328
   2  -6 -10 459.599 259.247  11 0.05567-0.04564-0.88455 0.00932 0.46097-0.97567
  -2  -6   9-125.429 149.156  11 0.40801-0.43332-0.08097-0.79377 0.98467-0.52653
   2  -6  -9 238.617 166.955  11 0.08585-0.06120-0.85248-0.02272 0.51962-0.97877
  -2  -6   8 7238.35 811.866  11 0.40125-0.44119-0.11626-0.75850 0.98208-0.57948
   2  -6  -8 7514.68 781.128  11 0.11616-0.07688-0.81572-0.05944 0.57680-0.98041
   2  -6  -7 1420.19 347.673  11 0.14635-0.09244-0.77436-0.10077 0.63197-0.98004
  -2  -6   7 1667.15 371.855  11 0.39314-0.44770-0.15530-0.71950 0.97771-0.63065
  -2  -6   6 7070.88 779.259  11 0.38350-0.45269-0.19789-0.67694 0.97112-0.67960
   2  -6  -6 6331.19 706.927  11 0.17612-0.10758-0.72859-0.14651 0.68452-0.97704
  -2  -6   5 3107.86 516.969  11 0.37220-0.45602-0.24372-0.63115 0.96183-0.72586
   2  -6  -5 2138.60 420.236  11 0.20516-0.12200-0.67879-0.19628 0.73384-0.97082
   2  -6  -4 3404.29 507.147  11 0.23313-0.13534-0.62547-0.24956 0.77935-0.96078
  -2  -6   4 3200.59 520.990  11 0.35911-0.45755-0.29237-0.58253 0.94942-0.76899
   2  -6  -3 331.576 190.759  11 0.25971-0.14730-0.56933-0.30568 0.82053-0.94642
  -2  -6   3 332.660 188.159  11 0.34414-0.45721-0.34330-0.53162 0.93347-0.80859
   2  -6  -2 1589.52 345.118  11 0.28459-0.15755-0.51118-0.36379 0.85700-0.92734
  -2  -6   2 1858.03 379.251  11 0.32725-0.45495-0.39589-0.47907 0.91366-0.84432
   2  -6  -1 727.176 254.050  11 0.30753-0.16586-0.45197-0.42297 0.88850-0.90330
  -2  -6   1 1343.97 339.292  11 0.30847-0.45080-0.44941-0.42558 0.88974-0.87595
   2  -6   0 85.2201 125.398  11 0.32833-0.17204-0.39267-0.48224 0.91497-0.87423
  -2  -6   0 484.276 219.614  11 0.28787-0.44482-0.50309-0.37193 0.86162-0.90337
   2  -6   1 836.254 292.301  11 0.34690-0.17598-0.33424-0.54063 0.93654-0.84025
  -2  -6  -1 395.573 232.285  11 0.26557-0.43715-0.55616-0.31890 0.82931-0.92660
   2  -6   2 1106.61 302.664  11 0.36320-0.17765-0.27759-0.59725 0.95348-0.80164
  -2  -6  -2 937.640 303.474  11 0.24176-0.42797-0.60786-0.26722 0.79295-0.94579
  -2  -6  -3 462.248 217.182  11 0.21666-0.41749-0.65753-0.21759 0.75281-0.96119
   2  -6   3 522.694 215.654  11 0.37730-0.17712-0.22352-0.65129 0.96621-0.75883
   2  -6   4 414.974 218.024  11 0.38931-0.17450-0.17266-0.70211 0.97525-0.71234
  -2  -6  -4 821.186 284.940  11 0.19052-0.40598-0.70456-0.17059 0.70923-0.97315
  -2  -6  -5 661.142 297.741  11 0.16358-0.39367-0.74849-0.12669 0.66262-0.98209
   2  -6   5 831.035 291.251  11 0.39939-0.16996-0.12552-0.74923 0.98119-0.66273
  -2  -6  -6 1008.16 321.255  11 0.13610-0.38081-0.78895-0.08627 0.61345-0.98846
   2  -6   6 1799.65 406.980  11 0.40774-0.16369-0.08242-0.79230 0.98459-0.61059
  -2  -6  -7 1759.35 426.861  11 0.10831-0.36765-0.82569-0.04955 0.56216-0.99271
   2  -6   7 1637.67 390.519  11 0.41458-0.15590-0.04356-0.83112 0.98603-0.55648
   2  -6   8 1929.16 429.214  11 0.42011-0.14680-0.00901-0.86564 0.98602-0.50093
  -2  -6  -8 777.951 305.090  11 0.08042-0.35439-0.85858-0.01670 0.50918-0.99528
   2  -5 -13 1175.26 343.768   9 0.79500-0.82868-0.58587-0.14364 0.05901-0.73992
  -2  -5  13 1796.67 403.763  11 0.44012-0.40687 0.16573-0.89451 0.96737-0.28696
   2  -5 -12 70.5838 129.390   9 0.81124-0.83033-0.57420-0.15529 0.10940-0.73479
  -2  -5  12 53.2665 130.118  11 0.43850-0.41987 0.14554-0.87436 0.97113-0.34627
   2  -5 -11 1113.54 294.148   9 0.82572-0.83022-0.56055-0.16892 0.16108-0.73095
  -2  -5  11 1980.00 436.990  11 0.43627-0.43227 0.12089-0.84974 0.97515-0.40583
   2  -5 -11 1938.98 396.785  11 0.01634-0.02089-0.91978 0.19035 0.38210-0.95226
  -2  -5  10 763.518 260.528  11 0.43326-0.44389 0.09153-0.82041 0.97912-0.46534
   2  -5 -10 884.780 273.046   9 0.83823-0.82813-0.54472-0.18473 0.21413-0.72847
   2  -5 -10 554.173 234.337  11 0.04840-0.03832-0.89161 0.16221 0.44661-0.96122
   2  -5  -9 4709.76 563.997   9 0.84851-0.82382-0.52649-0.20295 0.26860-0.72742
  -2  -5   9 4155.98 574.033  11 0.42927-0.45452 0.05723-0.78614 0.98263-0.52440
   2  -5  -9 3947.45 524.734  11 0.08134-0.05663-0.85755 0.12818 0.51096-0.97003
   2  -5  -8-7.65242 116.722  11 0.11494-0.07560-0.81729 0.08796 0.57453-0.97806
   2  -5  -8 0.71159 127.332   9 0.85624-0.81696-0.50560-0.22382 0.32448-0.72777
  -2  -5   8-142.795 159.993  11 0.42405-0.46393 0.01785-0.74679 0.98518-0.58249
   2  -5  -7 2592.91 423.072  11 0.14888-0.09491-0.77066 0.04136 0.63651-0.98449
  -2  -5   7 1787.48 362.803  11 0.41735-0.47186-0.02667-0.70230 0.98618-0.63904
   2  -5  -7 2110.18 363.903   9 0.86102-0.80715-0.48178-0.24762 0.38171-0.72948
  -2  -5   6 1219.92 318.563  11 0.40888-0.47802-0.07622-0.65278 0.98493-0.69333
   2  -5  -6 1633.46 334.946  11 0.18275-0.11416-0.71768-0.01159 0.69596-0.98840
   2  -5  -6 1565.66 300.847   9 0.86238-0.79391-0.45475-0.27463 0.44012-0.73236
   2  -5  -5 2405.74 365.370   9 0.85976-0.77670-0.42423-0.30513 0.49939-0.73611
   2  -5  -5 2231.05 376.065  11 0.21608-0.13286-0.65863-0.07061 0.75185-0.98875
  -2  -5   5 2683.50 437.012  11 0.39837-0.48213-0.13052-0.59852 0.98067-0.74461
   2  -5  -4 6297.52 604.149  11 0.24830-0.15046-0.59412-0.13508 0.80312-0.98447
  -2  -5   4 6134.07 632.248  11 0.38557-0.48396-0.18905-0.54002 0.97264-0.79213
   2  -5  -4 5830.87 536.039   9 0.85258-0.75493-0.39001-0.33933 0.55902-0.74022
   2  -5  -3 8175.58 615.101   9 0.84023-0.72798-0.35196-0.37736 0.61829-0.74397
   2  -5  -3 6719.47 621.220  11 0.27886-0.16639-0.52512-0.20406 0.84878-0.97459
  -2  -5   3 7934.02 708.296  11 0.37029-0.48330-0.25109-0.47801 0.96013-0.83516
  -2  -5   2 6461.39 641.320  11 0.35242-0.48007-0.31567-0.41346 0.94251-0.87308
   2  -5  -2 7155.65 562.006   9 0.82217-0.69533-0.31014-0.41917 0.67624-0.74640
   2  -5  -2 6879.33 627.217  11 0.30719-0.18010-0.45289-0.27626 0.88805-0.95831
   2  -5  -1 3168.24 429.795  11 0.33286-0.19113-0.37895-0.35016 0.92042-0.93514
   2  -5  -1 3449.61 387.326   9 0.79806-0.65662-0.26483-0.46446 0.73170-0.74632
  -2  -5   1 3897.19 500.141  11 0.33197-0.47424-0.38167-0.34750 0.91937-0.90549
   2  -5   0 1283.94 241.329   9 0.76781-0.61179-0.21662-0.51265 0.78333-0.74244
  -2  -5   0 1315.01 312.390  11 0.30905-0.46595-0.44784-0.28136 0.89050-0.93217
   2  -5   0 1192.97 280.464  11 0.35553-0.19918-0.30496-0.42412 0.94576-0.90494
  -2  -5  -1 519.009 205.003  11 0.28388-0.45541-0.51293-0.21630 0.85599-0.95319
   2  -5   1 572.944 211.474  11 0.37505-0.20407-0.23254-0.49651 0.96431-0.86794
   2  -5   2 1798.22 337.744  11 0.39142-0.20582-0.16314-0.56588 0.97664-0.82473
  -2  -5  -2 2230.13 384.840  11 0.25680-0.44295-0.57576-0.15350 0.81613-0.96888
  -2  -5  -3 11401.0 860.045  11 0.22818-0.42895-0.63532-0.09397 0.77144-0.97973
   2  -5   3 12376.3 870.440  11 0.40483-0.20459-0.09796-0.63102 0.98359-0.77613
  -2  -5  -4 5899.06 638.302  11 0.19843-0.41384-0.69080-0.03852 0.72260-0.98644
   2  -5   4 4785.39 565.842  11 0.41553-0.20067-0.03788-0.69107 0.98611-0.72311
  -2  -5  -5 1397.04 328.261  11 0.16798-0.39801-0.74162 0.01226 0.67034-0.98972
   2  -5   5 1047.74 296.489  11 0.42387-0.19438 0.01655-0.74546 0.98524-0.66669
   2  -5   6 11125.0 875.693  11 0.43022-0.18611 0.06507-0.79396 0.98193-0.60784
  -2  -5  -6 10906.9 885.602  11 0.13719-0.38185-0.78742 0.05803 0.61543-0.99036
   2  -5   7 2699.65 448.279  11 0.43496-0.17622 0.10767-0.83653 0.97705-0.54741
  -2  -5  -7 3625.43 533.058  11 0.10641-0.36569-0.82806 0.09864 0.55859-0.98907
  -2  -5  -8 704.142 252.926  11 0.07590-0.34981-0.86354 0.13409 0.50047-0.98648
   2  -5   8 1128.97 315.049  11 0.43841-0.16504 0.14450-0.87333 0.97132-0.48614
  -2  -5  -9 2276.48 456.901  11 0.04589-0.33442-0.89400 0.16452 0.44161-0.98317
   2  -5   9 2387.75 456.498  11 0.44087-0.15288 0.17584-0.90463 0.96532-0.42460
   2  -5  10 0.99153 115.468  11 0.44258-0.13996 0.20202-0.93078 0.95952-0.36325
  -2  -5 -10-291.947 201.785  11 0.01652-0.31968-0.91964 0.19013 0.38246-0.97956
   2  -5  11 1953.59 421.152  11 0.44374-0.12650 0.22339-0.95212 0.95423-0.30242
  -2  -4  15 2251.00 458.425  11 0.44623-0.38367 0.34042-0.92330 0.91617-0.12459
   2  -4 -15 2135.96 442.085   9 0.76152-0.82429-0.60245 0.01878-0.02933-0.76258
   2  -4 -14 1165.58 346.353   9 0.78120-0.82938-0.59369 0.01004 0.02054-0.75693
  -2  -4  14 996.082 309.432  11 0.44628-0.39835 0.33084-0.91377 0.91989-0.18385
   2  -4 -13 5963.54 679.624   9 0.79937-0.83295-0.58303-0.00061 0.07195-0.75281
  -2  -4  13 6132.99 714.070  11 0.44627-0.41297 0.31707-0.90002 0.92504-0.24455
  -2  -4  12 2211.87 406.937  11 0.44612-0.42744 0.29865-0.88164 0.93157-0.30663
   2  -4 -12 1987.65 386.232   9 0.81586-0.83485-0.57025-0.01336 0.12505-0.75039
  -2  -4  11 2759.84 446.518  11 0.44567-0.44162 0.27509-0.85810 0.93936-0.36996
   2  -4 -11 2714.32 441.655   9 0.83046-0.83486-0.55511-0.02848 0.18003-0.74985
   2  -4 -10 4626.37 533.438  11 0.02526-0.01512-0.91244 0.32887 0.40022-0.91475
   2  -4 -10 4285.56 521.698   9 0.84287-0.83268-0.53731-0.04627 0.23702-0.75132
  -2  -4  10 3836.81 508.792  11 0.44474-0.45531 0.24583-0.82888 0.94814-0.43428
   2  -4  -9 415.931 183.662   9 0.85269-0.82790-0.51647-0.06709 0.29616-0.75493
  -2  -4   9 688.149 231.909  11 0.44306-0.46826 0.21032-0.79340 0.95753-0.49921
   2  -4  -9 768.187 223.423  11 0.06091-0.03615-0.87930 0.29576 0.47127-0.93026
   2  -4  -8 3004.95 405.444  11 0.09819-0.05880-0.83807 0.25457 0.54311-0.94655
  -2  -4   8 2578.78 400.816  11 0.44030-0.48013 0.16803-0.75115 0.96691-0.56414
   2  -4  -8 3016.03 403.166   9 0.85940-0.82002-0.49217-0.09137 0.35750-0.76075
   2  -4  -7 297.700 147.281  11 0.13681-0.08279-0.78796 0.20448 0.61474-0.96263
   2  -4  -7 661.744 197.038   9 0.86235-0.80837-0.46392-0.11960 0.42099-0.76871
  -2  -4   7 532.222 205.783  11 0.43604-0.49049 0.11854-0.70168 0.97550-0.62827
   2  -4  -6 7354.75 592.489  11 0.17626-0.10762-0.72836 0.14491 0.68477-0.97712
  -2  -4   6 7080.74 616.616  11 0.42980-0.49888 0.06160-0.64477 0.98225-0.69056
   2  -4  -6 7973.27 600.501   9 0.86070-0.79214-0.43120-0.15230 0.48640-0.77860
   2  -4  -5 3741.06 402.055   9 0.85349-0.77034-0.39349-0.18999 0.55324-0.78992
   2  -4  -5 4280.34 448.649  11 0.21584-0.13257-0.65908 0.07567 0.75146-0.98827
  -2  -4   5 4285.95 471.842  11 0.42106-0.50477-0.00272-0.58049 0.98589-0.74975
   2  -4  -4 4620.03 427.515   9 0.83962-0.74186-0.35035-0.23312 0.62066-0.80181
  -2  -4   4 4783.53 500.800  11 0.40930-0.50763-0.07393-0.50931 0.98504-0.80444
   2  -4  -4 4142.70 427.098  11 0.25460-0.15670-0.58057-0.00281 0.81278-0.99405
   2  -4  -3 7973.52 585.508  11 0.29147-0.17894-0.49405-0.08929 0.86666-0.99239
  -2  -4   3 8450.24 640.236  11 0.39406-0.50702-0.15101-0.43226 0.97827-0.85322
   2  -4  -3 8481.32 563.425   9 0.81794-0.70560-0.30154-0.28191 0.68732-0.81295
   2  -4  -2 13273.1 688.285   9 0.78751-0.66057-0.24719-0.33625 0.75143-0.82153
   2  -4  -2 12100.6 710.199  11 0.32533-0.19818-0.40161-0.18171 0.91129-0.98147
  -2  -4   2 12173.0 762.325  11 0.37507-0.50265-0.23246-0.35085 0.96433-0.89482
  -2  -4   1 14103.6 816.641  11 0.35224-0.49446-0.31628-0.26706 0.94232-0.92836
   2  -4  -1 15130.5 721.785   9 0.74779-0.60626-0.18795-0.39546 0.81075-0.82533
   2  -4  -1 14273.3 773.980  11 0.35522-0.21344-0.30602-0.27726 0.94545-0.96008
   2  -4   0 23621.6 1001.98  11 0.38050-0.22409-0.21046-0.37279 0.96880-0.92789
  -2  -4   0 23310.9 1042.11  11 0.32580-0.48264-0.40022-0.18315 0.91187-0.95345
   2  -4   0 23931.4 901.340   9 0.69901-0.54289-0.12514-0.45825 0.86294-0.82199
   2  -4   1 32466.5 1039.19   9 0.64237-0.47165-0.06067-0.52271 0.90592-0.80945
  -2  -4  -1 32422.4 1235.58  11 0.29618-0.46765-0.48202-0.10138 0.87318-0.97031
   2  -4   1 30676.4 1154.06  11 0.40090-0.22987-0.11802-0.46520 0.98192-0.88546
  -2  -4  -2 21404.4 1017.79  11 0.26403-0.45013-0.55964-0.02380 0.82702-0.97969
   2  -4   2 20907.6 971.386  11 0.41660-0.23094-0.03132-0.55186 0.98617-0.83417
   2  -4   2 22329.8 873.201   9 0.58001-0.39470 0.00317-0.58653 0.93841-0.78642
  -2  -4  -3 26252.2 1148.03  11 0.23012-0.43085-0.63147 0.04801 0.77455-0.98277
   2  -4   3 27293.8 1131.31  11 0.42807-0.22779 0.04775-0.63091 0.98339-0.77584
   2  -4   3 27921.1 984.239   9 0.51478-0.31488 0.06409-0.64743 0.96020-0.75268
   2  -4   4 39416.8 1390.69  11 0.43600-0.22109 0.11813-0.70126 0.97556-0.71248
   2  -4   4 41088.2 1228.50   9 0.44971-0.23521 0.12018-0.70350 0.97219-0.70915
  -2  -4  -4 42456.5 1159.56   9 0.78422-0.99949-0.59211 0.00843 0.02869-0.29211
  -2  -4  -4 40847.1 1458.50  11 0.19520-0.41055-0.69646 0.11297 0.71716-0.98092
  -2  -4  -5 22388.4 903.751   9 0.76890-0.99877-0.59945 0.01576-0.01122-0.30772
   2  -4   5 22988.8 944.262   9 0.38747-0.15839 0.17018-0.75348 0.97609-0.65753
   2  -4   5 21662.8 1060.98  11 0.44112-0.21158 0.17947-0.76256 0.96456-0.64593
  -2  -4  -5 24212.0 1150.64  11 0.15997-0.38994-0.75405 0.17052 0.65625-0.97555
  -2  -4  -6 3052.25 355.546   9 0.75315-0.99760-0.60550 0.02179-0.04914-0.32533
   2  -4   6 2801.97 399.583  11 0.44415-0.19998 0.23196-0.81501 0.95197-0.57780
   2  -4   6 2888.99 352.886   9 0.33012-0.08644 0.21352-0.79681 0.97399-0.59991
  -2  -4  -6 2327.37 385.988  11 0.12499-0.36959-0.80413 0.22057 0.59312-0.96797
  -2  -4  -7 1577.61 347.118  11 0.09070-0.34993-0.84691 0.26332 0.52887-0.95926
  -2  -4  -7 1264.98 257.297   9 0.73690-0.99595-0.61046 0.02673-0.08559-0.34440
   2  -4   7 1864.48 351.828  11 0.44569-0.18690 0.27612-0.85914 0.93903-0.50931
   2  -4   7 1582.50 269.880   9 0.27892-0.02065 0.25021-0.83347 0.96794-0.53833
  -2  -4  -8 3400.08 417.081   9 0.72010-0.99374-0.61446 0.03071-0.12094-0.36458
   2  -4   8 3580.43 482.935  11 0.44625-0.17283 0.31268-0.89567 0.92663-0.44137
  -2  -4  -8 3117.81 463.301  11 0.05740-0.33126-0.88283 0.29921 0.46438-0.95031
   2  -4   8 3228.40 393.387   9 0.23449 0.03837 0.28062-0.86387 0.95973-0.47460
  -2  -4  -9 3687.17 516.912  11 0.02529-0.31377-0.91241 0.32876 0.40028-0.94176
   2  -4   9 2885.08 457.880  11 0.44621-0.15816 0.34241-0.92537 0.91538-0.37458
  -2  -4  -9 3261.68 436.416   9 0.70271-0.99095-0.61760 0.03383-0.15543-0.38561
  -2  -4 -10 3438.82 469.831   9 0.68469-0.98752-0.61991 0.03613-0.18924-0.40732
   2  -4  10 4067.96 551.051  11 0.44584-0.14317 0.36607-0.94900 0.90566-0.30931
  -2  -4 -11 5979.55 639.136   9 0.66598-0.98340-0.62145 0.03765-0.22253-0.42955
   2  -4  11 5269.67 649.806  11 0.44535-0.12805 0.38436-0.96726 0.89765-0.24576
  -2  -4 -12 2043.44 404.738   9 0.64656-0.97858-0.62224 0.03841-0.25540-0.45221
   2  -4  12 2276.34 442.032  11 0.44487-0.11294 0.39790-0.98077 0.89145-0.18401
   2  -4  13 480.671 212.818  11 0.44448-0.09793 0.40722-0.99005 0.88704-0.12406
  -2  -4 -13 290.538 165.760   9 0.62639-0.97299-0.62227 0.03843-0.28792-0.47522
   2  -4  14 288.975 176.311  11 0.44423-0.08304 0.41275-0.99556 0.88437-0.06584
  -2  -4 -14 7.02197 101.732   9 0.60541-0.96661-0.62155 0.03769-0.32016-0.49850
  -2  -3  17 1775.49 402.326  11 0.43894-0.34707 0.48786-0.92486 0.84383 0.05892
   2  -3 -17 2490.80 488.712   9 0.70967-0.80153-0.61645 0.17862-0.14186-0.76106
  -2  -3  16 324.107 183.818  11 0.43877-0.36153 0.48968-0.92671 0.84275 0.00446
   2  -3 -16 944.005 298.916   9 0.73282-0.81009-0.61153 0.17372-0.09437-0.75302
  -2  -3  15 2701.12 478.142  11 0.43890-0.37629 0.48827-0.92533 0.84359-0.05192
   2  -3 -15 3922.55 577.880   9 0.75477-0.81744-0.60494 0.16714-0.04536-0.74650
  -2  -3  14 1238.69 307.774  11 0.43936-0.39138 0.48326-0.92035 0.84655-0.11043
   2  -3 -14 1599.59 358.340   9 0.77544-0.82352-0.59652 0.15874 0.00540-0.74174
  -2  -3  13 1706.68 342.818  11 0.44016-0.40680 0.47415-0.91128 0.85184-0.17127
   2  -3 -13 1817.85 362.999   9 0.79470-0.82819-0.58605 0.14829 0.05815-0.73897
  -2  -3  12 2842.04 430.287  11 0.44128-0.42255 0.46035-0.89750 0.85963-0.23459
   2  -3 -12 2275.68 398.273   9 0.81237-0.83127-0.57327 0.13553 0.11317-0.73847
  -2  -3  12 2361.91 338.588   5 0.56088-0.54221 0.39915-0.83641 0.84761-0.22275
  -2  -3  11 15922.0 964.631  11 0.44264-0.43853 0.44107-0.87826 0.87003-0.30054
   2  -3 -11 16504.8 980.964   9 0.82818-0.83248-0.55781 0.12008 0.17075-0.74052
  -2  -3  11 16771.6 831.991   5 0.54079-0.53672 0.39236-0.82964 0.86037-0.29103
   2  -3 -10 3766.83 449.940   9 0.84174-0.83145-0.53923 0.10152 0.23121-0.74545
  -2  -3  10 4523.42 498.922  11 0.44410-0.45462 0.41542-0.85264 0.88306-0.36912
  -2  -3  10 4528.73 412.876   5 0.51272-0.52326 0.38261-0.81991 0.87665-0.36282
   2  -3  -9 1867.92 312.014   9 0.85251-0.82762-0.51697 0.07928 0.29483-0.75355
  -2  -3   9 1988.12 327.640  11 0.44542-0.47057 0.38229-0.81954 0.89858-0.44018
   2  -3  -9 1879.81 303.092  11 0.01761 0.00720-0.91876 0.48105 0.38470-0.84360
  -2  -3   9 1823.43 250.514   5 0.47459-0.49974 0.36890-0.80622 0.89611-0.43780
  -2  -3   8 45975.0 1465.90  11 0.44623-0.48600 0.34044-0.77773 0.91616-0.51331
   2  -3  -8 44671.2 1401.68   9 0.85974-0.82026-0.49033 0.05267 0.36186-0.76506
  -2  -3   8 46161.1 1178.02   5 0.42383-0.46359 0.34989-0.78724 0.91770-0.51491
   2  -3  -8 46480.4 1383.30  11 0.05776-0.01832-0.88246 0.44479 0.46509-0.86845
  -2  -3   7 25967.8 1061.31  11 0.44596-0.50036 0.28857-0.72589 0.93498-0.58767
   2  -3  -7 25887.7 991.707  11 0.10115-0.04708-0.83450 0.39686 0.54870-0.89652
   2  -3  -7 25801.9 1023.69   9 0.86242-0.80835-0.45849 0.02084 0.43241-0.78008
  -2  -3   6 2963.77 352.433  11 0.44384-0.51287 0.22544-0.66279 0.95370-0.66193
   2  -3  -6 2951.33 337.929   9 0.85918-0.79051-0.42045-0.01718 0.50631-0.79846
   2  -3  -6 2838.28 322.672  11 0.14752-0.07882-0.77264 0.33503 0.63408-0.92635
   2  -3  -5 5473.26 436.175   9 0.84827-0.76501-0.37518-0.06243 0.58294-0.81956
   2  -3  -5 6267.83 457.761  11 0.19611-0.11279-0.69487 0.25729 0.71870-0.95542
  -2  -3   5 5950.43 480.826  11 0.43889-0.52254 0.15019-0.58757 0.97031-0.73408
   2  -3  -4 13591.4 655.192  11 0.24549-0.14753-0.60008 0.16253 0.79876-0.97994
  -2  -3   4 13964.9 545.794   5 0.04658-0.14479 0.18792-0.62536 0.95881-0.77809
  -2  -3   4 13884.1 710.118  11 0.42993-0.52822 0.06268-0.50010 0.98215-0.80147
   2  -3  -4 13797.8 658.354   9 0.82759-0.72974-0.32169-0.11590 0.66092-0.84203
   2  -3  -3 39694.5 1079.95   9 0.79487-0.68243-0.25938-0.17819 0.73789-0.86347
   2  -3  -3 41145.9 1109.98  11 0.29348-0.18090-0.48894 0.05142 0.86946-0.99510
  -2  -3   3 39564.5 896.583   5-0.08754-0.02527 0.12291-0.56038 0.93069-0.80549
  -2  -3   3 39630.7 1173.92  11 0.41583-0.52874-0.03603-0.40141 0.98613-0.86100
   2  -3  -2 37389.0 1013.89   9 0.74814-0.62111-0.18844-0.24912 0.81031-0.88036
  -2  -3   2 38782.0 884.572   5-0.22380 0.09637 0.05303-0.49051 0.88000-0.81032
  -2  -3   2 39565.3 509.021   9 0.86152-0.98914-0.43897 0.00128 0.47155-0.40178
  -2  -3   2 39275.1 1150.65  11 0.39568-0.52321-0.14341-0.29406 0.97921-0.90962
   2  -3  -2 37338.6 1049.52  11 0.33745-0.21024-0.36469-0.07279 0.92583-0.99593
  -2  -3   1 44965.1 624.906   9 0.85442-0.99663-0.51153 0.07382 0.30922-0.29497
  -2  -3   1 42689.5 939.035   5-0.35173 0.20969-0.01641-0.42110 0.81040-0.79623
   2  -3  -1 43358.0 1132.18  11 0.37487-0.23303-0.23325-0.20421 0.96416-0.97871
  -2  -3   1 45975.4 1235.96  11 0.36914-0.51130-0.25548-0.18203 0.95908-0.94503
   2  -3  -1 43314.6 1072.07   9 0.68657-0.54495-0.11033-0.32721 0.87374-0.88827
  -2  -3   1 46844.8 702.517   2-0.38590 0.24440-0.22898-0.20773-0.96381 0.97797
  -2  -3   0 5694.01 355.072   5-0.46394 0.30729-0.08086-0.35668 0.72897-0.77033
   2  -3   0 5571.56 385.123   9 0.61130-0.45508-0.02807-0.40945 0.92374-0.88275
  -2  -3   0 5559.06 439.207  11 0.33661-0.49339-0.36735-0.07020 0.92485-0.96634
  -2  -3   0 6048.09 282.939   2-0.08656-0.06954-0.21533-0.22142-0.96138 0.92001
   2  -3   0 5198.93 400.046  11 0.40404-0.24758-0.10207-0.33535 0.98328-0.94228
  -2  -3   0 5305.89 251.693   9 0.83715-0.99395-0.54630 0.10857 0.20911-0.25039
   2  -3   1 13025.3 587.027   9 0.52586-0.35505 0.05410-0.49160 0.95724-0.86073
  -2  -3  -1 12812.2 665.078  11 0.29921-0.47062-0.47414 0.03657 0.87733-0.97437
   2  -3   1 13395.3 645.285  11 0.42458-0.25349 0.02161-0.45901 0.98501-0.88847
  -2  -3  -1 13692.4 457.743   9 0.81986-0.99126-0.56654 0.12879 0.13921-0.23601
  -2  -3  -1 13940.0 472.365   2 0.14245-0.31315-0.19172-0.24506-0.89960 0.80269
  -2  -3  -2 26577.4 716.269   2 0.30132-0.48662-0.16869-0.26813-0.82639 0.67395
   2  -3   2 26193.2 923.576  11 0.43735-0.25164 0.13250-0.56986 0.97334-0.82126
  -2  -3  -2 24139.6 929.989  11 0.25853-0.44457-0.57194 0.13433 0.81875-0.97134
  -2  -3  -2 25469.6 696.285   9 0.80342-0.98941-0.58020 0.14244 0.08434-0.23667
   2  -3   2 24401.4 818.483   9 0.43571-0.25031 0.13171-0.56920 0.97367-0.82163
  -2  -3  -3 35625.7 902.782   9 0.78751-0.98809-0.59031 0.15253 0.03772-0.24556
   2  -3   3 34311.5 992.778   9 0.34678-0.14679 0.20118-0.63865 0.97513-0.76757
   2  -3   3 34329.3 1096.16  11 0.44396-0.24362 0.22789-0.66521 0.95306-0.74543
  -2  -3  -3 35452.3 1156.30  11 0.21626-0.41693-0.65829 0.22065 0.75215-0.96028
  -2  -3  -3 34900.6 893.879   2 0.40858-0.60848-0.14972-0.28713-0.76140 0.55343
   2  -3   4 883.724 181.213   9 0.26402-0.04943 0.26055-0.69800 0.96549-0.70240
  -2  -3  -4 874.783 165.238   9 0.77177-0.98695-0.59820 0.16039-0.00399-0.25938
   2  -3   4 859.815 197.037  11 0.44621-0.23125 0.30735-0.74465 0.92854-0.66537
  -2  -3  -4 917.769 222.322  11 0.17387-0.38917-0.73223 0.29456 0.68062-0.94429
  -2  -3  -5 6902.23 545.859  11 0.13247-0.36239-0.79398 0.35628 0.60683-0.92605
   2  -3   5 7111.60 543.005  11 0.44570-0.21611 0.37199-0.80925 0.90311-0.58440
  -2  -3  -5 6736.92 463.514   9 0.75597-0.98573-0.60451 0.16669-0.04255-0.27634
  -2  -3  -6 27324.7 995.211   9 0.73992-0.98428-0.60962 0.17178-0.07899-0.29543
   2  -3   6 26507.9 1082.23  11 0.44367-0.19945 0.42357-0.86081 0.87902-0.50476
  -2  -3  -6 26771.8 1114.08  11 0.09277-0.33732-0.84449 0.40676 0.53283-0.90759
   2  -3   7 11383.8 741.989  11 0.44099-0.18214 0.46409-0.90129 0.85754-0.42774
  -2  -3  -7 10417.6 656.149   9 0.72352-0.98247-0.61373 0.17587-0.11393-0.31602
  -2  -3  -7 9429.32 692.176  11 0.05517-0.31434-0.88504 0.44728 0.45998-0.89028
   2  -3   8 9216.13 698.564  11 0.43821-0.16474 0.49536-0.93253 0.83932-0.35397
  -2  -3  -8 9364.60 658.910   9 0.70666-0.98020-0.61697 0.17909-0.14777-0.33770
  -2  -3  -8 9130.67 706.443  11 0.01980-0.29360-0.91698 0.47919 0.38913-0.87498
   2  -3   9 2450.70 393.281  11 0.43569-0.14758 0.51899-0.95613 0.82454-0.28365
   2  -3   9 2118.69 322.220  10 0.46238-0.17432 0.51826-0.95567 0.81580-0.27498
  -2  -3  -9 1718.70 316.107   9 0.68928-0.97742-0.61941 0.18151-0.18080-0.36019
  -2  -3 -10 12908.7 848.923   9 0.67133-0.97406-0.62110 0.18319-0.21320-0.38332
   2  -3  10 13431.8 822.354  10 0.46763-0.16498 0.53442-0.97182 0.80234-0.20598
   2  -3  10 13574.2 913.622  11 0.43359-0.13086 0.53627-0.97337 0.81316-0.21672
   2  -3  11 895.331 257.642  11 0.43201-0.11465 0.54825-0.98532 0.80496-0.15298
   2  -3  11 496.812 183.272  10 0.47104-0.15380 0.54521-0.98258 0.79298-0.14109
  -2  -3 -11 894.852 263.929   9 0.65275-0.97007-0.62207 0.18414-0.24511-0.40693
   2  -3  12 8241.36 710.752  10 0.47304-0.14121 0.55162-0.98897 0.78728-0.07985
   2  -3  12 7734.69 751.983  11 0.43096-0.09898 0.55576-0.99280 0.79970-0.09218
  -2  -3 -12 8612.07 774.935   9 0.63350-0.96541-0.62234 0.18440-0.27664-0.43093
   2  -3  13 5350.78 602.846  10 0.47389-0.12747 0.55439-0.99173 0.78477-0.02180
  -2  -3 -13 4158.25 557.412   9 0.61353-0.96004-0.62191 0.18395-0.30785-0.45524
   2  -3  13 4242.71 579.935  11 0.43043-0.08383 0.55943-0.99644 0.79709-0.03402
  -2  -3 -14 1909.30 394.375   9 0.59282-0.95392-0.62078 0.18280-0.33882-0.47979
   2  -3  14 1441.27 378.367  11 0.43039-0.06915 0.55977-0.99675 0.79684 0.02177
   2  -3  14 1361.44 333.660  10 0.47380-0.11279 0.55409-0.99140 0.78505 0.03346
   2  -3  15 1034.05 293.674  11 0.43076-0.05490 0.55716-0.99411 0.79870 0.07545
   2  -3  15 1143.28 293.944  10 0.47288-0.09727 0.55111-0.98840 0.78773 0.08631
  -2  -3 -15 512.419 244.355   9 0.57130-0.94700-0.61893 0.18093-0.36958-0.50455
   2  -3  16 21.6583 120.928  10 0.47121-0.08101 0.54574-0.98301 0.79251 0.13706
   2  -2 -18 2308.59 473.746   9 0.66268-0.76904-0.62164 0.32967-0.22824-0.73015
  -2  -2  18 2231.45 441.528  10 0.48211-0.37596 0.58194-0.87323 0.75872 0.19969
  -2  -2  18 1876.61 413.008  11 0.42187-0.31532 0.61109-0.90223 0.75766 0.20072
  -2  -2  17 373.110 214.018  10 0.48424-0.39268 0.58940-0.88072 0.75127 0.15161
  -2  -2  17 451.544 210.828  11 0.42009-0.32817 0.62032-0.91149 0.75005 0.15279
   2  -2 -17 400.467 205.628   9 0.68788-0.77964-0.61957 0.32761-0.18339-0.71948
  -2  -2  16 1418.35 346.159  11 0.41872-0.34143 0.62721-0.91841 0.74425 0.10304
  -2  -2  16 1906.02 392.984  10 0.48580-0.40883 0.59495-0.88628 0.74562 0.10172
   2  -2 -16 1330.80 361.924   9 0.71210-0.78927-0.61602 0.32409-0.13705-0.71029
  -2  -2  15 1100.03 292.742  10 0.48675-0.42438 0.59838-0.88973 0.74207 0.04973
   2  -2 -15 1141.90 302.903   9 0.73533-0.79791-0.61088 0.31896-0.08898-0.70283
  -2  -2  15 1147.64 315.166  11 0.41784-0.35517 0.63151-0.92275 0.74057 0.05117
   2  -2 -14 11056.4 878.432   9 0.75752-0.80550-0.60395 0.31205-0.03890-0.69740
  -2  -2  14 11094.9 850.504  11 0.41755-0.36951 0.63291-0.92418 0.73937-0.00316
  -2  -2  14 9606.95 789.509  10 0.48705-0.43926 0.59945-0.89082 0.74096-0.00470
  -2  -2  13 4358.21 515.276  11 0.41795-0.38454 0.63096-0.92226 0.74105-0.06039
  -2  -2  13 5213.42 563.387  10 0.48659-0.45340 0.59779-0.88918 0.74269-0.06196
   2  -2 -13 4643.47 545.550   9 0.77857-0.81196-0.59501 0.30313 0.01356-0.69433
  -2  -2  12 1585.48 312.422  11 0.41916-0.40037 0.62504-0.91637 0.74609-0.12097
   2  -2 -12 2057.11 295.450   7 0.53549-0.55498-0.84373 0.55210 0.12049-0.74593
   2  -2 -12 1851.80 326.887   9 0.79832-0.81712-0.58372 0.29186 0.06881-0.69406
  -2  -2  12 1884.40 331.447  10 0.48523-0.46663 0.59290-0.88432 0.74771-0.12252
  -2  -2  11 946.036 237.774  11 0.42126-0.41710 0.61431-0.90567 0.75502-0.18545
   2  -2 -11 1276.50 224.256   7 0.49437-0.49921-0.86680 0.57520 0.18624-0.75614
  -2  -2  11 1328.84 285.480  10 0.48274-0.47873 0.58413-0.87556 0.75655-0.18689
  -2  -2  10 5162.61 487.870  11 0.42432-0.43478 0.59762-0.88901 0.76845-0.25442
   2  -2 -10 4476.93 470.104   9 0.83277-0.82238-0.55225 0.26042 0.18969-0.70388
  -2  -2  10 4811.65 474.043  10 0.47877-0.48936 0.57055-0.86200 0.76976-0.25565
  -2  -2   9 135351. 2334.33  11 0.42833-0.45343 0.57340-0.86483 0.78693-0.32845
  -2  -2   9 132119. 2312.84  10 0.47282-0.49800 0.55090-0.84237 0.78792-0.32934
   2  -2  -9 135326. 2377.23   9 0.84646-0.82148-0.53071 0.23890 0.25652-0.71520
   2  -2  -8 28710.4 1041.71   9 0.85669-0.81711-0.50400 0.21221 0.32852-0.73167
  -2  -2   8 27171.7 1002.37  10 0.46410-0.50387 0.52351-0.81500 0.81150-0.40846
  -2  -2   8 26501.9 987.085  11 0.43317-0.47289 0.53955-0.83101 0.81094-0.40800
  -2  -2   7 21346.6 838.087  11 0.43842-0.49277 0.49326-0.78475 0.84059-0.49319
   2  -2  -7 22255.2 870.024   9 0.86204-0.80788-0.47076 0.17899 0.40628-0.75391
   2  -2  -7 22226.7 806.107  11 0.02534 0.02879-0.91237 0.62055 0.40038-0.74811
   2  -2  -6 62086.5 1369.03   9 0.86045-0.79169-0.42920 0.13745 0.49016-0.78226
   2  -2  -6 61371.8 1262.68  11 0.07632-0.00756-0.86309 0.57130 0.50127-0.79345
  -2  -2   6 64259.1 1387.50  11 0.44325-0.51223 0.43104-0.72256 0.87524-0.58338
  -2  -2   6 60508.7 1180.05   5 0.52106-0.58998 0.38554-0.67711 0.87200-0.58018
   2  -2  -5 120890. 1804.02   9 0.84888-0.76553-0.37714 0.08541 0.57983-0.81641
  -2  -2   5 121229. 1819.23  11 0.44614-0.52974 0.34887-0.64042 0.91280-0.67649
  -2  -2   5 117784. 1547.02   5 0.43591-0.51944 0.35449-0.64609 0.91298-0.67668
   2  -2  -5 121790. 1672.21  11 0.13493-0.05155-0.79058 0.49883 0.61131-0.84796
   2  -2  -4 12241.9 550.717   9 0.82316-0.72522-0.31220 0.02048 0.67355-0.85461
  -2  -2   4 12875.9 570.469  11 0.44463-0.54285 0.24308-0.53466 0.94892-0.76816
  -2  -2   4 12307.8 474.529   5 0.32082-0.41897 0.30904-0.60066 0.94831-0.76754
   2  -2  -4 12883.2 521.362  11 0.20072-0.10271-0.68675 0.39502 0.72643-0.90753
   2  -2  -3 62845.8 1096.93  11 0.27056-0.15792-0.54469 0.25300 0.83670-0.96225
  -2  -2   3 61743.1 1196.54  11 0.43541-0.54826 0.11216-0.40378 0.97642-0.85120
   2  -2  -3 61684.9 1175.31   9 0.77821-0.66568-0.23242-0.05928 0.76720-0.89273
  -2  -2   3 64137.6 1038.09   5 0.17411-0.28686 0.24629-0.53793 0.96573-0.84047
  -2  -2   2 21856.8 596.740   5 0.00339-0.13076 0.16739-0.45906 0.95207-0.88233
   2  -2  -2 20885.5 620.333  11 0.33743-0.21017-0.36476 0.07310 0.92581-0.99582
   2  -2  -2 20899.8 658.670   9 0.70922-0.58209-0.13762-0.15406 0.85340-0.92341
  -2  -2   2 21583.0 696.608  11 0.41507-0.54255-0.04064-0.25101 0.98608-0.91640
  -2  -2   1 76412.7 555.803   9 0.76775-0.90986-0.59994 0.30811-0.01410 0.02839
  -2  -2   1 78921.6 913.963   2-0.26921 0.12763-0.22614-0.06497-0.97414 0.98838
  -2  -2   1 76686.3 1296.03  11 0.38166-0.52377-0.20563-0.08605 0.96971-0.95558
  -2  -2   1 77846.0 1122.41   5-0.17340 0.03143 0.07934-0.37103 0.90143-0.88721
   2  -2  -1 77764.5 1241.07   9 0.61432-0.47259-0.03117-0.26049 0.92216-0.93665
   2  -2  -1 77995.2 1190.92  11 0.39192-0.25003-0.16088-0.13075 0.97696-0.99142
   2  -2   0 2269.07 217.291   9 0.49769-0.34137 0.07924-0.37088 0.96421-0.92317
  -2  -2   0 2236.18 200.990   5-0.33595 0.17937-0.00763-0.28408 0.82023-0.86153
   2  -2   0 2449.51 219.367  11 0.42728-0.27077 0.04163-0.33323 0.98383-0.94275
  -2  -2   0 2135.30 225.160  11 0.33623-0.49297-0.36851 0.07679 0.92441-0.96583
  -2  -2   0 2381.48 136.768   9 0.76787-0.92458-0.59989 0.30803-0.01379-0.02744
  -2  -2   0 2477.26 176.095   2 0.03171-0.18789-0.20452-0.08662-0.93575 0.89446
  -2  -2  -1 55020.2 885.123   2 0.25577-0.42656-0.17588-0.11529-0.85007 0.75325
  -2  -2  -1 54479.0 794.364   9 0.76038-0.93168-0.60289 0.31102-0.03209-0.06467
  -2  -2  -1 54892.6 1011.28   5-0.47174 0.30054-0.08548-0.20626 0.72250-0.81931
  -2  -2  -1 55576.6 1136.96  11 0.28276-0.45412-0.51568 0.22393 0.85438-0.95134
   2  -2   1 56231.6 1069.60   9 0.37020-0.19929 0.18350-0.47512 0.97601-0.87944
   2  -2   1 57019.5 1077.22  11 0.44353-0.27239 0.21918-0.51075 0.95531-0.85869
  -2  -2  -2 45891.8 846.519   9 0.75051-0.93640-0.60638 0.31449-0.05522-0.09706
  -2  -2  -2 47302.5 1087.36  11 0.22628-0.41226-0.63906 0.34728 0.76839-0.92089
   2  -2   2 47043.4 1005.73   9 0.24538-0.05987 0.27329-0.56489 0.96199-0.80990
   2  -2   2 46362.6 1022.32  11 0.44595-0.26018 0.36068-0.65221 0.90793-0.75577
  -2  -2  -2 45128.5 888.640   2 0.40483-0.59022-0.15043-0.14077-0.76391 0.61155
  -2  -2  -3 10183.0 446.645   9 0.73931-0.93980-0.60979 0.31789-0.08033-0.12747
   2  -2   3 9736.15 493.433  11 0.44077-0.24037 0.46686-0.75836 0.85599-0.64828
  -2  -2  -3 9991.32 526.663  11 0.17093-0.37155-0.73693 0.44513 0.67550-0.88355
  -2  -2  -4 11488.0 588.964  11 0.11919-0.33443-0.81179 0.51995 0.58242-0.84601
  -2  -2  -4 11777.3 528.110   9 0.72712-0.94219-0.61292 0.32099-0.10644-0.15688
   2  -2   4 11722.3 574.051  11 0.43258-0.21756 0.54400-0.83547 0.80790-0.54464
   2  -2   4 11531.9 489.858  10 0.47265-0.25760 0.55038-0.84204 0.78839-0.52520
  -2  -2  -4 11229.2 355.024   8 0.03216-0.24721 0.35753-0.64946-0.89164 0.62815
  -2  -2  -5 36564.0 1002.16   9 0.71407-0.94374-0.61566 0.32371-0.13313-0.18572
  -2  -2  -5 35706.8 1084.64  11 0.07204-0.30190-0.86771 0.57584 0.49298-0.81211
   2  -2   5 33375.6 879.249   1 0.38229-0.15263-0.65694 0.36554-0.52811 0.84651
   2  -2   5 34691.3 1046.34  11 0.42405-0.19440 0.59914-0.89058 0.76724-0.44845
  -2  -2  -5 35420.2 705.258   8 0.20805-0.43775 0.32383-0.61580-0.83527 0.51626
   2  -2   5 33652.0 900.082  10 0.48826-0.25862 0.60388-0.89553 0.73631-0.41759
   2  -2   6 9110.84 508.301  10 0.49720-0.25296 0.63858-0.93020 0.69751-0.32325
  -2  -2  -6 9266.09 547.455   9 0.70023-0.94449-0.61797 0.32600-0.16019-0.21418
  -2  -2  -6 8744.01 575.099  11 0.02955-0.27404-0.90876 0.61686 0.40889-0.78357
  -2  -2  -6 9399.51 399.130   8 0.32205-0.56638 0.29547-0.58748-0.78255 0.40802
   2  -2   6 9163.04 574.519  11 0.41645-0.17217 0.63814-0.92955 0.73483-0.36049
  -2  -2  -7 12263.7 499.593   8 0.39463-0.65360 0.27448-0.56652-0.74168 0.31164
   2  -2   7 11320.2 602.789  10 0.50237-0.24354 0.66095-0.95255 0.67000-0.24020
   2  -2   7 10430.3 643.288  11 0.41028-0.15138 0.66535-0.95672 0.71019-0.28031
  -2  -2  -7 11299.1 642.989   9 0.68564-0.94450-0.61981 0.32783-0.18750-0.24240
   2  -2   8 58325.4 1333.94   1 0.67792-0.40458-0.59395 0.30267-0.24222 0.72717
  -2  -2  -8 54712.1 1498.99   9 0.67032-0.94376-0.62117 0.32917-0.21497-0.27045
  -2  -2  -8 60745.2 1200.26   8 0.44031-0.71392 0.25998-0.55205-0.71276 0.22720
   2  -2   8 52229.2 1514.19  11 0.40564-0.13211 0.68383-0.97517 0.69239-0.20696
   2  -2   8 53629.5 1394.66  10 0.50535-0.23193 0.67499-0.96657 0.65161-0.16628
   2  -2   9 10937.9 670.644  10 0.50698-0.21897 0.68315-0.97471 0.64048-0.09960
   2  -2   9 11393.8 632.788   1 0.74113-0.45323-0.56335 0.27211-0.16029 0.70075
   2  -2   9 10906.2 733.918  11 0.40244-0.11428 0.69575-0.98706 0.68044-0.13946
  -2  -2  -9 11601.1 739.129   9 0.65425-0.94229-0.62202 0.33000-0.24258-0.29836
  -2  -2  -9 12359.6 585.833   8 0.46813-0.75638 0.25062-0.54273-0.69384 0.15277
   2  -2  10 1861.32 293.598   1 0.79222-0.48975-0.53107 0.23987-0.08489 0.68087
  -2  -2 -10 1879.05 331.980   9 0.63745-0.94008-0.62234 0.33031-0.27028-0.32618
   2  -2  10 1529.23 285.824  10 0.50772-0.20512 0.68700-0.97854 0.63511-0.03870
  -2  -2 -11 412.416 173.102   9 0.61989-0.93712-0.62212 0.33007-0.29807-0.35392
   2  -2  11 597.532 208.552   1 0.83362-0.51659-0.49786 0.20670-0.01523 0.66673
   2  -2  11 697.500 215.699  10 0.50783-0.19063 0.68754-0.97907 0.63435 0.01760
   2  -2  12 737.161 227.794  10 0.50743-0.17564 0.68544-0.97694 0.63730 0.07018
  -2  -2 -12 907.278 262.711   9 0.60156-0.93338-0.62134 0.32927-0.32591-0.38160
  -2  -2 -13 282.362 163.749   9 0.58245-0.92886-0.61997 0.32788-0.35381-0.40923
   2  -2  13 519.241 207.561  10 0.50659-0.16020 0.68112-0.97261 0.64327 0.11975
   2  -2  14 4694.50 605.590  11 0.40240-0.04111 0.69590-0.98705 0.68029 0.13841
   2  -2  14 4239.01 547.078  10 0.50534-0.14436 0.67490-0.96636 0.65173 0.16683
  -2  -2 -14 4669.14 614.042   9 0.56253-0.92353-0.61800 0.32589-0.38175-0.43681
  -2  -2 -15 479.940 231.896   9 0.54176-0.91736-0.61539 0.32326-0.40974-0.46435
   2  -2  15 451.208 209.770  11 0.40453-0.02861 0.68804-0.97916 0.68821 0.18602
   2  -2  15 758.629 253.602  10 0.50368-0.12811 0.66697-0.95841 0.66223 0.21186
   2  -2  16 816.104 293.259  11 0.40709-0.01655 0.67821-0.96930 0.69790 0.23188
   2  -2  16 602.710 227.132  10 0.50159-0.11144 0.65745-0.94887 0.67445 0.25518
  -2  -2 -16 520.790 247.462   9 0.52011-0.91030-0.61212 0.31998-0.43775-0.49186
   2  -2  17 2692.78 484.747  10 0.49907-0.09431 0.64642-0.93782 0.68811 0.29706
  -2  -1  18 1443.88 361.072  10 0.50431-0.39820 0.66998-0.81542 0.65828 0.30018
   2  -1 -18 1925.70 426.149   9 0.62307-0.72932-0.62220 0.47611-0.29312-0.66522
   2  -1 -17 3347.36 536.202   9 0.64902-0.74068-0.62218 0.47610-0.25133-0.65149
  -2  -1  17 2091.07 419.204  10 0.50645-0.41493 0.68043-0.82589 0.64423 0.25870
  -2  -1  16 2814.74 458.528  10 0.50819-0.43127 0.68949-0.83498 0.63159 0.21580
   2  -1 -16 2683.15 466.245   9 0.67420-0.75127-0.62088 0.47482-0.20812-0.63917
   2  -1 -15 896.788 268.553   9 0.69863-0.76111-0.61820 0.47215-0.16324-0.62853
  -2  -1  15 828.435 272.873  10 0.50958-0.44725 0.69710-0.84260 0.62064 0.17121
   2  -1 -14 6928.08 572.510   7 0.64195-0.69057-0.70718 0.56122-0.11527-0.62119
   2  -1 -14 6317.86 633.057   9 0.72234-0.77023-0.61399 0.46796-0.11634-0.61990
  -2  -1  14 5629.17 587.918  10 0.51062-0.46288 0.70313-0.84865 0.61174 0.12458
  -2  -1  13 3485.14 448.970  10 0.51133-0.47818 0.70739-0.85294 0.60531 0.07548
   2  -1 -13 4089.90 422.381   7 0.62498-0.65897-0.74244 0.59651-0.06619-0.61473
   2  -1 -13 4044.01 494.351   9 0.74532-0.77861-0.60804 0.46203-0.06702-0.61371
   2  -1 -12 2769.95 335.515   7 0.60433-0.62367-0.77542 0.62952-0.01491-0.61045
   2  -1 -12 2687.66 380.370   9 0.76749-0.78619-0.60005 0.45406-0.01473-0.61047
  -2  -1  12 2896.15 386.100  10 0.51169-0.49313 0.70962-0.85518 0.60190 0.02334
   2  -1 -11 20224.4 961.483   9 0.78876-0.79287-0.58960 0.44363 0.04120-0.61088
   2  -1 -11 19909.8 840.722   7 0.57945-0.58414-0.80587 0.66000 0.03894-0.60876
  -2  -1  11 20445.2 950.073  10 0.51165-0.50769 0.70940-0.85498 0.60224-0.03254
  -2  -1  10 13736.0 742.910  10 0.51112-0.52175 0.70611-0.85171 0.60726-0.09309
   2  -1 -10 13541.3 662.705   7 0.54959-0.53964-0.83335 0.68750 0.09584-0.61011
   2  -1 -10 14768.9 780.110   9 0.80887-0.79839-0.57610 0.43015 0.10164-0.61579
   2  -1  -9 6987.97 510.401   9 0.82741-0.80233-0.55868 0.41275 0.16769-0.62632
   2  -1  -9 7635.16 473.656   7 0.51377-0.48918-0.85713 0.71131 0.15626-0.61499
  -2  -1   9 7098.87 508.267  10 0.50988-0.53510 0.69879-0.84442 0.61816-0.15953
   2  -1  -8 20548.2 818.018   9 0.84359-0.80392-0.53606 0.39014 0.24078-0.64389
   2  -1  -8 20269.6 728.364   7 0.47069-0.43146-0.87609 0.73030 0.22071-0.62388
  -2  -1   8 20829.5 801.497  10 0.50753-0.54734 0.68598-0.83162 0.63654-0.23345
  -2  -1   7 4015.21 336.106  10 0.50332-0.55773 0.66530-0.81096 0.66440-0.31684
   2  -1  -7 3867.46 339.227   9 0.85604-0.80177-0.50632 0.36042 0.32265-0.67023
   2  -1  -6 3090.14 280.654   9 0.86226-0.79340-0.46661 0.32073 0.41526-0.70732
  -2  -1   6 3574.50 285.953  11 0.40392-0.47284 0.69032-0.83601 0.68593-0.39400
  -2  -1   6 3500.85 293.342  10 0.49581-0.56481 0.63292-0.77861 0.70414-0.41212
  -2  -1   5 17229.4 572.755  11 0.41892-0.50247 0.62622-0.77195 0.74509-0.50870
   2  -1  -5 16838.4 597.993   9 0.85779-0.77434-0.41265 0.26679 0.52031-0.75684
  -2  -1   5 16662.5 582.761  10 0.48230-0.56589 0.58260-0.72830 0.75807-0.52158
   2  -1  -4 44603.2 905.461   9 0.83489-0.73685-0.33849 0.19265 0.63773-0.81874
  -2  -1   4 48692.9 481.115   4 0.65585-0.75405 0.30776-0.45344 0.83745-0.65675
   2  -1  -4 47460.3 788.381  11 0.04829 0.04977-0.89172 0.74582 0.44638-0.62739
  -2  -1   4 44466.3 860.570   5 0.57187-0.66995 0.40280-0.54860 0.84021-0.65937
  -2  -1   4 45689.9 855.740  11 0.43531-0.53349 0.52218-0.66794 0.82248-0.64163
  -2  -1   3 73141.1 1020.00   5 0.44409-0.55678 0.35758-0.50340 0.90964-0.78432
  -2  -1   3 73874.0 1001.71  11 0.44604-0.55884 0.35570-0.50150 0.91000-0.78470
   2  -1  -3 71728.7 1079.11   9 0.78124-0.66860-0.23715 0.09132 0.76222-0.88770
   2  -1  -3 75949.2 885.703  11 0.14810-0.03541-0.77180 0.62593 0.63512-0.76059
   2  -1  -2 654875. 3087.39   9 0.68167-0.55445-0.10461-0.04120 0.87776-0.94772
  -2  -1   2 661572. 2909.40   5 0.25993-0.38722 0.28360-0.42944 0.95903-0.88923
  -2  -1   2 646285. 2776.96  11 0.43509-0.56251 0.10895-0.25477 0.97687-0.90711
  -2  -1   1 102296. 994.732   2-0.27620 0.13453-0.22640 0.08091-0.97394 0.98828
  -2  -1   1 100708. 1119.79   5 0.03007-0.17198 0.18012-0.32599 0.95650-0.94221
   2  -1  -1 102888. 907.600  11 0.40627-0.26432-0.09036-0.05545 0.98411-0.99849
   2  -1  -1 104764. 876.665   3 0.75844-0.61677 0.39613-0.54169 0.69935-0.71349
  -2  -1   1 101109. 1076.06  11 0.38429-0.52634-0.19455 0.04869 0.97170-0.95749
   2  -1  -1 99443.0 1164.35   9 0.52872-0.38690 0.05150-0.19729 0.95644-0.97087
  -2  -1   0 9725.97 346.580  11 0.29804-0.45472-0.47719 0.33130 0.87573-0.91706
  -2  -1   0 10136.5 331.156   2 0.04342-0.19969-0.20329 0.05776-0.93248 0.89128
   2  -1   0 10699.7 261.784   3 0.47897-0.32265 0.35751-0.50310 0.89954-0.85814
   2  -1   0 9964.62 376.264   9 0.33903-0.18261 0.20695-0.35272 0.97465-0.93357
  -2  -1   0 10015.9 244.790   9 0.39894-0.55555-0.58503 0.43905-0.57631 0.53513
   2  -1   0 9834.12 304.548  11 0.44629-0.28972 0.32237-0.46813 0.92308-0.88192
   2  -1   1 91270.0 1029.47  11 0.42799-0.25680 0.57558-0.72131 0.78532-0.68861
  -2  -1  -1 88614.4 1119.83  11 0.20388-0.37519-0.68108 0.53517 0.73172-0.82859
  -2  -1  -1 94431.1 941.969   9 0.54650-0.71770-0.61603 0.47004-0.40344 0.30674
  -2  -1  -1 92233.9 1072.48   2 0.28558-0.45646-0.17123 0.02567-0.83483 0.73809
   2  -1   1 93575.5 788.826  10 0.49238-0.32115 0.61938-0.76525 0.71952-0.62289
  -2  -1  -2 172884. 1514.76   9 0.59848-0.78428-0.62116 0.47514-0.33049 0.17826
  -2  -1  -2 171072. 1680.96  11 0.12162-0.30755-0.80860 0.66265 0.58691-0.73933
   2  -1   2 171090. 1318.22  10 0.51597-0.33015 0.74164-0.88750 0.54924-0.39707
  -2  -1  -2 173665. 1353.52   8 0.08298-0.26872 0.34899-0.49498-0.87834 0.72597
  -2  -1  -3 53786.7 956.081   9 0.61927-0.81966-0.62211 0.47607-0.29902 0.09127
  -2  -1  -3 52229.2 1013.33  11 0.05532-0.25588-0.88489 0.73891 0.46029-0.66825
  -2  -1  -3 53816.9 824.116   8 0.28843-0.48881 0.30440-0.45043-0.79950 0.59162
   2  -1   3 54794.1 865.786  10 0.51837-0.31795 0.78554-0.93137 0.46231-0.25461
  -2  -1  -4 19831.0 554.064   8 0.41963-0.63465 0.26667-0.41273-0.72617 0.46277
  -2  -1  -4 19451.9 641.324   9 0.62633-0.84131-0.62227 0.47622-0.28801 0.02473
   2  -1   4 20138.7 589.290  10 0.51763-0.30262 0.80403-0.94984 0.41826-0.15502
   2  -1   4 19455.9 627.176   1 0.43915-0.22428-0.65237 0.50661-0.48229 0.74528
  -2  -1  -5 60344.1 476.966   7 0.66864-0.89854-0.33179 0.18577-0.46540 0.14632
  -2  -1  -5 61768.1 1248.42   9 0.62604-0.85562-0.62226 0.47619-0.28846-0.03034
   2  -1   5 60090.2 1169.82   1 0.55079-0.32135-0.63404 0.48832-0.38096 0.69947
  -2  -1  -5 62102.4 1070.18   8 0.50069-0.73035 0.23914-0.38523-0.67038 0.35146
   2  -1   5 61763.9 1134.82  10 0.51686-0.28726 0.81197-0.95777 0.39742-0.07864
  -2  -1  -6 47747.0 1185.43   9 0.62126-0.86542-0.62216 0.47607-0.29594-0.07838
  -2  -1  -6 45434.3 988.800   8 0.55041-0.79470 0.22040-0.36653-0.63157 0.25713
   2  -1   6 45429.5 1061.09  10 0.51654-0.27234 0.81459-0.96037 0.39024-0.01592
  -2  -1  -6 47455.8 551.201   7 0.67640-0.92094-0.39145 0.24540-0.42319 0.04857
  -2  -1  -7 36249.3 567.019   7 0.67711-0.93629-0.39873 0.25266-0.41778-0.01239
  -2  -1  -7 33290.3 1065.78   9 0.61341-0.87217-0.62191 0.47580-0.30804-0.12181
   2  -1   7 34770.7 1001.26  10 0.51660-0.25782 0.81406-0.95982 0.39170 0.03815
  -2  -1  -7 34382.6 929.940   8 0.58032-0.83925 0.20836-0.35453-0.60632 0.17637
   2  -1   8 14419.6 683.426   1 0.75953-0.48641-0.55264 0.40704-0.13424 0.61930
   2  -1   8 14349.5 693.518  10 0.51693-0.24355 0.81140-0.95714 0.39896 0.08643
  -2  -1  -8 14459.6 650.125   8 0.59723-0.87080 0.20129-0.34749-0.59138 0.10591
  -2  -1  -8 13702.5 732.860   9 0.60330-0.87665-0.62144 0.47531-0.32333-0.16205
  -2  -1  -9 20430.3 951.089   9 0.59139-0.87933-0.62068 0.47454-0.34091-0.19999
   2  -1   9 20357.9 886.180  10 0.51736-0.22939 0.80714-0.95285 0.41026 0.13066
  -2  -1  -9 20053.3 815.900   8 0.60516-0.89337 0.19790-0.34413-0.58419 0.04320
   2  -1   9 21447.6 885.723   1 0.80315-0.51547-0.52302 0.37746-0.06737 0.60794
  -2  -1 -10 11605.1 658.774   8 0.60659-0.90943 0.19728-0.34355-0.58288-0.01362
   2  -1  10 11727.0 716.976  10 0.51781-0.21525 0.80155-0.94724 0.42451 0.17195
  -2  -1 -10 11309.4 744.549   9 0.57797-0.88051-0.61958 0.47341-0.36019-0.23623
   2  -1  10 11856.2 695.776   1 0.83870-0.53645-0.49322 0.34770-0.00599 0.60208
   2  -1  11 21181.6 1013.47  10 0.51816-0.20101 0.79479-0.94047 0.44097 0.21103
  -2  -1 -11 21271.5 947.613   8 0.60306-0.92054 0.19880-0.34510-0.58610-0.06591
   2  -1  11 22631.9 1008.70   1 0.86785-0.55104-0.46337 0.31789 0.05092 0.60068
  -2  -1 -11 20608.3 1058.04   9 0.56324-0.88037-0.61808 0.47190-0.38077-0.27117
  -2  -1 -12 6785.47 646.516   9 0.54731-0.87903-0.61614 0.46994-0.40237-0.30510
  -2  -1 -12 6379.41 547.776   8 0.59559-0.92771 0.20198-0.34832-0.59285-0.11468
   2  -1  12 6478.77 599.825  10 0.51836-0.18661 0.78696-0.93262 0.45911 0.24843
  -2  -1 -13 9227.83 703.312   8 0.58483-0.93159 0.20650-0.35287-0.60239-0.16066
  -2  -1 -13 9017.48 771.920   9 0.53026-0.87657-0.61372 0.46751-0.42476-0.33823
   2  -1  13 9150.08 744.532  10 0.51832-0.17198 0.77810-0.92374 0.47857 0.28450
  -2  -1 -14 3627.55 457.766   8 0.57123-0.93263 0.21209-0.35850-0.61416-0.20440
  -2  -1 -14 4093.21 550.475   9 0.51213-0.87304-0.61078 0.46455-0.44781-0.37071
   2  -1  14 3596.32 500.134  10 0.51801-0.15708 0.76823-0.91384 0.49909 0.31952
  -2  -1 -15 6739.54 737.254   9 0.49295-0.86845-0.60728 0.46103-0.47138-0.40266
   2  -1  15 7059.09 725.218  10 0.51737-0.14184 0.75734-0.90293 0.52045 0.35369
  -2  -1 -15 7445.16 684.096   8 0.55506-0.93110 0.21857-0.36501-0.62773-0.24635
  -2  -1 -16 5.92054 153.195   9 0.47273-0.86282-0.60319 0.45692-0.49539-0.43417
   2  -1  16 213.507 171.791  10 0.51635-0.12624 0.74542-0.89099 0.54252 0.38717
  -2  -1 -17 2216.60 485.578   9 0.45145-0.85613-0.59845 0.45216-0.51977-0.46532
   2  -1  17 2599.54 473.031  10 0.51492-0.11021 0.73243-0.87798 0.56516 0.42006
   2   0 -19 114.729 131.283   9 0.53502-0.65578-0.61443 0.61419-0.41858-0.59524
   2   0 -18 297.446 211.889   9 0.56171-0.66787-0.61791 0.61768-0.38287-0.57542
  -2   0  18-33.8409 138.060  10 0.51582-0.40975 0.74021-0.73981 0.55175 0.40676
   2   0 -17 3335.18 513.703   9 0.58763-0.67920-0.62040 0.62019-0.34636-0.55641
  -2   0  17 3819.51 551.609  10 0.51699-0.42551 0.75245-0.75207 0.52965 0.37333
   2   0 -16 2973.48 455.322   9 0.61287-0.68984-0.62189 0.62170-0.30887-0.53838
  -2   0  16 3160.72 485.231  10 0.51778-0.44089 0.76366-0.76330 0.50820 0.33925
  -2   0  15-80.1128 167.817  10 0.51822-0.45593 0.77387-0.77352 0.48751 0.30439
   2   0 -15-73.0583 137.117   9 0.63750-0.69988-0.62234 0.62218-0.27020-0.52152
   2   0 -15 71.6849 106.050   7 0.67545-0.73857-0.57784 0.57759-0.26314-0.52879
  -2   0  14 6034.05 601.745  10 0.51837-0.47067 0.78307-0.78275 0.46778 0.26859
   2   0 -14 6260.17 557.219   7 0.67009-0.71857-0.61149 0.61126-0.22843-0.50796
   2   0 -14 5998.43 591.064   9 0.66161-0.70940-0.62170 0.62155-0.23008-0.50612
   2   0 -13 32768.5 1300.03   9 0.68529-0.71848-0.61985 0.61972-0.18815-0.49253
  -2   0  13 32822.1 1306.44  10 0.51828-0.48517 0.79127-0.79096 0.44924 0.23159
   2   0 -13 33400.1 1227.97   7 0.66299-0.69683-0.64367 0.64346-0.19303-0.48781
   2   0 -12 20254.0 973.448   9 0.70862-0.72722-0.61664 0.61652-0.14394-0.48122
  -2   0  12 19765.1 961.167  10 0.51799-0.49948 0.79844-0.79815 0.43219 0.19311
   2   0 -12 20542.1 920.408   7 0.65409-0.67328-0.67446 0.67429-0.15679-0.46851
   2   0 -11 2035.72 287.394   7 0.64327-0.64782-0.70398 0.70383-0.11949-0.45025
  -2   0  11 2392.72 328.237  10 0.51759-0.51367 0.80450-0.80424 0.41705 0.15271
   2   0 -11 1631.02 272.484   9 0.73168-0.73569-0.61181 0.61172-0.09680-0.47283
  -2   0  10 8905.33 578.123  10 0.51715-0.52782 0.80935-0.80911 0.40443 0.10979
   2   0 -10 7562.76 507.949   7 0.63035-0.62026-0.73227 0.73215-0.08089-0.43331
   2   0 -10 7974.89 548.981   9 0.75456-0.74398-0.60501 0.60493-0.04585-0.46826
   2   0  -9 41760.3 1160.91   9 0.77729-0.75212-0.59563 0.59557 0.01022-0.46880
  -2   0   9 44317.0 1192.97  10 0.51676-0.54203 0.81279-0.81256 0.39520 0.06348
   2   0  -9 42455.1 1136.87   7 0.61506-0.59032-0.75938 0.75929-0.04061-0.41804
   2   0  -8 3227.35 305.910   9 0.79981-0.76004-0.58273 0.58269 0.07328-0.47633
  -2   0   8 3277.97 308.854  10 0.51656-0.55641 0.81444-0.81423 0.39066 0.01249
   2   0  -8 2867.83 284.429   7 0.59696-0.55758-0.78533 0.78526 0.00179-0.40490
   2   0  -7 26546.0 806.837   7 0.57544-0.52141-0.81006 0.81002 0.04700-0.39457
  -2   0   7 26945.3 799.613  10 0.51666-0.57111 0.81363-0.81345 0.39289-0.04528
   2   0  -7 28155.6 818.872   9 0.82178-0.76742-0.56466 0.56464 0.14621-0.49374
   2   0  -6 204784. 2022.12   9 0.84218-0.77323-0.53849 0.53848 0.23346-0.52546
  -2   0   6 204189. 2011.29  10 0.51718-0.58622 0.80902-0.80886 0.40531-0.11323
   2   0  -6 202474. 2069.22   7 0.54952-0.48085-0.83340 0.83339 0.09596-0.38798
  -2   0   6 208988. 1336.37   6-0.38394 0.31502 0.91918-0.91933-0.01808 0.31018
   2   0  -5 3661.66 246.438   9 0.85805-0.77450-0.49860 0.49861 0.34194-0.57843
   2   0  -5 3522.79 259.214   7 0.51766-0.43434-0.85495 0.85497 0.15004-0.38651
  -2   0   5 3435.23 178.072   6-0.28443 0.20092 0.95679-0.95693-0.01849 0.25504
  -2   0   5 3637.63 248.209  10 0.51803-0.60167 0.79770-0.79755 0.43399-0.19745
   2   0  -4 48299.5 870.538   7 0.47731-0.37935-0.87376 0.87380 0.21130-0.39222
  -2   0   4 52294.1 696.461   6-0.20401 0.10590 0.97821-0.97833-0.01865 0.19967
  -2   0   4 51630.7 813.887  10 0.51818-0.61640 0.77248-0.77235 0.49040-0.30939
   2   0  -4 51236.3 813.991   9 0.86099-0.76285-0.43370 0.43373 0.48168-0.66264
  -2   0   3 1713.22 129.336   6-0.14304 0.03033 0.98946-0.98957-0.01868 0.14416
  -2   0   3 1974.49 138.879  10 0.51217-0.62499 0.71270-0.71260 0.59714-0.47168
   2   0  -3 1707.77 135.804   9 0.82733-0.71460-0.32113 0.32118 0.66168-0.78712
  -2   0   3 1809.36 139.195   4 0.73482-0.84754 0.23636-0.23635 0.80649-0.68120
   2   0  -2 330321. 1653.23   9 0.70006-0.57274-0.12641 0.12648 0.86199-0.93190
  -2   0   2 339082. 1470.51  10 0.47201-0.59942 0.54831-0.54822 0.79024-0.72031
  -2   0   2 333795. 1688.44   4 0.52236-0.64965 0.40507-0.40508 0.86134-0.79151
   2   0  -1 2248.89 135.049   9 0.41938-0.27747 0.14495-0.14487 0.97495-0.98934
   2   0   0 681467. 1811.46  10 0.07830 0.07830 0.51286-0.51290-0.80405 0.84519
  -2   0   0 652268. 2395.08   5-0.07823-0.07823 0.12755-0.12762 0.93334-0.97451
  -2   0  -1 107983. 1098.92   8 0.19552-0.36658 0.32662-0.32670-0.84027 0.74350
  -2   0  -1 113504. 819.699   7 0.14505-0.31623 0.62912-0.62930-0.69837 0.60156
   2   0   1 106657. 875.658  10 0.27850-0.10732 0.75790-0.75792-0.49560 0.59229
  -2   0  -1 107784. 996.436   6-0.09608-0.07502 0.99531-0.99535-0.01866-0.07801
  -2   0  -1 107897. 1031.31   5-0.38296 0.21190-0.03399 0.03389 0.78981-0.88650
   2   0   2 330501. 1846.18  10 0.36307-0.17729 0.83405-0.83406-0.30481 0.45703
  -2   0  -2 328314. 2085.49   8 0.38406-0.56976 0.27769-0.27780-0.74801 0.59573
  -2   0  -3 142951. 1516.80   8 0.50197-0.70231 0.23867-0.23882-0.66943 0.46163
  -2   0  -3 151407. 1039.54   7 0.51534-0.71580 0.12374-0.12399-0.68219 0.47429
  -2   0  -3 144568. 1570.48   9 0.40072-0.60101-0.58552 0.58536-0.57447 0.36676
   2   0   3 145495. 1408.43  10 0.40631-0.20594 0.86241-0.86240-0.18385 0.39160
  -2   0  -3 145450. 1169.52   6-0.19086-0.00943 0.98099-0.98100-0.01866-0.18908
  -2   0  -4 45875.2 639.895   6-0.26801 0.05312 0.96179-0.96179-0.01853-0.24475
  -2   0  -4 46469.5 645.306   7 0.58940-0.80451-0.04324 0.04297-0.62274 0.35929
   2   0   4 43119.0 941.825   1 0.66316-0.44851-0.59991 0.59983-0.25992 0.52302
  -2   0  -4 43776.5 917.116   8 0.57406-0.78903 0.21093-0.21112-0.61173 0.34842
  -2   0  -4 43627.7 958.604   9 0.44833-0.66321-0.59772 0.59754-0.52327 0.26004
   2   0   4 43575.6 866.280  10 0.43277-0.21780 0.87426-0.87422-0.09765 0.36095
  -2   0  -5 21922.8 698.336   8 0.61796-0.84757 0.19233-0.19254-0.57234 0.25351
  -2   0  -5 22385.4 496.730   7 0.62425-0.85400-0.14372 0.14342-0.57608 0.25708
  -2   0  -5 22407.3 438.918   6-0.36535 0.13586 0.92720-0.92718-0.01818-0.30064
  -2   0  -5 21831.1 731.864   9 0.47551-0.70499-0.60378 0.60358-0.49214 0.17338
   2   0   5 21563.4 672.824  10 0.45105-0.22149 0.87889-0.87883-0.03022 0.34905
   2   0   5 21255.1 715.361   1 0.72375-0.49454-0.57267 0.57262-0.18391 0.50252
  -2   0  -6 23695.7 820.110   9 0.49016-0.73423-0.60674 0.60653-0.47475 0.10047
  -2   0  -6 24840.3 802.410   8 0.64420-0.88845 0.18050-0.18075-0.54703 0.17269
   2   0   6 24747.0 785.652  10 0.46473-0.22058 0.87967-0.87960 0.02615 0.34821
  -2   0  -6 25043.8 578.958   7 0.64079-0.88519-0.20114 0.20082-0.54563 0.17109
  -2   0  -7 33023.2 723.827   7 0.64855-0.90759-0.23168 0.23133-0.52828 0.09819
  -2   0  -7 33350.0 995.805   8 0.65888-0.91778 0.17362-0.17391-0.53224 0.10238
   2   0   7 32809.8 975.695  10 0.47551-0.21677 0.87806-0.87796 0.07552 0.35438
  -2   0  -7 32479.0 1029.53   9 0.49660-0.75526-0.60798 0.60775-0.46696 0.03715
   2   0   7 31167.8 988.152   1 0.80850-0.55017-0.51891 0.51895-0.05858 0.48822
   2   0   8 31964.4 1053.23   1 0.83928-0.56638-0.49268 0.49276-0.00492 0.49008
  -2   0  -8 32351.0 770.321   7 0.65166-0.92534-0.24479 0.24441-0.52058 0.03493
  -2   0  -8 29981.9 1057.23   9 0.49735-0.77060-0.60812 0.60787-0.46605-0.01928
  -2   0  -8 31693.0 1033.27   8 0.66563-0.93916 0.17040-0.17072-0.52529 0.03991
   2   0   8 30142.4 1007.16  10 0.48429-0.21096 0.87473-0.87462 0.12020 0.36525
  -2   0  -9 41534.8 1255.11   8 0.66663-0.95480 0.16992-0.17028-0.52425-0.01664
  -2   0  -9 40002.8 1292.96   9 0.49393-0.78178-0.60747 0.60720-0.47020-0.07065
   2   0   9 40180.8 1249.61   1 0.86481-0.57735-0.46678 0.46690 0.04463 0.49605
   2   0   9 40620.7 1244.33  10 0.49159-0.20367 0.87005-0.86991 0.16158 0.37940
  -2   0  -9 43787.4 958.537   7 0.65193-0.94026-0.24599 0.24558-0.51987-0.02132
  -2   0 -10 1129.42 252.028   9 0.48730-0.78974-0.60618 0.60590-0.47817-0.11820
  -2   0 -10 794.185 207.119   8 0.66326-0.96607 0.17154-0.17193-0.52774-0.06866
   2   0  10 1224.09 255.794  10 0.49773-0.19521 0.86420-0.86405 0.20057 0.39595
  -2   0 -11 119.748 140.606   8 0.65642-0.97386 0.17479-0.17521-0.53476-0.11717
   2   0  11 226.366 134.104  10 0.50289-0.18577 0.85730-0.85712 0.23776 0.41429
  -2   0 -11 222.254 163.445   9 0.47811-0.79514-0.60432 0.60401-0.48909-0.16281
  -2   0 -12 1832.18 349.038   9 0.46677-0.79840-0.60190 0.60158-0.50230-0.20512
   2   0  12 1560.07 296.535  10 0.50720-0.17549 0.84939-0.84919 0.27359 0.43400
  -2   0 -12 1588.97 306.001   8 0.64669-0.97878 0.17934-0.17980-0.54455-0.16289
   2   0  13 4441.10 514.572  10 0.51075-0.16445 0.84051-0.84029 0.30834 0.45479
  -2   0 -13 4424.13 517.120   8 0.63448-0.98120 0.18494-0.18544-0.55657-0.20639
  -2   0 -13 4774.19 563.597   9 0.45358-0.79980-0.59894 0.59860-0.51736-0.24559
  -2   0 -14 2951.39 437.124   8 0.62003-0.98139 0.19141-0.19194-0.57039-0.24809
   2   0  14 3029.21 453.140  10 0.51360-0.15271 0.83065-0.83041 0.34223 0.47643
  -2   0 -14 2797.32 464.065   9 0.43875-0.79956-0.59542 0.59507-0.53390-0.28457
  -2   0 -15 1286.10 308.477   8 0.60353-0.97953 0.19860-0.19916-0.58567-0.28831
  -2   0 -15 1406.75 338.889   9 0.42241-0.79781-0.59132 0.59094-0.55165-0.32234
   2   0  15 1822.55 378.798  10 0.51577-0.14029 0.81981-0.81956 0.37544 0.49876
  -2   0 -16 1755.02 365.529   8 0.58507-0.97571 0.20640-0.20700-0.60218-0.32733
   2   0  16 1960.78 389.740  10 0.51729-0.12721 0.80797-0.80769 0.40808 0.52166
  -2   0 -16 2138.03 419.879   9 0.40465-0.79464-0.58660 0.58621-0.57040-0.35911
  -2   0 -17-262.946 217.888   9 0.38553-0.79011-0.58123 0.58082-0.58999-0.39505
  -2   0 -17 336.083 224.033   8 0.56470-0.96998 0.21472-0.21536-0.61969-0.36533
   2   0  17 231.937 185.789  10 0.51815-0.11348 0.79509-0.79479 0.44025 0.54502
  -2   0 -18 2332.48 442.511   8 0.54244-0.96235 0.22351-0.22417-0.63804-0.40249
   2   1 -19 2336.58 449.745   9 0.44745-0.56811-0.59751 0.74315-0.52424-0.48953
  -2   1  18 2003.93 411.472  10 0.51825-0.41223 0.79212-0.64586 0.44727 0.51131
   2   1 -18 1712.70 365.902   9 0.47266-0.57872-0.60317 0.74883-0.49547-0.46278
   2   1 -17 2841.62 438.363   7 0.67841-0.77067-0.41373 0.55914-0.40644-0.49651
   2   1 -17 3049.38 483.802   9 0.49688-0.58835-0.60803 0.75370-0.46661-0.43611
  -2   1  17 3158.37 497.223  10 0.51758-0.42615 0.80461-0.65837 0.41678 0.48625
   2   1 -16 2265.15 379.537   7 0.68036-0.75797-0.44503 0.59047-0.38193-0.46548
   2   1 -16 1899.13 367.059   9 0.52019-0.59707-0.61213 0.75782-0.43766-0.40954
  -2   1  16 2081.85 401.209  10 0.51633-0.43949 0.81611-0.66989 0.38602 0.46148
  -2   1  15 627.388 221.283  10 0.51450-0.45225 0.82665-0.68046 0.35491 0.43705
   2   1 -15 701.548 220.717   7 0.68121-0.74418-0.47449 0.61996-0.35775-0.43411
   2   1 -15 596.858 195.765   9 0.54263-0.60492-0.61551 0.76122-0.40858-0.38309
   2   1 -14 6599.67 597.944   9 0.56428-0.61197-0.61819 0.76392-0.37935-0.35681
   2   1 -14 6797.95 609.065   7 0.68107-0.72940-0.50221 0.64771-0.33395-0.40237
  -2   1  14 5495.33 568.981  10 0.51209-0.46444 0.83628-0.69010 0.32339 0.41303
   2   1 -13 4332.74 469.858   9 0.58517-0.61827-0.62020 0.76594-0.34991-0.33072
   2   1 -13 4186.17 464.197   7 0.68005-0.71373-0.52824 0.67376-0.31060-0.37016
  -2   1  13 4444.21 490.410  10 0.50909-0.47603 0.84500-0.69885 0.29134 0.38955
   2   1 -12 2726.82 363.968   7 0.67825-0.69729-0.55259 0.69814-0.28782-0.33740
  -2   1  12 2190.57 323.344  10 0.50548-0.48701 0.85284-0.70671 0.25863 0.36672
   2   1 -12 2629.34 343.719   9 0.60538-0.62388-0.62155 0.76731-0.32021-0.30489
   2   1 -11 19794.9 871.817   9 0.62495-0.62887-0.62224 0.76802-0.29017-0.27941
   2   1 -11 20577.5 933.279   7 0.67578-0.68018-0.57527 0.72085-0.26571-0.30397
  -2   1  11 21385.6 937.457  10 0.50120-0.49732 0.85980-0.71369 0.22505 0.34476
   2   1 -10 14193.2 692.401   9 0.64398-0.63330-0.62228 0.76808-0.25965-0.25441
  -2   1  10 13618.3 705.169  10 0.49619-0.50690 0.86587-0.71978 0.19035 0.32393
   2   1 -10 13986.3 733.948   7 0.67277-0.66252-0.59624 0.74185-0.24444-0.26969
   2   1  -9 7934.66 480.745   9 0.66255-0.63728-0.62165 0.76747-0.22847-0.23007
  -2   1   9 8881.85 311.658   6 0.05863-0.08371 0.99771-0.85205-0.01827 0.47694
   2   1  -9 7301.06 508.953   7 0.66933-0.64445-0.61542 0.76106-0.22423-0.23435
  -2   1   9 7376.64 488.159  10 0.49034-0.51564 0.87101-0.72493 0.15411 0.30463
   2   1  -8 21544.0 823.395   7 0.66565-0.62612-0.63269 0.77836-0.20537-0.19766
   2   1  -8 20501.5 712.465   9 0.68080-0.64093-0.62030 0.76614-0.19631-0.20670
  -2   1   8 21016.2 502.330   6 0.20092-0.24059 0.97700-0.83133-0.01750 0.42063
  -2   1   8 20741.0 757.883  10 0.48345-0.52335 0.87515-0.72909 0.11572 0.28748
   2   1  -7 3883.40 285.247   9 0.69896-0.64450-0.61815 0.76400-0.16262-0.18486
  -2   1   7 4429.86 326.460  10 0.47523-0.52972 0.87813-0.73209 0.07418 0.27348
   2   1  -7 4120.61 346.961   7 0.66192-0.60774-0.64783 0.79352-0.18827-0.15921
   2   1  -6 3557.74 247.604   9 0.71742-0.64837-0.61501 0.76088-0.12639-0.16557
   2   1  -6 3664.13 308.464   7 0.65841-0.58959-0.66049 0.80620-0.17355-0.11839
  -2   1   6 3203.08 254.132  10 0.46511-0.53419 0.87965-0.73364 0.02781 0.26432
   2   1  -5 18030.0 483.486   9 0.73699-0.65335-0.61043 0.75632-0.08539-0.15105
  -2   1   5 16544.7 513.527  10 0.45198-0.53566 0.87902-0.73303-0.02658 0.26317
   2   1  -5 16100.4 593.820   7 0.65550-0.57203-0.67008 0.81583-0.16210-0.07429
   2   1  -4 47207.0 949.640   7 0.65371-0.55560-0.67563 0.82140-0.15537-0.02548
  -2   1   4 46469.6 752.093  10 0.43337-0.53164 0.87447-0.72849-0.09555 0.27660
   2   1  -4 48362.0 658.070   9 0.75965-0.66141-0.60317 0.74907-0.03383-0.14709
   2   1  -3 73582.0 974.836   3 0.66789-0.55542 0.38921-0.24336 0.78806-0.91346
   2   1  -3 76380.0 635.060   9 0.79165-0.67882-0.58791 0.73384 0.04938-0.17476
  -2   1   3 74603.3 804.247  10 0.40261-0.51547 0.86037-0.71441-0.19507 0.32059
   2   1  -3 70818.1 1074.35   7 0.65381-0.54106-0.67531 0.82111-0.15576 0.03046
   2   1  -2 678821. 2839.66   3 0.46757-0.34044 0.35507-0.20925 0.90403-0.97390
   2   1  -2 666267. 1746.04   1 0.40369-0.27664-0.65556 0.80093-0.51128 0.44137
  -2   1   2 674118. 1916.83  10 0.33567-0.46312 0.81188-0.66595-0.37218 0.44216
   2   1  -1 104875. 1042.72   7 0.66443-0.52239-0.63786 0.78372-0.19960 0.18539
  -2   1   1 106070. 595.224  10 0.11694-0.25899 0.56564-0.41972-0.75664 0.77109
  -2   1   1 108584. 841.349   5 0.52827-0.67004 0.38805-0.24228 0.86785-0.85345
   2   1  -1 100646. 851.457   1 0.60273-0.46111-0.62054 0.76594-0.32777 0.31338
  -2   1   1 100904. 1183.32   7 0.17075-0.31249 0.60411-0.45851-0.70583 0.72018
  -2   1   0 9880.02 298.909   2-0.35899 0.20256-0.22863 0.37433-0.96758 0.92656
  -2   1   0 9196.82 332.969   8 0.16460-0.32098 0.33326-0.18742-0.85193 0.81078
   2   1   0 9133.40 340.346  10-0.09110 0.24766 0.25476-0.10896-0.95271 0.99391
  -2   1   0 9404.63 357.479   7 0.29159-0.44798 0.46999-0.32442-0.72683 0.68563
  -2   1   0 9703.32 353.361   4 0.32951-0.48588 0.51047-0.36479 0.85306-0.89409
   2   1   0 9690.39 271.317   7 0.67648-0.51980-0.56955 0.71544-0.27137 0.31270
   2   1   0 9503.81 312.404   1 0.69299-0.53681-0.58743 0.73287-0.22364 0.26476
  -2   1   0 10037.3 222.766   5 0.01514-0.17153 0.17302-0.02727 0.95413-0.99524
   2   1   1 89336.4 1108.96  10 0.04141 0.12973 0.46033-0.31450-0.84453 0.94127
   2   1   1 94940.0 652.188   7 0.67465-0.50333-0.37550 0.52141-0.43485 0.53174
  -2   1  -1 90910.3 1116.96   7 0.39424-0.56527 0.33088-0.18534-0.72319 0.62644
  -2   1  -1 94278.0 952.137   2-0.02885-0.14219-0.21042 0.35609-0.95054 0.85399
  -2   1  -1 89554.4 1117.57   8 0.36365-0.53467 0.28374-0.13794-0.75986 0.66319
   2   1   1 90431.0 1111.13   1 0.74647-0.57573-0.56034 0.70582-0.15285 0.24950
  -2   1  -1 95399.2 712.728   5-0.51807 0.34707-0.11336 0.25908 0.68157-0.77820
  -2   1  -2 174276. 1402.78   2 0.23052-0.41616-0.17966 0.32530-0.86224 0.71015
   2   1   2 164599. 1594.01  10 0.15082 0.03492 0.60993-0.46409-0.71071 0.86298
  -2   1  -2 170533. 1676.79   8 0.49174-0.67740 0.24235-0.09659-0.67698 0.52479
  -2   1  -2 172869. 1579.46   7 0.47296-0.65864 0.20310-0.05758-0.70240 0.55011
   2   1   2 165453. 1683.28   1 0.78394-0.59864-0.53687 0.68239-0.09780 0.24996
  -2   1  -3 53463.3 911.639   7 0.52883-0.72914 0.09645 0.04904-0.67402 0.46619
   2   1   3 51592.1 954.163  10 0.23380-0.03347 0.70986-0.56399-0.57925 0.78706
  -2   1  -3 51800.1 1009.03   8 0.57202-0.77231 0.21177-0.06604-0.61348 0.40578
   2   1   3 51070.2 1031.24   1 0.81292-0.61306-0.51542 0.66098-0.05121 0.25889
  -2   1  -3 52798.4 876.982   2 0.39862-0.59886-0.15160 0.29720-0.76801 0.56039
  -2   1  -4 19770.0 587.655   7 0.56653-0.78149 0.01342 0.13204-0.64544 0.38206
  -2   1  -4 18802.4 658.149   8 0.62221-0.83714 0.19045-0.04475-0.56833 0.30512
   2   1   4 19149.4 630.226  10 0.29529-0.08037 0.77470-0.62881-0.46146 0.72481
  -2   1  -5 60920.2 1266.35   8 0.65334-0.88292 0.17624-0.03058-0.53788 0.21914
   2   1   5 59492.0 1196.82  10 0.34127-0.11175 0.81663-0.67073-0.35890 0.67779
  -2   1  -5 61238.9 1086.79   7 0.59121-0.82082-0.04799 0.19342-0.62072 0.30179
   2   1   6 45412.0 1124.75  10 0.37639-0.13228 0.84376-0.69783-0.26969 0.64411
  -2   1  -6 46296.3 1184.75   8 0.67199-0.91620 0.16732-0.02170-0.51864 0.14439
  -2   1  -6 45884.5 994.144   7 0.60701-0.85126-0.09136 0.23676-0.60143 0.22695
  -2   1  -7 36609.1 670.704   6 0.21855-0.47717 0.97286-0.82695-0.01737-0.41256
   2   1   7 33415.7 1028.86  10 0.40387-0.14517 0.86107-0.71513-0.19127 0.62123
  -2   1  -7 34269.2 904.519   7 0.61677-0.87566-0.12024 0.26561-0.58773 0.15771
  -2   1  -7 32683.4 1056.37   8 0.68207-0.94092 0.16237-0.01678-0.50790 0.07813
  -2   1  -8 13342.4 722.252   8 0.68601-0.95950 0.16041-0.01485-0.50363 0.01835
  -2   1  -8 13769.8 603.771   7 0.62234-0.89588-0.13762 0.28297-0.57915
  0.093546296.3 1184.75   8 0.67199-0.91620 0.16732-0.02170-0.51864 0.14439
  -2   1  -6 45884.5 994.144   7 0.60701-0.85126-0.09136 0.23676-0.60143 0.22695
  -2   1  -7 36609.1 670.704   6 0.21855-0.47717 0.97286-0.82695-0.01737-0.41256
   2   1   7 33415.7 1028.86  10 0.40387-0.14517 0.86107-0.71513-0.19127 0.62123
  -2   1  -7 34269.2 904.519   7 0.61677-0.87566-0.12024 0.26561-0.58773 0.15771
  -2   1  -7 32683.4 1056.37   8 0.68207-0.94092 0.16237-0.01678-0.50790 0.07813
  -2   1  -8 13342.4 722.252   8 0.68601-0.95950 0.16041-0.01485-0.50363 0.01835
  -2   1  -8 13769.8 603.771   7 0.62234-0.89588-0.13762 0.28297-0.57915 0.09358
   2   1   8 14156.4 717.236  10 0.42584-0.15255 0.87167-0.72571-0.12137 0.60686
  -2   1  -9 20147.2 772.961   7 0.62489-0.91307-0.14580 0.29113-0.57502 0.03391
  -2   1  -9 20568.3 931.832   9 0.35875-0.64650-0.57323 0.71884-0.61641 0.07561
  -2   1  -9 20392.7 937.774   8 0.68534-0.97347 0.16074-0.01522-0.50437-0.03643
   2   1   9 21118.1 931.825  10 0.44373-0.15585 0.87746-0.73147-0.05815 0.59918
  -2   1 -10 11297.7 741.678   8 0.68104-0.98380 0.16288-0.01740-0.50901-0.08730
  -2   1 -10 12016.6 626.383   7 0.62511-0.92794-0.14652 0.29181-0.57466-0.02200
   2   1  10 11918.6 737.942  10 0.45852-0.15604 0.87965-0.73365-0.00020 0.59677
  -2   1 -10 10367.9 707.156   9 0.36234-0.66469-0.57433 0.71992-0.61293 0.01660
   2   1  11 21192.3 1038.66  10 0.47085-0.15378 0.87904-0.73302 0.05356 0.59854
  -2   1 -11 21769.4 1071.19   8 0.67377-0.99118 0.16646-0.02100-0.51676-0.13507
  -2   1 -11 23736.1 914.399   7 0.62341-0.94088-0.14103 0.28629-0.57744-0.07477
  -2   1 -11 20103.4 1022.69   9 0.36156-0.67850-0.57409 0.71967-0.61369-0.03816
  -2   1 -12 6777.14 628.303   9 0.35723-0.68876-0.57276 0.71831-0.61787-0.08950
   2   1  12 6520.21 607.834  10 0.48121-0.14954 0.87615-0.73010 0.10395 0.60369
  -2   1 -12 5392.38 568.539   8 0.66398-0.99603 0.17119-0.02577-0.52699-0.18035
  -2   1 -13 8498.65 733.821   8 0.65198-0.99866 0.17688-0.03149-0.53925-0.22361
   2   1  13 8603.65 727.863  10 0.48991-0.14365 0.87132-0.72525 0.15161 0.61156
   2   1  14 3834.97 520.921  10 0.49720-0.13635 0.86479-0.71870 0.19704 0.62168
  -2   1 -14 3526.58 506.020   8 0.63797-0.99929 0.18336-0.03801-0.55317-0.26521
  -2   1 -15 7517.61 757.974   8 0.62207-0.99803 0.19051-0.04520-0.56846-0.30543
   2   1  15 7246.42 731.003  10 0.50325-0.12781 0.85671-0.71061 0.24061 0.63364
   2   1  16 83.9913 137.910  10 0.50819-0.11815 0.84719-0.70106 0.28264 0.64715
  -2   1 -16-2.83594 129.814   8 0.60438-0.99498 0.19823-0.05296-0.58490-0.34451
  -2   1 -17 2428.40 471.044   8 0.58492-0.99016 0.20646-0.06122-0.60231-0.38262
   2   1  17 3212.86 521.998  10 0.51209-0.10747 0.83628-0.69013 0.32338 0.66194
   2   2 -18 1881.49 386.850   7 0.66096-0.76772-0.28833 0.57945-0.49386-0.46457
  -2   2  18 1690.83 379.797  10 0.51436-0.40837 0.82733-0.53523 0.35279 0.60584
   2   2 -17 374.004 217.717   7 0.66606-0.75817-0.31610 0.60724-0.47589-0.42699
  -2   2  17 346.798 206.224  10 0.51134-0.41995 0.83873-0.54664 0.31476 0.58832
   2   2 -16 1504.76 336.709   7 0.67016-0.74764-0.34173 0.63290-0.45862-0.38871
  -2   2  16 1877.58 375.004  10 0.50743-0.43064 0.84888-0.55682 0.27571 0.57184
   2   2 -15 1057.19 278.905   7 0.67341-0.73623-0.36526 0.65646-0.44218-0.34961
  -2   2  15 1275.80 302.298  10 0.50258-0.44037 0.85777-0.56573 0.23541 0.55660
   2   2 -14 11212.6 757.769   9 0.41907-0.46666-0.59045 0.88205-0.55522-0.18089
   2   2 -14 9398.10 747.986   7 0.67590-0.72408-0.38667 0.67790-0.42671-0.30953
  -2   2  14 11507.4 827.087  10 0.49669-0.44907 0.86535-0.57332 0.19361 0.54287
   2   2 -13 4921.33 479.826   9 0.43130-0.46430-0.59358 0.88520-0.54205-0.13853
  -2   2  13 5155.70 532.735  10 0.48963-0.45660 0.87152-0.57952 0.14996 0.53098
   2   2 -13 4821.83 524.168   7 0.67776-0.71130-0.40590 0.69715-0.41240-0.26830
   2   2 -12 1892.12 279.946   9 0.44082-0.45923-0.59593 0.88757-0.53161-0.09345
  -2   2  12 1810.49 319.280  10 0.48122-0.46279 0.87614-0.58416 0.10403 0.52138
   2   2 -12 2063.72 344.777   7 0.67908-0.69798-0.42282 0.71410-0.39944-0.22571
   2   2 -11 1415.04 235.783   9 0.44699-0.45080-0.59740 0.88906-0.52476-0.04477
  -2   2  11 1394.54 262.997  10 0.47122-0.46738 0.87898-0.58702 0.05523 0.51463
   2   2 -11 1240.78 258.208   7 0.67997-0.68422-0.43727 0.72858-0.38811-0.18149
   2   2 -10 4847.00 474.065   7 0.68053-0.67014-0.44900 0.74033-0.37874-0.13532
   2   2 -10 5240.54 408.372   9 0.44876-0.43798-0.59782 0.88950-0.52278 0.00877
  -2   2  10 4946.12 447.340  10 0.45924-0.47000 0.87969-0.58774 0.00280 0.51153
   2   2  -9 138646. 1929.58   9 0.44445-0.41907-0.59680 0.88849-0.52760 0.06911
   2   2  -9 133470. 2325.49   7 0.68084-0.65581-0.45763 0.74899-0.37172-0.08679
  -2   2   9 133129. 2137.31  10 0.44476-0.47011 0.87769-0.58577-0.05433 0.51312
  -2   2   8 26399.1 894.734  10 0.42696-0.46690 0.87212-0.58021-0.11761 0.52086
   2   2  -8 28529.9 802.499   9 0.43110-0.39114-0.59353 0.88524-0.54226 0.13930
   2   2  -8 27246.5 1011.49   7 0.68098-0.64131-0.46266 0.75405-0.36759-0.03537
   2   2  -7 22183.9 639.625   9 0.40325-0.34869-0.58622 0.87795-0.57185 0.22442
  -2   2   7 21184.8 749.793  10 0.40460-0.45913 0.86148-0.56959-0.18907 0.53679
   2   2  -7 20490.4 839.925   7 0.68100-0.62668-0.46335 0.75477-0.36702 0.01961
  -2   2   6 62812.7 1193.34  10 0.37570-0.44483 0.84327-0.55141-0.27155 0.56373
   2   2  -6 62473.5 1382.81   7 0.68087-0.61191-0.45866 0.75011-0.37088 0.07901
   2   2  -5 122749. 1834.33   7 0.68045-0.59684-0.44706 0.73853-0.38030 0.14398
  -2   2   5 121467. 1525.94  10 0.33709-0.42081 0.81310-0.52126-0.36882 0.60547
  -2   2   4 12221.5 562.750   4 0.83240-0.93050 0.12463 0.16682 0.73967-0.55884
   2   2  -4 13075.5 455.685   3 0.73824-0.64037 0.39526-0.10370 0.72202-0.90306
   2   2  -4 11960.5 547.086   7 0.67931-0.58106-0.42627 0.71777-0.39676 0.21599
  -2   2   4 12472.6 453.165  10 0.28365-0.38196 0.76313-0.47130-0.48530 0.66641
  -2   2   3 64190.8 1216.21   4 0.78197-0.89463 0.18655 0.10487 0.77929-0.65392
   2   2  -3 63045.0 1161.93   7 0.67654-0.56364-0.39284 0.68437-0.42216 0.29693
  -2   2   3 64006.7 940.630  10 0.20769-0.32059 0.67982-0.38801-0.62372 0.74929
  -2   2   3 62567.2 1172.91   7 0.10878-0.22109 0.66248-0.37110-0.68618 0.81170
   2   2  -3 62463.6 963.718   3 0.58916-0.47662 0.37824-0.08671 0.84406-0.96957
  -2   2   2 22209.2 520.280  10 0.10048-0.22797 0.54344-0.25165-0.77748 0.84751
  -2   2   2 21720.8 677.817   4 0.70833-0.83556 0.26176 0.02965 0.81865-0.74873
   2   2  -2 21258.1 638.543   7 0.67013-0.54259-0.34148 0.63304-0.45879 0.38911
  -2   2   2 22565.5 696.389   7 0.20112-0.32808 0.57303-0.28168-0.71335 0.78332
   2   2  -2 21989.8 567.560   3 0.39100-0.26380 0.33745-0.04597 0.92893-0.99891
  -2   2   1 78950.8 949.960  10-0.03871-0.10338 0.33919-0.04743-0.91692 0.93142
  -2   2   1 78201.0 996.792   8 0.00957-0.15127 0.36101-0.06926-0.89679 0.91124
  -2   2   1 76989.4 1277.87   7 0.28585-0.42745 0.47702-0.18570-0.72640 0.74082
   2   2  -1 77059.8 1123.04   7 0.65595-0.51377-0.26399 0.55557-0.50901 0.49488
  -2   2   1 77950.0 1226.26   4 0.60477-0.74656 0.34794-0.05654 0.85017-0.83571
   2   2   0 2436.34 189.521   7 0.62559-0.46876-0.14807 0.43968-0.57387 0.61528
  -2   2   0 2429.07 236.781   7 0.35965-0.51589 0.38076-0.08947-0.72698 0.68586
  -2   2   0 2422.41 192.293   8 0.23998-0.39632 0.31643-0.02472-0.82185 0.78079
   2   2   0 2282.89 226.876  10-0.09931 0.25582 0.24115 0.05050-0.95747 0.99872
  -2   2   0 2336.16 214.518   4 0.46763-0.62397 0.43863-0.14725 0.86342-0.90441
  -2   2  -1 54646.3 963.692   8 0.39793-0.56892 0.27346 0.01821-0.73967 0.64309
   2   2   1 56926.6 1105.92  10-0.01325 0.18435 0.37872-0.08705-0.89622 0.99300
  -2   2  -1 58459.1 1014.75   4 0.30054-0.47144 0.52346-0.23210 0.84838-0.94482
   2   2   1 55943.2 815.308   7 0.56260-0.39113 0.02261 0.26903-0.64888 0.74584
  -2   2  -1 57538.6 1128.69   7 0.42095-0.59183 0.28994 0.00133-0.71819 0.62152
   2   2   2 44954.1 1018.56  10 0.06818 0.11752 0.49866-0.20696-0.81561 0.96793
   2   2   2 46221.3 678.793   7 0.43880-0.25269 0.26126 0.03041-0.71374 0.86624
  -2   2  -2 44552.7 1020.36   7 0.46984-0.65537 0.20860 0.08264-0.70360 0.55139
  -2   2  -2 43909.3 953.348   8 0.50179-0.68741 0.23874 0.05290-0.66956 0.51747
  -2   2  -2 47129.0 670.088   2-0.13837-0.04736-0.21914 0.51039-0.96838 0.81638
  -2   2  -3 9880.55 343.798   2 0.12269-0.32302-0.19420 0.48541-0.90692 0.69938
  -2   2  -3 10033.9 500.376   7 0.50761-0.70779 0.13890 0.15232-0.68646 0.47870
  -2   2  -3 9310.88 470.294   8 0.56960-0.76986 0.21275 0.07886-0.61554 0.40793
   2   2   3 9842.41 494.989  10 0.14092 0.05937 0.59718-0.30547-0.72457 0.93243
   2   2   3 9550.31 284.139   7 0.22251-0.02175 0.55012-0.25843-0.71778 0.92583
  -2   2  -4 10783.7 403.831   2 0.29657-0.51150-0.16946 0.46064-0.82897 0.56590
  -2   2  -4 11646.4 564.940   8 0.61387-0.82877 0.19412 0.09745-0.57616 0.31303
   2   2   4 10410.5 532.119  10 0.20348 0.01140 0.67485-0.38312-0.63061 0.89400
  -2   2  -4 10777.2 536.892   7 0.53605-0.75087 0.08136 0.20983-0.66924 0.40594
  -2   2  -5 32149.9 999.983   8 0.64249-0.87202 0.18128 0.11026-0.54872 0.23008
  -2   2  -5 35083.7 790.966   2 0.40635-0.63588-0.15014 0.44129-0.76289 0.44429
  -2   2  -5 34915.0 994.017   7 0.55700-0.78646 0.03547 0.25569-0.65357 0.33472
   2   2   5 35595.0 1032.98  10 0.25619-0.02671 0.73448-0.44273-0.53861 0.85755
  -2   2  -6 9160.84 533.811   7 0.57208-0.81618 0.00017 0.29096-0.64037 0.26596
  -2   2  -6 9166.67 570.387   8 0.66036-0.90454 0.17292 0.11859-0.53072 0.15656
   2   2   6 9377.83 564.323  10 0.30021-0.05614 0.77948-0.48771-0.45114 0.82561
  -2   2  -7 11755.8 624.038   7 0.58259-0.84134-0.02577 0.31687-0.63002 0.20007
  -2   2  -7 11339.2 666.047   8 0.67058-0.92939 0.16801 0.12346-0.52012 0.09044
   2   2   7 11907.3 665.278  10 0.33695-0.07829 0.81298-0.52118-0.36916 0.79917
  -2   2  -8 55445.6 1402.40   7 0.58953-0.86292-0.04357 0.33465-0.62260 0.13710
  -2   2  -8 53847.1 1531.71   8 0.67512-0.94857 0.16580 0.12564-0.51533 0.03014
   2   2   8 53855.7 1484.47  10 0.36772-0.09447 0.83752-0.54571-0.29275 0.77830
   2   2   9 10841.3 707.280  10 0.39362-0.10578 0.85508-0.56325-0.22155 0.76264
  -2   2  -9 11167.5 740.019   8 0.67528-0.96336 0.16572 0.12568-0.51516-0.02554
  -2   2  -9 12237.8 687.642   7 0.59361-0.88164-0.05433 0.34537-0.61800 0.07696
  -2   2 -10 1596.03 303.867   8 0.67193-0.97466 0.16735 0.12401-0.51870-0.07753
  -2   2 -10 1418.08 257.718   7 0.59533-0.89801-0.05895 0.34997-0.61599 0.01940
   2   2  10 1207.24 252.778  10 0.41555-0.11312 0.86713-0.57527-0.15502 0.75164
  -2   2 -11 1058.00 271.117   8 0.66569-0.98306 0.17037 0.12096-0.52523-0.12652
   2   2  11 944.680 263.753  10 0.43422-0.11719 0.87475-0.58287-0.09259 0.74475
  -2   2 -11 651.678 181.760   7 0.59505-0.91237-0.05819 0.34919-0.61632-0.03582
  -2   2 -12 857.923 259.057   8 0.65696-0.98896 0.17453 0.11676-0.53421-0.17305
  -2   2 -12 397.981 147.568   7 0.59298-0.92495-0.05266 0.34363-0.61872-0.08897
   2   2  12 847.959 243.554  10 0.45016-0.11854 0.87874-0.58685-0.03371 0.74140
  -2   2 -13 404.252 200.522   8 0.64603-0.99267 0.17965 0.11161-0.54522-0.21756
  -2   2 -13 575.017 210.948   7 0.58924-0.93585-0.04283 0.33377-0.62292-0.14031
   2   2  13 518.577 183.261  10 0.46380-0.11758 0.87971-0.58779 0.02211 0.74112
   2   2  14 4704.33 582.803  10 0.47546-0.11466 0.87807-0.58613 0.07530 0.74347
  -2   2 -14 4644.57 601.282   8 0.63309-0.99437 0.18557 0.10565-0.55791-0.26038
   2   2  15 510.801 221.230  10 0.48541-0.11001 0.87415-0.58219 0.12622 0.74809
  -2   2 -15 916.238 292.655   8 0.61829-0.99421 0.19218 0.09901-0.57203-0.30178
  -2   2 -16 807.794 294.392   8 0.60170-0.99226 0.19938 0.09177-0.58734-0.34199
   2   2  16 1018.20 322.943  10 0.49382-0.10383 0.86817-0.57619 0.17519 0.75465
   2   3 -17 2163.12 435.813   7 0.64446-0.73643-0.21524 0.65210-0.53773-0.36508
  -2   3  17 2406.56 441.074  10 0.50197-0.41062 0.85869-0.42076 0.23078 0.67236
  -2   3  16 96.4989 123.422  10 0.49543-0.41867 0.86664-0.42872 0.18542 0.66218
   2   3 -16 480.295 224.215   7 0.64955-0.72687-0.23581 0.67271-0.52587-0.32139
   2   3 -15 2981.57 480.061   7 0.65376-0.71644-0.25402 0.69094-0.51506-0.27666
  -2   3  15 3305.80 494.608  10 0.48760-0.42544 0.87287-0.43497 0.13839 0.65368
   2   3 -14 1250.03 309.682   7 0.65719-0.70523-0.26978 0.70674-0.50546-0.23071
  -2   3  14 1850.15 354.610  10 0.47833-0.43076 0.87722-0.43934 0.08936 0.64716
  -2   3  13 1558.07 319.980  10 0.46741-0.43443 0.87948-0.44163 0.03798 0.64301
   2   3 -13 1182.10 298.029   7 0.65990-0.69330-0.28298 0.71996-0.49724-0.18338
   2   3 -12 2267.38 376.479   7 0.66194-0.68069-0.29340 0.73041-0.49063-0.13444
  -2   3  12 2510.37 374.146  10 0.45459-0.43620 0.87934-0.44151-0.01621 0.64167
   2   3 -11 15443.6 927.162   7 0.66333-0.66744-0.30081 0.73784-0.48588-0.08365
  -2   3  11 15337.2 863.157  10 0.43949-0.43569 0.87636-0.43854-0.07376 0.64368
  -2   3  10 4633.05 461.455  10 0.42165-0.43244 0.86991-0.43212-0.13530 0.64968
   2   3 -10 4275.19 482.687   7 0.66407-0.65354-0.30485 0.74191-0.48326-0.03072
  -2   3   9 2051.10 293.324  10 0.40042-0.42581 0.85913-0.42135-0.20161 0.66045
   2   3  -9 2328.98 352.563   7 0.66411-0.63893-0.30507 0.74216-0.48312 0.02468
   2   3  -8 43552.3 1396.05   7 0.66335-0.62352-0.30088 0.73800-0.48583 0.08294
  -2   3   8 43764.2 1244.32  10 0.37496-0.41494 0.84275-0.40500-0.27354 0.67685
   2   3  -7 27495.4 1064.64   7 0.66158-0.60711-0.29152 0.72867-0.49183 0.14449
  -2   3   7 27030.8 925.693  10 0.34415-0.39872 0.81903-0.38130-0.35199 0.69976
  -2   3   6 2686.88 285.370  10 0.30653-0.37570 0.78553-0.34782-0.43767 0.72990
   2   3  -6 2463.56 316.718   7 0.65848-0.58937-0.27599 0.71316-0.50161 0.20982
  -2   3   5 6136.20 475.148   4 0.82687-0.91038 0.13198 0.30519 0.74469-0.50838
  -2   3   5 5773.96 387.310  10 0.26037-0.34413 0.73896-0.30127-0.53075 0.76744
   2   3  -5 5768.81 452.716   7 0.65352-0.56977-0.25297 0.69017-0.51569 0.27944
  -2   3   5 5836.62 435.540   7 0.02508-0.10796 0.73110-0.29394-0.65093 0.88761
   2   3  -4 14309.8 494.788   3 0.72743-0.62949 0.39462 0.04261 0.73339-0.91453
   2   3  -4 12889.3 647.961   7 0.64587-0.54747-0.22079 0.65801-0.53457 0.35386
  -2   3   4 13649.1 564.073  10 0.20382-0.30218 0.67526-0.23758-0.63005 0.81121
  -2   3   4 13050.5 632.279   7 0.10370-0.20122 0.66698-0.22984-0.68432 0.86546
  -2   3   4 13662.5 677.405   4 0.79286-0.89093 0.17406 0.26309 0.77180-0.59094
  -2   3   3 41522.1 945.709  10 0.13553-0.24848 0.59018-0.15252-0.73196 0.85758
   2   3  -3 41771.1 842.657   3 0.58301-0.47042 0.37723 0.05996 0.84779-0.97340
  -2   3   3 40125.1 1104.23   4 0.74622-0.85885 0.22489 0.21224 0.80062-0.67521
   2   3  -3 37944.5 1059.64   7 0.63423-0.52118-0.17730 0.61455-0.55862 0.43346
  -2   3   3 37760.0 1065.69   7 0.17852-0.29069 0.59632-0.15921-0.70789 0.83348
   2   3  -2 38355.3 1018.72   7 0.61664-0.48895-0.11984 0.55713-0.58792 0.51831
   2   3  -2 41249.3 844.871   3 0.40437-0.27711 0.34068 0.09648 0.92521-0.99529
   2   3  -2 42737.8 683.840   4 0.81082-0.68344 0.15245 0.28467 0.75824-0.82796
  -2   3   2 39405.5 1090.74   7 0.24751-0.37432 0.52223-0.08515-0.72200 0.79205
  -2   3   2 39273.7 896.345  10 0.05577-0.18331 0.48102-0.04339-0.82932 0.89940
  -2   3   2 37186.8 1014.98   4 0.68321-0.81040 0.28445 0.15267 0.82846-0.75850
  -2   3   1 44356.1 806.821   8 0.00701-0.14868 0.36139 0.07623-0.89734 0.91189
  -2   3   1 42664.7 1145.60   7 0.30920-0.45065 0.44795-0.01089-0.72776 0.74226
  -2   3   1 42938.3 924.275  10-0.03221-0.10992 0.34937 0.08824-0.91184 0.92639
   2   3  -1 44742.9 1160.92  10-0.14050 0.28238 0.17122 0.26627-0.97775 0.96352
   2   3  -1 42920.5 1028.41   7 0.59019-0.44786-0.04530 0.48261-0.62187 0.60781
  -2   3   1 41360.8 1040.87   4 0.59995-0.74170 0.35153 0.08558 0.85112-0.83662
  -2   3   0 5487.81 312.242   8 0.21274-0.36905 0.32277 0.11482-0.83336 0.79239
  -2   3   0 4558.53 385.212   7 0.36280-0.51889 0.37636 0.06067-0.72675 0.68570
  -2   3   0 5332.53 330.061  10-0.12184-0.03488 0.20323 0.23436-0.96932 0.92833
   2   3   0 5828.06 364.491   7 0.55072-0.39374 0.04959 0.38775-0.65858 0.70006
   2   3   0 5138.13 399.239  10-0.07880 0.23528 0.27496 0.16255-0.94514 0.98645
  -2   3   0 5391.80 365.195   4 0.49358-0.64989 0.42312 0.01397 0.86292-0.90387
  -2   3  -1 12924.6 649.923   7 0.40819-0.57893 0.30977 0.12723-0.72081 0.62422
   2   3   1 13933.4 656.997  10-0.01560 0.18667 0.37511 0.06241-0.89822 0.99506
  -2   3  -1 13550.5 530.804   8 0.35628-0.52722 0.28587 0.15168-0.76402 0.66753
   2   3   1 12943.1 516.527   7 0.49264-0.32102 0.16735 0.27002-0.69396 0.79099
  -2   3  -1 12914.0 549.564   4 0.36382-0.53469 0.49419-0.05711 0.85754-0.95395
   2   3   2 26529.7 711.421   7 0.40937-0.22311 0.30797 0.12943-0.72059 0.87317
   2   3   2 24455.8 896.465  10 0.04652 0.13914 0.46772-0.03018-0.83920 0.99158
  -2   3  -2 25124.8 777.929   8 0.45452-0.64010 0.25525 0.18227-0.70323 0.55122
  -2   3  -2 25529.7 928.969   7 0.44578-0.63116 0.24975 0.18722-0.71174 0.55959
  -2   3  -3 35164.7 985.122   8 0.52168-0.72190 0.23141 0.20607-0.65445 0.44693
   2   3   3 35172.6 1084.82  10 0.10543 0.09482 0.55017-0.11260-0.77130 0.97922
  -2   3  -3 34876.3 1102.58   7 0.47629-0.67632 0.19717 0.23977-0.70108 0.49339
   2   3   3 36476.4 799.718   7 0.29492-0.09401 0.46588-0.02845-0.72705 0.93517
  -2   3  -4 862.849 178.131   8 0.56762-0.78248 0.21355 0.22390-0.61722 0.35419
  -2   3  -4 806.526 198.572   7 0.50063-0.71530 0.15232 0.28460-0.69008 0.42685
   2   3   4 1038.28 130.694   7 0.14746 0.06809 0.62682-0.18937-0.69911 0.96278
   2   3   4 728.764 190.017  10 0.15974 0.05510 0.62128-0.18369-0.69790 0.96135
  -2   3  -5 6699.83 492.940   8 0.59883-0.82833 0.20061 0.23681-0.58993 0.27138
   2   3   5 6741.40 513.340  10 0.20876 0.02067 0.68108-0.24347-0.62195 0.94094
  -2   3  -5 7363.86 536.366   7 0.51969-0.74900 0.11506 0.32183-0.67966 0.36088
  -2   3  -6 25877.1 1014.62   8 0.61954-0.86368 0.19163 0.24575-0.57085 0.19678
   2   3   6 25392.0 1022.97  10 0.25237-0.00835 0.73036-0.29274-0.54571 0.92024
  -2   3  -6 27867.4 1063.24   7 0.53432-0.77827 0.08501 0.35184-0.67042 0.29609
   2   3   7 10628.8 690.590  10 0.29082-0.03220 0.77029-0.33265-0.47071 0.90077
  -2   3  -7 10092.3 671.801   8 0.63253-0.89130 0.18583 0.25152-0.55846 0.12888
  -2   3  -7 10383.7 673.633   7 0.54523-0.80383 0.06167 0.37516-0.66273 0.23285
   2   3   8 9787.70 687.457  10 0.32454-0.05133 0.80213-0.36446-0.39788 0.88348
  -2   3  -8 8802.09 662.183   8 0.63965-0.91306 0.18259 0.25472-0.55152 0.06642
  -2   3  -8 9569.52 666.787   7 0.55302-0.82626 0.04445 0.39235-0.65678 0.17135
  -2   3  -9 1912.40 317.381   7 0.55817-0.84605 0.03281 0.40396-0.65262 0.11165
  -2   3  -9 2018.62 338.304   8 0.64217-0.93022 0.18143 0.25585-0.54903 0.00842
   2   3   9 1718.28 312.701  10 0.35404-0.06624 0.82706-0.38937-0.32770 0.86883
  -2   3 -10 12623.3 812.582   7 0.56103-0.86356 0.02623 0.41052-0.65021 0.05370
  -2   3 -10 13800.1 905.888   8 0.64099-0.94368 0.18197 0.25527-0.55020-0.04593
   2   3  10 14236.4 902.515  10 0.37983-0.07744 0.84613-0.40843-0.26033 0.85701
   2   3  11 929.565 273.917  10 0.40237-0.08538 0.86024-0.42251-0.19578 0.84799
  -2   3 -11 753.210 250.488   8 0.63670-0.95403 0.18393 0.25328-0.55440-0.09725
  -2   3 -11 747.491 220.799   7 0.56189-0.87906 0.02426 0.41246-0.64949-0.00257
   2   3  12 8568.44 762.008  10 0.42207-0.09049 0.87010-0.43235-0.13390 0.84165
  -2   3 -12 8755.35 785.841   8 0.62976-0.96173 0.18707 0.25010-0.56112-0.14604
  -2   3 -12 8726.36 721.889   7 0.56091-0.89273 0.02651 0.41019-0.65032-0.05729
   2   3  13 4165.69 556.356  10 0.43928-0.09311 0.87630-0.43854-0.07452 0.83780
  -2   3 -13 3899.61 559.281   8 0.62048-0.96708 0.19121 0.24592-0.56997-0.19271
  -2   3 -13 4086.25 518.864   7 0.55824-0.90470 0.03265 0.40401-0.65256-0.11060
   2   3  14 1941.41 389.192  10 0.45429-0.09352 0.87931-0.44152-0.01741 0.83623
  -2   3 -14 1452.13 321.683   7 0.55391-0.91502 0.04244 0.39419-0.65607-0.16264
  -2   3 -14 1994.16 425.405   8 0.60906-0.97031 0.19621 0.24089-0.58061-0.23759
  -2   3 -15 926.785 316.314   8 0.59568-0.97156 0.20195 0.23512-0.59277-0.28095
   2   3  15 787.143 282.641  10 0.46734-0.09198 0.87949-0.44168 0.03765 0.83671
  -2   4  16 594.042 241.707  10 0.48420-0.40749 0.87478-0.29101 0.11970 0.72795
   2   4 -15 1887.91 411.302   7 0.62399-0.68653-0.14289 0.72554-0.57650-0.21515
  -2   4  15 1823.31 367.019  10 0.47406-0.41194 0.87842-0.29467 0.06857 0.72355
  -2   4  14 895.985 261.182  10 0.46226-0.41473 0.87974-0.29601 0.01550 0.72108
   2   4 -14 575.805 252.076   7 0.62741-0.67530-0.15406 0.73674-0.57080-0.16530
  -2   4  13 5448.48 600.063  10 0.44859-0.41565 0.87847-0.29477-0.03977 0.72082
   2   4 -13 6831.38 724.863   7 0.62992-0.66317-0.16246 0.74516-0.56645-0.11410
   2   4 -12 2231.07 408.724   7 0.63151-0.65011-0.16787 0.75060-0.56362-0.06139
  -2   4  12 2782.80 414.890  10 0.43280-0.41445 0.87427-0.29058-0.09756 0.72306
  -2   4  11 2645.23 392.272  10 0.41457-0.41081 0.86665-0.28299-0.15816 0.72813
   2   4 -11 2943.66 462.173   7 0.63214-0.63610-0.17004 0.75280-0.56247-0.00698
  -2   4  10 4813.08 497.626  10 0.39350-0.40434 0.85501-0.27136-0.22191 0.73634
   2   4 -10 4256.24 522.059   7 0.63174-0.62105-0.16865 0.75144-0.56321 0.04930
  -2   4   9 929.050 233.103  10 0.36912-0.39455 0.83855-0.25493-0.28907 0.74797
   2   4  -9 943.133 261.317   7 0.63017-0.60484-0.16329 0.74611-0.56602 0.10765
   2   4  -8 2836.44 405.510   7 0.62724-0.58726-0.15348 0.73632-0.57110 0.16828
  -2   4   8 2942.98 364.461  10 0.34088-0.38090 0.81631-0.23270-0.35984 0.76320
  -2   4   7 348.709 194.843   4 0.82301-0.87737 0.13701 0.44589 0.74808-0.40083
  -2   4   7 404.248 147.855  10 0.30815-0.36276 0.78706-0.20347-0.43419 0.78202
   2   4  -7 227.970 139.316   7 0.62265-0.56804-0.13860 0.72148-0.57866 0.23139
  -2   4   6 6117.99 551.279   4 0.80242-0.87133 0.16273 0.42016 0.76478-0.47298
   2   4  -6 7066.87 589.899   7 0.61602-0.54676-0.11795 0.70085-0.58884 0.29711
  -2   4   6 7369.27 519.733  10 0.27028-0.33948 0.74940-0.16583-0.51177 0.80405
   2   4  -5 3823.94 425.478   7 0.60677-0.52286-0.09066 0.67359-0.60175 0.36557
  -2   4   5 4377.34 389.971  10 0.22670-0.31050 0.70182-0.11828-0.59165 0.82840
  -2   4   5 4047.87 408.216   7 0.06862-0.15134 0.69684-0.11395-0.67049 0.90725
  -2   4   5 3684.18 417.934   4 0.77523-0.85871 0.19408 0.38879 0.78368-0.54733
  -2   4   4 5109.67 465.883   4 0.73968-0.83772 0.23151 0.35135 0.80404-0.62314
  -2   4   4 4679.55 434.869   7 0.13373-0.23110 0.63978-0.05691-0.69477 0.87598
  -2   4   4 5266.85 415.433  10 0.17709-0.27548 0.64294-0.05941-0.67213 0.85334
   2   4  -4 3631.02 397.851   7 0.59414-0.49559-0.05574 0.63870-0.61738 0.43675
   2   4  -3 7332.31 543.891   7 0.57711-0.46392-0.01209 0.59508-0.63554 0.51046
  -2   4   3 8567.40 514.694  10 0.12161-0.23460 0.57185 0.01165-0.75056 0.87623
  -2   4   3 7423.43 541.842   4 0.69362-0.80622 0.27521 0.30763 0.82458-0.69914
  -2   4   3 8413.65 586.541   7 0.19436-0.30637 0.58010 0.00274-0.71180 0.83746
  -2   4   2 12381.2 610.957  10 0.06118-0.18876 0.48873 0.09475-0.82341 0.89355
  -2   4   2 11891.2 700.176   7 0.24965-0.37631 0.51979 0.06301-0.72232 0.79243
  -2   4   2 12513.6 674.592   4 0.63462-0.76178 0.32496 0.25786 0.84334-0.77335
   2   4  -2 12611.0 680.877   7 0.55435-0.42652 0.04146 0.54155-0.65572 0.58618
   2   4  -2 13007.1 732.346  10-0.14273 0.26998 0.16735 0.41596-0.97867 0.90895
   2   4  -1 14599.6 777.795  10-0.09625 0.23809 0.24623 0.33710-0.95572 0.94154
   2   4  -1 14683.8 709.522   7 0.52414-0.38167 0.10605 0.47699-0.67697 0.66298
  -2   4   1 13799.2 758.594   7 0.29909-0.44040 0.46068 0.12210-0.72729 0.74187
  -2   4   1 15969.1 684.050  10-0.00240-0.13977 0.39528 0.18819-0.88674 0.90134
  -2   4   1 13192.9 668.884   4 0.56025-0.70197 0.37987 0.20294 0.85750-0.84296
   2   4   0 24696.9 894.155   7 0.48439-0.32727 0.18255 0.40052-0.69768 0.73924
   2   4   0 23726.8 986.125  10-0.04744 0.20387 0.32541 0.25795-0.92353 0.96489
  -2   4   0 22064.2 963.785   7 0.34251-0.49846 0.40429 0.17846-0.72784 0.68687
  -2   4   0 23537.5 833.829  10-0.06651-0.09025 0.29491 0.28854-0.93707 0.89613
  -2   4   0 24749.6 886.417   4 0.46853-0.62481 0.43810 0.14469 0.86342-0.90433
  -2   4  -1 33869.8 1012.48   4 0.35868-0.52952 0.49669 0.08609 0.85695-0.95331
   2   4   1 33761.8 1018.94   7 0.43268-0.26092 0.27121 0.31188-0.71537 0.81247
   2   4   1 31935.2 1147.02  10 0.00244 0.16858 0.40260 0.18078-0.88239 0.97929
  -2   4  -1 31608.3 1176.67   7 0.38000-0.55059 0.35182 0.23091-0.72509 0.62857
  -2   4  -1 33211.9 998.815  10-0.12825-0.04311 0.19231 0.39111-0.97235 0.87588
  -2   4  -2 22118.4 998.910   7 0.41189-0.59712 0.30408 0.27862-0.72010 0.56803
  -2   4  -2 24025.6 820.070   8 0.36338-0.54892 0.28381 0.29958-0.76001 0.60810
   2   4   2 24357.5 841.282   7 0.36648-0.18007 0.37117 0.21195-0.72645 0.87911
   2   4   2 22386.1 975.620  10 0.05211 0.13350 0.47578 0.10762-0.83326 0.98569
  -2   4  -3 27938.1 1139.10   7 0.43861-0.63849 0.26158 0.32109-0.71379 0.50617
   2   4   3 27433.9 1096.52  10 0.10043 0.09978 0.54337 0.04004-0.77754 0.98550
  -2   4  -3 27115.6 931.109   8 0.43683-0.63700 0.26112 0.32224-0.71506 0.50763
  -2   4  -4 40552.5 1397.37   7 0.46069-0.67521 0.22453 0.35811-0.70693 0.44377
   2   4   4 41432.9 1368.54  10 0.14647 0.06832 0.60436-0.02092-0.71684 0.98034
  -2   4  -4 43682.2 1261.86   8 0.48916-0.70398 0.24327 0.34006-0.67886 0.41591
  -2   4  -5 23824.6 990.506   8 0.52636-0.75581 0.22965 0.35364-0.65081 0.33235
   2   4   5 24221.6 1067.41  10 0.18962 0.03977 0.65825-0.07479-0.65277 0.97181
  -2   4  -5 22182.5 1061.51   7 0.47865-0.70781 0.19296 0.38965-0.70012 0.38141
  -2   4  -6 2927.40 380.458   8 0.55244-0.79653 0.21960 0.36366-0.62990 0.25592
  -2   4  -6 2838.62 410.044   7 0.49298-0.73679 0.16672 0.41586-0.69380 0.31954
   2   4   6 2388.89 357.306  10 0.22950 0.01448 0.70501-0.12153-0.58678 0.96136
  -2   4  -7 1524.95 296.527   8 0.57016-0.82889 0.21252 0.37070-0.61507 0.18558
  -2   4  -7 1326.59 295.915   7 0.50414-0.76260 0.14559 0.43696-0.68829 0.25848
   2   4   7 1301.04 289.663  10 0.26599-0.00741 0.74491-0.16141-0.52005 0.95017
  -2   4  -8 2883.81 404.812   8 0.58142-0.85479 0.20791 0.37528-0.60537 0.12036
   2   4   8 3413.10 448.166  10 0.29910-0.02594 0.77841-0.19490-0.45348 0.93913
  -2   4  -8 2652.14 405.477   7 0.51253-0.78562 0.12930 0.45323-0.68378 0.19843
  -2   4  -9 3579.18 475.431   8 0.58756-0.87557 0.20536 0.37780-0.59998 0.05946
   2   4   9 3318.74 463.675  10 0.32900-0.04123 0.80608-0.22254-0.38770 0.92889
  -2   4  -9 3291.92 453.019   7 0.51846-0.80620 0.11754 0.46497-0.68039 0.13949
   2   4  10 3555.03 488.750  10 0.35586-0.05351 0.82849-0.24493-0.32315 0.91988
  -2   4 -10 3336.24 467.719   7 0.52219-0.82458 0.11002 0.47246-0.67816 0.08172
  -2   4 -10 4117.85 528.671   8 0.58954-0.89219 0.20453 0.37859-0.59824 0.00220
  -2   4 -11 5814.73 653.523   8 0.58803-0.90532 0.20516 0.37792-0.59957-0.05199
  -2   4 -11 4793.50 582.782   7 0.52394-0.84097 0.10647 0.47598-0.67709 0.02510
   2   4  11 5562.36 628.700  10 0.37993-0.06298 0.84620-0.26262-0.26008 0.91234
  -2   4 -12 2291.63 414.005   7 0.52386-0.85553 0.10664 0.47578-0.67714-0.03039
  -2   4 -12 2332.76 444.170   8 0.58354-0.91546 0.20704 0.37602-0.60352-0.10355
   2   4  12 2508.33 452.498  10 0.40143-0.06989 0.85970-0.27611-0.19861 0.90641
  -2   4 -13-10.6982 142.634   8 0.57642-0.92298 0.20997 0.37305-0.60971-0.15288
  -2   4 -13-83.2154 131.688   7 0.52204-0.86836 0.11032 0.47207-0.67825-0.08483
   2   4  13 168.091 166.691  10 0.42058-0.07445 0.86945-0.28583-0.13878 0.90212
  -2   4 -14 73.0835 160.025   8 0.56693-0.92814 0.21383 0.36916-0.61781-0.20030
   2   4  14 125.380 136.473  10 0.43760-0.07688 0.87581-0.29218-0.08057 0.89944
  -2   4 -14 282.730 173.819   7 0.51855-0.87951 0.11734 0.46503-0.68033-0.13830
   2   5 -14 1198.66 325.296   8 0.74557-0.79389 0.12869 0.60025-0.43412-0.30140
  -2   5  13 892.149 324.649   4 0.82441-0.79137 0.13520 0.59350 0.74687-0.06685
   2   5 -13 1655.31 400.566   7 0.59017-0.62327-0.04525 0.77369-0.62189-0.05859
  -2   5  13 1673.43 367.204  10 0.43659-0.40369 0.87551-0.14595-0.08419 0.76529
  -2   5  12-88.4706 107.015  10 0.41944-0.40114 0.86894-0.13940-0.14250 0.76806
   2   5 -12-198.607 176.469   7 0.59086-0.60931-0.04705 0.77551-0.62112-0.00381
  -2   5  11 2140.13 427.348   4 0.81598-0.81206 0.14600 0.58266 0.75404-0.18494
  -2   5  11 1658.05 336.279  10 0.40003-0.39631 0.85890-0.12938-0.20279 0.77281
   2   5 -11 1520.65 363.657   7 0.59031-0.59412-0.04561 0.77411-0.62173 0.05235
  -2   5  10 577.635 277.335   4 0.80817-0.81882 0.15572 0.57293 0.76034-0.24668
   2   5 -10 1082.40 306.036   7 0.58842-0.57759-0.04069 0.76921-0.62382 0.10998
  -2   5  10 541.440 210.714  10 0.37807-0.38895 0.84492-0.11543-0.26513 0.77962
  -2   5   9 4694.08 512.707  10 0.35331-0.37879 0.82648-0.09700-0.32952 0.78847
   2   5  -9 4047.86 539.536   7 0.58503-0.55956-0.03196 0.76051-0.62747 0.16917
  -2   5   9 4605.76 581.047   4 0.79741-0.82262 0.16870 0.55993 0.76851-0.31031
  -2   5   8-285.752 185.351   4 0.78311-0.82288 0.18526 0.54336 0.77853-0.37578
   2   5  -8-101.649 120.716   7 0.57993-0.53981-0.01907 0.74764-0.63274 0.23000
  -2   5   8 26.2328 105.403  10 0.32546-0.36552 0.80295-0.07349-0.39580 0.79921
   2   5  -7 2726.88 436.106   7 0.57281-0.51805-0.00159 0.73019-0.63968 0.29248
  -2   5   7 2131.40 386.766   4 0.76454-0.81887 0.20573 0.52288 0.79027-0.44298
  -2   5   7 2498.66 359.607  10 0.29424-0.34890 0.77366-0.04423-0.46365 0.81153
  -2   5   6 943.110 255.962   4 0.74076-0.80965 0.23042 0.49817 0.80348-0.51164
  -2   5   6 1489.28 275.716  10 0.25944-0.32869 0.73797-0.00855-0.53251 0.82485
   2   5  -6 1061.50 289.584   7 0.56332-0.49391 0.02094 0.70769-0.64826 0.35661
  -2   5   5 2125.61 357.701   4 0.71065-0.79410 0.25961 0.46897 0.81767-0.58127
   2   5  -5 2316.49 373.224   7 0.55097-0.46692 0.04903 0.67962-0.65838 0.42228
  -2   5   5 2111.36 308.967  10 0.22097-0.30481 0.69527 0.03413-0.60148 0.83828
  -2   5   5 2702.84 383.255   7 0.07546-0.15804 0.69118 0.03744-0.67333 0.91015
  -2   5   4 5757.36 550.146   4 0.67283-0.77083 0.29346 0.43510 0.83207-0.65113
   2   5  -4 6134.16 575.576   7 0.53516-0.43647 0.08324 0.64544-0.66985 0.48929
  -2   5   4 6716.81 532.757  10 0.17891-0.27735 0.64518 0.08419-0.66935 0.85061
  -2   5   4 6656.37 594.823   7 0.13116-0.22839 0.64216 0.08643-0.69393 0.87521
   2   5  -3 8874.47 670.192   7 0.51515-0.40182 0.12411 0.60460-0.68230 0.55729
  -2   5   3 9024.31 610.206  10 0.13363-0.24666 0.58769 0.14166-0.73454 0.86027
  -2   5   3 8581.03 673.726   7 0.18271-0.29458 0.59207 0.13649-0.70896 0.83470
  -2   5   3 9020.67 661.407   4 0.62573-0.73830 0.33194 0.39660 0.84555-0.72006
   2   5  -3 7998.68 661.992  10-0.12602 0.23863 0.19611 0.53303-0.97132 0.84612
  -2   5   2 7578.03 557.815  10 0.08578-0.21340 0.52327 0.20607-0.79527 0.86546
  -2   5   2 7468.56 631.701   7 0.22973-0.35624 0.54220 0.18634-0.71910 0.78929
   2   5  -2 6572.47 594.626  10-0.08928 0.21648 0.25777 0.47139-0.95162 0.88196
   2   5  -2 7409.93 602.051   7 0.49006-0.36208 0.17214 0.55660-0.69515 0.62569
  -2   5   2 7845.01 592.617   4 0.56767-0.69480 0.37473 0.35380 0.85650-0.78647
  -2   5   1 3214.63 367.690  10 0.03638-0.17860 0.45301 0.27631-0.84970 0.86436
   2   5  -1 3676.15 448.076  10-0.05042 0.19222 0.32068 0.40850-0.92572 0.91160
  -2   5   1 2868.46 398.259   7 0.27202-0.41317 0.49369 0.23482-0.72511 0.73975
  -2   5   1 3756.53 404.775   4 0.49696-0.63865 0.42104 0.30748 0.86279-0.84821
   2   5  -1 3108.09 387.824   7 0.45883-0.31621 0.22772 0.50104-0.70757 0.69365
  -2   5   0 1549.54 262.055  10-0.01331-0.14349 0.37862 0.35067-0.89627 0.85539
   2   5   0 884.815 232.760  10-0.01009 0.16648 0.38356 0.34564-0.89350 0.93491
  -2   5   0 1404.22 295.535   7 0.30957-0.46537 0.44748 0.28100-0.72777 0.68687
   2   5   0 1531.12 278.840   7 0.42027-0.26300 0.29100 0.43779-0.71834 0.75997
  -2   5  -1 842.658 193.763  10-0.06193-0.10947 0.30229 0.42699-0.93393 0.83751
   2   5   1 948.692 208.602   7 0.37310-0.20119 0.36176 0.36706-0.72584 0.82302
   2   5   1 860.778 237.708  10 0.03100 0.13998 0.44513 0.28409-0.85514 0.95209
  -2   5  -1 1121.67 275.933   7 0.34250-0.51295 0.40430 0.32415-0.72784 0.63139
   2   5   2 2106.67 345.587  10 0.07213 0.11344 0.50422 0.22503-0.81114 0.96362
  -2   5  -2 2196.11 314.584  10-0.10815-0.07784 0.22637 0.50288-0.96233 0.81038
  -2   5  -2 2042.04 360.562   7 0.37105-0.55613 0.36470 0.36373-0.72604 0.57405
   2   5   3 12888.1 851.730  10 0.11261 0.08755 0.55984 0.16942-0.76221 0.97023
  -2   5  -3 12201.7 864.631   7 0.39550-0.59523 0.32900 0.39940-0.72299 0.51545
  -2   5  -4 4947.34 568.680   7 0.41618-0.63055 0.29742 0.43095-0.71922 0.45613
   2   5   4 5187.37 542.291  10 0.15187 0.06289 0.61128 0.11801-0.70921 0.97277
   2   5   5 1140.39 283.011  10 0.18943 0.03992 0.65803 0.07128-0.65306 0.97216
  -2   5  -5 995.346 273.362   7 0.43343-0.66245 0.27001 0.45833-0.71518 0.39654
   2   5   6 10949.3 823.514  10 0.22497 0.01898 0.69985 0.02948-0.59464 0.96927
  -2   5  -6 10491.9 841.300   7 0.44758-0.69124 0.24676 0.48156-0.71119 0.33701
  -2   5  -7 2875.10 472.500   7 0.45892-0.71723 0.22757 0.50071-0.70754 0.27781
   2   5   7 3024.85 455.894  10 0.25826 0.00028 0.73670-0.00736-0.53474 0.96491
   2   5   8 1195.61 300.561  10 0.28919-0.01607 0.76868-0.03931-0.47405 0.95975
  -2   5  -8 607.445 204.711   8 0.49921-0.77255 0.23967 0.48940-0.67148 0.18656
  -2   5  -8 946.290 276.518   7 0.46773-0.74068 0.21232 0.51594-0.70440 0.21912
  -2   5  -9 2650.36 486.770   7 0.47423-0.76183 0.20084 0.52739-0.70190 0.16108
  -2   5  -9 2289.45 395.635   8 0.51028-0.79825 0.23564 0.49339-0.66318 0.12275
   2   5   9 2137.46 404.569  10 0.31776-0.03004 0.79599-0.06661-0.41312 0.95436
   2   5  10 395.019 193.881  10 0.34398-0.04167 0.81890-0.08949-0.35238 0.94916
  -2   5 -10 269.802 176.309   7 0.47863-0.78087 0.19298 0.53522-0.70012 0.10375
  -2   5 -11 1758.08 390.605   8 0.51864-0.83589 0.23255 0.49642-0.65680 0.00533
   2   5  11 1834.81 407.525  10 0.36795-0.05105 0.83769-0.10827-0.29215 0.94446
  -2   5 -11 1978.11 445.043   7 0.48108-0.79796 0.18857 0.53961-0.69910 0.04718
   2   5  12 427.986 209.198  10 0.38976-0.05826 0.85267-0.12323-0.23264 0.94049
  -2   5 -12 468.472 208.310   8 0.51732-0.84920 0.23304 0.49589-0.65781-0.04917
  -2   5 -12 495.697 240.942   7 0.48169-0.81322 0.18746 0.54069-0.69884-0.00862
  -2   6  10 976.930 304.986   4 0.74503-0.75564 0.22611 0.64825 0.80125-0.28756
  -2   6   9 72.5392 161.823   4 0.73141-0.75659 0.23972 0.63463 0.80817-0.34993
   2   6  -9 88.2650 148.556   7 0.53151-0.50589 0.09089 0.78338-0.67228 0.21407
   2   6  -8 8404.81 825.077   7 0.52454-0.48428 0.10524 0.76906-0.67672 0.27405
  -2   6   8 8168.43 795.291   4 0.71399-0.75373 0.25647 0.61786 0.81622-0.41343
  -2   6   7 1560.41 363.101   4 0.69210-0.74640 0.27657 0.59775 0.82516-0.47783
   2   6  -7 1814.60 392.453   7 0.51539-0.46048 0.12364 0.75069-0.68216 0.33504
   2   6  -6 6974.74 723.999   7 0.50375-0.43419 0.14636 0.72800-0.68849 0.39692
  -2   6   6 7239.89 699.797   4 0.66494-0.73380 0.30017 0.57413 0.83465-0.54276
  -2   6   5 2486.64 407.796   7 0.05923-0.14167 0.70449 0.16986-0.66650 0.90340
   2   6  -5 2317.90 417.333   7 0.48922-0.40502 0.17370 0.70068-0.69554 0.45951
  -2   6   5 2263.46 386.915   4 0.63156-0.71498 0.32738 0.54691 0.84412-0.60769
   2   6  -5 2411.45 421.721  10-0.12566 0.20904 0.19674 0.67821-0.97114 0.73492
  -2   6   4 3819.68 500.407   7 0.10856-0.20564 0.66267 0.21164-0.68610 0.86746
   2   6  -4 3650.93 508.210  10-0.09769 0.19567 0.24384 0.63113-0.95655 0.77586
   2   6  -4 3190.43 468.933   7 0.47135-0.37251 0.20595 0.66846-0.70303 0.52254
   2   6  -3 80.8275 120.482  10-0.06767 0.18024 0.29303 0.58196-0.93785 0.81271
  -2   6   3 114.277 154.371   7 0.15419-0.26591 0.62036 0.25393-0.70113 0.82694
   2   6  -3 219.598 161.528   7 0.44960-0.33612 0.24337 0.63107-0.71057 0.58563
  -2   6   2 1474.09 333.348   7 0.19593-0.32229 0.57847 0.29579-0.71217 0.78243
   2   6  -2 1636.00 341.552  10-0.03589 0.16305 0.34362 0.53139-0.91473 0.84512
   2   6  -2 1777.58 331.685   7 0.42335-0.29523 0.28614 0.58833-0.71764 0.64825
  -2   6   1 610.028 222.838   7 0.23372-0.37473 0.53778 0.33646-0.71980 0.73452
   2   6  -1 867.810 249.319   7 0.39191-0.24914 0.33434 0.54015-0.72353 0.70969
   2   6  -1 674.301 231.621  10-0.00269 0.14444 0.39483 0.48020-0.88700 0.87293
   2   6   0 240.871 197.474  10 0.03151 0.12483 0.44588 0.42918-0.85463 0.89609
  -2   6   0 647.919 235.416   7 0.26759-0.42324 0.49894 0.37527-0.72463 0.68380
  -2   6  -1 458.857 219.973   7 0.29765-0.46795 0.46248 0.41170-0.72721 0.63083
   2   6   1 341.024 177.383  10 0.06626 0.10467 0.49595 0.37912-0.81776 0.91476
  -2   6  -2 1331.43 329.826   7 0.32407-0.50901 0.42879 0.44536-0.72807 0.57615
   2   6   2 1667.77 338.052  10 0.10112 0.08441 0.54431 0.33078-0.77668 0.92921
  -2   6  -3 846.588 282.856   7 0.34704-0.54663 0.39814 0.47598-0.72768 0.52021
   2   6   3 602.577 223.972  10 0.13564 0.06448 0.59033 0.28479-0.73180 0.93987
   2   6   4 696.736 241.494  10 0.16945 0.04527 0.63346 0.24168-0.68363 0.94724
  -2   6  -4 251.547 172.144   7 0.36681-0.58103 0.37072 0.50338-0.72643 0.46341
   2   6   5 825.398 272.722  10 0.20219 0.02712 0.67332 0.20184-0.63271 0.95186
  -2   6  -5 693.687 273.215   7 0.38358-0.61246 0.34661 0.52746-0.72466 0.40610
   2   6   6 1801.46 383.028  10 0.23361 0.01029 0.70964 0.16553-0.57959 0.95428
  -2   6  -6 2005.88 416.887   7 0.39760-0.64112 0.32584 0.54820-0.72266 0.34855
   2   6   7 1249.95 328.990  10 0.26350-0.00501 0.74228 0.13291-0.52481 0.95503
  -2   6  -7 1431.57 380.381   7 0.40907-0.66723 0.30841 0.56560-0.72065 0.29099
   2   6   8 898.406 295.701  10 0.29172-0.01864 0.77119 0.10403-0.46885 0.95461
  -2   6  -8 954.988 298.059   7 0.41819-0.69100 0.29427 0.57972-0.71880 0.23359
   2   7  -4 689.821 252.307  10-0.03562 0.13355 0.34405 0.67678-0.91452 0.73389
   2   7  -3 2181.32 444.714  10-0.00916 0.12169 0.38498 0.63586-0.89269 0.76760
  -2   7   2 547.791 224.374   7 0.15144-0.27766 0.62301 0.39697-0.70031 0.77065
   2   7  -2 181.808 171.713  10 0.01856 0.10856 0.42675 0.59411-0.86734 0.79778
  -2   7   1 2753.76 472.138   7 0.18628-0.32714 0.58843 0.43153-0.70985 0.72464
   2   7  -1 1744.50 389.148  10 0.04729 0.09442 0.46883 0.55205-0.83839 0.82437
  -2   7   0 126.838 132.004   7 0.21774-0.37324 0.55531 0.46462-0.71685 0.67610
   2   7   0 108.582 137.842  10 0.07673 0.07957 0.51067 0.51023-0.80586 0.84738
  -2   7  -1 27.6615 130.779   7 0.24591-0.41606 0.52406 0.49584-0.72176 0.62546
   2   7   1 306.887 172.217  10 0.10659 0.06430 0.55174 0.46919-0.76985 0.86690
   2   7   2 429.910 203.679  10 0.13657 0.04892 0.59153 0.42941-0.73054 0.88313
   3  -7  -3 368.798 219.875  11 0.23847-0.04779-0.61465-0.40615 0.78778-0.89313
   3  -7  -2 148.156 141.141  11 0.26114-0.05584-0.56615-0.45462 0.82268-0.87249
   3  -7  -1 273.859 195.877  11 0.28221-0.06228-0.51702-0.50372 0.85360-0.84786
   3  -7   0 963.209 311.392  11 0.30157-0.06701-0.46794-0.55277 0.88053-0.81925
   3  -6 -10 518.238 216.599  11 0.05596 0.03238-0.88425 0.00906 0.46155-0.95563
   3  -6 -10 527.120 227.995   9 0.84430-0.75605-0.53479-0.34049 0.24456-0.73838
   3  -6  -9 1643.27 364.059   9 0.85262-0.74978-0.51665-0.35860 0.29567-0.73397
   3  -6  -9 1254.92 339.333  11 0.08686 0.01611-0.85133-0.02383 0.52154-0.96007
  -3  -6   9 805.722 265.388  11 0.39991-0.50354-0.12293-0.75184 0.98145-0.54392
   3  -6  -8 2474.04 428.039   9 0.85854-0.74109-0.49644-0.37880 0.34723-0.73000
  -3  -6   8 2276.42 471.315  11 0.39226-0.51051-0.15934-0.71546 0.97717-0.59519
   3  -6  -8 3259.33 511.510  11 0.11788-0.00028-0.81350-0.06163 0.57999-0.96297
   3  -6  -7 88.9878 110.403  11 0.14875-0.01652-0.77086-0.10424 0.63627-0.96372
  -3  -6   7 265.983 192.023  11 0.38318-0.51606-0.19924-0.67559 0.97087-0.64444
   3  -6  -6 87.6081 145.388  11 0.17914-0.03230-0.72365-0.15142 0.68975-0.96165
  -3  -6   6 387.977 210.541  11 0.37254-0.52004-0.24239-0.63247 0.96214-0.69124
   3  -6  -5 295.871 186.454  11 0.20872-0.04725-0.67229-0.20274 0.73976-0.95611
  -3  -6   5 365.457 213.803  11 0.36022-0.52235-0.28840-0.58649 0.95053-0.73518
   3  -6  -4 2400.37 420.401  11 0.23712-0.06102-0.61739-0.25761 0.78567-0.94648
  -3  -6   4 2206.87 455.642  11 0.34612-0.52287-0.33683-0.53810 0.93567-0.77587
   3  -6  -3 925.358 284.515  11 0.26400-0.07327-0.55972-0.31525 0.82697-0.93223
  -3  -6   3 959.510 304.384  11 0.33019-0.52157-0.38708-0.48788 0.91722-0.81296
   3  -6  -2 3138.08 480.980  11 0.28903-0.08367-0.50019-0.37475 0.86325-0.91298
  -3  -6   2 3452.72 527.469  11 0.31243-0.51844-0.43851-0.43648 0.89493-0.84622
  -3  -6   1 2367.15 435.713  11 0.29290-0.51354-0.49042-0.38460 0.86866-0.87548
   3  -6  -1 2349.96 426.784  11 0.31197-0.09198-0.43981-0.43510 0.89433-0.88850
  -3  -6   0 150.479 161.231  11 0.27169-0.50695-0.54206-0.33299 0.83836-0.90073
   3  -6   0 76.2071 140.211  11 0.33264-0.09803-0.37962-0.49526 0.92017-0.85880
   3  -6   1 4300.45 568.874  11 0.35097-0.10173-0.32062-0.55422 0.94096-0.82405
  -3  -6  -1 3385.05 536.160  11 0.24896-0.49885-0.59273-0.28235 0.80413-0.92205
   3  -6   2 656.234 241.080  11 0.36695-0.10309-0.26374-0.61107 0.95705-0.78460
  -3  -6  -2 665.054 252.787  11 0.22490-0.48942-0.64174-0.23337 0.76617-0.93963
   3  -6   3 3252.82 513.643  11 0.38067-0.10218-0.20975-0.66503 0.96893-0.74094
  -3  -6  -3 2599.29 484.308  11 0.19973-0.47887-0.68851-0.18663 0.72477-0.95377
   3  -6   4 2365.11 450.041  11 0.39227-0.09916-0.15927-0.71548 0.97718-0.69364
  -3  -6  -4 2040.87 421.998  11 0.17368-0.46745-0.73253-0.14265 0.68029-0.96483
   3  -6   5 1421.38 330.732  11 0.40195-0.09421-0.11274-0.76198 0.98240-0.64331
  -3  -6  -5 961.632 312.668  11 0.14699-0.45539-0.77341-0.10180 0.63313-0.97322
   3  -6   6 875.555 288.836  11 0.40992-0.08755-0.07046-0.80423 0.98520-0.59057
  -3  -6  -6 1453.66 377.684  11 0.11990-0.44292-0.81086-0.06438 0.58373-0.97936
   3  -6   7 192.496 190.047  11 0.41640-0.07940-0.03256-0.84209 0.98616-0.53599
  -3  -6  -7 571.482 274.676  11 0.09260-0.43025-0.84470-0.03058 0.53249-0.98367
   3  -6   8 3188.90 550.761  11 0.42160-0.06998 0.00091-0.87553 0.98580-0.48008
   3  -5 -13 2349.96 463.323   9 0.81843-0.77386-0.56790-0.16155 0.13407-0.79442
  -3  -5  13 2255.08 464.418  11 0.43674-0.48180 0.12587-0.85468 0.97439-0.31461
   3  -5 -12 489.540 246.223   9 0.83204-0.77288-0.55316-0.17627 0.18663-0.79145
  -3  -5  12 1013.98 298.089  11 0.43452-0.49421 0.10344-0.83229 0.97761-0.37337
  -3  -5  11 749.548 260.193  11 0.43157-0.50589 0.07651-0.80538 0.98080-0.43210
   3  -5 -11 908.879 303.096   9 0.84349-0.76973-0.53624-0.19318 0.24024-0.78954
   3  -5 -11 1142.18 298.873  11 0.01545 0.05832-0.92050 0.19110 0.38027-0.92981
  -3  -5  10 1694.58 378.091  11 0.42770-0.51664 0.04486-0.77376 0.98360-0.49045
   3  -5 -10 1371.02 318.834   9 0.85251-0.76416-0.51694-0.21246 0.29489-0.78866
   3  -5 -10 1777.19 366.059  11 0.04836 0.04003-0.89165 0.16228 0.44652-0.94052
   3  -5  -9 296.630 174.013   9 0.85882-0.75588-0.49509-0.23429 0.35049-0.78875
  -3  -5   9-55.3887 147.761  11 0.42269-0.52626 0.00834-0.73728 0.98556-0.54795
   3  -5  -9 224.623 142.946  11 0.08223 0.02079-0.85656 0.12722 0.51267-0.95112
   3  -5  -8 2466.45 414.400   9 0.86206-0.74452-0.47047-0.25889 0.40691-0.78964
   3  -5  -8 2704.52 421.768  11 0.11681 0.00084-0.81489 0.08559 0.57800-0.96090
  -3  -5   8 2553.54 430.237  11 0.41631-0.53451-0.03310-0.69587 0.98616-0.60409
  -3  -5   7 6607.25 686.666  11 0.40830-0.54112-0.07940-0.64960 0.98476-0.65824
   3  -5  -7 6777.93 648.117   9 0.86184-0.72971-0.44291-0.28644 0.46388-0.79109
   3  -5  -7 6723.98 641.434  11 0.15172-0.01945-0.76647 0.03720 0.64160-0.96896
   3  -5  -6 9845.69 769.970  11 0.18652-0.03962-0.71136-0.01788 0.70242-0.97423
   3  -5  -6 10190.3 765.930   9 0.85771-0.71099-0.41224-0.31709 0.52105-0.79273
  -3  -5   6 10224.2 834.835  11 0.39841-0.54585-0.13033-0.59870 0.98069-0.70971
   3  -5  -5-8.85699 87.9537   9 0.84925-0.68794-0.37836-0.35095 0.57789-0.79405
   3  -5  -5 175.049 135.310  11 0.22066-0.05913-0.64993-0.07928 0.75931-0.97558
  -3  -5   5 269.625 220.593  11 0.38639-0.54847-0.18548-0.54359 0.97324-0.75780
   3  -5  -4 2570.96 381.288   9 0.83604-0.66013-0.34129-0.38800 0.63375-0.79438
  -3  -5   4 2719.81 434.562  11 0.37207-0.54877-0.24421-0.48488 0.96172-0.80183
   3  -5  -4 2359.66 380.653  11 0.25352-0.07736-0.58293-0.14625 0.81113-0.97185
   3  -5  -3-0.58291 125.020   9 0.81775-0.62725-0.30116-0.42811 0.68780-0.79291
  -3  -5   3-0.73565 166.447  11 0.35531-0.54664-0.30571-0.42342 0.94554-0.84120
   3  -5  -3 114.880 132.213  11 0.28447-0.09369-0.51148-0.21766 0.85683-0.96201
   3  -5  -2 112.313 133.550   9 0.79423-0.58913-0.25830-0.47096 0.73911-0.78870
  -3  -5   2 2.91452 85.9414  11 0.33609-0.54205-0.36896-0.36020 0.92424-0.87544
   3  -5  -2 58.5717 109.540  11 0.31296-0.10755-0.43704-0.29207 0.89562-0.94526
   3  -5  -1 3673.09 423.397   9 0.76553-0.54584-0.21323-0.51600 0.78669-0.78075
   3  -5  -1 3930.30 473.067  11 0.33852-0.11849-0.36131-0.36777 0.92708-0.92118
  -3  -5   1 4026.94 512.628  11 0.31447-0.53505-0.43283-0.29636 0.89758-0.90432
  -3  -5   0 5601.85 606.815  11 0.29063-0.52584-0.49615-0.23307 0.86550-0.92779
   3  -5   0 4959.32 539.939  11 0.36087-0.12621-0.28605-0.44300 0.95118-0.88974
   3  -5   0 5538.98 516.838   9 0.73202-0.49774-0.16670-0.56252 0.82960-0.76813
   3  -5   1 10657.4 714.515   9 0.69440-0.44552-0.11959-0.60961 0.86705-0.75006
  -3  -5  -1 11120.1 845.073  11 0.26485-0.51468-0.55780-0.17146 0.82823-0.94606
   3  -5   1 10560.9 782.372  11 0.37989-0.13060-0.21296-0.51606 0.96832-0.85132
   3  -5   2 445.989 168.221   9 0.65364-0.39017-0.07293-0.65625 0.89854-0.72603
  -3  -5  -2 565.234 212.056  11 0.23744-0.50191-0.61674-0.11255 0.78617-0.95955
   3  -5   2 400.156 193.208  11 0.39567-0.13175-0.14348-0.58550 0.97920-0.80667
   3  -5   3 26011.8 1114.26   9 0.61095-0.33289-0.02772-0.70144 0.92392-0.69589
   3  -5   3 23427.5 1204.05  11 0.40842-0.12987-0.07876-0.65019 0.98479-0.75671
  -3  -5  -3 25039.6 1290.97  11 0.20880-0.48789-0.67215-0.05717 0.73989-0.96880
  -3  -5  -4-12.0541 146.891  11 0.17931-0.47303-0.72337-0.00598 0.69004-0.97450
   3  -5   4-331.195 181.754  11 0.41847-0.12530-0.01957-0.70935 0.98616-0.70253
   3  -5   5 1654.36 350.399  11 0.42622-0.11843 0.03364-0.76252 0.98435-0.64518
  -3  -5  -5 2007.68 390.910  11 0.14934-0.45768-0.76999 0.04061 0.63733-0.97734
   3  -5   6 443.255 205.783  11 0.43206-0.10963 0.08072-0.80958 0.98035-0.58564
  -3  -5  -6 708.828 276.182  11 0.11921-0.44218-0.81177 0.08235 0.58245-0.97800
   3  -5   7-101.282 118.083  11 0.43635-0.09930 0.12176-0.85058 0.97502-0.52476
  -3  -5  -7 254.058 206.332  11 0.08921-0.42681-0.84863 0.11919 0.52604-0.97713
   3  -5   8 4036.68 562.640  11 0.43944-0.08776 0.15698-0.88577 0.96905-0.46325
  -3  -5  -8 5087.77 654.821  11 0.05957-0.41179-0.88065 0.15117 0.46864-0.97528
   3  -5   9 1333.71 348.228  11 0.44162-0.07531 0.18671-0.91547 0.96300-0.40166
  -3  -5  -9 1560.40 372.786  11 0.03046-0.39731-0.90798 0.17847 0.41072-0.97290
   3  -5  10 4439.67 616.006  11 0.44311-0.06218 0.21131-0.94004 0.95728-0.34039
   3  -5  11 382.143 213.611  11 0.44412-0.04856 0.23118-0.95987 0.95218-0.27975
   3  -4 -15 1233.02 350.599   9 0.78941-0.77393-0.58923 0.00561 0.04304-0.81438
  -3  -4  15 1315.63 352.518  11 0.44617-0.46193 0.30335-0.88626 0.92995-0.15899
   3  -4 -14 1696.19 391.240   9 0.80705-0.77697-0.57752-0.00608 0.09576-0.81158
  -3  -4  14 1377.81 344.594  11 0.44601-0.47639 0.29118-0.87413 0.93411-0.21870
  -3  -4  13 943.893 303.414  11 0.44566-0.49066 0.27456-0.85754 0.93953-0.27966
   3  -4 -13 1451.75 356.780   9 0.82279-0.77812-0.56364-0.01994 0.14995-0.81025
  -3  -4  12 1052.51 291.504  11 0.44500-0.50464 0.25303-0.83604 0.94607-0.34175
   3  -4 -12 870.409 270.682   9 0.83640-0.77714-0.54736-0.03620 0.20571-0.81048
   3  -4 -11 883.347 257.349   9 0.84759-0.77373-0.52843-0.05511 0.26308-0.81233
  -3  -4  11 658.657 236.395  11 0.44388-0.51814 0.22610-0.80915 0.95353-0.40475
  -3  -4  10 3164.96 457.045  11 0.44204-0.53093 0.19328-0.77636 0.96154-0.46830
   3  -4 -10 3000.48 443.262   9 0.85597-0.76752-0.50655-0.07698 0.32208-0.81580
   3  -4 -10 4160.79 491.706  11 0.02389 0.06456-0.91358 0.33004 0.39746-0.89137
   3  -4  -9 6294.09 614.148   9 0.86107-0.75803-0.48137-0.10213 0.38264-0.82084
   3  -4  -9 6813.42 609.520  11 0.06073 0.04234-0.87947 0.29597 0.47093-0.90929
  -3  -4   9 5847.12 598.622  11 0.43921-0.54272 0.15409-0.73720 0.96959-0.53190
   3  -4  -8 236.221 149.716   9 0.86233-0.74469-0.45256-0.13093 0.44459-0.82727
  -3  -4   8 452.199 192.528  11 0.43500-0.55315 0.10812-0.69126 0.97698-0.59484
   3  -4  -8 251.902 135.760  11 0.09937 0.01833-0.83666 0.25318 0.54534-0.92816
   3  -4  -7 149.146 129.417   9 0.85906-0.72683-0.41975-0.16372 0.50758-0.83473
  -3  -4   7 248.759 153.698  11 0.42900-0.56177 0.05513-0.63830 0.98280-0.65620
   3  -4  -7 262.109 139.503  11 0.13946-0.00712-0.78423 0.20079 0.61954-0.94681
   3  -4  -6 1836.81 298.992   9 0.85052-0.70370-0.38264-0.20082 0.57105-0.84268
   3  -4  -6 1641.74 280.229  11 0.18040-0.03344-0.72158 0.13817 0.69191-0.96365
  -3  -4   6 1991.26 337.499  11 0.42074-0.56813-0.00488-0.57833 0.98594-0.71488
   3  -4  -5 3548.40 401.419   9 0.83592-0.67451-0.34100-0.24244 0.63417-0.85027
   3  -4  -5 3826.91 409.973  11 0.22135-0.05977-0.64860 0.06522 0.76044-0.97663
  -3  -4   5 3758.91 448.035  11 0.40973-0.57175-0.07153-0.51170 0.98515-0.76963
  -3  -4   5 4081.05 354.576   5-0.11426-0.04763 0.10952-0.69279 0.92255-0.70696
  -3  -4   4 16298.6 697.892   5-0.20477 0.02827 0.06303-0.64633 0.88847-0.72840
   3  -4  -4 15294.5 802.136  11 0.26123-0.08502-0.56594-0.01741 0.82282-0.98346
  -3  -4   4 13741.2 828.139  11 0.39555-0.57219-0.14405-0.43922 0.97913-0.81916
   3  -4  -4 15077.8 802.746   9 0.81451-0.63851-0.29481-0.28861 0.69581-0.85639
  -3  -4   3 10920.2 570.440   5-0.29524 0.10413 0.01474-0.59806 0.84394-0.73939
  -3  -4   3 11293.2 745.496  11 0.37789-0.56916-0.22113-0.36217 0.96669-0.86227
   3  -4  -3 9631.97 631.258  11 0.29880-0.10796-0.47522-0.10810 0.87676-0.98186
   3  -4  -3 10280.8 651.584   9 0.78573-0.59513-0.24431-0.33909 0.75455-0.85961
  -3  -4   2 9593.14 540.552   5-0.38213 0.17641-0.03352-0.54983 0.79038-0.74134
  -3  -4   2 8450.82 639.940  11 0.35663-0.56254-0.30109-0.28224 0.94691-0.89802
   3  -4  -2 8517.34 595.001  11 0.33285-0.12739-0.37897-0.20432 0.92042-0.96998
   3  -4  -2 7814.37 558.016   9 0.74935-0.54416-0.19011-0.39327 0.80877-0.85831
   3  -4  -1 12061.5 686.276   9 0.70566-0.48587-0.13323-0.45014 0.85681-0.85082
   3  -4  -1 12260.3 713.898  11 0.36243-0.14234-0.28041-0.30284 0.95272-0.94673
  -3  -4   1 13883.5 655.997   5-0.46262 0.24229-0.08008-0.50329 0.73006-0.73654
  -3  -4   1 13568.6 805.746  11 0.33189-0.55242-0.38191-0.20145 0.91927-0.92593
   3  -4   0 18329.5 883.860  11 0.38696-0.15224-0.18303-0.40020 0.97364-0.91210
  -3  -4   0 18108.3 762.845   5-0.53497 0.30002-0.12372-0.45967 0.66552-0.72752
  -3  -4   0 18454.0 944.189  11 0.30399-0.53915-0.46149-0.12190 0.88379-0.94599
   3  -4   0 17432.1 818.958   9 0.65557-0.42119-0.07506-0.50828 0.89722-0.83571
   3  -4   1 14564.6 756.240   9 0.60062-0.35165-0.01725-0.56607 0.92909-0.81205
  -3  -4  -1 14704.1 851.539  11 0.27349-0.52327-0.53785-0.04557 0.84099-0.95874
   3  -4   1 14265.3 792.483  11 0.40633-0.15699-0.09001-0.49317 0.98413-0.86706
  -3  -4  -2 9851.70 710.570  11 0.24104-0.50545-0.60936 0.02590 0.79182-0.96511
   3  -4   2 9880.50 672.487  11 0.42088-0.15691-0.00389-0.57926 0.98592-0.81330
   3  -4   2 9271.26 604.084   9 0.54284-0.27928 0.03852-0.62183 0.95215-0.77959
   3  -4   3 3205.96 398.438  11 0.43125-0.15265 0.07370-0.65682 0.98109-0.75293
  -3  -4  -3 2554.26 382.231  11 0.20735-0.48638-0.67481 0.09132 0.73748-0.96631
   3  -4   3 2283.54 315.184   9 0.48444-0.20628 0.09077-0.67406 0.96688-0.73880
   3  -4   4 1258.19 238.674   9 0.42752-0.13478 0.13838-0.72165 0.97437-0.69076
   3  -4   4 1462.15 281.124  11 0.43819-0.14497 0.14199-0.72508 0.97175-0.68804
  -3  -4  -4 951.545 247.212  11 0.17308-0.46675-0.73349 0.14997 0.67925-0.96363
   3  -4   5 6408.96 592.889  11 0.44251-0.13466 0.20090-0.78397 0.95978-0.62053
  -3  -4  -5 5601.89 577.703  11 0.13883-0.44711-0.78512 0.20157 0.61840-0.95832
  -3  -4  -5 6895.65 503.119   2 0.31007-0.61728-0.16725-0.41524-0.82159 0.48190
   3  -4   5 5925.23 523.031   9 0.37387-0.06653 0.18069-0.76394 0.97607-0.63694
  -3  -4  -6 12003.0 698.058   2 0.35784-0.67964-0.15906-0.42346-0.79383 0.39861
   3  -4   6 10440.9 775.305  11 0.44493-0.12245 0.25085-0.83388 0.94671-0.55191
   3  -4   6 9963.34 695.262   9 0.32476-0.00282 0.21745-0.80069 0.97354-0.57888
  -3  -4  -6 11126.2 826.785  11 0.10503-0.42795-0.82976 0.24617 0.55600-0.95147
  -3  -4  -7 523.257 173.902   9 0.66095-0.99826-0.62173 0.03795-0.23120-0.21936
   3  -4   7 442.272 169.817   9 0.28098 0.05555 0.24876-0.83198 0.96826-0.51808
   3  -4   7 457.914 184.938  11 0.44603-0.10892 0.29251-0.87551 0.93367-0.48333
  -3  -4  -7 874.462 216.773   2 0.39302-0.72943-0.15265-0.42990-0.77168 0.32093
  -3  -4  -7 336.955 186.881  11 0.07204-0.40958-0.86771 0.28409 0.49298-0.94399
   3  -4   8 522.228 192.622   9 0.24291 0.10821 0.27495-0.85815 0.96149-0.45579
  -3  -4  -8 816.777 215.957   9 0.64728-0.99917-0.62222 0.03842-0.25422-0.25186
   3  -4   8 538.925 209.975  11 0.44629-0.09456 0.32670-0.90966 0.92146-0.41558
  -3  -4  -8 695.681 262.035  11 0.04007-0.39224-0.89940 0.31575 0.43001-0.93657
  -3  -4  -9 782.269 272.552  11 0.00927-0.37606-0.92535 0.34166 0.36762-0.92972
  -3  -4  -9 809.484 233.112   9 0.63251-0.99900-0.62234 0.03852-0.27822-0.28339
   3  -4   9 851.067 254.917  11 0.44606-0.07970 0.35423-0.93717 0.91061-0.34918
  -3  -4 -10 1233.55 284.356   9 0.61671-0.99780-0.62203 0.03819-0.30298-0.31415
   3  -4  10 1006.43 310.784  11 0.44560-0.06462 0.37589-0.95880 0.90141-0.28444
  -3  -4 -11 1789.03 364.810   9 0.59992-0.99560-0.62124 0.03739-0.32836-0.34430
   3  -4  11 1533.09 358.855  11 0.44508-0.04947 0.39237-0.97524 0.89401-0.22149
  -3  -4 -12 3874.32 545.857   9 0.58215-0.99242-0.61995 0.03607-0.35424-0.37394
   3  -4  12 3849.40 574.652  11 0.44461-0.03437 0.40427-0.98711 0.88845-0.16039
   3  -4  13 2197.98 452.395  11 0.44426-0.01939 0.41210-0.99491 0.88468-0.10108
  -3  -4 -13 1743.87 400.900   9 0.56341-0.98827-0.61810 0.03420-0.38054-0.40317
  -3  -4 -14 2561.10 495.823   9 0.54368-0.98314-0.61565 0.03174-0.40719-0.43203
  -3  -3  17 2181.41 452.998  11 0.44159-0.42803 0.45626-0.89328 0.86188 0.02025
   3  -3 -17 2789.74 520.989   9 0.74217-0.75577-0.60898 0.17120-0.07403-0.80831
   3  -3 -16 1062.18 315.703   9 0.76406-0.76307-0.60145 0.16370-0.02317-0.80365
  -3  -3  16 889.974 276.063  11 0.44162-0.44269 0.45580-0.89286 0.86213-0.03555
  -3  -3  15 459.344 200.437  11 0.44191-0.45761 0.45177-0.88886 0.86432-0.09328
   3  -3 -15 360.481 188.105   9 0.78446-0.76888-0.59199 0.15424 0.02933-0.80063
  -3  -3  14 8264.78 686.798   5 0.53257-0.56289 0.38954-0.82678 0.86532-0.15001
  -3  -3  14 6667.87 694.249  11 0.44246-0.47279 0.44375-0.88087 0.86862-0.15312
   3  -3 -14 7916.32 766.083   9 0.80320-0.77303-0.58036 0.14264 0.08365-0.79943
   3  -3 -13 3162.81 477.466   9 0.82008-0.77531-0.56633 0.12863 0.14000-0.80025
  -3  -3  13 3303.55 420.094   5 0.52030-0.56524 0.38527-0.82254 0.87243-0.21263
  -3  -3  13 2249.68 385.866  11 0.44325-0.48820 0.43117-0.86832 0.87517-0.21522
  -3  -3  12 1521.53 316.067  11 0.44420-0.50377 0.41337-0.85055 0.88407-0.27966
  -3  -3  12 2586.06 365.494   5 0.50259-0.56214 0.37902-0.81631 0.88211-0.27783
   3  -3 -12 2118.91 382.477   9 0.83481-0.77544-0.54957 0.11188 0.19855-0.80327
   3  -3 -11 7560.49 669.825   9 0.84698-0.77302-0.52968 0.09202 0.25948-0.80868
  -3  -3  11 7420.01 658.486  11 0.44518-0.51939 0.38952-0.82674 0.89532-0.34645
  -3  -3  11 8944.66 631.366   5 0.47835-0.55251 0.37027-0.80759 0.89431-0.34555
   3  -3 -10 9587.51 728.078   9 0.85607-0.76752-0.50622 0.06856 0.32292-0.81660
  -3  -3  10 10659.5 653.847   5 0.44627-0.53505 0.35840-0.79573 0.90873-0.41548
  -3  -3  10 10243.2 734.929  11 0.44599-0.53482 0.35866-0.79591 0.90878-0.41546
  -3  -3   9 3172.28 405.129  11 0.44628-0.54974 0.31970-0.75699 0.92407-0.48629
   3  -3  -9 3485.49 386.519  11 0.01442 0.08871-0.92132 0.48364 0.37817-0.81645
  -3  -3   9 3809.60 377.568   5 0.40479-0.50817 0.34256-0.77992 0.92463-0.48691
   3  -3  -9 3089.87 405.383   9 0.86139-0.75825-0.47861 0.04098 0.38889-0.82705
  -3  -3   8 22164.9 870.673   5 0.35222-0.47021 0.32179-0.75917 0.94072-0.55852
   3  -3  -8 21700.7 1002.95   9 0.86205-0.74432-0.44625 0.00864 0.45727-0.83991
   3  -3  -8 22473.3 930.873  11 0.05625 0.06151-0.88398 0.44633 0.46211-0.84484
  -3  -3   8 20078.1 960.454  11 0.44558-0.56366 0.27149-0.70881 0.94049-0.55826
   3  -3  -7 30715.7 1136.34   9 0.85696-0.72464-0.40847-0.02913 0.52767-0.85478
   3  -3  -7 30602.4 1039.77  11 0.10176 0.03063-0.83377 0.39615 0.54984-0.87703
  -3  -3   7 29082.7 955.460   5 0.28695-0.41955 0.29500-0.73240 0.95491-0.62822
  -3  -3   7 30110.1 1129.03  11 0.44320-0.57591 0.21293-0.65028 0.95688-0.63019
  -3  -3   6 6728.17 521.818  11 0.43830-0.58564 0.14320-0.58058 0.97154-0.70040
   3  -3  -6 6915.99 482.367  11 0.15062-0.00361-0.76810 0.33052 0.63962-0.91127
   3  -3  -6 6424.62 509.272   9 0.84480-0.69788-0.36461-0.07297 0.59933-0.87091
  -3  -3   6 6238.30 429.246   5 0.20797-0.35518 0.26121-0.69864 0.96422-0.69305
  -3  -3   5 35725.9 1164.93  11 0.42986-0.59182 0.06205-0.49946 0.98221-0.76661
   3  -3  -5 40270.7 1124.03  11 0.20185-0.04021-0.68473 0.24717 0.72833-0.94443
   3  -3  -5 38010.6 1179.16   9 0.82410-0.66259-0.31417-0.12339 0.67095-0.88701
   3  -3  -4 4672.49 377.472  11 0.25363-0.07737-0.58268 0.14516 0.81130-0.97186
   3  -3  -4 4867.81 414.532   9 0.79343-0.61733-0.25696-0.18058 0.74061-0.90115
  -3  -3   4 4277.32 403.566  11 0.41684-0.59344-0.02980-0.40764 0.98617-0.82612
   3  -3  -3 878.532 172.899  11 0.30328-0.11239-0.46339 0.02590 0.88283-0.98785
   3  -3  -3 899.920 191.166   9 0.75168-0.56098-0.19335-0.24417 0.80577-0.91078
  -3  -3   3 819.687 195.976  11 0.39839-0.58961-0.13040-0.30708 0.98068-0.87617
   3  -3  -2 5032.25 401.666   9 0.69847-0.49319-0.12449-0.31302 0.86342-0.91291
   3  -3  -2 4710.41 372.424  11 0.34772-0.14221-0.33150-0.10596 0.93744-0.98692
  -3  -3   2 4778.59 412.581  11 0.37405-0.57990-0.23647-0.20104 0.96346-0.91449
  -3  -3   1 10423.9 603.642  11 0.34399-0.56446-0.34379-0.09375 0.93331-0.93988
   3  -3  -1 10169.5 564.444   9 0.63465-0.41477-0.05242-0.38507 0.91068-0.90464
   3  -3  -1 10812.9 560.725  11 0.38431-0.16417-0.19443-0.24300 0.97172-0.96565
  -3  -3   1 11739.3 439.760   2-0.32142 0.10174-0.22783-0.20884-0.97142 0.96502
  -3  -3   0 32709.4 573.844   9 0.63455-0.86960-0.62235 0.18456-0.27495 0.21311
   3  -3   0 29727.6 961.013   9 0.56244-0.32797 0.02010-0.45757 0.94537-0.88381
  -3  -3   0 31422.3 1047.72  11 0.30904-0.54414-0.44787 0.01030 0.89049-0.95261
   3  -3   0 31070.3 960.216  11 0.41165-0.17688-0.06067-0.37672 0.98559-0.92397
  -3  -3   0 31494.7 765.470   2-0.11830-0.11598-0.21773-0.21897-0.96598 0.90405
   3  -3   1 118.746 86.2227  11 0.42991-0.18051 0.06248-0.49985 0.98217-0.86501
   3  -3   1 239.951 103.510   9 0.48529-0.23622 0.09003-0.52748 0.96672-0.84964
  -3  -3  -1 158.682 56.9768   9 0.66489-0.91454-0.62152 0.18372-0.22442 0.10706
  -3  -3  -1 82.8214 78.2736   5-0.50887 0.25938-0.10776-0.32983 0.69005-0.80751
  -3  -3  -1 248.136 93.0025   2 0.05205-0.30093-0.20236-0.23438-0.92999 0.81253
  -3  -3  -1 260.752 131.697  11 0.27051-0.52023-0.54481 0.10721 0.83662-0.95428
  -3  -3  -2 17136.7 571.655   9 0.67447-0.93872-0.62086 0.18304-0.20764 0.03475
   3  -3   2 15872.7 723.966  11 0.44048-0.17645 0.17046-0.60779 0.96643-0.79372
  -3  -3  -2 15856.8 612.732   2 0.18508-0.44856-0.18610-0.25067-0.88249 0.70949
  -3  -3  -2 15254.9 765.264  11 0.22993-0.49428-0.63186 0.19423 0.77424-0.94745
   3  -3   2 16358.9 730.943   9 0.40721-0.14355 0.15467-0.59210 0.97559-0.80298
  -3  -3  -3 13090.3 597.406   2 0.28520-0.56328-0.17129-0.26552-0.83503 0.60650
  -3  -3  -3 13911.1 574.254   9 0.67516-0.95399-0.62080 0.18297-0.20642-0.02199
   3  -3   3 12677.7 676.587  11 0.44529-0.16664 0.26157-0.69887 0.94354-0.71529
   3  -3   3 13372.3 675.467   9 0.33201-0.05376 0.21213-0.64955 0.97414-0.74601
  -3  -3  -3 13412.5 737.584  11 0.18872-0.46770-0.70763 0.26996 0.70617-0.93492
  -3  -3  -4 19967.1 750.562   9 0.67098-0.96441-0.62112 0.18327-0.21381-0.07013
  -3  -3  -4 20729.9 938.288  11 0.14805-0.44166-0.77188 0.33418 0.63502-0.91932
   3  -3   4 20813.5 901.036  11 0.44625-0.15298 0.33630-0.77357 0.91778-0.63399
  -3  -3  -4 19330.6 778.996   2 0.35920-0.65188-0.15882-0.27802-0.79300 0.50894
   3  -3   4 18403.9 814.249   9 0.26262 0.03023 0.26152-0.69891 0.96524-0.68159
  -3  -3  -5 505.447 179.721  11 0.10870-0.41694-0.82520 0.38747 0.56289-0.90273
   3  -3   5 335.193 144.481  11 0.44493-0.13703 0.39631-0.83355 0.89219-0.55285
  -3  -3  -5 426.485 139.786   9 0.66369-0.97171-0.62159 0.18372-0.22650-0.11297
   3  -3   6 260.135 121.135  11 0.44246-0.11993 0.44371-0.88091 0.86864-0.47376
   3  -3   6 515.883 155.892   1 0.37838-0.05574-0.65715 0.21999-0.53112 0.92545
  -3  -3  -6 308.829 126.509   9 0.65419-0.97681-0.62202 0.18413-0.24268-0.15230
  -3  -3  -6 234.326 140.396  11 0.07116-0.39403-0.86864 0.43088 0.49129-0.88667
  -3  -3  -7 6719.73 538.762   9 0.64296-0.98017-0.62230 0.18439-0.26132-0.18920
  -3  -3  -7 7244.79 620.413  11 0.03567-0.37315-0.90338 0.46559 0.42120-0.87213
   3  -3   7 7905.51 535.230   1 0.48148-0.14428-0.64698 0.20986-0.44576 0.89560
   3  -3   7 7057.75 596.160  11 0.43961-0.10245 0.48057-0.91774 0.84813-0.39770
  -3  -3  -8 6039.38 535.593   9 0.63031-0.98211-0.62232 0.18439-0.28172-0.22431
   3  -3   8 5588.47 557.111  11 0.43683-0.08504 0.50873-0.94586 0.83107-0.32510
   3  -3   8 7208.65 531.373   1 0.57149-0.21973-0.62908 0.19200-0.36027 0.86563
   3  -3   9 21754.1 1123.75  11 0.43441-0.06800 0.52971-0.96682 0.81754-0.25603
  -3  -3  -9 20903.2 1042.99   9 0.61640-0.98279-0.62202 0.18407-0.30346-0.25810
   3  -3   9 22311.8 1013.61  10 0.46682-0.10047 0.53190-0.96933 0.80448-0.24309
   3  -3  10 1849.38 356.722  11 0.43248-0.05144 0.54476-0.98183 0.80738-0.19032
  -3  -3 -10 2171.77 364.927   9 0.60135-0.98234-0.62133 0.18336-0.32623-0.29085
   3  -3  10 1865.89 319.088  10 0.47132-0.09037 0.54608-0.98349 0.79222-0.17529
   3  -3  11 2660.84 439.471  11 0.43109-0.03543 0.55484-0.99188 0.80035-0.12775
  -3  -3 -11 2394.08 404.900   9 0.58524-0.98082-0.62021 0.18222-0.34981-0.32280
   3  -3  11 2747.12 406.262  10 0.47410-0.07856 0.55506-0.99245 0.78417-0.11170
  -3  -3 -12 638.687 252.970   9 0.56811-0.97828-0.61861 0.18061-0.37404-0.35409
   3  -3  12 1258.71 317.596  11 0.43025-0.01996 0.56071-0.99772 0.79617-0.06803
   3  -3  12 1151.61 280.188  10 0.47556-0.06543 0.55984-0.99721 0.77980-0.05180
   3  -3  13 1097.64 287.996  10 0.47595-0.05123 0.56113-0.99848 0.77861 0.00493
  -3  -3 -13 826.399 276.473   9 0.54998-0.97474-0.61649 0.17847-0.39880-0.38486
   3  -3  13 207.279 165.408  11 0.42992-0.00500 0.56297-0.99995 0.79455-0.01086
  -3  -3 -14 4037.87 571.559   9 0.53085-0.97021-0.61381 0.17577-0.42400-0.41518
   3  -3  14 3759.56 576.790  11 0.43005 0.00950 0.56206-0.99900 0.79521 0.04402
   3  -3  14 2779.27 459.893  10 0.47544-0.03613 0.55945-0.99679 0.78015 0.05892
  -3  -3 -15 2591.42 495.537   9 0.51072-0.96467-0.61054 0.17248-0.44957-0.44513
   3  -3  15 2095.31 443.394  11 0.43060 0.02358 0.55832-0.99524 0.79788 0.09690
   3  -3  15 2389.35 427.807  10 0.47414-0.02023 0.55518-0.99250 0.78406 0.11056
   3  -2 -18 632.485 247.422   9 0.69840-0.72649-0.61823 0.32631-0.16369-0.77413
  -3  -2  18 814.517 281.455  11 0.42658-0.39834 0.58433-0.87550 0.77873 0.15903
  -3  -2  18 583.206 254.931  10 0.47474-0.44688 0.55714-0.84841 0.78227 0.15557
   3  -2 -17 2454.26 471.236   9 0.72298-0.73649-0.61385 0.32195-0.11503-0.76727
  -3  -2  17 2108.07 432.050  11 0.42533-0.41172 0.59179-0.88299 0.77300 0.10921
  -3  -2  17 2276.91 449.405  10 0.47649-0.46322 0.56290-0.85419 0.77696 0.10534
   3  -2 -16 2630.53 471.317   9 0.74637-0.74528-0.60771 0.31583-0.06465-0.76213
  -3  -2  16 3506.46 514.619  11 0.42450-0.42552 0.59658-0.88781 0.76926 0.05741
  -3  -2  16 3158.13 499.505  10 0.47757-0.47890 0.56651-0.85782 0.77358 0.05318
   3  -2 -15 1850.90 401.070   9 0.76848-0.75280-0.59963 0.30777-0.01229-0.75897
  -3  -2  15 1062.32 284.479  11 0.42418-0.43982 0.59840-0.88966 0.76783 0.00329
  -3  -2  15 2028.29 393.467  10 0.47794-0.49386 0.56774-0.85907 0.77243-0.00120
   3  -2 -14 2435.57 408.647   9 0.78917-0.75889-0.58937 0.29752 0.04234-0.75807
  -3  -2  14 2533.60 410.149  10 0.47750-0.50801 0.56627-0.85762 0.77381-0.05812
   3  -2 -14 2441.25 352.298   7 0.56842-0.53893-0.81699 0.52538 0.06078-0.77667
  -3  -2  14 1947.65 359.734  11 0.42446-0.45473 0.59682-0.88812 0.76907-0.05349
   3  -2 -13 1739.14 340.907   9 0.80823-0.76337-0.57661 0.28478 0.09956-0.75976
  -3  -2  13 2060.16 350.803  11 0.42542-0.47031 0.59128-0.88260 0.77340-0.11336
   3  -2 -13 1713.71 288.207   7 0.53664-0.49250-0.84294 0.55136 0.11852-0.77888
  -3  -2  13 1972.34 354.507  10 0.47611-0.52122 0.56167-0.85304 0.77811-0.11795
   3  -2 -12 16490.6 967.977   9 0.82537-0.76591-0.56093 0.26912 0.15973-0.76441
  -3  -2  12 17498.1 969.341  10 0.47357-0.53328 0.55335-0.84474 0.78572-0.18110
  -3  -2  12 14433.4 870.396  11 0.42713-0.48665 0.58099-0.87235 0.78126-0.17677
   3  -2 -12 16882.9 862.377   7 0.50013-0.44135-0.86414 0.57259 0.17752-0.78233
   3  -2 -11 25126.1 1137.05   9 0.84013-0.76608-0.54181 0.25002 0.22325-0.77240
  -3  -2  11 25281.2 1090.79  11 0.42963-0.50378 0.56491-0.85631 0.79314-0.24420
   3  -2 -11 26351.0 1033.40   7 0.45849-0.38506-0.87993 0.58840 0.23765-0.78691
  -3  -2  11 27006.7 1154.41  10 0.46958-0.54387 0.54055-0.83196 0.79706-0.24798
  -3  -2  10 4026.08 436.409  10 0.46369-0.55258 0.52226-0.81369 0.81253-0.31899
  -3  -2  10 4253.22 438.657  11 0.43289-0.52167 0.54165-0.83308 0.80951-0.31610
   3  -2 -10 4289.83 469.747   9 0.85189-0.76324-0.51858 0.22681 0.29047-0.78410
   3  -2  -9 10678.3 679.322   9 0.85973-0.75649-0.49039 0.19863 0.36173-0.79984
  -3  -2   9 10016.9 626.891  11 0.43676-0.54017 0.50934-0.80080 0.83068-0.39282
  -3  -2   9 10097.3 601.691   5 0.57798-0.68130 0.40480-0.69634 0.83597-0.39818
  -3  -2   8 17599.9 748.935   5 0.54004-0.65797 0.39211-0.68367 0.86083-0.47856
  -3  -2   8 18189.3 801.032  11 0.44087-0.55890 0.46558-0.75707 0.85671-0.47439
   3  -2  -8 18478.5 853.255   9 0.86240-0.74457-0.45618 0.16444 0.43719-0.81977
   3  -2  -7 33064.3 941.210  11 0.01865 0.11378-0.91791 0.62612 0.38681-0.71392
  -3  -2   7 30724.8 939.769   5 0.48918-0.62171 0.37420-0.66579 0.88901-0.56226
  -3  -2   7 32288.8 1017.57  11 0.44447-0.57713 0.40738-0.69890 0.88696-0.56019
   3  -2  -7 32619.6 1071.70   9 0.85818-0.72576-0.41471 0.12299 0.51665-0.84371
   3  -2  -6 11083.5 601.919   9 0.84480-0.69778-0.36461 0.07290 0.59934-0.87087
   3  -2  -6 11610.8 526.827  11 0.07291 0.07416-0.86678 0.57502 0.49467-0.76623
  -3  -2   6 12024.1 596.294  11 0.44628-0.59356 0.33135-0.62290 0.91969-0.64846
   3  -2  -5 644.432 123.550  11 0.13636 0.02533-0.78858 0.49686 0.61392-0.82994
  -3  -2   5 677.523 148.165  11 0.44426-0.60617 0.23433-0.52591 0.95134-0.73565
   3  -2  -5 430.182 136.123   9 0.81945-0.65785-0.30458 0.01289 0.68344-0.89945
   3  -2  -4 75520.9 1433.67   9 0.77910-0.60290-0.23380-0.05786 0.76574-0.92623
   3  -2  -4 75044.8 1195.78  11 0.20825-0.03193-0.67317 0.38147 0.73897-0.89944
  -3  -2   4 73920.7 1284.64   5 0.22942-0.40578 0.27053-0.56218 0.96250-0.80231
  -3  -2   4 76503.5 1379.35  11 0.43566-0.61220 0.11470-0.40631 0.97606-0.81592
   3  -2  -3 91030.1 1526.70   9 0.72116-0.53037-0.15263-0.13902 0.84139-0.94636
  -3  -2   3 90009.4 1391.29   5 0.10389-0.29486 0.21457-0.50625 0.96435-0.85967
  -3  -2   3 88394.3 1442.70  11 0.41752-0.60869-0.02559-0.26606 0.98618-0.88158
   3  -2  -3 87237.2 1238.40  11 0.28382-0.09287-0.51309 0.22143 0.85589-0.96082
   3  -2  -2 239061. 2037.04  11 0.35326-0.14769-0.31278 0.02115 0.94340-0.99279
  -3  -2   2 239813. 2252.89   5-0.03424-0.17135 0.14919-0.44089 0.94441-0.89526
  -3  -2   2 241444. 2361.07  11 0.38779-0.59358-0.17937-0.11231 0.97422-0.92517
   3  -2  -2 243857. 2431.62   9 0.64477-0.43938-0.06326-0.22837 0.90439-0.95383
  -3  -2   1 34066.0 734.661   2-0.24121 0.02145-0.22496-0.06609-0.97438 0.96807
  -3  -2   1 34178.8 851.606   5-0.17505-0.04515 0.07849-0.37021 0.90078-0.90714
   3  -2  -1 33672.5 772.286  11 0.40545-0.18525-0.09466-0.19694 0.98382-0.97766
  -3  -2   1 35084.4 900.593  11 0.34668-0.56710-0.33496 0.04325 0.93630-0.94279
   3  -2  -1 34368.9 908.463   9 0.55208-0.33210 0.02990-0.32151 0.94908-0.94299
  -3  -2   0 1343.71 108.794   9 0.44210-0.67706-0.59624 0.30433-0.53020 0.46840
   3  -2   0 1506.02 202.530   9 0.44878-0.21420 0.12095-0.41254 0.97230-0.91069
  -3  -2   0 1084.25 171.559  11 0.29703-0.53208-0.47981 0.18806 0.87435-0.93639
   3  -2   0 1300.89 162.676  11 0.43522-0.20039 0.11022-0.40178 0.97670-0.91500
  -3  -2   0 1024.28 161.308   5-0.30820 0.07339 0.00766-0.29941 0.83665-0.89853
  -3  -2   0 1128.93 152.589   2-0.03584-0.19852-0.21105-0.08004-0.95203 0.89019
  -3  -2  -1 18009.6 586.903   2 0.13403-0.38299-0.19279-0.09834-0.90276 0.78539
  -3  -2  -1 18585.1 486.511   9 0.54164-0.79120-0.61537 0.32345-0.40989 0.29257
  -3  -2  -1 18556.3 685.109  11 0.24316-0.49284-0.60495 0.31317 0.79514-0.91272
   3  -2   1 19532.0 380.772   3 0.58938-0.34027 0.37828-0.66955 0.84392-0.72625
   3  -2   1 18485.6 683.673   9 0.34277-0.09360 0.20417-0.49575 0.97489-0.85776
   3  -2   1 18013.8 614.298  11 0.44579-0.19634 0.28027-0.57181 0.93770-0.82046
  -3  -2  -2 3367.14 241.240   9 0.58309-0.84724-0.62003 0.32808-0.35289 0.18005
  -3  -2  -2 3388.77 277.412   2 0.26397-0.52753-0.17462-0.11654-0.84597 0.67306
   3  -2   2 3246.40 279.396  11 0.44434-0.18026 0.41022-0.70173 0.88559-0.71281
   3  -2   2 3855.80 182.041   3 0.29162-0.02785 0.31172-0.60303 0.94901-0.77580
  -3  -2  -2 3612.62 319.512  11 0.18914-0.45344-0.70692 0.41512 0.70688-0.88000
   3  -2   2 3222.04 299.134   9 0.24180 0.02195 0.27570-0.56726 0.96127-0.78861
  -3  -2  -3 40788.8 919.145   9 0.60158-0.88032-0.62134 0.32938-0.32589 0.09752
  -3  -2  -3 42636.3 1123.99  11 0.13772-0.41664-0.78668 0.49484 0.61639-0.84505
  -3  -2  -3 38728.9 973.494   2 0.35939-0.63755-0.15878-0.13241-0.79289 0.56445
   3  -2   3 39948.1 1020.29  11 0.43722-0.15851 0.50509-0.79656 0.83334-0.60501
  -3  -2  -4 8067.17 450.248   9 0.60859-0.90192-0.62170 0.32972-0.31538 0.03148
   3  -2   4 7600.62 474.172  11 0.42842-0.13508 0.57288-0.86431 0.78732-0.50344
   3  -2   4 8253.73 413.424  10 0.48436-0.19102 0.58984-0.88153 0.75083-0.46707
  -3  -2  -4 7351.02 492.869  11 0.09027-0.38383-0.84741 0.55553 0.52806-0.81228
  -3  -2  -5 14721.6 528.429   8 0.07021-0.37812 0.35123-0.64322-0.88191 0.54228
  -3  -2  -5 15296.2 670.842   9 0.60891-0.91683-0.62172 0.32972-0.31489-0.02453
   3  -2   5 15207.7 606.150  10 0.49650-0.18856 0.63571-0.92737 0.70089-0.36159
   3  -2   5 15495.9 719.660  11 0.42000-0.11204 0.62081-0.91221 0.74964-0.41022
  -3  -2  -5 15686.7 752.716  11 0.04717-0.35535-0.89278 0.60088 0.44417-0.78392
  -3  -2  -6 3196.55 339.110   9 0.60489-0.92741-0.62152 0.32951-0.32094-0.07400
   3  -2   6 3274.65 356.353  11 0.41286-0.09027 0.65439-0.94577 0.72033-0.32536
  -3  -2  -6 2996.77 255.118   8 0.17028-0.49282 0.33207-0.62409-0.84986 0.45471
   3  -2   6 3296.42 331.385   1 0.46709-0.14467-0.64901 0.35753-0.45842 0.85285
  -3  -2  -6 3311.97 374.433  11 0.00824-0.33105-0.92613 0.63420 0.36552-0.76082
   3  -2   6 3034.78 297.403  10 0.50311-0.18058 0.66433-0.95598 0.66565-0.27082
  -3  -2  -7 22884.5 939.434   9 0.59780-0.93491-0.62111 0.32908-0.33150-0.11896
   3  -2   7 23063.7 895.080   1 0.55716-0.22018-0.63257 0.34113-0.37467 0.82461
  -3  -2  -7 24751.7 780.451   8 0.24304-0.58022 0.31570-0.60776-0.82051 0.36984
   3  -2   7 23248.8 870.759  10 0.50677-0.16964 0.68204-0.97367 0.64201-0.19164
   3  -2   7 22105.0 959.701  11 0.40726-0.07005 0.67754-0.96888 0.69856-0.24805
  -3  -2  -8 3124.67 378.575   9 0.58837-0.94007-0.62045 0.32840-0.34529-0.16069
   3  -2   8 3649.31 386.665   1 0.63348-0.28193-0.61077 0.31937-0.29413 0.79959
  -3  -2  -8 3487.70 311.518   8 0.29456-0.64638 0.30281-0.59491-0.79650 0.29032
   3  -2   8 3505.08 409.198  11 0.40321-0.05137 0.69295-0.98426 0.68328-0.17723
   3  -2   8 3336.65 357.454  10 0.50875-0.15703 0.69248-0.98409 0.62733-0.12142
   3  -2   9 1624.33 277.227   1 0.69784-0.33173-0.58524 0.29388-0.21753 0.77851
  -3  -2  -9 1236.12 270.498   9 0.57706-0.94336-0.61949 0.32742-0.36148-0.20003
   3  -2   9 1089.97 228.032  10 0.50971-0.14340 0.69782-0.98941 0.61959-0.05814
  -3  -2 -10 247.888 172.379   9 0.56417-0.94505-0.61818 0.32609-0.37950-0.23754
   3  -2  10 205.559 128.705   1 0.75200-0.37133-0.55714 0.26582-0.14505 0.76154
   3  -2  10 138.188 124.973  10 0.50998-0.12908 0.69940-0.99097 0.61727-0.00028
   3  -2  11 757.423 233.470   1 0.79749-0.40226-0.52725 0.23597-0.07651 0.74852
  -3  -2 -11 551.488 215.318   9 0.54987-0.94535-0.61647 0.32437-0.39894-0.27362
   3  -2  11 830.924 226.138  10 0.50975-0.11426 0.69807-0.98962 0.61922 0.05330
   3  -2  12 3328.04 427.905   1 0.83563-0.42583-0.49605 0.20481-0.01160 0.73913
  -3  -2 -12 3183.06 464.306   9 0.53431-0.94438-0.61433 0.32220-0.41951-0.30857
   3  -2  12 2829.81 409.279  10 0.50909-0.09901 0.69438-0.98591 0.62459 0.10346
  -3  -2 -13 1540.29 346.717   9 0.51755-0.94222-0.61170 0.31956-0.44099-0.34261
   3  -2  13 1674.64 348.740  10 0.50804-0.08336 0.68869-0.98019 0.63273 0.15087
  -3  -2 -14 2010.07 420.668   9 0.49966-0.93892-0.60855 0.31639-0.46323-0.37590
   3  -2  14 2449.90 454.967  11 0.40236 0.03724 0.69603-0.98715 0.68015 0.15917
   3  -2  14 2376.98 424.710  10 0.50661-0.06734 0.68123-0.97272 0.64312 0.19601
  -3  -2 -15 4427.52 630.387   9 0.48066-0.93451-0.60484 0.31266-0.48608-0.40857
   3  -2  15 3511.73 555.243  11 0.40471 0.04952 0.68735-0.97843 0.68891 0.20595
   3  -2  15 3576.14 523.866  10 0.50477-0.05091 0.67216-0.96363 0.65538 0.23928
  -3  -2 -16 1123.35 351.247   9 0.46054-0.92899-0.60053 0.30833-0.50945-0.44072
   3  -2  16 690.189 275.337  11 0.40746 0.06139 0.67675-0.96781 0.69932 0.25109
   3  -2  16 786.937 262.277  10 0.50251-0.03405 0.66158-0.95302 0.66920 0.28101
   3  -1 -19 6.48601 111.991   9 0.63470-0.67729-0.62235 0.47628-0.27471-0.71859
  -3  -1  19 214.309 156.437  11 0.40425-0.36133 0.68909-0.83440 0.68717 0.30622
   3  -1 -18 54.3151 81.6313   9 0.66159-0.68960-0.62170 0.47566-0.23011-0.70767
  -3  -1  18 148.294 161.692  10 0.49911-0.47129 0.64659-0.79201 0.68790 0.24999
  -3  -1  17 504.428 224.274  10 0.50119-0.48797 0.65563-0.80107 0.67674 0.20561
   3  -1 -17 231.442 135.590   9 0.68756-0.70097-0.61960 0.47358-0.18398-0.69827
   3  -1 -16 880.331 271.309   9 0.71260-0.71142-0.61593 0.46992-0.13606-0.69067
  -3  -1  16 1498.15 334.428  10 0.50284-0.50421 0.66307-0.80853 0.66728 0.15953
   3  -1 -15 81.6788 105.080   9 0.73670-0.72093-0.61051 0.46452-0.08602-0.68519
  -3  -1  15 287.701 167.118  10 0.50406-0.52003 0.66879-0.81427 0.65985 0.11143
   3  -1 -15 10.0804 77.4848   7 0.63536-0.62036-0.72202 0.57611-0.09523-0.67614
   3  -1 -14 8472.88 722.381   9 0.75980-0.72943-0.60311 0.45714-0.03347-0.68221
   3  -1 -14 8046.57 639.682   7 0.61802-0.58838-0.75455 0.60867-0.04806-0.66777
  -3  -1  14 7543.85 674.707  10 0.50486-0.53542 0.67259-0.81809 0.65482 0.06092
   3  -1 -13 3534.51 458.963   9 0.78176-0.73680-0.59340 0.44745 0.02205-0.68221
   3  -1 -13 2951.07 379.480   7 0.59751-0.55322-0.78462 0.63877 0.00057-0.66085
  -3  -1  13 3120.19 427.245  10 0.50519-0.55034 0.67417-0.81969 0.65270 0.00751
   3  -1 -12 16825.7 917.154   9 0.80238-0.74283-0.58095 0.43501 0.08113-0.68576
   3  -1 -12 17621.5 867.398   7 0.57350-0.51457-0.81203 0.66620 0.05086-0.65559
  -3  -1  12 16636.7 904.892  10 0.50497-0.56472 0.67314-0.81868 0.65409-0.04942
   3  -1 -11 18707.3 920.158   9 0.82130-0.74715-0.56514 0.41922 0.14444-0.69355
   3  -1 -11 17256.2 822.496   7 0.54555-0.47198-0.83647 0.69068 0.10303-0.65221
  -3  -1  11 19294.9 919.478  10 0.50408-0.57842 0.66887-0.81443 0.65974-0.11061
   3  -1 -10 13867.9 704.600   7 0.51313-0.42491-0.85749 0.71172 0.15728-0.65092
   3  -1 -10 13396.0 742.300   9 0.83795-0.74921-0.54514 0.39924 0.21281-0.70639
  -3  -1  10 14561.6 757.332  10 0.50227-0.59120 0.66047-0.80606 0.67061-0.17701
   3  -1  -9 36446.4 1088.32   7 0.47556-0.37270-0.87439 0.72865 0.21380-0.65189
  -3  -1   9 36160.0 1123.71  10 0.49912-0.60264 0.64664-0.79224 0.68784-0.24978
   3  -1  -9 34014.4 1114.07   9 0.85140-0.74807-0.51981 0.37393 0.28713-0.72520
  -3  -1   8 24583.5 828.387  11 0.40402-0.52200 0.68993-0.83559 0.68632-0.30392
  -3  -1   8 23678.5 855.341  10 0.49392-0.61203 0.62537-0.77099 0.71281-0.33028
   3  -1  -8 22948.3 865.140   9 0.86020-0.74228-0.48756 0.34170 0.36838-0.75091
   3  -1  -7 4751.43 373.157   9 0.86205-0.72953-0.44624 0.30040 0.45729-0.78431
  -3  -1   7 4416.11 350.375  10 0.48544-0.61815 0.59366-0.73930 0.74694-0.41995
  -3  -1   7 5230.02 357.167  11 0.41392-0.54653 0.64968-0.79537 0.72460-0.39774
  -3  -1   7 4808.02 257.206   4 0.78890-0.92162 0.17865-0.32430 0.77458-0.44805
  -3  -1   6 1725.94 193.166  11 0.42614-0.57337 0.58699-0.73272 0.77670-0.50538
   3  -1  -6 1857.89 226.274   9 0.85338-0.70627-0.39305 0.24722 0.55398-0.82547
  -3  -1   6 1842.66 218.317  10 0.47161-0.61891 0.54701-0.69267 0.79139-0.51994
  -3  -1   6 1720.81 141.488   4 0.68727-0.83455 0.28087-0.42654 0.82698-0.55590
   3  -1  -5 104471. 1540.79   9 0.82893-0.66723-0.32466 0.17885 0.65691-0.87287
  -3  -1   5 102385. 1349.47  11 0.43878-0.60064 0.48952-0.63528 0.84284-0.62707
  -3  -1   5 102814. 1501.73   5 0.53005-0.69174 0.38867-0.53448 0.86681-0.65104
  -3  -1   5 107935. 964.765   4 0.50834-0.67018 0.41398-0.55966 0.86225-0.64663
   3  -1  -4 10162.5 458.007   9 0.78175-0.60545-0.23795 0.09216 0.76136-0.92180
  -3  -1   4 10985.2 468.960   5 0.43497-0.61127 0.35413-0.49997 0.91336-0.75310
   3  -1  -4 11227.2 343.630  11 0.02792 0.14846-0.91017 0.76430 0.40560-0.56599
  -3  -1   4 10638.0 405.180  11 0.44623-0.62271 0.34004-0.48583 0.91632-0.75609
  -3  -1   4 11661.1 299.315   4 0.24109-0.41749 0.54809-0.69379 0.83627-0.67610
   3  -1  -3 766.047 129.801   9 0.70460-0.51371-0.13193-0.01384 0.85780-0.96272
  -3  -1   3 733.359 104.636  11 0.43654-0.62765 0.12381-0.26963 0.97471-0.87003
  -3  -1   3 763.799 134.627   5 0.30819-0.49910 0.30383-0.44969 0.95096-0.84623
   3  -1  -3 777.814 82.0453  11 0.14704 0.04396-0.77334 0.62751 0.63322-0.73807
  -3  -1   2 75955.4 964.893  11 0.39475-0.60049-0.14780 0.00195 0.97867-0.92954
   3  -1  -2 73822.5 969.983   3 0.74391-0.53872 0.39555-0.54104 0.71585-0.76487
   3  -1  -2 76770.1 723.270  11 0.31373-0.10810-0.43491 0.28910 0.89662-0.94592
   3  -1  -2 72817.1 1145.77   9 0.59403-0.38855-0.01065-0.13510 0.93221-0.98160
  -3  -1   1 104665. 1147.60  11 0.31923-0.53960-0.41934 0.27345 0.90366-0.91007
  -3  -1   1 104668. 1243.98   2-0.24527 0.02543-0.22514 0.07970-0.97440 0.96818
   3  -1  -1 104607. 1099.66   3 0.58903-0.36917 0.37822-0.52374 0.84414-0.83763
   3  -1  -1 108783. 910.128  11 0.43098-0.21073 0.07145-0.21722 0.98132-0.97508
   3  -1  -1 103790. 1358.37   9 0.45584-0.23576 0.11507-0.26080 0.97142-0.96529
   3  -1   0 131256. 1564.94   9 0.30611-0.07144 0.23095-0.37667 0.97163-0.90997
  -3  -1   0 133005. 1447.72   2-0.03159-0.20286-0.21067 0.06519-0.95113 0.88938
   3  -1   0 139341. 1240.92   3 0.36856-0.13405 0.33191-0.47748 0.93461-0.87257
  -3  -1   0 133479. 1365.58  11 0.22970-0.46469-0.63231 0.48640 0.77388-0.83583
   3  -1   0 136365. 1163.82  11 0.44203-0.20715 0.45007-0.59580 0.86524-0.80346
   3  -1   1 13164.7 413.226  11 0.41432-0.16481 0.64791-0.79361 0.72619-0.60886
  -3  -1  -1 13162.8 462.083  11 0.14673-0.39635-0.77379 0.62785 0.63266-0.75016
   3  -1   1 14093.0 309.953  10 0.51613-0.26660 0.74316-0.88905 0.54656-0.42936
  -3  -1  -1 13066.2 479.748   2 0.14759-0.39664-0.19107 0.04556-0.89763 0.78034
  -3  -1  -2 50142.3 1001.51   2 0.28421-0.54786-0.17145 0.02590-0.83555 0.66273
  -3  -1  -2 50672.8 917.877   9 0.41321-0.67726-0.58891 0.44284-0.56142 0.38862
  -3  -1  -2 51643.7 909.021   8-0.01818-0.24577 0.36503-0.51104-0.90247 0.72947
   3  -1   2 52634.1 744.376  10 0.51771-0.25359 0.80296-0.94884 0.42095-0.24821
  -3  -1  -2 52499.4 994.989  11 0.07788-0.34212-0.86138 0.71540 0.50429-0.67733
  -3  -1  -3 786.756 144.268  11 0.02236-0.30123-0.91487 0.76885 0.39434-0.62293
  -3  -1  -3 618.025 115.007   8 0.13529-0.41387 0.33920-0.48524-0.86214 0.63363
  -3  -1  -3 805.586 137.979   9 0.46553-0.74418-0.60163 0.45555-0.50373 0.27541
   3  -1   3 750.692 108.529  10 0.51533-0.23661 0.82240-0.96826 0.36784-0.13956
  -3  -1  -3 622.251 145.095   2 0.38317-0.66142-0.15448 0.00890-0.77803 0.54968
   3  -1   4 93922.8 1297.53  10 0.51388-0.22057 0.82946-0.97530 0.34606-0.06225
  -3  -1  -4 94526.8 1504.34   9 0.49496-0.78819-0.60767 0.46156-0.46896 0.18511
  -3  -1  -4 94827.6 1367.35   8 0.25155-0.54478 0.31364-0.45973-0.81673 0.53271
  -3  -1  -5 16267.1 604.622   8 0.33568-0.64354 0.29171-0.43783-0.77533 0.43579
  -3  -1  -5 15871.0 668.846   9 0.51085-0.81868-0.61056 0.46444-0.44941 0.11004
   3  -1   5 15998.4 590.534  10 0.51346-0.20556 0.83120-0.97702 0.34043-0.00108
  -3  -1  -6 16738.9 735.303   9 0.51812-0.84054-0.61179 0.46565-0.44028 0.04539
  -3  -1  -6 17723.6 674.078   8 0.39495-0.71746 0.27438-0.42053-0.74148 0.34643
   3  -1   6 16215.5 708.518   1 0.58711-0.26492-0.62497 0.47917-0.34422 0.73875
   3  -1   6 16829.1 660.855  10 0.51374-0.19125 0.83005-0.97584 0.34418 0.05071
  -3  -1  -7 13549.7 628.051   8 0.43577-0.77291 0.26147-0.40765-0.71575 0.26518
  -3  -1  -7 13260.7 701.706   9 0.51951-0.85653-0.61202 0.46586-0.43851-0.01190
   3  -1   7 13357.0 676.045   1 0.65624-0.31948-0.60258 0.45682-0.26805 0.71810
   3  -1   7 13942.5 649.444  10 0.51443-0.17734 0.82700-0.97278 0.35383 0.09659
   3  -1   8 46607.4 1269.45  10 0.51530-0.16363 0.82253-0.96829 0.36745 0.13852
   3  -1   8 46918.7 1326.87   1 0.71379-0.36247-0.57767 0.43195-0.19705 0.70262
  -3  -1  -8 46267.2 1388.80   9 0.51666-0.86827-0.61155 0.46537-0.44212-0.06382
  -3  -1  -8 46645.0 1233.98   8 0.46294-0.81472 0.25240-0.39862-0.69745 0.19136
   3  -1   9 24173.2 1004.37   1 0.76192-0.39604-0.55118 0.40550-0.13077 0.69186
  -3  -1  -9 23225.0 1042.70   9 0.51058-0.87678-0.61051 0.46432-0.44974-0.11172
  -3  -1  -9 24996.8 954.051   8 0.47990-0.84632 0.24654-0.39279-0.68553 0.12392
   3  -1   9 23563.8 965.828  10 0.51622-0.14995 0.81688-0.96262 0.38384 0.17766
  -3  -1 -10 3271.08 374.866   8 0.48906-0.87012 0.24331-0.38960-0.67893 0.06181
   3  -1  10 3399.68 399.571  10 0.51706-0.13620 0.81017-0.95588 0.40227 0.21477
  -3  -1 -10 3178.96 416.840   9 0.50193-0.88273-0.60897 0.46276-0.46044-0.15655
   3  -1  10 3290.29 398.923   1 0.80235-0.42191-0.52363 0.37799-0.06867 0.68527
   3  -1  11 1775.46 334.846   1 0.83641-0.44140-0.49533 0.34973-0.01018 0.68230
  -3  -1 -11 2074.86 357.598   9 0.49116-0.88655-0.60694 0.46071-0.47354-0.19897
  -3  -1 -11 2153.19 317.654   8 0.49207-0.88776 0.24224-0.38856-0.67674 0.00410
   3  -1  11 2125.44 330.538  10 0.51774-0.12229 0.80246-0.94816 0.42221 0.25036
  -3  -1 -12 2175.56 389.085   9 0.47856-0.88854-0.60441 0.45816-0.48855-0.23949
  -3  -1 -12 2531.04 365.636   8 0.49011-0.90044 0.24294-0.38930-0.67817-0.04998
   3  -1  12 2978.64 415.922  10 0.51820-0.10815 0.79379-0.93947 0.44333 0.28478
   3  -1  12 2801.86 404.175   1 0.86509-0.45552-0.46647 0.32090 0.04520 0.68243
  -3  -1 -13 2933.75 470.988   9 0.46435-0.88892-0.60137 0.45511-0.50510-0.27846
   3  -1  13 2525.61 394.603  10 0.51837-0.09373 0.78416-0.92982 0.46537 0.31827
  -3  -1 -13 2843.35 402.446   8 0.48399-0.90896 0.24510-0.39150-0.68260-0.10107
  -3  -1 -14 2116.90 408.062   9 0.44865-0.88782-0.59780 0.45151-0.52290-0.31618
   3  -1  14 1681.61 348.229  10 0.51821-0.07898 0.77356-0.91920 0.48815 0.35103
  -3  -1 -14 1124.19 265.703   8 0.47430-0.91391 0.24849-0.39492-0.68951-0.14967
   3  -1  15 831.113 259.399  10 0.51768-0.06385 0.76197-0.90758 0.51152 0.38320
  -3  -1 -15 705.951 285.941   9 0.43158-0.88534-0.59365 0.44735-0.54174-0.35286
  -3  -1 -16-154.814 187.227   9 0.41319-0.88153-0.58890 0.44258-0.56145-0.38868
   3  -1  16 197.321 157.981  10 0.51672-0.04831 0.74935-0.89494 0.53539 0.41487
  -3   0  19 3594.70 561.790  10 0.51127-0.46891 0.70704-0.70659 0.60584 0.38764
   3   0 -19 2687.74 491.554   9 0.57538-0.61788-0.61933 0.61915-0.36385-0.62940
   3   0 -18 3954.58 573.125   9 0.60287-0.63077-0.62141 0.62124-0.32397-0.61375
  -3   0  18 3786.63 565.834  10 0.51320-0.48543 0.71958-0.71915 0.58630 0.35165
   3   0 -17 718.635 262.443   9 0.62959-0.64290-0.62231 0.62216-0.28286-0.59935
   3   0 -17 1072.87 264.739   7 0.67646-0.69060-0.56968 0.56945-0.27123-0.61116
  -3   0  17 1469.42 342.253  10 0.51474-0.50156 0.73097-0.73056 0.56763 0.31478
   3   0 -16 2537.61 401.161   7 0.67142-0.67091-0.60424 0.60403-0.23611-0.59074
  -3   0  16 2210.92 415.959  10 0.51592-0.51734 0.74121-0.74082 0.55000 0.27687
   3   0 -16 2592.45 428.392   9 0.65563-0.65435-0.62197 0.62183-0.24025-0.58643
   3   0 -15 2270.82 361.170   7 0.66462-0.64948-0.63706 0.63688-0.20049-0.57081
   3   0 -15 1774.24 331.908   9 0.68106-0.66518-0.62028 0.62016-0.19584-0.57532
  -3   0  15 2300.49 394.912  10 0.51681-0.53281 0.75030-0.74993 0.53365 0.23769
   3   0 -14 394.912 178.499   9 0.70592-0.67545-0.61709 0.61699-0.14922-0.56641
   3   0 -14 249.188 155.678   7 0.65606-0.62628-0.66827 0.66812-0.16429-0.55147
  -3   0  14 561.323 220.644  10 0.51743-0.54803 0.75818-0.75783 0.51884 0.19696
   3   0 -13 122.584 118.217   9 0.73024-0.68518-0.61217 0.61209-0.09987-0.56023
   3   0 -13 25.9696 102.758   7 0.64570-0.60126-0.69792 0.69780-0.12737-0.53283
  -3   0  13 124.517 145.041  10 0.51784-0.56303 0.76479-0.76447 0.50596 0.15430
   3   0 -12 6249.04 538.526   9 0.75401-0.69436-0.60520 0.60514-0.04712-0.55746
  -3   0  12 5741.90 518.062  10 0.51809-0.57787 0.76999-0.76969 0.49550 0.10922
   3   0 -12 5987.64 519.307   7 0.63342-0.57435-0.72607 0.72598-0.08961-0.51505
   3   0 -11 7126.10 542.103   9 0.77718-0.70294-0.59568 0.59564 0.00994-0.55900
   3   0 -11 7555.66 557.673   7 0.61910-0.54538-0.75274 0.75268-0.05081-0.49830
  -3   0  11 7682.67 567.107  10 0.51821-0.59259 0.77356-0.77327 0.48815 0.06104
   3   0 -10 6404.80 482.595   9 0.79956-0.71072-0.58290 0.58287 0.07252-0.56606
  -3   0  10 7737.42 530.842  10 0.51826-0.60723 0.77514-0.77488 0.48484 0.00881
   3   0 -10 6853.08 507.564   7 0.60253-0.51417-0.77792 0.77788-0.01076-0.48280
   3   0  -9 1658.73 232.139   9 0.82071-0.71728-0.56572 0.56571 0.14227-0.58028
   3   0  -9 1845.02 264.241   7 0.58341-0.48040-0.80155 0.80154 0.03081-0.46883
  -3   0   9 1991.03 257.320  10 0.51823-0.62179 0.77415-0.77390 0.48693-0.04882
   3   0  -8 18626.4 748.456   7 0.56133-0.44368-0.82351 0.82352 0.07428-0.45676
   3   0  -8 18241.8 707.424   9 0.83975-0.72173-0.54241 0.54242 0.22140-0.60389
  -3   0   8 17993.0 701.486  10 0.51807-0.63622 0.76954-0.76932 0.49642-0.11384
  -3   0   7 24861.0 586.775   6-0.36720 0.23463 0.92642-0.92662-0.01817 0.34524
   3   0  -7 24341.1 811.037   7 0.53572-0.40343-0.84358 0.84362 0.12010-0.44703
   3   0  -7 25449.6 772.123   9 0.85488-0.72226-0.51014 0.51017 0.31284-0.63980
  -3   0   7 26356.7 784.475  10 0.51752-0.65027 0.75950-0.75929 0.51632-0.18928
  -3   0   6 17022.8 564.796   4 0.81018-0.95742 0.15325-0.15322 0.75875-0.48764
   3   0  -6 17707.1 595.411   9 0.86233-0.71512-0.46434 0.46439 0.42010-0.69154
  -3   0   6 16567.3 486.320   6-0.29251 0.14534 0.95421-0.95439-0.01846 0.28999
   3   0  -6 18072.3 658.504   7 0.50575-0.35881-0.86137 0.86144 0.16886-0.44024
  -3   0   6 18012.9 593.818  10 0.51584-0.66318 0.74046-0.74028 0.55131-0.27981
  -3   0   5 972.946 123.265   6-0.23065 0.06888 0.97196-0.97213-0.01861 0.23460
   3   0  -5 1005.62 137.466   9 0.85453-0.69273-0.39766 0.39772 0.54626-0.76218
  -3   0   5 995.041 132.711  10 0.51096-0.67289 0.70515-0.70498 0.60870-0.39273
   3   0  -5 1120.77 163.302   7 0.47025-0.30866-0.87625 0.87634 0.22134-0.43717
  -3   0   5 1062.07 141.814   4 0.74105-0.90286 0.23014-0.23011 0.80333-0.58767
  -3   0   4 29.4166 55.5248   4 0.63365-0.81002 0.32573-0.32572 0.84359-0.68338
  -3   0   4 11.2251 46.5937   6-0.18177 0.00541 0.98280-0.98295-0.01867 0.17912
   3   0  -4 98.7298 52.3579   9 0.81686-0.64047-0.29940 0.29948 0.69004-0.85043
  -3   0   4 24.9986 36.8130  10 0.49690-0.67342 0.63736-0.63721 0.69895-0.53852
   3   0  -3 199614. 1584.50   9 0.72602-0.53503-0.15886 0.15897 0.83623-0.94110
  -3   0   3 199031. 1664.06   6-0.14597-0.04499 0.98901-0.98915-0.01868 0.12360
  -3   0   3 196521. 1607.24   4 0.47955-0.67048 0.43159-0.43160 0.86330-0.75854
  -3   0   2 124751. 1322.09   5 0.33299-0.53845 0.31401-0.31407 0.94554-0.89627
  -3   0   2 127950. 1262.14   4 0.28533-0.49082 0.53002-0.53004 0.84559-0.79629
   3   0  -2 126716. 1227.10   9 0.56175-0.35617 0.02076-0.02064 0.94562-0.99497
  -3   0   1 440618. 2414.18   5 0.11903-0.33910 0.22150-0.22159 0.96515-0.97139
   3   0  -1 438058. 2479.34   3 0.33228-0.11236 0.32261-0.32247 0.94236-0.93595
   3   0  -1 443400. 2313.32   9 0.33988-0.11971 0.20632-0.20618 0.97471-0.96853
   3   0  -1 455238. 1707.51  10-0.11949 0.33979 0.20724-0.20733-0.96816 0.97434
  -3   0   0 1048.92 128.568   5-0.11734-0.11734 0.10797-0.10808 0.92155-0.98331
   3   0   0 1080.93 92.5969  10 0.11745 0.11745 0.56631-0.56638-0.75599 0.81771
  -3   0  -1 3559.91 229.745   6-0.13412-0.11522 0.99076-0.99083-0.01868-0.09856
  -3   0  -1 3707.53 234.152   5-0.33299 0.08370-0.00599 0.00586 0.82204-0.93932
  -3   0  -1 3296.71 238.697   8 0.07015-0.31942 0.35124-0.35134-0.88193 0.76454
   3   0   1 3714.42 189.314  10 0.26294-0.01345 0.74169-0.74174-0.52588 0.64313
  -3   0  -2 16027.3 379.317   7 0.15950-0.42359 0.61520-0.61549-0.70269 0.52969
  -3   0  -2 15900.2 503.047   5-0.50218 0.23828-0.10371 0.10356 0.69610-0.86889
   3   0   2 15843.1 440.327  10 0.34190-0.07782 0.81716-0.81719-0.35740 0.53019
  -3   0  -2 15905.4 543.677   8 0.22007-0.48398 0.32109-0.32123-0.83034 0.65744
  -3   0  -2 16250.9 481.497   6-0.16401-0.09993 0.98606-0.98612-0.01868-0.15409
  -3   0  -3 18435.9 617.374   8 0.33157-0.61012 0.29286-0.29302-0.77753 0.54911
  -3   0  -3 19184.0 524.937   6-0.20706-0.07148 0.97753-0.97757-0.01864-0.20967
  -3   0  -3 19522.9 424.978   7 0.29556-0.57429 0.46508-0.46540-0.72709 0.49855
   3   0   3 19089.9 543.197  10 0.38828-0.10961 0.85173-0.85174-0.23681 0.46514
  -3   0  -4 16200.2 478.432   6-0.26333-0.02980 0.96315-0.96318-0.01854-0.26531
   3   0   4 16510.0 560.441  10 0.41851-0.12524 0.86851-0.86850-0.14554 0.42941
  -3   0  -4 17033.6 416.458   7 0.40204-0.69541 0.31915-0.31950-0.72192 0.43784
  -3   0  -4 15813.4 606.234   8 0.41129-0.70448 0.26931-0.26951-0.73143 0.44749
  -3   0  -5 87768.8 1090.15   6-0.33293 0.02520 0.94006-0.94008-0.01832-0.32107
  -3   0  -5 89101.3 1591.53   9 0.36605-0.67378-0.57546 0.57522-0.60932 0.27000
  -3   0  -5 90696.4 1534.55   8 0.46704-0.77487 0.25100-0.25123-0.69460 0.35516
   3   0   5 89438.6 1433.06  10 0.43991-0.13206 0.87648-0.87644-0.07222 0.41162
  -3   0  -5 88980.7 1007.24   7 0.47500-0.78302 0.19948-0.19985-0.70159 0.36196
   3   0   6 16932.8 740.086   1 0.71629-0.39431-0.57644 0.57632-0.19378 0.58842
  -3   0  -6 17783.4 762.466   9 0.38979-0.71211-0.58245 0.58219-0.58568 0.19083
  -3   0  -6 17748.3 479.979   7 0.52144-0.84410 0.11153-0.11194-0.67861 0.28343
   3   0   6 16716.4 674.757  10 0.45604-0.13359 0.87948-0.87943-0.01035 0.40529
  -3   0  -6 17149.3 710.935   8 0.50527-0.82773 0.23748-0.23775-0.66696 0.27200
   3   0   7 6254.91 443.554  10 0.46872-0.13168 0.87934-0.87927 0.04385 0.40663
  -3   0  -7 5889.54 469.178   9 0.40406-0.74098-0.58644 0.58616-0.57101 0.12064
  -3   0  -7 6298.81 459.778   8 0.53068-0.86779 0.22802-0.22832-0.64742 0.19693
   3   0   7 6670.18 497.018   1 0.76069-0.42416-0.55193 0.55185-0.13256 0.58271
  -3   0  -7 6417.12 312.367   7 0.54985-0.88716 0.05151-0.05194-0.65925 0.20852
   3   0   8 778.517 178.307  10 0.47900-0.12737 0.87699-0.87690 0.09272 0.41330
  -3   0  -8 824.452 201.893   9 0.41144-0.76295-0.58844 0.58814-0.56329 0.05740
  -3   0  -8 645.462 176.372   8 0.54660-0.89834 0.22189-0.22223-0.63468 0.12868
   3   0   8 1073.91 234.283   1 0.79788-0.44678-0.52696 0.52692-0.07589 0.58156
  -3   0  -8 1003.87 138.248   7 0.56651-0.91846 0.01346-0.01392-0.64546 0.13918
  -3   0  -9 23751.8 992.005   8 0.55529-0.92167 0.21848-0.21885-0.62755 0.06603
   3   0   9 24262.1 991.385  10 0.48749-0.12126 0.87294-0.87282 0.13774 0.42382
  -3   0  -9 25402.9 1084.18   9 0.41360-0.77970-0.58901 0.58869-0.56102-0.00040
   3   0   9 23635.4 1022.45   1 0.82931-0.46364-0.50170 0.50170-0.02295 0.58413
   3   0  10 6359.16 538.150  10 0.49457-0.11375 0.86748-0.86734 0.17990 0.43719
  -3   0 -10 6505.43 586.276   9 0.41169-0.79239-0.58850 0.58817-0.56303-0.05391
   3   0  10 6694.79 580.297   1 0.85602-0.47580-0.47620 0.47624 0.02695 0.58975
  -3   0 -10 7496.99 592.894   8 0.55835-0.93937 0.21726-0.21768-0.62501 0.00798
  -3   0 -11 144.969 164.193   9 0.40651-0.80180-0.58711 0.58675-0.56846-0.10401
  -3   0 -11 60.2654 106.010   8 0.55687-0.95253 0.21785-0.21830-0.62624-0.04631
   3   0  11-30.3705 105.676  10 0.50049-0.10508 0.86078-0.86062 0.21989 0.45273
  -3   0 -12 9422.22 727.088   8 0.55163-0.96192 0.21992-0.22040-0.63057-0.09750
   3   0  12 8216.51 678.602  10 0.50543-0.09542 0.85294-0.85277 0.25819 0.46997
  -3   0 -12 9244.35 763.237   9 0.39861-0.80849-0.58494 0.58456-0.57665-0.15133
  -3   0 -13 62.3165 117.075   9 0.38838-0.81285-0.58205 0.58166-0.58710-0.19641
  -3   0 -13 18.4392 131.045   8 0.54317-0.96811 0.22322-0.22374-0.63745-0.14613
   3   0  13 68.2505 136.076  10 0.50948-0.08488 0.84402-0.84382 0.29516 0.48854
  -3   0 -14 5783.10 621.855   8 0.53189-0.97146 0.22756-0.22811-0.64647-0.19263
  -3   0 -14 6122.26 688.604   9 0.37611-0.81518-0.57848 0.57807-0.59941-0.23963
   3   0  14 5819.05 637.176  10 0.51273-0.07354 0.83403-0.83382 0.33106 0.50818
  -3   0 -15 8201.91 819.518   9 0.36200-0.81566-0.57423 0.57380-0.61326-0.28130
  -3   0 -15 8636.00 801.102   8 0.51804-0.97225 0.23277-0.23335-0.65726-0.23735
   3   0  15 9456.77 834.634  10 0.51522-0.06144 0.82299-0.82275 0.36609 0.52869
  -3   0 -16 653.019 253.753   8 0.50182-0.97067 0.23873-0.23935-0.66954-0.28059
   3   0  16 1240.84 321.125  10 0.51699-0.04861 0.81087-0.81061 0.40040 0.54991
  -3   0 -17 755.625 260.631   8 0.48332-0.96681 0.24534-0.24599-0.68308-0.32256
  -3   1  19 687.323 261.889  10 0.51766-0.47534 0.76166-0.61536 0.51212 0.48141
   3   1 -18 245.396 178.751   9 0.51477-0.54257-0.61123 0.75694-0.44450-0.49318
  -3   1  18-5.68754 93.8361  10 0.51825-0.49053 0.77501-0.62873 0.48511 0.45288
   3   1 -18 465.448 214.822   7 0.68039-0.70903-0.44574 0.59121-0.38136-0.55651
   3   1 -17-81.1252 125.392   9 0.54055-0.55377-0.61522 0.76095-0.41133-0.47083
   3   1 -17-18.7303 95.7114   7 0.68124-0.69523-0.47777 0.62326-0.35499-0.52733
  -3   1  17-178.063 161.076  10 0.51835-0.50522 0.78735-0.64109 0.45823 0.42423
  -3   1  16 842.784 247.371  10 0.51798-0.51944 0.79872-0.65249 0.43148 0.39544
   3   1 -16 1526.06 307.455   9 0.56559-0.56421-0.61834 0.76408-0.37753-0.44910
   3   1 -16 1268.61 286.759   7 0.68091-0.68027-0.50803 0.65355-0.32881-0.49796
   3   1 -15 235.824 144.689   9 0.58998-0.57401-0.62058 0.76633-0.34296-0.42815
   3   1 -15 364.644 171.427   7 0.67952-0.66423-0.53663 0.68217-0.30286-0.46837
  -3   1  15-166.664 153.765  10 0.51717-0.53322 0.80917-0.66295 0.40491 0.36647
  -3   1  14 7689.92 654.276  10 0.51594-0.54658 0.81873-0.67254 0.37855 0.33730
   3   1 -14 8428.58 662.022   9 0.61382-0.58326-0.62192 0.76770-0.30741-0.40817
   3   1 -14 7892.90 674.690   7 0.67715-0.64721-0.56363 0.70920-0.27717-0.43852
   3   1 -13 3566.82 440.384   7 0.67388-0.62930-0.58910 0.73470-0.25177-0.40836
  -3   1  13 3530.75 426.506  10 0.51433-0.55957 0.82744-0.68126 0.35246 0.30785
   3   1 -13 3951.93 435.651   9 0.63724-0.59208-0.62234 0.76814-0.27062-0.38944
   3   1 -12 17247.2 848.697   9 0.66037-0.60062-0.62176 0.76758-0.23220-0.37233
  -3   1  12 17307.6 872.629  10 0.51237-0.57220 0.83531-0.68915 0.32671 0.27807
   3   1 -12 16259.9 884.151   7 0.66979-0.61057-0.61308 0.75871-0.22674-0.37785
   3   1 -11 19219.4 920.703   7 0.66497-0.59110-0.63559 0.78125-0.20214-0.34690
   3   1 -11 19210.5 838.910   9 0.68338-0.60904-0.62005 0.76588-0.19162-0.35739
  -3   1  11 18992.0 857.915  10 0.51009-0.58451 0.84238-0.69624 0.30139 0.24785
   3   1 -10 14756.2 689.497   9 0.70650-0.61756-0.61699 0.76284-0.14808-0.34541
   3   1 -10 13948.5 754.565   7 0.65951-0.57100-0.65665 0.80234-0.17806-0.31544
  -3   1  10 13808.9 690.351  10 0.50754-0.59655 0.84865-0.70254 0.27665 0.21705
   3   1  -9 37027.7 1007.82   9 0.73001-0.62648-0.61223 0.75810-0.10035-0.33761
  -3   1   9 39092.8 787.300   6 0.01853-0.12185 0.99955-0.85393-0.01841 0.45652
   3   1  -9 35971.3 1160.96   7 0.65351-0.55035-0.67624 0.82195-0.15462-0.28332
  -3   1   9 35359.9 1032.73  10 0.50477-0.60837 0.85415-0.70805 0.25272 0.18545
   3   1  -8 25059.9 770.870   9 0.75431-0.63619-0.60510 0.75098-0.04644-0.33600
  -3   1   8 24639.9 645.587   6 0.11606-0.23398 0.99203-0.84639-0.01801 0.40057
   3   1  -8 24154.2 900.180   7 0.64709-0.52929-0.69432 0.84006-0.13200-0.25040
  -3   1   8 24301.5 795.654  10 0.50185-0.62005 0.85886-0.71278 0.22992 0.15271
   3   1  -7 4991.25 313.093   9 0.77990-0.64719-0.59435 0.74025 0.01709-0.34401
  -3   1   7 4653.60 281.568   6 0.19634-0.32886 0.97802-0.83236-0.01753 0.34456
  -3   1   7 4636.46 320.923  10 0.49893-0.63172 0.86278-0.71672 0.20884 0.11825
   3   1  -7 4812.17 386.341   7 0.64039-0.50795-0.71082 0.85659-0.11043-0.21643
   3   1  -6 1845.20 173.729   9 0.80730-0.65999-0.57733 0.72325 0.09656-0.36795
  -3   1   6 2116.25 194.312   6 0.26154-0.40866 0.96122-0.81555-0.01704 0.28853
   3   1  -6 1841.37 227.521   7 0.63364-0.48655-0.72563 0.87143-0.09022-0.18109
  -3   1   6 1791.84 182.050  10 0.49621-0.64359 0.86585-0.71981 0.19050 0.08106
   3   1  -5 104473. 1117.71   9 0.83615-0.67425-0.54772 0.69366 0.20455-0.42042
   3   1  -5 104206. 1564.31   7 0.62709-0.46536-0.73855 0.88437-0.07187-0.14389
  -3   1   5 101043. 1522.18   4 0.78248-0.94425 0.18598-0.04025 0.77895-0.56325
  -3   1   5 101680. 1205.43  10 0.49410-0.65608 0.86791-0.72189 0.17697 0.03905
   3   1  -4 11411.8 316.489   9 0.86013-0.68364-0.48804 0.63399 0.36727-0.52761
   3   1  -4 10864.8 449.937   3 0.69230-0.51630 0.39178-0.24585 0.76714-0.92743
  -3   1   4 11799.4 350.144  10 0.49349-0.67006 0.86846-0.72247 0.17314-0.01266
   3   1  -4 10729.3 472.412   7 0.62116-0.44479-0.74923 0.89509-0.05611-0.10410
  -3   1   4 9988.80 458.776   4 0.71789-0.89422 0.25279-0.10707 0.81449-0.65424
  -3   1   3 663.935 70.5592  10 0.49674-0.68790 0.86529-0.71931 0.19398-0.08903
   3   1  -3 593.655 120.721   3 0.55834-0.36767 0.37300-0.22711 0.86196-0.96672
   3   1  -3 770.332 126.593   7 0.61647-0.42546-0.75710 0.90298-0.04415-0.06052
   3   1  -3 767.194 71.9723   9 0.83793-0.64684-0.34601 0.49199 0.62697-0.73179
   3   1  -2 77116.2 656.757   9 0.61612-0.41044-0.03302 0.17902 0.92120-0.97050
   3   1  -2 72604.9 1043.32   7 0.61403-0.40837-0.76101 0.90692-0.03807-0.01105
  -3   1   2 74202.6 939.043   5 0.49343-0.69882 0.37573-0.22998 0.88686-0.83752
   3   1  -2 74245.8 1110.55   3 0.39010-0.18477 0.33723-0.19138 0.92917-0.97840
  -3   1   1 102271. 1343.96   7 0.09999-0.32000 0.67023-0.52471-0.68294 0.67666
  -3   1   1 107296. 1029.48   5 0.24504-0.46504 0.27725-0.13151 0.96088-0.96706
   3   1  -1 104209. 1122.39   7 0.61557-0.39526-0.75856 0.90450-0.04188 0.04831
   3   1  -1 105667. 1127.56   1 0.44618-0.22637-0.65160 0.79688-0.47637 0.48249
   3   1   0 129641. 1400.54  10-0.04337 0.27822 0.33185-0.18607-0.92048 0.98225
  -3   1   0 132079. 1481.15   7 0.19630-0.43096 0.57808-0.43258-0.71225 0.65043
   3   1   0 129998. 1390.81   1 0.55537-0.32100-0.63299 0.77831-0.37644 0.43808
  -3   1   0 130137. 1488.98   8 0.05713-0.29172 0.35345-0.20764-0.88541 0.82363
  -3   1   0 131950. 1363.28   2-0.30369 0.06908-0.22733 0.37308-0.97268 0.91110
   3   1   0 131805. 1104.60   7 0.62432-0.38937-0.74366 0.88962-0.06440 0.12637
  -3   1   0 135699. 1124.95   5-0.08560-0.14901 0.12388 0.02183 0.93125-0.99295
   3   1   1 12113.5 471.893   1 0.63270-0.38376-0.61103 0.75639-0.29500 0.41215
  -3   1  -1 12712.5 355.242   5-0.39375 0.14453-0.04012 0.18581 0.78234-0.89956
  -3   1  -1 12433.0 485.097   8 0.21380-0.46303 0.32253-0.17675-0.83293 0.71564
   3   1   1 11318.6 432.413  10 0.06766 0.18178 0.49792-0.35212-0.81619 0.93350
  -3   1  -1 12550.7 434.318   2-0.08979-0.15942-0.21558 0.36130-0.96190 0.84479
   3   1   1 12970.5 285.449   7 0.64658-0.39698-0.69565 0.84164-0.13029 0.24781
  -3   1  -1 12303.2 456.044   7 0.28492-0.53422 0.47816-0.33270-0.72632 0.60895
   3   1   2 51360.0 1042.52   1 0.69052-0.42701-0.58853 0.73393-0.22672 0.39939
  -3   1  -2 51125.9 1041.75   8 0.33179-0.59566 0.29279-0.14705-0.77741 0.60460
  -3   1  -2 54278.6 961.945   7 0.36103-0.62497 0.37884-0.23340-0.72688 0.55396
  -3   1  -2 51797.3 930.178   2 0.09352-0.35734-0.19770 0.34338-0.91703 0.74439
   3   1   2 50827.4 954.784  10 0.16082 0.10322 0.62264-0.47682-0.69633 0.86918
   3   1   3 673.515 161.061   1 0.73582-0.45775-0.56628 0.71172-0.16761 0.39580
  -3   1  -3 556.405 127.305   8 0.41722-0.69573 0.26744-0.12173-0.72770 0.49937
   3   1   3 634.150 125.471  10 0.23444 0.04419 0.71058-0.56474-0.57812 0.80650
  -3   1  -3 723.861 131.853   2 0.23451-0.51293-0.17907 0.32472-0.86036 0.63218
  -3   1  -3 518.887 105.799   7 0.42245-0.70104 0.28757-0.14216-0.71785 0.48938
  -3   1  -4 93977.9 1420.94   2 0.33669-0.62971-0.16275 0.30837-0.80644 0.52273
  -3   1  -4 94055.0 1278.63   6 0.28293-0.57600 0.95462-0.80879-0.01687-0.26702
   3   1   4 93840.5 1475.17  10 0.29144 0.00178 0.77091-0.62505-0.46943 0.75335
  -3   1  -4 93756.8 1578.76   8 0.47779-0.77094 0.24728-0.10160-0.68703 0.40319
  -3   1  -4 93300.2 1331.22   7 0.46957-0.76280 0.20909-0.06371-0.70371 0.41969
  -3   1  -5 16622.5 534.621   6 0.22419-0.53187 0.97145-0.82561-0.01733-0.32210
  -3   1  -5 16916.3 715.086   8 0.52007-0.82785 0.23201-0.08637-0.65570 0.31634
  -3   1  -5 17293.0 595.547   7 0.50432-0.81219 0.14526 0.00009-0.68820 0.34864
   3   1   5 16241.7 659.268  10 0.33568-0.02787 0.81189-0.66601-0.37216 0.71161
  -3   1  -6 16726.5 610.141   7 0.52914-0.85165 0.09581 0.04951-0.67383 0.27872
   3   1   6 16207.7 702.905  10 0.37046-0.04805 0.83953-0.69363-0.28554 0.68053
  -3   1  -6 16438.3 744.650   8 0.54893-0.87136 0.22098-0.07537-0.63277 0.23790
   3   1   6 16411.4 768.175   1 0.82958-0.50783-0.50146 0.64702-0.02246 0.41720
  -3   1  -6 17527.3 544.296   6 0.15159-0.47386 0.98672-0.84086-0.01781-0.37716
  -3   1  -7 14290.5 592.499   7 0.54626-0.88342 0.05941 0.08589-0.66196 0.21131
  -3   1  -7 14743.3 494.199   6 0.06314-0.40001 0.99739-0.85151-0.01825-0.43225
  -3   1  -7 14175.0 738.474   8 0.56787-0.90494 0.21345-0.06788-0.61701 0.16662
   3   1   7 13644.2 685.467  10 0.39825-0.06125 0.85787-0.71194-0.20803 0.65856
   3   1   7 14438.9 757.011   1 0.85219-0.51588-0.48013 0.62573 0.01947 0.43079
   3   1   8 47907.5 1356.72  10 0.42082-0.06923 0.86955-0.72361-0.13800 0.64407
  -3   1  -8 45858.4 1392.47   8 0.57929-0.93100 0.20879-0.06325-0.60722 0.10131
  -3   1  -8 47152.7 1121.96   7 0.55749-0.90930 0.03435 0.11092-0.65317 0.14697
   3   1   8 48549.6 1446.26   1 0.87187-0.52099-0.45875 0.60439 0.05938 0.44640
  -3   1  -9 25132.0 859.291   7 0.56415-0.93060 0.01899 0.12625-0.64753 0.08578
  -3   1  -9 23610.3 1049.30   8 0.58488-0.95122 0.20648-0.06098-0.60234 0.04092
   3   1   9 23875.6 1017.32  10 0.43940-0.07322 0.87634-0.73037-0.07407 0.63567
  -3   1 -10 3414.61 338.918   7 0.56717-0.94826 0.01190 0.13331-0.64487 0.02757
  -3   1 -10 3280.71 420.584   8 0.58581-0.96679 0.20609-0.06062-0.60152-0.01541
   3   1  10 3221.65 402.734  10 0.45487-0.07410 0.87937-0.73339-0.01506 0.63220
  -3   1 -11 1756.06 329.429   8 0.58293-0.97854 0.20729-0.06186-0.60405-0.06840
   3   1  11 2092.03 348.487  10 0.46785-0.07248 0.87944-0.73343 0.03993 0.63275
  -3   1 -12 3242.55 455.828   8 0.57681-0.98707 0.20981-0.06441-0.60936-0.11861
   3   1  12 3115.98 441.325  10 0.47879-0.06882 0.87706-0.73104 0.09164 0.63658
  -3   1 -13 2743.12 443.289   8 0.56790-0.99279 0.21344-0.06807-0.61699-0.16650
   3   1  13 2831.41 439.866  10 0.48800-0.06345 0.87261-0.72657 0.14064 0.64311
  -3   1 -14 1833.23 374.015   8 0.55648-0.99602 0.21800-0.07268-0.62656-0.21244
   3   1  14 2032.43 388.561  10 0.49574-0.05659 0.86633-0.72027 0.18740 0.65189
  -3   1 -15 488.802 264.518   8 0.54278-0.99695 0.22338-0.07808-0.63777-0.25675
   3   1  15 1478.67 354.659  10 0.50217-0.04843 0.85840-0.71231 0.23229 0.66254
  -3   1 -16-22.6733 135.040   8 0.52692-0.99573 0.22944-0.08418-0.65037-0.29967
   3   1  16 98.2034 142.602  10 0.50742-0.03909 0.84891-0.70280 0.27560 0.67476
   3   2 -18 948.436 301.785   7 0.67144-0.69994-0.35058 0.64177-0.45251-0.48529
  -3   2  18 964.025 283.995  10 0.51663-0.48895 0.81384-0.52171 0.39231 0.54574
   3   2 -17 2044.48 411.292   7 0.67493-0.68877-0.37785 0.66907-0.43315-0.44910
  -3   2  17 1730.52 367.534  10 0.51469-0.50159 0.82576-0.53365 0.35768 0.52484
  -3   2  16 3347.13 483.825  10 0.51200-0.51350 0.83658-0.54449 0.32235 0.50463
   3   2 -16 2440.31 434.743   7 0.67752-0.67672-0.40319 0.69444-0.41444-0.41226
  -3   2  15 1387.90 307.163  10 0.50856-0.52465 0.84631-0.55424 0.28618 0.48526
   3   2 -15 1909.77 370.474   7 0.67934-0.66390-0.42662 0.71790-0.39649-0.37467
  -3   2  14 2029.66 355.332  10 0.50431-0.53499 0.85496-0.56291 0.24897 0.46693
   3   2 -14 2296.80 403.776   7 0.68049-0.65041-0.44814 0.73944-0.37943-0.33618
  -3   2  13 1922.02 339.817  10 0.49917-0.54444 0.86249-0.57046 0.21048 0.44989
   3   2 -13 2717.46 414.745   7 0.68110-0.63637-0.46772 0.75905-0.36341-0.29665
   3   2 -12 18993.9 846.049   9 0.49561-0.43577-0.60779 0.89948-0.46816-0.13633
  -3   2  12 17500.8 900.136  10 0.49304-0.55291 0.86886-0.57685 0.17035 0.43448
   3   2 -11 25815.5 1138.88   7 0.68110-0.60708-0.50068 0.79206-0.33529-0.21368
  -3   2  11 27766.2 1067.80  10 0.48576-0.56022 0.87395-0.58197 0.12815 0.42115
   3   2 -11 28616.2 966.039   9 0.50624-0.43180-0.60975 0.90146-0.45514-0.09383
   3   2 -10 4329.49 351.579   9 0.51346-0.42443-0.61101 0.90274-0.44614-0.04730
   3   2 -10 4438.22 466.140   7 0.68072-0.59207-0.51375 0.80517-0.32372-0.16970
  -3   2  10 4319.37 399.933  10 0.47709-0.56614 0.87761-0.58564 0.08322 0.41054
   3   2  -9 10421.5 498.397   9 0.51592-0.41229-0.61143 0.90317-0.44306 0.00514
   3   2  -9 10604.8 675.921   7 0.68026-0.57696-0.52422 0.81566-0.31427-0.12360
  -3   2   9 10258.4 576.394  10 0.46667-0.57031 0.87955-0.58760 0.03466 0.40356
   3   2  -8 19277.8 610.313   9 0.51100-0.39278-0.61059 0.90235-0.44922 0.06682
   3   2  -8 17331.5 823.864   7 0.67984-0.56190-0.53170 0.82317-0.30742-0.07491
  -3   2   8 17025.9 691.686  10 0.45392-0.57216 0.87927-0.58734-0.01887 0.40155
   3   2  -7 32774.6 703.703   9 0.49326-0.36044-0.60734 0.89912-0.47101 0.14414
  -3   2   7 33956.5 907.354  10 0.43792-0.57075 0.87591-0.58400-0.07941 0.40655
   3   2  -7 32191.4 1069.76   7 0.67959-0.54700-0.53563 0.82713-0.30379-0.02300
   3   2  -6 12008.3 361.831   9 0.44892-0.30151-0.59786 0.88966-0.52260 0.25126
  -3   2   6 11263.8 603.688   4 0.81271-0.95989 0.15011 0.14135 0.75672-0.48553
   3   2  -6 11365.4 610.033   7 0.67962-0.53238-0.53520 0.82672-0.30418 0.03295
  -3   2   6 11837.0 491.317  10 0.41707-0.56449 0.86784-0.57596-0.15018 0.42179
   3   2  -5 531.748 128.361   3 0.74463-0.58322 0.39559-0.10395 0.71505-0.93098
   3   2  -5 672.905 156.506   7 0.67999-0.51811-0.52920 0.82075-0.30972 0.09403
  -3   2   5 517.627 102.685  10 0.38844-0.55045 0.85183-0.55996-0.23638 0.45245
   3   2  -4 76105.3 1402.80   7 0.68065-0.50413-0.51579 0.80737-0.32189 0.16175
  -3   2   4 74120.9 1015.32  10 0.34646-0.52307 0.82094-0.52909-0.34638 0.50691
   3   2  -4 73454.7 1218.56   3 0.63607-0.46001 0.38524-0.09364 0.81264-0.97303
  -3   2   3 93084.1 1016.19  10 0.28023-0.47143 0.75965-0.46783-0.49217 0.59717
   3   2  -3 88407.7 1321.24   3 0.49793-0.30720 0.36145-0.06989 0.89159-0.99646
   3   2  -3 89476.9 1432.27   7 0.68123-0.49006-0.49208 0.78369-0.34277 0.23817
  -3   2   3 89696.7 1524.41   7 0.07173-0.26230 0.69428-0.40298-0.67179 0.77667
  -3   2   3 90585.0 1512.92   4 0.65882-0.84969 0.30530-0.01389 0.83656-0.73172
  -3   2   2 238628. 2386.01   4 0.57145-0.77688 0.37209-0.08069 0.85596-0.80658
  -3   2   2 245253. 1493.62  10 0.17091-0.37671 0.63529-0.34348-0.68144 0.73090
   3   2  -2 237382. 2171.07   3 0.33836-0.13297 0.32420-0.03268 0.94118-0.99051
   3   2  -2 231367. 2150.27   7 0.68070-0.47489-0.45334 0.74497-0.37522 0.32617
  -3   2   2 235462. 2427.22   7 0.14951-0.35473 0.62487-0.33359-0.69973 0.74907
  -3   2   1 36249.6 802.001   8-0.04668-0.17324 0.36886-0.07713-0.90756 0.90139
  -3   2   1 37684.3 513.589   5 0.31557-0.53550 0.30688-0.01532 0.94944-0.95557
   3   2  -1 35256.5 769.207   7 0.67641-0.45596-0.39155 0.68322-0.42312 0.42962
   3   2  -1 36105.7 917.068  10-0.14471 0.36493 0.16392 0.12769-0.97947 0.98576
  -3   2   1 35925.6 947.212   7 0.22276-0.44262 0.54986-0.25861-0.71783 0.71162
   3   2  -1 36743.6 704.401   1 0.87272-0.65313-0.45776 0.74872 0.06119-0.05496
  -3   2   1 36388.1 556.834  10 0.00405-0.22443 0.40503-0.11324-0.88093 0.87485
  -3   2   1 36359.9 913.793   4 0.46243-0.68242 0.44165-0.15027 0.86342-0.86950
   3   2   0 1377.66 142.666   7 0.66179-0.42669-0.29260 0.58430-0.49114 0.55319
  -3   2   0 1368.17 79.7064   5-0.24941 0.01487 0.03944 0.25210 0.86786-0.92949
  -3   2   0 1404.90 171.648   8 0.12552-0.36007 0.34111-0.04941-0.86536 0.80368
  -3   2   0 1451.14 202.679   7 0.28914-0.52364 0.47300-0.18179-0.72665 0.66489
   3   2   0 1586.81 197.680  10-0.06692 0.30173 0.29425-0.00262-0.93735 0.99917
   3   2   0 1508.87 166.336   1 0.87009-0.63593-0.46082 0.75182 0.05560 0.00614
  -3   2   0 1353.69 180.809   4 0.33353-0.56807 0.50861-0.21724 0.85365-0.91517
  -3   2  -1 18182.9 629.793   8 0.25999-0.50918 0.31158-0.01992-0.81291 0.69571
   3   2   1 18463.6 675.433  10 0.01083 0.23857 0.41522-0.12357-0.87466 0.99203
   3   2   1 18337.1 452.631   7 0.62025-0.37052-0.13102 0.42274-0.58243 0.70003
  -3   2  -1 17953.0 677.139   7 0.34709-0.59624 0.39807-0.10688-0.72768 0.61037
  -3   2  -1 17515.1 494.687   2-0.37497 0.12567-0.22886 0.52019-0.96545 0.84842
   3   2   1 18038.1 612.729   1 0.87281-0.62409-0.45765 0.74869 0.06138 0.05588
  -3   2  -2 3531.41 297.323   8 0.36037-0.62420 0.28469 0.00693-0.76172 0.58900
   3   2   2 3532.68 171.590   7 0.50849-0.24411 0.13720 0.15455-0.68599 0.85913
   3   2   2 3313.64 290.091   1 0.87844-0.61516-0.45089 0.74197 0.07358 0.09920
  -3   2  -2 3318.65 299.081   7 0.39600-0.65979 0.32825-0.03709-0.72291 0.55007
   3   2   2 3777.14 318.634  10 0.08409 0.17991 0.52092-0.22925-0.79727 0.97017
  -3   2  -2 3385.29 231.653   2-0.16824-0.09566-0.22107 0.51236-0.97122 0.79866
  -3   2  -3 39385.3 809.349   2 0.01092-0.28942-0.20663 0.49789-0.94122 0.71313
   3   2   3 37487.6 435.639   7 0.21049 0.06853 0.56310-0.27133-0.71538 0.94407
  -3   2  -3 38482.3 1029.37   8 0.43357-0.71204 0.26218 0.02940-0.71719 0.48896
  -3   2  -3 39951.4 1042.18   7 0.43603-0.71447 0.26578 0.02535-0.71449 0.48609
   3   2   3 40434.7 1057.49  10 0.15006 0.12853 0.60896-0.31727-0.71178 0.94022
  -3   2  -4 7007.20 368.801   2 0.15062-0.44372-0.19068 0.48190-0.89646 0.61284
   3   2   4 6896.06 462.953  10 0.20768 0.08550 0.67981-0.38810-0.62373 0.90771
  -3   2  -4 6662.00 454.866   8 0.48622-0.77932 0.24432 0.04724-0.68099 0.39724
  -3   2  -4 7662.14 471.606   7 0.46796-0.76104 0.21191 0.07919-0.70431 0.42037
  -3   2  -5 15837.9 593.127   2 0.25350-0.56121-0.17623 0.46742-0.85119 0.51203
  -3   2  -5 15623.3 732.643   8 0.52357-0.83132 0.23070 0.06082-0.65298 0.31372
   3   2   5 15410.5 714.475  10 0.25710 0.05067 0.73546-0.44373-0.53691 0.87642
  -3   2  -5 14667.4 665.224   7 0.49281-0.80053 0.16705 0.12403-0.69388 0.35439
  -3   2  -6 3315.47 365.272   8 0.54951-0.87189 0.22075 0.07073-0.63230 0.23752
  -3   2  -6 3344.55 331.929   7 0.51166-0.83403 0.13099 0.16006-0.68426 0.28922
   3   2   6 3275.05 354.431  10 0.29912 0.02324 0.77843-0.48667-0.45344 0.84849
  -3   2  -7 23770.6 828.499   2 0.37894-0.71584-0.15526 0.44638-0.78073 0.33051
  -3   2  -7 23604.2 1008.31   8 0.56679-0.90381 0.21388 0.07756-0.61793 0.16763
  -3   2  -7 23074.5 883.921   7 0.52553-0.86255 0.10322 0.18781-0.67611 0.22552
   3   2   7 22469.1 945.473  10 0.33476 0.00220 0.81110-0.51933-0.37431 0.82490
  -3   2  -8 2876.09 384.684   8 0.57738-0.92904 0.20957 0.08184-0.60887 0.10306
  -3   2  -8 2952.48 337.614   7 0.53527-0.88692 0.08301 0.20798-0.66978 0.16365
   3   2   8 3355.92 397.044  10 0.36503-0.01348 0.83552-0.54373-0.29977 0.80588
  -3   2  -9 1298.83 277.697   8 0.58268-0.94898 0.20739 0.08399-0.60427 0.04294
  -3   2  -9 1396.88 243.722   7 0.54154-0.90784 0.06966 0.22131-0.66541 0.10374
   3   2   9 1164.43 259.840  10 0.39081-0.02466 0.85333-0.56152-0.22965 0.79130
  -3   2 -10 195.336 114.004   7 0.54486-0.92581 0.06246 0.22848-0.66300 0.04578
  -3   2 -10 164.241 151.380   8 0.58368-0.96462 0.20697 0.08437-0.60339-0.01345
   3   2  10 63.3358 116.092  10 0.41284-0.03211 0.86580-0.57397-0.16361 0.78080
  -3   2 -11 303.675 154.769   8 0.58111-0.97668 0.20804 0.08327-0.60564-0.06672
   3   2  11 489.560 189.350  10 0.43174-0.03641 0.87390-0.58205-0.10124 0.77397
  -3   2 -11 654.797 192.931   7 0.54562-0.94121 0.06081 0.23010-0.66244-0.01033
  -3   2 -12 2600.88 437.837   8 0.57548-0.98569 0.21036 0.08092-0.61052-0.11736
   3   2  12 3645.10 489.286  10 0.44798-0.03806 0.87836-0.58649-0.04210 0.77037
  -3   2 -13 1619.32 356.579   8 0.56716-0.99202 0.21373 0.07751-0.61761-0.16578
   3   2  13 1607.00 350.154  10 0.46195-0.03744 0.87974-0.58784 0.01419 0.76961
   3   2  14 1718.20 371.676  10 0.47394-0.03484 0.87844-0.58653 0.06801 0.77133
  -3   2 -14 2055.51 414.282   8 0.55644-0.99594 0.21802 0.07319-0.62659-0.21232
  -3   2 -15 4096.98 611.137   8 0.54351-0.99764 0.22309 0.06808-0.63718-0.25725
   3   2  15 4555.02 615.623  10 0.48420-0.03050 0.87478-0.58285 0.11968 0.77520
  -3   2 -16 174.843 161.504   8 0.52850-0.99727 0.22884 0.06229-0.64913-0.30081
   3   2  16 509.244 241.380  10 0.49289-0.02460 0.86898-0.57703 0.16947 0.78095
   3   3 -17 2505.89 468.004   7 0.65789-0.67159-0.27312 0.71007-0.50339-0.37878
  -3   3  17 2404.27 448.771  10 0.50721-0.49416 0.84936-0.41140 0.27371 0.60886
  -3   3  16 939.572 271.133  10 0.50207-0.50361 0.85855-0.42061 0.23150 0.59553
   3   3 -16 801.111 276.705   7 0.66199-0.66105-0.29365 0.73063-0.49047-0.33616
   3   3 -15 581.962 227.127   7 0.66535-0.64976-0.31199 0.74900-0.47859-0.29249
  -3   3  15 148.073 125.449  10 0.49580-0.51194 0.86627-0.42835 0.18783 0.58366
   3   3 -14 7085.37 713.853   7 0.66805-0.63782-0.32807 0.76510-0.46790-0.24763
  -3   3  14 7258.76 669.570  10 0.48831-0.51904 0.87241-0.43451 0.14240 0.57355
  -3   3  13 2572.96 390.355  10 0.47942-0.52474 0.87684-0.43896 0.09485 0.56557
   3   3 -13 2979.88 454.561   7 0.67017-0.62530-0.34177 0.77883-0.45860-0.20139
  -3   3  12 2633.03 374.222  10 0.46891-0.52882 0.87932-0.44146 0.04470 0.56019
   3   3 -12 1939.11 349.933   7 0.67177-0.61225-0.35292 0.79001-0.45088-0.15357
   3   3 -11 8018.12 679.803   7 0.67289-0.59873-0.36129 0.79840-0.44500-0.10390
  -3   3  11 8345.50 619.124  10 0.45646-0.53096 0.87952-0.44168-0.00863 0.55798
   3   3 -10 10391.9 745.812   7 0.67357-0.58477-0.36657 0.80371-0.44125-0.05210
  -3   3  10 10871.5 672.616  10 0.44164-0.53074 0.87694-0.43912-0.06589 0.55970
   3   3  -9 3396.68 416.644   7 0.67379-0.57034-0.36833 0.80550-0.43999 0.00219
  -3   3   9 3547.99 368.235  10 0.42385-0.52753 0.87085-0.43306-0.12803 0.56630
  -3   3   8 20690.6 986.078   4 0.82679-0.94482 0.13209 0.30510 0.74477-0.36263
  -3   3   8 23323.7 874.094  10 0.40222-0.52050 0.86015-0.42237-0.19624 0.57898
   3   3  -8 22074.8 995.721   7 0.67350-0.55541-0.36604 0.80323-0.44163 0.05938
  -3   3   7 26786.5 1082.60   4 0.80733-0.93993 0.15675 0.28042 0.76100-0.43431
   3   3  -7 29337.7 1106.94   7 0.67259-0.53985-0.35894 0.79617-0.44666 0.11995
  -3   3   7 30055.2 935.937  10 0.37554-0.50842 0.84316-0.40540-0.27198 0.59918
  -3   3   6 6212.95 512.992   4 0.78138-0.92854 0.18722 0.24994 0.77968-0.50845
  -3   3   6 6711.23 417.993  10 0.34211-0.48958 0.81734-0.37960-0.35688 0.62854
   3   3  -6 5825.81 483.407   7 0.67080-0.52342-0.34606 0.78331-0.45564 0.18448
   3   3  -5 36474.2 1132.99   7 0.66773-0.50570-0.32608 0.76336-0.46924 0.25362
  -3   3   5 36678.1 1171.81   4 0.74717-0.90889 0.22392 0.21323 0.80011-0.58433
  -3   3   5 39239.7 945.002  10 0.29961-0.46167 0.77890-0.34118-0.45241 0.66854
  -3   3   4 4901.40 420.628   4 0.70262-0.87889 0.26704 0.17009 0.82102-0.66069
  -3   3   4 5088.77 322.689  10 0.24511-0.42176 0.72244-0.28474-0.55902 0.71961
   3   3  -4 5135.41 415.198   7 0.66267-0.48600-0.29724 0.73454-0.48818 0.32811
  -3   3   4 4266.66 393.163   7 0.07668-0.25247 0.69016-0.25310-0.67382 0.83433
   3   3  -3 1097.69 189.899   7 0.65445-0.46314-0.25714 0.69447-0.51318 0.40866
  -3   3   3 669.957 122.630  10 0.17571-0.36695 0.64123-0.20355-0.67422 0.77927
  -3   3   3 672.963 163.468   7 0.14216-0.33259 0.63186-0.19483-0.69747 0.80243
  -3   3   3 808.150 185.291   4 0.64544-0.83628 0.31629 0.12083 0.84045-0.73558
  -3   3   2 5228.72 424.021   7 0.20349-0.40856 0.57054-0.13354-0.71388 0.76329
   3   3  -2 5112.77 373.750   7 0.64118-0.43522-0.20260 0.63996-0.54482 0.49585
  -3   3   2 4862.70 293.618  10 0.09017-0.29601 0.52932-0.09167-0.79003 0.83954
  -3   3   2 5111.95 402.151   4 0.57349-0.77889 0.37065 0.06645 0.85565-0.80623
   3   3  -1 10923.4 603.783  10-0.11420 0.33438 0.21619 0.22127-0.96550 0.97184
  -3   3   1 11678.0 486.403   8-0.04451-0.17537 0.36858 0.06903-0.90720 0.90112
  -3   3   1 11574.8 446.803  10-0.00824-0.21218 0.38638 0.05125-0.89189 0.88587
  -3   3   1 11120.2 622.810   7 0.25950-0.47922 0.50842-0.07144-0.72366 0.71752
  -3   3   1 11380.0 580.169   4 0.48529-0.70525 0.42815 0.00894 0.86318-0.86921
   3   3  -1 11011.5 518.904   7 0.61975-0.39915-0.12944 0.56683-0.58322 0.58979
   3   3   0 30027.4 1002.01  10-0.05599 0.29076 0.31181 0.12567-0.92974 0.99162
  -3   3   0 32315.8 850.708   8 0.11474-0.34926 0.34317 0.09440-0.86881 0.80722
   3   3   0 31764.7 828.827   7 0.58521-0.34997-0.03242 0.46984-0.62727 0.68939
  -3   3   0 30655.2 930.849   4 0.38072-0.61523 0.48581-0.04873 0.85931-0.92079
  -3   3   0 31788.0 746.105  10-0.11037-0.12465 0.22264 0.21498-0.96351 0.90195
  -3   3   0 31856.7 1049.60   7 0.30946-0.54382 0.44761-0.01067-0.72777 0.66608
  -3   3  -1 201.208 101.057   4 0.26164-0.51072 0.53988-0.10282 0.84082-0.95776
  -3   3  -1 202.106 132.848   7 0.35302-0.60203 0.38995 0.04696-0.72739 0.61016
  -3   3  -1 192.040 87.9668   8 0.23882-0.48797 0.31671 0.12083-0.82235 0.70525
   3   3   1 60.4454 82.9359  10 0.00301 0.24636 0.40346 0.03405-0.88188 0.99929
   3   3   1 213.581 77.2482   7 0.52988-0.28000 0.09427 0.34318-0.67334 0.79101
   3   3   2 16798.2 531.717   7 0.44246-0.17793 0.25525 0.18222-0.71271 0.88592
  -3   3  -2 15535.9 665.722   8 0.33261-0.59641 0.29257 0.14493-0.77697 0.60434
  -3   3  -2 15326.6 753.938   7 0.39022-0.65386 0.33685 0.10004-0.72378 0.55100
   3   3   2 15517.2 745.202  10 0.06074 0.20322 0.48811-0.05058-0.82389 0.99685
  -3   3  -3 12889.5 641.555   8 0.40241-0.68084 0.27208 0.16538-0.73693 0.50879
   3   3   3 12924.4 697.432  10 0.11556 0.16298 0.56380-0.12625-0.75842 0.98691
  -3   3  -3 13124.0 705.815   7 0.42137-0.69966 0.28927 0.14759-0.71810 0.48977
  -3   3  -4 20171.1 842.902   8 0.45382-0.74689 0.25548 0.18195-0.70370 0.42004
  -3   3  -4 19711.0 880.946   7 0.44698-0.73992 0.24774 0.18909-0.71137 0.42750
   3   3   4 19198.4 867.878  10 0.16639 0.12675 0.62963-0.19207-0.68817 0.97219
   3   3   5 362.989 150.848  10 0.21264 0.09509 0.68562-0.24804-0.61552 0.95508
  -3   3  -5 341.586 141.075   8 0.49126-0.79897 0.24252 0.19487-0.67733 0.33815
  -3   3  -5 615.135 185.496   7 0.46764-0.77522 0.21246 0.22434-0.70443 0.36501
  -3   3  -6 340.879 162.770   7 0.48395-0.80617 0.18337 0.25341-0.69788 0.30291
  -3   3  -6 125.693 125.768   8 0.51803-0.84038 0.23277 0.20459-0.65726 0.26257
   3   3   6 394.009 161.831  10 0.25419 0.06813 0.73233-0.29473-0.54234 0.93744
  -3   3  -7 6161.18 531.477   7 0.49645-0.83332 0.16022 0.27653-0.69214 0.24163
  -3   3  -7 6393.20 559.569   8 0.53654-0.87353 0.22578 0.21155-0.64277 0.19256
   3   3   7 6585.22 570.438  10 0.29119 0.04572 0.77066-0.33304-0.46995 0.92059
  -3   3  -8 6627.91 599.342   8 0.54855-0.90017 0.22113 0.21616-0.63309 0.12737
  -3   3  -8 5856.51 536.571   7 0.50565-0.85716 0.14270 0.29402-0.68750 0.18145
   3   3   8 6035.73 566.059  10 0.32396 0.02755 0.80161-0.36396-0.39920 0.90538
   3   3   9 21661.6 1095.75  10 0.35288 0.01322 0.82614-0.38847-0.33059 0.89230
  -3   3  -9 19848.4 1071.56   8 0.55531-0.92157 0.21847 0.21879-0.62753 0.06629
  -3   3  -9 21563.9 1037.23   7 0.51194-0.87810 0.13045 0.30625-0.68410 0.12250
   3   3  10 2128.15 378.325  10 0.37837 0.00232 0.84513-0.40745-0.26432 0.88157
  -3   3 -10 1819.02 355.721   8 0.55777-0.93867 0.21749 0.21973-0.62549 0.00873
  -3   3 -10 1787.78 324.071   7 0.51567-0.89647 0.12309 0.31358-0.68200 0.06485
  -3   3 -11 2726.18 443.136   8 0.55662-0.95216 0.21795 0.21924-0.62645-0.04583
   3   3  11 2674.32 426.367  10 0.40080-0.00552 0.85935-0.42164-0.20047 0.87325
  -3   3 -11 1788.26 327.714   7 0.51709-0.91253 0.12027 0.31637-0.68119 0.00849
   3   3  12 1217.05 312.158  10 0.42053-0.01065 0.86942-0.43170-0.13895 0.86727
  -3   3 -12 754.451 269.345   8 0.55235-0.96253 0.21963 0.21752-0.62997-0.09782
  -3   3 -12 1125.48 274.410   7 0.51637-0.92645 0.12170 0.31491-0.68160-0.04664
  -3   3 -13 1066.47 277.971   7 0.51363-0.93836 0.12712 0.30947-0.68316-0.10063
  -3   3 -13 1502.59 376.566   8 0.54535-0.97017 0.22238 0.21474-0.63569-0.14762
   3   3  13 1048.16 298.425  10 0.43786-0.01338 0.87589-0.43815-0.07966 0.86351
  -3   3 -14 3331.04 543.470   8 0.53588-0.97533 0.22603 0.21105-0.64330-0.19552
   3   3  14 2968.28 493.720  10 0.45303-0.01397 0.87916-0.44140-0.02242 0.86181
  -3   4  15 1124.61 341.849   4 0.83264-0.84872 0.12430 0.45870 0.73944 0.03090
  -3   4  15 1339.39 325.553  10 0.48349-0.49967 0.87513-0.29136 0.11593 0.65562
   3   4 -15 1700.81 378.927   7 0.63941-0.62368-0.19598 0.77871-0.54848-0.22253
  -3   4  14 1719.06 414.288   4 0.83274-0.86338 0.12417 0.45882 0.73935-0.02446
  -3   4  14 1414.14 317.787  10 0.47340-0.50417 0.87856-0.29481 0.06546 0.65055
   3   4 -14 1659.64 385.964   7 0.64243-0.61205-0.20734 0.79010-0.54218-0.17329
  -3   4  13 1421.26 362.837   4 0.83102-0.87622 0.12647 0.45650 0.74094-0.08150
  -3   4  13 1162.58 274.929  10 0.46161-0.50697 0.87974-0.29601 0.01277 0.64771
   3   4 -13 1492.19 345.011   7 0.64467-0.59965-0.21604 0.79882-0.53727-0.12264
  -3   4  12 628.886 251.842   4 0.82726-0.88702 0.13146 0.45149 0.74434-0.14036
  -3   4  12 664.666 218.335  10 0.44787-0.50783 0.87834-0.29463-0.04252 0.64745
   3   4 -12 567.008 219.049   7 0.64614-0.58648-0.22187 0.80468-0.53395-0.07042
  -3   4  11 379.688 225.813   4 0.82116-0.89547 0.13941 0.44353 0.74968-0.20115
   3   4 -11 511.656 220.374   7 0.64681-0.57250-0.22457 0.80742-0.53239-0.01643
  -3   4  11 427.818 181.086  10 0.43186-0.50641 0.87394-0.29026-0.10081 0.65021
   3   4 -10 3818.34 502.324   7 0.64663-0.55768-0.22383 0.80670-0.53282 0.03955
  -3   4  10 3134.41 475.313   4 0.81230-0.90118 0.15061 0.43231 0.75705-0.26397
  -3   4  10 3718.90 428.418  10 0.41317-0.50231 0.86597-0.28230-0.16258 0.65644
  -3   4   9 6178.91 619.501   4 0.80017-0.90361 0.16542 0.41749 0.76647-0.32884
   3   4  -9 6007.13 604.356   7 0.64547-0.54188-0.21921 0.80211-0.53546 0.09773
  -3   4   9 6096.72 518.662  10 0.39127-0.49500 0.85363-0.26998-0.22832 0.66664
  -3   4   8 289.665 181.324   4 0.78407-0.90207 0.18417 0.39872 0.77788-0.39571
  -3   4   8 239.876 120.393  10 0.36551-0.48384 0.83589-0.25226-0.29850 0.68129
   3   4  -8 330.931 164.245   7 0.64317-0.52494-0.21021 0.79314-0.54056 0.15838
  -3   4   7 49.5723 138.672   4 0.76314-0.89570 0.20723 0.37565 0.79111-0.46438
   3   4  -7 149.284 120.700   7 0.63946-0.50658-0.19619 0.77914-0.54837 0.22173
  -3   4   6 1881.21 313.591   4 0.73630-0.88342 0.23489 0.34798 0.80575-0.53448
  -3   4   6 1974.02 263.688  10 0.29917-0.44668 0.77848-0.19489-0.45334 0.72505
   3   4  -6 2371.60 342.877   7 0.63396-0.48643-0.17634 0.75932-0.55913 0.28804
  -3   4   5 3558.43 407.059   7 0.05056-0.21155 0.71143-0.12862-0.66270 0.87882
   3   4  -5 3080.11 379.638   7 0.62609-0.46392-0.14971 0.73272-0.57303 0.35749
  -3   4   5 3747.13 344.544  10 0.25676-0.41886 0.73510-0.15153-0.53754 0.75371
  -3   4   5 3829.04 429.912   4 0.70228-0.86396 0.26735 0.31550 0.82116-0.60534
  -3   4   4 14858.3 654.576  10 0.20714-0.38383 0.67917-0.09563-0.62462 0.78526
  -3   4   4 14293.8 799.999   7 0.10860-0.28424 0.66264-0.07986-0.68612 0.84669
   3   4  -4 14717.8 785.713   7 0.61508-0.43827-0.11511 0.69814-0.59021 0.43021
  -3   4   4 12578.9 741.175   4 0.65961-0.83585 0.30464 0.27820 0.83631-0.67595
  -3   4   3 11372.8 558.042  10 0.15007-0.34136 0.60897-0.02545-0.71177 0.81687
   3   4  -3 10646.3 645.172   7 0.59982-0.40836-0.07115 0.65421-0.61061 0.50616
  -3   4   3 10588.9 685.472   7 0.16316-0.35344 0.61162-0.02886-0.70373 0.80876
  -3   4   3 10590.1 663.354   4 0.60674-0.79754 0.34647 0.23636 0.84977-0.74486
   3   4  -2 9149.08 579.631   7 0.57879-0.37269-0.01623 0.59932-0.63388 0.58498
  -3   4   2 8996.75 635.358   7 0.21355-0.41847 0.55983 0.02290-0.71601 0.76550
   3   4  -2 9062.85 637.824  10-0.12235 0.32789 0.20237 0.38092-0.96956 0.92042
  -3   4   2 8458.45 475.523  10 0.08628-0.29216 0.52396 0.05955-0.79467 0.84424
  -3   4   2 8521.40 582.571   4 0.54217-0.74753 0.39211 0.19069 0.85959-0.81014
  -3   4   1 13547.8 784.797   7 0.25928-0.47885 0.50868 0.07402-0.72363 0.71756
   3   4  -1 14330.7 796.502  10-0.07755 0.29769 0.27700 0.30631-0.94435 0.95074
   3   4  -1 15731.6 660.534   3 0.28694-0.06676 0.31043 0.27239 0.94964-0.94365
  -3   4   1 14731.3 624.161  10 0.01782-0.23829 0.42565 0.15783-0.86805 0.86208
   3   4  -1 14400.2 693.679   7 0.54991-0.32917 0.05138 0.53174-0.65920 0.66584
  -3   4   1 13811.4 716.746   4 0.46475-0.68468 0.44030 0.14249 0.86343-0.86942
   3   4   0 18614.6 908.460  10-0.03093 0.26566 0.35137 0.23196-0.91082 0.97275
   3   4   0 19157.6 771.208   7 0.51045-0.27507 0.13337 0.44978-0.68493 0.74712
  -3   4   0 18965.6 937.456   7 0.30012-0.53433 0.45940 0.12327-0.72735 0.66574
  -3   4   0 19078.9 712.843  10-0.05204-0.18302 0.31810 0.26537-0.92691 0.86540
  -3   4   0 19296.6 826.843   4 0.37404-0.60852 0.48915 0.09363 0.85865-0.92009
  -3   4  -1 16413.8 752.507   4 0.27064-0.51968 0.53619 0.04658 0.84270-0.95960
  -3   4  -1 16896.3 701.932   8 0.16579-0.41490 0.33301 0.25041-0.85150 0.73448
   3   4   1 14941.9 822.674  10 0.01644 0.23288 0.42360 0.15975-0.86937 0.98684
  -3   4  -1 15627.3 654.345  10-0.11945-0.13020 0.20729 0.37615-0.96815 0.85110
   3   4   1 16457.2 688.829   7 0.45692-0.20689 0.23099 0.35218-0.70821 0.82595
  -3   4  -1 15050.0 841.315   7 0.33602-0.58488 0.41300 0.16964-0.72801 0.61085
  -3   4  -2 10302.8 580.802   8 0.26079-0.52454 0.31138 0.27200-0.81255 0.64001
   3   4   2 9691.78 673.063  10 0.06348 0.20043 0.49201 0.09136-0.82086 0.99386
  -3   4  -2 10013.2 702.235   7 0.36712-0.63062 0.37027 0.21234-0.72640 0.55370
  -3   4  -3 2569.00 314.601   8 0.33309-0.61148 0.29243 0.29091-0.77671 0.54866
   3   4   3 2382.55 354.993  10 0.10924 0.16926 0.55531 0.02808-0.76650 0.99504
  -3   4  -3 2179.35 345.374   7 0.39366-0.67180 0.33174 0.25085-0.72327 0.49502
  -3   4  -4 1231.17 233.098   8 0.38771-0.68074 0.27659 0.30672-0.74584 0.46227
   3   4   4 1245.44 267.430  10 0.15296 0.14013 0.61267-0.02926-0.70766 0.99173
  -3   4  -4 1165.03 276.684   7 0.41597-0.70876 0.29773 0.28483-0.71927 0.43547
   3   4   5 5950.25 554.765  10 0.19411 0.11358 0.66366-0.08023-0.64569 0.98530
  -3   4  -5 5911.84 520.360   8 0.42861-0.73628 0.26379 0.31948-0.72041 0.38133
  -3   4  -5 6708.27 611.781   7 0.43443-0.74186 0.26839 0.31415-0.71492 0.37557
  -3   4  -6 10185.8 757.591   7 0.44939-0.77147 0.24372 0.33879-0.71064 0.31575
  -3   4  -6 11242.4 748.268   8 0.45884-0.78114 0.25379 0.32945-0.70028 0.30568
   3   4   6 10820.3 767.482  10 0.23235 0.08994 0.70822-0.12477-0.58181 0.97696
  -3   4  -7 425.711 186.049   8 0.48063-0.81757 0.24628 0.33692-0.68501 0.23490
   3   4   7 536.372 211.128  10 0.26754 0.06933 0.74654-0.16307-0.51705 0.96774
  -3   4  -7 614.402 236.518   7 0.46121-0.79793 0.22363 0.35884-0.70675 0.25631
  -3   4  -8 552.725 211.217   8 0.49568-0.84726 0.24094 0.34223-0.67409 0.16846
   3   4   8 622.734 228.718  10 0.29970 0.05177 0.77899-0.19550-0.45222 0.95845
  -3   4  -8 500.616 200.765   7 0.47020-0.82156 0.20798 0.37447-0.70347 0.19748
  -3   4  -9 466.914 196.969   7 0.47663-0.84264 0.19657 0.38586-0.70094 0.13941
  -3   4  -9 908.663 258.666   8 0.50524-0.87146 0.23748 0.34565-0.66698 0.10583
   3   4   9 503.337 204.800  10 0.32891 0.03715 0.80600-0.22249-0.38790 0.94966
   3   4  10 1111.44 302.618  10 0.35532 0.02533 0.82807-0.24453-0.32450 0.94180
  -3   4 -10 965.048 277.142   8 0.51024-0.89110 0.23565 0.34745-0.66321 0.04655
  -3   4 -10 1031.84 290.010   7 0.48074-0.86139 0.18919 0.39320-0.69925 0.08217
  -3   4 -11 1511.88 355.558   8 0.51138-0.90688 0.23523 0.34783-0.66235-0.00984
  -3   4 -11 1497.10 348.911   7 0.48269-0.87798 0.18566 0.39671-0.69842 0.02580
   3   4  11 1542.07 342.738  10 0.37912 0.01613 0.84564-0.26209-0.26229 0.93513
  -3   4 -12 4605.71 615.115   8 0.50920-0.91933 0.23604 0.34699-0.66400-0.06369
  -3   4 -12 4083.08 547.946   7 0.48262-0.89255 0.18579 0.39655-0.69845-0.02972
   3   4  12 3783.91 565.645  10 0.40048 0.00935 0.85916-0.27559-0.20142 0.92979
  -3   4 -13 1207.32 327.376   7 0.48062-0.90520 0.18941 0.39290-0.69930-0.08442
  -3   4 -13 1351.31 357.720   8 0.50407-0.92885 0.23791 0.34508-0.66786-0.11536
   3   4  13 1806.58 413.696  10 0.41961 0.00481 0.86901-0.28542-0.14195 0.92586
  -3   5  13 2376.56 470.914   4 0.78572-0.83089 0.18230 0.54638 0.77677-0.11729
   3   5 -13 2110.15 441.712   7 0.60747-0.56230-0.09268 0.82120-0.60081-0.05903
  -3   5  12 742.707 312.078   4 0.78038-0.84010 0.18835 0.54031 0.78035-0.17632
   3   5 -12 1029.96 321.600   7 0.60810-0.54829-0.09450 0.82304-0.59997-0.00433
  -3   5  11 1220.97 327.283   4 0.77249-0.84678 0.19710 0.53155 0.78541-0.23684
   3   5 -11 897.421 285.148   7 0.60762-0.53316-0.09310 0.82167-0.60062 0.05187
  -3   5  10 2054.42 418.755   4 0.76169-0.85054 0.20877 0.51986 0.79196-0.29884
   3   5 -10 1765.91 385.815   7 0.60591-0.51681-0.08820 0.81680-0.60288 0.10968
  -3   5   9 322.374 229.963   4 0.74749-0.85090 0.22360 0.50502 0.79994-0.36227
   3   5  -9 467.328 219.606   7 0.60281-0.49907-0.07946 0.80809-0.60687 0.16921
  -3   5   8 2565.92 426.078   4 0.72930-0.84727 0.24179 0.48682 0.80919-0.42698
   3   5  -8 2858.34 449.033   7 0.59811-0.47973-0.06648 0.79513-0.61268 0.23057
  -3   5   7 7090.14 676.404   4 0.70640-0.83893 0.26355 0.46504 0.81946-0.49270
   3   5  -7 6459.94 646.371   7 0.59151-0.45848-0.04877 0.77745-0.62039 0.29382
   3   5  -6 10299.1 784.518   7 0.58260-0.43493-0.02578 0.75449-0.63001 0.35899
  -3   5   6 8962.86 738.845   4 0.67795-0.82504 0.28904 0.43953 0.83032-0.55901
  -3   5   5 354.204 182.314   7 0.05920-0.22005 0.70451 0.02403-0.66649 0.88268
  -3   5   5 71.0049 120.634   4 0.64294-0.80459 0.31831 0.41025 0.84114-0.62529
   3   5  -5 206.843 142.320   7 0.57086-0.40854 0.00311 0.72563-0.64150 0.42603
   3   5  -4 2618.35 396.329  10-0.14385 0.32017 0.16541 0.56369-0.97913 0.81896
  -3   5   4 2101.97 352.830   4 0.60030-0.77651 0.35127 0.37728 0.85105-0.69065
  -3   5   4 2154.91 355.479   7 0.10966-0.28515 0.66170 0.06681-0.68650 0.84715
   3   5  -4 2161.98 345.382   7 0.55562-0.37866 0.03859 0.69017-0.65469 0.49477
  -3   5   3-61.5826 122.674   7 0.15671-0.34685 0.61792 0.11057-0.70188 0.80698
  -3   5   3 38.7234 112.255   4 0.54890-0.73967 0.38761 0.34093 0.85887-0.75392
   3   5  -3-130.567 128.803  10-0.11035 0.30126 0.22267 0.50645-0.96350 0.85887
   3   5  -3 19.1904 95.7106   7 0.53603-0.34442 0.08141 0.64738-0.66926 0.56488
  -3   5   2-179.128 128.284   4 0.48764-0.69297 0.42673 0.30179 0.86311-0.81361
   3   5  -2 155.049 133.049  10-0.07456 0.28006 0.28188 0.44726-0.94241 0.89332
  -3   5   2 174.077 134.620   7 0.20002-0.40480 0.57418 0.15427-0.71311 0.76266
   3   5  -2 15.9270 107.608   7 0.51099-0.30474 0.13231 0.59650-0.68463 0.63580
   3   5  -1 4494.47 506.109  10-0.03695 0.25704 0.34196 0.38720-0.91556 0.92200
  -3   5   1 3842.75 438.926   4 0.41567-0.63556 0.46768 0.26083 0.86199-0.86794
   3   5  -1 4773.11 465.429   7 0.47919-0.25830 0.19199 0.53686-0.69989 0.70661
  -3   5   1 4374.40 507.276   7 0.23939-0.45881 0.53143 0.19700-0.72075 0.71476
  -3   5   0 5621.04 590.049   7 0.27473-0.50880 0.49045 0.23795-0.72539 0.66385
   3   5   0 4684.65 523.003  10 0.00189 0.23279 0.40178 0.32740-0.88289 0.94487
  -3   5   0 5784.93 501.722   4 0.33252-0.56697 0.50907 0.21941 0.85350-0.91491
  -3   5  -1 11217.2 827.324   7 0.30609-0.55480 0.45189 0.27648-0.72764 0.61055
   3   5   1 10986.0 794.045  10 0.04134 0.20793 0.46023 0.26897-0.84461 0.96213
   3   5   2 368.410 176.896  10 0.08077 0.18310 0.51630 0.21292-0.80117 0.97423
  -3   5  -2 294.973 188.323   7 0.33358-0.59693 0.41626 0.31209-0.72804 0.55541
   3   5   3 24602.3 1209.66  10 0.11958 0.15888 0.56915 0.16009-0.75322 0.98181
  -3   5  -3 25213.6 1263.94   7 0.35739-0.63539 0.38391 0.34440-0.72713 0.49895
  -3   5  -4-330.509 185.690   7 0.37774-0.67038 0.35509 0.37320-0.72535 0.44163
   3   5   4 45.7875 108.185  10 0.15727 0.13579 0.61814 0.11112-0.70149 0.98562
   3   5   5 1423.45 317.105  10 0.19342 0.11423 0.66284 0.06645-0.64677 0.98644
  -3   5  -5 1059.99 288.650   7 0.39487-0.70216 0.32993 0.39833-0.72309 0.38382
   3   5   6 528.325 201.030  10 0.22774 0.09450 0.70301 0.02629-0.58985 0.98505
  -3   5  -6 521.802 222.005   7 0.40904-0.73097 0.30847 0.41977-0.72065 0.32584
   3   5   7 98.1213 133.378  10 0.26002 0.07681 0.73859-0.00927-0.53141 0.98215
  -3   5  -7-5.91243 134.063   7 0.42047-0.75705 0.29069 0.43752-0.71830 0.26793
  -3   5  -8 5834.63 609.136   8 0.41853-0.77008 0.26702 0.46203-0.72687 0.22133
  -3   5  -8 4967.45 622.569   7 0.42938-0.78060 0.27653 0.45165-0.71620 0.21029
   3   5   8 4947.95 602.238  10 0.29016 0.06126 0.76964-0.04030-0.47207 0.97835
  -3   5  -9 1000.85 301.796   8 0.43213-0.79831 0.26265 0.46636-0.71813 0.15707
   3   5   9 1366.05 338.924  10 0.31811 0.04790 0.79631-0.06695-0.41233 0.97415
  -3   5  -9 1324.99 357.111   7 0.43596-0.80183 0.26590 0.46226-0.71451 0.15305
  -3   5 -10 4610.06 589.859   8 0.44070-0.82152 0.25985 0.46913-0.71250 0.09593
  -3   5 -10 4386.98 603.170   7 0.44037-0.82088 0.25869 0.46944-0.71330 0.09629
   3   5  10 4495.70 611.449  10 0.34389 0.03672 0.81882-0.08944-0.35260 0.96995
  -3   5 -11 6.68312 108.003   8 0.44500-0.84045 0.25843 0.47051-0.70964 0.03756
  -3   5 -11 374.624 225.293   7 0.44274-0.83789 0.25479 0.47331-0.71263 0.04007
  -3   6  10 518.954 258.125   4 0.69827-0.78709 0.27100 0.60334 0.82277-0.32961
   3   6  -9 902.892 305.877   7 0.54980-0.44591 0.05163 0.82272-0.65929 0.22170
  -3   6   9 1661.62 395.836   4 0.68178-0.78516 0.28570 0.58863 0.82897-0.39126
  -3   6   8 2826.49 493.749   4 0.66123-0.77917 0.30329 0.57102 0.83581-0.45356
   3   6  -8 2416.46 458.616   7 0.54290-0.42437 0.06672 0.80766-0.66443 0.28239
  -3   6   7 183.288 172.189   4 0.63600-0.76850 0.32386 0.55043 0.84299-0.51619
   3   6  -7 505.426 211.457   7 0.53382-0.40065 0.08605 0.78836-0.67075 0.34426
   3   6  -6 242.540 171.417  10-0.13886 0.28595 0.17405 0.70086-0.97706 0.70587
  -3   6   6 81.1434 152.421   4 0.60540-0.75246 0.34747 0.52682 0.85004-0.57869
   3   6  -6 298.243 180.596   7 0.52221-0.37439 0.10998 0.76445-0.67815 0.40721
  -3   6   5 28.6825 132.107   4 0.56863-0.73025 0.37406 0.50021 0.85636-0.64047
   3   6  -5 343.005 186.777  10-0.11338 0.27506 0.21758 0.65735-0.96507 0.74943
  -3   6   5 409.195 199.922   7 0.04580-0.20650 0.71518 0.15908-0.66057 0.87684
  -3   6   4 2091.33 397.550   7 0.09086-0.26621 0.67814 0.19610-0.67946 0.84019
   3   6  -4 2345.78 427.747  10-0.08583 0.26210 0.26345 0.61150-0.94953 0.78942
   3   6  -4 2832.85 442.997   7 0.48951-0.31240 0.17317 0.70132-0.69541 0.53556
  -3   6   3 1105.02 297.424   7 0.13279-0.32278 0.64065 0.23356-0.69446 0.79964
   3   6  -3 625.356 217.612   7 0.46723-0.27548 0.21319 0.66132-0.70458 0.60028
   3   6  -3 560.766 223.385  10-0.05642 0.24728 0.31113 0.56384-0.93005 0.82548
   3   6  -2 3237.57 474.337  10-0.02541 0.23087 0.35996 0.51503-0.90637 0.85734
  -3   6   2 2875.31 473.098   7 0.17141-0.37604 0.60345 0.27073-0.70601 0.75564
  -3   6   1 2908.13 476.906   7 0.20663-0.42591 0.56722 0.30694-0.71456 0.70864
   3   6  -1 2061.76 393.772  10 0.00685 0.21320 0.40925 0.46576-0.87836 0.88486
  -3   6   0 274.216 168.199   7 0.23844-0.47236 0.53250 0.34163-0.72059 0.65913
   3   6   0-151.553 146.806  10 0.04000 0.19465 0.45827 0.41676-0.84600 0.90803
  -3   6  -1 4091.60 563.515   7 0.26688-0.51544 0.49978 0.37432-0.72455 0.60754
   3   6   1 3661.00 509.546  10 0.07362 0.17561 0.50631 0.36874-0.80943 0.92701
  -3   6  -2 408.740 193.708   7 0.29205-0.55526 0.46942 0.40466-0.72686 0.55430
   3   6   2 659.509 230.472  10 0.10732 0.15651 0.55272 0.32235-0.76893 0.94204
  -3   6  -3 2465.64 454.111   7 0.31410-0.59195 0.44169 0.43236-0.72791 0.49981
   3   6   3 2676.43 441.749  10 0.14071 0.13771 0.59691 0.27818-0.72485 0.95350
  -3   6  -4 1620.90 401.736   7 0.33318-0.62568 0.41679 0.45723-0.72805 0.44440
   3   6   4 2740.85 446.506  10 0.17344 0.11958 0.63842 0.23669-0.67765 0.96183
  -3   6  -5 734.183 279.828   7 0.34946-0.65660 0.39484 0.47915-0.72757 0.38837
   3   6   5 972.968 310.002  10 0.20520 0.10241 0.67688 0.19825-0.62780 0.96752
   3   6   6 1371.65 345.053  10 0.23575 0.08645 0.71205 0.16310-0.57581 0.97106
  -3   6  -6 1331.93 347.962   7 0.36311-0.68489 0.37592 0.49804-0.72673 0.33198
   3   6   7 200.516 161.867  10 0.26490 0.07189 0.74377 0.13141-0.52213 0.97292
  -3   6  -7 224.682 230.988   7 0.37430-0.71072 0.36005 0.51389-0.72572 0.27543
  -3   7   3-20.1377 72.9105   7 0.09589-0.28574 0.67380 0.34614-0.68140 0.78664
  -3   7   2 557.673 239.954   7 0.13133-0.33582 0.64200 0.37791-0.69398 0.74369
  -3   7   1 636.875 250.885   7 0.16376-0.38289 0.61103 0.40886-0.70390 0.69805
   4  -6 -10 464.264 250.852   9 0.85487-0.68836-0.51017-0.36505 0.31276-0.78601
   4  -6  -9 828.382 287.080   9 0.85989-0.67879-0.48947-0.38574 0.36389-0.78163
  -4  -6   9 1196.28 338.102  11 0.38963-0.57156-0.17123-0.70356 0.97547-0.55857
   4  -6  -8 3813.41 557.164   9 0.86225-0.66656-0.46673-0.40845 0.41499-0.77720
  -4  -6   8 3748.61 587.102  11 0.38096-0.57752-0.20855-0.66627 0.96916-0.60780
   4  -6  -7 1728.65 381.727   9 0.86176-0.65148-0.44193-0.43324 0.46580-0.77248
  -4  -6   7 2302.40 471.829  11 0.37081-0.58200-0.24907-0.62578 0.96060-0.65478
   4  -6  -6 4618.47 576.722   9 0.85824-0.63336-0.41506-0.46009 0.51602-0.76718
  -4  -6   6 4839.76 635.770  11 0.35908-0.58489-0.29247-0.58242 0.94939-0.69912
   4  -6  -5 9155.42 796.346   9 0.85153-0.61206-0.38618-0.48895 0.56530-0.76093
   4  -6  -5 8251.66 766.020  11 0.20909 0.03070-0.67163-0.20338 0.74035-0.93609
  -4  -6   5 9110.26 875.480  11 0.34566-0.58610-0.33833-0.53659 0.93517-0.74044
   4  -6  -4 1141.44 284.270   9 0.84152-0.58745-0.35541-0.51971 0.61320-0.75331
   4  -6  -4 1136.01 287.347  11 0.23806 0.01635-0.61548-0.25950 0.78715-0.92734
  -4  -6   4 1557.79 381.790  11 0.33050-0.58557-0.38613-0.48883 0.91760-0.77842
  -4  -6   3 450.062 222.286  11 0.31359-0.58329-0.43528-0.43970 0.89644-0.81280
   4  -6  -3 295.768 144.951  11 0.26539 0.00365-0.55656-0.31838 0.82904-0.91369
   4  -6  -2 3887.42 525.525  11 0.29074-0.00707-0.49590-0.37901 0.86564-0.89475
  -4  -6   2 3683.13 562.377  11 0.29496-0.57929-0.48514-0.38988 0.87151-0.84342
   4  -6  -1 73.6510 103.629  11 0.31385-0.01556-0.43456-0.44032 0.89677-0.87033
  -4  -6   1-52.1077 126.807  11 0.27470-0.57365-0.53501-0.34004 0.84276-0.87020
   4  -6   0 177.748 143.376  11 0.33458-0.02166-0.37366-0.50119 0.92246-0.84048
  -4  -6   0 26.7683 173.059  11 0.25292-0.56650-0.58422-0.29086 0.81021-0.89321
  -4  -6  -1 1087.75 312.693  11 0.22980-0.55800-0.63211-0.24300 0.77404-0.91258
   4  -6   1 1008.69 283.179  11 0.35285-0.02530-0.31422-0.56059 0.94296-0.80543
   4  -6   2 2179.47 430.734  11 0.36869-0.02651-0.25719-0.61759 0.95866-0.76559
  -4  -6  -2 2707.71 489.138  11 0.20554-0.54837-0.67810-0.19705 0.73447-0.92855
   4  -6   3 113.506 134.776  11 0.38221-0.02541-0.20333-0.67142 0.97013-0.72151
  -4  -6  -3-348.668 213.706  11 0.18035-0.53780-0.72167-0.15351 0.69182-0.94145
  -4  -6  -4 489.280 236.212  11 0.15445-0.52653-0.76240-0.11281 0.64646-0.95163
   4  -6   4 543.340 239.456  11 0.39359-0.02216-0.15322-0.72150 0.97798-0.67382
   4  -6   5 2577.76 466.755  11 0.40302-0.01697-0.10728-0.76741 0.98286-0.62316
  -4  -6  -5 2534.10 496.608  11 0.12806-0.51477-0.79999-0.07525 0.59877-0.95949
   4  -6   6 1539.41 371.525  11 0.41076-0.01008-0.06575-0.80890 0.98540-0.57015
  -4  -6  -6 2357.22 470.653  11 0.10139-0.50273-0.83422-0.04106 0.54915-0.96541
   4  -6   7 479.816 173.466  11 0.41702-0.00171-0.02873-0.84589 0.98618-0.51538
   4  -5 -13 136.477 146.787   9 0.83550-0.71267-0.54862-0.18079 0.20165-0.84143
  -4  -5  13 307.322 191.606  11 0.43177-0.55514 0.07822-0.80706 0.98062-0.34146
   4  -5 -12 1126.88 320.879   9 0.84625-0.70883-0.53111-0.19827 0.25534-0.83960
  -4  -5  12 1381.54 358.991  11 0.42880-0.56680 0.05349-0.78236 0.98294-0.39932
   4  -5 -11 773.168 281.821   9 0.85449-0.70248-0.51133-0.21804 0.30974-0.83847
  -4  -5  11 574.813 231.721  11 0.42494-0.57757 0.02423-0.75313 0.98488-0.45680
   4  -5 -10 4490.84 596.675   9 0.85995-0.69334-0.48912-0.24023 0.36472-0.83792
  -4  -5  10 3672.56 532.824  11 0.42001-0.58726-0.00968-0.71926 0.98604-0.51350
   4  -5  -9 2974.72 471.404   9 0.86233-0.68113-0.46435-0.26498 0.42007-0.83776
  -4  -5   9 2801.50 481.838  11 0.41378-0.59566-0.04830-0.68066 0.98594-0.56895
   4  -5  -9 2904.37 425.737  11 0.07902 0.10232-0.86013 0.13082 0.50648-0.92430
  -4  -5   8 326.277 184.679  11 0.40603-0.60254-0.09160-0.63740 0.98403-0.62259
   4  -5  -8 644.772 232.993   9 0.86133-0.66553-0.43690-0.29241 0.47555-0.83771
   4  -5  -8 359.198 171.230  11 0.11465 0.08131-0.81767 0.08839 0.57399-0.93627
   4  -5  -7 4444.64 524.258   9 0.85659-0.64621-0.40670-0.32259 0.53076-0.83739
  -4  -5   7 5001.29 595.518  11 0.39653-0.60766-0.13937-0.58966 0.97969-0.67379
   4  -5  -7 4951.95 540.419  11 0.15066 0.05992-0.76803 0.03879 0.63971-0.94645
  -4  -5   6 361.806 174.161  11 0.38505-0.61081-0.19127-0.53779 0.97227-0.72191
   4  -5  -6 142.560 152.290   9 0.84781-0.62283-0.37372-0.35556 0.58523-0.83635
   4  -5  -6 611.611 201.001  11 0.18655 0.03867-0.71132-0.01789 0.70246-0.95365
   4  -5  -5 108.753 162.754   9 0.83470-0.59513-0.33802-0.39123 0.63839-0.83397
  -4  -5   5 219.814 191.020  11 0.37141-0.61180-0.24676-0.48233 0.96114-0.76632
   4  -5  -5 286.706 148.098  11 0.22168 0.01817-0.64798-0.08120 0.76096-0.95661
   4  -5  -4 78.9043 128.384   9 0.81706-0.56290-0.29979-0.42944 0.68954-0.82960
  -4  -5   4-76.6802 108.959  11 0.35548-0.61050-0.30511-0.42402 0.94572-0.80645
   4  -5  -4 121.072 115.459  11 0.25537-0.00090-0.57889-0.15026 0.81396-0.95406
   4  -5  -3 5339.97 551.949   9 0.79484-0.52609-0.25934-0.46988 0.73794-0.82248
   4  -5  -3 6865.40 607.701  11 0.28695-0.01786-0.50536-0.22376 0.86034-0.94490
  -4  -5   3 5194.12 581.253  11 0.33722-0.60686-0.36542-0.36374 0.92557-0.84184
   4  -5  -2 4027.04 472.409   9 0.76816-0.48481-0.21713-0.51207 0.78282-0.81184
  -4  -5   2 3264.29 470.199  11 0.31666-0.60093-0.42667-0.30252 0.90039-0.87221
   4  -5  -2 4239.50 481.381  11 0.31582-0.03210-0.42903-0.30005 0.89931-0.92833
   4  -5  -1 2771.97 389.456   9 0.73735-0.43941-0.17376-0.55542 0.82347-0.79696
  -4  -5   1 2463.84 402.853  11 0.29394-0.59283-0.48777-0.24145 0.87009-0.89746
   4  -5  -1 2744.28 400.656  11 0.34152-0.04317-0.35176-0.37729 0.93052-0.90399
   4  -5   0 15290.2 904.398   9 0.70298-0.39045-0.12995-0.59921 0.85931-0.77728
  -4  -5   0 15200.8 996.981  11 0.26928-0.58280-0.54766-0.18159 0.83481-0.91772
   4  -5   0 15671.4 941.233  11 0.36379-0.05081-0.27545-0.45357 0.95404-0.87197
   4  -5   1 1596.09 305.142   9 0.66584-0.33871-0.08650-0.64264 0.88994-0.75239
   4  -5   1 1868.38 341.676  11 0.38257-0.05496-0.20183-0.52716 0.97041-0.83279
  -4  -5  -1 1925.19 375.915  11 0.24297-0.57112-0.60534-0.12395 0.79485-0.93330
   4  -5   2 225.299 135.509   9 0.62688-0.28516-0.04421-0.68492 0.91524-0.72216
   4  -5   2 358.305 153.870  11 0.39799-0.05576-0.13234-0.59661 0.98047-0.78731
  -4  -5  -2 285.465 170.137  11 0.21537-0.55814-0.65997-0.06935 0.75069-0.94469
   4  -5   3 4375.62 495.233   9 0.58713-0.23082-0.00382-0.72529 0.93533-0.68673
  -4  -5  -3 4495.79 562.857  11 0.18682-0.54422-0.71086-0.01849 0.70292-0.95246
   4  -5   3 3648.57 484.575  11 0.41035-0.05349-0.06807-0.66085 0.98530-0.73660
   4  -5   4 3074.08 454.581  11 0.42000-0.04852-0.00970-0.71919 0.98604-0.68179
   4  -5   4 3023.28 418.138   9 0.54765-0.17674 0.03404-0.76314 0.95058-0.64645
  -4  -5  -4 3689.24 524.336  11 0.15767-0.52970-0.75755 0.02817 0.65218-0.95727
   4  -5   5 2754.52 397.436   9 0.50940-0.12390 0.06889-0.79797 0.96153-0.60188
  -4  -5  -5 3413.36 515.431  11 0.12825-0.51491-0.79974 0.07033 0.59912-0.95975
   4  -5   5 3622.64 497.899  11 0.42738-0.04128 0.04243-0.77129 0.98377-0.62398
  -4  -5  -6 2225.02 413.924  11 0.09884-0.50012-0.83729 0.10785 0.54434-0.96051
   4  -5   6 2279.25 415.594  11 0.43290-0.03216 0.08827-0.81709 0.97950-0.56417
   4  -5   6 1781.37 334.203   9 0.47320-0.07311 0.10041-0.82947 0.96886-0.55369
  -4  -5  -7 4408.97 600.110  11 0.06968-0.48559-0.87022 0.14074 0.48839-0.96011
   4  -5   7 4016.05 549.628  11 0.43693-0.02157 0.12796-0.85676 0.97406-0.50319
   4  -5   8 109.402 124.907  11 0.43982-0.00983 0.16180-0.89057 0.96814-0.44171
  -4  -5  -8 243.664 174.468  11 0.04094-0.47147-0.89860 0.16910 0.43175-0.95901
   4  -5   9 3375.92 547.016  11 0.44184 0.00277 0.19016-0.91890 0.96224-0.38027
  -4  -5  -9 3834.06 587.755  11 0.01277-0.45793-0.92262 0.19308 0.37479-0.95760
   4  -5  10 944.652 289.567  11 0.44323 0.01601 0.21343-0.94213 0.95676-0.31925
  -4  -4  16 387.825 189.253  11 0.44549-0.52493 0.26842-0.85134 0.94145-0.13557
   4  -4 -15 606.052 271.456   9 0.81134-0.71760-0.57412-0.00944 0.10974-0.86052
  -4  -4  15 1526.00 357.205  11 0.44516-0.53923 0.25769-0.84064 0.94470-0.19436
   4  -4 -14 1864.86 397.911   9 0.82659-0.71825-0.55960-0.02395 0.16446-0.85971
  -4  -4  14 1709.18 390.346  11 0.44461-0.55330 0.24263-0.82561 0.94905-0.25426
  -4  -4  13 3676.60 537.587  11 0.44372-0.56704 0.22285-0.80586 0.95437-0.31513
   4  -4 -13 3798.87 555.392   9 0.83955-0.71663-0.54272-0.04081 0.22043-0.86016
   4  -4 -12 2542.82 445.032   9 0.84996-0.71244-0.52326-0.06025 0.27765-0.86185
  -4  -4  12 2239.94 415.671  11 0.44233-0.58028 0.19792-0.78096 0.96048-0.37678
   4  -4 -11 5502.29 626.151   9 0.85747-0.70536-0.50099-0.08250 0.33605-0.86473
  -4  -4  11 4322.72 545.399  11 0.44025-0.59282 0.16739-0.75046 0.96704-0.43888
   4  -4 -10 1912.46 372.037   9 0.86168-0.69497-0.47566-0.10781 0.39549-0.86865
  -4  -4  10 1710.76 336.581  11 0.43720-0.60440 0.13084-0.71395 0.97361-0.50099
   4  -4 -10 2129.35 349.174  11 0.01763 0.14913-0.91874 0.33523 0.38473-0.85801
  -4  -4   9 5743.70 594.525  11 0.43286-0.61469 0.08791-0.67105 0.97954-0.56247
   4  -4  -9 5996.25 557.672  11 0.05564 0.12575-0.88457 0.30109 0.46092-0.87866
   4  -4  -9 5017.35 560.058   9 0.86210-0.68080-0.44702-0.13644 0.45575-0.87338
   4  -4  -8 717.024 195.336  11 0.09570 0.10032-0.84105 0.25760 0.53838-0.90058
   4  -4  -8 476.469 208.071   9 0.85820-0.66231-0.41483-0.16860 0.51643-0.87854
  -4  -4   8 630.782 220.732  11 0.42685-0.62330 0.03836-0.62153 0.98405-0.62252
  -4  -4   8 581.523 177.139   5 0.08486-0.28114 0.20580-0.78904 0.96294-0.60138
   4  -4  -7 2258.55 363.410   9 0.84942-0.63894-0.37893-0.20449 0.57699-0.88358
  -4  -4   7 2457.88 326.300   5 0.02004-0.23093 0.17535-0.75861 0.95493-0.64889
   4  -4  -7 2657.51 353.178  11 0.13739 0.07325-0.78715 0.20373 0.61579-0.92244
  -4  -4   7 2407.14 374.862  11 0.41875-0.62983-0.01781-0.56539 0.98614-0.68016
   4  -4  -6 1674.49 307.874   9 0.83519-0.61011-0.33922-0.24418 0.63670-0.88776
  -4  -4   6 1490.16 309.715  11 0.40813-0.63383-0.08034-0.50290 0.98471-0.73427
  -4  -4   6 1715.50 269.745   5-0.05123-0.17428 0.14088-0.72416 0.94040-0.68988
   4  -4  -6 1339.37 254.196  11 0.18003 0.04524-0.72218 0.13880 0.69128-0.94239
  -4  -4   5 5101.70 513.436  11 0.39459-0.63492-0.14855-0.43472 0.97858-0.78369
  -4  -4   5 6102.25 470.646   5-0.12740-0.11271 0.10288-0.68619 0.91822-0.72322
   4  -4  -5 5583.90 488.319  11 0.22263 0.01726-0.64613 0.06278 0.76252-0.95808
   4  -4  -5 5992.54 545.136   9 0.81501-0.57534-0.29576-0.28762 0.69461-0.89015
   4  -4  -4 10290.7 695.036   9 0.78853-0.53426-0.24884-0.33452 0.74962-0.88963
  -4  -4   4 10668.4 620.186   5-0.20640-0.04833 0.06218-0.64551 0.88777-0.74828
   4  -4  -4 11371.3 678.044  11 0.26393-0.00941-0.55988-0.02344 0.82686-0.96688
  -4  -4   4 10794.5 736.236  11 0.37783-0.63279-0.22137-0.36193 0.96665-0.82730
  -4  -4   3 2587.48 311.280   5-0.28580 0.01646 0.01987-0.60322 0.84910-0.76514
  -4  -4   3 2258.48 344.682  11 0.35771-0.62730-0.29731-0.28602 0.94801-0.86420
   4  -4  -3 2764.79 368.089   9 0.75567-0.48681-0.19898-0.38437 0.80048-0.88498
   4  -4  -3 2999.88 349.027  11 0.30252-0.03337-0.46542-0.11786 0.88181-0.96628
   4  -4  -2 141.899 113.796   9 0.71671-0.43326-0.14697-0.43636 0.84599-0.87496
  -4  -4   2 140.305 89.6816   5-0.36322 0.07927-0.02285-0.56053 0.80300-0.77455
   4  -4  -2 177.124 106.046  11 0.33710-0.05332-0.36579-0.21746 0.92543-0.95436
  -4  -4   2 124.774 120.575  11 0.33428-0.61849-0.37459-0.20877 0.92211-0.89385
   4  -4  -1 17897.8 887.533   9 0.67235-0.37431-0.09387-0.48944 0.88508-0.85853
   4  -4  -1 19901.6 901.824  11 0.36670-0.06830-0.26465-0.31857 0.95682-0.93021
  -4  -4   1 18680.3 831.276   5-0.43660 0.13804-0.06481-0.51859 0.75078-0.77785
  -4  -4   1 17435.2 921.658  11 0.30778-0.60662-0.45129-0.13211 0.88883-0.91611
   4  -4   0 16747.6 839.953  11 0.39085-0.07782-0.16576-0.41744 0.97627-0.89412
   4  -4   0 14559.2 798.142   9 0.62372-0.31109-0.04091-0.54239 0.91704-0.83496
  -4  -4   0 15965.9 777.416   5-0.50446 0.19129-0.10509-0.47833 0.69404-0.77663
  -4  -4   0 14540.7 856.339  11 0.27868-0.59215-0.52554-0.05789 0.84853-0.93136
  -4  -4  -1 2070.11 300.193   5-0.56593 0.23815-0.14300-0.44044 0.63440-0.77251
   4  -4   1 2438.59 334.213  11 0.40958-0.08192-0.07236-0.51080 0.98511-0.84741
  -4  -4  -1 2137.90 344.592  11 0.24755-0.57565-0.59572 0.01226 0.80196-0.94033
   4  -4   1 2521.74 343.365   9 0.57230-0.24507 0.01065-0.59393 0.94157-0.80397
  -4  -4  -2 17516.8 963.979  11 0.21504-0.55776-0.66058 0.07709 0.75015-0.94407
   4  -4   2 17273.1 889.597  11 0.42339-0.08110 0.01315-0.59628 0.98538-0.79214
   4  -4   2 15965.8 847.867   9 0.51975-0.17793 0.05963-0.64288 0.95891-0.76578
   4  -4   3 15057.8 849.496  11 0.43302-0.07611 0.08940-0.67249 0.97937-0.73058
  -4  -4  -3 15328.3 920.087  11 0.18178-0.53913-0.71930 0.13577 0.69429-0.94375
   4  -4   3 13614.7 795.439   9 0.46775-0.11134 0.10504-0.68828 0.96973-0.72108
  -4  -4  -4 7853.41 676.584  11 0.14833-0.52030-0.77146 0.18791 0.63553-0.94053
   4  -4   4 8254.46 650.114  11 0.43935-0.06781 0.15587-0.73893 0.96926-0.66493
   4  -4   4 8578.56 647.161   9 0.41778-0.04678 0.14624-0.72946 0.97504-0.67087
  -4  -4  -5 6054.80 504.092   2 0.21545-0.60083-0.18185-0.40059-0.86919 0.50895
   4  -4   5 4747.77 516.538  11 0.44319-0.05703 0.21273-0.79577 0.95693-0.59706
  -4  -4  -5 6270.69 624.113  11 0.11516-0.50176-0.81701 0.23342 0.57494-0.93549
   4  -4   5 4947.58 507.524   9 0.37106 0.01453 0.18284-0.76604 0.97602-0.61633
   4  -4   6 216.538 134.863   9 0.32845 0.07174 0.21474-0.79793 0.97386-0.55863
   4  -4   6 253.381 154.748  11 0.44526-0.04447 0.26057-0.84357 0.94384-0.52842
  -4  -4  -6 284.109 149.696   2 0.26327-0.66325-0.17473-0.40774-0.84632 0.43055
  -4  -4  -6 276.366 176.932  11 0.08263-0.48385-0.85612 0.27250 0.51343-0.92952
  -4  -4  -7 297.301 210.970  11 0.05098-0.46683-0.88914 0.30549 0.45171-0.92334
   4  -4   7 205.342 150.534  11 0.44614-0.03072 0.30019-0.88316 0.93104-0.46008
   4  -4   7 424.618 172.591   9 0.29048 0.12430 0.24208-0.82525 0.96964-0.49889
  -4  -4  -7 642.254 220.767   2 0.30004-0.71462-0.16890-0.41361-0.82709 0.35579
   4  -4   8 4598.22 524.895   9 0.25740 0.17198 0.26510-0.84825 0.96430-0.43803
  -4  -4  -8 5548.10 559.101   2 0.32773-0.75691-0.16429-0.41825-0.81163 0.28479
   4  -4   8 3559.60 498.891  11 0.44627-0.01623 0.33246-0.91539 0.91927-0.39276
  -4  -4  -8 4607.84 587.402  11 0.02038-0.45086-0.91650 0.33282 0.39032-0.91750
  -4  -4  -9 9467.22 746.731   2 0.34796-0.79174-0.16080-0.42177-0.79979 0.21742
   4  -4   9 8857.36 806.994  11 0.44600-0.00133 0.35823-0.94113 0.90896-0.32691
   4  -4   9 8086.51 722.501   9 0.22923 0.21474 0.28413-0.86726 0.95858-0.37679
  -4  -4 -10 2300.62 410.311   2 0.36197-0.82035-0.15832-0.42428-0.79131 0.15340
   4  -4  10 1787.41 378.791  11 0.44554 0.01376 0.37828-0.96115 0.90036-0.26277
   4  -4  11 2464.47 457.621  11 0.44505 0.02888 0.39330-0.97614 0.89359-0.20045
  -4  -4 -11 3249.24 487.347   2 0.37074-0.84373-0.15675-0.42589-0.78588 0.09244
   4  -4  12 5455.76 696.367  11 0.44463 0.04392 0.40386-0.98667 0.88864-0.13996
  -4  -4 -12 5553.54 646.059   2 0.37504-0.86262-0.15597-0.42671-0.78319 0.03422
  -4  -4 -13 659.896 258.078   2 0.37545-0.87764-0.15589-0.42682-0.78293-0.02157
   4  -3 -17 854.673 295.205   9 0.76935-0.70469-0.59926 0.16154-0.01011-0.85167
  -4  -3  17 1258.13 328.648  11 0.44407-0.50882 0.41598-0.85304 0.88279-0.02128
   4  -3 -16 2719.84 502.012   9 0.78959-0.71034-0.58913 0.15142 0.04352-0.84978
  -4  -3  16 2310.21 432.483  11 0.44422-0.52361 0.41280-0.84989 0.88434-0.07838
   4  -3 -15 2725.20 479.220   9 0.80799-0.71415-0.57680 0.13911 0.09876-0.84949
  -4  -3  15 1800.86 354.522   5 0.49013-0.58407 0.37455-0.81180 0.88853-0.13828
  -4  -3  15 2028.23 393.457  11 0.44455-0.53856 0.40565-0.84277 0.88779-0.13737
   4  -3 -14 332.007 198.522   9 0.82432-0.71589-0.56205 0.12438 0.15573-0.85094
  -4  -3  14 4.89781 64.9037   5 0.47934-0.58789 0.37063-0.80791 0.89384-0.19911
  -4  -3  14 224.113 162.179  11 0.44502-0.55366 0.39404-0.83119 0.89324-0.19837
   4  -3 -13 547.622 225.547   9 0.83832-0.71529-0.54459 0.10694 0.21454-0.85422
  -4  -3  13 641.789 223.874   5 0.46379-0.58696 0.36492-0.80223 0.90109-0.26188
   4  -3 -13 709.039 209.867   7 0.44917-0.32691-0.88245 0.44522 0.25024-0.89003
  -4  -3  13 466.368 192.493  11 0.44556-0.56883 0.37736-0.81455 0.90077-0.26144
   4  -3 -12 930.689 267.985   9 0.84959-0.71197-0.52412 0.08648 0.27526-0.85942
  -4  -3  12 1052.76 273.445  11 0.44605-0.58394 0.35488-0.79210 0.91034-0.32656
  -4  -3  12 915.994 227.533   5 0.44275-0.58053 0.35707-0.79440 0.91019-0.32650
   4  -3 -11 10086.1 781.636   9 0.85766-0.70545-0.50024 0.06263 0.33789-0.86653
  -4  -3  11 9926.52 686.550   5 0.41533-0.56771 0.34663-0.78398 0.92087-0.39270
  -4  -3  11 9458.47 733.507  11 0.44629-0.59881 0.32575-0.76300 0.92182-0.39357
   4  -3 -10 9757.32 742.775   9 0.86192-0.69512-0.47256 0.03496 0.40235-0.87546
  -4  -3  10 9383.76 642.201   5 0.38052-0.54751 0.33306-0.77044 0.93261-0.45995
  -4  -3  10 10264.7 730.746  11 0.44597-0.61311 0.28901-0.72629 0.93484-0.46214
  -4  -3   9 3555.76 422.639  11 0.44465-0.62642 0.24366-0.68098 0.94876-0.53160
   4  -3  -9 4265.57 478.627   9 0.86166-0.68026-0.44060 0.00302 0.46839-0.88598
  -4  -3   9 2951.35 358.795   5 0.33724-0.51885 0.31574-0.75313 0.94453-0.52739
   4  -3  -8 14534.6 842.029   9 0.85599-0.66000-0.40393-0.03363 0.53555-0.89761
  -4  -3   8 14999.2 757.391   5 0.28450-0.48072 0.29397-0.73139 0.95532-0.59371
   4  -3  -8 16745.6 778.733  11 0.04829 0.14778-0.89172 0.45410 0.44638-0.80849
  -4  -3   8 15405.6 830.360  11 0.44175-0.63815 0.18874-0.62608 0.96256-0.60095
  -4  -3   7 1244.84 249.751  11 0.43652-0.64754 0.12350-0.56088 0.97476-0.66869
   4  -3  -7 938.378 234.814   9 0.84395-0.63337-0.36216-0.07539 0.60307-0.90961
   4  -3  -7 909.068 193.740  11 0.09599 0.11471-0.84070 0.40311 0.53894-0.84551
  -4  -3   7 903.489 192.387   5 0.22156-0.43238 0.26712-0.70456 0.96320-0.65710
   4  -3  -6 10716.6 679.309   9 0.82450-0.59932-0.31501-0.12251 0.66984-0.92086
  -4  -3   6 11526.5 622.374   5 0.14823-0.37367 0.23473-0.67219 0.96592-0.71534
   4  -3  -6 12290.6 616.258  11 0.14761 0.07771-0.77252 0.33496 0.63424-0.88526
  -4  -3   6 10539.3 647.625  11 0.42807-0.65372 0.04771-0.48511 0.98339-0.73287
   4  -3  -5 2120.59 302.560   9 0.79670-0.55694-0.26251-0.17500 0.73435-0.92984
  -4  -3   5 1936.16 258.343   5 0.06525-0.30530 0.19668-0.63417 0.96104-0.76598
  -4  -3   5 2188.44 295.603  11 0.41548-0.65576-0.03813-0.39931 0.98611-0.79113
   4  -3  -5 1844.92 240.367  11 0.20194 0.03801-0.68457 0.24704 0.72848-0.92396
   4  -3  -4 225.017 124.731   9 0.75989-0.50553-0.20502-0.23247 0.79471-0.93468
  -4  -3   4 69.3857 82.2874  11 0.39797-0.65288-0.13243-0.30504 0.98046-0.84103
   4  -3  -4 81.4703 72.4900  11 0.25668-0.00211-0.57601 0.13852 0.81595-0.95589
  -4  -3   4 241.592 109.449   5-0.02555-0.22911 0.15342-0.59093 0.94633-0.80678
   4  -3  -3 20523.4 870.963   9 0.71390-0.44495-0.14344-0.29403 0.84881-0.93326
   4  -3  -3 22757.3 787.692  11 0.30856-0.03935-0.44918 0.01172 0.88985-0.97425
  -4  -3   3 22148.1 818.268   5-0.12121-0.14806 0.10601-0.54355 0.92029-0.83626
  -4  -3   3 21906.2 887.879  11 0.37506-0.64459-0.23248-0.20503 0.96432-0.88043
   4  -3  -2 20880.7 868.199   9 0.65932-0.37578-0.07922-0.35824 0.89462-0.92354
   4  -3  -2 21615.8 772.058  11 0.35399-0.07016-0.31027-0.12716 0.94417-0.97302
  -4  -3   2 20021.8 778.741   5-0.21804-0.06584 0.05606-0.49362 0.88261-0.85410
  -4  -3   2 19936.7 846.498  11 0.34678-0.63094-0.33463-0.10291 0.93641-0.90806
   4  -3  -1 43634.7 1109.96  11 0.39028-0.09182-0.16831-0.26909 0.97590-0.94921
  -4  -3   1 46211.3 1006.19   2-0.30653 0.00867-0.22741-0.20921-0.97250 0.94555
   4  -3  -1 44906.7 1265.73   9 0.59763-0.29949-0.01425-0.42319 0.93052-0.90392
  -4  -3   1 45065.5 1173.74   5-0.31229 0.01379 0.00542-0.44300 0.83430-0.86131
  -4  -3   1 44825.6 1270.27  11 0.31375-0.61254-0.43484-0.00273 0.89665-0.92384
   4  -3   0 21597.7 801.756  11 0.41639-0.10330-0.03263-0.40474 0.98616-0.90392
  -4  -3   0 20486.7 868.339  11 0.27707-0.59048-0.52939 0.09179 0.84620-0.92894
  -4  -3   0 20380.1 809.401   5-0.40076 0.08766-0.04413-0.39348 0.77739-0.85992
  -4  -3   0 21767.0 722.835   2-0.15368-0.15877-0.22015-0.21651-0.96994 0.88746
   4  -3   0 20726.7 863.874   9 0.53110-0.21837 0.04933-0.48675 0.95575-0.87362
  -4  -3  -1 22256.5 923.214  11 0.23808-0.56612-0.61545 0.17782 0.78717-0.92546
   4  -3   1 22659.9 842.166  11 0.43306-0.10534 0.08968-0.52701 0.97934-0.84155
  -4  -3  -1 22334.0 861.263   5-0.48131 0.15359-0.09117-0.34645 0.71440-0.85244
  -4  -3  -1 23171.8 779.192   2-0.01960-0.30745-0.20957-0.22712-0.94851 0.81049
   4  -3   1 23314.6 925.015   9 0.46252-0.13519 0.10946-0.54686 0.97051-0.83286
   4  -3   2 38628.2 1210.12   9 0.39473-0.05281 0.16452-0.60190 0.97598-0.78281
  -4  -3  -2 37260.3 1140.59   5-0.55285 0.21053-0.13481-0.30284 0.64782-0.84139
  -4  -3  -2 36690.1 1213.54  11 0.19813-0.54079-0.69134 0.25368 0.72208-0.91591
   4  -3   2 37731.5 1129.26  11 0.44215-0.09981 0.19490-0.63220 0.96117-0.76785
  -4  -3  -2 41134.8 903.248   9 0.50290-0.84540-0.60915 0.17128-0.45925 0.26579
  -4  -3  -2 36772.8 1027.77   2 0.09205-0.43371-0.19787-0.23886-0.91752 0.72397
  -4  -3  -3 9940.66 567.676   2 0.18190-0.53816-0.18653-0.25023-0.88383 0.63474
  -4  -3  -3 10097.8 499.335   9 0.53222-0.88932-0.61402 0.17613-0.42222 0.17323
  -4  -3  -3 9675.15 644.440  11 0.15835-0.51565-0.75651 0.31882 0.65339-0.90277
   4  -3   3 10591.5 627.352  11 0.44584-0.08887 0.28231-0.71958 0.93704-0.68817
   4  -3   3 10208.0 639.057   9 0.33024 0.02627 0.21343-0.65079 0.97400-0.72530
  -4  -3  -4 13995.2 704.175   2 0.25261-0.62347-0.17636-0.26043-0.85162 0.54701
   4  -3   4 13486.5 737.494  11 0.44608-0.07449 0.35314-0.79037 0.91106-0.60664
  -4  -3  -4 13808.2 636.956   9 0.54708-0.91877-0.61611 0.17820-0.40267 0.09816
  -4  -3  -4 14977.3 825.756  11 0.11960-0.49152-0.81125 0.37352 0.58318-0.88810
   4  -3   4 13875.3 765.189   9 0.27092 0.10018 0.25578-0.69312 0.96666-0.66244
  -4  -3  -5 16997.0 819.799   2 0.30737-0.69283-0.16769-0.26913-0.82308 0.46293
  -4  -3  -5 18616.7 796.948   9 0.55329-0.93957-0.61691 0.17898-0.39434 0.03430
   4  -3   5 17226.0 869.558  11 0.44438-0.05816 0.40948-0.84668 0.88595-0.52600
  -4  -3  -5 17274.2 914.967  11 0.08241-0.46896-0.85636 0.41860 0.51301-0.87348
  -4  -3  -6 19732.7 1016.38  11 0.04707-0.44824-0.89288 0.45509 0.44396-0.85997
  -4  -3  -6 19917.1 883.020   9 0.55380-0.95467-0.61697 0.17903-0.39364-0.02191
  -4  -3  -6 20014.7 927.494   2 0.34915-0.74921-0.16059-0.27627-0.79907 0.38339
   4  -3   6 19808.1 971.658  11 0.44178-0.04093 0.45362-0.89080 0.86331-0.44781
   4  -3   6 21904.3 934.951   1 0.37600 0.02484-0.65727 0.21999-0.53295 0.94779
  -4  -3  -7 2421.32 333.703   9 0.55028-0.96574-0.61652 0.17856-0.39840-0.07268
  -4  -3  -7 3001.38 392.138   2 0.38046-0.79512-0.15498-0.28192-0.77976 0.30855
   4  -3   7 2723.05 356.582   1 0.46761-0.05221-0.64894 0.21171-0.45797 0.92832
  -4  -3  -7 2877.80 415.480  11 0.01369-0.42949-0.92190 0.48407 0.37669-0.84823
   4  -3   7 2561.75 372.144  11 0.43895-0.02348 0.48770-0.92484 0.84392-0.37288
  -4  -3  -8 4282.92 470.522   9 0.54370-0.97375-0.61566 0.17768-0.40717-0.11943
  -4  -3  -8 3896.90 458.990   2 0.40329-0.83256-0.15072-0.28621-0.76493 0.23818
   4  -3   8 5869.93 522.169   1 0.54982-0.11986-0.63426 0.19706-0.38191 0.90778
   4  -3   8 4646.17 442.926  10 0.46262-0.03256 0.51899-0.95646 0.81521-0.28878
   4  -3   8 4481.02 509.494  11 0.43631-0.00621 0.51350-0.95061 0.82806-0.30147
  -4  -3  -9 569.830 207.475   9 0.53470-0.97934-0.61438 0.17639-0.41900-0.16312
   4  -3   9 721.188 231.240  11 0.43406 0.01066 0.53250-0.96958 0.81568-0.23355
   4  -3   9 550.757 156.535  10 0.46883-0.02418 0.53818-0.97563 0.79912-0.21715
  -4  -3 -10 2953.56 419.147   9 0.52368-0.98292-0.61270 0.17468-0.43321-0.20444
   4  -3  10 2990.90 450.530  11 0.43233 0.02702 0.54587-0.98292 0.80661-0.16893
  -4  -3 -11 745.558 230.147   9 0.51093-0.98477-0.61057 0.17254-0.44931-0.24387
   4  -3  11 1307.16 319.040  11 0.43114 0.04284 0.55451-0.99153 0.80058-0.10736
  -4  -3 -12 1336.41 333.766   9 0.49663-0.98506-0.60798 0.16993-0.46692-0.28177
   4  -3  12 2395.20 434.411  11 0.43048 0.05813 0.55914-0.99612 0.79729-0.04853
  -4  -3 -13 916.502 289.759   9 0.48090-0.98392-0.60489 0.16682-0.48579-0.31843
   4  -3  13 1079.27 312.565  11 0.43031 0.07292 0.56030-0.99725 0.79647 0.00784
  -4  -3 -14 1669.01 384.659   9 0.46383-0.98144-0.60126 0.16317-0.50569-0.35406
   4  -3  14 1801.08 419.006  11 0.43059 0.08727 0.55839-0.99531 0.79783 0.06202
   4  -2 -18 536.621 242.497   9 0.72928-0.67912-0.61240 0.32054-0.10190-0.81535
  -4  -2  18 97.3469 126.694  11 0.43189-0.48197 0.54909-0.84029 0.80438 0.11275
  -4  -2  18 227.734 139.560  10 0.46525-0.51569 0.52703-0.81828 0.80858 0.10869
   4  -2 -17 299.844 198.842   9 0.75284-0.68809-0.60561 0.31376-0.04986-0.81187
  -4  -2  17 641.967 257.174  11 0.43117-0.49587 0.55428-0.84551 0.80075 0.06084
  -4  -2  17 406.409 210.666  10 0.46647-0.53151 0.53082-0.82209 0.80539 0.05634
  -4  -2  16 1471.90 333.115  11 0.43087-0.51020 0.55638-0.84764 0.79926 0.00678
   4  -2 -16 1157.70 337.935   9 0.77490-0.69556-0.59677 0.30493 0.00402-0.81023
  -4  -2  16 1138.19 309.776  10 0.46692-0.54655 0.53221-0.82350 0.80422 0.00197
   4  -2 -15 833.675 286.591   9 0.79532-0.70139-0.58566 0.29385 0.05997-0.81065
  -4  -2  15 973.276 283.254  11 0.43107-0.52503 0.55498-0.84628 0.80025-0.04975
   4  -2 -15 1114.33 269.303   7 0.57110-0.47798-0.81440 0.52285 0.05557-0.80638
  -4  -2  15 276.504 165.356  10 0.46650-0.56072 0.53090-0.82221 0.80532-0.05467
  -4  -2  14 4632.28 529.744  11 0.43183-0.54041 0.54956-0.84088 0.80405-0.10910
   4  -2 -14 5350.53 548.368   7 0.54228-0.43452-0.83891 0.54738 0.10877-0.80404
   4  -2 -14 4536.58 568.352   9 0.81387-0.70534-0.57199 0.28020 0.11823-0.81339
  -4  -2  14 4551.60 550.145  10 0.46508-0.57390 0.52652-0.81785 0.80900-0.11388
   4  -2 -13 1815.64 346.194   9 0.83023-0.70711-0.55540 0.26362 0.17905-0.81868
  -4  -2  13 1759.56 321.665  11 0.43319-0.55640 0.53937-0.83073 0.81106-0.17164
   4  -2 -13 1778.96 313.043   7 0.50975-0.38735-0.85930 0.56780 0.16261-0.80233
  -4  -2  13 1446.25 301.102  10 0.46248-0.58589 0.51857-0.80991 0.81555-0.17597
   4  -2 -12 3786.95 476.073   9 0.84394-0.70623-0.53543 0.24367 0.24266-0.82677
   4  -2 -12 3207.24 396.649   7 0.47332-0.33627-0.87519 0.58372 0.21699-0.80116
  -4  -2  12 3588.05 432.318   5 0.57744-0.71515 0.40462-0.69613 0.83635-0.25260
  -4  -2  12 2945.75 389.334  11 0.43516-0.57300 0.52346-0.81485 0.82164-0.23777
   4  -2 -11 1281.52 279.653   9 0.85443-0.70212-0.51152 0.21978 0.30924-0.83783
  -4  -2  11 1199.53 241.641  11 0.43769-0.59015 0.50056-0.79198 0.83615-0.30782
  -4  -2  11 1281.58 251.942   5 0.55852-0.71084 0.39837-0.68990 0.84916-0.32093
   4  -2 -10 6433.79 563.515   9 0.86087-0.69397-0.48301 0.19129 0.37890-0.85197
  -4  -2  10 7309.08 556.760   5 0.53299-0.69992 0.38968-0.68124 0.86507-0.39236
  -4  -2  10 7174.25 549.079  11 0.44059-0.60768 0.46901-0.76046 0.85478-0.38199
  -4  -2   9 25222.3 985.158   5 0.49937-0.68091 0.37786-0.66944 0.88380-0.46660
   4  -2  -9 28070.6 1117.93   9 0.86220-0.68071-0.44913 0.15742 0.45153-0.86907
  -4  -2   9 26469.2 1003.76  11 0.44350-0.62522 0.42670-0.71818 0.87744-0.46021
   4  -2  -8 17881.2 855.153   9 0.85707-0.66099-0.40901 0.11732 0.52673-0.88875
  -4  -2   8 19097.0 822.059   5 0.45594-0.65209 0.36201-0.65361 0.90459-0.54291
  -4  -2   8 17790.3 784.266  11 0.44573-0.64207 0.37108-0.66260 0.90350-0.54181
   4  -2  -7 30280.3 1065.44   9 0.84382-0.63314-0.36179 0.07013 0.60361-0.91011
  -4  -2   7 30859.0 980.108  11 0.44613-0.65710 0.29930-0.59085 0.93135-0.62520
  -4  -2   7 30257.1 989.105   5 0.40083-0.61160 0.34103-0.63265 0.92600-0.61984
   4  -2  -6 32718.3 1063.43   9 0.82054-0.59527-0.30677 0.01512 0.68061-0.93158
  -4  -2   6 33148.1 970.367  11 0.44297-0.66856 0.20870-0.50028 0.95792-0.70731
   4  -2  -6 34032.4 844.851  11 0.05905 0.16633-0.88118 0.58945 0.46762-0.71856
  -4  -2   6 32175.3 980.635   5 0.33233-0.55771 0.31374-0.60539 0.94570-0.69506
   4  -2  -5 141326. 2132.57   9 0.78531-0.54544-0.24363-0.04801 0.75529-0.95074
  -4  -2   5 136892. 1893.43  11 0.43394-0.67416 0.09785-0.38946 0.97834-0.78328
   4  -2  -5 139246. 1611.53  11 0.12787 0.11214-0.80026 0.50856 0.59842-0.79381
  -4  -2   5 135556. 1952.83   5 0.24938-0.48937 0.27910-0.57077 0.96037-0.76525
   4  -2  -4 157241. 2192.36   9 0.73661-0.48216-0.17278-0.11884 0.82433-0.96425
  -4  -2   4 157734. 1980.78  11 0.41650-0.67135-0.03192-0.25972 0.98616-0.84665
   4  -2  -4 158577. 1645.53  11 0.20728 0.04735-0.67492 0.38326 0.73737-0.87722
   4  -2  -3 6617.11 446.130   9 0.67397-0.40492-0.09573-0.19587 0.88384-0.96824
  -4  -2   3 6944.36 413.566  11 0.38876-0.65824-0.17510-0.11658 0.97488-0.89091
   4  -2  -3 6913.55 335.343  11 0.29033-0.02107-0.49692 0.20529 0.86508-0.94939
   4  -2  -2 3600.46 332.131   9 0.59859-0.31495-0.01521-0.27636 0.93006-0.95894
   4  -2  -2 3899.58 254.643  11 0.36347-0.07958-0.27662-0.01498 0.95373-0.98250
  -4  -2   2 4040.06 315.171  11 0.35053-0.63463-0.32210 0.03039 0.94049-0.91206
  -4  -2   2 3549.83 274.829   2-0.40974 0.12640-0.22913-0.06184-0.95974 0.98841
   4  -2  -1 32010.8 658.779   3 0.77258-0.47459 0.39645-0.68761 0.68226-0.65500
  -4  -2   1 31384.5 872.245  11 0.30388-0.60261-0.46181 0.17007 0.88363-0.91075
  -4  -2   1 31490.6 816.874   2-0.24545-0.05249-0.22515-0.06586-0.97440 0.94754
   4  -2  -1 32689.5 966.804   9 0.51366-0.21543 0.06509-0.35665 0.96048-0.93383
   4  -2  -1 32527.5 748.485  11 0.41407-0.11556-0.04658-0.24498 0.98598-0.95920
   4  -2   0 12198.4 394.575   3 0.65280-0.34015 0.38741-0.67861 0.80007-0.71728
  -4  -2   0 12065.1 555.615  11 0.25243-0.56579-0.58528 0.29351 0.80946-0.89212
  -4  -2   0 11290.1 502.719   2-0.09094-0.22160-0.21567-0.07537-0.96208 0.87968
   4  -2   0 11354.8 465.637  11 0.43953-0.12639 0.15815-0.44968 0.96883-0.88651
   4  -2   0 11305.0 577.444   9 0.42395-0.11112 0.14127-0.43281 0.97464-0.89246
  -4  -2  -1 13797.3 619.791   5-0.40564 0.07799-0.04692-0.24489 0.77390-0.91188
   4  -2   1 15087.7 438.556   3 0.48703-0.15972 0.35920-0.65044 0.89624-0.75792
   4  -2   1 14685.0 564.929  11 0.44629-0.11852 0.32037-0.61187 0.92383-0.78596
  -4  -2  -1 14821.5 643.119  11 0.19997-0.52796-0.68808 0.39627 0.72518-0.86338
  -4  -2  -1 14137.5 585.438   2 0.04354-0.37068-0.20327-0.08781-0.93245 0.79452
   4  -2   1 15315.7 684.018   9 0.33477-0.00735 0.21010-0.50162 0.97435-0.83665
  -4  -2  -2 11139.1 466.534   9 0.40721-0.74961-0.58730 0.29530-0.56773 0.37432
   4  -2   2 10924.7 516.393  11 0.44267-0.10028 0.44050-0.73198 0.87033-0.67692
  -4  -2  -2 10956.4 536.944   2 0.15425-0.49599-0.19021-0.10091-0.89504 0.70158
  -4  -2  -2 11533.9 585.500   5-0.49666 0.15441-0.10038-0.19145 0.70102-0.89452
   4  -2   2 12295.0 411.059   3 0.29566 0.04630 0.31282-0.60410 0.94844-0.75459
  -4  -2  -2 11522.6 583.596  11 0.14935-0.49196-0.76997 0.47814 0.63735-0.83110
   4  -2   2 10817.5 587.425   9 0.25077 0.09124 0.26962-0.56113 0.96305-0.76983
  -4  -2  -3 10578.3 556.530   2 0.24209-0.59844-0.17795-0.11320-0.85674 0.60775
  -4  -2  -3 11215.0 515.860   9 0.45297-0.80997-0.59880 0.30679-0.51805 0.26911
   4  -2   3 11258.5 558.483  11 0.43478-0.07776 0.52665-0.81809 0.81956-0.57060
  -4  -2  -3 11006.1 596.486  11 0.10216-0.45939-0.83328 0.54142 0.55060-0.79988
   4  -2   3 11877.9 447.695  10 0.47234-0.11529 0.54937-0.84110 0.78929-0.54050
  -4  -2  -4 16666.5 735.920   2 0.31013-0.68107-0.16724-0.12394-0.82156 0.51703
  -4  -2  -4 16601.1 678.450   9 0.47948-0.85107-0.60460 0.31257-0.48746 0.18300
   4  -2   4 16311.4 714.883  11 0.42603-0.05439 0.58762-0.87903 0.77622-0.47172
  -4  -2  -4 16951.0 773.815  11 0.05899-0.43085-0.88124 0.58934 0.46750-0.77233
   4  -2   4 18190.2 613.311  10 0.49171-0.12006 0.61681-0.90852 0.72236-0.41803
  -4  -2  -5 15523.2 707.171   9 0.49417-0.88035-0.60752 0.31547-0.46991 0.10993
  -4  -2  -5 14134.0 713.869   2 0.36190-0.74744-0.15834-0.13288-0.79135 0.43129
  -4  -2  -5 16047.4 793.736  11 0.01982-0.40631-0.91696 0.62503 0.38918-0.74955
  -4  -2  -5 16242.9 628.805   8-0.02835-0.35777 0.36643-0.65845-0.90437 0.54411
   4  -2   5 14944.4 722.852   1 0.35953 0.02653-0.65796 0.36632-0.54547 0.90489
   4  -2   5 15368.7 737.063  11 0.41805-0.03178 0.63049-0.92186 0.74145-0.38141
   4  -2   5 16273.0 632.087  10 0.50144-0.11520 0.65677-0.94846 0.67531-0.31544
  -4  -2  -6 13229.2 700.742   9 0.50104-0.90181-0.60881 0.31674-0.46154 0.04603
  -4  -2  -6 12389.1 705.034   2 0.40065-0.80079-0.15122-0.14003-0.76668 0.35108
   4  -2   6 13663.4 628.167  10 0.50653-0.10570 0.68084-0.97251 0.64366-0.22825
  -4  -2  -6 14211.5 616.894   8 0.05541-0.45616 0.35374-0.64579-0.88586 0.47009
   4  -2   6 13310.5 711.282   1 0.45243-0.05181-0.65087 0.35927-0.47106 0.88601
   4  -2   6 12624.9 708.682  11 0.41147-0.01057 0.66036-0.95170 0.71484-0.29926
  -4  -2  -7 3597.89 391.081   9 0.50242-0.91778-0.60906 0.31697-0.45985-0.01118
   4  -2   7 3183.35 381.592  11 0.40644 0.00909 0.68076-0.97207 0.69542-0.22429
  -4  -2  -7 3471.40 324.451   8 0.12119-0.53658 0.34194-0.63402-0.86676 0.39548
   4  -2   7 3452.28 383.563   1 0.53461-0.11942-0.63755 0.34599-0.39669 0.86714
   4  -2   7 3637.11 353.047  10 0.50922-0.09380 0.69510-0.98675 0.62355-0.15260
   4  -2   8 1496.82 277.910   1 0.60661-0.17687-0.61938 0.32786-0.32362 0.84959
   4  -2   8 1168.98 259.513  11 0.40289 0.02726 0.69410-0.98539 0.68211-0.15544
  -4  -2  -8 1411.09 268.457   9 0.49973-0.92968-0.60856 0.31646-0.46315-0.06341
  -4  -2  -8 1345.82 211.362   8 0.17132-0.60135 0.33185-0.62397-0.84948 0.32267
   4  -2   8 1376.02 235.806  10 0.51058-0.08057 0.70289-0.99452 0.61209-0.08561
  -4  -2  -9 8315.62 657.629   9 0.49388-0.93843-0.60746 0.31534-0.47026-0.11182
   4  -2   9 8535.40 647.614   1 0.66931-0.22500-0.59748 0.30600-0.25261 0.83410
   4  -2   9 8196.43 599.307  10 0.51112-0.06651 0.70613-0.99774 0.60722-0.02520
  -4  -2 -10 5570.89 573.177   9 0.48548-0.94463-0.60582 0.31368-0.48035-0.15726
   4  -2  10 7457.32 630.433   1 0.72365-0.26478-0.57272 0.28128-0.18405 0.82106
   4  -2  10 6856.48 579.967  10 0.51110-0.05190 0.70600-0.99759 0.60742 0.03013
   4  -2  11 850.091 234.040   1 0.77057-0.29714-0.54574 0.25434-0.11805 0.81057
  -4  -2 -11 1047.13 277.300   9 0.47495-0.94868-0.60366 0.31150-0.49280-0.20033
   4  -2  11 805.101 223.897  10 0.51064-0.03685 0.70322-0.99479 0.61160 0.08150
   4  -2  12 84.3004 131.318   1 0.81092-0.32293-0.51701 0.22565-0.05457 0.80261
  -4  -2 -12 420.176 221.919   9 0.46255-0.95088-0.60098 0.30880-0.50716-0.24149
   4  -2  12 453.202 187.391  10 0.50979-0.02140 0.69827-0.98982 0.61893 0.12970
  -4  -2 -13 1323.99 338.413   9 0.44850-0.95142-0.59776 0.30557-0.52307-0.28110
   4  -2  13 1268.97 324.467  11 0.40175 0.10153 0.69823-0.98935 0.67790 0.12650
   4  -2  13 1252.24 316.650  10 0.50856-0.00558 0.69144-0.98297 0.62882 0.17535
   4  -2  14 994.175 279.606  10 0.50694 0.01063 0.68293-0.97443 0.64079 0.21892
   4  -2  14 860.239 285.551  11 0.40376 0.11415 0.69090-0.98199 0.68535 0.17458
  -4  -2 -14 1061.71 334.197   9 0.43292-0.95044-0.59399 0.30177-0.54028-0.31942
   4  -2  15 901.111 310.138  11 0.40623 0.12631 0.68155-0.97260 0.69464 0.22084
  -4  -2 -15 531.327 249.793   9 0.41592-0.94803-0.58963 0.29740-0.55856-0.35666
   4  -2  15 799.025 269.419  10 0.50491 0.02725 0.67285-0.96434 0.65447 0.26077
  -4  -1  19 1912.62 408.114  11 0.41152-0.44691 0.66014-0.80548 0.71504 0.25772
   4  -1 -19 2290.85 481.882   9 0.66896-0.63330-0.62126 0.47525-0.21735-0.75538
   4  -1 -18 211.367 177.107   9 0.69561-0.64536-0.61861 0.47262-0.16897-0.74824
  -4  -1  18 321.862 171.637  11 0.40846-0.45848 0.67277-0.81814 0.70315 0.21407
  -4  -1  18 760.495 272.476  10 0.49193-0.54242 0.61767-0.76307 0.72141 0.19590
  -4  -1  17 2898.23 457.250  11 0.40578-0.47043 0.68329-0.82869 0.69293 0.16874
   4  -1 -17 3235.88 520.029   9 0.72115-0.65630-0.61424 0.46827-0.11880-0.74289
  -4  -1  17 3079.63 488.348  10 0.49381-0.55889 0.62495-0.77037 0.71327 0.14851
   4  -1 -16 3586.47 520.111   9 0.74553-0.66609-0.60797 0.46201-0.06654-0.73962
  -4  -1  16 4027.31 536.559  10 0.49518-0.57485 0.63037-0.77580 0.70709 0.09915
  -4  -1  16 4352.21 531.245  11 0.40359-0.48286 0.69154-0.83698 0.68470 0.12143
   4  -1 -16 3996.66 509.774   7 0.63244-0.55382-0.72809 0.58224-0.08678-0.71950
   4  -1 -15 2209.36 393.729   9 0.76864-0.67461-0.59956 0.45362-0.01187-0.73877
  -4  -1  15 1680.51 324.514  11 0.40202-0.49592 0.69728-0.84275 0.67887 0.07172
   4  -1 -15 2233.66 368.262   7 0.61549-0.52222-0.75869 0.61286-0.04168-0.70906
  -4  -1  15 1811.62 360.424  10 0.49600-0.59027 0.63370-0.77916 0.70323 0.04748
  -4  -1  14 4436.26 493.251  11 0.40122-0.50975 0.70013-0.84562 0.67594 0.01910
   4  -1 -14 4528.42 499.187   7 0.59582-0.48791-0.78679 0.64099 0.00433-0.69952
  -4  -1  14 4934.54 542.988  10 0.49624-0.60510 0.63467-0.78015 0.70210-0.00693
   4  -1 -14 4513.33 532.369   9 0.79033-0.68170-0.58870 0.44278 0.04561-0.74072
  -4  -1  13 890.900 241.091  10 0.49580-0.61924 0.63286-0.77836 0.70421-0.06458
   4  -1 -13 883.500 241.214   9 0.81032-0.68710-0.57496 0.42905 0.10635-0.74593
  -4  -1  13 944.820 232.442  11 0.40139-0.52455 0.69953-0.84506 0.67656-0.03706
   4  -1 -13 1139.99 256.395   7 0.57325-0.45069-0.81228 0.66650 0.05135-0.69100
  -4  -1  12 10832.6 689.138  11 0.40274-0.54052 0.69467-0.84023 0.68154-0.09758
   4  -1 -12 10537.0 733.128   9 0.82820-0.69039-0.55778 0.41190 0.17083-0.75490
   4  -1 -12 10379.6 695.580   7 0.54753-0.41034-0.83495 0.68921 0.09951-0.68361
  -4  -1  12 11663.1 749.900  10 0.49450-0.63254 0.62769-0.77321 0.71017-0.12607
   4  -1 -11 36506.2 1288.20   9 0.84337-0.69097-0.53644 0.39058 0.23962-0.76816
   4  -1 -11 36386.2 1250.25   7 0.51839-0.36655-0.85453 0.70881 0.14886-0.67741
  -4  -1  11 37562.8 1200.05  11 0.40550-0.55791 0.68435-0.82994 0.69189-0.16348
  -4  -1  11 37434.9 1272.16  10 0.49211-0.64474 0.61833-0.76387 0.72069-0.19213
   4  -1 -10 10046.0 632.510   7 0.48545-0.31897-0.87061 0.72492 0.19948-0.67249
  -4  -1  10 9625.38 574.131  11 0.40995-0.57698 0.66673-0.81235 0.70889-0.23603
  -4  -1  10 10155.3 634.025  10 0.48819-0.65541 0.60361-0.74917 0.73660-0.26358
   4  -1 -10 9651.07 630.847   9 0.85492-0.68793-0.50999 0.36414 0.31322-0.78624
  -4  -1  10 10857.7 492.589   4 0.76732-0.93456 0.20273-0.34836 0.78860-0.31625
   4  -1  -9 10742.7 634.403   9 0.86153-0.67994-0.47720 0.33137 0.39206-0.80955
  -4  -1   9 10540.8 564.181  11 0.41626-0.59793 0.63901-0.78466 0.73407-0.31675
  -4  -1   9 10372.4 607.532  10 0.48208-0.66390 0.58185-0.72743 0.75880-0.34132
  -4  -1   9 11548.4 472.856   4 0.72292-0.90472 0.24797-0.39361 0.81220-0.39530
  -4  -1   8 519.140 105.446   4 0.65590-0.85226 0.30773-0.45338 0.83744-0.47599
  -4  -1   8 537.388 127.969  11 0.42446-0.62074 0.59682-0.74251 0.76907-0.40729
   4  -1  -8 614.251 161.498   9 0.86129-0.66511-0.43653 0.29072 0.47626-0.83823
  -4  -1   8 665.223 157.552  10 0.47275-0.66916 0.55068-0.69628 0.78812-0.42617
   4  -1  -7 24762.9 866.032   9 0.85153-0.64076-0.38619 0.24039 0.56529-0.87173
  -4  -1   7 25546.7 756.794  11 0.43395-0.64487 0.53340-0.67912 0.81508-0.50885
  -4  -1   7 26066.8 894.529   5 0.54880-0.75950 0.39509-0.54089 0.85540-0.54918
  -4  -1   7 26328.9 620.709   4 0.55744-0.76836 0.38180-0.52747 0.85786-0.55187
   4  -1  -6 15641.6 658.148   9 0.82876-0.60339-0.32427 0.17849 0.65744-0.90836
  -4  -1   6 15388.9 450.766   4 0.42060-0.64608 0.46503-0.61071 0.86226-0.61172
  -4  -1   6 14441.3 531.896  11 0.44280-0.66834 0.43857-0.58432 0.87134-0.62065
   4  -1  -5 22520.5 754.937   9 0.78880-0.54884-0.24930 0.10354 0.74912-0.94451
  -4  -1   5 22546.7 525.465   4 0.24830-0.48834 0.54525-0.69095 0.83791-0.64282
  -4  -1   5 22547.9 617.500  11 0.44612-0.68629 0.29896-0.44474 0.93147-0.73632
   4  -1  -4 39176.4 956.552   9 0.72775-0.47320-0.16112 0.01538 0.83434-0.97421
  -4  -1   4 39174.4 758.037  11 0.43450-0.68930 0.10323-0.24905 0.97764-0.83804
   4  -1  -3 12823.0 535.501   9 0.64367-0.37453-0.06208-0.08364 0.90509-0.98944
   4  -1  -3 12865.1 483.245   3 0.75162-0.48290 0.39589-0.54130 0.70721-0.79112
  -4  -1   3 14050.1 433.825  11 0.39601-0.66543-0.14185-0.00399 0.97940-0.89534
   4  -1  -3 13518.1 274.801  11 0.11289 0.15643-0.81992 0.67411 0.57071-0.65494
   4  -1  -2 233042. 2016.08   3 0.64647-0.36308 0.38661-0.53206 0.80492-0.83329
   4  -1  -2 236627. 1152.77  11 0.33504-0.05110-0.37221 0.22643 0.92302-0.95170
  -4  -1   2 240734. 2166.10   2-0.41452 0.13110-0.22915 0.08378-0.95883 0.98759
  -4  -1   2 244770. 1778.88  11 0.32727-0.61131-0.39586 0.24998 0.91367-0.88516
   4  -1  -2 245044. 2319.31   9 0.53884-0.25510 0.04222-0.18792 0.95341-0.98224
   4  -1  -1 34905.1 517.891  11 0.44217-0.14361 0.19533-0.34107 0.96107-0.93421
   4  -1  -1 33611.1 741.555   3 0.50727-0.20922 0.36334-0.50883 0.88745-0.86030
  -4  -1   1 33735.3 689.687  11 0.24230-0.54098-0.60674 0.46082 0.79380-0.82083
  -4  -1   1 33799.9 832.389   2-0.24862-0.04940-0.22529 0.07989-0.97440 0.94762
   4  -1  -1 34121.1 873.177   9 0.42072-0.12238 0.14388-0.28956 0.97486-0.94816
   4  -1   0 33263.9 740.826   3 0.34163-0.02892 0.32505-0.47058 0.94053-0.85784
  -4  -1   0 34071.0 737.004  11 0.16023-0.47353-0.75365 0.60771 0.65671-0.73928
  -4  -1   0 33372.9 833.957   2-0.08978-0.22284-0.21558 0.07015-0.96190 0.87959
   4  -1   0 34577.2 892.597   9 0.30005 0.01287 0.23528-0.38095 0.97090-0.88868
   4  -1   0 34410.5 608.843  11 0.43497-0.12177 0.52511-0.67082 0.82057-0.73816
  -4  -1  -1 56434.4 1017.97  11 0.09048-0.41841-0.84716 0.70118 0.52847-0.66659
   4  -1   1 55256.1 885.036  11 0.40563-0.07781 0.68385-0.82953 0.69238-0.55443
   4  -1   1 56874.0 649.339  10 0.51696-0.18913 0.81112-0.95704 0.39971-0.26193
  -4  -1  -1 53707.3 1100.47   2 0.04989-0.37711-0.20259 0.05713-0.93062 0.79278
  -4  -1  -2 17928.2 670.158   2 0.16514-0.50696-0.18878 0.04328-0.89072 0.69734
   4  -1   2 18320.1 456.805  10 0.51240-0.16998 0.83520-0.98110 0.32708-0.13377
  -4  -1  -2 18307.9 627.298  11 0.03374-0.37630-0.90509 0.75909 0.41734-0.61100
  -4  -1  -3 24646.0 814.907   2 0.25623-0.61266-0.17581 0.03028-0.84984 0.60093
  -4  -1  -3 24889.5 808.315   5-0.55713 0.20033-0.13748-0.00855 0.64348-0.89244
  -4  -1  -3 24877.3 757.847   8 0.02935-0.38615 0.35797-0.50404-0.89231 0.64318
   4  -1   3 24700.8 613.539  10 0.51016-0.15315 0.84219-0.98807 0.30209-0.05324
   4  -1   4 50155.3 975.236  10 0.50969-0.13808 0.84348-0.98934 0.29723 0.00716
  -4  -1  -4 49250.0 1211.78   2 0.32624-0.69726-0.16454 0.01897-0.81248 0.50804
  -4  -1  -4 52508.5 1203.00   9 0.37033-0.74182-0.57676 0.43060-0.60512 0.30071
  -4  -1  -4 50394.4 1119.74   8 0.12708-0.49851 0.34080-0.48691-0.86486 0.56021
   4  -1   4 49537.5 1230.51   1 0.39161-0.02034-0.65639 0.51039-0.52084 0.82485
  -4  -1  -5 17808.6 772.338   2 0.37898-0.76461-0.15525 0.00965-0.78070 0.42073
   4  -1   5 18756.8 656.845  10 0.51023-0.12403 0.84200-0.98784 0.30282 0.05710
  -4  -1  -5 17121.5 686.047   8 0.20420-0.59028 0.32470-0.47083-0.83682 0.47666
   4  -1   5 18429.4 785.504   1 0.48102-0.09519-0.64705 0.50109-0.44617 0.80570
  -4  -1  -5 19552.9 789.166   9 0.39788-0.78396-0.58474 0.43856-0.57740 0.21746
  -4  -1  -6 37805.3 1164.48   9 0.41484-0.81552-0.58934 0.44315-0.55970 0.14424
   4  -1   6 37871.7 1174.89   1 0.55838-0.15798-0.63228 0.48637-0.37345 0.78850
  -4  -1  -6 37944.8 1070.13   8 0.26329-0.66400 0.31076-0.45694-0.81140 0.39572
   4  -1   6 37817.2 1013.67  10 0.51132-0.11053 0.83879-0.98461 0.31454 0.10092
  -4  -1  -7 40704.6 1285.12   9 0.42422-0.83949-0.59179 0.44558-0.54970 0.07872
   4  -1   7 42554.8 1300.52   1 0.62506-0.21010-0.61358 0.46770-0.30350 0.77407
  -4  -1  -7 41671.2 1183.95   8 0.30740-0.72275 0.29942-0.44563-0.79009 0.31889
   4  -1   7 41422.0 1147.06  10 0.51266-0.09727 0.83430-0.98010 0.33016 0.14083
  -4  -1  -8 2513.64 354.624   9 0.42797-0.85783-0.59274 0.44651-0.54566 0.01915
  -4  -1  -8 2462.17 313.652   8 0.33936-0.76935 0.29068-0.43692-0.77334 0.24663
   4  -1   8 1846.08 303.147   1 0.68249-0.25296-0.59202 0.44618-0.23665 0.76272
   4  -1   8 2005.37 277.073  10 0.51405-0.08408 0.82872-0.97450 0.34842 0.17811
   4  -1   9 5145.72 500.247   1 0.73195-0.28786-0.56837 0.42257-0.17288 0.75448
  -4  -1  -9 5336.41 529.014   9 0.42739-0.87184-0.59259 0.44635-0.54629-0.03574
  -4  -1  -9 6218.72 505.195   8 0.36154-0.80617 0.28435-0.43063-0.76106 0.17883
   4  -1   9 5649.53 487.039  10 0.51537-0.07080 0.82216-0.96792 0.36856 0.21351
   4  -1  10 4595.33 504.321   1 0.77457-0.31593-0.54315 0.39739-0.11206 0.74917
  -4  -1 -10 4559.93 516.328   9 0.42335-0.88240-0.59156 0.44530-0.55064-0.08692
  -4  -1 -10 4729.77 466.652   8 0.37578-0.83505 0.28017-0.42648-0.75287 0.11513
   4  -1  10 5069.61 492.517  10 0.51653-0.05737 0.81466-0.96039 0.39006 0.24754
   4  -1  11 274.524 167.251   1 0.81130-0.33809-0.51671 0.37099-0.05393 0.74656
  -4  -1 -11 1018.04 282.887   9 0.41648-0.89012-0.58977 0.44349-0.55797-0.13511
  -4  -1 -11 1045.91 236.248   8 0.38350-0.85741 0.27786-0.42420-0.74834 0.05508
   4  -1  11 489.423 172.908  10 0.51745-0.04369 0.80623-0.95195 0.41261 0.28054
  -4  -1 -12 2673.57 439.839   9 0.40721-0.89544-0.58730 0.44100-0.56773-0.18087
  -4  -1 -12 2629.60 378.289   8 0.38579-0.87433 0.27717-0.42355-0.74698-0.00180
   4  -1  12 2959.15 442.285   1 0.84288-0.35511-0.48928 0.34360 0.00176 0.74638
   4  -1  12 3686.39 472.500  10 0.51807-0.02973 0.79688-0.94258 0.43596 0.31272
  -4  -1 -13-103.893 153.937   9 0.39585-0.89868-0.58417 0.43785-0.57949-0.22464
  -4  -1 -13 210.429 148.619   8 0.38343-0.88662 0.27788-0.42429-0.74838-0.05592
   4  -1  13-31.3446 124.655   1 0.86994-0.36761-0.46099 0.31535 0.05529 0.74837
  -4  -1 -14 8776.36 849.223   9 0.38263-0.90005-0.58039 0.43406-0.59290-0.26675
   4  -1  14 9386.88 821.678  10 0.51826-0.00073 0.77533-0.92099 0.48445 0.37531
  -4  -1 -15 2086.20 442.083   9 0.36771-0.89972-0.57597 0.42961-0.60770-0.30748
   4  -1  15 2149.85 413.734  10 0.51774 0.01438 0.76307-0.90870 0.50937 0.40592
   4  -1  16 2796.39 478.644  10 0.51676 0.02996 0.74976-0.89537 0.53464 0.43619
   4   0 -19-130.275 147.891   9 0.61211-0.57635-0.62186 0.62172-0.31002-0.66266
  -4   0  19 156.764 160.869  10 0.50674-0.54268 0.68191-0.68144 0.64219 0.33072
   4   0 -18 56.0637 156.079   9 0.64010-0.58975-0.62233 0.62221-0.26599-0.65117
   4   0 -18 217.517 160.586   7 0.67437-0.62489-0.58569 0.58551-0.25524-0.66207
  -4   0  18 341.186 225.823  10 0.50891-0.55944 0.69338-0.69292 0.62604 0.29133
   4   0 -17 610.911 237.992   7 0.66852-0.60440-0.61947 0.61931-0.21987-0.64189
   4   0 -17 65.3725 122.165   9 0.66727-0.60232-0.62138 0.62128-0.22030-0.64133
  -4   0  17 417.310 187.701  10 0.51069-0.57581 0.70353-0.70310 0.61113 0.25071
   4   0 -16 434.473 184.409   9 0.69365-0.61411-0.61887 0.61879-0.17266-0.63345
   4   0 -16 546.979 220.314   7 0.66096-0.58219-0.65141 0.65128-0.18415-0.62206
  -4   0  16 421.200 194.218  10 0.51212-0.59183 0.71234-0.71193 0.59770 0.20860
   4   0 -15 1660.21 328.821   9 0.71926-0.62513-0.61464 0.61457-0.12266-0.62793
   4   0 -15 1598.32 336.736   7 0.65170-0.55828-0.68160 0.68150-0.14801-0.60265
  -4   0  15 1450.09 309.939  10 0.51322-0.60753 0.71973-0.71934 0.58606 0.16470
   4   0 -14 11231.1 789.993   9 0.74407-0.63535-0.60841 0.60837-0.06979-0.62527
   4   0 -14 11586.9 806.709   7 0.64070-0.53264-0.71011 0.71004-0.11138-0.58374
  -4   0  14 11646.9 802.703  10 0.51404-0.62293 0.72556-0.72519 0.57660 0.11862
   4   0 -13 864.198 235.777   7 0.62792-0.50522-0.73697 0.73693-0.07415-0.56542
   4   0 -13 784.788 218.872   9 0.76801-0.64469-0.59983 0.59981-0.01345-0.62609
  -4   0  13 931.146 248.541  10 0.51457-0.63806 0.72964-0.72929 0.56985 0.06984
  -4   0  12 33086.8 1212.59  10 0.51482-0.65291 0.73166-0.73133 0.56646 0.01769
   4   0 -12 33039.8 1207.47   9 0.79087-0.65296-0.58838 0.58837 0.04715-0.63117
   4   0 -12 32453.3 1239.98   7 0.61328-0.47593-0.76219 0.76217-0.03623-0.54780
  -4   0  11 29539.6 1082.98  10 0.51476-0.66743 0.73113-0.73082 0.56734-0.03873
   4   0 -11 27963.0 1107.57   7 0.59663-0.44465-0.78575 0.78576 0.00252-0.53100
   4   0 -11 27948.2 1054.31   9 0.81232-0.65982-0.57331 0.57332 0.11300-0.64149
  -4   0  10 17671.3 736.146   4 0.82333-0.99054 0.13659-0.13651 0.74780-0.27541
   4   0 -10 16100.1 757.671   9 0.83173-0.66464-0.55355 0.55358 0.18531-0.65828
   4   0 -10 16652.1 818.908   7 0.57782-0.41118-0.80759 0.80763 0.04224-0.51517
  -4   0  10 17860.7 792.714  10 0.51427-0.68154 0.72731-0.72702 0.57372-0.10064
   4   0  -9 608.882 156.776   9 0.84801-0.66632-0.52756 0.52760 0.26557-0.68301
   4   0  -9 755.608 192.447   7 0.55659-0.37532-0.82762 0.82768 0.08310-0.50049
  -4   0   9 665.778 161.214  10 0.51311-0.69498 0.71897-0.71870 0.58726-0.16972
  -4   0   8 3771.38 264.639   6-0.38077 0.18454 0.92058-0.92083-0.01810 0.38014
   4   0  -8 3405.75 310.516   9 0.85923-0.66295-0.49305 0.49312 0.35538-0.71730
   4   0  -8 4419.98 389.303   7 0.53265-0.33673-0.84566 0.84575 0.12532-0.48716
  -4   0   8 3460.91 311.524  10 0.51078-0.70724 0.70408-0.70383 0.61030-0.24830
  -4   0   7 341.987 105.702   4 0.71627-0.92716 0.25432-0.25428 0.81521-0.50918
  -4   0   7 491.034 104.775   6-0.31858 0.10776 0.94532-0.94555-0.01837 0.32488
   4   0  -7 438.847 117.273   9 0.86208-0.65121-0.44680 0.44688 0.45619-0.76258
   4   0  -7 419.442 135.425   7 0.50557-0.29501-0.86147 0.86159 0.16915-0.47544
  -4   0   7 497.024 118.429  10 0.50618-0.71723 0.67910-0.67887 0.64604-0.33957
   4   0  -6 2988.60 257.340   9 0.85102-0.62555-0.38436 0.38446 0.56826-0.81913
  -4   0   6 3250.55 252.091   6-0.26603 0.04062 0.96237-0.96258-0.01854 0.26950
  -4   0   6 2903.43 250.489   4 0.64737-0.87282 0.31472-0.31470 0.83992-0.58933
   4   0  -6 2857.76 285.635   7 0.47481-0.24960-0.87466 0.87481 0.21487-0.46562
  -4   0   6 3192.11 252.589  10 0.49697-0.72261 0.63765-0.63744 0.69860-0.44767
   4   0  -5 56429.9 1034.08   9 0.81742-0.57736-0.30050 0.30062 0.68865-0.88400
  -4   0   5 56123.4 1047.74   6-0.22322-0.01679 0.97378-0.97398-0.01862 0.21405
  -4   0   5 61036.7 763.985  11 0.40495-0.64506 0.68647-0.68643 0.68978-0.49455
  -4   0   5 56833.1 1167.89   5 0.55106-0.79091 0.39586-0.39588 0.85397-0.65872
  -4   0   5 59127.6 975.745  10 0.47798-0.71822 0.56790-0.56770 0.77228-0.57688
  -4   0   5 55013.0 1023.69   4 0.55424-0.79425 0.38399-0.38398 0.85825-0.66312
   4   0  -4 832.616 126.285   9 0.75009-0.49544-0.19114 0.19128 0.80782-0.94764
  -4   0   4 573.477 117.032   6-0.19019-0.06442 0.98112-0.98131-0.01866 0.15855
  -4   0   4 572.948 60.6249  11 0.44313-0.69788 0.43305-0.43304 0.87421-0.73452
  -4   0   4 625.473 131.310   5 0.46297-0.71743 0.36462-0.36467 0.90146-0.76174
  -4   0   4 440.354 108.553   4 0.43506-0.68963 0.45714-0.45715 0.86289-0.72322
   4   0  -3 30669.1 699.009   9 0.63994-0.37069-0.05806 0.05822 0.90744-0.99174
  -4   0   3 30075.4 763.829   6-0.16700-0.10221 0.98554-0.98570-0.01868 0.10303
  -4   0   3 29666.4 763.900   5 0.34481-0.61388 0.31880-0.31888 0.94265-0.85844
  -4   0   3 30520.0 725.346   4 0.29355-0.56268 0.52650-0.52652 0.84712-0.76290
   4   0  -2 1578.74 185.631   3 0.46776-0.18431 0.35511-0.35489 0.90395-0.93244
  -4   0   2 1427.14 171.092   5 0.19549-0.47917 0.25574-0.25584 0.96495-0.93626
   4   0  -2 1346.46 152.887   9 0.48968-0.20584 0.08623-0.08606 0.96587-0.99465
  -4   0   1 168590. 1733.74   5 0.02274-0.32104 0.17664-0.17676 0.95537-0.98219
   4   0  -1 164028. 1799.78   3 0.31452-0.01641 0.31791-0.31774 0.94552-0.91847
   4   0  -1 172451. 1216.90  10-0.01177 0.31037 0.38099-0.38110-0.89495 0.92170
   4   0  -1 170340. 1681.29   9 0.31944-0.02101 0.22132-0.22113 0.97304-0.94630
  -4   0   0 276263. 2289.16   6-0.15650-0.15650 0.98733-0.98745-0.01868-0.06358
  -4   0   0 279198. 2235.19   5-0.15645-0.15645 0.08807-0.08821 0.90792-0.99027
   4   0   0 280034. 1647.31  10 0.15660 0.15660 0.61729-0.61738-0.70245 0.78474
  -4   0  -1 29453.0 747.076   6-0.17271-0.15489 0.98451-0.98461-0.01867-0.11913
  -4   0  -1 28612.8 736.619   5-0.32291-0.00460-0.00042 0.00026 0.82809-0.96595
  -4   0  -1 28405.9 787.509   8-0.01591-0.31157 0.36471-0.36483-0.90203 0.76402
   4   0   1 29368.9 588.662  10 0.26773 0.06005 0.74674-0.74681-0.51669 0.65452
  -4   0  -2 22476.8 655.612   6-0.19878-0.14341 0.97933-0.97942-0.01865-0.17469
  -4   0  -2 21727.9 664.730   5-0.46403 0.12190-0.08091 0.08072 0.72890-0.92228
  -4   0  -2 22062.6 719.451   8 0.10412-0.44624 0.34516-0.34531-0.87211 0.67858
   4   0   2 21624.8 564.153  10 0.33665 0.00573 0.81272-0.81277-0.36987 0.56324
  -4   0  -2 22868.5 530.411   7 0.02553-0.36789 0.73076-0.73114-0.65115 0.45752
  -4   0  -3 30902.2 765.018   6-0.23473-0.12206 0.97093-0.97100-0.01860-0.23027
   4   0   3 30629.3 736.217  10 0.38119-0.02422 0.84706-0.84709-0.25660 0.50550
  -4   0  -3 30727.0 883.685   8 0.20142-0.55818 0.32532-0.32551-0.83793 0.58890
  -4   0  -3 31354.9 607.757   7 0.12311-0.48011 0.64957-0.64997-0.69123 0.44205
  -4   0  -4 63325.2 1093.01   6-0.28059-0.09079 0.95799-0.95804-0.01850-0.28592
  -4   0  -4 62690.7 1317.01   2 0.29558-0.66670-0.16962 0.16967-0.82950 0.52515
  -4   0  -4 63027.8 1325.46   8 0.27746-0.64886 0.30721-0.30743-0.80477 0.50022
  -4   0  -4 66565.3 894.233   7 0.21432-0.58596 0.55900-0.55943-0.71617 0.41145
   4   0   4 62445.9 1150.40  10 0.41190-0.04034 0.86533-0.86534-0.16657 0.47101
   4   0   5 773.931 193.887   1 0.62337-0.23776-0.61413 0.61385-0.30538 0.66501
  -4   0  -5 768.779 128.926   6-0.33642-0.04956 0.93874-0.93879-0.01830-0.34165
  -4   0  -5 500.253 150.284   8 0.33534-0.72137 0.29181-0.29207-0.77551 0.41544
  -4   0  -5 799.135 184.378   2 0.35420-0.73991-0.15970 0.15971-0.79604 0.43615
  -4   0  -5 794.429 105.367   7 0.29186-0.67815 0.46965-0.47010-0.72684 0.36658
   4   0   5 692.313 144.773  10 0.43435-0.04819 0.87479-0.87478-0.09213 0.45211
   4   0   6 12552.1 700.080   1 0.67842-0.27825-0.59374 0.59350-0.24161 0.65676
   4   0   6 13659.5 631.362  10 0.45154-0.05079 0.87896-0.87893-0.02831 0.44383
  -4   0  -6 14081.8 695.393   8 0.37840-0.77908 0.27938-0.27968-0.75134 0.33575
  -4   0  -6 13888.8 697.052   2 0.39759-0.79790-0.15180 0.15178-0.76869 0.35328
  -4   0  -6 14265.7 441.682   7 0.35258-0.75351 0.39056-0.39104-0.72742 0.31160
   4   0   7 3440.11 398.025   1 0.72543-0.31070-0.57180 0.57160-0.18166 0.65233
  -4   0  -7 3463.49 366.412   8 0.40962-0.82493 0.26983-0.27016-0.73247 0.26137
   4   0   7 3698.20 357.753  10 0.46517-0.04983 0.87965-0.87960 0.02808 0.44297
   4   0   8-1.61112 145.757   1 0.76581-0.33651-0.54876 0.54860-0.12509 0.65127
  -4   0  -8 62.8041 99.4631   8 0.43139-0.86134 0.26289-0.26325-0.71861 0.19199
   4   0   8 142.219 111.989  10 0.47625-0.04632 0.87786-0.87779 0.07911 0.44748
  -4   0  -9 128089. 2399.84   8 0.44559-0.89018 0.25823-0.25863-0.70925 0.12711
   4   0   9 129752. 2342.46  10 0.48540-0.04087 0.87415-0.87406 0.12618 0.45594
   4   0   9 134707. 2574.66   1 0.80064-0.35678-0.52491 0.52479-0.07145 0.65314
   4   0  10-33.4541 153.467   1 0.83077-0.37235-0.50041 0.50033-0.02033 0.65755
  -4   0 -10-3.50063 90.1030   8 0.45362-0.91285 0.25555-0.25599-0.70384 0.06619
   4   0  10-16.6711 97.9275  10 0.49302-0.03391 0.86887-0.86876 0.17025 0.46741
   4   0  11 4090.87 506.213   1 0.85686-0.38387-0.47533 0.47529 0.02861 0.66413
  -4   0 -11 4418.96 498.223   8 0.45654-0.93041 0.25457-0.25504-0.70185 0.00868
   4   0  11 4452.19 489.021  10 0.49939-0.02568 0.86222-0.86209 0.21201 0.48119
   4   0  12 5974.51 596.357  10 0.50467-0.01637 0.85432-0.85417 0.25194 0.49680
  -4   0 -12 5583.83 583.222   8 0.45516-0.94367 0.25503-0.25554-0.70279-0.04590
  -4   0 -13 6150.89 637.029   8 0.45007-0.95321 0.25674-0.25728-0.70624-0.09796
   4   0  13 6441.82 646.075  10 0.50900-0.00610 0.84524-0.84507 0.29041 0.51386
  -4   0 -14 519.984 208.010   8 0.44168-0.95947 0.25953-0.26010-0.71185-0.14787
   4   0  14 404.519 194.584  10 0.51246 0.00503 0.83502-0.83483 0.32771 0.53210
  -4   0 -15 471.393 245.845   8 0.43034-0.96276 0.26323-0.26384-0.71929-0.19594
   4   0  15 580.786 223.160  10 0.51509 0.01698 0.82367-0.82346 0.36404 0.55131
  -4   0 -16 1816.58 387.874   8 0.41625-0.96331 0.26775-0.26839-0.72831-0.24244
   4   0  16 2177.15 432.234  10 0.51695 0.02972 0.81117-0.81094 0.39958 0.57131
   4   1 -19 1467.53 362.774   7 0.68108-0.64610-0.46693 0.61244-0.36406-0.60872
  -4   1  19 2716.90 483.872  10 0.51575-0.55173 0.73963-0.59330 0.55278 0.42018
   4   1 -18 143.695 170.172   7 0.68113-0.63150-0.49930 0.64485-0.33650-0.58074
  -4   1  18 761.054 258.959  10 0.51700-0.56757 0.75254-0.60624 0.52949 0.38794
   4   1 -17 3226.74 490.839   7 0.67995-0.61568-0.52990 0.67547-0.30908-0.55261
  -4   1  17 2539.72 428.692  10 0.51782-0.58298 0.76440-0.61812 0.50674 0.35515
   4   1 -16 4022.89 501.662   9 0.60747-0.52783-0.62165 0.76744-0.31707-0.48900
   4   1 -16 4421.04 565.849   7 0.67765-0.59873-0.55882 0.70442-0.28183-0.52431
  -4   1  16 3553.90 495.907  10 0.51826-0.59802 0.77523-0.62897 0.48466 0.32169
   4   1 -15 2028.79 380.700   7 0.67431-0.58075-0.58616 0.73179-0.25476-0.49583
   4   1 -15 2286.51 358.042   9 0.63348-0.53925-0.62234 0.76815-0.27666-0.47388
  -4   1  15 1784.97 330.882  10 0.51837-0.61272 0.78506-0.63882 0.46338 0.28743
   4   1 -14 4925.14 497.950   9 0.65909-0.55027-0.62182 0.76765-0.23439-0.46063
   4   1 -14 5120.85 561.133   7 0.67000-0.56179-0.61199 0.75764-0.22791-0.46714
  -4   1  14 4246.54 483.050  10 0.51820-0.62714 0.79389-0.64767 0.44311 0.25217
   4   1 -13 1103.31 226.478   9 0.68443-0.56101-0.61994 0.76579-0.18972-0.44977
   4   1 -13 509.970 201.431   7 0.66479-0.54194-0.63635 0.78204-0.20128-0.43822
  -4   1  13 1173.08 244.747  10 0.51780-0.64133 0.80171-0.65551 0.42409 0.21565
   4   1 -12 11847.9 695.719   9 0.70962-0.57162-0.61646 0.76233-0.14196-0.44201
   4   1 -12 10523.7 738.869   7 0.65875-0.52126-0.65931 0.80502-0.17494-0.40902
  -4   1  12 11129.3 691.499  10 0.51723-0.65536 0.80850-0.66232 0.40669 0.17752
   4   1 -11 39298.4 1181.08   9 0.73482-0.58223-0.61101 0.75689-0.09008-0.43837
   4   1 -11 37469.5 1333.51   7 0.65194-0.49981-0.68088 0.82662-0.14891-0.37950
  -4   1  11 38683.8 1209.26  10 0.51659-0.66931 0.81418-0.66802 0.39139 0.13728
  -4   1  10 9599.08 605.393   4 0.83258-0.99976 0.12439 0.02140 0.73950-0.26707
   4   1 -10 10649.8 579.236   9 0.76015-0.59296-0.60298 0.74888-0.03263-0.44029
  -4   1  10 10620.4 464.764   6-0.10695-0.06002 0.99417-0.84859-0.01867 0.49174
   4   1 -10 9014.17 633.331   7 0.64444-0.47766-0.70109 0.84685-0.12327-0.34959
  -4   1  10 9325.37 557.419  10 0.51596-0.68327 0.81861-0.67247 0.37892 0.09421
  -4   1   9 11190.3 623.387   4 0.81516-0.99689 0.14704-0.00127 0.75472-0.33774
   4   1  -9 11340.9 550.586   9 0.78564-0.60386-0.59134 0.73726 0.03257-0.44997
  -4   1   9 11591.8 493.387   6-0.02184-0.15973 0.99967-0.85408-0.01853 0.43606
   4   1  -9 10890.2 658.235   7 0.63632-0.45490-0.71994 0.86573-0.09809-0.31923
  -4   1   9 10666.0 558.792  10 0.51548-0.69738 0.82154-0.67542 0.37038 0.04721
  -4   1   8 444.416 144.954   4 0.79062-0.98692 0.17666-0.03090 0.77338-0.41185
  -4   1   8 283.631 94.6052   6 0.05026-0.24643 0.99823-0.85262-0.01830 0.38030
   4   1  -8 364.322 99.5851   9 0.81108-0.61470-0.57434 0.72028 0.10886-0.47073
   4   1  -8 546.360 168.994   7 0.62768-0.43162-0.73743 0.88325-0.07348-0.28829
  -4   1   8 410.533 109.729  10 0.51531-0.71180 0.82251-0.67641 0.36751-0.00545
   4   1  -7 25937.8 705.439   9 0.83545-0.62448-0.54870 0.69465 0.20139-0.50774
  -4   1   7 24807.4 727.104   6 0.11058-0.32134 0.99273-0.84710-0.01803 0.32449
   4   1  -7 25098.1 905.815   7 0.61863-0.40792-0.75354 0.89939-0.04959-0.25663
  -4   1   7 25840.7 727.309  10 0.51565-0.72673 0.82056-0.67448 0.37326-0.06674
  -4   1   7 23832.4 834.882   4 0.75672-0.96758 0.21402-0.06828 0.79483-0.48876
   4   1  -6 15291.5 488.331   9 0.85550-0.62993-0.50815 0.65412 0.31798-0.56880
  -4   1   6 15718.6 582.344   6 0.16003-0.38539 0.98525-0.83961-0.01776 0.26868
   4   1  -6 15251.5 670.383   7 0.60931-0.38396-0.76823 0.91411-0.02663-0.22405
  -4   1   6 15374.0 508.854  10 0.51666-0.74234 0.81358-0.66752 0.39302-0.14204
  -4   1   5 21939.4 695.865   6 0.19933-0.43928 0.97736-0.83170-0.01751 0.21289
   4   1  -5 22845.0 771.194   7 0.59994-0.35994-0.78143 0.92734-0.00486-0.19026
   4   1  -5 22656.2 541.414   9 0.86165-0.62149-0.44044 0.58644 0.46870-0.66400
  -4   1   5 24118.5 557.370  10 0.51811-0.75838 0.79612-0.65008 0.43778-0.24234
   4   1  -4 39159.5 647.447   9 0.82867-0.57392-0.32407 0.47008 0.65771-0.79749
  -4   1   4 38480.0 873.808   5 0.57291-0.82730 0.40314-0.25737 0.83950-0.69971
  -4   1   4 38223.2 918.916   6 0.22900-0.48356 0.97023-0.82455-0.01730 0.15714
   4   1  -4 38166.5 942.812   7 0.59079-0.33615-0.79302 0.93895 0.01527-0.15485
  -4   1   4 41049.9 605.540  10 0.51681-0.77168 0.75036-0.60434 0.53352-0.39362
   4   1  -3 13768.8 366.003   9 0.70939-0.44005-0.13782 0.28385 0.85324-0.93750
  -4   1   3 14030.0 492.300   5 0.45912-0.72812 0.36319-0.21744 0.90319-0.81892
  -4   1   3 13346.7 549.008   6 0.24947-0.51862 0.96471-0.81902-0.01714 0.10145
   4   1  -3 12726.8 534.031   3 0.49750-0.22864 0.36136-0.21543 0.89178-0.97590
   4   1  -3 13711.4 528.137   7 0.58229-0.31301-0.80279 0.94875 0.03312-0.11716
  -4   1   3 13860.7 258.707  10 0.48322-0.75267 0.58580-0.43980 0.75489-0.67052
  -4   1   2 243972. 1928.07   5 0.29676-0.58037 0.29909-0.15337 0.95317-0.92442
   4   1  -2 234841. 2018.68   7 0.57512-0.29119-0.81038 0.95637 0.04764-0.07613
   4   1  -2 244038. 1564.49   9 0.48047-0.19654 0.09418 0.05186 0.96761-0.99634
   4   1  -1 35666.2 720.249   7 0.57039-0.27182-0.81510 0.96111 0.05696-0.02990
  -4   1   1 34457.4 706.269   5 0.08644-0.38466 0.20653-0.06083 0.96308-0.98984
   4   1  -1 34726.1 766.760  10-0.10047 0.39902 0.23923-0.09349-0.95812 0.98493
   4   1  -1 33932.9 778.018   1 0.39396-0.09595-0.65624 0.80140-0.51899 0.54562
  -4   1   1 35851.4 870.377   7 0.03839-0.33667 0.72096-0.57552-0.65719 0.63027
  -4   1   0 32692.5 815.554   7 0.11534-0.42826 0.65662-0.51120-0.68853 0.60607
  -4   1   0 32604.3 844.955   6 0.25799-0.57093 0.96227-0.81653-0.01707-0.06523
  -4   1   0 34174.2 691.109   5-0.14709-0.16575 0.09286 0.05282 0.91135-0.99364
  -4   1   0 33872.3 871.598   8-0.02006-0.29274 0.36529-0.21950-0.90282 0.82043
   4   1   0 32439.3 803.643   1 0.49075-0.17817-0.64555 0.79076-0.43746 0.51962
   4   1   0 34080.5 633.970   7 0.57013-0.25691-0.81535 0.96139 0.05747 0.02514
   4   1   0 34364.7 775.816  10 0.00279 0.31037 0.40312-0.25736-0.88208 0.96442
  -4   1   0 33007.9 808.719   2-0.29608-0.01671-0.22709 0.37288-0.97311 0.89098
  -4   1  -1 56431.6 1109.95   6 0.24343-0.57097 0.96639-0.82064-0.01719-0.12065
   4   1   1 57739.3 716.071   7 0.57852-0.25066-0.80686 0.95293 0.04083 0.09732
  -4   1  -1 56455.2 901.127   5-0.36298 0.03553-0.02271 0.16837 0.80316-0.94096
   4   1   1 54814.9 1112.38   1 0.56766-0.24052-0.63004 0.77528-0.36415 0.50182
  -4   1  -1 55935.8 1160.27   8 0.10556-0.43301 0.34489-0.19913-0.87166 0.73375
   4   1   1 56397.2 1031.91  10 0.09743 0.23031 0.53929-0.39351-0.78122 0.91910
  -4   1  -1 55823.3 1058.40   7 0.18886-0.51643 0.58578-0.44039-0.71049 0.57248
  -4   1  -1 55841.7 1070.99   2-0.13994-0.18745-0.21924 0.36500-0.96855 0.83089
  -4   1  -2 18629.1 639.745   6 0.22000-0.56214 0.97250-0.82673-0.01736-0.17602
   4   1   2 18280.0 689.025   1 0.62984-0.28814-0.61200 0.75728-0.29820 0.49138
  -4   1  -2 18322.0 532.212   5-0.53318 0.19113-0.12262 0.26825 0.66724-0.86056
  -4   1  -2 18861.9 702.799   8 0.20810-0.55018 0.32382-0.17810-0.83525 0.64182
   4   1   2 19104.5 332.408   7 0.60616-0.26366-0.77283 0.91892-0.01918 0.21288
   4   1   2 18534.6 617.805  10 0.17770 0.16464 0.64369-0.49789-0.67120 0.86462
  -4   1  -2 18239.3 607.853   7 0.25594-0.59815 0.51256-0.36720-0.72319 0.52964
  -4   1  -2 17400.2 616.171   2-0.00066-0.34133-0.20777 0.35349-0.94409 0.75089
  -4   1  -3 24519.2 735.556   6 0.18743-0.54416 0.97993-0.83415-0.01759-0.23133
   4   1   3 24570.5 838.533   1 0.68109-0.32482-0.59261 0.73793-0.23836 0.48706
  -4   1  -3 24519.3 835.492   8 0.28883-0.64555 0.30430-0.15861-0.79931 0.55036
   4   1   3 24409.0 751.185  10 0.24288 0.11405 0.71998-0.57416-0.56306 0.81201
  -4   1  -3 26132.2 733.234   7 0.31436-0.67121 0.44136-0.29603-0.72792 0.47882
   4   1   4 50550.8 1265.00   1 0.72410-0.35327-0.57248 0.71784-0.18344 0.48766
  -4   1  -4 49643.1 1042.36   6 0.14529-0.51661 0.98776-0.84196-0.01785-0.28661
  -4   1  -4 51218.5 1265.05   8 0.35082-0.72218 0.28744-0.14179-0.76706 0.46260
   4   1   4 49438.7 1137.90  10 0.29494 0.07658 0.77435-0.62851-0.46220 0.76669
  -4   1  -4 50485.4 1039.61   7 0.36309-0.73459 0.37595-0.23065-0.72673 0.42208
   4   1   5 18060.5 811.481   1 0.76076-0.37536-0.55189 0.69729-0.13247 0.49220
  -4   1  -5 18566.9 732.321   2 0.27797-0.66377-0.17244 0.31806-0.83881 0.47901
  -4   1  -5 17577.0 615.037   6 0.09300-0.47892 0.99474-0.84893-0.01812-0.34188
  -4   1  -5 18844.2 808.992   8 0.39748-0.78347 0.27360-0.12799-0.73995 0.37997
  -4   1  -5 18354.0 645.582   7 0.40221-0.78835 0.31890-0.17362-0.72189 0.36170
   4   1   5 18582.9 741.142  10 0.33649 0.04962 0.81258-0.66672-0.37025 0.73028
  -4   1  -6 39348.9 922.208   6 0.02976-0.43028 0.99921-0.85338-0.01838-0.39716
  -4   1  -6 36279.6 1073.77   2 0.33113-0.73153-0.16371 0.30930-0.80967 0.39434
  -4   1  -6 35117.2 1158.59   8 0.43186-0.83250 0.26274-0.11715-0.71830 0.30281
  -4   1  -6 37178.7 947.561   7 0.43250-0.83328 0.27151-0.12626-0.71542 0.29968
   4   1   6 37800.6 1116.59  10 0.36992 0.03078 0.83914-0.69326-0.28696 0.70252
   4   1   6 35599.0 1198.56   1 0.79237-0.39242-0.53096 0.67640-0.08465 0.49991
  -4   1  -7 42355.3 1220.76   2 0.37024-0.78524-0.15684 0.30240-0.78619 0.31533
  -4   1  -7 44932.0 1072.97   7 0.45511-0.87054 0.23407-0.08885-0.70881 0.23752
  -4   1  -7 41367.2 1313.67   8 0.45648-0.87176 0.25459-0.10904-0.70189 0.23088
   4   1   7 42678.6 1252.71  10 0.39713 0.01817 0.85720-0.71130-0.21133 0.68243
   4   1   7 41055.2 1349.65   1 0.81989-0.40538-0.50974 0.65522-0.03938 0.51015
   4   1   8 1778.03 322.788   1 0.84399-0.41491-0.48822 0.63374 0.00383 0.52246
  -4   1  -8 1874.60 318.570   8 0.47329-0.90320 0.24884-0.10333-0.69023 0.16370
  -4   1  -8 2092.78 245.409   7 0.47121-0.90128 0.20619-0.06100-0.70308 0.17624
   4   1   8 2151.24 306.601  10 0.41953 0.01036 0.86898-0.72306-0.14221 0.66885
  -4   1  -8 1939.32 287.277   2 0.39824-0.82784-0.15167 0.29720-0.76826 0.24187
  -4   1  -9 6027.98 560.610   8 0.48377-0.92832 0.24518-0.09970-0.68276 0.10071
   4   1   9 5438.58 505.414  10 0.43817 0.00631 0.87598-0.73004-0.07853 0.66070
   4   1   9 5774.74 563.294   1 0.86516-0.42152-0.46639 0.61195 0.04535 0.53646
  -4   1 -10 4777.35 522.729   8 0.48906-0.94825 0.24331-0.09786-0.67893 0.04137
   4   1  10 4797.65 501.667  10 0.45380 0.00527 0.87925-0.73329-0.01936 0.65707
  -4   1 -11 762.843 249.157   8 0.48999-0.96382 0.24298-0.09757-0.67825-0.01483
   4   1  11 831.530 227.894  10 0.46699 0.00668 0.87952-0.73354 0.03608 0.65717
   4   1  12 3231.87 462.256  10 0.47814 0.01012 0.87728-0.73128 0.08841 0.66038
  -4   1 -12 2849.25 444.466   8 0.48721-0.97568 0.24396-0.09859-0.68028-0.06832
  -4   1 -13 105.860 163.580   8 0.48118-0.98428 0.24609-0.10075-0.68462-0.11949
   4   1  13-17.3680 151.849  10 0.48756 0.01529 0.87289-0.72687 0.13814 0.66618
  -4   1 -14 8329.76 803.603   8 0.47225-0.98999 0.24920-0.10390-0.69096-0.16867
   4   1  14 8632.37 801.263  10 0.49548 0.02197 0.86660-0.72056 0.18570 0.67416
   4   1  15 2055.39 413.613  10 0.50206 0.02998 0.85857-0.71250 0.23143 0.68397
  -4   1 -15 2034.09 420.613   8 0.46068-0.99306 0.25317-0.10790-0.69901-0.21613
  -4   1 -16 2996.89 516.061   8 0.44665-0.99367 0.25788-0.11265-0.70854-0.26212
  -4   1 -16 2374.08 432.884   2 0.40827-0.95468-0.14977 0.29503-0.76161-0.20905
   4   1  16 3081.23 521.355  10 0.50742 0.03921 0.84891-0.70283 0.27561 0.69533
   4   2 -18-135.534 135.198   7 0.67754-0.62776-0.40341 0.69468-0.41427-0.50289
  -4   2  18 200.462 177.785  10 0.51814-0.56875 0.79539-0.50324 0.43953 0.47795
   4   2 -17 474.748 217.544   7 0.67955-0.61513-0.42998 0.72128-0.39386-0.46776
  -4   2  17 717.084 254.251  10 0.51732-0.58252 0.80762-0.51549 0.40900 0.45294
  -4   2  16 1447.89 325.050  10 0.51593-0.59572 0.81884-0.52673 0.37825 0.42815
   4   2 -16 1546.97 357.054   7 0.68075-0.60168-0.45476 0.74609-0.37406-0.43200
   4   2 -15 707.893 244.675   7 0.68124-0.58753-0.47778 0.76913-0.35498-0.39554
  -4   2  15 622.058 211.310  10 0.51396-0.60835 0.82910-0.53700 0.34723 0.40364
   4   2 -14 3686.33 494.923   7 0.68113-0.57278-0.49904 0.79042-0.33672-0.35825
  -4   2  14 4448.80 501.307  10 0.51144-0.62042 0.83842-0.54635 0.31587 0.37946
   4   2 -13 1931.75 357.713   7 0.68053-0.55754-0.51853 0.80994-0.31943-0.32000
  -4   2  13 1950.12 313.537  10 0.50834-0.63191 0.84684-0.55479 0.28407 0.35573
  -4   2  12 3382.53 391.660  10 0.50464-0.64281 0.85437-0.56234 0.25170 0.33255
   4   2 -12 3551.71 461.165   7 0.67955-0.54191-0.53619 0.82763-0.30326-0.28062
  -4   2  11 1455.33 301.941   4 0.83221-0.98480 0.12488 0.16663 0.73984-0.21192
   4   2 -11 1685.84 315.868   7 0.67831-0.52602-0.55195 0.84341-0.28843-0.23991
  -4   2  11 1288.92 244.207  10 0.50031-0.65307 0.86102-0.56901 0.21860 0.31012
  -4   2  10 6451.80 558.005   4 0.82104-0.98818 0.13956 0.15194 0.74978-0.27731
  -4   2  10 8593.44 482.543   6 0.23357-0.40049 0.96904-0.67760-0.01726 0.49030
   4   2 -10 7090.88 594.698   7 0.67692-0.51000-0.56566 0.85715-0.27519-0.19760
  -4   2  10 7915.96 527.673  10 0.49529-0.66264 0.86678-0.57479 0.18451 0.28867
  -4   2   9 25506.8 1048.97   4 0.80542-0.98713 0.15909 0.13239 0.76248-0.34547
   4   2  -9 27031.2 1110.26   7 0.67554-0.49398-0.57712 0.86864-0.26386-0.15338
  -4   2   9 27539.4 909.356  10 0.48947-0.67141 0.87163-0.57966 0.14904 0.26861
   4   2  -8 18300.1 868.198   7 0.67432-0.47811-0.58605 0.87760-0.25488-0.10682
  -4   2   8 18895.7 698.000  10 0.48268-0.67921 0.87551-0.58356 0.11160 0.25051
  -4   2   8 18705.8 865.855   4 0.78420-0.98047 0.18402 0.10744 0.77779-0.41623
  -4   2   7 33167.5 850.179  10 0.47461-0.68574 0.87829-0.58636 0.07120 0.23537
   4   2  -7 29314.6 1048.31   7 0.67343-0.46258-0.59202 0.88360-0.24878-0.05736
  -4   2   7 31993.9 1089.38   4 0.75593-0.96675 0.21486 0.07659 0.79528-0.48917
   4   2  -6 34861.5 551.800   9 0.58058-0.35492-0.61981 0.91166-0.35648 0.10570
   4   2  -6 31371.0 912.897   3 0.75821-0.53327 0.39612-0.10441 0.69962-0.95043
   4   2  -6 33718.6 1074.78   7 0.67306-0.44756-0.59443 0.88603-0.24631-0.00429
  -4   2   6 33780.5 779.631  10 0.46471-0.69044 0.87967-0.58776 0.02609 0.22495
  -4   2   6 33069.4 1069.60   4 0.71881-0.94420 0.25191 0.03953 0.81408-0.56342
   4   2  -5 140525. 838.459   1 0.68497-0.44542-0.59095 0.88164-0.23359 0.03827
  -4   2   5 137433. 2080.36   4 0.67084-0.91079 0.29516-0.00374 0.83273-0.63753
   4   2  -5 137159. 2049.23   7 0.67338-0.43324-0.59235 0.88398-0.24845 0.05340
  -4   2   5 138415. 1404.76  10 0.45183-0.69214 0.87900-0.58711-0.02718 0.22268
   4   2  -4 165812. 1149.96   1 0.70714-0.45303-0.58089 0.87162-0.20567 0.06586
   4   2  -4 157040. 2076.62   7 0.67457-0.41978-0.58435 0.87601-0.25660 0.11709
  -4   2   4 163072. 1322.82  10 0.43321-0.68811 0.87441-0.58254-0.09613 0.23609
  -4   2   4 154236. 2178.51   4 0.61001-0.86452 0.34400-0.05260 0.84909-0.70934
   4   2  -3 7233.95 289.726   1 0.72884-0.46017-0.57001 0.86078-0.17708 0.09279
   4   2  -3 6604.31 404.864   7 0.67664-0.40721-0.56819 0.85987-0.27271 0.18875
  -4   2   3 6379.93 319.738   5 0.53086-0.79980 0.38895-0.09738 0.86633-0.78200
  -4   2   3 7104.30 233.226  10 0.40098-0.67047 0.85944-0.56759-0.19996 0.28438
  -4   2   3 6482.40 445.338   7 0.03359-0.30244 0.72465-0.43342-0.65496 0.73921
  -4   2   3 7110.70 454.921   4 0.53473-0.80380 0.39704-0.10564 0.86032-0.77602
  -4   2   2 4124.63 232.527   5 0.35051-0.63406 0.32110-0.02956 0.94117-0.91236
  -4   2   2 3855.53 341.014   7 0.09960-0.38309 0.67057-0.37938-0.68280 0.71150
   4   2  -2 3864.61 290.215   7 0.67928-0.39521-0.54004 0.83175-0.29968 0.27126
  -4   2   2 3438.91 135.253  10 0.32711-0.61120 0.80442-0.51259-0.39202 0.42091
  -4   2   2 3264.35 312.020   4 0.44440-0.72803 0.45194-0.16056 0.86317-0.83433
   4   2  -2 3462.51 232.199   1 0.74971-0.46648-0.55847 0.84928-0.14828 0.11951
   4   2  -1 32488.1 762.368   1 0.76966-0.47187-0.54633 0.83717-0.11940 0.14614
  -4   2   1 32496.9 581.808   5 0.07624-0.37440 0.20180 0.08972 0.96216-0.98887
   4   2  -1 33252.3 775.081   7 0.68122-0.38250-0.49316 0.78490-0.34184 0.36897
   4   2  -1 33405.9 933.542  10-0.10436 0.40288 0.23272 0.05887-0.96028 0.98714
  -4   2   1 31861.8 388.883  10 0.13230-0.43099 0.58596-0.29415-0.73633 0.70968
  -4   2   1 31269.2 939.051   7 0.16273-0.46086 0.61204-0.32087-0.70361 0.67677
  -4   2   1 31477.0 926.894   4 0.34003-0.63822 0.50558-0.21421 0.85456-0.88117
  -4   2   0 11750.7 325.210   5-0.26150-0.05127 0.03297 0.25853 0.86182-0.94405
  -4   2   0 11425.4 536.086   8 0.03989-0.35265 0.35629-0.06462-0.88978 0.80747
   4   2   0 11299.8 408.935   7 0.67847-0.36511-0.41460 0.70637-0.40577 0.48845
   4   2   0 11363.5 550.631  10-0.03255 0.34566 0.34884-0.05723-0.91211 0.99451
  -4   2   0 11260.2 570.965   7 0.22138-0.53416 0.55135-0.26021-0.71756 0.63518
   4   2   0 11934.8 505.040   1 0.78866-0.47631-0.53359 0.82448-0.09047 0.17273
  -4   2  -1 14036.8 636.636   7 0.27431-0.60173 0.49096-0.19985-0.72535 0.58741
  -4   2  -1 15247.5 365.245   5-0.55199 0.22461-0.13427 0.42575 0.64869-0.78644
  -4   2  -1 14202.3 624.019   8 0.15301-0.48042 0.33564-0.04401-0.85607 0.71824
  -4   2  -1 14737.8 531.187   2-0.35248 0.02501-0.22852 0.51989-0.96836 0.83078
   4   2   1 14873.0 409.736   7 0.65864-0.33063-0.27673 0.56853-0.50115 0.63938
   4   2   1 14467.1 634.814  10 0.03806 0.28964 0.45545-0.16382-0.84799 0.98592
   4   2   1 13475.6 581.649   1 0.80672-0.47980-0.52029 0.81121-0.06152 0.19930
  -4   2  -2 10853.5 474.930   2-0.20301-0.13906-0.22307 0.51441-0.97340 0.78029
  -4   2  -2 10425.4 556.474   8 0.24397-0.58601 0.31547-0.02387-0.82010 0.62676
   4   2   2 11021.8 284.220   7 0.57582-0.23317-0.00892 0.30075-0.63680 0.83057
  -4   2  -2 10655.5 564.812   7 0.32073-0.66279 0.43314-0.14205-0.72804 0.53456
   4   2   2 9921.27 540.239  10 0.10431 0.23798 0.54865-0.25700-0.77271 0.96618
   4   2   2 10283.1 540.256   1 0.82383-0.48235-0.50643 0.79739-0.03257 0.22586
  -4   2  -3 11749.9 618.746   8 0.31523-0.67191 0.29732-0.00576-0.78608 0.53723
  -4   2  -3 12551.8 526.917   2-0.06882-0.28785-0.21390 0.50520-0.95839 0.70975
   4   2   3 12150.0 610.793  10 0.16428 0.19261 0.62699-0.33532-0.69127 0.94028
   4   2   3 12681.3 637.481   1 0.83999-0.48395-0.49201 0.78301-0.00361 0.25241
  -4   2  -3 12955.5 624.180   7 0.36037-0.71707 0.37976-0.08871-0.72693 0.47790
  -4   2  -4 15257.4 738.637   8 0.37002-0.74134 0.28187 0.00966-0.75621 0.45184
  -4   2  -4 16576.1 719.128   7 0.39337-0.76472 0.33218-0.04115-0.72332 0.41874
   4   2   4 15699.2 722.086  10 0.21721 0.15427 0.69093-0.39924-0.60785 0.91240
   4   2   4 15588.8 745.208   1 0.85521-0.48460-0.47704 0.76808 0.02536 0.27897
  -4   2  -5 15570.1 718.097   7 0.42017-0.80616 0.29117-0.00017-0.71836 0.35824
  -4   2  -5 15040.9 768.003   8 0.41145-0.79740 0.26926 0.02224-0.73133 0.37144
   4   2   5 15262.5 742.938  10 0.26322 0.12285 0.74199-0.45028-0.52534 0.88542
   4   2   5 15340.0 783.551   1 0.86948-0.48431-0.46152 0.75260 0.05433 0.30551
  -4   2  -6 14164.1 650.006   2 0.20375-0.60423-0.18351 0.47471-0.87442 0.45918
  -4   2  -6 13133.3 753.515   8 0.44214-0.84274 0.25937 0.03209-0.71154 0.29614
  -4   2  -6 13666.1 684.088   7 0.44136-0.84200 0.25706 0.03391-0.71302 0.29735
   4   2   6 13812.7 740.456  10 0.30288 0.09778 0.78205-0.49032-0.44548 0.86110
   4   2   7 3703.11 407.117  10 0.33695 0.07830 0.81298-0.52123-0.36916 0.84032
  -4   2  -7 3145.28 332.524   2 0.25674-0.67182-0.17573 0.46690-0.84959 0.37881
  -4   2  -7 3811.06 333.496   6 0.27656-0.69163 0.95664-0.66494-0.01692-0.45419
  -4   2  -7 3210.81 405.257   8 0.46424-0.87947 0.25196 0.03947-0.69656 0.22563
  -4   2  -7 3148.88 342.770   7 0.45759-0.87287 0.22984 0.06111-0.70799 0.23677
  -4   2  -8 1706.82 309.293   8 0.47937-0.90924 0.24673 0.04467-0.68591 0.15948
  -4   2  -8 1262.85 235.361   2 0.29599-0.72567-0.16955 0.46069-0.82928 0.30297
   4   2   8 1532.32 285.244  10 0.36622 0.06363 0.83641-0.54464-0.29667 0.82336
  -4   2  -8 1430.20 242.190   7 0.46948-0.89940 0.20925 0.08167-0.70374 0.17698
  -4   2  -9 8433.62 598.107   2 0.32421-0.76850-0.16488 0.45599-0.81364 0.23180
  -4   2  -9 8687.94 706.290   8 0.48879-0.93331 0.24340 0.04795-0.67912 0.09717
  -4   2  -9 8142.32 581.227   7 0.47755-0.92212 0.19493 0.09596-0.70057 0.11826
   4   2   9 8576.74 668.069  10 0.39139 0.05305 0.85370-0.56191-0.22796 0.81019
  -4   2 -10 7104.62 578.914   2 0.34357-0.80245-0.16157 0.45264-0.80240 0.16502
  -4   2 -10 6065.27 613.509   8 0.49348-0.95263 0.24173 0.04959-0.67570 0.03823
  -4   2 -10 6377.48 529.808   7 0.48225-0.94146 0.18646 0.10440-0.69861 0.06075
   4   2  10 6696.98 623.898  10 0.41309 0.04594 0.86593-0.57412-0.16282 0.80059
  -4   2 -11 979.914 273.172   8 0.49415-0.96794 0.24149 0.04980-0.67521-0.01778
  -4   2 -11 859.243 233.147   2 0.35571-0.82920-0.15944 0.45047-0.79512 0.10221
   4   2  11 760.386 236.537  10 0.43183 0.04180 0.87393-0.58210-0.10094 0.79425
  -4   2 -12 318.502 177.416   2 0.36191-0.85000-0.15833 0.44934-0.79134 0.04290
  -4   2 -12 414.819 195.918   8 0.49136-0.97979 0.24249 0.04876-0.67726-0.07125
   4   2  12 340.911 181.175  10 0.44801 0.04021 0.87837-0.58652-0.04199 0.79083
  -4   2 -13 1529.51 350.000   8 0.48552-0.98858 0.24456 0.04665-0.68150-0.12252
  -4   2 -13 1079.78 280.217   2 0.36310-0.86579-0.15812 0.44909-0.79061-0.01336
   4   2  13 1503.82 345.154  10 0.46199 0.04082 0.87974-0.58787 0.01436 0.79002
  -4   2 -14 1419.53 401.100   8 0.47693-0.99464 0.24758 0.04361-0.68765-0.17189
   4   2  14 351.492 209.523  10 0.47403 0.04338 0.87842-0.58653 0.06842 0.79150
   4   2  15 741.217 265.578  10 0.48434 0.04765 0.87471-0.58280 0.12046 0.79499
  -4   2 -15 482.722 230.180   8 0.46584-0.99818 0.25141 0.03974-0.69544-0.21961
  -4   3  17 1018.76 378.214   4 0.82076-0.88595 0.13991 0.29740 0.75002 0.11066
   4   3 -17 423.276 231.098   7 0.66727-0.60271-0.32331 0.76034-0.47110-0.39045
  -4   3  17 965.654 256.072  10 0.51232-0.57756 0.83551-0.39752 0.32605 0.53594
  -4   3  16 1647.86 398.197   4 0.82356-0.90331 0.13630 0.30100 0.74760 0.05762
   4   3 -16 2184.82 445.093   7 0.67045-0.59124-0.34364 0.78069-0.45731-0.34868
  -4   3  16 1904.00 372.598  10 0.50874-0.58858 0.84587-0.40791 0.28792 0.51853
  -4   3  15 2765.96 477.101   4 0.82459-0.91890 0.13496 0.30232 0.74670 0.00307
   4   3 -15 2248.14 421.219   7 0.67298-0.57912-0.36191 0.79900-0.44456-0.30589
  -4   3  15 2511.10 405.517  10 0.50427-0.59871 0.85501-0.41707 0.24873 0.50219
  -4   3  14 333.771 237.023   4 0.82372-0.93259 0.13610 0.30117 0.74747-0.05315
   4   3 -14 217.500 181.481   7 0.67495-0.56645-0.37808 0.81519-0.43298-0.26192
  -4   3  14 191.396 166.708  10 0.49884-0.60787 0.86289-0.42497 0.20822 0.48717
  -4   3  13 681.426 252.848   4 0.82073-0.94416 0.13996 0.29729 0.75005-0.11118
   4   3 -13 330.267 210.290   7 0.67645-0.55331-0.39203 0.82917-0.42277-0.21659
  -4   3  13 496.590 184.649  10 0.49234-0.61596 0.86945-0.43155 0.16608 0.47376
  -4   3  12 916.422 267.299   4 0.81533-0.95332 0.14682 0.29041 0.75458-0.17117
   4   3 -12 996.215 281.531   7 0.67756-0.53977-0.40362 0.84078-0.41412-0.16969
  -4   3  12 1332.93 268.161  10 0.48461-0.62282 0.87457-0.43669 0.12192 0.46238
  -4   3  11 9919.54 774.242   4 0.80713-0.95968 0.15701 0.28021 0.76116-0.23320
   4   3 -11 10845.3 805.037   7 0.67832-0.52589-0.41264 0.84983-0.40728-0.12099
  -4   3  11 11156.5 697.569  10 0.47544-0.62824 0.87808-0.44022 0.07520 0.45357
  -4   3  10 10350.9 635.350  10 0.46451-0.63190 0.87968-0.44184 0.02519 0.44805
   4   3 -10 10318.6 758.856   7 0.67879-0.51172-0.41881 0.85603-0.40255-0.07017
  -4   3  10 9710.09 745.926   4 0.79560-0.96271 0.17085 0.26635 0.76983-0.29732
  -4   3   9 3391.60 341.361  10 0.45134-0.63332 0.87893-0.44111-0.02910 0.44680
   4   3  -9 3708.93 447.163   7 0.67900-0.49729-0.42175 0.85900-0.40027-0.01690
  -4   3   9 3091.80 422.635   4 0.78005-0.96173 0.18871 0.24847 0.78056-0.36350
   4   3  -8 14854.2 838.531   7 0.67895-0.48259-0.42095 0.85823-0.40089 0.03927
  -4   3   8 16650.3 703.693  10 0.43522-0.63180 0.87507-0.43727-0.08905 0.45121
  -4   3   8 15162.7 862.062   4 0.75964-0.95587 0.21095 0.22622 0.79316-0.43155
  -4   3   7 866.173 227.643   4 0.73330-0.94410 0.23786 0.19930 0.80724-0.50109
   4   3  -7 1115.48 247.993   7 0.67856-0.46756-0.41573 0.85304-0.40491 0.09883
  -4   3   7 1029.09 172.811  10 0.41507-0.62624 0.86689-0.42911-0.15657 0.46319
   4   3  -6 11818.8 580.954   3 0.75175-0.52675 0.39589 0.04149 0.70707-0.95798
   4   3  -6 11207.5 669.926   7 0.67769-0.45205-0.40516 0.84249-0.41296 0.16243
  -4   3   6 11754.6 515.586  10 0.38917-0.61493 0.85230-0.41454-0.23432 0.48540
  -4   3   6 10738.4 681.670   4 0.69980-0.92516 0.26962 0.16753 0.82216-0.57146
   4   3  -5 2008.00 243.956   3 0.66786-0.42820 0.38921 0.04813 0.78808-0.98347
   4   3  -5 1774.39 262.525   7 0.67603-0.43574-0.38795 0.82531-0.42578 0.23079
  -4   3   5 2113.76 207.882  10 0.35481-0.59517 0.82766-0.38992-0.32578 0.52133
  -4   3   5 2158.02 319.874   4 0.65774-0.89766 0.30619 0.13094 0.83688-0.64164
  -4   3   4 72.3440 82.4767   7 0.04677-0.30082 0.71442-0.27745-0.66100 0.80087
  -4   3   4 12.9118 124.539   4 0.60572-0.86019 0.34723 0.08988 0.84998-0.71019
  -4   3   4 9.00906 41.2968  10 0.30784-0.56279 0.78677-0.34905-0.43484 0.57486
   4   3  -4 91.1220 76.6740   3 0.56745-0.31313 0.37460 0.06270 0.85688-0.99673
   4   3  -4 110.310 87.4588   7 0.67303-0.41810-0.36234 0.79972-0.44426 0.30482
   4   3  -3 22019.7 778.644   3 0.45445-0.18546 0.35220 0.08507 0.90893-0.99325
  -4   3   3 21254.5 902.890   7 0.10434-0.37304 0.66641-0.22946-0.68456 0.76889
   4   3  -3 21412.9 803.352   7 0.66769-0.39811-0.32584 0.76325-0.46940 0.38552
  -4   3   3 23732.3 592.715  10 0.24258-0.51212 0.71965-0.28195-0.56360 0.64808
  -4   3   3 20884.9 870.892   4 0.54245-0.81149 0.39192 0.04518 0.85957-0.77523
   4   3  -2 20750.4 768.473   3 0.33504-0.05140 0.32333 0.11389 0.94183-0.97062
   4   3  -2 20388.4 746.134   7 0.65826-0.37404-0.27493 0.71237-0.50227 0.47393
   4   3  -2 20558.4 862.333  10-0.13833 0.42221 0.17498 0.26244-0.97683 0.94821
  -4   3   2 22289.4 552.615  10 0.15369-0.43782 0.61359-0.17591-0.70663 0.73557
  -4   3   2 20733.9 889.558   7 0.15885-0.44219 0.61584-0.17891-0.70250 0.73128
  -4   3   2 19834.3 828.815   4 0.46714-0.75074 0.43891-0.00183 0.86343-0.83454
   4   3  -1 44425.2 1264.91  10-0.08526 0.38373 0.26438 0.17305-0.94918 0.97609
   4   3  -1 45690.4 1051.52   7 0.64171-0.34284-0.20459 0.64206-0.54371 0.57092
  -4   3   1 48268.1 808.201  10 0.04206-0.34079 0.46127-0.02361-0.84386 0.81727
  -4   3   1 44427.5 1302.38   7 0.20941-0.50739 0.56426-0.12737-0.71515 0.68838
  -4   3   1 45020.4 1226.28   4 0.37975-0.67791 0.48629-0.04922 0.85921-0.88578
   4   3   0 20955.8 879.686  10-0.03025 0.34332 0.35243 0.08503-0.91028 0.99273
  -4   3   0 22456.4 566.729  10-0.07925-0.23407 0.27423 0.16341-0.94543 0.86330
  -4   3   0 20836.4 765.407   8 0.03672-0.34944 0.35680 0.08075-0.89055 0.80833
   4   3   0 21813.8 681.735   7 0.61260-0.29909-0.10769 0.54518-0.59377 0.67652
  -4   3   0 20321.7 886.870   7 0.25536-0.56798 0.51323-0.07636-0.72311 0.64080
  -4   3   0 20114.0 807.382   4 0.28130-0.59402 0.53173-0.09467 0.84482-0.92684
  -4   3  -1 23079.5 836.250   8 0.14298-0.47034 0.33767 0.09984-0.85954 0.72181
   4   3   1 23729.9 655.136   7 0.56126-0.23311 0.02572 0.41181-0.65003 0.78832
   4   3   1 23294.7 932.506  10 0.02494 0.30272 0.43621 0.00127-0.86114 0.99913
  -4   3  -1 21526.2 914.216   7 0.29630-0.62357 0.46416-0.02732-0.72713 0.58927
  -4   3  -2 35562.6 1186.72   7 0.33210-0.67402 0.41822 0.01860-0.72806 0.53465
  -4   3  -2 37389.6 1116.52   8 0.22856-0.57056 0.31912 0.11836-0.82677 0.63352
   4   3   2 38173.5 1212.91  10 0.07872 0.26353 0.51344-0.07595-0.80356 0.99708
  -4   3  -3 9842.66 601.561   8 0.29614-0.65278 0.30240 0.13505-0.79572 0.54696
  -4   3  -3 8498.53 593.561   7 0.36283-0.71939 0.37632 0.06047-0.72675 0.47779
   4   3   3 10103.6 639.328  10 0.12979 0.22705 0.58266-0.14514-0.73971 0.98877
  -4   3  -4 13927.0 769.413   7 0.38871-0.75992 0.33908 0.09768-0.72399 0.41948
  -4   3  -4 13700.8 742.684   8 0.34869-0.71997 0.28805 0.14936-0.76824 0.46396
   4   3   4 14249.3 772.739  10 0.17730 0.19414 0.64320-0.20566-0.67181 0.97640
  -4   3  -5 18937.7 913.494   8 0.38897-0.77489 0.27620 0.16117-0.74508 0.38528
  -4   3  -5 16662.3 852.400   7 0.41009-0.79593 0.30686 0.12987-0.72045 0.36040
   4   3   5 18352.3 903.968  10 0.22080 0.16523 0.69507-0.25751-0.60177 0.96191
  -4   3  -6 19621.7 970.789   8 0.41931-0.81987 0.26677 0.17057-0.72637 0.31106
  -4   3  -6 20525.2 968.495   7 0.42734-0.82783 0.27981 0.15690-0.71670 0.30111
   4   3   6 20848.6 999.326  10 0.26016 0.14046 0.73873-0.30115-0.53115 0.94682
  -4   3  -7 2791.12 395.126   8 0.44156-0.85676 0.25957 0.17774-0.71193 0.24110
  -4   3  -7 2703.51 371.179   7 0.44085-0.85598 0.25790 0.17877-0.71316 0.24202
   4   3   7 2643.65 375.270  10 0.29548 0.11973 0.77488-0.33728-0.46106 0.93227
  -4   3  -8 4754.27 530.464   8 0.45719-0.88702 0.25435 0.18292-0.70141 0.17506
  -4   3  -8 5439.99 529.263   7 0.45100-0.88077 0.24102 0.19562-0.71014 0.18345
   4   3   8 4280.68 499.846  10 0.32700 0.10280 0.80432-0.36670-0.39227 0.91902
  -4   3  -9 628.450 215.488   8 0.46732-0.91179 0.25090 0.18634-0.69441 0.11255
   4   3   9 406.151 192.235  10 0.35503 0.08937 0.82784-0.39020-0.32522 0.90751
  -4   3  -9 421.675 165.506   7 0.45810-0.90252 0.22898 0.20764-0.70782 0.12558
  -4   3 -10 2842.82 454.335   8 0.47284-0.93195 0.24900 0.18820-0.69054 0.05316
  -4   3 -10 3047.01 419.209   7 0.46242-0.92148 0.22155 0.21504-0.70632 0.06854
   4   3  10 3510.47 476.537  10 0.37989 0.07910 0.84618-0.40851-0.26016 0.89798
  -4   3 -11 739.633 271.741   8 0.47442-0.94817 0.24845 0.18871-0.68943-0.00347
   4   3  11 1213.12 299.441  10 0.40191 0.07168 0.85997-0.42229-0.19717 0.89053
  -4   3 -11 1116.82 269.895   7 0.46418-0.93789 0.21850 0.21806-0.70570 0.01237
  -4   3 -12 2061.14 416.793   8 0.47256-0.96095 0.24909 0.18804-0.69074-0.05767
   4   3  12 1398.59 341.738  10 0.42136 0.06681 0.86979-0.43209-0.13623 0.88513
  -4   3 -13 1358.79 374.526   8 0.46767-0.97070 0.25078 0.18632-0.69417-0.10976
   4   3  13 1853.72 391.354  10 0.43852 0.06425 0.87608-0.43836-0.07727 0.88170
  -4   3 -14 2124.95 466.024   8 0.46004-0.97770 0.25339 0.18368-0.69945-0.15999
   4   3  14 1670.64 400.694  10 0.45360 0.06376 0.87923-0.44149-0.02015 0.88012
  -4   4  15 1190.25 373.028   4 0.79218-0.88646 0.17485 0.40814 0.77228-0.02247
   4   4 -15 1199.95 336.819   7 0.65117-0.55717-0.24268 0.82549-0.52183-0.22855
  -4   4  14 2344.95 463.625   4 0.79037-0.89921 0.17695 0.40602 0.77356-0.07920
   4   4 -14 1487.38 384.304   7 0.65378-0.54514-0.25411 0.83695-0.51500-0.17983
   4   4 -13 3862.96 554.679   7 0.65574-0.53245-0.26299 0.84585-0.50962-0.12966
  -4   4  13 3906.65 578.984   4 0.78637-0.90977 0.18156 0.40140 0.77632-0.13742
  -4   4  12 3068.31 497.890   4 0.77992-0.91788 0.18887 0.39407 0.78065-0.19720
   4   4 -12 2351.64 418.861   7 0.65705-0.51912-0.26911 0.85200-0.50587-0.07787
   4   4 -11 4940.88 591.235   7 0.65770-0.50513-0.27222 0.85514-0.50395-0.02424
  -4   4  11 5666.57 639.890   4 0.77065-0.92318 0.19911 0.38381 0.78656-0.25856
  -4   4  10 1763.58 364.275   4 0.75814-0.92522 0.21253 0.37038 0.79402-0.32147
   4   4 -10 2197.65 384.474   7 0.65765-0.49044-0.27199 0.85494-0.50409 0.03145
   4   4  -9 5898.57 599.194   7 0.65681-0.47495-0.26801 0.85099-0.50655 0.08945
  -4   4   9 5849.01 609.267   4 0.74182-0.92346 0.22936 0.35353 0.80294-0.38584
  -4   4   8 770.304 251.991   4 0.72100-0.91721 0.24982 0.33306 0.81308-0.45144
   4   4  -8 703.288 216.974   7 0.65503-0.45852-0.25973 0.84274-0.51161 0.15005
   4   4  -7 1942.86 327.202   7 0.65205-0.44090-0.24650 0.82953-0.51956 0.21356
  -4   4   7 2991.34 422.714   4 0.69489-0.90566 0.27406 0.30880 0.82409-0.51790
  -4   4   6 1399.25 292.855   4 0.66256-0.88789 0.30217 0.28068 0.83540-0.58466
   4   4  -6 1181.56 251.295   7 0.64752-0.42173-0.22745 0.81051-0.53073 0.28028
  -4   4   5 5144.04 510.854   7 0.02857-0.26783 0.72847-0.14574-0.65260 0.84809
   4   4  -5 5656.46 509.582   7 0.64090-0.40046-0.20154 0.78462-0.54541 0.35050
  -4   4   5 5116.79 505.365   4 0.62300-0.86289 0.33406 0.24877 0.84620-0.65091
   4   4  -4 11942.9 601.446   3 0.60381-0.34942 0.38056 0.20241 0.83481-0.97477
  -4   4   4 9071.69 668.798   7 0.08055-0.33446 0.68691-0.10420-0.67539 0.81534
   4   4  -4 10900.9 675.725   7 0.63138-0.37630-0.16741 0.75052-0.56386 0.42450
  -4   4   4 10294.9 694.084   4 0.57517-0.82962 0.36946 0.21336 0.85540-0.71557
  -4   4   3 2095.54 322.513   4 0.51813-0.78714 0.40778 0.17502 0.86164-0.77727
   4   4  -3 2963.02 309.196   3 0.50016-0.23110 0.36190 0.22103 0.89062-0.97505
   4   4  -3 2670.86 329.928   7 0.61780-0.34807-0.12340 0.70654-0.58618 0.50237
   4   4  -3 2217.55 341.633  10-0.14009 0.40934 0.17193 0.41132-0.97758 0.89347
  -4   4   3 2399.15 358.313   7 0.12976-0.39831 0.64346-0.06078-0.69347 0.77786
  -4   4   2 304.217 163.298   7 0.17564-0.45883 0.59922-0.01657-0.70714 0.73599
  -4   4   2 160.833 122.434   4 0.45117-0.73473 0.44811 0.13468 0.86331-0.83439
   4   4  -2 105.423 96.1141   3 0.39108-0.10737 0.33747 0.24542 0.92891-0.95781
   4   4  -2 34.8875 123.116  10-0.09911 0.38295 0.24148 0.34179-0.95736 0.92879
   4   4  -2 181.765 110.527   7 0.59848-0.31411-0.06747 0.65064-0.61224 0.58397
  -4   4   1 17057.7 915.325   7 0.21776-0.51560 0.55529 0.02734-0.71686 0.69016
  -4   4   1 18685.0 877.354   4 0.37400-0.67213 0.48917 0.09361 0.85864-0.88517
   4   4  -1 20002.7 810.189   7 0.57098-0.27197 0.00281 0.58038-0.64139 0.66867
   4   4  -1 18309.0 934.318  10-0.05589 0.35432 0.31197 0.27132-0.92968 0.95664
  -4   4   0 16685.2 722.585   8-0.01930-0.29338 0.36519 0.21824-0.90268 0.82056
   4   4   0 16868.9 704.269   7 0.53184-0.21818 0.09020 0.49302-0.67207 0.75489
   4   4   0 15897.2 869.414  10-0.01128 0.32431 0.38173 0.20157-0.89453 0.97703
  -4   4   0 15600.1 883.584   7 0.25587-0.56835 0.51263 0.06996-0.72318 0.64094
  -4   4   0 15935.5 794.959   4 0.28698-0.59967 0.52932 0.05344 0.84590-0.92788
  -4   4  -1 2564.61 305.423   8 0.08579-0.41311 0.34849 0.23490-0.87754 0.73990
  -4   4  -1 2516.41 377.664   7 0.28986-0.61698 0.47212 0.11045-0.72670 0.58891
   4   4   1 1938.60 324.814  10 0.03377 0.29385 0.44919 0.13414-0.85236 0.99040
  -4   4  -2 17908.6 826.929   8 0.17121-0.51317 0.33187 0.25149-0.84952 0.65636
   4   4   2 16314.9 897.840  10 0.07837 0.26384 0.51296 0.07039-0.80397 0.99754
  -4   4  -2 16373.8 923.178   7 0.31972-0.66149 0.43444 0.14810-0.72803 0.53469
  -4   4  -3 14830.3 788.530   8 0.23953-0.59613 0.31654 0.26679-0.82204 0.57337
   4   4   3 14753.5 869.886  10 0.12172 0.23508 0.57200 0.01137-0.75042 0.99953
  -4   4  -3 14473.1 880.226   7 0.34560-0.70201 0.40011 0.18240-0.72774 0.47885
  -4   4  -4 8480.75 621.138   8 0.29351-0.66474 0.30308 0.28020-0.79702 0.49283
   4   4   4 8824.08 685.736  10 0.16319 0.20821 0.62562-0.04223-0.69288 0.99753
  -4   4  -4 7570.04 650.254   7 0.36766-0.73872 0.36950 0.21298-0.72635 0.42192
  -4   4  -5 5318.30 520.550   8 0.33563-0.72151 0.29173 0.29152-0.77535 0.41565
   4   4   5 5274.63 547.587  10 0.20232 0.18367 0.67347-0.09006-0.63250 0.99268
  -4   4  -5 4840.06 530.653   7 0.38615-0.77185 0.34284 0.23961-0.72433 0.36435
  -4   4  -6 673.575 208.709   8 0.36802-0.76853 0.28246 0.30076-0.75736 0.34214
   4   4   6 233.023 176.137  10 0.23884 0.16174 0.71549-0.13206-0.57032 0.98604
  -4   4  -6 263.158 164.822   7 0.40133-0.80167 0.32023 0.26220-0.72204 0.30652
  -4   4  -7 402.205 181.221   8 0.39239-0.80755 0.27516 0.30802-0.74303 0.27229
   4   4   7 285.927 176.821  10 0.27261 0.14256 0.75183-0.16838-0.50722 0.97848
  -4   4  -7 421.555 194.162   7 0.41344-0.82843 0.30167 0.28073-0.71979 0.24872
  -4   4  -8 3964.32 510.054   8 0.41012-0.83991 0.26968 0.31347-0.73216 0.20590
  -4   4  -8 4749.26 558.427   7 0.42273-0.85236 0.28713 0.29524-0.71779 0.19117
   4   4   8 4747.99 569.926  10 0.30362 0.12615 0.78276-0.19929-0.44391 0.97071
  -4   4  -9 8346.94 755.641   8 0.42228-0.86672 0.26582 0.31729-0.72448 0.14271
  -4   4  -9 7328.67 704.782   7 0.42940-0.87367 0.27650 0.30584-0.71620 0.13404
   4   4   9 8612.58 769.425  10 0.33193 0.11243 0.80865-0.22516-0.38092 0.96326
  -4   4 -10 2568.33 455.206   8 0.42972-0.88880 0.26343 0.31965-0.71969 0.08240
   4   4  10 2017.79 405.143  10 0.35765 0.10130 0.82989-0.24638-0.31864 0.95651
  -4   4 -10 2011.21 390.428   7 0.43363-0.89255 0.26968 0.31264-0.71512 0.07741
  -4   4 -11 2579.49 454.531   8 0.43310-0.90681 0.26234 0.32071-0.71750 0.02469
   4   4  11 2727.28 485.938  10 0.38093 0.09261 0.84688-0.26335-0.25732 0.95073
  -4   4 -11 3153.28 487.238   7 0.43558-0.90914 0.26653 0.31576-0.71461 0.02135
  -4   4 -12 5339.40 669.571   8 0.43292-0.92126 0.26240 0.32061-0.71762-0.03070
  -4   4 -12 4525.31 585.770   7 0.43533-0.92353 0.26693 0.31533-0.71468-0.03413
   4   4  12 5717.88 706.286  10 0.40193 0.08621 0.85998-0.27643-0.19712 0.94606
  -4   5  13 418.990 256.579   4 0.74100-0.86437 0.23018 0.49848 0.80336-0.16441
   4   5 -13 522.453 231.957   7 0.62146-0.49802-0.13481 0.86340-0.58055-0.05866
  -4   5  12 1287.49 365.572   4 0.73325-0.87118 0.23791 0.49074 0.80727-0.22377
   4   5 -12 1870.85 401.536   7 0.62202-0.48394-0.13659 0.86521-0.57966-0.00400
  -4   5  11 821.917 292.437   4 0.72264-0.87513 0.24825 0.48038 0.81233-0.28429
   4   5 -11 554.147 223.791   7 0.62158-0.46885-0.13518 0.86383-0.58037 0.05225
  -4   5  10 3630.96 528.808   4 0.70876-0.87581 0.26137 0.46725 0.81847-0.34588
   4   5 -10 4055.94 563.575   7 0.62001-0.45265-0.13027 0.85894-0.58281 0.11024
  -4   5   9 3329.55 497.567   4 0.69116-0.87277 0.27741 0.45119 0.82552-0.40839
   4   5  -9 3472.00 510.635   7 0.61718-0.43517-0.12149 0.85019-0.58712 0.17009
  -4   5   8 290.899 201.003   4 0.66926-0.86544 0.29650 0.43208 0.83325-0.47157
   4   5  -8 493.070 215.240   7 0.61284-0.41619-0.10839 0.83712-0.59343 0.23195
   4   5  -7 4160.43 514.091   7 0.60669-0.39539-0.09044 0.81920-0.60185 0.29592
  -4   5   7 4343.73 542.432   4 0.64244-0.85317 0.31871 0.40986 0.84128-0.53505
  -4   5   6 277.374 199.924   4 0.60997-0.83526 0.34404 0.38452 0.84910-0.59832
   4   5  -6 612.404 227.515   7 0.59831-0.37237-0.06701 0.79580-0.61245 0.36206
  -4   5   5 167.848 136.874   7 0.03918-0.27830 0.72034 0.00812-0.65755 0.85312
  -4   5   5 72.9064 127.242   4 0.57107-0.81092 0.37235 0.35619 0.85601-0.66069
   4   5  -5 307.956 139.837   7 0.58713-0.34655-0.03736 0.76617-0.62522 0.43038
  -4   5   4 550.030 213.994   7 0.08504-0.33880 0.68311 0.04532-0.67718 0.81720
  -4   5   4-98.2403 126.884   4 0.52497-0.77938 0.40340 0.32513 0.86114-0.72127
   4   5  -4 261.046 213.654  10-0.12472 0.37933 0.19834 0.53074-0.97070 0.83111
   4   5  -4 398.317 180.585   7 0.57241-0.31719-0.00063 0.72947-0.64005 0.50076
  -4   5   3 5470.70 544.907   4 0.47094-0.73991 0.43669 0.29182 0.86341-0.77899
   4   5  -3 6114.21 552.503   7 0.55316-0.28329 0.04414 0.68473-0.65666 0.57292
   4   5  -3 4867.38 552.365  10-0.09179 0.36100 0.25362 0.47547-0.95312 0.86906
  -4   5   3 5950.63 609.592   7 0.12807-0.39647 0.64502 0.08339-0.69290 0.77737
   4   5  -2 5460.79 500.759   7 0.52808-0.24357 0.09798 0.63091-0.67450 0.64630
   4   5  -2 4027.39 496.887  10-0.05688 0.34067 0.31039 0.41873-0.93038 0.90186
  -4   5   2 4117.66 518.841   7 0.16797-0.45102 0.60687 0.12151-0.70507 0.73399
  -4   5   2 4706.40 512.106   4 0.40841-0.69194 0.47153 0.25697 0.86154-0.83258
  -4   5   1 2486.23 409.786   7 0.20454-0.50223 0.56943 0.15892-0.71411 0.68748
  -4   5   1 2859.53 376.201   4 0.33709-0.63518 0.50695 0.22153 0.85416-0.88064
   4   5  -1 2374.41 389.209  10-0.02043 0.31882 0.36768 0.36146-0.90227 0.92929
   4   5   0 14904.6 947.272  10 0.01703 0.29596 0.42448 0.30468-0.86881 0.95137
  -4   5   0 14896.3 974.238   7 0.23766-0.54999 0.53337 0.19495-0.72046 0.63829
  -4   5   0 16746.8 895.609   4 0.25707-0.56973 0.54174 0.18673 0.83984-0.92179
  -4   5  -1 2543.72 420.181   7 0.26732-0.59430 0.49926 0.22903-0.72460 0.58688
   4   5   1 1942.14 370.085  10 0.05493 0.27264 0.47982 0.24935-0.83022 0.96832
  -4   5  -2 332.603 182.203   7 0.29356-0.63518 0.46755 0.26071-0.72696 0.53370
   4   5   2 640.439 214.752  10 0.09274 0.24943 0.53285 0.19635-0.78694 0.98057
  -4   5  -3 3084.79 466.703   7 0.31650-0.67276 0.43861 0.28963-0.72797 0.47916
   4   5   3 4042.71 515.753  10 0.12993 0.22683 0.58284 0.14638-0.73953 0.98869
   4   5   4 3173.35 467.697  10 0.16606 0.20529 0.62923 0.10001-0.68864 0.99335
  -4   5  -4 3232.69 480.163   7 0.33627-0.70717 0.41268 0.31553-0.72800 0.42364
  -4   5  -5 3017.87 481.151   7 0.35303-0.73858 0.38994 0.33824-0.72739 0.36749
   4   5   5 3100.96 479.745  10 0.20078 0.18516 0.67165 0.05761-0.63498 0.99522
   4   5   6 2677.12 448.456  10 0.23382 0.16671 0.70988 0.01939-0.57921 0.99499
  -4   5  -6 1970.59 395.016   7 0.36697-0.76717 0.37048 0.35768-0.72641 0.31096
  -4   5  -7 4450.46 536.154   8 0.31729-0.73240 0.29677 0.43229-0.78502 0.31438
  -4   5  -7 4306.91 581.257   7 0.37826-0.79310 0.35434 0.37379-0.72529 0.25430
   4   5   7 4047.60 554.087  10 0.26500 0.15014 0.74386-0.01456-0.52195 0.99327
  -4   5  -8 13.0391 103.296   8 0.33854-0.76830 0.29091 0.43811-0.77378 0.24762
  -4   5  -8-173.895 177.279   7 0.38706-0.81654 0.34151 0.38659-0.72421 0.19767
  -4   5  -9 3753.28 536.226   8 0.35391-0.79831 0.28655 0.44244-0.76534 0.18366
   4   5   9 4217.04 595.303  10 0.32137 0.12295 0.79927-0.06993-0.40505 0.98744
  -4   5  -9 3492.23 549.976   7 0.39351-0.83764 0.33196 0.39611-0.72329 0.14120
  -4   5 -10 1381.94 324.400   8 0.36426-0.82329 0.28356 0.44540-0.75951 0.12232
   4   5  10 1448.77 356.325  10 0.34652 0.11239 0.82099-0.09163-0.34623 0.98416
  -4   5 -10 383.438 218.577   7 0.39774-0.85652 0.32563 0.40241-0.72264 0.08500
  -4   5 -11 2396.92 451.990   8 0.37024-0.84391 0.28180 0.44712-0.75608 0.06337
  -4   6   9 1169.73 339.028   4 0.62732-0.80891 0.33070 0.54361 0.84516-0.42799
   4   6  -9 1778.46 395.635   7 0.56504-0.38288 0.01692 0.85751-0.64676 0.22981
  -4   6   8 4245.53 593.090   4 0.60389-0.80003 0.34860 0.52570 0.85035-0.48863
   4   6  -8 3984.22 562.107   7 0.55818-0.36139 0.03277 0.84169-0.65260 0.29120
   4   6  -7 1179.21 324.341   7 0.54914-0.33770 0.05308 0.82141-0.65979 0.35393
  -4   6   7 1361.78 332.105   4 0.57573-0.78643 0.36907 0.50521 0.85531-0.54905
   4   6  -6 3951.99 533.952   7 0.53751-0.31142 0.07827 0.79625-0.66824 0.41793
   4   6  -6 3863.66 552.966  10-0.12357 0.34896 0.20030 0.67459-0.97015 0.71954
  -4   6   6 4375.09 564.793   4 0.54226-0.76753 0.39205 0.48222 0.85958-0.60877
   4   6  -5 7746.60 724.173   7 0.52278-0.28205 0.10882 0.76572-0.67780 0.48304
   4   6  -5 8697.94 820.436  10-0.09827 0.33825 0.24288 0.63202-0.95688 0.76180
  -4   6   5 7864.29 772.324   7 0.02857-0.26754 0.72847 0.14572-0.65260 0.84823
  -4   6   5 8793.22 774.879   4 0.50287-0.74269 0.41739 0.45686 0.86253-0.66717
  -4   6   4 1619.09 357.449   7 0.06987-0.32348 0.69581 0.17835-0.67101 0.81110
  -4   6   4 1273.67 301.122   4 0.45694-0.71132 0.44482 0.42942 0.86339-0.72348
   4   6  -4 1704.49 327.854   7 0.50433-0.24896 0.14524 0.72933-0.68819 0.54897
   4   6  -4 937.630 287.530  10-0.07109 0.32566 0.28751 0.58741-0.94013 0.80059
   4   6  -3 306.727 203.624  10-0.04222 0.31139 0.33366 0.54128-0.91961 0.83561
  -4   6   3 687.894 268.270   7 0.10848-0.37674 0.66275 0.21139-0.68607 0.77062
   4   6  -2 3514.81 519.538  10-0.01194 0.29570 0.38073 0.49424-0.89509 0.86663
  -4   6   2 4138.86 571.746   7 0.14424-0.42714 0.62989 0.24422-0.69812 0.72711
  -4   6   1 145.333 144.502   7 0.17705-0.47459 0.59780 0.27627-0.70751 0.68096
   4   6  -1 380.628 188.683  10 0.01945 0.27890 0.42807 0.44692-0.86649 0.89356
  -4   6   0-225.626 177.286   7 0.20685-0.51904 0.56698 0.30707-0.71461 0.63251
   4   6   0-58.9748 117.033  10 0.05160 0.26134 0.47504 0.39997-0.83381 0.91642
  -4   6  -1 718.891 264.662   7 0.23367-0.56050 0.53783 0.33619-0.71979 0.58215
   4   6   1 731.186 266.514  10 0.08414 0.24339 0.52099 0.35404-0.79721 0.93536
  -4   6  -2 2307.01 449.674   7 0.25754-0.59901 0.51070 0.36329-0.72340 0.53021
   4   6   2 2086.36 423.328  10 0.11672 0.22541 0.56534 0.30971-0.75693 0.95061
  -4   6  -3-50.1930 139.725   7 0.27856-0.63468 0.48586 0.38811-0.72576 0.47702
   4   6   3 303.439 172.936  10 0.14898 0.20774 0.60758 0.26749-0.71331 0.96253
  -4   6  -4 923.171 280.475   7 0.29683-0.66759 0.46350 0.41043-0.72716 0.42288
   4   6   4 518.333 238.588  10 0.18062 0.19069 0.64728 0.22781-0.66674 0.97149
  -4   6  -5 2116.10 450.768   7 0.31247-0.69787 0.44378 0.43013-0.72786 0.36803
   4   6   5 2681.09 473.322  10 0.21136 0.17454 0.68412 0.19099-0.61765 0.97795
  -4   6  -6 2598.66 497.040   7 0.32560-0.72565 0.42678 0.44710-0.72808 0.31270
   4   6   6 1336.70 373.145  10 0.24098 0.15952 0.71787 0.15726-0.56649 0.98232
  -5  -6   9 2866.00 518.463  11 0.37676-0.63701-0.22568-0.64914 0.96576-0.56948
   5  -6  -9 2703.65 496.344   9 0.86235-0.60299-0.46386-0.41130 0.42113-0.81829
   5  -6  -8 3949.54 579.885   9 0.86155-0.58760-0.43932-0.43582 0.47089-0.81253
  -5  -6   8 4596.62 644.827  11 0.36698-0.64185-0.26363-0.61123 0.95708-0.61634
   5  -6  -7-73.7752 149.432   9 0.85785-0.56930-0.41292-0.46219 0.51983-0.80595
  -5  -6   7 186.301 147.256  11 0.35568-0.64518-0.30442-0.57047 0.94593-0.66073
   5  -6  -6 695.918 241.824   9 0.85113-0.54799-0.38475-0.49035 0.56762-0.79822
  -5  -6   6 427.650 212.920  11 0.34279-0.64692-0.34768-0.52724 0.93196-0.70231
   5  -6  -5 317.707 245.581   9 0.84134-0.52361-0.35493-0.52015 0.61391-0.78897
  -5  -6   5 517.479 234.577  11 0.32824-0.64700-0.39294-0.48201 0.91486-0.74076
   5  -6  -4 370.625 197.847   9 0.82848-0.49615-0.32365-0.55141 0.65828-0.77782
  -5  -6   4 394.227 213.786  11 0.31202-0.64540-0.43967-0.43532 0.89439-0.77583
   5  -6  -3 1495.62 344.130   9 0.81261-0.46570-0.29116-0.58388 0.70033-0.76436
  -5  -6   3 1010.62 312.008  11 0.29414-0.64215-0.48725-0.38776 0.87037-0.80736
   5  -6  -2 1235.23 309.855   9 0.79392-0.43241-0.25779-0.61724 0.73969-0.74819
  -5  -6   2 1377.51 342.219  11 0.27467-0.63731-0.53507-0.33998 0.84272-0.83525
   5  -6  -1 3304.50 487.255   9 0.77266-0.39656-0.22389-0.65112 0.77599-0.72897
  -5  -6   1 3118.57 521.614  11 0.25373-0.63099-0.58247-0.29261 0.81145-0.85952
  -5  -6   0 378.602 194.206  11 0.23146-0.62334-0.62882-0.24629 0.77668-0.88030
  -5  -6  -1 5818.67 714.289  11 0.20803-0.61454-0.67357-0.20158 0.73860-0.89776
  -5  -6  -2 111.462 172.861  11 0.18364-0.60479-0.71619-0.15898 0.69749-0.91220
  -5  -6  -3 422.667 261.727  11 0.15851-0.59428-0.75627-0.11894 0.65368-0.92392
   5  -6   4 460.633 202.756  11 0.39321 0.05653-0.15497-0.71972 0.97776-0.65297
  -5  -6  -4 634.424 258.115  11 0.13284-0.58323-0.79347-0.08177 0.60751-0.93330
   5  -6   5 968.977 296.757  11 0.40259 0.06178-0.10952-0.76514 0.98268-0.60235
   5  -5 -13 1236.14 344.623   9 0.84729-0.64620-0.52905-0.20030 0.26129-0.88050
  -5  -5  13 1243.05 331.603  11 0.42470-0.62639 0.02249-0.75135 0.98496-0.36642
   5  -5 -12 224.844 200.204   9 0.85517-0.63949-0.50921-0.22013 0.31525-0.87894
  -5  -5  12 184.884 169.229  11 0.42079-0.63710-0.00455-0.72435 0.98594-0.42294
   5  -5 -11 1954.90 441.161   9 0.86028-0.63001-0.48708-0.24223 0.36949-0.87765
  -5  -5  11 1947.18 402.964  11 0.41583-0.64677-0.03606-0.69287 0.98613-0.47868
   5  -5 -10 4879.74 625.661   9 0.86238-0.61751-0.46260-0.26670 0.42379-0.87643
  -5  -5  10 4216.96 578.594  11 0.40963-0.65519-0.07208-0.65689 0.98513-0.53322
   5  -5  -9 221.692 170.036   9 0.86120-0.60175-0.43568-0.29359 0.47789-0.87500
  -5  -5   9 94.8386 121.856  11 0.40199-0.66218-0.11257-0.61643 0.98241-0.58605
   5  -5  -8 431.684 204.613   9 0.85651-0.58246-0.40631-0.32295 0.53143-0.87302
  -5  -5   8-130.335 137.310  11 0.39269-0.66751-0.15737-0.57166 0.97744-0.63662
   5  -5  -7 419.055 194.251   9 0.84806-0.55942-0.37451-0.35473 0.58399-0.87006
  -5  -5   7-30.3865 116.127  11 0.38153-0.67098-0.20616-0.52290 0.96961-0.68433
   5  -5  -6 6036.31 641.874   9 0.83566-0.53243-0.34037-0.38886 0.63506-0.86561
  -5  -5   6 6565.48 681.790  11 0.36835-0.67242-0.25847-0.47062 0.95835-0.72862
   5  -5  -5 888.965 252.425   9 0.81921-0.50138-0.30407-0.42513 0.68408-0.85911
  -5  -5   5 1188.31 291.406  11 0.35301-0.67171-0.31365-0.41547 0.94313-0.76894
   5  -5  -4 5710.68 597.787   9 0.79868-0.46626-0.26591-0.46327 0.73045-0.84995
  -5  -5   4 5930.06 627.610  11 0.33546-0.66879-0.37090-0.35825 0.92351-0.80487
   5  -5  -3 456.390 196.288   9 0.77423-0.42722-0.22629-0.50288 0.77355-0.83752
  -5  -5   3 321.379 167.861  11 0.31573-0.66368-0.42929-0.29990 0.89920-0.83610
   5  -5  -2 1059.60 272.626   9 0.74615-0.38454-0.18569-0.54346 0.81282-0.82127
   5  -5  -2 1279.93 276.555  11 0.31552 0.04652-0.42989-0.29916 0.89892-0.90732
  -5  -5   2 687.910 240.403  11 0.29392-0.65650-0.48782-0.24140 0.87007-0.86251
   5  -5  -1 1041.91 263.938   9 0.71491-0.33871-0.14471-0.58443 0.84781-0.80073
   5  -5  -1 1702.90 329.264  11 0.34168 0.03498-0.35126-0.37776 0.93070-0.88355
  -5  -5   1 1849.06 356.519  11 0.27021-0.64742-0.54549-0.18376 0.83619-0.88418
  -5  -5   1 1581.57 290.706   5-0.53729 0.16044-0.12516-0.60410 0.66326-0.71097
   5  -5   0 50.7664 101.398   9 0.68114-0.29034-0.10398-0.62514 0.87820-0.77560
   5  -5   0 251.589 139.704  11 0.36419 0.02710-0.27398-0.45501 0.95443-0.85173
  -5  -5   0 114.267 126.408  11 0.24488-0.63671-0.60136-0.12793 0.79781-0.90135
   5  -5   1 8385.55 708.986   9 0.64560-0.24021-0.06416-0.66494 0.90386-0.74574
  -5  -5  -1 9085.42 789.245  11 0.21822-0.62468-0.65458-0.07473 0.75534-0.91442
   5  -5   1 10244.4 772.042  11 0.38304 0.02288-0.19985-0.52911 0.97077-0.81253
   5  -5   2 1290.90 282.474   9 0.60914-0.18916-0.02587-0.70321 0.92485-0.71121
   5  -5   2 2215.26 365.176  11 0.39841 0.02213-0.13030-0.59863 0.98069-0.76691
  -5  -5  -2 1553.74 341.974  11 0.19056-0.61165-0.70449-0.02486 0.70930-0.92392
   5  -5   3 3465.71 462.608   9 0.57261-0.13804 0.01035-0.73941 0.94144-0.67227
   5  -5   3 3533.92 474.495  11 0.41065 0.02452-0.06635-0.66254 0.98537-0.71605
  -5  -5  -3 3091.66 480.662  11 0.16224-0.59795-0.75057 0.02119 0.66025-0.93042
   5  -5   4 1335.37 298.681   9 0.53684-0.08768 0.04406-0.77310 0.95403-0.62934
   5  -5   4 950.023 270.554  11 0.42017 0.02962-0.00861-0.72025 0.98602-0.66115
  -5  -5  -4 1259.22 324.245  11 0.13355-0.58390-0.79248 0.06307 0.60881-0.93452
   5  -5   5 265.596 164.243   9 0.50258-0.03882 0.07494-0.80396 0.96313-0.58291
   5  -5   5 530.801 228.718  11 0.42742 0.03701 0.04267-0.77150 0.98376-0.60334
  -5  -5  -5 274.211 227.437  11 0.10479-0.56976-0.83006 0.10061 0.55555-0.93681
   5  -5   6 1620.75 343.873   9 0.47042 0.00793 0.10277-0.83178 0.96931-0.53357
   5  -5   6 1616.04 362.290  11 0.43282 0.04623 0.08751-0.81631 0.97959-0.54363
  -5  -5  -6 1235.71 329.447  11 0.07618-0.55577-0.86324 0.13376 0.50100-0.93780
   5  -5   7 457.422 198.796   9 0.44087 0.05207 0.12748-0.85647 0.97317-0.48190
   5  -5   7 380.020 179.309  11 0.43676 0.05691 0.12613-0.85490 0.97435-0.48285
  -5  -5  -7 425.705 200.069  11 0.04791-0.54213-0.89208 0.16257 0.44563-0.93796
   5  -5   8 760.959 275.035  11 0.43959 0.06871 0.15887-0.88761 0.96870-0.42165
  -5  -5  -8 1230.21 373.339  11 0.02013-0.52897-0.91671 0.18717 0.38981-0.93769
   5  -5   9 205.008 143.227  11 0.44158 0.08135 0.18613-0.91483 0.96313-0.36054
   5  -5  10 2740.03 494.199  11 0.44295 0.09461 0.20831-0.93698 0.95801-0.29988
  -5  -4  16 700.954 244.369  11 0.44338-0.60113 0.21633-0.79928 0.95603-0.17078
   5  -4 -15 625.767 254.214   9 0.82800-0.65600-0.55801-0.02550 0.17003-0.90024
  -5  -4  15 580.312 222.221  11 0.44262-0.61500 0.20269-0.78566 0.95936-0.22965
   5  -4 -14 1327.26 364.109   9 0.84068-0.65409-0.54095-0.04254 0.22592-0.90061
  -5  -4  14 927.612 283.621  11 0.44147-0.62847 0.18446-0.76747 0.96349-0.28933
  -5  -4  13 855.563 264.937  11 0.43978-0.64141 0.16127-0.74431 0.96824-0.34962
   5  -4 -13 1455.81 387.726   9 0.85074-0.64956-0.52142-0.06206 0.28273-0.90189
   5  -4 -12 1917.53 386.907   9 0.85790-0.64212-0.49925-0.08421 0.34036-0.90400
  -5  -4  12 1392.30 320.943  11 0.43737-0.65363 0.13273-0.71581 0.97330-0.41022
   5  -4 -11 2780.54 460.386   9 0.86180-0.63143-0.47425-0.10919 0.39863-0.90675
  -5  -4  11 2399.42 414.436  11 0.43400-0.66489 0.09848-0.68158 0.97826-0.47072
   5  -4 -10 2858.96 453.045   9 0.86205-0.61709-0.44625-0.13717 0.45728-0.90988
  -5  -4  10 2897.91 394.700   5 0.14489-0.39018 0.23322-0.81645 0.96589-0.51388
  -5  -4  10 2771.90 428.045  11 0.42939-0.67490 0.05820-0.64133 0.98254-0.53055
   5  -4  -9 278.769 178.436   9 0.85825-0.59870-0.41510-0.16830 0.51595-0.91302
  -5  -4   9 450.152 184.511  11 0.42317-0.68331 0.01168-0.59485 0.98544-0.58899
  -5  -4   9 564.538 205.883   5 0.09762-0.35752 0.21169-0.79495 0.96393-0.56744
   5  -4  -8 8639.54 724.641   9 0.84996-0.57581-0.38072-0.20267 0.57413-0.91568
  -5  -4   8 10856.0 707.679   5 0.04413-0.31864 0.18677-0.77004 0.95849-0.61752
  -5  -4   8 8615.88 708.933  11 0.41500-0.68976-0.04108-0.54212 0.98607-0.64517
  -5  -4   7 2657.86 389.909  11 0.40447-0.69386-0.09984-0.48340 0.98345-0.69809
   5  -4  -7 2166.17 366.829   9 0.83676-0.54802-0.34308-0.24029 0.63119-0.91721
  -5  -4   7 2004.34 316.445   5-0.01516-0.27396 0.15845-0.74175 0.94850-0.66305
   5  -4  -6 1252.01 298.226   9 0.81832-0.51499-0.30230-0.28105 0.68635-0.91685
  -5  -4   6 1559.09 300.392  11 0.39123-0.69525-0.16403-0.41924 0.97652-0.74670
  -5  -4   6 1296.04 256.831   5-0.07944-0.22429 0.12695-0.71027 0.93300-0.70306
   5  -4  -5 824.501 227.764   9 0.79443-0.47650-0.25864-0.32469 0.73873-0.91370
  -5  -4   5 422.574 175.776  11 0.37500-0.69365-0.23271-0.35059 0.96427-0.79000
  -5  -4   5 761.738 204.978   5-0.14750-0.17084 0.09265-0.67600 0.91121-0.73679
   5  -4  -5 1030.95 215.088  11 0.21888 0.09933-0.65332 0.07000 0.75642-0.93137
  -5  -4   4 1474.52 292.999  11 0.35563-0.68891-0.30459-0.27874 0.94587-0.82715
   5  -4  -4 1307.40 270.035   9 0.76506-0.43254-0.21254-0.37077 0.78737-0.90682
  -5  -4   4 1603.81 272.678   5-0.21781-0.11514 0.05618-0.63955 0.88272-0.76382
   5  -4  -4 1493.95 241.230  11 0.26207 0.07076-0.56406-0.01923 0.82408-0.94348
  -5  -4   3 5674.16 496.224   5-0.28867-0.05890 0.01831-0.60170 0.84755-0.78417
  -5  -4   3 5772.50 542.079  11 0.33314-0.68104-0.37807-0.20529 0.92077-0.85758
   5  -4  -3 5945.50 480.551  11 0.30219 0.04527-0.46630-0.11696 0.88136-0.94522
   5  -4  -3 5588.76 538.656   9 0.73046-0.38335-0.16465-0.41864 0.83135-0.89527
   5  -4  -2 3092.72 398.809   9 0.69118-0.32948-0.11577-0.46751 0.86984-0.87824
  -5  -4   2 3075.89 376.455   5-0.35836-0.00382-0.02012-0.56329 0.80616-0.79829
  -5  -4   2 2879.19 387.546  11 0.30774-0.67026-0.45141-0.13198 0.88877-0.88113
   5  -4  -2 3708.41 385.525  11 0.33781 0.02428-0.36357-0.21965 0.92625-0.93456
   5  -4  -1 17028.5 914.498   9 0.64806-0.27177-0.06684-0.51642 0.90226-0.85513
  -5  -4   1 16637.1 841.906   5-0.42535 0.04856-0.05828-0.52516 0.75937-0.80703
   5  -4  -1 18130.5 852.862  11 0.36794 0.00878-0.26002-0.32317 0.95797-0.91074
  -5  -4   1 16418.9 912.437  11 0.27979-0.65694-0.52288-0.06054 0.85012-0.89803
   5  -4   0 3463.32 423.726   9 0.60221-0.21133-0.01885-0.56439 0.92832-0.82567
  -5  -4   0 3701.98 409.743   5-0.48843 0.09703-0.09543-0.48802 0.70825-0.81143
   5  -4   0 4286.08 426.010  11 0.39219-0.00084-0.15967-0.42350 0.97712-0.87435
  -5  -4   0 3334.49 427.081  11 0.24981-0.64159-0.59091 0.00746 0.80544-0.90889
  -5  -4  -1 14411.3 803.921   5-0.54676 0.14076-0.13102-0.45246 0.65393-0.81262
  -5  -4  -1 14764.8 889.911  11 0.21838-0.62479-0.65427 0.07078 0.75562-0.91461
   5  -4   1 13752.8 781.963  11 0.41075-0.00478-0.06580-0.51733 0.98540-0.82708
   5  -4   1 13521.3 823.646   9 0.55491-0.14943 0.02724-0.61046 0.94809-0.78992
   5  -4   2 1043.65 240.288   9 0.50748-0.08740 0.07060-0.65380 0.96199-0.74830
   5  -4   2 1268.50 252.327  11 0.42426-0.00366 0.01932-0.60242 0.98512-0.77125
  -5  -4  -2 1268.90 280.436  11 0.18610-0.60714-0.71206 0.12854 0.70170-0.91624
   5  -4   3 96.5380 115.094   9 0.46117-0.02650 0.11060-0.69378 0.97070-0.70148
  -5  -4  -3 150.216 118.213   2 0.00264-0.43699-0.20745-0.37488-0.94329 0.67356
   5  -4   3 244.649 117.727  11 0.43359 0.00164 0.09456-0.67763 0.97875-0.70934
  -5  -4  -3-15.3652 96.2530  11 0.15351-0.58917-0.76381 0.18026 0.64478-0.91486
   5  -4   4 3851.21 456.424  11 0.43965 0.01020 0.15965-0.74268 0.96855-0.64360
  -5  -4  -4 4438.89 520.531  11 0.12105-0.57134-0.80935 0.22576 0.58587-0.91149
  -5  -4  -4 4445.96 440.740   2 0.07241-0.52136-0.20012-0.38224-0.92383 0.59857
   5  -4   4 3285.77 439.363   9 0.41707 0.03218 0.14680-0.72997 0.97509-0.65035
  -5  -4  -5 3468.94 403.637   2 0.12960-0.59316-0.19334-0.38905-0.90440 0.52361
   5  -4   5 3267.89 429.722  11 0.44331 0.02117 0.21495-0.79795 0.95638-0.57588
  -5  -4  -5 2703.30 426.790  11 0.08910-0.55402-0.84876 0.26514 0.52583-0.90700
   5  -4   5 3049.21 425.942   9 0.37605 0.08780 0.17901-0.76216 0.97609-0.59583
  -5  -4  -6 9773.44 704.806   2 0.17577-0.65393-0.18736-0.39507-0.88638 0.45005
   5  -4   6 8940.78 743.330  11 0.44528 0.03382 0.26119-0.84416 0.94365-0.50761
  -5  -4  -6 9608.03 808.482  11 0.05792-0.53746-0.88231 0.29866 0.46540-0.90211
   5  -4   6 8311.06 717.625   9 0.33870 0.13974 0.20719-0.79032 0.97463-0.53884
   5  -4   7 1824.93 345.514   9 0.30542 0.18762 0.23145-0.81456 0.97154-0.48023
   5  -4   7 1842.00 360.103  11 0.44613 0.04760 0.29926-0.88220 0.93136-0.43978
  -5  -4  -7 1987.81 349.563   2 0.21245-0.70520-0.18228-0.40019-0.87054 0.37868
  -5  -4  -7 1655.44 353.020  11 0.02768-0.52185-0.91037 0.32669 0.40512-0.89738
   5  -4   8 1874.46 369.289   9 0.27637 0.23126 0.25199-0.83508 0.96755-0.42071
   5  -4   8 1612.02 339.525  11 0.44628 0.06207 0.33008-0.91298 0.92018-0.37305
  -5  -4  -8 1804.00 340.287   2 0.24100-0.74836-0.17811-0.40439-0.85727 0.30987
   5  -4   9 2674.46 436.011   9 0.25161 0.27062 0.26906-0.85213 0.96321-0.36085
   5  -4   9 2307.95 412.204  11 0.44606 0.07692 0.35451-0.93738 0.91050-0.30782
  -5  -4  -9 2679.35 437.025   2 0.26262-0.78458-0.17483-0.40770-0.84665 0.24372
   5  -4  10-45.6965 126.454  11 0.44567 0.09194 0.37333-0.95617 0.90253-0.24431
  -5  -4 -10 12.3337 129.792   2 0.27829-0.81485-0.17239-0.41018-0.83864 0.18019
   5  -4  10-104.006 96.9020   9 0.23103 0.30578 0.28293-0.86599 0.95898-0.30110
   5  -4  11 512.142 229.951  11 0.44526 0.10698 0.38721-0.97003 0.89636-0.18260
  -5  -4 -11 99.4716 175.152   2 0.28881-0.83997-0.17071-0.41188-0.83312 0.11913
   5  -4  12 2013.76 425.951  11 0.44492 0.12195 0.39673-0.97951 0.89199-0.12269
  -5  -4 -12 1237.00 345.215   2 0.29485-0.86061-0.16974-0.41289-0.82990 0.06037
  -5  -3  17 385.342 177.855  11 0.44585-0.58892 0.36585-0.80294 0.90575-0.06486
  -5  -3  16 1581.71 357.956  11 0.44598-0.60367 0.35946-0.79657 0.90844-0.12310
   5  -3 -16 2074.40 429.717   9 0.80984-0.65234-0.57534 0.13769 0.10478-0.89047
  -5  -3  16 1485.65 329.923   5 0.44702-0.60457 0.35867-0.79594 0.90841-0.12324
   5  -3 -15 2679.99 473.145   9 0.82595-0.65385-0.56031 0.12267 0.16196-0.89212
  -5  -3  15 2694.40 458.245  11 0.44614-0.61846 0.34863-0.78578 0.91289-0.18310
  -5  -3  15 3475.40 493.975   5 0.43770-0.60987 0.35516-0.79246 0.91226-0.18260
   5  -3 -14 919.819 296.912   9 0.83959-0.65291-0.54265 0.10503 0.22063-0.89527
   5  -3 -14 1081.88 276.101   7 0.46972-0.28384-0.87642 0.43925 0.22207-0.89678
  -5  -3  14 1138.97 287.774  11 0.44627-0.63322 0.33282-0.77000 0.91913-0.24488
  -5  -3  14 1076.23 267.934   5 0.42416-0.61094 0.35002-0.78733 0.91758-0.24343
   5  -3 -13 1900.95 381.422   9 0.85045-0.64917-0.52212 0.08452 0.28080-0.89991
  -5  -3  13 1557.97 312.987  11 0.44624-0.64782 0.31138-0.74859 0.92710-0.30839
  -5  -3  13 1363.84 299.650   5 0.40587-0.60726 0.34298-0.78032 0.92426-0.30563
   5  -3 -12 3503.62 492.876   9 0.85809-0.64222-0.49842 0.06083 0.34239-0.90599
  -5  -3  12 2968.91 398.273   5 0.38221-0.59821 0.33373-0.77109 0.93208-0.36898
  -5  -3  12 3158.15 437.508  11 0.44586-0.66207 0.28357-0.72081 0.93663-0.37347
   5  -3 -11 1555.18 326.831   9 0.86202-0.63155-0.47123 0.03366 0.40526-0.91333
  -5  -3  11 1922.33 323.105  11 0.44484-0.67567 0.24854-0.68581 0.94737-0.43975
  -5  -3  11 1760.94 313.085   5 0.35250-0.58311 0.32190-0.75929 0.94065-0.43306
   5  -3 -10 3238.63 440.296   9 0.86163-0.61657-0.44023 0.00268 0.46912-0.92166
  -5  -3  10 3953.93 438.054   5 0.31603-0.56125 0.30707-0.74448 0.94935-0.49728
  -5  -3  10 4101.81 464.140  11 0.44278-0.68824 0.20542-0.64273 0.95871-0.50664
   5  -3  -9 5161.39 540.009   9 0.85625-0.59660-0.40512-0.03240 0.53349-0.93051
  -5  -3   9 5332.88 507.186  11 0.43915-0.69924 0.15340-0.59074 0.96972-0.57319
  -5  -3   9 5816.58 513.971   5 0.27213-0.53196 0.28877-0.72620 0.95729-0.56074
   5  -3  -8 9188.92 691.878   9 0.84516-0.57092-0.36568-0.07183 0.59770-0.93920
  -5  -3   8 9127.96 622.242   5 0.22026-0.49470 0.26656-0.70401 0.96331-0.62228
  -5  -3   8 8664.22 621.750  11 0.43329-0.70800 0.09185-0.52922 0.97908-0.63809
   5  -3  -7 188.713 141.503   9 0.82763-0.53879-0.32177-0.11572 0.66082-0.94679
  -5  -3   7 73.2575 92.4484  11 0.42443-0.71377 0.02055-0.45796 0.98506-0.69961
   5  -3  -7 356.388 119.589  11 0.08189 0.20712-0.85694 0.41938 0.51202-0.79797
  -5  -3   7 190.016 128.343   5 0.16020-0.44926 0.24009-0.67757 0.96594-0.68042
   5  -3  -6 10554.0 704.047   9 0.80300-0.49958-0.27349-0.16398 0.72164-0.95209
  -5  -3   6 9616.95 624.018  11 0.41176-0.71573-0.06004-0.37740 0.98561-0.75571
   5  -3  -6 11217.2 563.392  11 0.13665 0.16698-0.78817 0.35065 0.61446-0.84486
  -5  -3   6 10439.5 634.211   5 0.09220-0.39586 0.20919-0.64669 0.96354-0.73354
   5  -3  -5 32932.5 1207.54   9 0.77086-0.45284-0.22118-0.21628 0.77875-0.95368
   5  -3  -5 35141.7 978.626  11 0.19481 0.12346-0.69716 0.25966 0.71649-0.89135
  -5  -3   5 32755.2 1101.59   5 0.01711-0.33538 0.17395-0.61148 0.95445-0.77998
  -5  -3   5 32441.9 1115.63  11 0.39458-0.71317-0.14860-0.28887 0.97857-0.80422
   5  -3  -4 18105.5 878.316   9 0.73114-0.39852-0.16553-0.27190 0.83059-0.94999
  -5  -3   4 16814.0 794.833  11 0.37243-0.70565-0.24280-0.19470 0.96204-0.84323
  -5  -3   4 17526.5 796.889   5-0.06353-0.26936 0.13482-0.57237 0.93729-0.81833
   5  -3  -4 17851.8 680.618  11 0.25347 0.07942-0.58304 0.14557 0.81105-0.93037
   5  -3  -3 15495.9 808.365   9 0.68425-0.33704-0.10760-0.32982 0.87566-0.93954
   5  -3  -3 17781.2 679.231  11 0.30857 0.03895-0.44914 0.01171 0.88987-0.95364
  -5  -3   3 15773.4 751.513   5-0.14755-0.19995 0.09263-0.53020 0.91119-0.84775
  -5  -3   3 16826.5 788.631  11 0.34530-0.69315-0.33950-0.09804 0.93477-0.87150
   5  -3  -2 12742.8 724.318   9 0.63120-0.26940-0.04876-0.38864 0.91273-0.92109
   5  -3  -2 13269.2 599.017  11 0.35595 0.00619-0.30349-0.13391 0.94620-0.95443
  -5  -3   2 12636.8 675.452   5-0.23242-0.12969 0.04847-0.48606 0.87601-0.86809
  -5  -3   2 13188.5 698.776  11 0.31367-0.67614-0.43507-0.00250 0.89654-0.88882
   5  -3  -1 26463.1 1046.24   9 0.57355-0.19716 0.00944-0.44683 0.94107-0.89390
   5  -3  -1 28164.3 885.041  11 0.39280-0.01603-0.15683-0.28054 0.97751-0.93019
  -5  -3   1 25998.8 973.796   5-0.31559-0.06113 0.00361-0.44122 0.83239-0.87998
  -5  -3   1 28563.5 1033.85  11 0.27846-0.65556-0.52606 0.08846 0.84822-0.89604
  -5  -3   1 27347.9 877.462   2-0.31236-0.06367-0.22758-0.20900-0.97211 0.92460
   5  -3   0 6111.32 429.139  11 0.41853-0.02713-0.01923-0.41811 0.98615-0.88329
  -5  -3   0 5312.64 457.186  11 0.24087-0.63260-0.60971 0.17208 0.79156-0.89492
  -5  -3   0 6055.32 482.873   5-0.39484 0.00351-0.04074-0.39690 0.78158-0.88469
  -5  -3   0 5714.39 419.799   2-0.19074-0.19989-0.22240-0.21422-0.97277 0.86973
   5  -3   0 5103.49 463.344   9 0.51327-0.12228 0.06544-0.50280 0.96058-0.85789
   5  -3   1 7252.21 485.198  11 0.43443-0.02841 0.10256-0.53986 0.97773-0.81933
  -5  -3  -1 6232.50 510.042  11 0.20214-0.60849-0.68422 0.24656 0.72881-0.88771
  -5  -3  -1 6802.07 520.482   5-0.46848 0.06254-0.08354-0.35412 0.72522-0.88385
  -5  -3  -1 6856.79 471.326   2-0.08124-0.32400-0.21491-0.22174-0.96052 0.80195
   5  -3   1 6594.25 537.338   9 0.45250-0.04692 0.11786-0.55520 0.97185-0.81363
  -5  -3  -2 16901.8 851.944  11 0.16336-0.58434-0.74884 0.31114 0.66223-0.87668
  -5  -3  -2 16621.7 819.837   5-0.53549 0.11494-0.12404-0.31364 0.66501-0.87916
   5  -3   2 17919.5 787.987  11 0.44280-0.02215 0.20569-0.64297 0.95865-0.74470
  -5  -3  -2 17724.9 781.189   2 0.01354-0.43337-0.20637-0.23031-0.94055 0.72645
   5  -3   2 17621.1 881.513   9 0.39327 0.02691 0.16566-0.60299 0.97601-0.76227
   5  -3   3 2087.67 316.332   9 0.33729 0.09748 0.20824-0.64555 0.97453-0.70527
  -5  -3  -3 1787.20 274.731   2 0.09317-0.52761-0.19774-0.23898-0.91714 0.64751
  -5  -3  -3 1524.75 278.890  11 0.12537-0.56098-0.80362 0.36589 0.59383-0.86382
   5  -3   3 1871.45 273.543  11 0.44599-0.01071 0.29034-0.72758 0.93439-0.66490
  -5  -3  -4 15788.3 800.080   2 0.15863-0.60766-0.18964-0.24711-0.89332 0.56814
  -5  -3  -4 17839.2 752.088   9 0.41473-0.86467-0.58931 0.15135-0.55982 0.23474
   5  -3   4 17499.0 855.638  11 0.44600 0.00391 0.35830-0.79551 0.90893-0.58389
  -5  -3  -4 17088.4 911.084  11 0.08875-0.53898-0.84916 0.41141 0.52516-0.85070
   5  -3   4 16936.3 905.358   9 0.28582 0.16353 0.24537-0.68266 0.96898-0.64419
  -5  -3  -5 5020.89 480.333   2 0.21147-0.67511-0.18242-0.25437-0.87099 0.49028
  -5  -3  -5 5919.89 467.557   9 0.43463-0.89916-0.59441 0.15643-0.53842 0.15782
  -5  -3  -5 5514.05 542.045  11 0.05382-0.51868-0.88637 0.44858 0.45732-0.83841
   5  -3   5 5719.07 512.060  11 0.44426 0.02027 0.41200-0.84917 0.88473-0.50415
   5  -3   5 5894.86 551.674   9 0.23967 0.22428 0.27714-0.71441 0.96083-0.58051
  -5  -3  -6 920.439 208.836   9 0.44569-0.92481-0.59710 0.15910-0.52621 0.09009
   5  -3   6 1074.58 239.299   1 0.38400 0.09504-0.65684 0.21945-0.52678 0.96213
   5  -3   6 1180.22 245.484  11 0.44176 0.03739 0.45384-0.89098 0.86320-0.42707
  -5  -3  -6 895.186 247.772   2 0.25343-0.73167-0.17624-0.26058-0.85122 0.41499
  -5  -3  -6 823.885 233.634  11 0.02072-0.50021-0.91622 0.47840 0.39102-0.82765
   5  -3   7 1693.57 303.088   1 0.46608 0.02752-0.64915 0.21179-0.45930 0.95017
  -5  -3  -7 1616.26 286.462   9 0.45048-0.94420-0.59822 0.16021-0.52086 0.02921
   5  -3   7 1482.69 295.830  11 0.43912 0.05467 0.48596-0.92307 0.84496-0.35329
  -5  -3  -7 1254.72 285.832   2 0.28614-0.77898-0.17114-0.26571-0.83453 0.34276
  -5  -3  -8 3280.42 442.430   2 0.31104-0.81848-0.16709-0.26980-0.82105 0.27374
  -5  -3  -8 3454.77 427.604   9 0.45058-0.95889-0.59825 0.16022-0.52074-0.02643
   5  -3   8 3435.71 442.412   1 0.54115-0.03298-0.63617 0.19885-0.39037 0.93676
   5  -3   8 3432.35 450.333  11 0.43668 0.07173 0.51011-0.94719 0.83020-0.28299
  -5  -3  -9 4665.56 544.959   2 0.32933-0.85137-0.16401-0.27290-0.81071 0.20787
  -5  -3  -9 4190.19 499.033   9 0.44703-0.96994-0.59741 0.15936-0.52472-0.07798
   5  -3   9 4938.24 533.856   1 0.60904-0.08631-0.61864 0.18137-0.32100 0.92290
   5  -3   9 5329.90 580.928  11 0.43465 0.08839 0.52773-0.96478 0.81885-0.21609
  -5  -3 -10 337.148 175.454   9 0.44053-0.97803-0.59586 0.15779-0.53194-0.12628
   5  -3  10 376.703 187.915  11 0.43312 0.10455 0.53991-0.97693 0.81069-0.15239
  -5  -3 -10-182.173 179.085   2 0.34200-0.87864-0.16184-0.27511-0.80332 0.14495
  -5  -3 -11 6695.73 693.339   9 0.43155-0.98364-0.59365 0.15556-0.54177-0.17197
  -5  -3 -11 7108.74 715.312   2 0.34984-0.90108-0.16047-0.27651-0.79866 0.08476
   5  -3  11 8172.04 793.477  11 0.43211 0.12019 0.54753-0.98451 0.80546-0.09162
  -5  -3 -12 766.544 268.651   9 0.42044-0.98712-0.59081 0.15271-0.55375-0.21551
   5  -3  12 772.219 260.369  11 0.43160 0.13532 0.55124-0.98819 0.80288-0.03349
  -5  -3 -12 1301.97 339.670   2 0.35348-0.91933-0.15983-0.27719-0.79647 0.02703
  -5  -3 -13 36.7762 123.530   9 0.40742-0.98870-0.58736 0.14923-0.56750-0.25728
   5  -3  13 205.586 169.185  11 0.43155 0.14999 0.55156-0.98848 0.80266 0.02228
  -5  -3 -13 315.270 222.795   2 0.35343-0.93388-0.15984-0.27721-0.79650-0.02847
   5  -2 -18 47.6554 136.701   9 0.75544-0.62703-0.60470 0.31289-0.04380-0.85289
  -5  -2  18-98.7172 142.747   5 0.55724-0.68551 0.39794-0.68934 0.84999 0.04628
  -5  -2  17 1129.35 296.934  11 0.43711-0.58012 0.50612-0.79738 0.83271 0.00826
   5  -2 -17 986.378 301.195   9 0.77762-0.63462-0.59547 0.30367 0.01108-0.85225
  -5  -2  17 1126.72 310.626   5 0.55817-0.70106 0.39825-0.68968 0.84939-0.00863
   5  -2 -16 485.887 213.780   9 0.79798-0.64038-0.58395 0.29217 0.06780-0.85344
  -5  -2  16 297.764 184.249  11 0.43725-0.59489 0.50477-0.79606 0.83355-0.04812
   5  -2 -16 291.909 172.977   7 0.57694-0.42019-0.80851 0.51701 0.04401-0.82974
  -5  -2  16 8.46639 100.559   5 0.55628-0.71377 0.39761-0.68906 0.85062-0.06538
   5  -2 -15 1963.73 378.910   9 0.81628-0.64409-0.56987 0.27811 0.12651-0.85663
  -5  -2  15 1772.64 340.908  11 0.43782-0.61009 0.49926-0.79058 0.83694-0.10706
  -5  -2  15 1851.78 375.347   5 0.55123-0.72333 0.39591-0.68739 0.85386-0.12414
   5  -2 -15 2179.53 384.298   7 0.55085-0.37947-0.83234 0.54086 0.09356-0.82374
   5  -2 -14 4819.81 573.574   9 0.83222-0.64544-0.55294 0.26119 0.18738-0.86197
  -5  -2  14 6229.87 606.817  11 0.43884-0.62573 0.48891-0.78026 0.84320-0.16887
   5  -2 -14 5151.11 561.107   7 0.52179-0.33576-0.85253 0.56108 0.14335-0.81799
  -5  -2  14 5673.27 604.026   5 0.54259-0.72931 0.39298-0.68448 0.85927-0.18506
   5  -2 -13 927.362 260.534   9 0.84540-0.64402-0.53276 0.24104 0.25054-0.86961
  -5  -2  13 1499.86 290.704  11 0.44028-0.64180 0.47281-0.76420 0.85261-0.23382
   5  -2 -13 1623.84 318.916   7 0.48964-0.28897-0.86887 0.57745 0.19331-0.81240
  -5  -2  13 913.691 259.935   5 0.52982-0.73115 0.38859-0.68011 0.86694-0.24826
   5  -2 -12 7283.88 658.229   9 0.85526-0.63930-0.50890 0.21719 0.31604-0.87958
   5  -2 -12 7171.37 615.626   7 0.45432-0.23901-0.88109 0.58970 0.24331-0.80685
  -5  -2  12 6724.13 602.818   5 0.51223-0.72817 0.38244-0.67398 0.87692-0.31375
  -5  -2  12 7638.11 609.433  11 0.44205-0.65820 0.44980-0.74122 0.86538-0.30213
   5  -2 -11 7079.47 628.574   9 0.86114-0.63058-0.48085 0.18916 0.38384-0.89186
  -5  -2  11 7914.31 591.392  11 0.44395-0.67472 0.41840-0.70985 0.88160-0.37389
  -5  -2  11 6664.33 575.477   5 0.48898-0.71952 0.37413-0.66570 0.88911-0.38146
  -5  -2  10 31708.5 1196.24   5 0.45907-0.70423 0.36317-0.65476 0.90321-0.45108
  -5  -2  10 33801.6 1167.85  11 0.44558-0.69098 0.37674-0.66822 0.90104-0.44888
   5  -2 -10 32529.7 1272.24   9 0.86215-0.61699-0.44803 0.15636 0.45372-0.90622
   5  -2  -9 15265.7 842.178   9 0.85725-0.59750-0.40987 0.11822 0.52521-0.92218
  -5  -2   9 15427.9 803.922   5 0.42140-0.68116 0.34896-0.64057 0.91862-0.52201
  -5  -2   9 14937.5 742.250  11 0.44629-0.70632 0.32263-0.61414 0.92299-0.52637
   5  -2  -8 8676.14 619.223   9 0.84521-0.57087-0.36582 0.07419 0.59748-0.93893
  -5  -2   8 9612.61 563.927  11 0.44503-0.71968 0.25367-0.54522 0.94588-0.60481
  -5  -2   8 9156.67 604.705   5 0.37477-0.64915 0.33079-0.62243 0.93435-0.59326
   5  -2  -7 22601.0 955.990   9 0.82472-0.53578-0.31548 0.02386 0.66922-0.95515
  -5  -2   7 21818.6 893.254   5 0.31812-0.60711 0.30793-0.59958 0.94890-0.66333
  -5  -2   7 23129.8 840.322  11 0.44027-0.72955 0.16771-0.45929 0.96698-0.68145
   5  -2  -6 391.495 161.033   9 0.79449-0.49097-0.25875-0.03285 0.73860-0.96901
  -5  -2   6 405.554 122.204  11 0.43005-0.73396 0.06361-0.35522 0.98207-0.75208
   5  -2  -6 344.699 87.1858  11 0.02950 0.27419-0.90881 0.61711 0.40879-0.63911
  -5  -2   6 319.854 134.245   5 0.25072-0.55432 0.27968-0.57136 0.96021-0.73015
   5  -2  -5 13566.0 466.254  11 0.10420 0.21412-0.83078 0.53912 0.55444-0.72922
   5  -2  -5 12362.8 673.194   9 0.75358-0.43546-0.19602-0.09556 0.80327-0.97815
  -5  -2   5 12223.1 638.632   5 0.17251-0.49072 0.24558-0.53729 0.96577-0.79123
  -5  -2   5 12933.6 587.401  11 0.41220-0.73074-0.05750-0.23414 0.98569-0.81125
   5  -2  -4 3009.99 331.026   9 0.70167-0.36896-0.12836-0.16321 0.86052-0.97987
  -5  -2   4 3582.78 349.573   5 0.08445-0.41727 0.20561-0.49733 0.96291-0.84389
  -5  -2   4 3724.82 312.929  11 0.38509-0.71825-0.19110-0.10058 0.97230-0.85340
   5  -2  -4 3659.64 233.601  11 0.19371 0.13923-0.69906 0.40742 0.71464-0.83387
   5  -2  -3 9687.78 573.678   9 0.63946-0.29215-0.05755-0.23400 0.90774-0.97157
  -5  -2   3 9276.23 545.092   5-0.01131-0.33612 0.16032-0.45207 0.94928-0.88578
   5  -2  -3 10357.7 386.263  11 0.28786 0.05972-0.50312 0.21151 0.86161-0.92529
  -5  -2   3 10074.8 501.949  11 0.34843-0.69622-0.32916 0.03746 0.93821-0.87486
   5  -2  -2 14207.8 693.943   9 0.56885-0.20695 0.01398-0.30550 0.94293-0.95124
  -5  -2   2 13606.5 590.724   2-0.39317 0.03165-0.22905-0.06189-0.96264 0.97076
   5  -2  -2 13617.6 516.875   3 0.77771-0.41620 0.39650-0.68758 0.67577-0.68340
  -5  -2   2 13713.8 653.865   5-0.11149-0.25055 0.11092-0.40269 0.92343-0.91545
  -5  -2   2 14071.2 592.213  11 0.30381-0.66623-0.46199 0.17025 0.88354-0.87573
   5  -2  -2 14169.9 465.604  11 0.36745-0.00525-0.26186-0.02971 0.95752-0.96566
   5  -2  -1 3368.61 252.345   3 0.69396-0.31778 0.39194-0.68306 0.76564-0.71774
  -5  -2   1 2956.81 310.665   5-0.21218-0.16447 0.05914-0.35094 0.88523-0.93276
  -5  -2   1 3448.53 302.776  11 0.25432-0.63137-0.58117 0.28940 0.81236-0.86010
   5  -2  -1 3242.47 236.442  11 0.41835-0.04153-0.02036-0.27118 0.98616-0.93876
  -5  -2   1 3079.12 293.197   2-0.26319-0.11292-0.22590-0.06507-0.97426 0.92684
   5  -2  -1 3014.34 328.659   9 0.49281-0.11632 0.08350-0.37501 0.96524-0.91802
  -5  -2   0 59264.7 1375.16   5-0.30958-0.08169 0.00691-0.29873 0.83586-0.93892
   5  -2   0 60813.9 1034.99   3 0.58528-0.19444 0.37761-0.66877 0.84642-0.74299
   5  -2   0 58527.8 1063.89  11 0.44144-0.04999 0.18414-0.47564 0.96356-0.86062
  -5  -2   0 59493.4 1279.88  11 0.20342-0.59509-0.68192 0.39012 0.73094-0.83422
  -5  -2   0 55512.8 1234.40   2-0.14039-0.25032-0.21927-0.07173-0.96860 0.86565
   5  -2   0 59117.6 1429.21   9 0.41495-0.02386 0.14851-0.44000 0.97521-0.87247
  -5  -2  -1 9731.31 575.591   5-0.40055-0.00532-0.04400-0.24784 0.77754-0.93611
   5  -2   1 10077.3 478.693  11 0.44623-0.04015 0.34016-0.63164 0.91627-0.75778
   5  -2   1 10663.2 438.069   3 0.45628-0.05078 0.35260-0.64380 0.90826-0.74930
  -5  -2  -1 10298.4 552.470  11 0.15387-0.56017-0.76327 0.47144 0.64543-0.80425
  -5  -2  -1 9656.23 537.344   2-0.03037-0.37495-0.21056-0.08048-0.95087 0.79239
   5  -2   1 9381.16 580.651   9 0.33884 0.06684 0.20709-0.49856 0.97464-0.81638
   5  -2   2 32790.3 915.012  11 0.44181-0.02111 0.45318-0.74462 0.86356-0.64952
  -5  -2  -2 33086.0 1074.13   5-0.48306 0.06258-0.09222-0.19964 0.71289-0.92698
   5  -2   2 34265.4 808.449   3 0.31830 0.10186 0.31892-0.61016 0.94488-0.73039
  -5  -2  -2 33033.8 1027.53  11 0.10736-0.52828-0.82688 0.53502 0.56037-0.77474
   5  -2   2 33334.0 1118.73   9 0.26746 0.15281 0.25818-0.54963 0.96608-0.75229
  -5  -2  -2 31414.4 1001.77   2 0.06420-0.48412-0.20103-0.09004-0.92636 0.71235
  -5  -2  -3 9150.82 563.164   2 0.14298-0.57750-0.19166-0.09945-0.89939 0.62984
   5  -2   3 10544.2 553.420  11 0.43396 0.00138 0.53336-0.82478 0.81511-0.54553
  -5  -2  -3 9555.12 598.847   5-0.55615 0.12106-0.13687-0.15502 0.64448-0.91408
   5  -2   3 10604.2 413.886  10 0.47792-0.04257 0.56769-0.85944 0.77247-0.50310
  -5  -2  -3 10447.0 605.481  11 0.06459-0.50015-0.87552 0.58363 0.47849-0.74840
  -5  -2  -4 2432.37 317.181   2 0.20707-0.65619-0.18304-0.10809-0.87295 0.54787
   5  -2   4 2988.48 319.708  11 0.42565 0.02430 0.58987-0.88125 0.77448-0.44936
  -5  -2  -4 3182.06 355.429  11 0.02567-0.47584-0.91209 0.62016 0.40105-0.72651
   5  -2   4 2955.88 247.322  10 0.49537-0.04542 0.63114-0.92287 0.70621-0.38130
  -5  -2  -5 5474.90 482.938   2 0.25823-0.72195-0.17551-0.11566-0.84885 0.46823
  -5  -2  -5 6614.52 491.517   9 0.37907-0.84350-0.57935 0.28725-0.59647 0.21592
   5  -2   5 5870.39 472.082  11 0.41825 0.04634 0.62954-0.92089 0.74226-0.36160
   5  -2   5 5505.64 487.523   1 0.36823 0.09602-0.65762 0.36587-0.53889 0.91883
   5  -2   5 6177.63 392.580  10 0.50376-0.03922 0.66736-0.95907 0.66172-0.28128
  -5  -2  -6 22970.6 967.397   9 0.39528-0.87431-0.58401 0.29189-0.58007 0.14400
  -5  -2  -6 24900.6 896.856   8-0.03690-0.44206 0.36758-0.65965-0.90590 0.46950
   5  -2   6 23334.6 986.523  11 0.41223 0.06699 0.65712-0.94843 0.71783-0.28162
   5  -2   6 22809.9 1001.83   1 0.45088 0.02794-0.65106 0.35934-0.47239 0.90784
   5  -2   6 24422.7 849.677  10 0.50801-0.02888 0.68851-0.98020 0.63299-0.19701
  -5  -2  -7 15988.3 884.369   2 0.32914-0.82206-0.16405-0.12719-0.81082 0.31914
  -5  -2  -7 18400.8 913.413   9 0.40435-0.89797-0.58652 0.29438-0.57071 0.07911
   5  -2   7 18484.3 935.245   1 0.52567-0.03229-0.63936 0.34768-0.40521 0.89618
  -5  -2  -7 17519.9 781.704   8 0.02049-0.51409 0.35935-0.65145-0.89436 0.40245
   5  -2   7 16702.0 880.838  11 0.40769 0.08615 0.67585-0.96713 0.70019-0.20844
   5  -2   7 18393.0 793.667  10 0.51018-0.01645 0.70051-0.99218 0.61563-0.12412
   5  -2   8-89.5849 159.599   1 0.59276-0.08482-0.62341 0.33177-0.33832 0.88481
  -5  -2  -8 105.092 137.704   9 0.40803-0.91624-0.58752 0.29536-0.56687 0.01975
   5  -2   8 147.398 124.717  11 0.40455 0.10391 0.68795-0.97920 0.68831-0.14101
  -5  -2  -8 3.72448 162.677   2 0.35216-0.85969-0.16006-0.13121-0.79727 0.25005
   5  -2   8-33.8099 71.6592  10 0.51119-0.00287 0.70651-0.99816 0.60664-0.05959
  -5  -2  -9 3502.36 457.045   9 0.40749-0.93030-0.58738 0.29520-0.56743-0.03521
  -5  -2  -9 3725.85 481.379   2 0.36865-0.89078-0.15712-0.13418-0.78718 0.18443
   5  -2   9 3820.81 471.730   1 0.65254-0.13003-0.60397 0.31237-0.27237 0.87437
   5  -2   9 4461.63 445.923  10 0.51148 0.01143 0.70830-0.99993 0.60392-0.00133
   5  -2   9 4173.00 493.545  11 0.40267 0.12043 0.69493-0.98615 0.68128-0.07844
   5  -2  10 344.804 171.230  11 0.40186 0.13586 0.69783-0.98902 0.67830-0.01992
  -5  -2 -10 153.278 135.818   9 0.40357-0.94097-0.58631 0.29411-0.57152-0.08665
   5  -2  10-171.330 111.299  10 0.51125 0.02624 0.70693-0.99854 0.60600 0.05212
   5  -2  10 238.483 169.221   1 0.70551-0.16844-0.58167 0.29011-0.20776 0.86528
  -5  -2 -10-400.344 214.920   2 0.37963-0.91636-0.15513-0.13621-0.78029 0.12200
  -5  -2 -11 245.724 199.600   2 0.38590-0.93723-0.15398-0.13740-0.77628 0.06247
   5  -2  11 160.407 145.953  11 0.40198 0.15036 0.69741-0.98857 0.67874 0.03519
  -5  -2 -11 305.425 197.248   9 0.39682-0.94881-0.58444 0.29223-0.57849-0.13520
   5  -2  11 352.278 154.150   1 0.75223-0.20060-0.55701 0.26549-0.14472 0.85776
  -5  -2 -12 4322.79 570.330   9 0.38766-0.95425-0.58185 0.28962-0.58783-0.18139
  -5  -2 -12 5143.83 640.395   2 0.38811-0.95404-0.15357-0.13784-0.77486 0.00551
   5  -2  12 5428.65 641.810  11 0.40287 0.16410 0.69417-0.98529 0.68204 0.08743
   5  -2  12 4830.59 589.492   1 0.79321-0.22702-0.53036 0.23888-0.08333 0.85188
  -5  -2 -13 4636.87 630.248   9 0.37639-0.95757-0.57856 0.28632-0.59913-0.22561
  -5  -2 -13 4983.98 631.851   2 0.38675-0.96728-0.15382-0.13762-0.77574-0.04914
   5  -2  13 4002.60 578.201  11 0.40441 0.17719 0.68848-0.97957 0.68778 0.13724
  -5  -2 -14 606.287 272.514   2 0.38222-0.97735-0.15465-0.13682-0.77864-0.10178
  -5  -2 -14 495.520 241.274   9 0.36321-0.95898-0.57460 0.28233-0.61209-0.26818
   5  -2  14 715.545 253.500  11 0.40648 0.18975 0.68060-0.97166 0.69557 0.18499
   5  -1 -19 1997.76 418.852   9 0.69898-0.58507-0.61815 0.47219-0.16257-0.78959
   5  -1 -18 986.781 295.278   9 0.72506-0.59655-0.61339 0.46745-0.11074-0.78590
   5  -1 -18 639.574 232.316   7 0.64634-0.51874-0.69626 0.55043-0.12952-0.76723
  -5  -1  18 728.448 254.205  10 0.48230-0.61108 0.58259-0.72797 0.75807 0.13867
   5  -1 -17 326.095 185.608   9 0.74976-0.60666-0.60663 0.46071-0.05694-0.78417
   5  -1 -17 307.683 210.744   7 0.63247-0.49022-0.72803 0.58223-0.08686-0.75434
  -5  -1  17 6.15859 96.7441  10 0.48377-0.62714 0.58773-0.73313 0.75295 0.08826
   5  -1 -16 1651.81 345.846   9 0.77298-0.61529-0.59765 0.45175-0.00092-0.78468
  -5  -1  16 1314.13 308.816  11 0.41480-0.57239 0.64574-0.79121 0.72812 0.05738
   5  -1 -16 1789.28 362.059   7 0.61632-0.45943-0.75735 0.61157-0.04376-0.74189
  -5  -1  16 2059.98 383.153  10 0.48459-0.64256 0.59064-0.73606 0.75001 0.03566
   5  -1 -15 630.745 215.919   9 0.79453-0.62224-0.58616 0.44027 0.05766-0.78773
  -5  -1  15 715.743 230.627  11 0.41435-0.58656 0.64779-0.79328 0.72630 0.00367
   5  -1 -15 919.084 263.826   7 0.59783-0.42630-0.78420 0.63846-0.00014-0.72997
  -5  -1  15 523.013 211.951  10 0.48470-0.65727 0.59104-0.73648 0.74961-0.01947
  -5  -1  14 9078.03 687.776  11 0.41474-0.60158 0.64601-0.79154 0.72788-0.05346
   5  -1 -14 8482.78 721.163   9 0.81413-0.62725-0.57177 0.42590 0.11910-0.79365
   5  -1 -14 7969.98 686.530   7 0.57691-0.39074-0.80854 0.66281 0.04405-0.71861
  -5  -1  14 7722.09 673.528  10 0.48399-0.67115 0.58853-0.73398 0.75215-0.07756
   5  -1 -13 7640.86 654.391   9 0.83137-0.62989-0.55401 0.40816 0.18377-0.80279
  -5  -1  13 6438.47 586.054  10 0.48228-0.68403 0.58254-0.72802 0.75812-0.13906
   5  -1 -13 7363.90 638.207   7 0.55345-0.35263-0.83024 0.68454 0.08886-0.70787
  -5  -1  13 7341.25 582.318  11 0.41615-0.61761 0.63956-0.78512 0.73359-0.11471
   5  -1 -12 7514.31 620.562   9 0.84566-0.62959-0.53227 0.38643 0.25199-0.81549
  -5  -1  12 7503.50 556.115  11 0.41873-0.63482 0.62718-0.77277 0.74427-0.18094
   5  -1 -12 6322.73 567.711   7 0.52728-0.31182-0.84915 0.70348 0.13431-0.69777
  -5  -1  12 7013.24 587.867  10 0.47931-0.69565 0.57235-0.71784 0.76804-0.20452
   5  -1 -11 153.459 112.263   9 0.85619-0.62553-0.50578 0.35997 0.32403-0.83200
  -5  -1  11 86.4278 87.1403  11 0.42262-0.65334 0.60705-0.75267 0.76093-0.25315
   5  -1 -11 252.149 146.390   7 0.49824-0.26813-0.86503 0.71939 0.18040-0.68832
  -5  -1  11 184.710 126.491  10 0.47466-0.70559 0.55690-0.70241 0.78249-0.27451
   5  -1 -10 19829.7 919.006   9 0.86184-0.61659-0.47363 0.32784 0.39999-0.85244
   5  -1 -10 20009.5 939.679   7 0.46611-0.22136-0.87760 0.73199 0.22712-0.67949
  -5  -1  10 21479.5 832.345  11 0.42786-0.67321 0.57643-0.72208 0.78468-0.33244
  -5  -1  10 20809.5 953.852   5 0.57184-0.81693 0.40279-0.54855 0.84023-0.38804
  -5  -1  10 18586.9 860.047  10 0.46774-0.71327 0.53478-0.68031 0.80204-0.34959
   5  -1  -9 3864.26 394.348   9 0.86111-0.60126-0.43474 0.28897 0.47969-0.87661
  -5  -1   9 3857.06 331.958  11 0.43422-0.69419 0.53126-0.67695 0.81651-0.41981
  -5  -1   9 3587.17 396.058   5 0.54165-0.80135 0.39266-0.53845 0.85984-0.46317
  -5  -1   9 4156.24 293.978   4 0.54078-0.80078 0.39304-0.53870 0.85974-0.46337
   5  -1  -8 2094.77 281.445   9 0.85202-0.57758-0.38794 0.24218 0.56242-0.90382
  -5  -1   8 2316.57 308.065   5 0.50244-0.77676 0.37896-0.52478 0.88219-0.54103
  -5  -1   8 2326.20 240.635  11 0.44088-0.71548 0.46551-0.61123 0.85675-0.51559
  -5  -1   8 2644.24 225.466   4 0.45570-0.73026 0.44553-0.59120 0.86338-0.52246
   5  -1  -7 7490.27 498.043   9 0.83220-0.54317-0.33211 0.18637 0.64667-0.93254
  -5  -1   7 8119.31 529.987   5 0.45234-0.74126 0.36067-0.50650 0.90615-0.62051
  -5  -1   7 7735.72 407.616  11 0.44574-0.73497 0.37066-0.51641 0.90369-0.61808
  -5  -1   7 7682.70 366.956   4 0.34945-0.63857 0.50112-0.64681 0.85581-0.57035
   5  -1  -6 3685.57 341.387   9 0.79903-0.49540-0.26650 0.12078 0.72977-0.96012
  -5  -1   6 3961.36 362.481   5 0.38944-0.69297 0.33657-0.48243 0.92979-0.69967
  -5  -1   6 3560.33 257.313  11 0.44434-0.74819 0.23616-0.38194 0.95084-0.72077
   5  -1  -5 180520. 2266.04   9 0.75013-0.43192-0.19120 0.04549 0.80776-0.98259
  -5  -1   5 181319. 1693.72  11 0.42883-0.74732 0.05377-0.19959 0.98291-0.80839
   5  -1  -4 7587.58 458.675   9 0.68430-0.35149-0.10766-0.03802 0.87562-0.99493
   5  -1  -4 8018.40 441.192   3 0.76649-0.43423 0.39634-0.54168 0.68975-0.80854
  -5  -1   4 7902.69 336.904  11 0.38970-0.72281-0.17090 0.02506 0.97552-0.85654
   5  -1  -3 99324.0 1618.64   9 0.60246-0.25505-0.01910-0.12657 0.92820-0.99198
   5  -1  -3 97291.8 1481.78   3 0.68825-0.34133 0.39139-0.53676 0.77074-0.83400
  -5  -1   3 98113.9 1152.14  11 0.32374-0.67148-0.40626 0.26038 0.90933-0.84589
   5  -1  -2 21216.5 300.004  11 0.33982 0.02243-0.35719 0.21145 0.92858-0.93664
   5  -1  -2 22352.1 695.684   3 0.58962-0.22804 0.37831-0.52373 0.84377-0.85151
  -5  -1   2 23370.1 573.415  11 0.24185-0.60421-0.60768 0.46177 0.79309-0.78520
  -5  -1   2 22017.4 751.588   2-0.39704 0.03544-0.22907 0.08375-0.96199 0.97020
   5  -1  -2 21640.4 758.849   9 0.50832-0.14633 0.06985-0.21550 0.96179-0.97005
   5  -1  -1 10021.4 461.958   3 0.47264-0.09640 0.35616-0.50161 0.90206-0.85426
  -5  -1   1 9653.79 387.674  11 0.16123-0.53821-0.75212 0.60618 0.65847-0.70612
  -5  -1   1 8829.37 484.474   2-0.26602-0.11017-0.22601 0.08066-0.97421 0.92688
   5  -1  -1 9712.34 280.534  11 0.44547-0.06859 0.26767-0.41338 0.94168-0.89419
   5  -1  -1 9724.46 517.244   9 0.40797-0.03138 0.15407-0.29971 0.97556-0.92829
  -5  -1   0 41411.1 860.954  11 0.09190-0.48352-0.84551 0.69954 0.53117-0.63436
   5  -1   0 40999.8 695.776  11 0.43066-0.03915 0.55790-0.70358 0.79818-0.69515
   5  -1   0 40734.5 928.864   3 0.34388 0.04702 0.32563-0.47112 0.94007-0.83674
   5  -1   0 38511.8 403.701  10 0.51824-0.12671 0.79260-0.93857 0.44613-0.34332
  -5  -1   0 41281.2 1039.55   2-0.14078-0.25001-0.21930 0.07391-0.96864 0.86578
   5  -1   0 41806.2 1089.38   9 0.30826 0.08292 0.22941-0.37502 0.97187-0.86908
   5  -1   1 2397.31 198.456  11 0.40299 0.00314 0.69374-0.83939 0.68248-0.52391
  -5  -1  -1 2386.87 273.951   5-0.35062-0.05519-0.01579-0.13023 0.81110-0.96962
  -5  -1  -1 1921.43 203.837  11 0.03533-0.44158-0.90368 0.75768 0.42053-0.57927
   5  -1   1 2305.07 140.471  10 0.51078-0.10466 0.84041-0.98635 0.30868-0.15033
  -5  -1  -1 2069.80 255.947   2-0.02768-0.37772-0.21031 0.06489-0.95029 0.79190
   5  -1   2 7160.97 299.229  10 0.50708-0.08637 0.84964-0.99556 0.27255-0.05867
  -5  -1  -2 7471.05 475.244   5-0.45061 0.03019-0.07300-0.07304 0.73978-0.95381
  -5  -1  -2 7214.99 472.456   2 0.06989-0.48989-0.20040 0.05494-0.92462 0.71069
  -5  -1  -3 13500.1 663.458   2 0.15117-0.58577-0.19061 0.04512-0.89624 0.62678
  -5  -1  -3 12660.4 635.823   5-0.53767 0.10264-0.12539-0.02068 0.66289-0.93244
  -5  -1  -3 13421.8 620.780   8-0.05313-0.38188 0.36969-0.51577-0.90861 0.63885
   5  -1   3 12933.0 461.150  10 0.50629-0.07098 0.85127-0.99717 0.26556 0.00387
  -5  -1  -4 44266.3 1239.30   2 0.21712-0.66632-0.18161 0.03609-0.86843 0.54343
  -5  -1  -4 46175.2 1194.05   8 0.02878-0.47843 0.35806-0.50418-0.89244 0.56717
   5  -1   4 44458.7 1271.60   1 0.39425 0.05523-0.65622 0.51010-0.51876 0.84329
   5  -1   4 48571.2 996.616  10 0.50695-0.05705 0.84991-0.99579 0.27140 0.05356
  -5  -1  -5 14514.6 753.239   2 0.26951-0.73331-0.17376 0.02821-0.84316 0.46263
  -5  -1  -5 14341.7 691.530   8 0.09680-0.56109 0.34651-0.49266-0.87431 0.49353
   5  -1   5 14391.6 758.011   1 0.47389-0.00986-0.64808 0.50200-0.45247 0.83251
   5  -1   5 14327.7 593.053  10 0.50834-0.04385 0.84683-0.99269 0.28409 0.09640
  -5  -1  -6 21611.0 951.845   2 0.31033-0.78874-0.16720 0.02162-0.82144 0.38538
  -5  -1  -6 21504.6 876.022   8 0.15172-0.63065 0.33591-0.48210-0.85652 0.42022
   5  -1   6 21149.4 953.802   1 0.54483-0.06623-0.63537 0.48933-0.38680 0.82236
   5  -1   6 22779.1 812.230  10 0.51005-0.03096 0.84251-0.98835 0.30089 0.13514
  -5  -1  -7 17745.4 903.902   2 0.34147-0.83447-0.16193 0.01631-0.80364 0.31204
   5  -1   7 18744.9 937.271   1 0.60768-0.11452-0.61906 0.47306-0.32247 0.81355
  -5  -1  -7 18509.9 853.599   8 0.19493-0.68849 0.32675-0.47298-0.84050 0.34868
   5  -1   7 19019.4 799.356  10 0.51183-0.01815 0.83715-0.98297 0.32035 0.17122
  -5  -1  -8 6182.56 565.783   2 0.36453-0.87214-0.15787 0.01221-0.78973 0.24260
   5  -1   8 5698.38 542.086   1 0.66318-0.15546-0.59990 0.45395-0.25990 0.80649
  -5  -1  -8 6169.50 512.737   8 0.22797-0.73618 0.31926-0.46552-0.82702 0.27968
   5  -1   8 7234.93 530.823  10 0.51355-0.00528 0.83083-0.97663 0.34164 0.20547
   5  -1   9 8849.06 697.416   1 0.71211-0.18982-0.57850 0.43258-0.19924 0.80135
  -5  -1  -9 7401.82 643.156   2 0.38087-0.90308-0.15490 0.00921-0.77950 0.17684
  -5  -1  -9 7443.51 589.923   8 0.25232-0.77516 0.31346-0.45975-0.81639 0.21353
   5  -1   9 8820.64 620.206  10 0.51511 0.00776 0.82361-0.96939 0.36423 0.23842
   5  -1  10 6176.31 612.902   1 0.75515-0.21830-0.55528 0.40940-0.14055 0.79818
  -5  -1 -10 5601.38 588.374   2 0.39156-0.92837-0.15293 0.00720-0.77263 0.11444
  -5  -1 -10 6263.79 569.137   8 0.26925-0.80673 0.30928-0.45561-0.80864 0.15027
   5  -1  10 6460.48 568.777  10 0.51642 0.02104 0.81547-0.96124 0.38779 0.27039
  -5  -1 -11 4136.45 523.235   2 0.39745-0.94886-0.15182 0.00607-0.76879 0.05506
  -5  -1 -11 4629.08 514.899   8 0.27984-0.83196 0.30661-0.45297-0.80364 0.08976
   5  -1  11 4096.93 471.824  10 0.51743 0.03462 0.80643-0.95217 0.41209 0.30163
   5  -1  11 4667.30 558.109   1 0.79293-0.24152-0.53056 0.38472-0.08377 0.79691
   5  -1  12 1371.24 337.662   1 0.82600-0.26003-0.50457 0.35877-0.02877 0.79743
  -5  -1 -12 1457.61 313.622   8 0.28495-0.85171 0.30530-0.45170-0.80119 0.03179
  -5  -1 -12 2223.18 410.107   2 0.39922-0.96523-0.15149 0.00570-0.76762-0.00164
   5  -1  12 1272.44 289.618  10 0.51809 0.04855 0.79646-0.94218 0.43697 0.33229
  -5  -1 -13 6320.92 700.303   2 0.39739-0.97801-0.15183 0.00601-0.76883-0.05597
  -5  -1 -13 6439.27 644.501   8 0.28527-0.86666 0.30522-0.45165-0.80103-0.02388
   5  -1  13 6273.30 651.206  10 0.51837 0.06287 0.78554-0.93124 0.46231 0.36249
   5  -1  13 6854.24 718.575   1 0.85481-0.27428-0.47746 0.33170 0.02457 0.79960
  -5  -1 -14 2364.08 465.833   2 0.39237-0.98758-0.15278 0.00692-0.77211-0.10822
   5  -1  14 1960.93 394.072  10 0.51822 0.07761 0.77362-0.91930 0.48802 0.39231
   5  -1  15 1918.37 402.159  10 0.51760 0.09282 0.76067-0.90633 0.51405 0.42182
   5   0 -19 256.075 174.031   9 0.64500-0.53099-0.62227 0.62218-0.25797-0.69414
   5   0 -19-166.328 183.370   7 0.67323-0.56012-0.59332 0.59319-0.24745-0.70477
  -5   0  19 203.231 178.375  10 0.50006-0.61429 0.65069-0.65019 0.68289 0.26945
   5   0 -18 130.306 158.386   9 0.67318-0.54458-0.62096 0.62089-0.20992-0.68667
   5   0 -18 582.270 251.084   7 0.66705-0.53930-0.62646 0.62635-0.21226-0.68442
  -5   0  18 355.161 187.152  10 0.50231-0.63114 0.66068-0.66021 0.67034 0.22646
   5   0 -17 1374.97 324.857   9 0.70039-0.55719-0.61794 0.61790-0.15988-0.68119
   5   0 -17 1605.04 367.799   7 0.65922-0.51683-0.65766 0.65758-0.17687-0.66425
  -5   0  17 1669.95 364.822  10 0.50413-0.64755 0.66912-0.66867 0.65941 0.18185
   5   0 -16 4670.67 564.631   9 0.72661-0.56882-0.61303 0.61300-0.10749-0.67805
   5   0 -16 4059.26 538.773   7 0.64978-0.49275-0.68702 0.68698-0.14125-0.64433
  -5   0  16 4400.36 548.346  10 0.50554-0.66355 0.67589-0.67545 0.65040 0.13533
   5   0 -15 4389.06 526.430   9 0.75177-0.57939-0.60596 0.60595-0.05232-0.67770
  -5   0  15 5333.20 567.215  10 0.50653-0.67913 0.68082-0.68040 0.64369 0.08650
   5   0 -15 5381.04 586.071   7 0.63874-0.46706-0.71461 0.71459-0.10533-0.62470
   5   0 -14 3725.10 455.234   9 0.77573-0.58876-0.59638 0.59638 0.00617-0.68066
   5   0 -14 4468.47 524.878   7 0.62606-0.43974-0.74047 0.74048-0.06908-0.60541
  -5   0  14 3632.53 455.756  10 0.50708-0.69428 0.68365-0.68326 0.63978 0.03487
   5   0 -13 14361.2 846.888   9 0.79825-0.59668-0.58377 0.58380 0.06859-0.68756
   5   0 -13 15100.6 917.263   7 0.61172-0.41075-0.76460 0.76464-0.03242-0.58652
  -5   0  13 14199.5 836.788  10 0.50715-0.70894 0.68402-0.68365 0.63927-0.02015
  -5   0  13 15468.7 801.190   4 0.77469-0.97642 0.19468-0.19457 0.78402-0.16580
  -5   0  12 310.881 144.180   4 0.76123-0.97752 0.20927-0.20917 0.79223-0.22947
   5   0 -12 257.186 131.739   9 0.81889-0.60272-0.56747 0.56752 0.13570-0.69915
   5   0 -12 237.392 151.769   7 0.59564-0.38003-0.78701 0.78708 0.00471-0.56810
  -5   0  12 155.099 134.267  10 0.50663-0.72301 0.68135-0.68100 0.64296-0.07938
   5   0 -11 16338.4 815.186   9 0.83698-0.60622-0.54655 0.54661 0.20832-0.71625
   5   0 -11 17398.1 915.658   7 0.57775-0.34750-0.80766 0.80775 0.04237-0.55022
  -5   0  11 17582.7 828.159  10 0.50532-0.73629 0.67481-0.67447 0.65185-0.14381
  -5   0  11 18325.0 792.464   4 0.74161-0.97246 0.22957-0.22949 0.80304-0.29573
   5   0 -10 22624.6 902.444   9 0.85143-0.60608-0.51973 0.51981 0.28736-0.73976
   5   0 -10 23703.9 1019.29   7 0.55792-0.31302-0.82649 0.82660 0.08065-0.53295
  -5   0  10 23668.5 904.744  10 0.50284-0.74840 0.66308-0.66277 0.66727-0.21476
  -5   0  10 24145.2 871.127   4 0.71426-0.95967 0.25622-0.25616 0.81610-0.36424
   5   0  -9 4842.10 397.521   9 0.86055-0.60061-0.48531 0.48541 0.37360-0.77048
   5   0  -9 4234.56 418.231   7 0.53600-0.27646-0.84338 0.84353 0.11962-0.51637
  -5   0   9 4514.67 377.185  10 0.49853-0.75869 0.64416-0.64387 0.69084-0.29387
  -5   0   9 4327.20 358.878   4 0.67716-0.93714 0.28972-0.28967 0.83059-0.43418
   5   0  -8 12983.1 615.217   9 0.86170-0.58716-0.44108 0.44120 0.46746-0.80881
   5   0  -8 12884.1 693.922   7 0.51180-0.23762-0.85821 0.85838 0.15938-0.50059
  -5   0   8 12081.0 568.487  10 0.49118-0.76593 0.61480-0.61453 0.72457-0.38314
   5   0  -7 2503.37 260.715   9 0.85101-0.56189-0.38435 0.38448 0.56828-0.85411
  -5   0   7 2272.16 185.002  11 0.40728-0.69645 0.67747-0.67739 0.69862-0.41293
   5   0  -7 2478.77 301.918   7 0.48508-0.19625-0.87076 0.87096 0.20003-0.48569
  -5   0   7 2574.77 300.940   5 0.55782-0.84668 0.39813-0.39815 0.84962-0.56392
  -5   0   7 2366.68 238.008  10 0.47853-0.76788 0.56974-0.56948 0.77053-0.48464
   5   0  -6 56.5454 58.7538   9 0.82323-0.51951-0.31234 0.31249 0.67337-0.90368
  -5   0   6 43.6767 30.2000  11 0.43101-0.73481 0.55540-0.55535 0.79996-0.56981
   5   0  -6 46.5307 90.1813   7 0.45554-0.15207-0.88076 0.88099 0.24167-0.47178
  -5   0   6-7.67889 82.0904   5 0.50184-0.80531 0.37875-0.37879 0.88250-0.65233
  -5   0   5 606.645 129.548   4 0.38884-0.70705 0.48169-0.48170 0.86005-0.68545
   5   0  -5 346.117 96.1796   9 0.77222-0.45391-0.22323 0.22340 0.77667-0.95145
  -5   0   5 462.162 56.7258  11 0.44561-0.76404 0.27288-0.27287 0.94006-0.76545
  -5   0   5 286.646 107.767   5 0.42890-0.74698 0.35183-0.35189 0.91575-0.74109
  -5   0   4 5330.60 373.009   5 0.33625-0.66893 0.31533-0.31542 0.94477-0.82563
   5   0  -4 5475.32 339.438   9 0.69310-0.36019-0.11804 0.11823 0.86818-0.98744
   5   0  -4 5577.94 381.258   3 0.65397-0.32164 0.38756-0.38722 0.79917-0.91806
  -5   0   4 4948.92 335.170   4 0.27878-0.61155 0.53279-0.53281 0.84433-0.72519
   5   0  -3 19319.3 622.964   9 0.58576-0.23826-0.00246 0.00267 0.93594-0.99967
   5   0  -3 18738.1 677.824   3 0.55504-0.20805 0.37241-0.37212 0.86376-0.92713
  -5   0   3 18771.5 672.319   5 0.22292-0.57021 0.26771-0.26782 0.96309-0.89946
   5   0  -2 19689.7 689.396   3 0.44144-0.07979 0.34929-0.34904 0.91353-0.92136
  -5   0   2 18957.4 666.029   5 0.09141-0.45332 0.20883-0.20896 0.96348-0.95537
   5   0  -2 19483.9 459.247  10-0.08734 0.44965 0.26096-0.26111-0.95045 0.94224
   5   0  -2 18504.0 615.732   9 0.45783-0.09574 0.11340-0.11317 0.97116-0.97937
  -5   0   1 17021.6 623.941   5-0.05142-0.32510 0.14079-0.14094 0.94036-0.98777
   5   0  -1 17430.0 656.117   3 0.31895 0.05735 0.31910-0.31888 0.94477-0.89707
   5   0  -1 17482.6 437.436  10 0.06962 0.30728 0.50069-0.50082-0.81398 0.86131
   5   0  -1 16969.0 604.735   9 0.32311 0.05357 0.21865-0.21841 0.97339-0.92608
  -5   0   0 47451.6 1070.89   6-0.19562-0.19562 0.98000-0.98015-0.01866-0.08417
  -5   0   0 45815.6 1024.48   5-0.19557-0.19556 0.06784-0.06802 0.89240-0.99534
   5   0   0 46776.6 749.941  10 0.19575 0.19575 0.66563-0.66574-0.64307 0.74594
  -5   0  -1 12302.5 547.206   6-0.21152-0.19433 0.97653-0.97666-0.01864-0.13973
  -5   0  -1 12137.2 535.608   5-0.33097-0.07477-0.00487 0.00467 0.82326-0.98171
   5   0   1 12362.1 419.773  10 0.28324 0.12284 0.76271-0.76280-0.48613 0.64454
  -5   0  -2 17234.4 647.765   6-0.23530-0.18514 0.97078-0.97090-0.01860-0.19530
  -5   0  -2 17804.1 664.218   5-0.45057 0.03022-0.07298 0.07276 0.73981-0.95378
  -5   0  -2 18293.3 732.630   8 0.01380-0.43413 0.36037-0.36055-0.89586 0.68172
   5   0   2 18523.2 560.321  10 0.34201 0.07866 0.81726-0.81733-0.35713 0.57107
   5   0   2 18119.5 741.108   1 0.38890 0.03123-0.65656 0.65604-0.52296 0.73656
  -5   0  -2 18735.2 728.895   2 0.02591-0.44599-0.20512 0.20527-0.93732 0.72348
  -5   0  -3 26768.7 802.391   6-0.26700-0.16804 0.96209-0.96219-0.01853-0.25091
  -5   0  -3 26122.5 829.763   5-0.55136 0.11640-0.13388 0.13363 0.64933-0.91881
  -5   0  -3 26138.6 906.011   8 0.09738-0.53235 0.34640-0.34661-0.87414 0.60448
   5   0   3 26555.1 728.519  10 0.38257 0.05270 0.84798-0.84803-0.25281 0.52229
   5   0   3 25885.2 929.691   1 0.46916-0.03447-0.64873 0.64826-0.45662 0.72573
  -5   0  -3 26302.2 892.397   2 0.11323-0.54791-0.19535 0.19548-0.91029 0.64091
  -5   0  -4 11694.2 625.170   2 0.18464-0.63393-0.18616 0.18625-0.88267 0.55776
  -5   0  -4 12455.1 547.172   6-0.30662-0.14301 0.94950-0.94959-0.01842-0.30656
  -5   0  -4 12649.1 655.254   8 0.16630-0.61591 0.33290-0.33315-0.85132 0.52614
   5   0   4 11950.4 661.313   1 0.53945-0.09020-0.63653 0.63609-0.39202 0.71664
   5   0   4 12811.0 551.752  10 0.41181 0.03805 0.86529-0.86532-0.16684 0.49185
  -5   0  -4 13419.8 442.792   7 0.06170-0.51161 0.70249-0.70300-0.66756 0.34221
  -5   0  -5 8806.94 569.958   2 0.24167-0.70556-0.17801 0.17807-0.85695 0.47651
  -5   0  -5 9367.21 471.849   6-0.35421-0.11002 0.93177-0.93184-0.01823-0.36229
   5   0   5 8654.22 597.035   1 0.60091-0.13710-0.62107 0.62067-0.32971 0.70985
  -5   0  -5 8564.23 562.247   8 0.22168-0.68593 0.32072-0.32100-0.82967 0.44897
   5   0   5 8667.06 490.591  10 0.43383 0.03062 0.87462-0.87463-0.09395 0.47450
  -5   0  -6 100815. 1976.10   2 0.28626-0.76475-0.17112 0.17114-0.83447 0.39850
   5   0   6 102939. 2102.05   1 0.65468-0.17630-0.60317 0.60281-0.26988 0.70554
  -5   0  -6 100246. 1985.00   8 0.26518-0.74406 0.31030-0.31061-0.81053 0.37432
   5   0   6 107729. 1847.58  10 0.45100 0.02804 0.87888-0.87887-0.03042 0.46650
   5   0   7 17043.4 898.482   1 0.70179-0.20885-0.58342 0.58310-0.21252 0.70370
  -5   0  -7 16356.9 840.996   2 0.32038-0.81347-0.16553 0.16552-0.81582 0.32431
  -5   0  -7 17849.6 876.648   8 0.29850-0.79202 0.30178-0.30213-0.79455 0.30282
   5   0   7 18239.9 809.940  10 0.46477 0.02887 0.87967-0.87964 0.02633 0.46529
   5   0   8 1101.25 282.572   1 0.74314-0.23564-0.56223 0.56195-0.15750 0.70419
  -5   0  -8 1006.03 241.535   8 0.32322-0.83138 0.29515-0.29554-0.78193 0.23469
  -5   0  -8 1312.47 280.652   2 0.34577-0.85347-0.16118 0.16114-0.80109 0.25405
   5   0   8 1480.61 257.085  10 0.47603 0.03220 0.87792-0.87787 0.07804 0.46912
   5   0   9-92.0945 154.036   1 0.77949-0.25743-0.53989 0.53965-0.10462 0.70683
  -5   0  -9 228.508 150.556   8 0.34069-0.86349 0.29031-0.29073-0.77262 0.16986
  -5   0  -9 348.951 180.529   2 0.36390-0.88619-0.15798 0.15790-0.79012 0.18755
   5   0   9 178.887 119.913  10 0.48536 0.03747 0.87417-0.87411 0.12595 0.47675
   5   0  10 2069.85 382.104   1 0.81146-0.27483-0.51659 0.51639-0.05367 0.71140
  -5   0 -10 1859.68 325.926   8 0.35203-0.88947 0.28709-0.28755-0.76639 0.10812
  -5   0 -10 1401.19 302.234   2 0.37594-0.91284-0.15580 0.15569-0.78262 0.12451
   5   0  10 1923.65 321.145  10 0.49313 0.04428 0.86878-0.86869 0.17092 0.48732
   5   0  11 234.080 193.417   1 0.83953-0.28835-0.49244 0.49228-0.00445 0.71770
  -5   0 -11 274.892 163.583   8 0.35812-0.91020 0.28534-0.28583-0.76299 0.04920
  -5   0 -11-3.57853 138.145   2 0.38284-0.93434-0.15454 0.15440-0.77824 0.06460
   5   0  11 13.0184 84.7203  10 0.49961 0.05240 0.86193-0.86182 0.21359 0.50018
  -5   0 -12 2004.17 371.967   8 0.35967-0.92639 0.28489-0.28542-0.76211-0.00720
  -5   0 -12 1523.99 338.390   2 0.38535-0.95144-0.15408 0.15390-0.77664 0.00747
   5   0  12 1808.48 351.641  10 0.50497 0.06163 0.85377-0.85364 0.25443 0.51487
   5   0  12 1738.12 395.239   1 0.86413-0.29838-0.46753 0.46741 0.04324 0.72553
  -5   0 -13 1663.91 352.166   8 0.35724-0.93859 0.28560-0.28615-0.76348-0.06134
  -5   0 -13 1269.79 340.320   2 0.38402-0.96472-0.15432 0.15411-0.77749-0.04722
   5   0  13 1576.83 334.239  10 0.50934 0.07185 0.84437-0.84422 0.29381 0.53104
  -5   0 -14 283.364 177.321   8 0.35124-0.94723 0.28732-0.28791-0.76683-0.11351
  -5   0 -14 344.653 269.598   2 0.37933-0.97463-0.15519 0.15494-0.78048-0.09976
   5   0  14 529.157 225.276  10 0.51280 0.08298 0.83376-0.83359 0.33198 0.54840
  -5   0 -15 4556.92 617.693   8 0.34200-0.95263 0.28994-0.29057-0.77191-0.16395
  -5   0 -15 4247.84 600.863   2 0.37159-0.98149-0.15659 0.15632-0.78535-0.15042
   5   0  15 4597.19 598.853  10 0.51541 0.09497 0.82195-0.82176 0.36917 0.56675
   5   1 -19 1510.35 370.803   7 0.68079-0.56754-0.51190 0.65750-0.32537-0.62678
  -5   1  19 1520.51 364.794  10 0.51197-0.62625 0.71142-0.56508 0.59912 0.35327
   5   1 -18 504.564 223.098   7 0.67908-0.55119-0.54264 0.68826-0.29724-0.59936
  -5   1  18 796.760 260.459  10 0.51376-0.64262 0.72350-0.57717 0.57997 0.31688
  -5   1  17 139.761 156.314   4 0.79949-0.94294 0.16624-0.02036 0.76698 0.07309
   5   1 -17 416.006 204.064   7 0.67623-0.53369-0.57166 0.71732-0.26928-0.57177
  -5   1  17 174.479 154.493  10 0.51515-0.65861 0.73437-0.58806 0.56187 0.27945
  -5   1  16 1369.24 324.758   4 0.80153-0.95955 0.16379-0.01793 0.76545 0.01917
   5   1 -16 1327.34 309.387   7 0.67230-0.51512-0.59907 0.74475-0.24150-0.54400
  -5   1  16 1321.10 306.475  10 0.51621-0.67427 0.74402-0.59773 0.54502 0.24076
  -5   1  15 489.216 207.375   4 0.80113-0.97371 0.16427-0.01842 0.76575-0.03659
   5   1 -15 954.565 280.756   7 0.66738-0.49555-0.62493 0.77064-0.21392-0.51604
  -5   1  15 789.318 232.624  10 0.51699-0.68963 0.75242-0.60616 0.52972 0.20053
   5   1 -14 8376.51 640.521   9 0.69928-0.51221-0.61810 0.76399-0.16200-0.51245
   5   1 -14 8223.94 724.016   7 0.66152-0.47505-0.64932 0.79505-0.18656-0.48785
  -5   1  14 8661.93 678.133  10 0.51752-0.70476 0.75950-0.61325 0.51632 0.15839
  -5   1  14 8639.56 692.109   4 0.79801-0.98515 0.16799-0.02216 0.76807-0.09436
   5   1 -13 7001.82 561.487   9 0.72569-0.52402-0.61325 0.75915-0.10942-0.50951
   5   1 -13 6557.33 632.372   7 0.65480-0.45369-0.67227 0.81804-0.15945-0.45942
  -5   1  13 6133.63 543.370  10 0.51786-0.71969 0.76512-0.61890 0.50532 0.11385
  -5   1  13 6435.66 573.897   4 0.79176-0.99345 0.17534-0.02953 0.77258-0.15433
   5   1 -12 8703.22 589.419   9 0.75175-0.53549-0.60597 0.75189-0.05238-0.51102
   5   1 -12 7804.78 660.467   7 0.64727-0.43151-0.69384 0.83963-0.13262-0.43071
  -5   1  12 7115.91 555.158  10 0.51805-0.73447 0.76907-0.62286 0.49739 0.06624
  -5   1  12 6367.86 546.851   4 0.78180-0.99806 0.18675-0.04095 0.77940-0.21660
  -5   1  11 187.476 136.775   4 0.76738-0.99820 0.20267-0.05689 0.78857-0.28122
   5   1 -11 197.310 99.8520   9 0.77738-0.54653-0.59559 0.74153 0.01046-0.51833
   5   1 -11 84.5764 130.466   7 0.63899-0.40859-0.71404 0.85986-0.10611-0.40167
  -5   1  11 99.0117 90.4599  10 0.51812-0.74914 0.77098-0.62480 0.49349 0.01461
   5   1 -10 21106.0 802.522   9 0.80232-0.55687-0.58099 0.72695 0.08092-0.53327
   5   1 -10 20977.6 989.067   7 0.63003-0.38498-0.73290 0.87875-0.07998-0.37225
  -5   1  10 20585.7 823.209  10 0.51810-0.76370 0.77025-0.62409 0.49497-0.04242
  -5   1  10 19999.1 893.942   4 0.74749-0.99287 0.22360-0.07783 0.79994-0.34804
   5   1  -9 4158.12 334.754   9 0.82583-0.56579-0.56044 0.70641 0.16150-0.55833
   5   1  -9 3861.86 414.321   7 0.62046-0.36077-0.75044 0.89631-0.05430-0.34238
  -5   1   9 4019.48 342.303  10 0.51789-0.77809 0.76583-0.61969 0.50390-0.10688
  -5   1   9 3949.18 389.122   4 0.72087-0.98081 0.24994-0.10419 0.81314-0.41670
   5   1  -8 2472.62 243.510   9 0.84628-0.57165-0.53107 0.67706 0.25548-0.59678
   5   1  -8 2579.62 330.341   7 0.61037-0.33604-0.76664 0.91254-0.02917-0.31196
  -5   1   8 2422.97 244.163  10 0.51725-0.79204 0.75575-0.60962 0.52348-0.18200
  -5   1   8 2462.37 296.651   4 0.68601-0.96051 0.28199-0.13625 0.82744-0.48645
   5   1  -7 7425.53 383.767   9 0.86009-0.57087-0.48826 0.63427 0.36674-0.65252
   5   1  -7 7676.82 526.447   7 0.59987-0.31090-0.78152 0.92744-0.00472-0.28087
  -5   1   7 7306.35 379.723  10 0.51536-0.80474 0.73609-0.58999 0.55891-0.27296
  -5   1   7 6139.57 445.715   4 0.64121-0.93027 0.31970-0.17398 0.84161-0.55607
   5   1  -6 3297.72 240.181   9 0.85985-0.55603-0.42479 0.57081 0.49837-0.72863
   5   1  -6 3514.86 328.876   3 0.74162-0.43855 0.39544-0.24936 0.71836-0.94842
   5   1  -6 3411.26 338.604   7 0.58909-0.28547-0.79504 0.94099 0.01889-0.24893
  -5   1   6 3337.95 315.534   5 0.58336-0.88676 0.40654-0.26076 0.83215-0.60191
  -5   1   6 3577.13 237.876  10 0.50977-0.81375 0.69818-0.55210 0.61906-0.38865
  -5   1   6 3602.93 335.390   4 0.58481-0.88843 0.36258-0.21687 0.85386-0.62377
   5   1  -5 182130. 1647.71   9 0.83173-0.51332-0.33102 0.47706 0.64819-0.82292
   5   1  -5 178269. 2238.46   3 0.66467-0.34695 0.38884-0.24280 0.79068-0.96521
   5   1  -5 176375. 2261.91   7 0.57822-0.25995-0.80717 0.95316 0.04143-0.21593
  -5   1   5 183187. 1437.21  10 0.49246-0.81103 0.61970-0.47364 0.71917-0.54429
  -5   1   5 176826. 2230.64   4 0.51553-0.83371 0.40944-0.26374 0.86182-0.68719
   5   1  -4 8154.87 337.007   9 0.75603-0.42302-0.19949 0.34555 0.80000-0.91921
  -5   1   4 7702.66 422.069   5 0.42415-0.75677 0.35002-0.20428 0.91758-0.79838
   5   1  -4 7898.79 456.235   7 0.56749-0.23459-0.81787 0.96388 0.06257-0.18152
   5   1  -3 95744.3 1148.84   9 0.61960-0.27201-0.03663 0.18271 0.91932-0.98300
  -5   1   3 99028.4 1428.36   5 0.30356-0.65079 0.30192-0.15621 0.95188-0.88820
   5   1  -3 97203.9 1498.28   7 0.55728-0.20973-0.82703 0.97307 0.08183-0.14523
  -5   1   2 22180.9 655.721   5 0.15335-0.51519 0.23703-0.09134 0.96595-0.95779
   5   1  -2 22995.4 684.150   7 0.54812-0.18592-0.83450 0.98056 0.09847-0.10632
   5   1  -2 23980.5 684.050  10-0.13476 0.49702 0.18113-0.03543-0.97529 0.96713
   5   1  -2 22683.7 580.561   9 0.43711-0.07492 0.13057 0.01553 0.97354-0.98170
  -5   1   1 9474.40 422.180   5-0.01914-0.35731 0.15653-0.01086 0.94769-0.99504
   5   1  -1 9278.72 403.690   7 0.54083-0.16399-0.83997 0.98607 0.11130-0.06361
   5   1  -1 10148.1 446.186  10-0.04244 0.41930 0.33331-0.18760-0.91978 0.96716
   5   1  -1 9275.91 459.746   1 0.38149-0.00527-0.65698 0.80202-0.52872 0.57587
   5   1  -1 9545.97 395.402   9 0.24749 0.12930 0.27186-0.12574 0.96241-0.91505
  -5   1   0 41201.8 1046.00   6 0.14547-0.53666 0.98773-0.84203-0.01785-0.08502
  -5   1   0 40049.9 857.200   5-0.19783-0.19323 0.06666 0.07899 0.89145-0.99432
   5   1   0 40710.6 775.651   7 0.53680-0.14532-0.84283 0.98895 0.11825-0.01501
   5   1   0 39759.7 994.080   1 0.46436-0.07358-0.64938 0.79446-0.46080 0.56346
   5   1   0 41707.0 922.601  10 0.04789 0.34356 0.46970-0.32396-0.83776 0.94068
  -5   1   0 41820.3 1004.19   7 0.04415-0.43534 0.71648-0.57114-0.65982 0.55673
  -5   1  -1 2419.58 261.352   6 0.13034-0.53613 0.99006-0.84434-0.01793-0.14048
  -5   1  -1 2325.38 217.234   5-0.36379-0.04189-0.02317 0.16879 0.80263-0.96102
  -5   1  -1 2172.14 264.887   8 0.01982-0.42547 0.35945-0.21371-0.89451 0.73598
   5   1   1 2589.33 281.516   1 0.53476-0.12942-0.63752 0.78264-0.39653 0.55472
   5   1   1 2296.54 168.745   7 0.53858-0.13246-0.84158 0.98773 0.11519 0.04360
   5   1   1 2256.53 225.479  10 0.12948 0.27656 0.58226-0.43650-0.74012 0.89858
  -5   1  -1 2483.02 248.359   7 0.10415-0.50998 0.66658-0.52127-0.68449 0.52585
  -5   1  -2 6436.44 415.502   6 0.10762-0.52801 0.99309-0.84735-0.01805-0.19590
  -5   1  -2 7146.46 380.110   5-0.50387 0.08359-0.10473 0.25033 0.69457-0.90848
   5   1   2 6705.27 464.241   1 0.59484-0.17493-0.62282 0.76798-0.33613 0.54983
  -5   1  -2 6998.52 476.322   8 0.10805-0.52834 0.34443-0.19873-0.87090 0.65685
   5   1   2 6931.17 248.806   7 0.55157-0.13080-0.83177 0.97794 0.09227 0.12206
   5   1   2 6844.23 403.037  10 0.19920 0.22144 0.66976-0.52398-0.63755 0.85154
  -5   1  -2 6904.28 406.376   7 0.16058-0.58105 0.61415-0.46887-0.70300 0.48881
  -5   1  -3 13279.1 596.239   6 0.07712-0.51210 0.99627-0.85052-0.01819-0.25129
   5   1   3 12300.6 653.017   1 0.64647-0.21201-0.60619 0.75140-0.27937 0.54858
  -5   1  -3 13746.6 693.740   8 0.18119-0.61612 0.32974-0.18408-0.84579 0.57622
   5   1   3 13063.5 583.961  10 0.25688 0.17834 0.73523-0.58943-0.53731 0.80684
  -5   1  -3 13814.3 573.985   7 0.21186-0.64698 0.56164-0.41639-0.71567 0.44593
  -5   1  -3 12514.7 603.471   2 0.02150-0.45627-0.20557 0.35130-0.93849 0.66920
  -5   1  -4 46281.9 1113.29   6 0.03855-0.48813 0.99885-0.85308-0.01835-0.30668
   5   1   4 46104.9 1312.05   1 0.69122-0.24219-0.58822 0.73346-0.22585 0.55058
  -5   1  -4 45483.4 1301.45   8 0.24036-0.68993 0.31634-0.17071-0.82168 0.49660
   5   1   4 43350.1 1121.05  10 0.30399 0.14583 0.78311-0.63729-0.44311 0.76818
  -5   1  -4 47604.9 1080.55   7 0.25688-0.70664 0.51147-0.36625-0.72332 0.39803
  -5   1  -4 44984.2 1173.43   2 0.10210-0.55147-0.19669 0.34239-0.91414 0.58932
  -5   1  -5 14025.8 690.748   2 0.16760-0.63158-0.18845 0.33412-0.88972 0.50937
   5   1   5 14711.0 784.437   1 0.73027-0.26668-0.56926 0.71454-0.17515 0.55540
  -5   1  -5 15513.2 643.670   6-0.00845-0.45572 0.99983-0.85404-0.01849-0.36207
   5   1   5 14833.4 693.227  10 0.34240 0.12201 0.81758-0.67175-0.35618 0.73679
  -5   1  -5 13598.7 747.645   8 0.28724-0.75145 0.30471-0.15911-0.80008 0.41947
  -5   1  -5 14838.3 615.649   7 0.29505-0.75945 0.46572-0.32052-0.72706 0.34623
   5   1   6 22003.2 1007.61   1 0.76459-0.28644-0.54952 0.69484-0.12687 0.56264
  -5   1  -6 20789.6 876.265   2 0.21960-0.69817-0.18125 0.32689-0.86730 0.43141
  -5   1  -6 23144.3 791.497   6-0.06441-0.41437 0.99790-0.85210-0.01861-0.41748
  -5   1  -6 21404.4 973.001   8 0.32362-0.80246 0.29504-0.14948-0.78173 0.34561
  -5   1  -6 23163.9 783.418   7 0.32629-0.80534 0.42588-0.28071-0.72808 0.29171
   5   1   6 21946.5 892.055  10 0.37389 0.10512 0.84199-0.69613-0.27643 0.71257
  -5   1  -7 17519.9 842.773   2 0.25997-0.75314-0.17524 0.32084-0.84798 0.35656
  -5   1  -7 20838.4 743.182   6-0.12999-0.36337 0.99133-0.84551-0.01868-0.47296
  -5   1  -7 19034.2 950.811   8 0.35113-0.84461 0.28735-0.14182-0.76689 0.27526
  -5   1  -7 20306.3 750.821   7 0.35089-0.84458 0.39288-0.24774-0.72750 0.23558
   5   1   7 19268.2 883.103  10 0.39989 0.09370 0.85882-0.71294-0.20317 0.69485
   5   1   7 17448.8 934.316   1 0.79489-0.30218-0.52915 0.67451-0.08066 0.57194
  -5   1  -8 6579.78 554.032   2 0.29054-0.79831-0.17043 0.31600-0.83220 0.28525
   5   1   8 6665.90 549.778  10 0.42156 0.08662 0.86988-0.72398-0.13557 0.68278
  -5   1  -8 6889.93 605.931   8 0.37119-0.87932 0.28152-0.13603-0.75553 0.20838
   5   1   8 6179.46 587.998   1 0.82174-0.31446-0.50820 0.65360-0.03620 0.58300
  -5   1  -9 8221.77 637.085   2 0.31290-0.83528-0.16678 0.31231-0.82002 0.21753
  -5   1  -9 7531.87 650.568   8 0.38498-0.90774 0.27741-0.13195-0.74746 0.14479
   5   1   9 8020.41 636.162  10 0.43976 0.08302 0.87643-0.73052-0.07278 0.67553
   5   1   9 8689.95 721.285   1 0.84555-0.32371-0.48672 0.63216 0.00677 0.59555
  -5   1 -10 6824.75 610.018   2 0.32838-0.86536-0.16418 0.30968-0.81125 0.15324
  -5   1 -10 6221.65 615.085   8 0.39345-0.93085 0.27484-0.12942-0.74239 0.08421
   5   1  10 6124.58 586.236  10 0.45512 0.08225 0.87940-0.73346-0.01406 0.67235
   5   1  10 7050.79 688.586   1 0.86666-0.33026-0.46471 0.61019 0.04845 0.60938
  -5   1 -11 4061.90 508.065   2 0.33805-0.88964-0.16252 0.30799-0.80564 0.09209
  -5   1 -11 4322.72 542.554   8 0.39734-0.94937 0.27365-0.12826-0.74004 0.02634
   5   1  11 4032.70 487.189  10 0.46814 0.08382 0.87941-0.73345 0.04124 0.67258
  -5   1 -12 1477.73 342.693   8 0.39724-0.96392 0.27368-0.12832-0.74009-0.02912
  -5   1 -12 1382.39 320.133   2 0.34277-0.90895-0.16170 0.30714-0.80287 0.03379
   5   1  12 1336.34 325.451  10 0.47919 0.08737 0.87692-0.73094 0.09366 0.67570
  -5   1 -13 5982.18 652.804   2 0.34319-0.92397-0.16163 0.30703-0.80262-0.02200
  -5   1 -13 6168.39 686.451   8 0.39362-0.97494 0.27479-0.12947-0.74228-0.08245
   5   1  13 6142.67 669.578  10 0.48853 0.09262 0.87227-0.72627 0.14364 0.68125
  -5   1 -14 2222.77 434.382   2 0.33984-0.93522-0.16221 0.30758-0.80460-0.07555
  -5   1 -14 1950.99 410.835   8 0.38684-0.98279 0.27685-0.13156-0.74636-0.13389
   5   1  14 2116.07 412.944  10 0.49638 0.09937 0.86568-0.71966 0.19157 0.68886
  -5   1 -15 2473.83 451.369   8 0.37715-0.98774 0.27976-0.13451-0.75207-0.18369
  -5   1 -15 2517.03 458.077   2 0.33310-0.94309-0.16337 0.30870-0.80853-0.12716
   5   1  15 1678.91 388.668  10 0.50289 0.10745 0.85730-0.71126 0.23776 0.69821
  -5   2  18-60.2753 138.360   4 0.79038-0.91924 0.17694 0.11466 0.77355 0.12201
   5   2 -18-78.7821 141.860   7 0.68047-0.55243-0.44754 0.73889-0.37991-0.51662
  -5   2  18 30.8683 101.221  10 0.51811-0.64702 0.77054-0.47837 0.49438 0.40252
  -5   2  17 1278.04 340.872   4 0.79411-0.93754 0.17259 0.11900 0.77090 0.06921
   5   2 -17 1201.63 317.345   7 0.68119-0.53850-0.47325 0.76463-0.35879-0.48219
  -5   2  17 940.295 260.407  10 0.51837-0.66187 0.78265-0.49050 0.46870 0.37266
  -5   2  16 584.615 248.981   4 0.79579-0.95377 0.17062 0.12095 0.76969 0.01496
   5   2 -16 117.993 153.084   7 0.68116-0.52383-0.49726 0.78867-0.33828-0.44716
  -5   2  16 231.158 151.561  10 0.51820-0.67630 0.79375-0.50162 0.44343 0.34240
  -5   2  15 2497.03 431.328   4 0.79526-0.96780 0.17124 0.12031 0.77008-0.04088
   5   2 -15 1692.56 370.524   7 0.68048-0.50851-0.51961 0.81104-0.31846-0.41143
  -5   2  15 2481.19 388.655  10 0.51764-0.69033 0.80388-0.51176 0.41865 0.31165
   5   2 -14 5536.17 626.945   7 0.67926-0.49264-0.54031 0.83177-0.29943-0.37492
  -5   2  14 5723.79 553.887  10 0.51673-0.70401 0.81306-0.52096 0.39447 0.28029
  -5   2  14 4915.49 566.302   4 0.79231-0.97941 0.17470 0.11684 0.77219-0.09844
  -5   2  13 1324.36 309.419   4 0.78662-0.98829 0.18127 0.11025 0.77615-0.15786
   5   2 -13 1226.15 297.850   7 0.67759-0.47633-0.55936 0.85085-0.28131-0.33748
  -5   2  13 1278.57 250.272  10 0.51552-0.71739 0.82131-0.52924 0.37105 0.24817
   5   2 -12 7672.44 688.488   7 0.67560-0.45969-0.57672 0.86823-0.26427-0.29898
  -5   2  12 7821.71 574.664  10 0.51406-0.73053 0.82866-0.53661 0.34861 0.21507
  -5   2  12 6027.43 582.838   4 0.77777-0.99400 0.19126 0.10025 0.78205-0.21920
   5   2 -11 7973.38 673.069   7 0.67338-0.44284-0.59233 0.88387-0.24847-0.25923
  -5   2  11 8416.32 560.165  10 0.51244-0.74349 0.83509-0.54306 0.32747 0.18067
  -5   2  11 8525.91 667.926   4 0.76521-0.99600 0.20501 0.08648 0.78987-0.28249
  -5   2  10 37962.4 1095.61   6 0.15736-0.40253 0.98572-0.69432-0.01778 0.47024
   5   2 -10 32033.6 1280.13   7 0.67109-0.42590-0.60608 0.89765-0.23416-0.21799
  -5   2  10 36378.3 1074.98  10 0.51073-0.75638 0.84057-0.54856 0.30810 0.14451
  -5   2  10 32762.6 1252.84   4 0.74822-0.99357 0.22285 0.06863 0.79954-0.34761
  -5   2   9 15208.3 700.122   6 0.21218-0.47194 0.97439-0.68297-0.01742 0.41435
   5   2  -9 14956.0 847.889   7 0.66885-0.40902-0.61784 0.90944-0.22163-0.17498
  -5   2   9 15937.8 663.190  10 0.50908-0.76933 0.84503-0.55304 0.29124 0.10583
  -5   2   9 14508.1 810.915   4 0.72592-0.98583 0.24507 0.04639 0.81080-0.41432
  -5   2   8 8503.36 527.319   6 0.25834-0.53270 0.96217-0.67073-0.01707 0.35846
   5   2  -8 8214.92 602.792   7 0.66685-0.39237-0.62737 0.91900-0.21125-0.12981
  -5   2   8 9412.33 468.796  10 0.50770-0.78253 0.84830-0.55633 0.27811 0.06343
  -5   2   8 7980.17 585.408   4 0.69727-0.97174 0.27192 0.01953 0.82316-0.48213
   5   2  -7 21329.6 837.557   3 0.77492-0.48645 0.39648-0.10469 0.67931-0.96501
   5   2  -7 23530.2 969.874   7 0.66526-0.37614-0.63436 0.92602-0.20351-0.08200
  -5   2   7 23453.4 670.795  10 0.50690-0.79633 0.85002-0.55807 0.27092 0.01507
  -5   2   7 22425.5 938.615   4 0.66106-0.95009 0.30343-0.01200 0.83587-0.55029
  -5   2   6 366.718 165.763   4 0.61604-0.91963 0.33942-0.04800 0.84778-0.61766
   5   2  -6 243.717 118.323   3 0.70732-0.40419 0.39313-0.10138 0.75327-0.98343
   5   2  -6 606.704 169.579   7 0.66431-0.36055-0.63834 0.93002-0.19906-0.03091
  -5   2   6 397.138 84.9555  10 0.50726-0.81128 0.84926-0.55733 0.27413-0.04366
   5   2  -5 12498.1 620.626   3 0.62586-0.30807 0.38382-0.09211 0.81993-0.99457
  -5   2   5 12723.2 559.670   5 0.56790-0.88584 0.40148-0.10991 0.84292-0.66814
   5   2  -5 12101.3 630.679   7 0.66425-0.34584-0.63859 0.93030-0.19878 0.02436
  -5   2   5 13058.9 374.180  10 0.50980-0.82841 0.84317-0.55126 0.29839-0.12346
  -5   2   5 12877.5 676.974   4 0.56107-0.87922 0.37931-0.08790 0.85740-0.68272
   5   2  -4 3736.72 338.708   7 0.66534-0.33229-0.63402 0.92575-0.20390 0.08502
   5   2  -4 3799.67 234.240   1 0.57307-0.24076-0.62868 0.91929-0.35868 0.23938
   5   2  -4 3282.73 321.145   3 0.53194-0.19949 0.36815-0.07648 0.87576-0.99486
  -5   2   4 3290.65 344.529   4 0.49528-0.82799 0.42208-0.13068 0.86286-0.74364
  -5   2   4 3523.40 277.023   5 0.47502-0.80757 0.36905-0.07750 0.89590-0.77664
   5   2  -3 10883.9 431.710   1 0.62271-0.27584-0.61435 0.90499-0.30611 0.24233
   5   2  -3 10348.4 559.653   3 0.42870-0.08159 0.34638-0.05475 0.91777-0.98135
  -5   2   3 9991.50 433.268   5 0.34291-0.69007 0.31803-0.02650 0.94313-0.87938
   5   2  -3 10267.4 521.265   7 0.66782-0.32012-0.62287 0.91463-0.21618 0.15285
  -5   2   3 10443.7 590.344   4 0.41846-0.76573 0.46618-0.17481 0.86214-0.79838
   5   2  -2 14570.2 536.624   1 0.66343-0.30199-0.59981 0.89049-0.25961 0.25135
   5   2  -2 13994.7 571.917   7 0.67177-0.30943-0.60217 0.89397-0.23827 0.23049
  -5   2   2 13821.5 476.961   5 0.16364-0.52542 0.24163 0.04988 0.96591-0.95768
   5   2  -2 13294.4 635.163   3 0.32081 0.04097 0.31959-0.02800 0.94444-0.95249
   5   2  -2 13871.8 634.614  10-0.12827 0.49049 0.19228 0.09927-0.97236 0.96426
  -5   2   2 13697.1 677.194   7 0.05099-0.41274 0.71109-0.41997-0.66289 0.67096
  -5   2   2 13784.4 669.515   4 0.33121-0.69305 0.50968-0.21832 0.85331-0.84500
   5   2  -2 13944.1 327.502   9 0.51748-0.15520 0.06167 0.23031 0.95950-0.96762
   5   2  -1 3546.92 291.655   1 0.69812-0.32213-0.58511 0.87583-0.21718 0.26443
  -5   2   1 3296.15 220.209   5-0.05750-0.31889 0.13780 0.15369 0.93884-0.98613
   5   2  -1 3400.02 264.174   7 0.67682-0.29983-0.56659 0.85841-0.27427 0.32204
   5   2  -1 3599.00 326.313  10-0.06294 0.43976 0.30066-0.00909-0.93463 0.98206
  -5   2   1 3537.31 350.197   7 0.10527-0.48167 0.66559-0.37450-0.68490 0.63743
  -5   2   1 3085.63 323.073   4 0.23518-0.61157 0.55040-0.25905 0.83489-0.88203
   5   2   0 58542.3 1225.24   1 0.72850-0.33794-0.57020 0.86096-0.17755 0.28032
  -5   2   0 62488.9 919.637   5-0.29176-0.09924 0.01663 0.27483 0.84586-0.94867
  -5   2   0 57306.8 1324.71   8-0.03066-0.36031 0.36674-0.07510-0.90479 0.80186
   5   2   0 61368.6 1002.81   7 0.68099-0.28936-0.50551 0.79736-0.33104 0.43435
   5   2   0 58965.9 1313.81  10 0.00334 0.38807 0.40396-0.11238-0.88157 0.98454
  -5   2   0 59546.4 1381.46   7 0.15647-0.54751 0.61815-0.32709-0.70181 0.59878
   5   2   1 9412.34 526.538   1 0.75559-0.35047-0.55502 0.84582-0.13992 0.29821
  -5   2  -1 10076.2 369.393   5-0.49723 0.09162-0.10073 0.39216 0.70051-0.85884
  -5   2  -1 9657.60 563.674   8 0.06523-0.47085 0.35208-0.06047-0.88326 0.72481
   5   2   1 10282.8 352.681   7 0.67671-0.27044-0.39457 0.68645-0.42088 0.57974
   5   2   1 9177.74 531.747  10 0.06766 0.33834 0.49792-0.20632-0.81619 0.97470
  -5   2  -1 10568.5 587.949   7 0.20365-0.60934 0.57037-0.27933-0.71391 0.55535
  -5   2  -2 34111.8 1095.34   8 0.14597-0.56622 0.33707-0.04549-0.85852 0.64455
   5   2   2 33021.0 1024.98  10 0.12778 0.29282 0.58001-0.28838-0.74240 0.95645
  -5   2  -2 33708.5 1052.32   7 0.24611-0.66644 0.52383-0.23282-0.72180 0.50768
   5   2   2 32392.6 1027.37   1 0.78005-0.36037-0.53951 0.83036-0.10377 0.31757
  -5   2  -3 9080.05 592.299   8 0.21230-0.64719 0.32287-0.03132-0.83354 0.56407
   5   2   3 9623.64 600.199   1 0.80233-0.36808-0.52365 0.81453-0.06871 0.33803
   5   2   3 8784.46 546.537  10 0.18235 0.25283 0.64941-0.35776-0.66407 0.93365
  -5   2  -3 9518.33 568.025   7 0.28344-0.71841 0.47996-0.18898-0.72620 0.45653
  -5   2  -3 9165.22 507.379   2-0.13385-0.30101-0.21883 0.51018-0.96787 0.69868
  -5   2  -4 2459.79 292.390   6 0.29305-0.74257 0.95129-0.65967-0.01678-0.30829
  -5   2  -4 2593.33 334.288   8 0.26574-0.71527 0.31016-0.01865-0.81027 0.48527
   5   2   4 2404.37 304.008  10 0.23090 0.21888 0.70659-0.41492-0.58435 0.90947
  -5   2  -4 2306.23 293.645   7 0.31547-0.76509 0.43993-0.14898-0.72794 0.40274
   5   2   4 2667.80 352.737   1 0.82271-0.37391-0.50738 0.79830-0.03451 0.35934
  -5   2  -4 2663.10 292.440   2-0.04146-0.40800-0.21155 0.50287-0.95318 0.62845
  -5   2  -5 6174.36 455.264   6 0.25451-0.71863 0.96328-0.67163-0.01710-0.36350
  -5   2  -5 5010.08 477.733   8 0.30801-0.77218 0.29926-0.00779-0.78977 0.40926
  -5   2  -5 5722.80 452.811   7 0.34230-0.80656 0.40458-0.11365-0.72785 0.34710
   5   2   5 6176.92 499.642  10 0.27351 0.19086 0.75275-0.46107-0.50547 0.88612
   5   2   5 5181.36 495.127   1 0.84142-0.37805-0.49067 0.78163-0.00097 0.38132
  -5   2  -5 5326.53 424.669   2 0.03621-0.50027-0.20405 0.49533-0.93451 0.55424
  -5   2  -6 23743.0 885.439   6 0.20824-0.68696 0.97532-0.68366-0.01745-0.41869
  -5   2  -6 22106.4 1032.84   8 0.34080-0.81961 0.29028 0.00116-0.77256 0.33653
  -5   2  -6 23893.2 940.985   7 0.36416-0.84306 0.37445-0.08355-0.72665 0.29034
   5   2   6 23531.8 1007.97  10 0.31062 0.16834 0.78938-0.49767-0.42882 0.86502
   5   2   6 22114.6 1043.26   1 0.85859-0.38066-0.47351 0.76451 0.03205 0.40382
  -5   2  -6 24873.9 939.919   2 0.09963-0.57829-0.19698 0.48823-0.91498 0.47918
  -5   2  -7 18166.1 835.402   2 0.15017-0.64343-0.19074 0.48195-0.89663 0.40530
  -5   2  -7 19055.9 788.654   6 0.15347-0.64679 0.98640-0.69472-0.01780-0.47388
  -5   2  -7 17179.0 951.880   8 0.36560-0.85905 0.28317 0.00824-0.75874 0.26720
  -5   2  -7 18824.5 856.643   7 0.38138-0.87493 0.34982-0.05895-0.72493 0.23308
   5   2   7 15974.5 863.568  10 0.34283 0.15072 0.81794-0.52621-0.35515 0.84688
   5   2   7 15888.6 926.467   1 0.87433-0.38184-0.45586 0.74690 0.06463 0.42675
  -5   2  -8 220.719 153.265   8 0.38367-0.89175 0.27781 0.01357-0.74824 0.20118
  -5   2  -8 5.91611 112.809   2 0.18950-0.69736-0.18549 0.47668-0.88061 0.33375
   5   2   8 91.1843 99.2491  10 0.37076 0.13739 0.83975-0.54800-0.28475 0.83201
  -5   2  -8 74.1999 69.8714   7 0.39432-0.90252 0.33075-0.03991-0.72317 0.17578
  -5   2  -9 3206.55 402.545   2 0.21927-0.74173-0.18130 0.47245-0.86745 0.26505
  -5   2  -9 4069.13 510.964   8 0.39602-0.91875 0.27405 0.01729-0.74083 0.13826
   5   2   9 3661.13 451.714  10 0.39498 0.12776 0.85591-0.56414-0.21762 0.82042
  -5   2 -10-19.9737 121.206   8 0.40350-0.94086 0.27174 0.01956-0.73626 0.07817
  -5   2 -10 117.625 141.691   2 0.24093-0.77799-0.17812 0.46924-0.85730 0.19937
   5   2  10 417.124 176.543  10 0.41599 0.12134 0.86734-0.57555-0.15361 0.81195
  -5   2 -11 660.044 230.903   8 0.40676-0.95876 0.27073 0.02054-0.73425 0.02064
  -5   2 -11 186.725 152.682   2 0.25571-0.80737-0.17589 0.46697-0.85010 0.13663
   5   2  11 390.909 189.626  10 0.43424 0.11768 0.87475-0.58295-0.09251 0.80639
  -5   2 -12 4670.80 544.309   2 0.26461-0.83088-0.17452 0.46557-0.84565 0.07665
  -5   2 -12 3869.54 557.018   8 0.40632-0.97295 0.27087 0.02037-0.73452-0.03460
   5   2  12 5271.97 622.386  10 0.45007 0.11644 0.87873-0.58690-0.03404 0.80345
  -5   2 -13 4590.26 627.148   8 0.40258-0.98386 0.27203 0.01917-0.73683-0.08781
   5   2  13 5014.54 626.542  10 0.46379 0.11732 0.87971-0.58786 0.02207 0.80288
  -5   2 -14 496.493 256.436   8 0.39587-0.99178 0.27410 0.01706-0.74093-0.13923
   5   2  14 860.201 276.568  10 0.47562 0.12008 0.87803-0.58616 0.07607 0.80441
  -5   3  17 1146.61 344.892   4 0.77582-0.91922 0.19343 0.24386 0.78330 0.05684
   5   3 -17 625.994 240.587   7 0.67351-0.53068-0.36608 0.80318-0.44160-0.39931
  -5   3  16 1864.49 420.780   4 0.77694-0.93489 0.19219 0.24509 0.78258 0.00211
   5   3 -16 2100.96 439.957   7 0.67583-0.51836-0.38604 0.82317-0.42718-0.35818
  -5   3  15 3012.42 501.909   4 0.77593-0.94845 0.19331 0.24395 0.78323-0.05399
   5   3 -15 3616.79 549.128   7 0.67760-0.50548-0.40406 0.84122-0.41378-0.31604
  -5   3  14 969.833 307.500   4 0.77261-0.95969 0.19697 0.24028 0.78533-0.11155
   5   3 -14 793.945 287.172   7 0.67889-0.49212-0.42009 0.85728-0.40155-0.27272
  -5   3  13 1369.27 323.113   4 0.76672-0.96836 0.20338 0.23385 0.78896-0.17063
   5   3 -13 1772.89 384.588   7 0.67979-0.47838-0.43404 0.87126-0.39067-0.22806
  -5   3  12 3155.84 457.461   4 0.75791-0.97411 0.21277 0.22444 0.79415-0.23127
   5   3 -12 2846.46 444.573   7 0.68039-0.46434-0.44578 0.88303-0.38132-0.18185
  -5   3  11 1647.11 339.049   4 0.74575-0.97651 0.22537 0.21183 0.80087-0.29344
   5   3 -11 1706.42 349.898   7 0.68076-0.45006-0.45513 0.89240-0.37377-0.13386
   5   3 -10 3697.13 479.399   7 0.68096-0.43562-0.46182 0.89912-0.36828-0.08380
  -5   3  10 3715.89 475.441   4 0.72968-0.97500 0.24142 0.19577 0.80901-0.35703
   5   3  -9 5523.09 552.254   7 0.68105-0.42107-0.46553 0.90285-0.36523-0.03131
  -5   3   9 5680.86 564.153   4 0.70904-0.96892 0.26110 0.17607 0.81835-0.42183
   5   3  -8 9312.44 680.661   7 0.68106-0.40643-0.46577 0.90313-0.36502 0.02403
  -5   3   8 9528.77 699.280   4 0.68306-0.95750 0.28458 0.15258 0.82851-0.48744
  -5   3   7 123.845 143.811   4 0.65086-0.93985 0.31188 0.12526 0.83892-0.55331
   5   3  -7 87.3082 88.0374   3 0.76966-0.48112 0.39640 0.04105 0.68587-0.97167
   5   3  -7 294.027 142.971   7 0.68097-0.39170-0.46193 0.89931-0.36819 0.08275
   5   3  -6 10858.9 611.743   3 0.70172-0.39852 0.39265 0.04477 0.75854-0.98881
   5   3  -6 10054.6 651.815   7 0.68069-0.37678-0.45313 0.89054-0.37539 0.14550
  -5   3   6 10120.7 684.653   4 0.61149-0.91505 0.34288 0.09425 0.84877-0.61861
  -5   3   5 33024.8 1197.63   4 0.56407-0.88219 0.37723 0.05988 0.85700-0.68229
   5   3  -5 32992.9 1047.34   3 0.62152-0.30367 0.38320 0.05418 0.82296-0.99770
  -5   3   5 36418.2 922.507   5 0.58016-0.89804 0.40551 0.03189 0.83443-0.65959
   5   3  -5 32724.5 1116.29   7 0.68002-0.36146-0.43815 0.87559-0.38742 0.21307
   5   3  -4 17257.3 758.898   3 0.53103-0.19851 0.36798 0.06936 0.87621-0.99541
   5   3  -4 16442.2 756.440   7 0.67853-0.34533-0.41528 0.85275-0.40526 0.28645
  -5   3   4 16119.5 821.089   4 0.50782-0.84050 0.41431 0.02279 0.86228-0.74302
   5   3  -3 16736.5 724.352   7 0.67540-0.32755-0.38203 0.81952-0.43011 0.36686
   5   3  -3 15818.1 729.601   3 0.43353-0.08635 0.34749 0.08981 0.91619-0.97987
  -5   3   3 15314.4 813.757   7 0.06541-0.41238 0.69947-0.26260-0.66914 0.73283
  -5   3   3 15570.9 795.182   4 0.44227-0.78951 0.45313-0.01605 0.86312-0.79931
   5   3  -2 12827.0 667.491   3 0.33322 0.02863 0.32286 0.11440 0.94218-0.95032
   5   3  -2 12853.4 601.820   7 0.66910-0.30661-0.33471 0.77223-0.46341 0.45571
   5   3  -2 12314.0 693.521  10-0.10493 0.46711 0.23178 0.20562-0.96059 0.95254
  -5   3   2 12094.0 726.064   7 0.11380-0.47541 0.65799-0.22115-0.68798 0.69613
  -5   3   2 12320.4 695.369   4 0.36743-0.72923 0.49241-0.05535 0.85795-0.84959
   5   3  -1 28212.2 832.346   7 0.65676-0.27962-0.26774 0.70529-0.50672 0.55455
   5   3  -1 25995.5 1008.26  10-0.05410 0.43088 0.31482 0.12260-0.92840 0.97588
  -5   3   1 25304.5 1029.75   7 0.15916-0.53541 0.61553-0.17872-0.70259 0.65519
  -5   3   1 27052.8 1013.58   4 0.28393-0.66029 0.53062-0.09356 0.84532-0.89243
  -5   3   0 5558.95 438.910   8-0.02997-0.36097 0.36665 0.07088-0.90466 0.80182
   5   3   0 6298.69 365.492   7 0.63280-0.24102-0.17230 0.60988-0.56128 0.66466
   5   3   0 5158.57 456.072  10-0.00212 0.39349 0.39570 0.04174-0.88649 0.98952
  -5   3   0 5709.05 620.408   7 0.20095-0.59184 0.57322-0.13643-0.71331 0.61036
  -5   3  -1 6158.54 477.915   8 0.06145-0.46702 0.35273 0.08477-0.88427 0.72592
   5   3   1 6615.88 522.904  10 0.04958 0.35637 0.47215-0.03469-0.83596 0.99452
  -5   3  -1 6951.59 554.668   7 0.23877-0.64431 0.53212-0.09536-0.72065 0.56215
  -5   3  -2 17494.0 829.931   8 0.13821-0.55843 0.33862 0.09884-0.86116 0.64729
   5   3   2 17719.5 862.120  10 0.09973 0.32082 0.54242-0.10494-0.77840 0.99249
  -5   3  -2 17506.1 875.820   7 0.27242-0.69261 0.49320-0.05647-0.72515 0.51111
  -5   3  -3 2225.40 338.919   7 0.30183-0.73666 0.45725-0.02054-0.72744 0.45785
  -5   3  -3 2036.65 303.330   8 0.20140-0.63625 0.32532 0.11210-0.83794 0.56856
   5   3   3 1949.36 298.484  10 0.14732 0.28782 0.60544-0.16795-0.71565 0.98528
  -5   3  -4 15169.6 828.820   8 0.25254-0.70203 0.31341 0.12398-0.81629 0.49138
   5   3   4 16087.0 855.673  10 0.19169 0.25804 0.66075-0.22324-0.64951 0.97468
  -5   3  -4 16280.3 861.485   7 0.32707-0.77654 0.42486 0.01182-0.72809 0.40295
  -5   3  -5 5315.48 516.342   8 0.29327-0.75740 0.30314 0.13421-0.79713 0.41671
  -5   3  -5 5718.08 524.074   7 0.34827-0.81238 0.39647 0.04018-0.72763 0.34694
   5   3   5 5558.19 525.690  10 0.23248 0.23185 0.70837-0.27084-0.58157 0.96228
  -5   3  -6 739.607 219.272   8 0.32515-0.80392 0.29462 0.14269-0.78092 0.34499
   5   3   6 869.805 245.354  10 0.26959 0.20933 0.74869-0.31113-0.51309 0.94934
  -5   3  -6 978.711 238.814   7 0.36567-0.84442 0.37233 0.06430-0.72652 0.29029
  -5   3  -7 1836.78 350.394   8 0.34951-0.84291 0.28781 0.14947-0.76779 0.27634
   5   3   7 1923.78 339.408  10 0.30309 0.19042 0.78225-0.34468-0.44503 0.93681
  -5   3  -7 1467.13 287.980   7 0.37949-0.87289 0.35256 0.08403-0.72515 0.23338
  -5   3  -8 3467.69 477.520   8 0.36749-0.87553 0.28261 0.15464-0.75767 0.21070
  -5   3  -8 3164.68 421.096   7 0.38998-0.89803 0.33720 0.09937-0.72381 0.17649
   5   3   8 3251.79 444.672  10 0.33318 0.17493 0.80973-0.37213-0.37802 0.92534
  -5   3  -9 5162.96 592.756   8 0.38001-0.90270 0.27890 0.15831-0.75039 0.14791
  -5   3  -9 5040.76 529.032   7 0.39737-0.92006 0.32619 0.11035-0.72270 0.11983
   5   3   9 4441.16 544.774  10 0.36008 0.16262 0.83177-0.39415-0.31248 0.91534
  -5   3 -10 167.924 208.968   8 0.38784-0.92517 0.27654 0.16063-0.74576 0.08775
   5   3  10 164.683 154.250  10 0.38407 0.15322 0.84898-0.41134-0.24864 0.90704
  -5   3 -10 114.149 84.2990   7 0.40185-0.93918 0.31944 0.11707-0.72196 0.06354
  -5   3 -11 9325.98 865.648   8 0.39159-0.94355 0.27541 0.16174-0.74351 0.03000
   5   3  11 8403.05 794.876  10 0.40541 0.14647 0.86192-0.42426-0.18661 0.90054
  -5   3 -12 1048.59 309.897   8 0.39172-0.95832 0.27537 0.16174-0.74343-0.02560
   5   3  12 686.740 246.729  10 0.42435 0.14213 0.87106-0.43338-0.12637 0.89584
  -5   3 -13 827.959 277.274   8 0.38863-0.96986 0.27631 0.16077-0.74529-0.07926
   5   3  13 365.611 210.426  10 0.44110 0.13997 0.87680-0.43910-0.06789 0.89289
  -5   4  15 836.234 317.370   4 0.74505-0.91753 0.22609 0.35688 0.80124-0.07196
   5   4 -15 757.009 278.717   7 0.65990-0.48763-0.28297 0.86586-0.49725-0.23250
  -5   4  14 1006.57 342.153   4 0.74106-0.92811 0.23012 0.35283 0.80333-0.12950
   5   4 -14 638.681 242.600   7 0.66212-0.47521-0.29434 0.87726-0.49003-0.18416
  -5   4  13 891.757 296.077   4 0.73455-0.93615 0.23663 0.34631 0.80663-0.18825
   5   4 -13 1489.85 357.472   7 0.66378-0.46223-0.30325 0.88620-0.48429-0.13436
  -5   4  12 1297.50 331.665   4 0.72521-0.94138 0.24577 0.33716 0.81113-0.24822
   5   4 -12 1841.01 375.212   7 0.66491-0.44871-0.30951 0.89248-0.48022-0.08288
  -5   4  11 2477.06 437.672   4 0.71269-0.94341 0.25770 0.32521 0.81679-0.30932
   5   4 -11 2200.31 411.597   7 0.66550-0.43466-0.31285 0.89585-0.47803-0.02953
   5   4 -10 2693.60 431.790   7 0.66552-0.42003-0.31296 0.89599-0.47795 0.02594
  -5   4  10 3296.32 484.897   4 0.69653-0.94181 0.27259 0.31031 0.82345-0.37144
  -5   4   9 299.148 186.310   4 0.67621-0.93606 0.29054 0.29234 0.83092-0.43436
   5   4  -9 15.6271 108.122   7 0.66489-0.40476-0.30942 0.89248-0.48028 0.08381
   5   4  -8 9718.38 742.216   7 0.66350-0.38872-0.30168 0.88477-0.48531 0.14439
  -5   4   8 8589.92 725.679   4 0.65113-0.92554 0.31165 0.27121 0.83884-0.49773
  -5   4   7 2202.05 376.710   4 0.62062-0.90959 0.33591 0.24694 0.84675-0.56109
   5   4  -7 1963.35 335.784   7 0.66110-0.37169-0.28906 0.87217-0.49340 0.20803
  -5   4   6 1630.98 320.222   4 0.58396-0.88749 0.36320 0.21964 0.85400-0.62380
   5   4  -6 1613.04 291.833   7 0.65738-0.35332-0.27068 0.85381-0.50491 0.27508
  -5   4   5 750.939 230.404   4 0.54045-0.85854 0.39325 0.18957 0.85977-0.68502
   5   4  -5 795.273 189.537   3 0.64906-0.33114 0.38694 0.19611 0.80295-0.97779
   5   4  -5 1010.69 220.821   7 0.65179-0.33309-0.24537 0.82853-0.52023 0.34596
  -5   4   4 1370.05 285.157   7 0.05015-0.38232 0.71175-0.12913-0.66252 0.78183
  -5   4   4 1209.46 268.519   4 0.48948-0.82213 0.42562 0.15719 0.86306-0.74376
   5   4  -4 1563.94 255.340   3 0.56474-0.23215 0.37413 0.20888 0.85841-0.97772
   5   4  -4 1559.06 268.072   7 0.64355-0.31020-0.21166 0.79485-0.53975 0.42102
   5   4  -3 5485.25 461.097   3 0.47436-0.12711 0.35652 0.22644 0.90138-0.96516
   5   4  -3 6260.60 495.645   7 0.63144-0.28345-0.16762 0.75084-0.56375 0.50056
   5   4  -3 5574.66 538.891  10-0.11329 0.46084 0.21772 0.36551-0.96503 0.90150
  -5   4   3 5794.61 562.731   7 0.09455-0.44137 0.67496-0.09236-0.68089 0.74465
  -5   4   3 4872.20 497.802   4 0.43058-0.77779 0.45960 0.12319 0.86272-0.79888
   5   4  -2 3292.28 369.852   3 0.38160-0.01969 0.33515 0.24778 0.93140-0.93965
   5   4  -2 3357.74 348.919   7 0.61363-0.25100-0.11077 0.69401-0.59230 0.58466
   5   4  -2 2864.42 390.896  10-0.07335 0.43549 0.28384 0.29941-0.94162 0.93363
  -5   4   2 2793.05 395.657   7 0.13624-0.49770 0.63743-0.05486-0.69558 0.70380
  -5   4   2 2636.68 362.339   4 0.36359-0.72536 0.49430 0.08848 0.85752-0.84913
   5   4  -1 17590.2 835.711   3 0.29014 0.08643 0.31131 0.27158 0.94921-0.90193
   5   4  -1 16184.3 902.631  10-0.03165 0.40838 0.35025 0.23301-0.91139 0.95893
  -5   4   1 15221.2 901.405   7 0.17485-0.55095 0.60001-0.01747-0.70693 0.65960
  -5   4   1 16277.5 859.082   4 0.28873-0.66506 0.52857 0.05419 0.84623-0.89329
   5   4   0 3246.21 416.413  10 0.01104 0.38028 0.41553 0.16775-0.87447 0.97755
  -5   4   0 4338.16 496.054   7 0.21013-0.60088 0.56349 0.01902-0.71531 0.61243
  -5   4  -1 14327.6 763.404   8 0.01529-0.42082 0.36014 0.22323-0.89553 0.73727
   5   4   1 12869.8 820.072  10 0.05391 0.35200 0.47836 0.10495-0.83133 0.98994
  -5   4  -1 13188.5 852.704   7 0.24193-0.64732 0.52857 0.05392-0.72115 0.56273
  -5   4  -2 1467.34 308.247   7 0.27020-0.69023 0.49585 0.08661-0.72492 0.51095
  -5   4  -2 1488.70 267.862   8 0.09151-0.51168 0.34747 0.23587-0.87588 0.66210
   5   4   2 1095.82 259.198  10 0.09620 0.32430 0.53761 0.04572-0.78273 0.99688
  -5   4  -3 10.5044 90.5691   8 0.15471-0.58953 0.33530 0.24800-0.85547 0.58617
  -5   4  -3-195.029 147.046   7 0.29496-0.72964 0.46582 0.11661-0.72705 0.45753
   5   4   3 25.3730 103.610  10 0.13726 0.29784 0.59243-0.00908-0.72960 0.99929
  -5   4  -4 3977.37 462.138   8 0.20637-0.65582 0.32421 0.25906-0.83595 0.51114
   5   4   4 3468.74 458.699  10 0.17654 0.27315 0.64227-0.05890-0.67296 0.99818
  -5   4  -4 3751.76 482.845   7 0.31631-0.76563 0.43885 0.14355-0.72796 0.40290
  -5   4  -5 2278.19 366.186   8 0.24799-0.71208 0.31451 0.26872-0.81832 0.43799
   5   4   5 2840.90 420.854  10 0.21369 0.25060 0.68684-0.10345-0.61377 0.99453
  -5   4  -5 3366.03 459.542   7 0.33437-0.79834 0.41520 0.16717-0.72803 0.34742
  -5   4  -6 9317.82 741.131   8 0.28101-0.75974 0.30631 0.27689-0.80308 0.36723
  -5   4  -6 8741.66 739.830   7 0.34932-0.82793 0.39504 0.18731-0.72758 0.29142
   5   4   6 8129.82 716.983  10 0.24844 0.23043 0.72609-0.14268-0.55294 0.98924
  -5   4  -7 1907.84 357.072   8 0.30668-0.80004 0.29962 0.28355-0.79045 0.29909
   5   4   7 1619.16 350.884  10 0.28070 0.21277 0.76013-0.17671-0.49123 0.98306
  -5   4  -7 1892.16 368.847   7 0.36131-0.85457 0.37844 0.20388-0.72686 0.23516
  -5   4  -8 1655.92 354.557   8 0.32604-0.83404 0.29438 0.28874-0.78046 0.23358
   5   4   8 1364.35 318.569  10 0.31043 0.19763 0.78920-0.20575-0.42924 0.97661
  -5   4  -8 1553.64 348.988   7 0.37052-0.87842 0.36545 0.21685-0.72609 0.17884
  -5   4  -9 2640.33 448.764   8 0.33997-0.86261 0.29051 0.29258-0.77301 0.17062
  -5   4  -9 3133.98 477.577   7 0.37709-0.89963 0.35604 0.22623-0.72542 0.12263
   5   4   9 2730.06 457.712  10 0.33767 0.18498 0.81359-0.23013-0.36746 0.97036
  -5   4 -10 224.915 199.648   8 0.34919-0.88647 0.28790 0.29515-0.76796 0.11005
   5   4  10 95.8796 173.767  10 0.36253 0.17472 0.83364-0.25015-0.30622 0.96466
  -5   4 -10-257.012 163.520   7 0.38114-0.91833 0.35016 0.23208-0.72496 0.06662
  -5   4 -11 386.622 209.585   8 0.35428-0.90620 0.28645 0.29658-0.76514 0.05171
   5   4  11 199.134 127.296  10 0.38510 0.16674 0.84966-0.26616-0.24577 0.95975
  -5   4 -11 249.198 177.187   7 0.38278-0.93461 0.34777 0.23444-0.72476 0.01087
  -5   5  12 23.4859 194.856   4 0.68036-0.89649 0.28694 0.44169 0.82947-0.26652
   5   5 -12 210.921 182.064   7 0.63302-0.41668-0.17308 0.90178-0.56086-0.00217
  -5   5  11 2139.93 435.824   4 0.66702-0.89771 0.29841 0.43021 0.83398-0.32647
   5   5 -11 2117.16 399.364   7 0.63259-0.40160-0.17157 0.90030-0.56166 0.05418
   5   5 -10 4937.98 612.101   7 0.63113-0.38550-0.16655 0.89531-0.56431 0.11237
  -5   5  10 4801.64 628.159   4 0.65019-0.89544 0.31243 0.41618 0.83911-0.38706
  -5   5   9 100.558 156.775   4 0.62942-0.88924 0.32906 0.39953 0.84465-0.44805
   5   5  -9 474.562 210.267   7 0.62849-0.36821-0.15764 0.88642-0.56895 0.17256
  -5   5   8 200.016 185.387   4 0.60424-0.87862 0.34834 0.38024 0.85028-0.50913
   5   5  -8-229.897 154.937   7 0.62444-0.34952-0.14435 0.87316-0.57576 0.23492
  -5   5   7 35.8984 143.301   4 0.57411-0.86305 0.37021 0.35835 0.85556-0.56987
   5   5  -7 102.112 119.948   7 0.61867-0.32910-0.12608 0.85492-0.58487 0.29957
   5   5  -6 6497.30 627.564   7 0.61072-0.30651-0.10213 0.83100-0.59640 0.36665
  -5   5   6 7097.72 681.758   4 0.53848-0.84198 0.39456 0.33398 0.85996-0.62972
  -5   5   5 1162.69 295.921   4 0.49679-0.81485 0.42115 0.30738 0.86280-0.68801
   5   5  -5 831.816 251.336  10-0.13331 0.45163 0.18363 0.54540-0.97465 0.80009
   5   5  -5 1027.79 250.380   7 0.60000-0.28115-0.07164 0.80053-0.61039 0.43619
   5   5  -4 6429.05 582.406   7 0.58566-0.25217-0.03357 0.76249-0.62680 0.50814
   5   5  -4 5672.60 607.057  10-0.10299 0.43590 0.23501 0.49405-0.95953 0.84051
  -5   5   4 5133.23 588.738   7 0.05781-0.38983 0.70564 0.02272-0.66588 0.78526
  -5   5   4 5418.40 583.144   4 0.44855-0.78117 0.44960 0.27892 0.86326-0.74393
  -5   5   3 390.753 201.002   7 0.09717-0.44384 0.67269 0.05564-0.68188 0.74572
  -5   5   3 506.170 210.171   4 0.39338-0.74055 0.47936 0.24913 0.86043-0.79655
   5   5  -3 288.701 177.961  10-0.07062 0.41813 0.28826 0.44082-0.93983 0.87635
  -5   5   2 1248.40 281.499   4 0.33106-0.69280 0.50975 0.21874 0.85329-0.84486
  -5   5   2 1507.02 332.540   7 0.13387-0.49518 0.63964 0.08865-0.69482 0.70311
   5   5  -2 1452.93 321.261  10-0.03656 0.39866 0.34257 0.38653-0.91525 0.90731
  -5   5   1 1555.75 313.898   4 0.26167-0.63797 0.53987 0.18860 0.84083-0.88785
  -5   5   1 1664.84 348.525   7 0.16772-0.54368 0.60712 0.12115-0.70500 0.65775
   5   5  -1 1725.84 343.908  10-0.00122 0.37791 0.39706 0.33205-0.88569 0.93328
  -5   5   0 221.243 192.910   7 0.19860-0.58920 0.57568 0.15257-0.71278 0.60998
   5   5   0 378.049 192.867  10 0.03491 0.35637 0.45086 0.27828-0.85120 0.95433
   5   5   1 8856.10 765.294  10 0.07134 0.33453 0.50311 0.22605-0.81203 0.97070
  -5   5  -1 8773.46 786.045   7 0.22645-0.63169 0.54581 0.18240-0.71851 0.56016
  -5   5  -2 1332.47 316.591   7 0.25127-0.67115 0.51794 0.21025-0.72255 0.50865
   5   5   2 1793.60 375.503  10 0.10758 0.31288 0.55307 0.17610-0.76860 0.98280
   5   5   3 3338.13 490.122  10 0.14320 0.29186 0.60013 0.12906-0.72141 0.99115
  -5   5  -3 3466.95 509.247   7 0.27310-0.70763 0.49240 0.23576-0.72523 0.45578
  -5   5  -4 1348.27 321.843   7 0.29203-0.74121 0.46944 0.25869-0.72686 0.40187
   5   5   4 969.538 268.028  10 0.17780 0.27185 0.64381 0.08540-0.67105 0.99632
  -5   5  -5 99.2196 168.530   7 0.30817-0.77199 0.44926 0.27885-0.72772 0.34718
   5   5   5 446.807 198.600  10 0.21108 0.25317 0.68379 0.04545-0.61812 0.99894
  -5   5  -6 1840.64 419.033   7 0.32162-0.80008 0.43198 0.29610-0.72805 0.29197
   5   5   6 1618.46 372.714  10 0.24279 0.23605 0.71987 0.00938-0.56323 0.99958
  -5   5  -7 287.940 188.849   7 0.33251-0.82561 0.41768 0.31037-0.72806 0.23643
  -5   5  -7 804.527 257.448   8 0.23800-0.73132 0.31690 0.41214-0.82271 0.33144
   5   5   7 242.226 166.839  10 0.27277 0.22066 0.75199-0.02271-0.50691 0.99880
  -5   5  -8 1140.52 341.630   7 0.34094-0.84869 0.40641 0.32161-0.72789 0.18071
  -5   5  -8 972.912 297.786   8 0.26002-0.76799 0.31157 0.41743-0.81290 0.26611
   5   5   8 1288.22 349.191  10 0.30092 0.20710 0.78017-0.05087-0.44964 0.99706
  -5   5  -9 298.743 191.647   7 0.34703-0.86942 0.39816 0.32983-0.72768 0.12495
  -5   5  -9-92.9952 176.742   8 0.27644-0.79904 0.30747 0.42150-0.80526 0.20295
  -5   5 -10 2922.42 524.128   8 0.28797-0.82521 0.30452 0.42441-0.79973 0.14191
  -5   6   9 2779.45 509.250   4 0.56875-0.82853 0.37398 0.50032 0.85635-0.45971
   5   6  -9 2916.70 487.153   7 0.57740-0.31698-0.01280 0.88731-0.63526 0.23894
   5   6  -8 4619.80 608.045   7 0.57054-0.29547 0.00389 0.87065-0.64180 0.30103
  -5   6   8 4142.24 601.531   4 0.54282-0.81716 0.39168 0.48260 0.85953-0.51834
  -5   6   7 449.346 234.039   4 0.51223-0.80113 0.41153 0.46273 0.86203-0.57629
   5   6  -7 249.565 174.073  10-0.12895 0.41805 0.19110 0.68374-0.97268 0.68710
   5   6  -7 353.538 189.072   7 0.56146-0.27175 0.02526 0.84931-0.64986 0.36463
  -5   6   6 399.046 225.653   4 0.47654-0.78001 0.43338 0.44087 0.86335-0.63307
   5   6  -6 656.644 249.854  10-0.10568 0.40937 0.23051 0.64436-0.96100 0.73096
   5   6  -6 648.716 234.002   7 0.54971-0.24536 0.05182 0.82277-0.65935 0.42968
  -5   6   5 584.824 240.114   4 0.43532-0.75334 0.45700 0.41724 0.86290-0.68807
   5   6  -5 533.736 210.769  10-0.08055 0.39883 0.27210 0.60279-0.94625 0.77175
  -5   6   4 832.075 266.385   4 0.38815-0.72074 0.48204 0.39218 0.85999-0.74061
  -5   6   4 363.886 190.439   7 0.04605-0.37793 0.71499 0.15910-0.66068 0.78014
   5   6  -4 466.438 218.711  10-0.05372 0.38659 0.31543 0.55947-0.92812 0.80915
  -5   6   3 1496.55 340.762   4 0.33472-0.68187 0.50805 0.36615 0.85382-0.78990
  -5   6   3 1457.06 352.714   7 0.08163-0.42816 0.68600 0.18805-0.67583 0.73973
   5   6  -3 1529.70 356.203  10-0.02538 0.37284 0.36002 0.51491-0.90635 0.84292
  -5   6   2 1172.44 327.646   7 0.11472-0.47589 0.65717 0.21686-0.68831 0.69667
   5   6  -2 1016.38 303.194  10 0.00421 0.35784 0.40528 0.46967-0.88078 0.87288
  -5   6   1 3261.69 529.455   7 0.14522-0.52103 0.62896 0.24503-0.69842 0.65124
   5   6  -1 3366.72 529.237  10 0.03476 0.34188 0.45064 0.42433-0.85135 0.89899
  -5   6   0-122.689 159.171   7 0.17305-0.56351 0.60181 0.27216-0.70645 0.60372
   5   6   0 459.914 223.051  10 0.06595 0.32529 0.49550 0.37948-0.81811 0.92129
   5   6   1 5575.20 674.571  10 0.09744 0.30839 0.53930 0.33570-0.78121 0.93993
  -5   6  -1 5329.55 679.934   7 0.19821-0.60331 0.57609 0.29786-0.71269 0.55441
  -5   6  -2-13.9010 101.052   7 0.22070-0.64044 0.55210 0.32182-0.71743 0.50361
   5   6   2 517.204 223.135  10 0.12892 0.29150 0.58151 0.29351-0.74088 0.95513
  -5   6  -3 3.04836 137.097   7 0.24058-0.67496 0.53010 0.34379-0.72094 0.45156
   5   6   3 672.487 253.020  10 0.16007 0.27495 0.62169 0.25336-0.69743 0.96722
  -5   6  -4 1072.23 320.757   7 0.25790-0.70693 0.51029 0.36357-0.72345 0.39853
   5   6   4 367.586 179.972  10 0.19060 0.25900 0.65944 0.21563-0.65122 0.97655
   6  -6  -8 721.933 278.015   9 0.85824-0.50603-0.41501-0.46007 0.51611-0.83719
  -6  -6   8 751.308 246.417  11 0.34991-0.70310-0.32418-0.55070 0.93982-0.61971
   6  -6  -7 121.804 168.267   9 0.85196-0.48516-0.38774-0.48733 0.56276-0.82831
  -6  -6   7 393.905 189.282  11 0.33742-0.70523-0.36481-0.51011 0.92579-0.66122
   6  -6  -6 1984.49 431.180   9 0.84283-0.46144-0.35901-0.51604 0.60782-0.81785
  -6  -6   6 1630.02 378.606  11 0.32334-0.70578-0.40745-0.46750 0.90882-0.69980
   6  -6  -5 3174.75 515.802   9 0.83085-0.43487-0.32900-0.54603 0.65097-0.80547
  -6  -6   5 3144.56 520.602  11 0.30766-0.70473-0.45161-0.42337 0.88867-0.73519
   6  -6  -4 1700.58 367.013   9 0.81612-0.40554-0.29794-0.57707 0.69188-0.79085
  -6  -6   4 1567.56 372.017  11 0.29040-0.70209-0.49674-0.37827 0.86518-0.76724
   6  -6  -3 617.985 223.091   9 0.79880-0.37363-0.26612-0.60887 0.73021-0.77367
  -6  -6   3 501.765 236.808  11 0.27161-0.69793-0.54225-0.33279 0.83824-0.79585
   6  -6  -2 4291.81 566.842   9 0.77914-0.33937-0.23385-0.64112 0.76569-0.75362
  -6  -6   2 4680.56 642.367  11 0.25139-0.69233-0.58753-0.28754 0.80786-0.82101
   6  -6  -1-5.27938 116.167   9 0.75744-0.30308-0.20150-0.67345 0.79808-0.73049
  -6  -6   1 166.038 148.421  11 0.22986-0.68543-0.63200-0.24311 0.77413-0.84283
   6  -6   0 273.451 167.598   9 0.73410-0.26515-0.16944-0.70550 0.82723-0.70412
  -6  -6   0 3.05978 85.0033  11 0.20719-0.67739-0.67509-0.20005 0.73722-0.86146
   6  -6   1 874.605 259.887   9 0.70957-0.22603-0.13805-0.73686 0.85306-0.67442
  -6  -6  -1 989.425 310.535  11 0.18357-0.66839-0.71632-0.15885 0.69736-0.87714
  -6  -6  -2 552.399 286.820  11 0.15917-0.65863-0.75527-0.11994 0.65484-0.89017
  -6  -6  -3 1602.47 395.447  11 0.13420-0.64828-0.79159-0.08365 0.60999-0.90086
  -6  -5  13 573.192 254.062  11 0.41491-0.69491-0.04160-0.68730 0.98606-0.38815
   6  -5 -12 340.000 223.780   9 0.86007-0.56614-0.48839-0.24089 0.36643-0.90955
  -6  -5  12 39.5212 127.969  11 0.40985-0.70448-0.07083-0.65810 0.98518-0.44281
   6  -5 -11 332.432 207.099   9 0.86233-0.55380-0.46449-0.26478 0.41979-0.90738
  -6  -5  11 154.421 165.319  11 0.40359-0.71284-0.10439-0.62458 0.98310-0.49627
   6  -5 -10 1349.06 357.307   9 0.86147-0.53835-0.43837-0.29087 0.47271-0.90479
  -6  -5  10 1170.51 343.344  11 0.39593-0.71981-0.14222-0.58677 0.97935-0.54807
   6  -5  -9 1799.17 388.795   9 0.85728-0.51957-0.41005-0.31917 0.52490-0.90145
  -6  -5   9 1889.11 392.615  11 0.38669-0.72520-0.18418-0.54484 0.97345-0.59771
   6  -5  -8 2350.51 435.039   9 0.84962-0.49731-0.37957-0.34963 0.57596-0.89698
  -6  -5   8 2750.80 462.872  11 0.37569-0.72882-0.22998-0.49908 0.96486-0.64466
   6  -5  -7 4591.69 590.082   9 0.83834-0.47144-0.34705-0.38214 0.62547-0.89097
  -6  -5   7 4743.96 588.903  11 0.36277-0.73053-0.27917-0.44992 0.95305-0.68840
   6  -5  -6 134.230 157.776   9 0.82338-0.44189-0.31265-0.41652 0.67295-0.88293
  -6  -5   6 4.05855 108.158  11 0.34782-0.73021-0.33118-0.39794 0.93755-0.72844
   6  -5  -5 564.640 208.717   9 0.80477-0.40869-0.27665-0.45251 0.71791-0.87236
  -6  -5   5 548.737 216.054  11 0.33078-0.72780-0.38528-0.34388 0.91794-0.76438
   6  -5  -4 1201.23 317.030   9 0.78264-0.37197-0.23937-0.48977 0.75986-0.85879
  -6  -5   4 911.628 258.379  11 0.31167-0.72331-0.44062-0.28857 0.89395-0.79592
   6  -5  -3 1011.90 278.528   9 0.75725-0.33199-0.20124-0.52788 0.79833-0.84174
  -6  -5   3 1215.24 271.910   5-0.42631 0.00046-0.05883-0.67041 0.75865-0.71591
  -6  -5   3 1266.15 301.056  11 0.29058-0.71685-0.49629-0.23293 0.86543-0.82295
   6  -5  -2 4687.86 583.222   9 0.72900-0.28914-0.16274-0.56636 0.83297-0.82085
  -6  -5   2 4243.99 490.960   5-0.47737 0.03690-0.08882-0.64044 0.71776-0.73054
  -6  -5   2 3437.13 487.884  11 0.26767-0.70856-0.55136-0.17789 0.83243-0.84550
   6  -5  -1 2478.02 409.637   9 0.69839-0.24394-0.12439-0.60469 0.86350-0.79586
  -6  -5   1 1973.68 347.044   5-0.52632 0.07124-0.11840-0.61089 0.67381-0.74212
  -6  -5   1 2023.50 417.972  11 0.24317-0.69869-0.60493-0.12435 0.79515-0.86376
   6  -5   0 3152.81 456.713   9 0.66605-0.19700-0.08674-0.64232 0.88979-0.76663
  -6  -5   0 3590.05 505.418  11 0.21736-0.68750-0.65621-0.07310 0.75394-0.87810
   6  -5   1 999.847 276.344   9 0.63266-0.14902-0.05031-0.67874 0.91187-0.73318
  -6  -5  -1 1289.24 327.022  11 0.19054-0.67531-0.70453-0.02481 0.70926-0.88895
   6  -5   2 2632.32 439.445   9 0.59895-0.10071-0.01556-0.71346 0.92990-0.69568
  -6  -5  -2 2885.92 476.252  11 0.16301-0.66241-0.74937 0.01999 0.66162-0.89686
   6  -5   3 928.044 247.344   9 0.56561-0.05278 0.01708-0.74609 0.94418-0.65444
  -6  -5  -3 867.438 270.470  11 0.13508-0.64910-0.79037 0.06096 0.61159-0.90237
   6  -5   4 645.398 220.503   9 0.53330-0.00588 0.04732-0.77631 0.95510-0.60984
  -6  -5  -4 670.159 277.155  11 0.10700-0.63565-0.82732 0.09788 0.55970-0.90603
   6  -5   5 708.095 256.022   9 0.50260 0.03941 0.07492-0.80389 0.96312-0.56234
  -6  -5  -5 703.968 270.536  11 0.07901-0.62229-0.86014 0.13067 0.50646-0.90833
   6  -5   6 1057.10 298.576   9 0.47398 0.08263 0.09975-0.82870 0.96873-0.51243
  -6  -5  -6 1035.45 313.483  11 0.05129-0.60919-0.88884 0.15933 0.45231-0.90973
  -6  -5  -7 1604.80 400.004  11 0.02398-0.59652-0.91351 0.18397 0.39764-0.91060
   6  -5   7 1263.57 314.517   9 0.44780 0.12339 0.12176-0.85069 0.97241-0.46058
   6  -5   8 1519.74 357.450   9 0.42435 0.16144 0.14095-0.86986 0.97461-0.40725
   6  -4 -14 2931.06 519.643   9 0.85029-0.58545-0.52249-0.06095 0.27978-0.93390
  -6  -4  14 2214.96 422.502  11 0.43578-0.70110 0.11592-0.69896 0.97588-0.32234
   6  -4 -13 3813.36 571.038   9 0.85753-0.57809-0.50076-0.08267 0.33662-0.93522
  -6  -4  13 3479.00 501.811  11 0.43300-0.71294 0.08917-0.67224 0.97940-0.38139
   6  -4 -12 332.795 196.937   9 0.86161-0.56758-0.47642-0.10699 0.39380-0.93688
  -6  -4  12 791.082 245.435  11 0.42923-0.72380 0.05696-0.64007 0.98265-0.44019
   6  -4 -11 6074.85 690.656   9 0.86221-0.55359-0.44936-0.13403 0.45106-0.93861
  -6  -4  11 7415.62 664.005   5 0.13735-0.44625 0.22982-0.81306 0.96576-0.47882
  -6  -4  11 5816.29 621.822  11 0.42422-0.73342 0.01904-0.60217 0.98513-0.49821
   6  -4 -10 5925.62 662.835   9 0.85902-0.53580-0.41949-0.16388 0.50806-0.94008
  -6  -4  10 5158.94 576.067  11 0.41765-0.74148-0.02476-0.55841 0.98618-0.55481
  -6  -4  10 5976.09 584.075   5 0.09773-0.42125 0.21174-0.79501 0.96394-0.53252
   6  -4  -9 552.337 224.210   9 0.85170-0.51389-0.38677-0.19658 0.56434-0.94084
  -6  -4   9 486.468 200.967  11 0.40920-0.74766-0.07442-0.50877 0.98501-0.60919
  -6  -4   9 805.561 235.467   5 0.05281-0.39093 0.19085-0.77414 0.95960-0.58370
   6  -4  -8 138.955 138.136   9 0.83995-0.48755-0.35123-0.23210 0.61937-0.94035
  -6  -4   8 32.8781 103.586  11 0.39853-0.75161-0.12972-0.45351 0.98075-0.66047
  -6  -4   8 276.799 126.840   5 0.00277-0.35551 0.16710-0.75041 0.95196-0.63158
   6  -4  -7 1187.01 284.702   9 0.82354-0.45655-0.31299-0.27032 0.67251-0.93796
  -6  -4   7 680.622 214.508  11 0.38531-0.75302-0.19014-0.39312 0.97246-0.70772
  -6  -4   7 1152.76 259.022   5-0.05192-0.31542 0.14054-0.72387 0.94023-0.67537
   6  -4  -6 370.101 200.744   9 0.80233-0.42074-0.27229-0.31100 0.72304-0.93297
  -6  -4   6 312.733 166.155  11 0.36930-0.75164-0.25484-0.32845 0.95923-0.75004
  -6  -4   6 192.712 137.056   5-0.11058-0.27138 0.11138-0.69473 0.92372-0.71437
   6  -4  -5 3976.36 483.579   9 0.77634-0.38016-0.22952-0.35376 0.77021-0.92462
  -6  -4   5 4225.88 452.267   5-0.17222-0.22435 0.07995-0.66333 0.90190-0.74807
  -6  -4   5 3181.49 411.586  11 0.35036-0.74732-0.32266-0.26067 0.94031-0.78666
   6  -4  -4 8343.50 693.904   9 0.74577-0.33500-0.18517-0.39809 0.81329-0.91217
  -6  -4   4 8473.92 636.925   5-0.23568-0.17549 0.04674-0.63014 0.87447-0.77616
  -6  -4   4 8832.68 683.190  11 0.32850-0.74008-0.39217-0.19119 0.91518-0.81707
   6  -4  -3 3070.99 422.626   9 0.71105-0.28569-0.13989-0.44335 0.85162-0.89498
  -6  -4   3 2933.47 382.880   5-0.29970-0.12609 0.01231-0.59573 0.84146-0.79866
  -6  -4   3 2243.09 351.223  11 0.30388-0.73009-0.46180-0.12159 0.88364-0.84108
   6  -4  -2 1592.48 305.086   9 0.67283-0.23287-0.09442-0.48880 0.88471-0.87255
  -6  -4   2 1160.95 248.412   5-0.36299-0.07741-0.02272-0.56073 0.80315-0.81587
  -6  -4   2 1014.06 238.718  11 0.27684-0.71768-0.52994-0.05348 0.84587-0.85885
   6  -4  -1 8398.50 689.846   9 0.63195-0.17740-0.04956-0.53365 0.91229-0.84460
  -6  -4   1 8154.90 634.125   5-0.42438-0.03063-0.05772-0.52575 0.76010-0.82834
  -6  -4   1 7747.82 641.011  11 0.24783-0.70329-0.59514 0.01168 0.80238-0.87091
   6  -4   0 214.948 148.049   9 0.58941-0.12026-0.00606-0.57712 0.93432-0.81111
  -6  -4   0 360.130 156.124   5-0.48289 0.01327-0.09212-0.49137 0.71304-0.83680
  -6  -4   0 197.153 134.017  11 0.21737-0.68747-0.65618 0.07270 0.75397-0.87804
  -6  -4  -1 8158.70 651.051   5-0.53778 0.05355-0.12546-0.45806 0.66278-0.84206
  -6  -4  -1 7612.17 663.951  11 0.18603-0.67075-0.71219 0.12868 0.70157-0.88119
   6  -4   1 8134.34 684.154   9 0.54626-0.06252 0.03534-0.61851 0.95104-0.77230
   6  -4   2 1830.34 342.441   9 0.50354-0.00521 0.07408-0.65723 0.96291-0.72865
  -6  -4  -2 1928.05 341.901  11 0.15429-0.65364-0.76264 0.17909 0.64618-0.88134
   6  -4   3 3761.55 439.147  11 0.43296 0.08058 0.08877-0.67181 0.97944-0.68941
  -6  -4  -3 3116.75 446.639  11 0.12262-0.63659-0.80728 0.22370 0.58876-0.87946
  -6  -4  -3 4339.18 447.715   2-0.06412-0.44841-0.21350-0.36878-0.95755 0.66727
   6  -4   3 3277.61 449.499   9 0.46223 0.05070 0.10971-0.69284 0.97055-0.68077
   6  -4   4 749.910 248.990   9 0.42311 0.10440 0.14195-0.72506 0.97470-0.62939
  -6  -4  -4 918.026 242.063   2-0.00167-0.52546-0.20787-0.37445-0.94433 0.59852
   6  -4   4 752.887 211.941  11 0.43912 0.08904 0.15307-0.73607 0.96978-0.62421
  -6  -4  -4 592.646 215.247  11 0.09135-0.61995-0.84615 0.26254 0.53012-0.87637
   6  -4   5 960.903 259.186   9 0.38684 0.15527 0.17068-0.75377 0.97610-0.57527
  -6  -4  -5 962.847 246.326   2 0.05093-0.59266-0.20248-0.37987-0.93032 0.52897
   6  -4   5 1429.83 296.774  11 0.44289 0.09989 0.20740-0.79037 0.95824-0.55712
  -6  -4  -5 855.621 248.354  11 0.06076-0.60399-0.87945 0.29580 0.47098-0.87277
   6  -4   6 424.414 192.590   9 0.35386 0.20285 0.19588-0.77896 0.97548-0.51913
  -6  -4  -6 392.778 195.640   2 0.09451-0.65084-0.19758-0.38480-0.91670 0.45982
   6  -4   6 660.140 212.889  11 0.44499 0.11243 0.25261-0.83555 0.94619-0.48953
  -6  -4  -6 355.239 203.577  11 0.03103-0.58888-0.90748 0.32380 0.41188-0.86921
   6  -4   7 282.182 170.113   9 0.32446 0.24684 0.21767-0.80073 0.97351-0.46163
  -6  -4  -7 524.890 215.262   2 0.13001-0.70094-0.19329-0.38913-0.90425 0.39184
   6  -4   7 538.188 213.596  11 0.44598 0.12606 0.28966-0.87257 0.93462-0.42241
   6  -4   8 170.166 148.464   9 0.29879 0.28710 0.23619-0.81923 0.97074-0.40333
  -6  -4  -8 636.986 238.134   2 0.15836-0.74389-0.18967-0.39278-0.89342 0.32547
   6  -4   8 314.485 158.072  11 0.44628 0.14039 0.31951-0.90238 0.92414-0.35639
   6  -4   9 1050.27 314.807   9 0.27688 0.32360 0.25163-0.83466 0.96763-0.34470
  -6  -4  -9 1414.41 320.878   2 0.18040-0.78054-0.18674-0.39575-0.88445 0.26097
   6  -4   9 1553.23 345.727  11 0.44620 0.15509 0.34302-0.92587 0.91514-0.29184
   6  -4  10 2557.41 472.319   9 0.25869 0.35638 0.26421-0.84722 0.96454-0.28609
   6  -4  10 2955.33 507.517  11 0.44595 0.16998 0.36098-0.94379 0.90781-0.22897
  -6  -4 -10 3033.36 491.465   2 0.19689-0.81162-0.18447-0.39805-0.87743 0.19841
   6  -4  11 2856.08 510.700   9 0.24412 0.38555 0.27414-0.85713 0.96174-0.22776
   6  -4  11 2391.12 461.791  11 0.44565 0.18490 0.37404-0.95683 0.90222-0.16784
  -6  -4 -11 2773.03 504.236   2 0.20845-0.83778-0.18285-0.39971-0.87234 0.13779
  -6  -3  17-200.552 135.769   5 0.40299-0.62417 0.34187-0.77915 0.92526-0.10515
   6  -3 -16 907.682 316.812   9 0.82541-0.58966-0.56088 0.12328 0.15990-0.92503
  -6  -3  16 638.429 244.470   5 0.39515-0.63093 0.33881-0.77612 0.92791-0.16332
   6  -3 -16 581.967 226.187   7 0.52202-0.28716-0.85239 0.41524 0.14297-0.90814
   6  -3 -15 1323.37 362.788   9 0.83910-0.58875-0.54341 0.10583 0.21826-0.92785
  -6  -3  15 1398.55 313.886   5 0.38349-0.63389 0.33424-0.77157 0.93168-0.22261
   6  -3 -15 1069.51 284.007   7 0.49032-0.24082-0.86858 0.43145 0.19230-0.90191
   6  -3 -14 1627.09 373.079   9 0.84998-0.58504-0.52322 0.08565 0.27775-0.93183
  -6  -3  14 1479.86 310.311  11 0.44519-0.71046 0.25859-0.69580 0.94443-0.29080
  -6  -3  14 1667.09 350.660   5 0.36764-0.63264 0.32796-0.76531 0.93645-0.28290
   6  -3 -14 1567.15 345.197   7 0.45614-0.19199-0.88059 0.44350 0.24085-0.89492
   6  -3 -13 4645.07 587.030   9 0.85769-0.57816-0.50008 0.06254 0.33829-0.93684
  -6  -3  13 4609.07 541.667   5 0.34715-0.62676 0.31975-0.75712 0.94205-0.34401
  -6  -3  13 4423.64 530.704  11 0.44414-0.72403 0.23179-0.66904 0.95202-0.35393
   6  -3 -12 111.299 152.983   9 0.86183-0.56771-0.47377 0.03624 0.39968-0.94270
  -6  -3  12 95.4579 95.9158  11 0.44234-0.73686 0.19809-0.63537 0.96044-0.41790
  -6  -3  12-25.4628 115.556   5 0.32155-0.61577 0.30933-0.74673 0.94816-0.40564
   6  -3 -11 5494.33 605.003   9 0.86192-0.55320-0.44405 0.00654 0.46163-0.94913
  -6  -3  11 5351.29 538.893  11 0.43942-0.74856 0.15674-0.59405 0.96910-0.48210
  -6  -3  11 5140.22 537.617   5 0.29034-0.59918 0.29642-0.73384 0.95432-0.46732
   6  -3 -10 334.100 186.774   9 0.85742-0.53411-0.41073-0.02676 0.52370-0.95568
  -6  -3  10 653.612 189.696  11 0.43490-0.75867 0.10706-0.54440 0.97713-0.54568
  -6  -3  10 561.965 199.702   5 0.25307-0.57652 0.28068-0.71812 0.95992-0.52844
   6  -3  -9 9450.52 742.665   9 0.84780-0.50989-0.37367-0.06380 0.58530-0.96176
  -6  -3   9 9635.76 690.663   5 0.20935-0.54741 0.26181-0.69928 0.96413-0.58816
  -6  -3   9 10301.0 692.220  11 0.42817-0.76657 0.04856-0.48593 0.98333-0.60742
   6  -3  -8 18889.6 1020.51   9 0.83251-0.48001-0.33284-0.10462 0.64566-0.96659
  -6  -3   8 18245.4 932.677   5 0.15897-0.51164 0.23954-0.67703 0.96594-0.64550
  -6  -3   8 18548.8 902.119  11 0.41858-0.77160-0.01891-0.41849 0.98615-0.66578
   6  -3  -7 1900.95 335.381   9 0.81112-0.44403-0.28833-0.14911 0.70382-0.96923
  -6  -3   7 1273.50 243.945  11 0.40541-0.77306-0.09491-0.34253 0.98380-0.71898
  -6  -3   7 1140.15 252.707   5 0.10199-0.46927 0.21370-0.65122 0.96423-0.69930
   6  -3  -6 18397.7 962.966   9 0.78333-0.40165-0.24046-0.19696 0.75869-0.96857
  -6  -3   6 16751.6 856.366   5 0.03884-0.42073 0.18427-0.62181 0.95777-0.74836
  -6  -3   6 18541.6 863.212  11 0.38805-0.77032-0.17824-0.25923 0.97440-0.76512
   6  -3  -5 332.883 176.833   9 0.74911-0.35283-0.18978-0.24763 0.80908-0.96343
  -6  -3   5 352.368 142.090  11 0.36611-0.76302-0.26686-0.17064 0.95626-0.80253
  -6  -3   5 231.823 140.167   5-0.02965-0.36685 0.15143-0.58899 0.94544-0.79155
   6  -3  -4 749.361 203.269   9 0.70877-0.29790-0.13706-0.30032 0.85384-0.95267
  -6  -3   4 787.760 184.828  11 0.33958-0.75111-0.35798-0.07955 0.92829-0.83010
  -6  -3   4 765.135 198.447   5-0.10220-0.30892 0.11559-0.55317 0.92633-0.82796
   6  -3  -3 2807.26 381.007   9 0.66301-0.23755-0.08333-0.35404 0.89200-0.93531
  -6  -3   3 3288.35 381.874   5-0.17718-0.24854 0.07739-0.51499 0.89993-0.85708
  -6  -3   3 3861.15 387.638  11 0.30885-0.73500-0.44839 0.01083 0.89024-0.84759
   6  -3  -2 37275.9 1311.92   9 0.61294-0.17288-0.02975-0.40760 0.92289-0.91068
  -6  -3   2 34198.5 1193.11   5-0.25278-0.18756 0.03764-0.47527 0.86620-0.87886
  -6  -3   2 36506.1 1187.52  11 0.27473-0.71551-0.53493 0.09734 0.84281-0.85570
  -6  -3   1 5073.90 474.585   5-0.32716-0.12778-0.00277-0.43488 0.82555-0.89374
  -6  -3   1 5325.67 465.133  11 0.23830-0.69371-0.61499 0.17736 0.78752-0.85597
  -6  -3   1 5046.29 419.111   2-0.32893-0.12528-0.22802-0.20852-0.97078 0.90272
   6  -3  -1 4874.78 484.443   9 0.55996-0.10531 0.02246-0.45979 0.94628-0.87855
   6  -3   0 9915.29 541.507  11 0.41812 0.05159-0.02182-0.41549 0.98617-0.86268
  -6  -3   0 8965.67 609.832  11 0.20069-0.67073-0.68680 0.24914 0.72639-0.85037
  -6  -3   0 8164.60 600.922   5-0.39871-0.07085-0.04295-0.39472 0.77885-0.90255
  -6  -3   0 8330.88 554.937   2-0.22873-0.24008-0.22438-0.21219-0.97423 0.85063
   6  -3   0 8146.33 626.498   9 0.50569-0.03645 0.07218-0.50949 0.96241-0.83915
  -6  -3  -1 38329.8 1308.55   5-0.46611-0.01805-0.08214-0.35555 0.72718-0.90640
  -6  -3  -1 39329.1 1303.61  11 0.16293-0.64760-0.74949 0.31180 0.66148-0.84101
  -6  -3  -1 41129.6 1247.64   2-0.13699-0.34642-0.21904-0.21756-0.96823 0.78910
   6  -3   1 37818.8 1353.52   9 0.45176 0.03207 0.11847-0.55576 0.97194-0.79316
  -6  -3  -2 9946.40 683.975   5-0.52847 0.02970-0.11972-0.31800 0.67176-0.90650
   6  -3   2 11982.5 651.581  11 0.44262 0.05635 0.20264-0.63988 0.95937-0.72480
  -6  -3  -2 11369.8 718.564  11 0.12584-0.62513-0.80299 0.36527 0.59468-0.82976
  -6  -3  -2 11842.1 694.562   2-0.05558-0.44242-0.21278-0.22385-0.95596 0.72130
   6  -3   2 11774.0 769.541   9 0.39964 0.09878 0.16066-0.59793 0.97586-0.74155
   6  -3   3 786.483 217.924   9 0.35056 0.16246 0.19836-0.63561 0.97533-0.68550
  -6  -3  -3 158.541 145.675   2 0.01484-0.52745-0.20624-0.23043-0.94022 0.65003
   6  -3   3 556.594 162.629  11 0.44591 0.06768 0.28574-0.72295 0.93592-0.64580
  -6  -3  -3 733.299 225.976  11 0.08997-0.60389-0.84775 0.41000 0.52749-0.81811
   6  -3   4 2475.54 376.283   9 0.30542 0.22220 0.23145-0.66869 0.97154-0.62619
   6  -3   4 3317.61 380.486  11 0.44610 0.08212 0.35202-0.78919 0.91152-0.56586
  -6  -3  -4 2271.60 344.404   2 0.07452-0.60173-0.19988-0.23682-0.92317 0.57745
  -6  -3  -4 2947.48 396.957  11 0.05568-0.58422-0.88454 0.44675 0.46098-0.80715
  -6  -3  -5 4624.64 495.032   2 0.12419-0.66600-0.19401-0.24272-0.90638 0.50512
   6  -3   5 4417.09 461.289  11 0.44462 0.09823 0.40414-0.84128 0.88851-0.48731
  -6  -3  -5 6210.70 589.464  11 0.02311-0.56628-0.91424 0.47642 0.39587-0.79758
   6  -3   5 5170.13 531.021   1 0.31985 0.22283-0.65871 0.22115-0.57447 0.97482
   6  -3   5 4265.78 501.244   9 0.26478 0.27742 0.26002-0.69724 0.96562-0.56474
  -6  -3  -6 8113.00 665.181   2 0.16483-0.72124-0.18882-0.24795-0.89084 0.43405
   6  -3   6 8447.92 662.535  11 0.44240 0.11507 0.44461-0.88172 0.86816-0.41141
   6  -3   6 7827.22 689.283   9 0.22896 0.32784 0.28431-0.72152 0.95852-0.50212
  -6  -3  -7 4299.64 512.077   2 0.19748-0.76849-0.18439-0.25242-0.87717 0.36485
   6  -3   7 5216.98 541.776  11 0.44004 0.13205 0.47556-0.91264 0.85103-0.33874
   6  -3   7 4817.89 536.084   1 0.47304 0.09877-0.64820 0.21072-0.45322 0.96460
  -6  -3  -8 8406.33 725.381   2 0.22311-0.80873-0.18074-0.25609-0.86569 0.29783
   6  -3   8 10336.6 794.320  11 0.43788 0.14885 0.49873-0.93578 0.83727-0.26943
   6  -3   8 9770.69 778.098   1 0.54174 0.04462-0.63604 0.19860-0.38980 0.95669
   6  -3   9-31.0758 175.689   1 0.60482-0.00389-0.61992 0.18252-0.32554 0.94795
   6  -3   9 151.940 133.954  11 0.43608 0.16527 0.51550-0.95252 0.82678-0.20340
  -6  -3  -9 87.6311 151.366   2 0.24261-0.84283-0.17787-0.25900-0.85649 0.23310
   6  -3  10 173.058 154.515  11 0.43475 0.18123 0.52695-0.96393 0.81936-0.14044
  -6  -3 -10 535.914 229.818   2 0.25675-0.87157-0.17573-0.26117-0.84958 0.17066
   6  -3  11 1021.01 304.504  11 0.43389 0.19671 0.53389-0.97085 0.81475-0.08028
  -6  -3 -11 435.269 236.595   2 0.26617-0.89559-0.17428-0.26266-0.84486 0.11040
   6  -3  12 1826.91 380.343  11 0.43350 0.21173 0.53698-0.97390 0.81268-0.02267
  -6  -3 -12 1825.69 434.211   2 0.27140-0.91543-0.17347-0.26350-0.84219 0.05220
   6  -2 -18 98.5860 112.664   9 0.77713-0.57047-0.59571 0.30395 0.00980-0.88592
  -6  -2  18-130.149 164.818   5 0.50853-0.71503 0.38113-0.67257 0.87893-0.00325
   6  -2 -17 4652.19 638.745   9 0.79769-0.57643-0.58414 0.29239 0.06693-0.88753
  -6  -2  17 3766.92 550.184   5 0.50694-0.72805 0.38056-0.67203 0.87979-0.05962
   6  -2 -17 3644.83 537.765   7 0.58493-0.36456-0.79985 0.50840 0.02767-0.84831
   6  -2 -16 777.987 261.170   9 0.81607-0.58021-0.57007 0.27834 0.12576-0.89083
  -6  -2  16 483.788 237.480   5 0.50230-0.73802 0.37891-0.67040 0.88226-0.11761
   6  -2 -16 881.207 266.584   7 0.56135-0.32634-0.82349 0.53207 0.07425-0.83934
   6  -2 -15 1759.49 367.617   9 0.83199-0.58154-0.55324 0.26153 0.18638-0.89593
  -6  -2  15 1308.71 333.599   5 0.49428-0.74461 0.37604-0.66755 0.88643-0.17729
   6  -2 -15 1052.74 289.984   7 0.53531-0.28566-0.84386 0.55246 0.12080-0.83034
   6  -2 -14 3695.55 517.108   9 0.84509-0.58005-0.53334 0.24165 0.24884-0.90286
   6  -2 -14 3683.19 490.024   7 0.50678-0.24248-0.86085 0.56948 0.16726-0.82126
  -6  -2  14 2987.94 448.988   5 0.48246-0.74740 0.37177-0.66330 0.89233-0.23871
   6  -2 -13 3923.69 508.839   9 0.85491-0.57528-0.51003 0.21836 0.31312-0.91162
  -6  -2  13 4944.78 503.406  11 0.44521-0.72504 0.38869-0.68011 0.89569-0.29753
  -6  -2  13 3506.60 476.271   5 0.46632-0.74587 0.36586-0.65741 0.89994-0.30185
   6  -2 -13 4266.43 513.741   7 0.47573-0.19679-0.87433 0.58299 0.21355-0.81200
   6  -2 -12 3725.06 479.831   9 0.86088-0.56665-0.48292 0.19127 0.37911-0.92209
  -6  -2  12 3620.50 412.412  11 0.44602-0.74048 0.35695-0.64840 0.90949-0.36686
  -6  -2  12 2692.20 405.867   5 0.44527-0.73943 0.35802-0.64960 0.90915-0.36657
   6  -2 -11 1813.51 334.085   9 0.86230-0.55348-0.45160 0.15996 0.44654-0.93399
  -6  -2  11 1903.11 286.208  11 0.44627-0.75535 0.31532-0.60680 0.92568-0.43860
  -6  -2  11 2123.05 344.309   5 0.41860-0.72737 0.34789-0.63949 0.91966-0.43260
  -6  -2  10 7349.37 532.074  11 0.44530-0.76901 0.26189-0.55340 0.94344-0.51190
   6  -2 -10 6921.22 603.162   9 0.85835-0.53494-0.41566 0.12404 0.51495-0.94688
  -6  -2  10 6247.22 559.493   5 0.38556-0.70895 0.33505-0.62668 0.93103-0.49948
   6  -2  -9 13308.1 809.300   9 0.84814-0.51014-0.37476 0.08316 0.58359-0.96000
  -6  -2   9 12812.2 771.869   5 0.34537-0.68337 0.31903-0.61068 0.94250-0.56648
  -6  -2   9 14323.2 706.007  11 0.44213-0.78047 0.19469-0.48623 0.96122-0.58523
   6  -2  -8 3510.23 409.318   9 0.83071-0.47811-0.32867 0.03709 0.65142-0.97231
  -6  -2   8 3110.00 378.797   5 0.29732-0.64992 0.29932-0.59099 0.95306-0.63256
  -6  -2   8 3759.04 355.103  11 0.43540-0.78836 0.11200-0.40357 0.97645-0.65600
   6  -2  -7 10507.3 679.837   9 0.80518-0.43799-0.27739-0.01417 0.71703-0.98239
  -6  -2   7 10527.0 664.886   5 0.24089-0.60811 0.27547-0.56716 0.96134-0.69635
  -6  -2   7 12027.9 599.239  11 0.42337-0.79097 0.01306-0.30467 0.98539-0.72048
   6  -2  -6 24728.1 1018.49   9 0.77091-0.38913-0.22125-0.07029 0.77867-0.98851
  -6  -2   6 24423.2 983.306   5 0.17595-0.55777 0.24711-0.53882 0.96569-0.75622
  -6  -2   6 25534.7 846.423  11 0.40425-0.78647-0.10094-0.19070 0.98336-0.77400
   6  -2  -5 23592.4 972.947   9 0.72769-0.33131-0.16103-0.13050 0.83442-0.98873
  -6  -2   5 23680.7 951.304   5 0.10288-0.49932 0.21411-0.50585 0.96428-0.81033
  -6  -2   5 25135.9 816.448  11 0.37667-0.77352-0.22604-0.06563 0.96569-0.81187
   6  -2  -4 45760.2 1340.50   9 0.67591-0.26494-0.09795-0.19356 0.88234-0.98112
  -6  -2   4 45543.9 1300.78   5 0.02280-0.43385 0.17667-0.46843 0.95537-0.85694
  -6  -2   4 48911.0 1118.09  11 0.34042-0.75190-0.35529 0.06358 0.92926-0.83099
   6  -2  -3 43924.8 1300.99   9 0.61676-0.19120-0.03369-0.25780 0.92086-0.96412
  -6  -2   3 41813.4 1236.29   5-0.06249-0.36317 0.13534-0.42712 0.93756-0.89465
  -6  -2   3 46859.5 1091.83  11 0.29689-0.72299-0.48018 0.18845 0.87416-0.83143
   6  -2  -2 8225.48 449.666   3 0.72735-0.28764 0.39462-0.68566 0.73347-0.72045
  -6  -2   2 7900.87 543.123   5-0.15059-0.28968 0.09107-0.38288 0.91008-0.92269
  -6  -2   2 7564.70 448.216  11 0.24879-0.68952-0.59309 0.30132 0.80387-0.81668
  -6  -2   2 7690.72 497.443   2-0.39435-0.04534-0.22906-0.06183-0.96245 0.95001
   6  -2  -2 8103.23 566.575   9 0.55217-0.11201 0.02982-0.32129 0.94905-0.93679
   6  -2  -1 14345.2 581.936   3 0.64883-0.19446 0.38691-0.67800 0.80313-0.73458
  -6  -2   1 13542.0 710.040   5-0.23882-0.21606 0.04507-0.33691 0.87298-0.94110
  -6  -2   1 14185.2 630.530  11 0.19926-0.65462-0.68934 0.39754 0.72399-0.79235
  -6  -2   1 13263.6 658.617   2-0.28787-0.16642-0.22682-0.06411-0.97351 0.90553
   6  -2  -1 13341.6 730.827   9 0.48457-0.02983 0.09065-0.38210 0.96686-0.89907
   6  -2   0 47348.9 961.477  11 0.44166 0.02810 0.18740-0.47888 0.96285-0.83929
  -6  -2   0 44805.8 1302.65   5-0.32458-0.14490-0.00134-0.29051 0.82709-0.95073
   6  -2   0 47707.0 1045.17   3 0.55631-0.08727 0.37264-0.66377 0.86307-0.73900
  -6  -2   0 46645.5 1169.40  11 0.15092-0.62091-0.76765 0.47582 0.64017-0.76408
  -6  -2   0 43388.9 1208.39   2-0.18683-0.28206-0.22217-0.06878-0.97254 0.84903
   6  -2   0 44357.2 1340.58   9 0.41665 0.05269 0.14715-0.43859 0.97511-0.85180
   6  -2   1 1153.20 250.494   9 0.35085 0.13308 0.19814-0.48956 0.97534-0.79651
  -6  -2  -1 990.517 217.607   2-0.09462-0.38887-0.21596-0.07503-0.96264 0.78361
   6  -2   1 1405.08 185.044  11 0.44623 0.03816 0.34041-0.63185 0.91617-0.73706
  -6  -2  -1 961.494 214.586   5-0.40569-0.07841-0.04695-0.24493 0.77386-0.95302
   6  -2   1 1055.40 163.533   3 0.45391 0.02979 0.35208-0.64325 0.90913-0.72952
  -6  -2  -1 1160.97 203.417  11 0.10543-0.59004-0.82927 0.53741 0.55675-0.73620
  -6  -2  -2 3992.97 410.316   5-0.48058-0.01813-0.09074-0.20116 0.71502-0.94970
   6  -2   2 4955.56 352.629   3 0.34795 0.15041 0.32668-0.61789 0.93923-0.70409
   6  -2   2 4867.44 364.191  11 0.44207 0.05695 0.44951-0.74092 0.86554-0.63089
  -6  -2  -2 4104.77 382.980  11 0.06352-0.56276-0.87663 0.58474 0.47638-0.71137
  -6  -2  -2 4171.02 407.185   2-0.01317-0.48492-0.20897-0.08206-0.94705 0.71248
   6  -2   2 3724.07 414.699   9 0.28921 0.20932 0.24298-0.53438 0.96946-0.73510
  -6  -2  -3 38924.0 1275.58   5-0.54833 0.03501-0.13199-0.15993 0.65237-0.94257
  -6  -2  -3 40943.8 1240.66  11 0.02531-0.53917-0.91239 0.62046 0.40033-0.69086
   6  -2   3 40706.9 1119.14  11 0.43481 0.07884 0.52646-0.81784 0.81968-0.52948
   6  -2   3 40273.4 1362.47   9 0.23309 0.28003 0.28156-0.57294 0.95943-0.66955
  -6  -2  -4 25599.7 1047.70   2 0.11588-0.64317-0.19503-0.09606-0.90935 0.56371
   6  -2   4 28134.1 995.643  11 0.42718 0.10109 0.58065-0.87200 0.78151-0.43577
  -6  -2  -5-212.019 160.485   2 0.16459-0.70649-0.18885-0.10227-0.89094 0.48976
   6  -2   5 111.754 86.2179  11 0.42040 0.12249 0.61873-0.91005 0.75137-0.35008
   6  -2   5 256.045 178.830   1 0.38405 0.15841-0.65684 0.36496-0.52674 0.92719
  -6  -2  -6 6990.94 600.896   2 0.20410-0.76060-0.18346-0.10770-0.87427 0.41756
   6  -2   6 8223.50 605.256  11 0.41491 0.14261 0.64523-0.93651 0.72858-0.27175
   6  -2   6 7309.43 622.130   1 0.45817 0.09885-0.65017 0.35833-0.46615 0.92211
  -6  -2  -7 4922.08 527.861   2 0.23551-0.80661-0.17893-0.11227-0.85988 0.34765
   6  -2   7 5539.11 531.856  11 0.41079 0.16136 0.66321-0.95446 0.71219-0.19982
   6  -2   7 5501.10 560.877   1 0.52635 0.04523-0.63922 0.34743-0.40456 0.91605
  -6  -2  -8 3979.99 500.448   2 0.25987-0.84557-0.17525-0.11597-0.84803 0.28025
   6  -2   8 3496.13 463.258   1 0.58857-0.00242-0.62457 0.33282-0.34271 0.90971
   6  -2   8 3807.39 463.767  11 0.40797 0.17881 0.67475-0.96597 0.70125-0.13333
   6  -2   9 1641.32 324.283  11 0.40630 0.19510 0.68128-0.97247 0.69490-0.07144
  -6  -2  -9 1752.70 366.844   2 0.27811-0.87841-0.17241-0.11884-0.83874 0.21543
   6  -2   9 1531.85 324.859   1 0.64496-0.04426-0.60674 0.31502-0.28110 0.90362
  -6  -2 -10 5555.94 622.704   2 0.29101-0.90591-0.17036-0.12093-0.83195 0.15311
   6  -2  10 7000.07 684.867   1 0.69579-0.08052-0.58617 0.29449-0.22012 0.89816
   6  -2  10 5300.24 596.668  11 0.40565 0.21039 0.68381-0.97497 0.69242-0.01341
   6  -2  11 419.593 202.796   1 0.74134-0.11150-0.56324 0.27160-0.16001 0.89356
   6  -2  11 723.110 236.163  11 0.40585 0.22481 0.68303-0.97415 0.69319 0.04136
  -6  -2 -11 909.901 327.031   2 0.29925-0.92876-0.16902-0.12230-0.82752 0.09315
   6  -2  12 2181.30 432.980   1 0.78193-0.13754-0.53824 0.24664-0.10089 0.88996
   6  -2  12 2577.11 458.711  11 0.40678 0.23850 0.67942-0.97052 0.69672 0.09338
  -6  -2 -12 3141.44 535.799   2 0.30338-0.94749-0.16835-0.12301-0.82527 0.03537
   6  -2  13 719.049 275.859   1 0.81788-0.15892-0.51141 0.21985-0.04283 0.88741
   6  -2  13 916.418 297.701  11 0.40832 0.25160 0.67336-0.96442 0.70259 0.14305
  -6  -2 -13 1378.45 390.273   2 0.30384-0.96255-0.16827-0.12312-0.82502-0.02042
   6  -1 -19 242.936 164.800   9 0.72482-0.53265-0.61344 0.46753-0.11123-0.82037
   6  -1 -18 59.8071 97.9053   9 0.75001-0.54325-0.60655 0.46066-0.05636-0.81971
  -6  -1  18-129.142 166.833   5 0.58487-0.79130 0.40703-0.55265 0.83106 0.04468
   6  -1 -18 228.721 175.643   7 0.63476-0.42889-0.72329 0.57754-0.09347-0.78264
  -6  -1  18 34.1269 130.319  10 0.46962-0.67671 0.54070-0.68605 0.79693 0.07924
   6  -1 -17 630.970 272.030   9 0.77354-0.55218-0.59740 0.45153 0.00051-0.82106
  -6  -1  17 994.455 333.589   5 0.58565-0.80669 0.40729-0.55293 0.83050-0.01027
   6  -1 -17 627.396 221.878   7 0.61964-0.39913-0.75184 0.60612-0.05218-0.76838
  -6  -1  17 651.124 237.552  10 0.47043-0.69211 0.54325-0.68863 0.79470 0.02593
   6  -1 -16 2953.02 468.221   9 0.79521-0.55926-0.58573 0.43988 0.05963-0.82465
  -6  -1  16 2965.67 481.534   5 0.58383-0.81948 0.40670-0.55236 0.83181-0.06710
   6  -1 -16 2624.09 448.536   7 0.60249-0.36733-0.77798 0.63228-0.01067-0.75435
  -6  -1  16 2598.59 435.485  10 0.47040-0.70667 0.54316-0.68855 0.79479-0.02969
   6  -1 -15 1916.00 359.395   9 0.81475-0.56421-0.57123 0.42540 0.12123-0.83073
  -6  -1  15 2404.09 425.069   5 0.57908-0.82934 0.40515-0.55084 0.83519-0.12600
   6  -1 -15 1820.35 374.752   7 0.58328-0.33348-0.80170 0.65603 0.03109-0.74056
  -6  -1  15 2272.77 426.819  10 0.46941-0.72027 0.54003-0.68544 0.79751-0.08795
   6  -1 -14 1159.99 287.513   9 0.83179-0.56665-0.55348 0.40767 0.18555-0.83953
  -6  -1  14 700.734 236.738   5 0.57101-0.83588 0.40251-0.54822 0.84081-0.18713
   6  -1 -14 1190.44 305.551   7 0.56196-0.29751-0.82295 0.67731 0.07311-0.72704
  -6  -1  14 774.697 239.594  10 0.46729-0.73274 0.53336-0.67879 0.80324-0.14922
   6  -1 -13 7496.99 657.167   9 0.84580-0.56607-0.53200 0.38620 0.25276-0.85122
   6  -1 -13 7583.29 678.738   7 0.53846-0.25938-0.84166 0.69605 0.11540-0.71378
  -6  -1  13 7213.62 661.078   5 0.55909-0.83858 0.39856-0.54429 0.84879-0.25063
  -6  -1  13 7971.73 654.834  10 0.46376-0.74381 0.52246-0.66792 0.81236-0.21387
   6  -1 -12 4628.02 501.435   9 0.85607-0.56175-0.50619 0.36041 0.32297-0.86590
   6  -1 -12 3940.06 477.902   7 0.51272-0.21899-0.85771 0.71212 0.15793-0.70077
  -6  -1  12 5200.24 544.360   5 0.54268-0.83678 0.39301-0.53877 0.85921-0.31657
   6  -1 -11 21491.2 1015.97   9 0.86170-0.55279-0.47537 0.32961 0.39613-0.88354
   6  -1 -11 23558.6 1102.89   7 0.48463-0.17626-0.87094 0.72538 0.20069-0.68797
  -6  -1  11 23587.4 1091.75   5 0.52098-0.82968 0.38551-0.53129 0.87204-0.38492
   6  -1 -10 9151.35 636.041   9 0.86150-0.53800-0.43878 0.29304 0.47193-0.90381
  -6  -1  10 9493.51 533.677  11 0.44191-0.76557 0.45183-0.59751 0.86429-0.43267
   6  -1 -10 9121.27 672.093   7 0.45412-0.13110-0.88115 0.73562 0.24359-0.67533
  -6  -1  10 9928.79 690.406   5 0.49302-0.81634 0.37559-0.52139 0.88707-0.45547
   6  -1  -9 4426.33 434.122   9 0.85404-0.51594-0.39564 0.24991 0.54966-0.92602
  -6  -1   9 4521.41 344.231  11 0.44541-0.78370 0.38245-0.52817 0.89851-0.52243
  -6  -1   9 4390.39 450.003   5 0.45770-0.79563 0.36266-0.50849 0.90381-0.52773
   6  -1  -8 11414.0 663.885   9 0.83763-0.48494-0.34526 0.19955 0.62806-0.94889
  -6  -1   8 11569.9 690.301   5 0.41382-0.76636 0.34605-0.49190 0.92142-0.60086
  -6  -1   8 12365.1 526.813  11 0.44590-0.79882 0.28553-0.43128 0.93599-0.61546
  -6  -1   8 13784.3 550.311   4 0.28401-0.63677 0.53058-0.67627 0.84534-0.52496
   6  -1  -7 20497.0 853.958   9 0.81054-0.44326-0.28725 0.14156 0.70515-0.97046
  -6  -1   7 21738.5 644.394  11 0.43910-0.80664 0.15272-0.29850 0.96984-0.70486
  -6  -1   7 20456.6 885.534   5 0.36020-0.72734 0.32499-0.47086 0.93856-0.67351
   6  -1  -6 20498.1 832.150   9 0.77124-0.38936-0.22174 0.07607 0.77818-0.98797
  -6  -1   6 19268.9 830.932   5 0.29589-0.67764 0.29873-0.44462 0.95333-0.74380
  -6  -1   6 22162.6 606.895  11 0.41816-0.80033-0.02157-0.12425 0.98617-0.77672
   6  -1  -5 3503.81 345.350   9 0.71886-0.32239-0.14970 0.00404 0.84379-0.99805
  -6  -1   5 4194.97 250.207  11 0.37538-0.77217-0.23122 0.08538 0.96459-0.81069
  -6  -1   5 4110.38 377.836   5 0.22048-0.61685 0.26666-0.41257 0.96329-0.80928
   6  -1  -4 12715.1 636.224   9 0.65378-0.24271-0.07309-0.07255 0.89845-0.99719
   6  -1  -4 12983.2 605.002   3 0.72286-0.31241 0.39431-0.53962 0.73804-0.83619
  -6  -1   4 12623.2 648.700   5 0.13446-0.54543 0.22851-0.37445 0.96569-0.86720
  -6  -1   4 13852.2 434.141  11 0.30856-0.71998-0.44916 0.30328 0.88987-0.79151
   6  -1  -3 6169.35 444.482   9 0.57794-0.15228 0.00519-0.15080 0.93927-0.98249
  -6  -1   3 6517.10 302.180  11 0.22752-0.65357-0.63661 0.49070 0.77039-0.72758
   6  -1  -3 5959.57 407.734   3 0.64815-0.22303 0.38682-0.53217 0.80364-0.84626
  -6  -1   3 6603.49 473.707   5 0.03947-0.46506 0.18457-0.33053 0.95785-0.91488
   6  -1  -2 44475.1 1081.45   3 0.56061-0.12084 0.37340-0.51878 0.86071-0.84780
  -6  -1   2 45742.7 1210.53   5-0.06162-0.37858 0.13577-0.28175 0.93779-0.95033
  -6  -1   2 47926.6 849.545  11 0.14821-0.58888-0.77165 0.62571 0.63531-0.64804
  -6  -1   2 44859.4 1168.85   2-0.39762-0.04215-0.22908 0.08380-0.96189 0.94954
   6  -1  -2 45923.8 1199.91   9 0.49486-0.05461 0.08171-0.22731 0.96481-0.95250
   6  -1  -1 9813.71 285.453  11 0.44594 0.00925 0.28738-0.43306 0.93538-0.86727
  -6  -1   1 9323.60 549.180   5-0.16504-0.28977 0.08365-0.22966 0.90468-0.97274
   6  -1  -1 8273.63 467.830   3 0.46288-0.00845 0.35405-0.49947 0.90581-0.83737
  -6  -1   1 9516.62 405.487  11 0.08039-0.53569-0.85861 0.71264 0.50913-0.57741
  -6  -1   1 9282.95 547.778   2-0.29052-0.16385-0.22691 0.08160-0.97339 0.90550
   6  -1  -1 8499.87 526.587   9 0.40900 0.04585 0.15326-0.29884 0.97551-0.90768
  -6  -1   0 2438.48 287.263   5-0.26676-0.20266 0.03014-0.17618 0.85914-0.98272
   6  -1   0 2727.84 274.737   3 0.35947 0.10963 0.32962-0.47508 0.93672-0.81274
   6  -1   0 3042.99 198.527  11 0.43066 0.03916 0.55790-0.70355 0.79818-0.67453
  -6  -1   0 2783.78 239.425  11 0.02550-0.49542-0.91223 0.76623 0.40070-0.52452
  -6  -1   0 2240.73 285.904   2-0.18805-0.28092-0.22224 0.07690-0.97261 0.84919
   6  -1   0 2858.70 316.708   9 0.32486 0.14457 0.21737-0.36293 0.97355-0.85019
  -6  -1  -1 60960.8 1427.15   5-0.36319-0.12084-0.02283-0.12323 0.80302-0.98212
   6  -1   1 63266.3 1047.28  11 0.40570 0.07875 0.68361-0.82923 0.69261-0.51342
  -6  -1  -1 58669.5 1402.94   2-0.09396-0.38961-0.21591 0.07053-0.96254 0.78359
   6  -1   1 60682.7 1455.32   9 0.24616 0.23787 0.27275-0.41830 0.96215-0.78327
  -6  -1  -2 19433.3 830.985   5-0.45169-0.04695-0.07364-0.07244 0.73891-0.97353
  -6  -1  -2 20214.9 849.824   2-0.01053-0.48765-0.20871 0.06330-0.94644 0.71195
  -6  -1  -3-17.4038 133.315   2 0.06137-0.57414-0.20134 0.05590-0.92722 0.63721
  -6  -1  -3 70.9941 103.192   5-0.53077 0.01751-0.12113-0.02497 0.66956-0.95970
   6  -1   3 139.000 147.561   1 0.32799 0.18512-0.65866 0.51238-0.56864 0.85817
   6  -1   3 21.1770 37.5369  10 0.50514 0.00847 0.85348-0.99940 0.25578 0.03422
  -6  -1  -4 21634.6 939.797   2 0.12186-0.64924-0.19430 0.04882-0.90722 0.56167
   6  -1   4 25051.8 735.593  10 0.50644 0.02176 0.85097-0.99687 0.26687 0.07866
  -6  -1  -4 23487.4 929.166   8-0.05343-0.47443 0.36972-0.51587-0.90865 0.56276
  -6  -1  -5 19516.6 928.374   2 0.17173-0.71371-0.18790 0.04239-0.88804 0.48696
  -6  -1  -5 20170.1 891.456   8 0.00586-0.54835 0.36156-0.50774-0.89759 0.49618
   6  -1   5 20705.4 978.867   1 0.47719 0.06504-0.64761 0.50141-0.44956 0.85012
   6  -1   5 22360.8 763.727  10 0.50823 0.03456 0.84708-0.99297 0.28308 0.11799
  -6  -1  -6 17969.8 923.639   2 0.21206-0.76864-0.18233 0.03679-0.87072 0.41410
  -6  -1  -6 18671.1 886.870   8 0.05538-0.61252 0.35375-0.49996-0.88586 0.42894
   6  -1   6 17443.5 931.133   1 0.54204 0.01476-0.63598 0.48982-0.38951 0.84558
   6  -1   6 20019.4 783.195  10 0.51019 0.04719 0.84210-0.98797 0.30243 0.15418
  -6  -1  -7 28843.0 1210.92   2 0.24400-0.81519-0.17766 0.03208-0.85582 0.34367
   6  -1   7 28626.1 1240.80   1 0.60067-0.02931-0.62114 0.47502-0.32997 0.84155
  -6  -1  -7 30700.2 1180.94   8 0.09573-0.66750 0.34670-0.49295-0.87463 0.36219
   6  -1   7 30227.5 1031.87  10 0.51213 0.05985 0.83615-0.98199 0.32385 0.18830
  -6  -1  -8 805.998 226.609   8 0.12772-0.71413 0.34068-0.48696-0.86465 0.29669
  -6  -1  -8 1049.20 280.963   2 0.26866-0.85444-0.17390 0.02828-0.84360 0.27591
   6  -1   8 1441.75 324.727   1 0.65344-0.06752-0.60363 0.45755-0.27132 0.83842
   6  -1   8 1255.62 236.090  10 0.51393 0.07264 0.82926-0.97509 0.34670 0.22098
  -6  -1  -9 10778.5 806.687   2 0.28700-0.88738-0.17100 0.02536-0.83408 0.21086
   6  -1   9 9881.48 785.361   1 0.70080-0.10031-0.58388 0.43784-0.21378 0.83640
  -6  -1  -9 9793.79 721.553   8 0.15221-0.75326 0.33581-0.48213-0.85635 0.23287
   6  -1   9 10746.1 702.210  10 0.51549 0.08567 0.82147-0.96727 0.37059 0.25263
   6  -1  10 1170.10 289.724   1 0.74315-0.12811-0.56222 0.41622-0.15748 0.83562
  -6  -1 -10 1572.57 314.392   8 0.17005-0.78574 0.33211-0.47847-0.84994 0.17095
  -6  -1 -10 1072.49 293.279   2 0.29987-0.91485-0.16892 0.02325-0.82718 0.14844
   6  -1  10 1946.02 335.322  10 0.51677 0.09899 0.81276-0.95855 0.39527 0.28349
  -6  -1 -11 4799.05 599.639   2 0.30797-0.93756-0.16760 0.02188-0.82275 0.08847
  -6  -1 -11 4572.73 539.705   8 0.18198-0.81231 0.32957-0.47596-0.84549 0.11098
   6  -1  11 4086.78 568.624   1 0.78091-0.15130-0.53893 0.39297-0.10245 0.83610
  -6  -1 -12 4474.46 601.506   2 0.31188-0.95607-0.16695 0.02120-0.82059 0.03077
   6  -1  12 3830.18 570.666   1 0.81444-0.17027-0.51420 0.36828-0.04866 0.83783
  -6  -1 -12 3758.15 507.636   8 0.18865-0.83362 0.32813-0.47455-0.84294 0.05291
   6  -1  13 848.695 310.146   1 0.84404-0.18531-0.48817 0.34229 0.00393 0.84076
  -6  -1 -13 1431.68 407.466   2 0.31206-0.97085-0.16692 0.02114-0.82048-0.02487
   6  -1  14 1032.68 338.066   1 0.86999-0.19670-0.46093 0.31509 0.05540 0.84480
   6   0 -19 3270.24 553.594   7 0.66692-0.47555-0.62704 0.62698-0.21162-0.71997
  -6   0  19 2130.72 427.168  10 0.49056-0.68309 0.61244-0.61192 0.72714 0.20462
   6   0 -18 39.9592 88.2221   9 0.70200-0.49513-0.61770 0.61769-0.15681-0.71922
   6   0 -18 60.2990 126.776   7 0.65920-0.45319-0.65773 0.65771-0.17679-0.69925
  -6   0  18 18.7829 94.7376  10 0.49266-0.69979 0.62047-0.61997 0.71831 0.15792
   6   0 -17 164.134 120.057   9 0.72887-0.50741-0.61250 0.61251-0.10277-0.71774
   6   0 -17 271.416 175.079   7 0.64997-0.42931-0.68652 0.68652-0.14188-0.67861
  -6   0  17 219.513 160.365  10 0.49422-0.71594 0.62658-0.62610 0.71143 0.10926
   6   0 -16-28.6566 80.3100   9 0.75444-0.51840-0.60505 0.60507-0.04612-0.71885
  -6   0  16 121.422 128.856  10 0.49523-0.73154 0.63057-0.63011 0.70686 0.05829
   6   0 -15 269.992 155.835   9 0.77856-0.52792-0.59501 0.59506 0.01355-0.72300
   6   0 -15 282.912 188.093   7 0.62704-0.37709-0.73864 0.73870-0.07173-0.63767
  -6   0  15 13.7512 85.2547  10 0.49562-0.74652 0.63214-0.63170 0.70505 0.00456
   6   0 -14 14802.1 899.151   9 0.80095-0.53571-0.58195 0.58201 0.07673-0.73066
   6   0 -14 13711.5 946.668   7 0.61336-0.34877-0.76206 0.76215-0.03643-0.61743
  -6   0  14 14567.6 880.081  10 0.49530-0.76080 0.63087-0.63045 0.70652-0.05244
   6   0 -13 41677.9 1443.64   9 0.82117-0.54134-0.56527 0.56535 0.14395-0.74236
   6   0 -13 40988.1 1562.89   7 0.59819-0.31895-0.78374 0.78385-0.00094-0.59737
  -6   0  13 42926.7 1441.57  10 0.49412-0.77420 0.62615-0.62576 0.71191-0.11337
  -6   0  13 46367.5 1387.27   4 0.67705-0.95698 0.28982-0.28973 0.83063-0.23295
  -6   0  12 849.816 201.611   4 0.65590-0.95039 0.30772-0.30765 0.83744-0.29521
   6   0 -12 620.566 198.521   9 0.83858-0.54416-0.54420 0.54430 0.21577-0.75865
   6   0 -12 767.640 241.484   7 0.58149-0.28761-0.80366 0.80380 0.03477-0.57753
  -6   0  12 457.137 155.174  10 0.49179-0.78647 0.61711-0.61673 0.72204-0.17903
  -6   0  11 946.751 203.153   4 0.62767-0.93672 0.33043-0.33037 0.84508-0.35830
   6   0 -11 1297.65 242.170   9 0.85220-0.54319-0.51776 0.51788 0.29269-0.78005
   6   0 -11 1199.81 274.923   7 0.56323-0.25471-0.82181 0.82198 0.07071-0.55792
  -6   0  11 911.575 204.770  10 0.48787-0.79714 0.60245-0.60209 0.73782-0.25036
   6   0 -10 25086.6 968.425   9 0.86064-0.53703-0.48469 0.48482 0.37505-0.80688
   6   0 -10 24553.3 1083.04   7 0.54334-0.22018-0.83813 0.83832 0.10691-0.53858
  -6   0  10 23704.6 1041.72   5 0.57466-0.89791 0.40371-0.40369 0.83829-0.40663
  -6   0  10 24892.7 931.041  10 0.48163-0.80549 0.58028-0.57994 0.76035-0.32842
  -6   0  10 25627.7 924.697   4 0.59113-0.91474 0.35801-0.35796 0.85276-0.42144
   6   0  -9 14476.6 703.847   9 0.86188-0.52368-0.44347 0.44362 0.46278-0.83909
  -6   0   9 14260.5 645.268   6-0.38868 0.05055 0.91706-0.91738-0.01806 0.39451
   6   0  -9 13301.1 767.052   7 0.52176-0.18395-0.85254 0.85277 0.14339-0.51952
  -6   0   9 14028.7 777.142   5 0.54441-0.88227 0.39360-0.39361 0.85814-0.48200
  -6   0   9 14264.9 662.226  10 0.47184-0.81030 0.54775-0.54744 0.79073-0.41434
  -6   0   9 14712.6 681.008   4 0.54500-0.88317 0.39023-0.39019 0.85930-0.48343
   6   0  -8 2543.86 288.735   9 0.85321-0.50042-0.39241 0.39258 0.55504-0.87583
  -6   0   8 2339.50 266.420   6-0.34549-0.00723 0.93524-0.93555-0.01827 0.33918
   6   0  -8 2300.96 320.835   7 0.49839-0.14594-0.86496 0.86521 0.18017-0.50074
  -6   0   8 2658.72 332.903   5 0.50539-0.85786 0.38001-0.38004 0.88062-0.56000
  -6   0   8 2577.94 284.889   4 0.48818-0.84091 0.42640-0.42639 0.86310-0.54268
   6   0  -7 3876.47 338.277   9 0.83126-0.46388-0.32994 0.33013 0.64967-0.91494
  -6   0   7 3465.70 319.344   6-0.30877-0.05855 0.94877-0.94906-0.01841 0.28378
  -6   0   7 3063.82 344.873   5 0.45577-0.82285 0.36194-0.36200 0.90466-0.63955
   6   0  -7 3717.75 380.061   7 0.47314-0.10605-0.87525 0.87553 0.21724-0.48227
  -6   0   7 3289.86 314.406   4 0.42005-0.78734 0.46533-0.46532 0.86223-0.59726
   6   0  -6 10150.7 523.811   9 0.79233-0.41036-0.25513 0.25533 0.74267-0.95241
  -6   0   6 10097.4 545.754   6-0.27856-0.10336 0.95861-0.95889-0.01850 0.22833
   6   0  -6 9845.28 570.815   3 0.76014-0.37895 0.39618-0.39573 0.69734-0.90665
  -6   0   6 9888.63 577.841   5 0.39368-0.77537 0.33824-0.33831 0.92840-0.71881
   6   0  -5 1361.79 193.367   9 0.73344-0.33687-0.16856 0.16879 0.82799-0.98221
  -6   0   5 1472.73 217.636   6-0.25486-0.14165 0.96556-0.96581-0.01856 0.17286
  -6   0   5 1657.64 240.408   5 0.31757-0.71387 0.30770-0.30780 0.94902-0.79495
   6   0  -5 1196.68 207.308   3 0.69564-0.29979 0.39210-0.39169 0.76412-0.91790
   6   0  -4 89983.9 1480.85   9 0.65387-0.24271-0.07319 0.07343 0.89838-0.99708
  -6   0   4 92635.7 1642.24   6-0.23772-0.17339 0.97016-0.97040-0.01860 0.11735
   6   0  -4 89982.1 1639.15   3 0.61897-0.20845 0.38283-0.38246 0.82471-0.92296
  -6   0   4 89924.5 1626.45   5 0.22675-0.63766 0.26937-0.26949 0.96275-0.86420
  -6   0   3 39774.6 1079.48   6-0.22713-0.19858 0.97283-0.97306-0.01862 0.06183
   6   0  -3 39812.7 1078.27   3 0.53126-0.10608 0.36802-0.36769 0.87609-0.91881
  -6   0   3 38384.0 1045.79   5 0.12214-0.54767 0.22292-0.22306 0.96528-0.92225
   6   0  -3 40463.9 724.806  10-0.12337 0.54938 0.20064-0.20084-0.97005 0.92688
   6   0  -3 40521.0 998.305   9 0.55666-0.13090 0.02559-0.02533 0.94747-0.99064
  -6   0   2 13131.3 625.643   6-0.22310-0.21720 0.97381-0.97402-0.01862 0.00630
  -6   0   2 12111.2 583.029   5 0.00679-0.44692 0.16902-0.16919 0.95268-0.96517
   6   0  -2 12825.6 611.880   3 0.43516 0.00468 0.34786-0.34758 0.91565-0.90284
   6   0  -2 12461.4 396.191  10 0.01239 0.42822 0.41755-0.41772-0.87321 0.88557
   6   0  -2 12374.1 558.686   9 0.44867-0.00832 0.12104-0.12076 0.97231-0.95996
  -6   0   1 2735.00 290.000   6-0.22564-0.22926 0.97319-0.97339-0.01862-0.04924
  -6   0   1 2367.15 262.747   5-0.11423-0.34052 0.10954-0.10973 0.92256-0.99056
   6   0  -1 2176.59 265.238   3 0.33469 0.11981 0.32324-0.32299 0.94189-0.87356
   6   0  -1 2786.70 192.783  10 0.13735 0.31785 0.59255-0.59270-0.72948 0.79738
  -6   0   1 2418.85 285.150   2-0.33805-0.11641-0.22823 0.22853-0.96992 0.90212
   6   0  -1 2819.91 279.014   9 0.33871 0.11623 0.20719-0.20689 0.97463-0.90675
  -6   0   0 32572.8 981.447   6-0.23475-0.23475 0.97092-0.97110-0.01860-0.10479
  -6   0   0 31643.3 936.660   5-0.23468-0.23468 0.04727-0.04749 0.87495-0.99847
   6   0   0 31810.5 676.525  10 0.23489 0.23489 0.71109-0.71122-0.57732 0.70076
  -6   0   0 32186.4 997.097   2-0.23453-0.23453-0.22466 0.22493-0.97432 0.85099
   6   0   0 32461.2 949.042   9 0.23477 0.23477 0.28043-0.28012 0.95979-0.83639
  -6   0  -1 144.104 92.7421   6-0.25043-0.23366 0.96678-0.96694-0.01857-0.16036
  -6   0  -1 169.809 113.396   2-0.13778-0.34588-0.21910 0.21933-0.96831 0.78945
  -6   0  -1 69.5348 75.3025   5-0.34866-0.13531-0.01470 0.01446 0.81234-0.99138
   6   0   1 334.163 80.6610  10 0.30492 0.17946 0.78400-0.78411-0.44113 0.62011
  -6   0  -2 20089.3 771.681   6-0.27270-0.22599 0.96039-0.96054-0.01852-0.21595
  -6   0  -2 20586.8 784.669   5-0.45182-0.04676-0.07371 0.07345 0.73881-0.97337
   6   0   2 20315.3 864.049   1 0.39878 0.09955-0.65592 0.65528-0.51518 0.74929
   6   0   2 22080.9 653.677  10 0.35445 0.14453 0.82738-0.82747-0.32668 0.56120
  -6   0  -2 21084.2 847.445   2-0.05074-0.44752-0.21237 0.21257-0.95503 0.72064
   6   0   3 2118.38 309.429   1 0.46975 0.04314-0.64865 0.64806-0.45610 0.74573
  -6   0  -3 2138.25 255.300   6-0.30156-0.21172 0.95122-0.95135-0.01843-0.27158
  -6   0  -3 2241.73 275.484   5-0.54184 0.02866-0.12797 0.12769 0.65880-0.94888
  -6   0  -3 1809.43 271.789   8 0.01014-0.52332 0.36092-0.36116-0.89667 0.60638
  -6   0  -3 2159.52 302.913   2 0.02507-0.53794-0.20520 0.20537-0.93754 0.64761
   6   0   3 2353.47 234.607  10 0.39024 0.12333 0.85298-0.85305-0.23127 0.52132
  -6   0  -4 31227.9 957.041   6-0.33703-0.19085 0.93851-0.93863-0.01830-0.32724
  -6   0  -4 30033.6 1093.83   8 0.07145-0.59927 0.35101-0.35128-0.88157 0.53577
   6   0   4 29434.8 1125.01   1 0.53360-0.00615-0.63776 0.63720-0.39765 0.74279
   6   0   4 34001.8 944.927  10 0.41696 0.11120 0.86780-0.86785-0.15052 0.49610
  -6   0  -4 31060.0 1092.87   2 0.08939-0.61686-0.19818 0.19831-0.91839 0.57293
  -6   0  -5 1982.76 245.309   6-0.37914-0.16334 0.92129-0.92139-0.01811-0.38298
   6   0   5 1500.99 294.165   1 0.59086-0.04884-0.62394 0.62342-0.34032 0.74097
  -6   0  -5 1548.04 271.629   8 0.12253-0.66499 0.34168-0.34198-0.86633 0.46501
  -6   0  -5 1312.69 256.267   2 0.14274-0.68481-0.19169 0.19179-0.89948 0.49849
   6   0   5 2201.49 264.736  10 0.43758 0.10517 0.87581-0.87584-0.08063 0.48175
  -6   0  -6 6104.76 532.029   2 0.18609-0.74276-0.18596 0.18603-0.88206 0.42553
   6   0   6 5460.54 539.817   1 0.64210-0.08552-0.60776 0.60729-0.28437 0.74055
  -6   0  -6 6001.19 530.688   8 0.16415-0.72125 0.33335-0.33368-0.85209 0.39526
   6   0   6 6381.80 476.028  10 0.45395 0.10340 0.87927-0.87929-0.01878 0.47544
  -6   0  -7 7157.78 600.815   2 0.22058-0.79185-0.18111 0.18114-0.86685 0.35479
   6   0   7 6174.54 587.146   1 0.68792-0.11678-0.58967 0.58923-0.22994 0.74163
  -6   0  -7 6174.24 560.377   8 0.19727-0.76900 0.32624-0.32661-0.83958 0.32723
   6   0   7 6198.14 493.275  10 0.46721 0.10472 0.87950-0.87949 0.03708 0.47512
  -6   0  -8 114.901 134.031   8 0.22285-0.80922 0.32045-0.32086-0.82918 0.26131
   6   0   8 142.344 164.169   1 0.72888-0.14318-0.57000 0.56960-0.17704 0.74424
  -6   0  -8-82.2567 141.659   2 0.24733-0.83320-0.17716 0.17716-0.85421 0.28662
   6   0   8 174.178 118.506  10 0.47813 0.10839 0.87728-0.87726 0.08839 0.47935
   6   0   9 7000.62 670.449   1 0.76546-0.16519-0.54898 0.54863-0.12561 0.74833
  -6   0  -9 7882.58 677.867   2 0.26736-0.86783-0.17410 0.17406-0.84425 0.22113
  -6   0  -9 7506.20 658.679   8 0.24182-0.84283 0.31599-0.31643-0.82104 0.19766
   6   0   9 8058.42 630.348  10 0.48721 0.11391 0.87311-0.87306 0.13620 0.48707
   6   0  10 2665.76 447.336   1 0.79808-0.18326-0.52682 0.52650-0.07557 0.75381
  -6   0 -10 2368.15 392.877   8 0.25499-0.87064 0.31281-0.31328-0.81518 0.13629
  -6   0 -10 2484.72 410.788   2 0.28158-0.89665-0.17186 0.17180-0.83693 0.15827
   6   0  10 2407.60 375.559  10 0.49479 0.12093 0.86727-0.86720 0.18128 0.49753
   6   0  11 3812.50 548.233   1 0.82711-0.19772-0.50361 0.50333-0.02682 0.76058
  -6   0 -11 4389.33 557.337   2 0.29074-0.92041-0.17040 0.17030-0.83209 0.09790
  -6   0 -11 3419.04 505.019   8 0.26305-0.89334 0.31082-0.31133-0.81151 0.07710
   6   0  11 5169.26 560.910  10 0.50108 0.12922 0.85997-0.85988 0.22419 0.51015
  -6   0 -12 9726.94 852.645   2 0.29545-0.93973-0.16964 0.16951-0.82957 0.03984
  -6   0 -12 10730.3 873.394   8 0.26657-0.91150 0.30995-0.31049-0.80988 0.01995
   6   0  12 10010.3 798.609  10 0.50627 0.13863 0.85132-0.85121 0.26536 0.52452
   6   0  12 12110.7 980.737   1 0.85285-0.20890-0.47946 0.47922 0.02074 0.76853
  -6   0 -13 9048.76 846.532   2 0.29624-0.95511-0.16951 0.16935-0.82915-0.01611
  -6   0 -13 7014.53 736.287   8 0.26603-0.92560 0.31008-0.31066-0.81013-0.03532
   6   0  13 8928.06 887.197   1 0.87554-0.21703-0.45441 0.45421 0.06725 0.77754
   6   0  13 7729.13 734.211  10 0.51045 0.14904 0.84138-0.84125 0.30512 0.54029
  -6   0 -14-40.8541 135.188   8 0.26180-0.93601 0.31113-0.31175-0.81208-0.08888
  -6   0 -14 291.054 226.671   2 0.29349-0.96696-0.16996 0.16976-0.83062-0.07017
   6   0  14 166.195 153.085  10 0.51371 0.16037 0.83019-0.83004 0.34373 0.55722
   6   1 -18 297.232 171.500   7 0.67554-0.46938-0.57714 0.72284-0.26385-0.61212
  -6   1  18 298.162 187.520  10 0.50762-0.71478 0.68644-0.54009 0.63590 0.24038
   6   1 -17 864.508 303.806   7 0.67136-0.45056-0.60454 0.75027-0.23578-0.58464
  -6   1  17 550.188 213.917  10 0.50931-0.73107 0.69561-0.54928 0.62282 0.19792
  -6   1  16 2778.05 431.619   4 0.73501-0.97122 0.23617-0.09033 0.80640-0.04232
   6   1 -16 2541.90 461.331   7 0.66618-0.43073-0.63036 0.77612-0.20795-0.55692
  -6   1  16 2730.46 423.780  10 0.51063-0.74699 0.70319-0.55689 0.61164 0.15357
  -6   1  15 2510.02 397.074   4 0.73121-0.98199 0.23992-0.09409 0.80827-0.09964
   6   1 -15 2610.12 457.485   7 0.66007-0.40997-0.65467 0.80045-0.18037-0.52896
  -6   1  15 2214.01 362.919  10 0.51160-0.76254 0.70906-0.56277 0.60277 0.10690
  -6   1  14 473.437 176.490   4 0.72400-0.98934 0.24693-0.10112 0.81170-0.15852
   6   1 -14 678.223 257.979   7 0.65309-0.38835-0.67751 0.82332-0.15307-0.50071
  -6   1  14 629.240 206.152  10 0.51221-0.77775 0.71295-0.56668 0.59675 0.05738
   6   1 -13 8377.63 729.986   7 0.64530-0.36592-0.69893 0.84477-0.12607-0.47216
  -6   1  13 8100.46 614.031  10 0.51245-0.79258 0.71451-0.56827 0.59432 0.00428
  -6   1  13 7957.37 643.833   4 0.71292-0.99283 0.25748-0.11168 0.81668-0.21896
   6   1 -12 4881.22 543.955   7 0.63677-0.34275-0.71896 0.86483-0.09943-0.44326
  -6   1  12 4759.39 445.324  10 0.51224-0.80697 0.71316-0.56694 0.59642-0.05337
  -6   1  12 4648.33 477.458   4 0.69736-0.99183 0.27183-0.12604 0.82313-0.28086
   6   1 -11 25647.4 949.355   9 0.81004-0.50093-0.57517 0.72116 0.10545-0.59276
  -6   1  11 26646.8 907.654   6-0.21534-0.09353 0.97565-0.83014-0.01863 0.50611
   6   1 -11 23571.3 1126.48   7 0.62757-0.31890-0.73764 0.88353-0.07318-0.41396
  -6   1  11 25382.3 952.949  10 0.51143-0.82074 0.70798-0.56178 0.60441-0.11689
  -6   1  11 24170.9 1032.00   4 0.67658-0.98560 0.29023-0.14446 0.83079-0.34398
   6   1 -10 10371.7 569.851   9 0.83195-0.50825-0.55328 0.69929 0.18623-0.61802
  -6   1  10 9828.04 559.826   6-0.15511-0.16836 0.98756-0.84204-0.01868 0.45062
   6   1 -10 8984.77 683.080   7 0.61776-0.29445-0.75498 0.90090-0.04741-0.38419
  -6   1  10 9863.81 555.674  10 0.50964-0.83355 0.69745-0.55127 0.62013-0.18815
  -6   1  10 7972.69 579.262   4 0.64968-0.97326 0.31284-0.16709 0.83926-0.40790
   6   1  -9 4442.09 351.065   9 0.84993-0.51164-0.52333 0.66935 0.27745-0.65372
  -6   1   9 4353.11 375.018   6-0.10288-0.23519 0.99461-0.84908-0.01866 0.39507
   6   1  -9 3718.70 425.073   7 0.60744-0.26948-0.77099 0.91694-0.02217-0.35387
  -6   1   9 4232.08 339.337  10 0.50616-0.84465 0.67896-0.53279 0.64624-0.26979
  -6   1   9 4225.39 413.927   4 0.61568-0.95383 0.33969-0.19395 0.84786-0.47195
   6   1  -8 12271.7 547.454   9 0.86098-0.50809-0.48214 0.62818 0.38090-0.70164
  -6   1   8 11863.1 612.729   6-0.05824-0.29443 0.99828-0.85273-0.01860 0.33947
  -6   1   8 11644.3 668.629   5 0.57043-0.92284 0.40232-0.25653 0.84120-0.52051
   6   1  -8 11908.7 714.094   7 0.59668-0.24408-0.78568 0.93166 0.00241-0.32291
  -6   1   8 12986.2 536.974  10 0.49937-0.85246 0.64773-0.50158 0.68651-0.36560
  -6   1   8 11540.6 652.663   4 0.57358-0.92628 0.37059-0.22486 0.85564-0.53518
   6   1  -7 22023.1 690.952   9 0.85994-0.49246-0.42542 0.57148 0.49720-0.76241
  -6   1   7 19955.0 794.938   6-0.02086-0.34640 0.99969-0.85412-0.01853 0.28385
   6   1  -7 20420.5 855.368   3 0.76533-0.39873 0.39632-0.25016 0.69115-0.95610
  -6   1   7 19269.3 813.290   5 0.52458-0.89160 0.38677-0.24100 0.86999-0.60482
   6   1  -7 20772.7 899.530   7 0.58563-0.21838-0.79906 0.94506 0.02620-0.29116
  -6   1   7 21994.3 632.500  10 0.48566-0.85335 0.59446-0.44833 0.74613-0.48075
  -6   1   7 19442.7 824.935   4 0.52245-0.88972 0.40501-0.25930 0.86134-0.59633
   6   1  -6 22007.6 657.579   9 0.83882-0.45675-0.34830 0.49438 0.62365-0.83335
  -6   1   6 21121.4 813.044   6 0.00950-0.39136 0.99973-0.85415-0.01844 0.22823
   6   1  -6 20755.5 851.725   3 0.70333-0.32207 0.39279-0.24667 0.75703-0.96645
  -6   1   6 20525.3 804.956   5 0.46483-0.84646 0.36531-0.21956 0.90062-0.69097
   6   1  -6 20569.3 853.050   7 0.57442-0.19253-0.81110 0.95713 0.04904-0.25845
  -6   1   6 21374.0 846.919   4 0.46169-0.84352 0.44208-0.29638 0.86342-0.65387
   6   1  -5 4089.49 278.027   9 0.78763-0.39096-0.24738 0.39348 0.75121-0.90538
  -6   1   5 3868.22 357.358   6 0.03306-0.42952 0.99908-0.85349-0.01836 0.17262
   6   1  -5 3575.19 359.787   3 0.63022-0.23430 0.38443-0.23836 0.81685-0.97074
  -6   1   5 4162.71 352.375   5 0.38822-0.78446 0.33610-0.19038 0.93018-0.77605
   6   1  -5 3855.14 355.719   7 0.56325-0.16672-0.82179 0.96786 0.07068-0.22454
  -6   1   5 3770.29 360.132   4 0.39119-0.78758 0.48049-0.33481 0.86025-0.70615
   6   1  -4 13147.2 485.861   9 0.69873-0.28747-0.12480 0.27092 0.86319-0.96184
  -6   1   4 12880.9 639.200   6 0.04997-0.46102 0.99825-0.85264-0.01830 0.11702
   6   1  -4 12278.7 636.394   3 0.54703-0.13645 0.37096-0.22493 0.86804-0.96639
  -6   1   4 13625.6 603.387   5 0.29233-0.70318 0.29724-0.15155 0.95397-0.85536
   6   1  -4 12539.3 605.551   7 0.55238-0.14121-0.83111 0.97720 0.09080-0.18911
  -6   1   4 14206.0 673.755   4 0.31157-0.72252 0.51859-0.37293 0.85026-0.75161
   6   1  -3 6312.04 339.694   9 0.57431-0.14846 0.00870 0.13743 0.94076-0.98388
  -6   1   3 6971.40 472.641   6 0.06033-0.48598 0.99759-0.85196-0.01826 0.06144
   6   1  -3 6641.09 465.330   3 0.45598-0.03074 0.35254-0.20654 0.90838-0.95120
  -6   1   3 6171.05 395.980   5 0.17652-0.60198 0.24736-0.10169 0.96567-0.92258
   6   1  -3 6333.58 409.119   7 0.54218-0.11636-0.83898 0.98510 0.10894-0.15171
  -6   1   2 46883.1 1208.24   6 0.06423-0.50448 0.99731-0.85166-0.01825 0.00589
  -6   1   2 46629.0 1058.10   5 0.04347-0.48354 0.18646-0.04080 0.95840-0.97082
   6   1  -2 45708.7 1212.99   3 0.36038 0.07952 0.32985-0.18389 0.93651-0.92380
   6   1  -2 47289.2 1051.24   7 0.53316-0.09270-0.84532 0.99146 0.12446-0.11168
   6   1  -2 46688.7 1007.01  10-0.07036 0.51093 0.28868-0.14301-0.93965 0.95207
   6   1  -2 47542.9 960.575   9 0.42933 0.01111 0.13691 0.00924 0.97423-0.96182
  -6   1   1 9732.64 559.694   6 0.06170-0.51654 0.99749-0.85183-0.01826-0.04964
  -6   1   1 9487.56 472.594   5-0.10005-0.35463 0.11666 0.02897 0.92699-0.99493
   6   1  -1 9409.76 440.441   7 0.52606-0.07096-0.84991 0.99609 0.13633-0.06800
   6   1  -1 10006.6 472.759  10 0.01307 0.44208 0.41858-0.27288-0.87256 0.94051
   6   1  -1 9211.08 509.952   1 0.38758 0.06684-0.65664 0.80156-0.52399 0.59165
   6   1  -1 9308.67 444.254   9 0.28417 0.17086 0.24653-0.10036 0.96874-0.90081
  -6   1   0 2371.26 283.854   6 0.05272-0.52216 0.99809-0.85241-0.01829-0.10514
  -6   1   0 2712.86 255.018   5-0.24414-0.22515 0.04225 0.10336 0.87043-0.99389
   6   1   0 2494.25 214.543   7 0.52206-0.05232-0.85236 0.99856 0.14290-0.01902
   6   1   0 2222.14 271.753   1 0.45883 0.01014-0.65009 0.79505-0.46557 0.58875
   6   1   0 2658.00 250.325  10 0.09227 0.37748 0.53221-0.38649-0.78751 0.91100
  -6   1   0 2377.51 282.875   2-0.32799-0.14115-0.22799 0.37388-0.97086 0.84762
  -6   1  -1 60159.4 1376.68   6 0.03726-0.52130 0.99891-0.85321-0.01835-0.16062
  -6   1  -1 61801.7 1218.83   5-0.37873-0.10517-0.03159 0.17717 0.79269-0.97167
  -6   1  -1 60009.0 1476.32   8-0.05278-0.43108 0.36964-0.22393-0.90855 0.72939
   6   1   1 58410.4 1391.76   1 0.52195-0.03841-0.64008 0.78509-0.40872 0.58742
   6   1   1 63493.1 978.300   7 0.52311-0.03871-0.85173 0.99796 0.14119 0.03823
   6   1   1 61740.7 1230.25  10 0.16310 0.32124 0.62551-0.47978-0.69300 0.87203
  -6   1  -1 61565.0 1306.20   7 0.02814-0.51224 0.72879-0.58357-0.65239 0.47312
  -6   1  -1 60790.2 1380.30   2-0.22942-0.25433-0.22441 0.37026-0.97424 0.79547
  -6   1  -2 19655.1 789.112   6 0.01522-0.51385 0.99963-0.85392-0.01842-0.21609
  -6   1  -2 20632.7 720.631   5-0.49663-0.00188-0.10036 0.24593 0.70105-0.93554
   6   1   2 19753.8 854.863   1 0.57782-0.07972-0.62745 0.77250-0.35381 0.58803
  -6   1  -2 19836.6 875.002   8 0.02337-0.52187 0.35890-0.21322-0.89370 0.65902
   6   1   2 20924.7 745.005  10 0.22393 0.27500 0.69866-0.55291-0.59642 0.83099
  -6   1  -2 20819.9 753.247   7 0.07429-0.57303 0.69215-0.54695-0.67284 0.43802
  -6   1  -2 20130.6 816.624   2-0.13828-0.36007-0.21913 0.36495-0.96837 0.73406
  -6   1  -3 68.8226 73.8479   7 0.11708-0.63047 0.65504-0.50987-0.68914 0.39877
  -6   1  -3 36.8890 92.4998   6-0.01355-0.49968 0.99979-0.85406-0.01851-0.27154
  -6   1  -3 30.1576 113.846   2-0.05703-0.45591-0.21291 0.35869-0.95624 0.66640
  -6   1  -3 12.6710 100.744   8 0.08863-0.60177 0.34798-0.20234-0.87672 0.58652
   6   1   3 29.0952 73.5424  10 0.27494 0.23858 0.75424-0.60846-0.50265 0.79275
   6   1   3-33.5762 151.052   1 0.62737-0.11471-0.61282 0.75790-0.30094 0.59067
  -6   1  -4 23064.1 861.378   6-0.04924-0.47859 0.99875-0.85301-0.01859-0.32700
   6   1   4 22628.4 990.325   1 0.67143-0.14420-0.59662 0.74174-0.25006 0.59530
  -6   1  -4 21921.2 983.708   8 0.14332-0.67110 0.33760-0.19199-0.85942 0.51372
   6   1   4 22732.1 853.097  10 0.31728 0.21084 0.79555-0.64976-0.41418 0.75982
  -6   1  -4 24692.6 823.947   7 0.15564-0.68367 0.61895-0.47381-0.70156 0.35565
  -6   1  -4 22122.3 906.639   2 0.01321-0.54076-0.20640 0.35215-0.94064 0.59526
  -6   1  -5 21735.1 836.402   6-0.09212-0.45031 0.99569-0.84994-0.01865-0.38247
   6   1   5 19936.2 976.001   1 0.71073-0.16894-0.57917 0.72433-0.20103 0.60179
  -6   1  -5 20346.0 976.042   8 0.18824-0.73066 0.32822-0.18264-0.84310 0.44187
  -6   1  -5 21660.5 782.270   7 0.18933-0.73200 0.58530-0.44018-0.71060 0.30914
   6   1   5 21257.7 870.868  10 0.35237 0.19034 0.82572-0.67991-0.33187 0.73305
  -6   1  -5 19541.4 881.834   2 0.07240-0.61455-0.20012 0.34583-0.92384 0.52293
  -6   1  -6 19037.2 902.042   2 0.12117-0.67792-0.19438 0.34007-0.90746 0.45102
   6   1   6 17597.4 957.217   1 0.74587-0.18952-0.56068 0.70588-0.15369 0.60997
  -6   1  -6 17355.5 932.785   8 0.22437-0.78143 0.32010-0.17456-0.82854 0.37180
   6   1   6 18798.2 862.258  10 0.38154 0.17576 0.84729-0.70146-0.25564 0.71235
  -6   1  -7 28705.9 1144.63   2 0.16049-0.73185-0.18939 0.33504-0.89257 0.38060
  -6   1  -7 28750.4 1238.72   8 0.25275-0.82445 0.31335-0.16785-0.81619 0.30393
   6   1   7 30021.2 1142.33  10 0.40594 0.16596 0.86221-0.71635-0.18499 0.69724
   6   1   7 28081.4 1252.86   1 0.77736-0.20644-0.54131 0.68656-0.10786 0.61966
   6   1   8 1046.65 288.928   1 0.80560-0.22012-0.52116 0.66644-0.06338 0.63069
  -6   1  -8 1485.95 312.678   8 0.27435-0.86068 0.30800-0.16253-0.80625 0.23847
  -6   1  -8 1347.13 284.954   2 0.19144-0.77739-0.18523 0.33084-0.87978 0.31227
   6   1   8 1198.47 252.407  10 0.42647 0.16002 0.87192-0.72605-0.11926 0.68705
  -6   1  -9 9553.59 725.238   2 0.21506-0.81561-0.18190 0.32748-0.86936 0.24633
  -6   1  -9 10067.3 785.910   8 0.29002-0.89099 0.30399-0.15855-0.79873 0.17544
   6   1   9 10105.9 732.677  10 0.44383 0.15725 0.87748-0.73159-0.05778 0.68110
   6   1   9 11438.4 874.752   1 0.83092-0.23087-0.50028 0.64560-0.02008 0.64291
  -6   1 -10 1068.48 284.916   8 0.30051-0.91613 0.30125-0.15585-0.79355 0.11474
  -6   1 -10 1385.42 315.440   2 0.23229-0.84745-0.17940 0.32495-0.86141 0.18283
   6   1  10 1373.24 297.076  10 0.45858 0.15709 0.87966-0.73374 0.00006 0.67880
   6   1  10 1072.79 320.406   1 0.85358-0.23898-0.47872 0.62408 0.02217 0.65617
  -6   1 -11 4555.71 549.512   2 0.24395-0.87371-0.17767 0.32318-0.85585 0.12174
  -6   1 -11 4972.63 611.286   8 0.30644-0.93669 0.29968-0.15431-0.79057 0.05625
   6   1  11 5196.84 578.489  10 0.47112 0.15914 0.87900-0.73306 0.05481 0.67959
   6   1  11 4781.90 625.018   1 0.87380-0.24464-0.45648 0.60188 0.06351 0.67036
  -6   1 -12 4168.30 552.024   2 0.25071-0.89507-0.17665 0.32213-0.85256 0.06292
  -6   1 -12 4259.73 580.226   8 0.30831-0.95320 0.29918-0.15385-0.78962-0.00022
   6   1  12 4221.57 547.856  10 0.48178 0.16308 0.87591-0.72995 0.10692 0.68302
  -6   1 -13 1013.79 322.044   8 0.30653-0.96606 0.29965-0.15436-0.79052-0.05483
  -6   1 -13 1219.62 337.787   2 0.25315-0.91211-0.17628 0.32173-0.85136 0.00619
   6   1  13 1416.25 335.964  10 0.49079 0.16866 0.87067-0.72470 0.15679 0.68868
  -6   1 -14 1608.11 382.909   8 0.30143-0.97560 0.30101-0.15574-0.79309-0.10778
  -6   1 -14 1343.43 338.359   2 0.25170-0.92527-0.17650 0.32191-0.85207-0.04863
   6   1  14 1653.87 371.732  10 0.49834 0.17570 0.86349-0.71750 0.20475 0.69626
  -6   2  18 147.815 162.424   4 0.73587-0.94294 0.23532 0.05626 0.80597 0.06906
   6   2 -18 209.605 184.461   7 0.68126-0.47495-0.48375 0.77518-0.34991-0.52598
  -6   2  17 3603.93 540.081   4 0.73773-0.95935 0.23347 0.05810 0.80503 0.01454
   6   2 -17 3850.28 592.060   7 0.68090-0.45995-0.50848 0.79993-0.32842-0.49193
  -6   2  16 571.794 246.891   4 0.73712-0.97331 0.23407 0.05748 0.80534-0.04122
   6   2 -16 201.883 194.158   7 0.67985-0.44425-0.53157 0.82306-0.30754-0.45726
  -6   2  15 1229.11 325.531   4 0.73386-0.98461 0.23730 0.05423 0.80697-0.09830
   6   2 -15 1497.22 341.861   7 0.67820-0.42796-0.55307 0.84459-0.28735-0.42190
   6   2 -14 3673.26 531.070   7 0.67606-0.41118-0.57300 0.86454-0.26796-0.38575
  -6   2  14 3283.28 475.109   4 0.72769-0.99300 0.24336 0.04816 0.80996-0.15675
   6   2 -13 4758.19 586.247   7 0.67354-0.39401-0.59135 0.88291-0.24948-0.34869
  -6   2  13 4170.14 512.441   4 0.71825-0.99812 0.25245 0.03906 0.81433-0.21657
   6   2 -12 3687.09 496.324   7 0.67072-0.37655-0.60810 0.89969-0.23204-0.31058
  -6   2  12 3274.00 443.755   4 0.70508-0.99951 0.26478 0.02672 0.82001-0.27770
  -6   2  11 2366.06 304.189   6 0.03478-0.34359 0.99901-0.70765-0.01836 0.50580
  -6   2  11 2122.58 353.670   4 0.68765-0.99664 0.28053 0.01094 0.82684-0.33998
   6   2 -11 1692.79 348.655   7 0.66775-0.35893-0.62320 0.91482-0.21582-0.27125
  -6   2  10 7444.46 528.995   6 0.08917-0.41259 0.99513-0.70376-0.01814 0.45004
   6   2 -10 7187.87 632.904   7 0.66474-0.34128-0.63658 0.92823-0.20104-0.23049
  -6   2  10 6801.93 588.946   4 0.66530-0.98885 0.29987-0.00841 0.83453-0.40313
  -6   2   9 12760.1 691.165   6 0.13573-0.47374 0.98926-0.69787-0.01790 0.39426
   6   2  -9 13647.2 827.429   7 0.66184-0.32374-0.64811 0.93979-0.18796-0.18802
  -6   2   9 13462.0 800.856   4 0.63728-0.97540 0.32284-0.03140 0.84265-0.46671
  -6   2   8 3793.10 379.577   6 0.17506-0.52767 0.98244-0.69103-0.01767 0.33849
   6   2  -8 3327.70 403.204   7 0.65923-0.30649-0.65762 0.94933-0.17692-0.14351
  -6   2   8 2854.84 380.144   4 0.60282-0.95549 0.34940-0.05797 0.85056-0.53006
  -6   2   7 10658.0 627.425   6 0.20766-0.57487 0.97546-0.68403-0.01745 0.28274
   6   2  -7 9812.88 618.457   3 0.73733-0.37067 0.39521-0.10339 0.72299-0.98804
  -6   2   7 12050.8 642.106   5 0.56467-0.93162 0.40042-0.10883 0.84509-0.57986
   6   2  -7 10892.1 684.649   7 0.65711-0.28972-0.66485 0.95659-0.16837-0.09651
  -6   2   7 10555.4 674.384   4 0.56111-0.92834 0.37928-0.08786 0.85739-0.59235
  -6   2   6 25919.9 978.189   6 0.23391-0.61572 0.96895-0.67751-0.01726 0.22701
   6   2  -6 23348.5 929.609   3 0.67135-0.29002 0.38960-0.09782 0.78521-0.99473
  -6   2   6 26231.3 891.965   5 0.50534-0.88690 0.38000-0.08843 0.88065-0.67094
   6   2  -6 25120.5 988.844   7 0.65570-0.27367-0.66942 0.96118-0.16290-0.04644
  -6   2   6 24876.3 1007.50   4 0.51147-0.89326 0.41201-0.12061 0.86207-0.65248
  -6   2   5 23087.4 925.671   6 0.25412-0.65052 0.96339-0.67193-0.01710 0.17132
   6   2  -5 21428.7 876.623   3 0.59571-0.19973 0.37929-0.08755 0.83998-0.99397
  -6   2   5 23226.0 791.859   5 0.42593-0.82210 0.35070-0.05915 0.91690-0.76271
   6   2  -5 23160.4 906.071   7 0.65528-0.25860-0.67076 0.96255-0.16128 0.00749
  -6   2   5 21410.2 922.537   4 0.45345-0.84981 0.44681-0.15542 0.86335-0.70921
  -6   2   4 45922.4 1299.84   6 0.26851-0.67951 0.95913-0.66766-0.01699 0.11566
   6   2  -4 46253.6 1276.19   3 0.51209-0.10145 0.36430-0.07259 0.88525-0.98371
  -6   2   4 49963.0 1103.38   5 0.32151-0.73229 0.30932-0.01780 0.94816-0.84949
   6   2  -4 51451.0 1008.11   1 0.52328-0.11277-0.63982 0.93031-0.40747 0.30868
   6   2  -4 45345.4 1213.10   7 0.65615-0.24483-0.66799 0.95981-0.16462 0.06638
  -6   2   4 47981.9 1355.10   4 0.38697-0.79789 0.48264-0.19127 0.85988-0.76120
  -6   2   3 44536.6 1291.03   6 0.27725-0.70284 0.95642-0.66494-0.01691 0.06005
   6   2  -3 49245.5 1047.60   1 0.57360-0.14853-0.62855 0.91907-0.35813 0.31486
   6   2  -3 45158.4 1265.63   3 0.42307 0.00224 0.34508-0.05342 0.91957-0.96250
  -6   2   3 46332.8 1009.91   5 0.18865-0.61404 0.25273 0.03877 0.96526-0.92210
   6   2  -3 46903.3 1159.81   7 0.65864-0.23267-0.65969 0.95154-0.17449 0.13179
   6   2  -3 45299.7 1200.73  10-0.14126 0.56719 0.16990 0.12160-0.97807 0.93500
  -6   2   3 43261.2 1275.70   4 0.31246-0.73793 0.51819-0.22684 0.85040-0.80717
  -6   2   2 7913.25 550.901   6 0.28045-0.72064 0.95541-0.66391-0.01689 0.00449
   6   2  -2 8409.05 464.500   1 0.61731-0.17767-0.61608 0.90664-0.31204 0.32428
  -6   2   2 8567.85 418.793   5 0.02863-0.46863 0.17944 0.11204 0.95628-0.96864
   6   2  -2 8056.20 542.469   3 0.33187 0.10810 0.32250-0.03088 0.94243-0.92983
   6   2  -2 8413.96 464.212   7 0.66303-0.22243-0.64350 0.93538-0.19322 0.20607
   6   2  -2 7896.88 502.255  10-0.08207 0.52259 0.26962 0.02191-0.94720 0.95967
   6   2  -1 14272.8 671.794  10-0.02069 0.47580 0.36728-0.07573-0.90249 0.97049
  -6   2   1 14208.9 734.195   6 0.27815-0.73293 0.95614-0.66462-0.01691-0.05103
   6   2  -1 14460.7 642.013   1 0.65582-0.20162-0.60274 0.89334-0.26855 0.33632
  -6   2   1 15444.8 542.029   5-0.14904-0.30557 0.09186 0.19959 0.91065-0.97853
   6   2  -1 15523.5 583.725   7 0.66939-0.21414-0.61514 0.90704-0.22453 0.29293
  -6   2   1 14128.9 726.628   7 0.04990-0.50457 0.71195-0.42094-0.66241 0.59430
   6   2   0 46517.8 1200.71   1 0.69017-0.22141-0.58868 0.87933-0.22715 0.35043
  -6   2   0 44262.8 1282.22   6 0.27033-0.73972 0.95857-0.66704-0.01697-0.10651
  -6   2   0 49700.3 957.317   5-0.32672-0.14250-0.00252 0.29395 0.82582-0.94922
   6   2   0 50665.6 959.240   7 0.67688-0.20698-0.56609 0.85801-0.27477 0.39871
   6   2   0 44790.7 1208.08  10 0.04043 0.42927 0.45890-0.16734-0.84555 0.96909
  -6   2   0 44321.7 1275.01   7 0.09416-0.56347 0.67529-0.38431-0.68074 0.55708
  -6   2  -1 1365.88 241.755   7 0.13546-0.61941 0.63816-0.34721-0.69533 0.51613
  -6   2  -1 884.783 179.113   2-0.37066-0.11317-0.22881 0.52027-0.96605 0.78736
  -6   2  -1 1064.51 221.292   6 0.25695-0.74093 0.96257-0.67102-0.01708-0.16193
  -6   2  -1 1219.21 151.823   5-0.48525 0.00142-0.09353 0.38494 0.71101-0.88992
  -6   2  -1 954.699 206.849   8-0.01031-0.47352 0.36392-0.07232-0.90093 0.72186
   6   2   1 985.795 197.935   1 0.72111-0.23779-0.57402 0.86470-0.18742 0.36622
   6   2   1 1356.66 222.252  10 0.09910 0.38519 0.54157-0.24998-0.77917 0.95825
   6   2   2 3770.35 391.236   1 0.74918-0.25130-0.55878 0.84950-0.14903 0.38335
  -6   2  -2 4083.13 395.504   6 0.23785-0.73643 0.96790-0.67634-0.01723-0.21732
  -6   2  -2 4080.63 416.590   8 0.06098-0.55945 0.35280-0.06124-0.88439 0.64981
   6   2   2 4099.74 385.921  10 0.15374 0.34515 0.61365-0.32205-0.70655 0.94117
  -6   2  -2 3717.58 372.453   7 0.17320-0.67180 0.60166-0.31073-0.70649 0.47174
  -6   2  -2 3991.67 372.140   2-0.27740-0.22103-0.22644 0.51787-0.97391 0.73969
  -6   2  -3 37108.3 1184.97   6 0.21286-0.72603 0.97423-0.68265-0.01742-0.27268
  -6   2  -3 39151.2 1312.57   8 0.12149-0.63460 0.34188-0.05036-0.86666 0.57656
   6   2   3 38374.5 1194.89  10 0.20342 0.31006 0.67478-0.38316-0.63070 0.92086
  -6   2  -3 37881.8 1180.74   7 0.20699-0.72023 0.56683-0.27593-0.71464 0.42434
  -6   2  -3 38782.1 1155.41   2-0.19101-0.32202-0.22241 0.51381-0.97279 0.68303
   6   2   3 37269.1 1255.77   1 0.77479-0.26235-0.54301 0.83377-0.11173 0.40157
  -6   2  -4 26879.2 1005.04   6 0.18169-0.70947 0.98111-0.68952-0.01763-0.32800
  -6   2  -4 26015.8 1105.70   8 0.17188-0.69962 0.33173-0.04024-0.84927 0.50365
   6   2   4 26676.7 1028.07  10 0.24785 0.28022 0.72544-0.43380-0.55402 0.89972
  -6   2  -4 26018.5 991.624   7 0.23657-0.76445 0.53460-0.24373-0.72028 0.37444
  -6   2  -4 28429.1 1011.37   2-0.11382-0.41381-0.21740 0.50877-0.96539 0.62011
   6   2   4 25686.6 1089.23   1 0.79823-0.27123-0.52670 0.81750-0.07533 0.42067
  -6   2  -5 62.7721 81.2341   7 0.26182-0.80434 0.50572-0.21488-0.72395 0.32256
   6   2   5 45.9607 139.960   1 0.81973-0.27816-0.50987 0.80071-0.03965 0.44052
  -6   2  -5 136.638 103.460   6 0.14400-0.68637 0.98797-0.69636-0.01786-0.38331
  -6   2  -5 45.2302 101.678   2-0.04693-0.49530-0.21203 0.50336-0.95428 0.55347
  -6   2  -5 71.0774 113.699   8 0.21307-0.75545 0.32269-0.03124-0.83323 0.43210
   6   2   5 14.5906 94.8506  10 0.28714 0.25553 0.76663-0.47496-0.47825 0.87947
  -6   2  -6 8399.16 564.592   6 0.09932-0.65629 0.99406-0.70243-0.01809-0.43862
  -6   2  -6 7425.81 641.825   8 0.24611-0.80312 0.31496-0.02354-0.81915 0.36250
  -6   2  -6 7713.00 565.998   7 0.28276-0.83993 0.48078-0.18996-0.72614 0.26920
   6   2   6 7213.08 581.619  10 0.32163 0.23563 0.79951-0.50783-0.40446 0.86122
   6   2   6 6224.32 596.791   1 0.83946-0.28333-0.49251 0.78339-0.00458 0.46097
  -6   2  -6 7544.69 565.363   2 0.00954-0.56638-0.20677 0.49806-0.94157 0.48522
  -6   2  -7 5476.02 580.657   8 0.27198-0.84364 0.30859-0.01721-0.80736 0.29519
  -6   2  -7 5857.21 496.085   7 0.29950-0.87132 0.46017-0.16938-0.72732 0.21484
   6   2   7 5383.31 525.762  10 0.35181 0.22005 0.82528-0.53357-0.33326 0.84556
   6   2   7 5754.55 602.975   1 0.85755-0.28686-0.47461 0.76553 0.02998 0.48192
  -6   2  -7 6244.60 537.885   2 0.05612-0.62756-0.20192 0.49318-0.92879 0.41691
  -6   2  -8 3747.38 494.084   8 0.29160-0.87790 0.30358-0.01223-0.79795 0.23027
   6   2   8 3783.11 455.266  10 0.37816 0.20828 0.84498-0.55326-0.26490 0.83273
   6   2   8 3819.51 522.578   1 0.87409-0.28883-0.45615 0.74711 0.06411 0.50331
  -6   2  -8 4878.72 490.313   2 0.09364-0.67968-0.19768 0.48891-0.91699 0.34957
  -6   2  -9 2231.70 412.625   8 0.30575-0.90669 0.29986-0.00855-0.79092 0.16772
  -6   2  -9 2185.68 381.644   2 0.12306-0.72370-0.19415 0.48535-0.90678 0.28383
   6   2   9 1818.88 337.545  10 0.40116 0.19988 0.85955-0.56780-0.19940 0.82278
  -6   2 -10 7526.88 650.278   2 0.14531-0.76055-0.19136 0.48252-0.89850 0.22002
  -6   2 -10 6922.63 711.923   8 0.31511-0.93068 0.29736-0.00608-0.78615 0.10743
   6   2  10 6896.36 676.527  10 0.42123 0.19440 0.86973-0.57797-0.13667 0.81558
  -6   2 -11 1104.23 334.172   8 0.32023-0.95044 0.29597-0.00472-0.78350 0.04927
  -6   2 -11 679.126 227.360   2 0.16124-0.79108-0.18929 0.48042-0.89228 0.15826
   6   2  11 959.301 269.234  10 0.43873 0.19150 0.87614-0.58436-0.07652 0.81097
  -6   2 -12 2226.42 454.423   8 0.32156-0.96641 0.29561-0.00440-0.78280-0.00694
   6   2  12 2395.53 415.213  10 0.45396 0.19086 0.87927-0.58747-0.01873 0.80872
  -6   2 -13 1140.33 343.880   8 0.31948-0.97896 0.29617-0.00500-0.78389-0.06138
   6   2  13 1118.78 319.210  10 0.46718 0.19223 0.87950-0.58768 0.03692 0.80860
  -6   3  17 35.6444 175.564   4 0.72365-0.94524 0.24728 0.19000 0.81186 0.00775
  -6   3  16 760.570 287.020   4 0.72280-0.95895 0.24810 0.18916 0.81226-0.04810
   6   3 -16 587.768 250.530   7 0.67897-0.44323-0.42127 0.85848-0.40065-0.36408
  -6   3  15 1334.75 334.970   4 0.71948-0.97020 0.25127 0.18597 0.81377-0.10507
   6   3 -15 1479.42 391.054   7 0.68006-0.42967-0.43887 0.87611-0.38685-0.32233
  -6   3  14 2524.40 467.584   4 0.71349-0.97876 0.25695 0.18028 0.81644-0.16319
   6   3 -14 1722.52 386.447   7 0.68074-0.41571-0.45457 0.89183-0.37422-0.27941
   6   3 -13 4549.55 579.852   7 0.68111-0.40144-0.46829 0.90558-0.36293-0.23516
  -6   3  13 4688.53 585.095   4 0.70453-0.98437 0.26529 0.17193 0.82024-0.22244
  -6   3  12 24.2576 149.781   4 0.69225-0.98665 0.27643 0.16077 0.82511-0.28276
   6   3 -12 126.383 145.908   7 0.68125-0.38693-0.47991 0.91724-0.35318-0.18937
   6   3 -11 4761.10 564.858   7 0.68125-0.37229-0.48928 0.92663-0.34519-0.14181
  -6   3  11 5236.06 588.698   4 0.67623-0.98519 0.29053 0.14666 0.83091-0.34402
  -6   3  10 668.698 240.879   4 0.65596-0.97948 0.30767 0.12950 0.83742-0.40598
  -6   3  10 881.336 215.595   6 0.25624-0.57960 0.96278-0.52554-0.01709 0.44895
   6   3 -10 471.170 187.721   7 0.68118-0.35757-0.49614 0.93352-0.33925-0.09220
  -6   3   9 9153.80 650.673   6 0.29507-0.63303 0.95061-0.51337-0.01676 0.39308
   6   3  -9 9169.26 719.541   7 0.68111-0.34286-0.50021 0.93761-0.33571-0.04020
  -6   3   9 9194.01 727.755   4 0.63088-0.96896 0.32792 0.10924 0.84429-0.46830
   6   3  -8 17677.9 954.099   7 0.68109-0.32820-0.50103 0.93846-0.33498 0.01463
  -6   3   8 18228.1 992.571   4 0.60035-0.95300 0.35123 0.08591 0.85104-0.53051
  -6   3   7 935.329 245.134   4 0.56377-0.93097 0.37745 0.05968 0.85704-0.59196
   6   3  -7 1070.40 244.636   3 0.73242-0.36569 0.39493 0.04256 0.72820-0.99335
  -6   3   7 1397.50 214.382   5 0.57356-0.94044 0.40335 0.03406 0.83905-0.57376
   6   3  -7 972.354 222.830   7 0.68115-0.31361-0.49803 0.93550-0.33760 0.07279
   6   3  -6 18071.0 850.038   3 0.66675-0.28536 0.38908 0.04837 0.78899-0.99861
   6   3  -6 17636.5 881.981   7 0.68124-0.29906-0.49040 0.92789-0.34422 0.13496
  -6   3   6 18136.8 941.070   4 0.52052-0.90228 0.40626 0.03085 0.86148-0.65185
  -6   3   5 441.830 192.178   4 0.47014-0.86646 0.43716-0.00006 0.86341-0.70924
   6   3  -5 538.875 170.724   3 0.59271-0.19666 0.37881 0.05860 0.84186-0.99596
   6   3  -5 324.266 135.756   7 0.68123-0.28441-0.47698 0.91450-0.35566 0.20194
  -6   3   4 915.089 250.585   4 0.41235-0.82324 0.46944-0.03236 0.86179-0.76307
   6   3  -4 748.686 192.575   3 0.51215-0.10144 0.36431 0.07306 0.88523-0.98379
   6   3  -4 857.376 191.781   7 0.68079-0.26932-0.45612 0.89366-0.37296 0.27479
   6   3  -3 3259.31 369.864   3 0.42761-0.00223 0.34613 0.09120 0.91813-0.96116
   6   3  -3 4038.14 372.662   7 0.67925-0.25314-0.42536 0.86293-0.39747 0.35485
   6   3  -3 3748.31 403.816  10-0.11643 0.54231 0.21243 0.22493-0.96663 0.92362
  -6   3   3 3787.16 432.660   7 0.02561-0.45084 0.73070-0.29391-0.65118 0.69424
  -6   3   3 3872.34 430.513   4 0.34719-0.77263 0.50220-0.06513 0.85552-0.81225
   6   3  -2 35734.1 1197.56   3 0.34197 0.09806 0.32514 0.11216 0.94046-0.92796
   6   3  -2 39408.9 1065.47   7 0.67528-0.23452-0.38097 0.81857-0.43088 0.44381
   6   3  -2 37047.1 1245.73  10-0.06961 0.51009 0.28990 0.14748-0.93915 0.95168
  -6   3   2 36084.8 1296.89   7 0.06847-0.50835 0.69696-0.26020-0.67043 0.65794
  -6   3   2 34489.1 1222.85   4 0.27505-0.71506 0.53435-0.09730 0.84359-0.85577
   6   3  -1 5118.86 472.266  10-0.02106 0.47613 0.36670 0.07069-0.90279 0.97085
  -6   3   1 5103.50 496.768   7 0.10893-0.56344 0.66235-0.22561-0.68624 0.61820
   6   3  -1 5773.69 417.700   1 0.86560-0.41162-0.46590 0.90219 0.04625 0.02162
   6   3   0 8320.99 604.237  10 0.02802 0.44164 0.44075-0.00334-0.85811 0.98170
  -6   3   0 8682.88 646.873   7 0.14652-0.61569 0.62772-0.19101-0.69882 0.57524
   6   3   0 10250.4 589.155   1 0.86845-0.39992-0.46269 0.89902 0.05217 0.07122
  -6   3  -1 38638.5 1285.75   8-0.01047-0.47331 0.36394 0.07353-0.90096 0.72198
   6   3   1 39862.0 1320.60  10 0.07646 0.40780 0.51029-0.07285-0.80617 0.98531
  -6   3  -1 37994.3 1333.17   7 0.18093-0.66473 0.59388-0.15720-0.70851 0.52938
   6   3   1 41276.0 1241.92   1 0.87348-0.39038-0.45687 0.89323 0.06280 0.11610
  -6   3  -2 10521.4 692.357   8 0.05800-0.55643 0.35331 0.08413-0.88518 0.65069
   6   3   2 10374.1 691.312  10 0.12323 0.37562 0.57400-0.13654-0.74843 0.98310
  -6   3  -2 11684.4 747.215   7 0.21190-0.71035 0.56160-0.12494-0.71567 0.48100
  -6   3  -3 591.072 198.350   7 0.23930-0.75240 0.53153-0.09490-0.72073 0.43051
  -6   3  -3 483.079 180.652   8 0.11606-0.62912 0.34292 0.09448-0.86840 0.57839
   6   3   3 317.761 143.799  10 0.16756 0.34588 0.63110-0.19363-0.68643 0.97664
  -6   3  -4 2886.28 393.865   8 0.16445-0.69215 0.33329 0.10408-0.85199 0.50646
   6   3   4 2534.25 366.724  10 0.20893 0.31910 0.68128-0.24379-0.62167 0.96741
  -6   3  -4 2934.63 389.673   7 0.26311-0.79084 0.50421-0.06761-0.72410 0.37833
  -6   3  -5 5737.32 571.829   8 0.20413-0.74647 0.32471 0.11262-0.83685 0.43581
   6   3   5 4689.26 507.420  10 0.24708 0.29554 0.72460-0.28709-0.55543 0.95671
  -6   3  -5 4525.59 485.276   7 0.28334-0.82572 0.48008-0.04351-0.72619 0.32487
  -6   3  -6 9571.35 673.275   6 0.26311-0.82001 0.96076-0.52327-0.01703-0.43972
  -6   3  -6 7761.67 684.356   8 0.23609-0.79307 0.31735 0.11994-0.82354 0.36698
  -6   3  -6 8342.79 664.315   7 0.30009-0.85711 0.45944-0.02289-0.72735 0.27049
   6   3   6 8086.32 676.512  10 0.28193 0.27529 0.76138-0.32385-0.48877 0.94559
  -6   3  -7 4945.90 567.352   8 0.26126-0.83288 0.31127 0.12600-0.81233 0.30025
  -6   3  -7 4946.27 523.705   7 0.31347-0.88514 0.44249-0.00598-0.72789 0.21548
   6   3   7 5246.94 569.375  10 0.31353 0.25828 0.79209-0.35454-0.42247 0.93482
  -6   3  -8 8001.72 737.644   8 0.28049-0.86674 0.30644 0.13079-0.80333 0.23574
  -6   3  -8 8396.70 689.435   7 0.32363-0.90994 0.42936 0.00712-0.72807 0.16012
   6   3   8 8709.82 746.904  10 0.34203 0.24437 0.81727-0.37970-0.35708 0.92497
  -6   3  -9-137.255 157.017   8 0.29449-0.89538 0.30283 0.13436-0.79654 0.17343
   6   3   9 117.347 123.720  10 0.36764 0.23336 0.83746-0.39987-0.29297 0.91639
  -6   3 -10 669.343 268.858   8 0.30388-0.91941 0.30036 0.13680-0.79186 0.11324
   6   3  10 269.442 180.521  10 0.39057 0.22502 0.85318-0.41557-0.23033 0.90929
  -6   3 -11 413.847 232.830   8 0.30919-0.93936 0.29895 0.13818-0.78918 0.05504
   6   3  11 941.383 279.395  10 0.41104 0.21914 0.86489-0.42726-0.16927 0.90377
  -6   3 -12 2077.24 453.145   8 0.31083-0.95563 0.29851 0.13858-0.78834-0.00131
   6   3  12 2531.65 476.699  10 0.42925 0.21552 0.87300-0.43534-0.10980 0.89984
  -6   4  14 2114.78 450.218   4 0.68533-0.95058 0.28258 0.30035 0.82769-0.17440
   6   4 -14 2445.76 473.038   7 0.66806-0.40288-0.32812 0.91111-0.46788-0.18569
  -6   4  13 4355.75 602.854   4 0.67624-0.95605 0.29052 0.29241 0.83091-0.23307
   6   4 -13 3827.93 566.862   7 0.66944-0.38961-0.33690 0.91993-0.46192-0.13609
  -6   4  12 904.232 299.965   4 0.66405-0.95842 0.30092 0.28199 0.83493-0.29254
   6   4 -12 1142.51 320.127   7 0.67037-0.37590-0.34311 0.92617-0.45767-0.08480
   6   4 -11 6524.21 691.712   7 0.67086-0.36175-0.34650 0.92958-0.45534-0.03159
  -6   4  11 6211.71 687.423   4 0.64840-0.95733 0.31388 0.26901 0.83962-0.35269
   6   4 -10 5132.74 593.556   7 0.67090-0.34714-0.34673 0.92984-0.45518 0.02380
  -6   4  10 5732.92 640.036   4 0.62890-0.95239 0.32947 0.25341 0.84478-0.41330
  -6   4   9 834.841 255.734   4 0.60509-0.94314 0.34770 0.23516 0.85010-0.47408
   6   4  -9 872.038 251.584   7 0.67041-0.33202-0.34340 0.92653-0.45747 0.08164
  -6   4   8 33.6081 132.266   4 0.57648-0.92909 0.36854 0.21431 0.85520-0.53463
   6   4  -8 239.242 146.836   7 0.66929-0.31625-0.33596 0.91912-0.46257 0.14229
  -6   4   7 673.304 226.364   4 0.54257-0.90974 0.39184 0.19099 0.85955-0.59443
   6   4  -7 1001.33 222.976   3 0.75065-0.38385 0.39585 0.18731 0.70832-0.97358
   6   4  -7 534.680 190.045   7 0.66734-0.29965-0.32369 0.90688-0.47084 0.20610
  -6   4   6 237.688 173.400   4 0.50288-0.88462 0.41738 0.16543 0.86253-0.65286
   6   4  -6 235.269 121.801   3 0.68843-0.30698 0.39141 0.19172 0.77058-0.98031
   6   4  -6 379.198 170.123   7 0.66423-0.28190-0.30569 0.88890-0.48271 0.27352
   6   4  -5 3885.56 417.199   3 0.61859-0.22248 0.38278 0.20030 0.82497-0.97917
   6   4  -5 3386.42 408.938   7 0.65945-0.26248-0.28072 0.86397-0.49865 0.34501
  -6   4   5 3702.02 469.860   4 0.45700-0.85329 0.44479 0.13802 0.86339-0.70917
   6   4  -4 8646.72 617.084   3 0.54298-0.13220 0.37022 0.21283 0.87016-0.96882
   6   4  -4 8673.46 611.465   7 0.65221-0.24059-0.24718 0.83045-0.51915 0.42106
   6   4  -4 8534.72 686.824  10-0.12111 0.53236 0.20449 0.37869-0.96896 0.87046
  -6   4   4 8145.35 676.799   4 0.40461-0.81547 0.47353 0.10926 0.86128-0.76252
  -6   4   3 2586.53 381.243   4 0.34563-0.77105 0.50294 0.07984 0.85532-0.81201
  -6   4   3 2431.67 394.244   7 0.05784-0.48292 0.70561-0.12309-0.66589 0.70902
   6   4  -3 2920.31 371.756   3 0.46392-0.03848 0.35427 0.22873 0.90542-0.94856
   6   4  -3 2842.18 342.330   7 0.64125-0.21500-0.20288 0.78618-0.54467 0.50212
   6   4  -3 2251.33 360.041  10-0.08421 0.51005 0.26612 0.31709-0.94853 0.90557
  -6   4   2 1352.97 269.236   4 0.28020-0.72017 0.53219 0.05057 0.84460-0.85675
  -6   4   2 1284.08 279.399   7 0.09560-0.53533 0.67405-0.09156-0.68129 0.66887
   6   4  -2 1454.90 259.499   3 0.38396 0.05614 0.33573 0.24723 0.93079-0.91839
   6   4  -2 1607.25 308.002  10-0.04535 0.48578 0.32873 0.25449-0.92196 0.93454
   6   4  -1 8618.21 636.661   3 0.30557 0.14919 0.31551 0.26741 0.94696-0.87904
   6   4  -1 7649.65 647.751  10-0.00515 0.46018 0.39109 0.19215-0.88918 0.95730
  -6   4   1 7447.64 663.820   7 0.13079-0.58516 0.64250-0.06004-0.69381 0.62584
  -6   4   0 561.988 227.581   7 0.16318-0.63219 0.61160-0.02916-0.70373 0.58022
   6   4   0 586.449 211.873  10 0.03568 0.43394 0.45198 0.13128-0.85042 0.97407
  -6   4  -1 8730.42 642.581   8-0.04874-0.43501 0.36913 0.21422-0.90790 0.72901
   6   4   1 8832.90 702.243  10 0.07647 0.40775 0.51030 0.07299-0.80617 0.98535
  -6   4  -1 8569.35 712.988   7 0.19259-0.67625 0.58193 0.00048-0.71139 0.53233
  -6   4  -2 1952.47 350.916   7 0.21895-0.71726 0.55399 0.02839-0.71709 0.48249
  -6   4  -2 1625.63 297.440   8 0.01918-0.51757 0.35955 0.22377-0.89466 0.66025
   6   4   2 2224.41 377.513  10 0.11656 0.38225 0.56512 0.01818-0.75714 0.99186
  -6   4  -3 4420.98 493.512   8 0.07700-0.59002 0.35005 0.23323-0.88003 0.59011
   6   4   3 3704.26 479.392  10 0.15540 0.35799 0.61578-0.03245-0.70416 0.99442
  -6   4  -3 4174.59 511.744   7 0.24222-0.75517 0.52824 0.05412-0.72120 0.43105
  -6   4  -4 682.361 231.457   7 0.26243-0.79002 0.50501 0.07732-0.72402 0.37832
  -6   4  -4 679.542 220.934   8 0.12549-0.65315 0.34111 0.24213-0.86537 0.51994
   6   4   4 873.997 250.997  10 0.19257 0.33542 0.66181-0.07847-0.64812 0.99391
  -6   4  -5 877.772 254.565   7 0.27962-0.82186 0.48458 0.09772-0.72586 0.32462
  -6   4  -5 850.830 249.316   8 0.16554-0.70784 0.33306 0.25015-0.85159 0.45064
   6   4   5 728.809 228.265  10 0.22774 0.31484 0.70301-0.11965-0.58984 0.99117
  -6   4  -6 559.822 212.589   7 0.29389-0.85077 0.46715 0.11512-0.72698 0.27019
  -6   4  -6 1017.15 270.263   8 0.19810-0.75504 0.32605 0.25712-0.83925 0.38278
   6   4   6 861.365 255.212  10 0.26072 0.29646 0.73933-0.15595-0.53009 0.98696
  -6   4  -7 394.554 198.161   7 0.30533-0.87685 0.45285 0.12940-0.72760 0.21527
  -6   4  -7 451.687 210.698   8 0.22404-0.79562 0.32018 0.26296-0.82868 0.31669
   6   4   7 194.680 152.940  10 0.29140 0.28037 0.77087-0.18746-0.46952 0.98193
  -6   4  -8 49.1737 113.900   7 0.31404-0.90021 0.44176 0.14045-0.72791 0.16002
  -6   4  -8 399.749 234.281   8 0.24414-0.83035 0.31543 0.26767-0.82002 0.25252
   6   4   8 342.890 192.875  10 0.31975 0.26661 0.79781-0.21438-0.40867 0.97662
  -6   4  -9 1406.66 326.897   7 0.32011-0.92092 0.43394 0.14825-0.72803 0.10460
  -6   4  -9 1144.61 335.896   8 0.25908-0.85993 0.31180 0.27127-0.81333 0.19031
   6   4   9 739.452 255.316  10 0.34581 0.25514 0.82041-0.23697-0.34795 0.97143
  -6   4 -10 2940.07 468.962   7 0.32360-0.93905 0.42940 0.15276-0.72807 0.04909
  -6   4 -10 2810.51 496.907   8 0.26945-0.88494 0.30923 0.27381-0.80854 0.13001
   6   4  10 2909.94 511.854  10 0.36966 0.24589 0.83894-0.25548-0.28767 0.96668
  -6   5  12 523.799 248.014   4 0.62233-0.91667 0.33458 0.39403 0.84635-0.30393
   6   5 -12-58.3112 132.471   7 0.64150-0.34689-0.20381 0.93259-0.54415 0.00175
  -6   5  11 339.060 203.679   4 0.60644-0.91534 0.34669 0.38191 0.84983-0.36286
   6   5 -11-100.871 137.140   7 0.64104-0.33178-0.20208 0.93088-0.54512 0.05826
  -6   5  10 1493.46 388.405   4 0.58693-0.91039 0.36106 0.36753 0.85350-0.42198
   6   5 -10 1590.01 365.991   7 0.63964-0.31574-0.19683 0.92566-0.54802 0.11672
  -6   5   9 1896.88 389.880   4 0.56342-0.90144 0.37769 0.35088 0.85708-0.48102
   6   5  -9 2417.66 433.206   7 0.63713-0.29859-0.18764 0.91650-0.55304 0.17729
  -6   5   8 3466.27 518.390   4 0.53552-0.88810 0.39652 0.33204 0.86024-0.53963
   6   5  -8 3144.70 467.005   7 0.63329-0.28010-0.17400 0.90289-0.56037 0.24016
   6   5  -7 5281.62 593.460   7 0.62777-0.25994-0.15526 0.88418-0.57018 0.30552
  -6   5   7 4863.34 593.311   4 0.50282-0.86996 0.41742 0.31112 0.86254-0.59738
  -6   5   6 192.068 152.379   4 0.46494-0.84664 0.44019 0.28833 0.86343-0.65372
   6   5  -6 27.7562 110.249  10-0.13686 0.51888 0.17752 0.55147-0.97620 0.76668
   6   5  -6-72.9951 112.818   7 0.62012-0.23765-0.13062 0.85956-0.58263 0.37352
  -6   5   5 678.867 253.212   4 0.42153-0.81779 0.46453 0.26398 0.86230-0.70805
   6   5  -5 427.405 193.634  10-0.10889 0.50551 0.22513 0.50388-0.96272 0.80874
   6   5  -5 1093.30 256.082   7 0.60968-0.21256-0.09909 0.82806-0.59783 0.44426
  -6   5   4 1332.66 307.831   4 0.37231-0.78313 0.49001 0.23849 0.85847-0.75967
  -6   5   4 1515.62 349.664   7 0.02834-0.43864 0.72864-0.00037-0.65249 0.75124
   6   5  -4 1391.06 320.486  10-0.07887 0.49008 0.27485 0.45419-0.94519 0.84674
  -6   5   3 1016.42 262.318   4 0.31716-0.74254 0.51609 0.21240 0.85117-0.80782
  -6   5   3 1677.13 351.902   7 0.06431-0.48925 0.70037 0.02788-0.66867 0.71188
   6   5  -3 1293.39 319.694  10-0.04708 0.47289 0.32598 0.40308-0.92326 0.88035
   6   5  -2 4252.82 559.502  10-0.01387 0.45426 0.37778 0.35130-0.89674 0.90937
  -6   5   2 3545.79 516.452   7 0.09798-0.53756 0.67198 0.05624-0.68219 0.66984
  -6   5   2 4204.40 512.429   4 0.25612-0.69606 0.54212 0.18635 0.83964-0.85174
  -6   5   1 1607.48 361.676   7 0.12918-0.58341 0.64399 0.08420-0.69327 0.62538
   6   5  -1 1686.71 354.137  10 0.02038 0.43461 0.42946 0.29964-0.86559 0.93375
   6   5   0 3805.93 506.343  10 0.05522 0.41436 0.48024 0.24888-0.82991 0.95361
  -6   5   0 3661.14 524.430   7 0.15779-0.62666 0.61687 0.11130-0.70219 0.57875
  -6   5  -1 1301.32 317.978   7 0.18372-0.66723 0.59104 0.13709-0.70922 0.53023
   6   5   1 1268.34 321.336  10 0.09022 0.39395 0.52939 0.19975-0.78998 0.96922
  -6   5  -2 3240.33 513.595   7 0.20695-0.70510 0.56688 0.16123-0.71463 0.48010
   6   5   2 3152.87 479.895  10 0.12494 0.37382 0.57627 0.15288-0.74617 0.98094
  -6   5  -3 855.705 275.685   7 0.22747-0.74027 0.54469 0.18339-0.71870 0.42862
   6   5   3 952.084 277.699  10 0.15902 0.35434 0.62036 0.10882-0.69896 0.98927
  -6   5  -4 998.241 313.376   7 0.24532-0.77276 0.52473 0.20332-0.72168 0.37605
   6   5   4 659.371 238.013  10 0.19210 0.33585 0.66124 0.06795-0.64887 0.99472
  -6   5  -5 1019.23 304.968   7 0.26055-0.80264 0.50720 0.22083-0.72379 0.32262
   6   5   5 1172.45 309.186  10 0.22392 0.31863 0.69865 0.03057-0.59644 0.99783
  -6   5  -6 1502.99 365.475   7 0.27324-0.82997 0.49223 0.23577-0.72524 0.26852
   6   5   6 1683.52 388.158  10 0.25427 0.30287 0.73241-0.00318-0.54220 0.99912
  -6   5  -7 1186.75 330.631   7 0.28345-0.85482 0.47995 0.24802-0.72620 0.21393
  -6   5  -7 1495.71 338.863   8 0.16127-0.73281 0.33395 0.39507-0.85313 0.34124
   6   5   7 1302.71 333.092  10 0.28301 0.28872 0.76247-0.03322-0.48661 0.99907
  -6   5  -8 1799.82 404.908   7 0.29125-0.87726 0.47041 0.25753-0.72680 0.15899
  -6   5  -8 1899.74 419.703   8 0.18337-0.76954 0.32928 0.39971-0.84496 0.27755
   6   6  -9 203.390 175.092   7 0.58706-0.24837-0.03717 0.91176-0.62530 0.24961
  -6   6   8 423.899 220.047   4 0.47883-0.83138 0.43202 0.44225 0.86331-0.54266
   6   6  -8 297.424 181.175   7 0.58010-0.22677-0.01950 0.89412-0.63257 0.31243
  -6   6   7-64.4637 166.880   4 0.44638-0.81349 0.45082 0.42343 0.86322-0.59802
  -6   6   6 2046.47 431.489   4 0.40914-0.79081 0.47114 0.40309 0.86159-0.65184
   6   6  -6 2662.20 488.720  10-0.08537 0.46735 0.26421 0.61064-0.94925 0.73978
  -6   6   5 3476.35 509.697   4 0.36683-0.76306 0.49271 0.38150 0.85788-0.70359
   6   6  -5 3613.54 559.197  10-0.06042 0.45699 0.30472 0.57014-0.93287 0.77894
  -6   6   4 2500.35 430.410   4 0.31921-0.73000 0.51516 0.35904 0.85149-0.75265
  -6   6   4 1644.18 397.685   7 0.01977-0.42992 0.73507 0.13893-0.64836 0.74719
   6   6  -4 2145.20 433.921  10-0.03393 0.44510 0.34669 0.52819-0.91320 0.81480
  -6   6   3 767.717 246.829   4 0.26615-0.69150 0.53804 0.33615 0.84177-0.79838
  -6   6   3 509.704 234.651   7 0.05253-0.47732 0.70986 0.16411-0.66357 0.70684
   6   6  -2 4063.67 571.947  10 0.02280 0.41755 0.43305 0.44188-0.86324 0.87592
  -6   6   2 4746.30 645.755   7 0.08309-0.52253 0.68477 0.18918-0.67641 0.66414
  -6   6   1 370.433 192.436   7 0.11135-0.56542 0.66019 0.21372-0.68711 0.61929
   6   6  -1 186.729 168.528  10 0.05253 0.40242 0.47637 0.39857-0.83282 0.90104
  -6   6   0-177.879 163.883   7 0.13722-0.60594 0.63651 0.23738-0.69590 0.57254
   6   6   0 308.660 177.431  10 0.08277 0.38677 0.51908 0.35588-0.79883 0.92258
  -6   6  -1 1485.48 375.021   7 0.16068-0.64404 0.61405 0.25981-0.70302 0.52411
   6   6   1 1428.96 366.586  10 0.11323 0.37090 0.56067 0.31431-0.76142 0.94071
  -6   6  -2 993.928 310.749   7 0.18171-0.67971 0.59309 0.28074-0.70871 0.47425
   6   6   2 759.272 286.927  10 0.14361 0.35511 0.60067 0.27434-0.72083 0.95566
  -7  -6   7 423.647 213.326  11 0.31560-0.76173-0.42966-0.44529 0.89903-0.65508
   7  -6  -6 1348.03 369.627   9 0.83469-0.37504-0.33799-0.53700 0.63843-0.82789
  -7  -6   6 1671.31 376.778  11 0.30036-0.76111-0.47113-0.40385 0.87889-0.69048
   7  -6  -5-58.0709 103.395   9 0.82131-0.34706-0.30835-0.56663 0.67858-0.81251
  -7  -6   5-152.134 118.773  11 0.28360-0.75898-0.51362-0.36139 0.85558-0.72272
   7  -6  -4 574.576 229.450   9 0.80552-0.31669-0.27801-0.59695 0.71629-0.79470
  -7  -6   4 448.959 198.756  11 0.26538-0.75538-0.55659-0.31845 0.82903-0.75171
   7  -6  -3 1017.11 315.627   9 0.78756-0.28413-0.24727-0.62767 0.75134-0.77422
  -7  -6   3 882.641 288.437  11 0.24578-0.75041-0.59947-0.27560 0.79921-0.77744
   7  -6  -2 1137.17 324.845   9 0.76769-0.24967-0.21643-0.65849 0.78351-0.75088
  -7  -6   2 1017.09 301.666  11 0.22492-0.74418-0.64171-0.23340 0.76620-0.79997
   7  -6  -1 1583.96 367.717   9 0.74625-0.21364-0.18583-0.68908 0.81269-0.72453
  -7  -6   1 689.281 253.189  11 0.20294-0.73683-0.68278-0.19236 0.73015-0.81946
   7  -6   0 679.098 264.110   9 0.72363-0.17643-0.15579-0.71910 0.83879-0.69511
  -7  -6   0 700.080 284.137  11 0.18002-0.72854-0.72220-0.15297 0.69126-0.83613
   7  -6   1 2434.53 450.622   9 0.70024-0.13845-0.12663-0.74824 0.86182-0.66261
  -7  -6  -1 2201.46 450.346  11 0.15633-0.71947-0.75957-0.11563 0.64981-0.85022
   7  -5 -11 2865.55 515.096   9 0.86193-0.47515-0.44426-0.28495 0.46122-0.92825
   7  -5 -10 1976.68 437.558   9 0.85861-0.45724-0.41712-0.31208 0.51234-0.92384
  -7  -5  10 2454.40 447.817  11 0.37820-0.78039-0.21986-0.50916 0.96695-0.55629
   7  -5  -9 421.781 209.693   9 0.85205-0.43608-0.38804-0.34114 0.56226-0.91824
  -7  -5   9 268.706 170.808  11 0.36722-0.78404-0.26271-0.46635 0.95731-0.60219
   7  -5  -8 538.574 249.030   9 0.84215-0.41159-0.35713-0.37202 0.61062-0.91108
  -7  -5   8 131.877 150.197  11 0.35442-0.78586-0.30881-0.42028 0.94461-0.64503
   7  -5  -7 803.857 285.333   9 0.82889-0.38374-0.32457-0.40456 0.65702-0.90196
  -7  -5   7 1096.08 286.400  11 0.33969-0.78576-0.35762-0.37150 0.92842-0.68439
   7  -5  -6-2.65296 120.962   9 0.81231-0.35257-0.29059-0.43853 0.70105-0.89046
  -7  -5   6 323.748 176.105  11 0.32299-0.78369-0.40847-0.32068 0.90839-0.71990
   7  -5  -5 700.930 254.339   9 0.79254-0.31820-0.25546-0.47364 0.74229-0.87618
  -7  -5   5 583.207 208.513   5-0.33228-0.14258-0.00560-0.72364 0.82247-0.68929
  -7  -5   5 536.166 215.095  11 0.30433-0.77965-0.46060-0.26859 0.88424-0.75129
   7  -5  -4 2865.14 472.800   9 0.76979-0.28086-0.21956-0.50952 0.78038-0.85874
  -7  -5   4 3379.28 456.386   5-0.38124-0.10823-0.03301-0.69624 0.79098-0.71332
  -7  -5   4 3026.56 449.251  11 0.28379-0.77374-0.51315-0.21606 0.85585-0.77846
   7  -5  -3 2181.12 413.149   9 0.74439-0.24087-0.18328-0.54578 0.81500-0.83784
  -7  -5   3 2977.18 432.683   5-0.42989-0.07419-0.06091-0.66837 0.75593-0.73378
  -7  -5   3 2479.82 431.384  11 0.26153-0.76610-0.56528-0.16397 0.82326-0.80141
   7  -5  -2 1995.17 382.416   9 0.71678-0.19866-0.14706-0.58199 0.84592-0.81323
  -7  -5   2 2067.78 370.381   5-0.47756-0.04113-0.08894-0.64036 0.71759-0.75096
  -7  -5   2 2010.41 378.843  11 0.23774-0.75694-0.61614-0.11314 0.78664-0.82033
   7  -5  -1 3937.54 540.316   9 0.68745-0.15474-0.11136-0.61767 0.87301-0.78480
  -7  -5   1 4219.38 517.193   5-0.52365-0.00966-0.11677-0.61256 0.67634-0.76523
  -7  -5   1 3667.50 515.349  11 0.21268-0.74652-0.66498-0.06433 0.74629-0.83552
   7  -5   0 565.215 219.422   9 0.65698-0.10967-0.07661-0.65240 0.89625-0.75252
  -7  -5   0 406.746 235.506   5-0.56766 0.01975-0.14409-0.58526 0.63259-0.77700
  -7  -5   0 260.884 165.601  11 0.18664-0.73510-0.71116-0.01818 0.70262-0.84739
   7  -5   1-101.960 144.777   9 0.62596-0.06407-0.04325-0.68574 0.91577-0.71651
  -7  -5  -1 100.181 155.562  11 0.15989-0.72297-0.75418 0.02480 0.65611-0.85643
   7  -5   2 1778.21 380.545   9 0.59501-0.01852-0.01163-0.71735 0.93176-0.67698
  -7  -5  -2 1660.38 374.198  11 0.13270-0.71042-0.79366 0.06425 0.60726-0.86313
   7  -5   3 3171.80 488.870   9 0.56470 0.02638 0.01795-0.74690 0.94452-0.63422
  -7  -5  -3 2647.00 469.167  11 0.10535-0.69768-0.82937 0.09994 0.55660-0.86800
   7  -5   4-278.296 192.017   9 0.53556 0.07011 0.04524-0.77418 0.95442-0.58859
  -7  -5  -4 166.802 177.897  11 0.07803-0.68499-0.86122 0.13175 0.50457-0.87152
   7  -5   5 1256.56 339.159   9 0.50804 0.11222 0.07010-0.79902 0.96186-0.54051
  -7  -5  -5 463.609 244.092  11 0.05093-0.67252-0.88918 0.15968 0.45161-0.87411
   7  -5   6 170.119 154.706   9 0.48252 0.15234 0.09242-0.82132 0.96724-0.49036
  -7  -5  -6 793.836 307.452  11 0.02420-0.66042-0.91332 0.18379 0.39808-0.87612
   7  -5   7 169.598 178.097   9 0.45929 0.19016 0.11217-0.84106 0.97096-0.43856
   7  -4 -14 818.168 308.444   9 0.85641-0.51331-0.50501-0.07838 0.32597-0.95952
   7  -4 -13 2098.21 444.768   9 0.86105-0.50336-0.48156-0.10181 0.38221-0.96024
  -7  -4  13 1955.22 392.649   5 0.15148-0.50939 0.23619-0.81942 0.96594-0.38856
   7  -4 -12 1667.72 379.713   9 0.86239-0.49011-0.45563-0.12772 0.43831-0.96082
  -7  -4  12 1276.20 318.882   5 0.12246-0.49498 0.22306-0.80632 0.96530-0.44343
   7  -4 -11 331.437 207.777   9 0.86018-0.47330-0.42717-0.15617 0.49396-0.96094
  -7  -4  11 127.554 133.450   5 0.08885-0.47598 0.20765-0.79092 0.96327-0.49692
   7  -4 -10 1776.30 378.781   9 0.85417-0.45270-0.39617-0.18715 0.54876-0.96022
  -7  -4  10 1258.40 292.808   5 0.05064-0.45238 0.18983-0.77313 0.95933-0.54850
   7  -4  -9 1995.66 395.708   9 0.84413-0.42807-0.36268-0.22062 0.60227-0.95820
  -7  -4   9 1621.30 323.410  11 0.38991-0.80668-0.16995-0.41328 0.97566-0.62046
  -7  -4   9 1604.48 329.104   5 0.00792-0.42427 0.16956-0.75289 0.95288-0.59757
   7  -4  -8 3188.82 480.682   9 0.82990-0.39924-0.32684-0.25644 0.65394-0.95435
  -7  -4   8 2974.24 428.845   5-0.03905-0.39192 0.14685-0.73019 0.94331-0.64351
  -7  -4   8 3589.62 461.547  11 0.37649-0.80788-0.22677-0.35649 0.96553-0.66587
   7  -4  -7 3878.67 519.405   9 0.81139-0.36614-0.28885-0.29442 0.70319-0.94808
  -7  -4   7 3971.05 471.569   5-0.08983-0.35575 0.12178-0.70514 0.93003-0.68575
  -7  -4   7 3929.23 483.674  11 0.36044-0.80646-0.28759-0.29570 0.95076-0.70664
   7  -4  -6 4823.33 574.820   9 0.78864-0.32880-0.24903-0.33422 0.74941-0.93878
  -7  -4   6 5083.06 535.032   5-0.14380-0.31638 0.09454-0.67793 0.91253-0.72377
  -7  -4   6 5599.41 561.413  11 0.34165-0.80230-0.35134-0.23198 0.93067-0.74210
   7  -4  -5 356.366 199.032   9 0.76181-0.28737-0.20780-0.37543 0.79202-0.92586
  -7  -4   5 641.456 231.732   5-0.20019-0.27461 0.06543-0.64884 0.89044-0.75720
  -7  -4   5 183.372 146.368  11 0.32014-0.79541-0.41674-0.16661 0.90481-0.77178
   7  -4  -4 1668.44 334.415   9 0.73124-0.24221-0.16567-0.41754 0.83047-0.90879
  -7  -4   4 1927.39 340.726   5-0.25806-0.23134 0.03481-0.61825 0.86356-0.78583
  -7  -4   4 1925.10 334.092  11 0.29605-0.78594-0.48235-0.10103 0.87300-0.79552
   7  -4  -3 686.156 229.277   9 0.69744-0.19382-0.12324-0.45995 0.86435-0.88715
  -7  -4   3 964.790 256.355   5-0.31645-0.18757 0.00314-0.58660 0.83189-0.80968
  -7  -4   3 751.597 205.630  11 0.26969-0.77421-0.54671-0.03671 0.83541-0.81347
   7  -4  -2 790.774 240.177   9 0.66106-0.14284-0.08115-0.50203 0.89339-0.86066
  -7  -4   2 1586.19 317.566   5-0.37435-0.14428-0.02911-0.55437 0.79564-0.82895
  -7  -4   2 1080.82 260.175  11 0.24147-0.76062-0.60847 0.02502 0.79249-0.82610
   7  -4  -1 6208.49 626.203   9 0.62288-0.09007-0.04003-0.54313 0.91751-0.82925
  -7  -4   1 6745.20 614.785   5-0.43085-0.10239-0.06147-0.52204 0.75520-0.84403
  -7  -4   1 6558.73 603.877  11 0.21187-0.74565-0.66649 0.08301 0.74495-0.83410
   7  -4   0 3554.45 482.346   9 0.58375-0.03635-0.00049-0.58264 0.93681-0.79303
  -7  -4   0 3338.65 447.938   5-0.48515-0.06270-0.09347-0.49006 0.71110-0.85544
  -7  -4   0 3327.57 445.491  11 0.18140-0.72980-0.71993 0.13641 0.69364-0.83833
   7  -4   1 1047.71 268.134   9 0.54455 0.01744 0.03693-0.62005 0.95160-0.75229
  -7  -4  -1 1014.37 259.997   5-0.53661-0.02585-0.12473-0.45882 0.66392-0.86379
  -7  -4  -1 1149.52 285.170  11 0.15053-0.71356-0.76823 0.18468 0.63947-0.83971
   7  -4   2 95.5143 133.790   9 0.50610 0.07048 0.07182-0.65492 0.96232-0.70749
  -7  -4  -2 471.962 185.666   2-0.18973-0.38638-0.22234-0.35986-0.97271 0.71741
  -7  -4  -2 295.766 171.949  11 0.11968-0.69734-0.81115 0.22757 0.58333-0.83911
   7  -4   3 1816.99 370.749   9 0.46914 0.12204 0.10386-0.68694 0.96951-0.65916
  -7  -4  -3 1970.94 343.276   2-0.12584-0.46487-0.21827-0.36397-0.96693 0.65609
  -7  -4  -3 1797.30 366.768  11 0.08919-0.68147-0.84866 0.26505 0.52599-0.83732
   7  -4   4 107.010 123.321   9 0.43430 0.17147 0.13286-0.71593 0.97380-0.60792
  -7  -4  -4-32.6436 137.286   2-0.07000-0.53530-0.21399-0.36828-0.95860 0.59223
  -7  -4  -4 104.886 148.378  11 0.05931-0.66622-0.88091 0.29727 0.46813-0.83500
   7  -4   5 958.639 267.656   1 0.31836 0.30274-0.65871 0.07536-0.57553 0.99628
   7  -4   5 313.496 157.647   9 0.40206 0.21830 0.15875-0.74179 0.97578-0.55439
  -7  -4  -5 480.218 198.308   2-0.02204-0.59787-0.20979-0.37251-0.94905 0.52715
  -7  -4  -5 477.806 207.543  11 0.03022-0.65176-0.90818 0.32451 0.41025-0.83267
   7  -4   6 737.198 247.477   9 0.37278 0.26218 0.18152-0.76455 0.97605-0.49913
  -7  -4  -6 918.436 268.720   2 0.01851-0.65302-0.20587-0.37647-0.93927 0.46183
   7  -4   6 888.530 256.921   1 0.39147 0.24419-0.65640 0.07308-0.52095 0.99722
   7  -4   7 2048.72 407.278   9 0.34668 0.30287 0.20126-0.78427 0.97512-0.44268
  -7  -4  -7 3301.62 491.410   2 0.05219-0.70130-0.20235-0.38003-0.92995 0.39698
   7  -4   8 2391.13 463.649   9 0.32389 0.34025 0.21808-0.80107 0.97346-0.38549
  -7  -4  -8 2473.58 438.871   2 0.07960-0.74331-0.19930-0.38310-0.92156 0.33306
   7  -4   9 1766.72 395.927   9 0.30446 0.37428 0.23214-0.81511 0.97143-0.32794
  -7  -4  -9 2425.43 462.540   2 0.10135-0.77966-0.19678-0.38566-0.91440 0.27036
  -7  -3  17 484.506 231.856   5 0.35150-0.65090 0.32150-0.75882 0.94091-0.14139
   7  -3 -16 2706.67 518.537   9 0.83701-0.52300-0.54650 0.10895 0.20846-0.95302
  -7  -3  16 2085.22 418.929   5 0.34164-0.65565 0.31752-0.75486 0.94345-0.19944
   7  -3 -16 1946.08 420.568   7 0.51077-0.19764-0.85876 0.42169 0.16102-0.90555
   7  -3 -15 48.1328 158.668   9 0.84830-0.51969-0.52695 0.08942 0.26730-0.95633
  -7  -3  15 289.313 193.042   5 0.32799-0.65662 0.31197-0.74934 0.94671-0.25822
   7  -3 -14 1056.22 330.370   9 0.85651-0.51331-0.50466 0.06715 0.32686-0.96037
  -7  -3  14 1142.79 294.585   5 0.31026-0.65350 0.30469-0.74208 0.95054-0.31758
   7  -3 -13 2589.09 453.388   9 0.86130-0.50351-0.47947 0.04197 0.38696-0.96494
  -7  -3  13 2275.47 401.858   5 0.28810-0.64594 0.29548-0.73289 0.95471-0.37726
   7  -3 -12 5366.08 637.728   9 0.86228-0.48990-0.45122 0.01374 0.44732-0.96977
  -7  -3  12 4179.49 533.226   5 0.26116-0.63361 0.28412-0.72156 0.95886-0.43693
   7  -3 -11 3102.75 474.599   9 0.85906-0.47209-0.41977-0.01769 0.50754-0.97447
  -7  -3  11 2898.69 426.178   5 0.22911-0.61617 0.27039-0.70785 0.96253-0.49612
   7  -3 -10 1895.21 358.374   9 0.85122-0.44965-0.38507-0.05238 0.56711-0.97852
  -7  -3  10 1826.44 338.810   5 0.19167-0.59334 0.25406-0.69154 0.96513-0.55423
   7  -3  -9 4426.17 535.292   9 0.83836-0.42219-0.34710-0.09033 0.62540-0.98129
  -7  -3   9 4001.03 478.239   5 0.14868-0.56496 0.23493-0.67243 0.96593-0.61055
   7  -3  -8 1609.83 328.365   9 0.82015-0.38940-0.30598-0.13142 0.68163-0.98199
  -7  -3   8 1258.31 239.481  11 0.39587-0.82720-0.14253-0.29491 0.97932-0.67957
  -7  -3   8 1300.03 285.835   5 0.10012-0.53102 0.21284-0.65037 0.96410-0.66424
   7  -3  -7 1728.33 329.538   9 0.79640-0.35105-0.26199-0.17540 0.73494-0.97978
  -7  -3   7 2336.61 319.316  11 0.37791-0.82387-0.22104-0.21643 0.96671-0.72252
  -7  -3   7 1741.04 315.291   5 0.04622-0.49173 0.18775-0.62530 0.95877-0.71443
   7  -3  -6 384.607 195.993   9 0.76709-0.30715-0.21554-0.22183 0.78440-0.97372
  -7  -3   6 523.608 157.965  11 0.35572-0.81631-0.30429-0.13320 0.94596-0.75731
  -7  -3   6 120.984 117.107   5-0.01255-0.44756 0.15972-0.59729 0.94903-0.76021
   7  -3  -5 13520.8 859.193   9 0.73245-0.25791-0.16725-0.27010 0.82912-0.96291
  -7  -3   5 12530.4 779.687   5-0.07542-0.39931 0.12894-0.56654 0.93411-0.80081
  -7  -3   5 13399.5 724.391  11 0.32929-0.80451-0.38979-0.04774 0.91614-0.78303
   7  -3  -4 2121.44 350.274   9 0.69297-0.20385-0.11790-0.31944 0.86829-0.94656
  -7  -3   4 2298.55 349.475   5-0.14134-0.34800 0.09579-0.53341 0.91341-0.83562
  -7  -3   4 2237.27 299.323  11 0.29902-0.78886-0.47464 0.03708 0.87707-0.79950
   7  -3  -3 7020.74 611.079   9 0.64946-0.14575-0.06836-0.36895 0.90133-0.92408
  -7  -3   3 5939.61 536.950   5-0.20906-0.29489 0.06078-0.49842 0.88660-0.86433
  -7  -3   3 6298.33 499.305  11 0.26564-0.77011-0.55599 0.11840 0.82942-0.80739
   7  -3  -2 26044.7 1168.10   9 0.60296-0.08465-0.01961-0.41769 0.92795-0.89517
  -7  -3   2 25875.3 1114.20   5-0.27721-0.24135 0.02451-0.46218 0.85369-0.88694
  -7  -3   2 28917.7 1078.24  11 0.23013-0.74922-0.63146 0.19384 0.77457-0.80809
  -7  -3   1 11443.2 692.694  11 0.19353-0.72725-0.69937 0.26172 0.71433-0.80340
  -7  -3   1 10673.0 722.877   5-0.34443-0.18874-0.01234-0.42535 0.81500-0.90377
  -7  -3   1 12097.8 704.980   2-0.35178-0.18060-0.22851-0.20798-0.96844 0.87983
   7  -3  -1 10890.2 757.723   9 0.55468-0.02178 0.02745-0.46473 0.94817-0.85987
   7  -3   0 536.454 192.920   9 0.50592 0.04158 0.07198-0.50924 0.96236-0.81853
  -7  -3   0 392.358 177.786   2-0.26727-0.27972-0.22606-0.21046-0.97418 0.83003
  -7  -3   0 464.128 173.264   5-0.40949-0.13830-0.04913-0.38858 0.77111-0.91540
  -7  -3   0 585.390 174.442  11 0.15680-0.70515-0.75887 0.32118 0.65063-0.79524
   7  -3   1 1273.04 286.109   9 0.45791 0.10418 0.11333-0.55058 0.97115-0.77180
  -7  -3  -1 1343.33 273.647   2-0.18901-0.37258-0.22230-0.21426-0.97267 0.77299
  -7  -3  -1 1562.53 306.237   5-0.47136-0.09104-0.08525-0.35248 0.72282-0.92263
  -7  -3  -1 1124.40 246.782  11 0.12069-0.68367-0.80982 0.37210 0.58520-0.78536
  -7  -3  -2 4993.55 521.276   5-0.52927-0.04773-0.12022-0.31754 0.67100-0.92632
  -7  -3  -2 5888.92 543.386  11 0.08576-0.66336-0.85258 0.41483 0.51944-0.77514
  -7  -3  -2 4661.41 476.965   2-0.11838-0.45780-0.21774-0.21885-0.96599 0.71077
   7  -3   2 4953.95 531.324   9 0.41177 0.16492 0.15105-0.58827 0.97538-0.72050
  -7  -3  -3 5192.30 521.406  11 0.05232-0.64455-0.88783 0.45005 0.45436-0.76560
  -7  -3  -3 4881.94 505.583   2-0.05602-0.53476-0.21282-0.22381-0.95605 0.64530
   7  -3   3 4887.38 551.011   9 0.36839 0.22288 0.18487-0.62208 0.97597-0.66557
  -7  -3  -4 16548.0 958.609  11 0.02054-0.62739-0.91637 0.47856 0.39064-0.75743
  -7  -3  -4 15224.8 898.189   2-0.00201-0.60338-0.20790-0.22876-0.94442 0.57814
   7  -3   4 15777.8 985.444   9 0.32846 0.27741 0.21474-0.65193 0.97386-0.60793
   7  -3   5 3588.65 467.366   1 0.34743 0.27345-0.65833 0.22065-0.55447 0.97533
  -7  -3  -5 3540.48 469.908   2 0.04398-0.66397-0.20323-0.23347-0.93232 0.51051
   7  -3   5 3488.68 493.932   9 0.29241 0.32805 0.24072-0.67788 0.96990-0.54846
   7  -3   6 617.434 218.417   9 0.26049 0.37457 0.26298-0.70013 0.96486-0.48789
   7  -3   6 654.737 233.614   1 0.41869 0.21675-0.65436 0.21672-0.49919 0.97556
  -7  -3  -6 683.344 242.078   2 0.08247-0.71706-0.19898-0.23775-0.92065 0.44330
  -7  -3  -7 1945.17 376.305   2 0.11409-0.76328-0.19525-0.24151-0.90999 0.37710
   7  -3   7 2228.35 405.412   1 0.48606 0.16394-0.64629 0.20869-0.44167 0.97357
   7  -3   7 2369.99 425.790   9 0.23276 0.41688 0.28177-0.71891 0.95936-0.42687
   7  -3   8 871.150 290.497   1 0.54915 0.11542-0.63441 0.19686-0.38257 0.96998
  -7  -3  -8 836.601 279.134   2 0.13950-0.80329-0.19210-0.24469-0.90071 0.31230
   7  -3   9 2939.79 473.598   1 0.60771 0.07142-0.61905 0.18153-0.32244 0.96536
  -7  -3  -9 4139.01 559.707   2 0.15932-0.83772-0.18955-0.24728-0.89304 0.24909
  -7  -3 -10 1370.42 358.539   2 0.17414-0.86713-0.18758-0.24928-0.88705 0.18757
   7  -3  10 435.963 233.441   1 0.66165 0.03204-0.60050 0.16303-0.26171 0.96015
  -7  -3 -11 1378.07 370.451   2 0.18444-0.89204-0.18619-0.25071-0.88276 0.12774
   7  -2 -18 448.186 229.246   7 0.59436-0.31038-0.78862 0.49722 0.00752-0.86307
   7  -2 -17 1570.80 387.883   9 0.81351-0.51399-0.57230 0.28061 0.11700-0.91703
  -7  -2  17 1059.02 306.639   5 0.45287-0.75220 0.36086-0.65236 0.90592-0.10634
   7  -2 -17 1178.45 338.554   7 0.57309-0.27446-0.81243 0.52106 0.05166-0.85166
   7  -2 -16 1286.73 324.122   9 0.82978-0.51568-0.55593 0.26425 0.17724-0.92174
  -7  -2  16 653.962 250.026   5 0.44567-0.75962 0.35817-0.64969 0.90898-0.16491
   7  -2 -16 565.099 251.874   7 0.54974-0.23646-0.83323 0.54188 0.09557-0.84003
   7  -2 -15 87.7070 135.113   9 0.84324-0.51454-0.53667 0.24501 0.23894-0.92792
  -7  -2  15 107.225 174.908   5 0.43496-0.76351 0.35413-0.64567 0.91336-0.22481
   7  -2 -15 224.688 167.225   7 0.52431-0.19639-0.85100 0.55968 0.13922-0.82813
   7  -2 -14 1793.59 374.916   9 0.85349-0.51020-0.51426 0.22262 0.30205-0.93551
  -7  -2  14 1968.85 387.761   5 0.42034-0.76351 0.34856-0.64013 0.91902-0.28599
   7  -2 -14 2379.13 430.474   7 0.49683-0.15427-0.86569 0.57439 0.18253-0.81590
   7  -2 -13 2975.94 454.022   9 0.86007-0.50218-0.48840 0.19678 0.36642-0.94435
  -7  -2  13 2677.20 428.040   5 0.40139-0.75916 0.34124-0.63283 0.92581-0.34830
   7  -2 -13 2925.24 461.247   7 0.46733-0.11012-0.87721 0.58595 0.22543-0.80325
   7  -2 -12 82.4696 124.898   9 0.86242-0.48994-0.45879 0.16719 0.43177-0.95418
  -7  -2  12 114.720 156.819   5 0.37759-0.74997 0.33191-0.62352 0.93350-0.41151
   7  -2 -11 1343.26 290.325   9 0.85990-0.47283-0.42517 0.13358 0.49767-0.96455
  -7  -2  11 1228.54 280.575   5 0.34842-0.73542 0.32026-0.61190 0.94172-0.47525
   7  -2 -10 4615.86 509.950   9 0.85184-0.45018-0.38729 0.09572 0.56349-0.97485
  -7  -2  10 5260.91 543.604   5 0.31334-0.71495 0.30596-0.59762 0.94991-0.53896
   7  -2  -9 8482.52 665.229   9 0.83754-0.42128-0.34503 0.05349 0.62838-0.98422
  -7  -2   9 8638.71 665.971   5 0.27187-0.68809 0.28866-0.58034 0.95733-0.60189
   7  -2  -8 7847.45 628.734   9 0.81638-0.38553-0.29845 0.00692 0.69124-0.99156
  -7  -2   8 7884.02 621.514   5 0.22364-0.65447 0.26802-0.55973 0.96302-0.66311
   7  -2  -7 32968.7 1255.10   9 0.78789-0.34244-0.24780-0.04371 0.75075-0.99555
  -7  -2   7 31841.7 1216.84   5 0.16850-0.61394 0.24380-0.53552 0.96584-0.72144
   7  -2  -6 864.579 214.660   9 0.75190-0.29187-0.19367-0.09783 0.80547-0.99474
  -7  -2   6 482.067 182.639   5 0.10662-0.56667 0.21583-0.50758 0.96451-0.77563
   7  -2  -5 16951.1 874.802   9 0.70867-0.23404-0.13693-0.15454 0.85394-0.98768
  -7  -2   5 17157.3 864.307   5 0.03860-0.51326 0.18416-0.47593 0.95773-0.82437
  -7  -2   5 18149.0 691.653  11 0.32589-0.80105-0.39994 0.10824 0.91198-0.77879
   7  -2  -4 5237.07 489.360   9 0.65894-0.16972-0.07879-0.21267 0.89489-0.97311
  -7  -2   4 5162.74 483.209   5-0.03453-0.45474 0.14905-0.44085 0.94435-0.86650
  -7  -2   4 5064.35 365.400  11 0.28255-0.77234-0.51619 0.22445 0.85408-0.77643
   7  -2  -3 37679.4 1288.11   9 0.60399-0.10017-0.02065-0.27079 0.92744-0.95014
   7  -2  -3 38038.1 1070.17   3 0.75668-0.25343 0.39607-0.68705 0.70140-0.72327
  -7  -2   3 38209.4 1266.86   5-0.11128-0.39260 0.11102-0.40284 0.92350-0.90117
  -7  -2   3 41100.6 1043.19  11 0.23524-0.73966-0.62121 0.32945 0.78270-0.76059
   7  -2  -2 30347.9 939.839   3 0.69660-0.17869 0.39219-0.68320 0.76325-0.72959
  -7  -2   2 27333.4 1077.61   5-0.18987-0.32862 0.07081-0.36265 0.89478-0.92797
  -7  -2   2 29909.2 909.638  11 0.18687-0.70591-0.71078 0.41898 0.70301-0.73644
  -7  -2   2 26542.0 997.196   2-0.40597-0.11190-0.22912-0.06172-0.96043 0.92743
   7  -2  -2 27994.3 1114.99   9 0.54552-0.02711 0.03603-0.32746 0.95128-0.91845
   7  -2  -1 3233.97 312.537   3 0.62670-0.09413 0.38394-0.67499 0.81935-0.73016
  -7  -2   1 2277.95 334.117   5-0.26835-0.26475 0.02929-0.32115 0.85832-0.94703
  -7  -2   1 2711.84 284.717  11 0.13984-0.67351-0.78369 0.49186 0.62023-0.70921
  -7  -2   1 2835.40 341.725   2-0.31658-0.21588-0.22770-0.06318-0.97180 0.88327
   7  -2  -1 2634.87 355.474   9 0.48547 0.04753 0.08987-0.38128 0.96669-0.87834
  -7  -2   0 22447.9 990.349   5-0.34488-0.20283-0.01259-0.27930 0.81471-0.95894
   7  -2   0 25688.6 852.790   3 0.54869-0.00147 0.37127-0.66236 0.86716-0.72244
  -7  -2   0 24605.2 882.101  11 0.09569-0.64398-0.84106 0.54920 0.53836-0.68289
  -7  -2   0 21835.1 937.538   2-0.23146-0.31561-0.22451-0.06640-0.97428 0.83021
   7  -2   0 22584.0 1024.35   9 0.42583 0.12177 0.13976-0.43114 0.97450-0.83062
  -7  -2  -1 10236.1 688.455   5-0.41785-0.14447-0.05394-0.23797 0.76497-0.96472
   7  -2   1 10320.4 546.267   3 0.46554 0.09635 0.35463-0.64576 0.90480-0.70455
  -7  -2  -1 9690.62 577.670  11 0.05508-0.61801-0.88513 0.59323 0.45982-0.65989
  -7  -2  -1 9114.75 624.071   2-0.15283-0.40884-0.22010-0.07085-0.96986 0.77027
   7  -2   1 9192.78 663.604   9 0.36835 0.19384 0.18491-0.47628 0.97597-0.77657
  -7  -2  -2 10727.1 715.948   5-0.48605-0.09088-0.09401-0.19792 0.71031-0.96557
   7  -2   2 13353.6 631.467   3 0.38101 0.19554 0.33501-0.62618 0.93155-0.67576
  -7  -2  -2 11485.1 657.565  11 0.01811-0.59566-0.91836 0.62643 0.38570-0.64131
  -7  -2  -2 11034.3 700.900   2-0.08207-0.49420-0.21497-0.07600-0.96066 0.70553
   7  -2   2 11979.4 777.763   9 0.31446 0.26232 0.22494-0.51628 0.97254-0.71762
  -7  -2  -3 3460.51 428.740   5-0.54869-0.04286-0.13222-0.15974 0.65201-0.96279
  -7  -2  -3 3267.06 404.034   2-0.01984-0.57103-0.20959-0.08142-0.94856 0.63790
   7  -2   3 3534.72 438.673   9 0.26517 0.32620 0.25976-0.55109 0.96569-0.65524
   7  -2   4 5045.75 533.019   1 0.33344 0.27266-0.65860 0.36656-0.56471 0.93016
  -7  -2  -4 4338.44 487.319   2 0.03382-0.63929-0.20430-0.08675-0.93517 0.56897
   7  -2   5 12908.0 733.958  11 0.42420 0.19701 0.59825-0.88954 0.76795-0.34604
  -7  -2  -5 11299.3 779.445   2 0.07926-0.69933-0.19934-0.09174-0.92167 0.49995
  -7  -2  -6 7456.45 661.711   2 0.11705-0.75173-0.19489-0.09622-0.90894 0.43168
   7  -2   6 8524.82 637.996  11 0.41921 0.21662 0.62477-0.91602 0.74632-0.26886
   7  -2   6 8298.45 705.668   1 0.47168 0.16354-0.64839 0.35643-0.45441 0.93089
  -7  -2  -7 19263.5 1076.85   2 0.14787-0.79715-0.19103-0.10012-0.89752 0.36473
   7  -2   7 19198.3 1093.76   1 0.53403 0.11576-0.63767 0.34575-0.39724 0.92924
   7  -2   7 21162.0 1046.88  11 0.41544 0.23502 0.64281-0.93404 0.73073-0.19773
   7  -2   8-74.6376 195.989   1 0.59165 0.07270-0.62372 0.33184-0.33949 0.92700
   7  -2   8 188.122 137.604  11 0.41285 0.25224 0.65442-0.94561 0.72030-0.13176
  -7  -2  -8 274.121 180.103   2 0.17243-0.83631-0.18781-0.10337-0.88775 0.29943
   7  -2   9 4087.06 514.189  11 0.41132 0.26840 0.66099-0.95215 0.71426-0.07017
  -7  -2  -9 3291.46 492.192   2 0.19137-0.86985-0.18524-0.10598-0.87981 0.23595
   7  -2   9 2812.71 474.884   1 0.64457 0.03434-0.60688 0.31505-0.28156 0.92459
   7  -2  10 2255.38 406.322  11 0.41072 0.28362 0.66350-0.95463 0.71192-0.01229
  -7  -2 -10 2771.34 471.968   2 0.20530-0.89838-0.18329-0.10796-0.87374 0.17435
   7  -2  10 2157.10 402.698   1 0.69288 0.00059-0.58748 0.29568-0.22377 0.92232
   7  -2  11-111.869 135.243  11 0.41093 0.29804 0.66263-0.95373 0.71273 0.04244
  -7  -2 -11 155.725 170.051   2 0.21474-0.92242-0.18195-0.10933-0.86951 0.11458
   7  -2  12 669.891 260.725   1 0.77630-0.05370-0.54202 0.25030-0.10946 0.91904
   7  -2  12 1155.42 326.174  11 0.41182 0.31178 0.65888-0.94994 0.71621 0.09451
  -7  -2 -12 1378.30 384.345   2 0.22014-0.94242-0.18117-0.11014-0.86705 0.05659
   7  -1 -18 1095.85 315.416   9 0.77070-0.48568-0.59867 0.45283-0.00670-0.84880
  -7  -1  18 805.592 329.391   5 0.53296-0.81761 0.38967-0.53533 0.86509-0.00993
   7  -1 -18 881.333 312.310   7 0.62476-0.34063-0.74285 0.59718-0.06559-0.78989
   7  -1 -17 125.684 115.064   9 0.79280-0.49319-0.58722 0.44141 0.05265-0.85263
  -7  -1  17-85.7195 152.346   5 0.53115-0.83042 0.38905-0.53473 0.86616-0.06652
   7  -1 -17 74.7011 159.315   7 0.60901-0.31023-0.76868 0.62303-0.02591-0.77402
   7  -1 -16 1158.63 315.234   9 0.81265-0.49845-0.57303 0.42723 0.11412-0.85857
  -7  -1  16 1025.16 289.388   5 0.52646-0.84034 0.38742-0.53312 0.86890-0.12477
   7  -1 -16 1476.08 350.648   7 0.59148-0.27806-0.79218 0.64656 0.01378-0.75816
   7  -1 -15 2929.08 465.425   9 0.82993-0.50113-0.55575 0.40997 0.17784-0.86678
  -7  -1  15 3134.59 485.221   5 0.51858-0.84706 0.38467-0.53039 0.87340-0.18479
   7  -1 -15 2928.91 469.242   7 0.57217-0.24410-0.81335 0.66776 0.05347-0.74231
   7  -1 -14 15892.4 1003.18   9 0.84418-0.50079-0.53500 0.38924 0.24392-0.87733
  -7  -1  14 17548.7 1085.38   5 0.50708-0.85018 0.38061-0.52636 0.87972-0.24663
   7  -1 -14 17205.5 1079.54   7 0.55107-0.20836-0.83217 0.68660 0.09317-0.72646
   7  -1 -13 2314.29 384.997   9 0.85482-0.49683-0.51033 0.36458 0.31235-0.89024
  -7  -1  13 2361.60 404.283   5 0.49147-0.84918 0.37503-0.52080 0.88786-0.31029
   7  -1 -13 2518.78 411.672   7 0.52816-0.17081-0.84859 0.70305 0.13285-0.71060
   7  -1 -12 15968.4 933.341   9 0.86109-0.48852-0.48121 0.33548 0.38301-0.90538
  -7  -1  12 16357.8 976.477   5 0.47116-0.84348 0.36764-0.51343 0.89772-0.37566
   7  -1 -12 17270.8 1022.98   7 0.50342-0.13142-0.86254 0.71703 0.17247-0.69467
   7  -1 -11 7888.44 636.330   9 0.86210-0.47493-0.44711 0.30140 0.45556-0.92240
  -7  -1  11 6927.69 621.775   5 0.44546-0.83239 0.35809-0.50391 0.90907-0.44253
   7  -1 -11 8225.14 689.077   7 0.47684-0.09019-0.87393 0.72845 0.21197-0.67863
   7  -1 -10 9152.18 657.784   9 0.85676-0.45500-0.40751 0.26182 0.52935-0.94066
  -7  -1  10 9394.62 692.342   5 0.41361-0.81515 0.34597-0.49181 0.92150-0.51048
   7  -1  -9 511.338 170.287   9 0.84388-0.42752-0.36196 0.21629 0.60336-0.95915
  -7  -1   9 175.278 136.283   5 0.37480-0.79095 0.33080-0.47667 0.93435-0.57885
   7  -1  -8 1525.28 267.051   9 0.82223-0.39128-0.31025 0.16459 0.67610-0.97637
  -7  -1   8 1449.34 268.831   5 0.32826-0.75902 0.31208-0.45796 0.94665-0.64667
   7  -1  -7 6948.54 529.615   9 0.79075-0.34521-0.25250 0.10687 0.74558-0.99033
  -7  -1   7 7046.94 557.432   5 0.27337-0.71875 0.28929-0.43520 0.95710-0.71264
   7  -1  -6 9095.84 588.182   9 0.74883-0.28869-0.18938 0.04377 0.80944-0.99866
  -7  -1   6 8778.42 609.508   5 0.20982-0.66980 0.26202-0.40795 0.96409-0.77515
   7  -1  -5 30543.2 1058.85   9 0.69655-0.22182-0.12217-0.02343 0.86515-0.99884
   7  -1  -5 30019.2 1011.13   3 0.75324-0.27925 0.39595-0.54118 0.70537-0.83840
  -7  -1   5 28858.8 1074.85   5 0.13778-0.61238 0.23001-0.37597 0.96577-0.83234
   7  -1  -4 19945.3 849.334   9 0.63498-0.14566-0.05277-0.09281 0.91048-0.98865
   7  -1  -4 19129.7 799.827   3 0.69428-0.20563 0.39197-0.53724 0.76536-0.84286
  -7  -1   4 19431.4 868.524   5 0.05811-0.54731 0.19334-0.33931 0.96024-0.88233
   7  -1  -3 14988.8 738.562   9 0.56621-0.06230 0.01650-0.16207 0.94395-0.96659
   7  -1  -3 14103.9 676.223   3 0.62601-0.12270 0.38384-0.52915 0.81984-0.84181
  -7  -1   3 14407.7 744.330   5-0.02764-0.47618 0.15241-0.29841 0.94588-0.92349
   7  -1  -2 37759.6 1090.21   3 0.54962-0.03165 0.37143-0.51678 0.86667-0.83311
  -7  -1   2 36202.0 1166.89   5-0.11719-0.40124 0.10804-0.25407 0.92160-0.95473
  -7  -1   2 36696.8 1158.48   2-0.40881-0.10914-0.22913 0.08390-0.95991 0.92700
   7  -1  -2 40454.5 1217.64   9 0.49312 0.02538 0.08323-0.22877 0.96517-0.93230
  -7  -1   1 12570.0 690.609   5-0.20788-0.32516 0.06140-0.20745 0.88712-0.97577
   7  -1  -1 12989.3 641.476   3 0.46735 0.06528 0.35502-0.50040 0.90411-0.81503
  -7  -1   1 13870.7 721.222   2-0.31911-0.21344-0.22777 0.08250-0.97160 0.88317
   7  -1  -1 13062.4 705.048   9 0.41896 0.11414 0.14529-0.29082 0.97497-0.88657
  -7  -1   0 5715.80 474.093   5-0.29695-0.25070 0.01381-0.15988 0.84299-0.98716
   7  -1   0 6747.35 467.366   3 0.38223 0.16506 0.33531-0.48073 0.93123-0.78662
  -7  -1   0 5496.50 474.790   2-0.23315-0.31401-0.22459 0.07929-0.97430 0.83033
   7  -1   0 5545.19 470.203   9 0.34679 0.20090 0.20118-0.34669 0.97513-0.83121
   7  -1   1 802.284 188.583   9 0.27910 0.28318 0.25008-0.39557 0.96797-0.76853
  -7  -1  -1 1042.40 234.575   2-0.15334-0.40842-0.22013 0.07480-0.96991 0.77041
  -7  -1  -1 1043.82 221.329   5-0.38195-0.18031-0.03342-0.11268 0.79050-0.99018
   7  -1   1 1273.08 215.213   3 0.29769 0.26426 0.31337-0.45884 0.94815-0.74800
  -7  -1  -2 6792.39 531.120   5-0.46100-0.11587-0.07912-0.06699 0.73138-0.98659
  -7  -1  -2 6849.48 542.889   2-0.08127-0.49509-0.21491 0.06954-0.96052 0.70548
  -7  -1  -3 9339.16 631.664   5-0.53289-0.05859-0.12244-0.02370 0.66753-0.97825
   7  -1   3 8925.56 661.397   1 0.35430 0.23701-0.65813 0.51174-0.54938 0.85941
  -7  -1  -3 9549.30 657.874   2-0.01774-0.57321-0.20939 0.06400-0.94809 0.63752
   7  -1   4 16314.9 908.796   1 0.42346 0.18242-0.65393 0.50757-0.49529 0.86084
  -7  -1  -4 16713.8 889.804   2 0.03707-0.64263-0.20396 0.05852-0.93427 0.56816
   7  -1   5 12860.4 832.337   1 0.48773 0.13270-0.64603 0.49971-0.44018 0.86124
  -7  -1  -5 11757.0 771.719   2 0.08348-0.70364-0.19886 0.05339-0.92032 0.49868
  -7  -1  -6 4184.02 492.994   2 0.12203-0.75679-0.19428 0.04878-0.90715 0.42998
   7  -1   6 4094.71 511.713   1 0.54705 0.08794-0.63488 0.48860-0.38462 0.86121
  -7  -1  -6 4115.10 454.822   8-0.02973-0.60562 0.36662-0.51285-0.90462 0.42707
   7  -1   7 788.616 266.849   1 0.60150 0.04806-0.62090 0.47466-0.32908 0.86118
  -7  -1  -7 620.262 200.448   8 0.00699-0.65698 0.36139-0.50766-0.89735 0.36428
  -7  -1  -7 395.432 212.187   2 0.15342-0.80278-0.19031 0.04478-0.89537 0.36266
  -7  -1  -8 581.670 197.675   8 0.03681-0.70144 0.35678-0.50309-0.89052 0.30195
  -7  -1  -8 830.177 266.155   2 0.17836-0.84232-0.18701 0.04145-0.88530 0.29707
   7  -1   8 164.365 194.678   1 0.65124 0.01288-0.60445 0.45825-0.27387 0.86149
  -7  -1  -9 1987.54 359.276   8 0.06023-0.73949 0.35293-0.49927-0.88459 0.24050
  -7  -1  -9 1595.76 354.391   2 0.19754-0.87610-0.18438 0.03878-0.87715 0.23337
   7  -1   9 1778.72 379.197   1 0.69650-0.01781-0.58585 0.43969-0.21923 0.86236
   7  -1  10 847.257 274.797   1 0.73752-0.04427-0.56535 0.41924-0.16528 0.86393
  -7  -1 -10 522.239 192.439   8 0.07777-0.77167 0.34991-0.49629-0.87982 0.18021
  -7  -1 -10 417.825 254.087   2 0.21157-0.90474-0.18240 0.03677-0.87094 0.17163
   7  -1  11 2750.54 478.256   1 0.77454-0.06673-0.54317 0.39709-0.11211 0.86628
  -7  -1 -11 2827.55 449.744   8 0.08992-0.79846 0.34775-0.49416-0.87634 0.12121
  -7  -1 -11 3443.60 531.094   2 0.22102-0.92879-0.18104 0.03538-0.86665 0.11181
   7  -1  12 2589.36 528.535   1 0.80780-0.08542-0.51946 0.37342-0.05975 0.86944
  -7  -1 -12 2652.94 502.797   2 0.22635-0.94872-0.18027 0.03457-0.86419 0.05382
   7  -1  13 1663.96 408.505   1 0.83750-0.10056-0.49433 0.34833-0.00819 0.87339
   7   0 -18-289.782 203.073   7 0.65181-0.36753-0.68127 0.68132-0.14843-0.70698
  -7   0  18-80.8012 139.489  10 0.47909-0.76451 0.57162-0.57110 0.76874 0.08691
   7   0 -17 494.013 240.495   7 0.64166-0.34273-0.70786 0.70795-0.11437-0.68550
  -7   0  17 224.070 152.499  10 0.48000-0.78001 0.57469-0.57419 0.76579 0.03433
   7   0 -16 12717.5 907.307   9 0.77727-0.46297-0.59564 0.59572 0.01017-0.75458
  -7   0  16 11677.9 950.742   5 0.58614-0.89996 0.40744-0.40733 0.83014-0.08596
   7   0 -16 10897.9 928.094   7 0.63016-0.31659-0.73265 0.73276-0.08034-0.66397
  -7   0  16 10483.1 811.281  10 0.48010-0.79471 0.57505-0.57457 0.76544-0.02087
   7   0 -15 86.6792 76.9137   9 0.79988-0.47098-0.58268 0.58277 0.07349-0.76238
  -7   0  15-90.1716 143.899   5 0.58063-0.90905 0.40566-0.40556 0.83410-0.14543
   7   0 -15 13.6402 133.480   7 0.61735-0.28914-0.75566 0.75580-0.04635-0.64241
  -7   0  15-25.9849 75.7530  10 0.47928-0.80848 0.57224-0.57178 0.76814-0.07910
   7   0 -14 1587.40 305.001   9 0.82015-0.47666-0.56626 0.56637 0.14025-0.77362
  -7   0  14 1641.27 346.262   5 0.57181-0.91484 0.40278-0.40270 0.84025-0.20710
   7   0 -14 2081.14 392.156   7 0.60324-0.26038-0.77694 0.77711-0.01239-0.62083
  -7   0  14 1280.02 267.010  10 0.47731-0.82111 0.56565-0.56521 0.77439-0.14089
   7   0 -13 14723.8 869.502   9 0.83752-0.47943-0.54577 0.54590 0.21080-0.78864
  -7   0  13 13559.2 916.143   5 0.55918-0.91682 0.39858-0.39853 0.84873-0.27110
   7   0 -13 13045.4 915.036   7 0.58784-0.23034-0.79650 0.79670 0.02155-0.59922
  -7   0  13 13359.9 802.769  10 0.47389-0.83228 0.55439-0.55397 0.78477-0.20680
   7   0 -12 2771.70 368.247   9 0.85115-0.47847-0.52044 0.52059 0.28542-0.80773
  -7   0  12 1655.32 338.368   5 0.54208-0.91433 0.39280-0.39278 0.85958-0.33747
   7   0 -12 2522.35 399.817   7 0.57116-0.19902-0.81434 0.81456 0.05545-0.57758
  -7   0  12 2321.15 322.398   4 0.54155-0.91425 0.39252-0.39246 0.85966-0.33796
  -7   0  12 2009.76 302.568  10 0.46853-0.84151 0.53726-0.53686 0.79991-0.27748
  -7   0  11 592.379 174.379   4 0.50745-0.89471 0.41453-0.41449 0.86230-0.39606
   7   0 -11 741.375 187.573   9 0.85991-0.47264-0.48935 0.48951 0.36418-0.83097
  -7   0  11 782.729 238.027   5 0.51973-0.90659 0.38507-0.38507 0.87275-0.40615
   7   0 -11 507.195 209.446   7 0.55319-0.16640-0.83045 0.83070 0.08933-0.55591
   7   0 -10 1680.00 269.348   9 0.86229-0.46043-0.45144 0.45163 0.44685-0.85812
  -7   0  10 1632.30 311.402   5 0.49119-0.89267 0.37493-0.37495 0.88800-0.47692
   7   0 -10 1882.09 331.290   7 0.53393-0.13250-0.84480 0.84507 0.12314-0.53418
  -7   0  10 1906.51 279.650   4 0.46567-0.86748 0.43977-0.43974 0.86343-0.45264
   7   0  -9 4213.21 397.951   9 0.85636-0.43991-0.40563 0.40583 0.53262-0.88836
  -7   0   9 3957.21 375.316   6-0.38705-0.02932 0.91779-0.91814-0.01807 0.37395
  -7   0   9 4014.45 433.654   5 0.45538-0.87147 0.36180-0.36184 0.90483-0.54927
   7   0  -9 4005.89 449.316   7 0.51338-0.09730-0.85735 0.85765 0.15688-0.51237
  -7   0   9 4572.01 406.883   4 0.41569-0.83207 0.46766-0.46765 0.86199-0.50665
  -7   0   8 437.553 148.178   4 0.35735-0.78829 0.49733-0.49733 0.85679-0.55691
  -7   0   8 792.242 178.052   6-0.35209-0.07888 0.93263-0.93296-0.01824 0.31858
   7   0  -8 600.544 162.537   9 0.83984-0.40879-0.35093 0.35115 0.61981-0.92003
  -7   0   8 387.018 151.791   5 0.41113-0.84182 0.34501-0.34508 0.92239-0.62235
   7   0  -8 709.079 205.401   7 0.49152-0.06080-0.86806 0.86839 0.19051-0.49045
   7   0  -7 63319.7 1428.10   9 0.81031-0.36468-0.28682 0.28706 0.70567-0.95037
  -7   0   7 63328.4 1481.90   6-0.32269-0.12288 0.94384-0.94416-0.01836 0.26316
  -7   0   7 61496.7 1565.22   5 0.35726-0.80257 0.32382-0.32390 0.93937-0.69485
   7   0  -7 60756.0 1590.93   7 0.46836-0.02300-0.87687 0.87723 0.22398-0.46837
  -7   0   7 65744.6 1468.03   4 0.29093-0.73643 0.52763-0.52764 0.84664-0.60221
   7   0  -6 24120.1 857.578   9 0.76582-0.30559-0.21366 0.21392 0.78627-0.97544
  -7   0   6 20991.9 858.650   6-0.29887-0.16129 0.95212-0.95242-0.01844 0.20771
   7   0  -6 21835.7 901.467   3 0.73117-0.27178 0.39486-0.39437 0.72951-0.91817
  -7   0   6 21407.9 900.412   5 0.29283-0.75274 0.29745-0.29756 0.95388-0.76488
   7   0  -5 167.674 84.6667   9 0.70556-0.23073-0.13310 0.13338 0.85690-0.99055
  -7   0   5 375.546 138.473   6-0.28066-0.19411 0.95797-0.95826-0.01850 0.15223
   7   0  -5 308.850 132.944   3 0.66976-0.19571 0.38943-0.38898 0.78652-0.91966
  -7   0   5 445.981 161.323   5 0.21736-0.69189 0.26530-0.26543 0.96354-0.83006
   7   0  -4 17.8256 54.9066   9 0.63072-0.14130-0.04825 0.04854 0.91302-0.99114
  -7   0   4 88.7332 113.545   6-0.26805-0.22131 0.96178-0.96205-0.01853 0.09672
   7   0  -4-35.8071 84.7161   3 0.59990-0.11118 0.37995-0.37955 0.83733-0.91494
  -7   0   4 36.1540 97.7345   5 0.13122-0.62036 0.22705-0.22720 0.96560-0.88763
   7   0  -4 61.5725 43.9646  10-0.13457 0.62429 0.18146-0.18170-0.97521 0.89707
   7   0  -3 1109.70 193.047   9 0.54478-0.04077 0.03672-0.03641 0.95152-0.97412
  -7   0   3 1136.37 220.540   6-0.26106-0.24289 0.96380-0.96406-0.01855 0.04120
   7   0  -3 846.679 191.717   3 0.52293-0.01955 0.36642-0.36606 0.88016-0.90223
  -7   0   3 1128.33 221.211   5 0.03590-0.53965 0.18288-0.18306 0.95735-0.93490
   7   0  -3 1122.81 129.271  10-0.01810 0.52241 0.37127-0.37149-0.90032 0.87772
  -7   0   2 34233.4 1095.43   6-0.25970-0.25885 0.96419-0.96444-0.01855-0.01433
  -7   0   2 35281.1 1077.56   5-0.06589-0.45247 0.13366-0.13386 0.93667-0.96974
   7   0  -2 34811.3 1096.49   3 0.44101 0.07702 0.34919-0.34887 0.91367-0.88022
   7   0  -2 38281.1 740.762  10 0.09791 0.42099 0.53994-0.54014-0.78063 0.81357
   7   0  -2 35525.5 1036.71   9 0.45297 0.06564 0.11747-0.11714 0.97179-0.93887
  -7   0   1 2412.76 301.680   6-0.26397-0.26918 0.96297-0.96319-0.01854-0.06988
  -7   0   1 2557.38 299.881   5-0.17049-0.36249 0.08085-0.08107 0.90257-0.99116
   7   0  -1 2360.82 305.656   3 0.35692 0.17577 0.32897-0.32869 0.93729-0.84830
   7   0  -1 2812.12 207.545  10 0.19737 0.33613 0.66757-0.66775-0.64048 0.72896
  -7   0   1 2355.71 306.699   2-0.36001-0.17262-0.22865 0.22900-0.96745 0.87910
   7   0  -1 2768.45 301.571   9 0.36102 0.17218 0.19048-0.19013 0.97577-0.88732
   7   0   0 603.392 154.976   9 0.27389 0.27389 0.25371-0.25335 0.96715-0.82318
  -7   0   0 564.513 157.558   6-0.27387-0.27387 0.96004-0.96025-0.01852-0.12545
  -7   0   0 472.854 170.772   2-0.27362-0.27362-0.22630 0.22662-0.97402 0.83014
  -7   0   0 633.305 164.064   5-0.27379-0.27379 0.02636-0.02661 0.85549-0.99960
   7   0   0 867.101 124.898  10 0.27404 0.27404 0.75331-0.75347-0.50441 0.64842
  -7   0  -1 4902.59 420.111   6-0.28941-0.27293 0.95521-0.95540-0.01847-0.18103
  -7   0  -1 5500.59 440.414   5-0.37204-0.19015-0.02781 0.02754 0.79718-0.99681
   7   0   1 5833.30 333.990  10 0.33041 0.23227 0.80732-0.80746-0.38445 0.58400
   7   0   1 4629.32 445.793   1 0.34732 0.21464-0.65833 0.65753-0.55456 0.75366
  -7   0  -1 5497.50 471.829   2-0.19231-0.36952-0.22249 0.22277-0.97286 0.77344
  -7   0  -2 3863.89 371.889   6-0.31060-0.26634 0.94813-0.94831-0.01840-0.23663
  -7   0  -2 3615.08 364.902   5-0.46235-0.11445-0.07992 0.07962 0.73028-0.98542
   7   0   2 4553.97 460.667   1 0.41581 0.16071-0.65460 0.65385-0.50153 0.75615
   7   0   2 4474.05 313.543  10 0.37169 0.20558 0.84042-0.84054-0.28228 0.53737
  -7   0  -2 4016.35 418.679   2-0.11804-0.45839-0.21771 0.21796-0.96595 0.71100
  -7   0  -3 26007.7 957.734   6-0.33744-0.25410 0.93836-0.93852-0.01830-0.29227
  -7   0  -3 26541.2 991.135   5-0.54299-0.04842-0.12868 0.12836 0.65767-0.96833
   7   0   3 27114.7 1119.11   1 0.47902 0.11207-0.64734 0.64663-0.44795 0.75808
   7   0   3 29676.8 863.062  10 0.40252 0.18934 0.86032-0.86042-0.19533 0.50595
  -7   0  -3 26743.6 1064.51   2-0.05196-0.53908-0.21247 0.21268-0.95527 0.64478
  -7   0  -4 4319.02 396.526   6-0.36995-0.23619 0.92526-0.92540-0.01815-0.34796
  -7   0  -4 4842.49 482.603   8-0.01178-0.59425 0.36413-0.36441-0.90122 0.53480
   7   0   4 4036.63 466.412   1 0.53699 0.06866-0.63705 0.63638-0.39439 0.76005
   7   0   4 5194.38 389.262  10 0.42617 0.18028 0.87180-0.87188-0.12025 0.48641
  -7   0  -4 5082.77 493.164   2 0.00550-0.61114-0.20717 0.20735-0.94258 0.57656
   7   0   5 524.551 225.708   1 0.58995 0.03027-0.62419 0.62356-0.34127 0.76244
  -7   0  -5 475.008 169.178   8 0.03450-0.65517 0.35715-0.35748-0.89108 0.46914
  -7   0  -5 257.991 157.658   2 0.05445-0.67469-0.20210 0.20225-0.92929 0.50774
   7   0   5 665.155 155.686  10 0.44480 0.17625 0.87770-0.87776-0.05418 0.47587
   7   0   6 3819.12 486.129   1 0.63818-0.00340-0.60914 0.60855-0.28883 0.76551
  -7   0  -6 3042.93 410.374   8 0.07318-0.70848 0.35071-0.35107-0.88110 0.40364
   7   0   6 3956.10 385.843  10 0.45979 0.17585 0.87971-0.87974 0.00510 0.47213
  -7   0  -6 3467.27 442.101   2 0.09533-0.73017-0.19749 0.19760-0.91643 0.43934
  -7   0  -7 6430.04 604.571   2 0.12877-0.77821-0.19345 0.19353-0.90471 0.37209
   7   0   7 7391.74 682.489   1 0.68200-0.03267-0.59222 0.59167-0.23724 0.76944
  -7   0  -7 6755.81 618.475   8 0.10477-0.75472 0.34504-0.34543-0.87191 0.33893
   7   0   7 7684.82 569.799  10 0.47207 0.17816 0.87883-0.87885 0.05920 0.47357
  -7   0  -8 16539.2 982.086   2 0.15547-0.81952-0.19005 0.19009-0.89456 0.30641
   7   0   8 17679.2 1087.75   1 0.72175-0.05785-0.57369 0.57317-0.18657 0.77429
  -7   0  -8 16808.3 998.590   8 0.12986-0.79445 0.34026-0.34069-0.86394 0.27545
   7   0   8 18591.1 928.436  10 0.48224 0.18259 0.87571-0.87570 0.10932 0.47898
   7   0   9 4617.98 589.339   1 0.75772-0.07925-0.55374 0.55326-0.13686 0.78010
  -7   0  -9 3765.54 509.725   2 0.17614-0.85478-0.18731 0.18732-0.88623 0.24254
  -7   0  -9 3274.80 469.990   8 0.14906-0.82828 0.33645-0.33691-0.85745 0.21344
   7   0   9 3725.77 451.637  10 0.49072 0.18870 0.87073-0.87071 0.15634 0.48751
   7   0  10 1121.64 349.783   1 0.79019-0.09716-0.53252 0.53208-0.08809 0.78685
  -7   0 -10 779.067 237.613   8 0.16291-0.85677 0.33361-0.33410-0.85254 0.15302
  -7   0 -10 681.472 267.664   2 0.19141-0.88466-0.18523 0.18521-0.87979 0.18058
   7   0  10 1230.29 273.363  10 0.49778 0.19624 0.86415-0.86410 0.20090 0.49848
   7   0  11-23.9925 224.740   1 0.81940-0.11181-0.51015 0.50975-0.04022 0.79449
  -7   0 -11-137.790 141.185   8 0.17194-0.88044 0.33172-0.33225-0.84925 0.09421
  -7   0 -11-310.836 209.831   2 0.20185-0.90970-0.18378 0.18372-0.87526 0.12051
  -7   0 -12 130.843 180.009   8 0.17658-0.89972 0.33073-0.33130-0.84752 0.03697
  -7   0 -12 210.139 190.691   2 0.20797-0.93042-0.18291 0.18283-0.87255 0.06227
   7   0  12 454.580 262.394   1 0.84557-0.12342-0.48670 0.48634 0.00680 0.80299
  -7   0 -13 175.417 188.998   8 0.17720-0.91498 0.33060-0.33120-0.84729-0.01878
  -7   0 -13-216.091 192.707   2 0.21017-0.94722-0.18260 0.18248-0.87157 0.00575
   7   0  13-271.598 238.322   1 0.86886-0.13215-0.46222 0.46190 0.05303 0.81227
   7   1 -18 534.102 251.756   7 0.67145-0.38702-0.60402 0.74980-0.23633-0.61901
   7   1 -17 89.1825 147.466   7 0.66630-0.36722-0.62984 0.77565-0.20853-0.59126
   7   1 -16 1438.64 371.248   7 0.66022-0.34651-0.65410 0.79994-0.18103-0.56321
   7   1 -15 3263.20 520.841   7 0.65330-0.32494-0.67686 0.82272-0.15386-0.53483
  -7   1  15 3162.34 440.468   4 0.65098-0.97996 0.31177-0.16596 0.83889-0.15079
   7   1 -14 16140.0 1075.40   7 0.64560-0.30260-0.69816 0.84405-0.12706-0.50608
  -7   1  14 18386.0 1015.77   4 0.63975-0.98329 0.32088-0.17508 0.84200-0.20937
  -7   1  13 2662.08 384.819   4 0.62416-0.98226 0.33317-0.18738 0.84592-0.26874
   7   1 -13 2572.34 438.929   7 0.63719-0.27954-0.71805 0.86397-0.10067-0.47693
   7   1 -12 16301.6 1005.82   7 0.62813-0.25584-0.73657 0.88252-0.07473-0.44733
  -7   1  12 17351.3 937.117   4 0.60370-0.97636 0.34874-0.20297 0.85038-0.32865
  -7   1  11 8217.94 553.689   6-0.23557-0.15155 0.97071-0.82524-0.01860 0.48552
  -7   1  11 7501.87 634.430   5 0.57152-0.95832 0.40268-0.25686 0.84045-0.37380
   7   1 -11 7329.53 659.925   7 0.61851-0.23158-0.75373 0.89971-0.04931-0.41720
  -7   1  11 7154.69 587.420   4 0.57776-0.96499 0.36762-0.22187 0.85500-0.38872
  -7   1  10 9345.84 594.823   6-0.18624-0.21548 0.98192-0.83643-0.01867 0.43004
  -7   1  10 8147.85 632.136   5 0.54566-0.94707 0.39402-0.24822 0.85737-0.44623
   7   1 -10 8632.87 686.110   7 0.60841-0.20683-0.76956 0.91557-0.02448-0.38648
  -7   1  10 8021.92 603.842   4 0.54574-0.94752 0.38973-0.24399 0.85922-0.44839
  -7   1   9 836.483 210.890   4 0.50701-0.92336 0.41481-0.26909 0.86232-0.50695
  -7   1   9 727.584 179.845   6-0.14348-0.27284 0.98939-0.84389-0.01868 0.37452
  -7   1   9 691.202 194.933   5 0.51232-0.92834 0.38247-0.23669 0.87687-0.52125
   7   1  -9 503.221 192.024   7 0.59792-0.18170-0.78408 0.93011-0.00035-0.35506
   7   1  -8 1510.79 203.919   9 0.86113-0.42999-0.43500 0.58110 0.47919-0.77936
  -7   1   8 1562.45 271.619   4 0.46109-0.89200 0.44243-0.29672 0.86342-0.56350
  -7   1   8 1064.68 205.892   6-0.10704-0.32388 0.99416-0.84864-0.01867 0.31897
  -7   1   8 1445.91 259.580   5 0.46995-0.90058 0.36719-0.22144 0.89828-0.59818
   7   1  -8 1353.94 266.139   7 0.58717-0.15630-0.79729 0.94334 0.02297-0.32284
   7   1  -7 7414.86 428.026   9 0.84672-0.40098-0.37033 0.51645 0.59052-0.83517
  -7   1   7 7060.26 517.003   6-0.07673-0.36879 0.99702-0.85148-0.01863 0.26340
   7   1  -7 7223.49 550.280   3 0.73706-0.29227 0.39520-0.24901 0.72328-0.96758
  -7   1   7 7528.62 539.156   5 0.41681-0.86206 0.34720-0.20147 0.92033-0.67574
   7   1  -7 6983.20 547.276   7 0.57628-0.13077-0.80919 0.95528 0.04532-0.28964
  -7   1   7 7345.03 543.109   4 0.40768-0.85315 0.47191-0.32622 0.86149-0.61702
   7   1  -6 10618.9 494.510   9 0.81155-0.35123-0.28915 0.43528 0.70281-0.89194
  -7   1   6 8409.88 562.924   6-0.05239-0.40772 0.99860-0.85304-0.01859 0.20782
   7   1  -6 9849.69 632.336   3 0.67756-0.21810 0.39028-0.24413 0.78000-0.96877
  -7   1   6 8811.71 560.339   5 0.35118-0.81103 0.32137-0.17566 0.94100-0.75193
   7   1  -6 9172.82 601.722   7 0.56544-0.10529-0.81979 0.96590 0.06651-0.25528
  -7   1   6 8733.34 580.866   4 0.34682-0.80685 0.50237-0.35669 0.85547-0.66646
   7   1  -5 32100.7 843.711   9 0.75086-0.27594-0.19221 0.33836 0.80683-0.94043
  -7   1   5 30793.2 1068.94   6-0.03391-0.44079 0.99937-0.85380-0.01856 0.15224
   7   1  -5 30685.2 1090.35   3 0.61012-0.13601 0.38152-0.23541 0.83067-0.96391
  -7   1   5 28963.7 974.816   5 0.27169-0.74616 0.28858-0.14290 0.95736-0.82381
   7   1  -5 29341.9 1026.27   7 0.55486-0.08007-0.82907 0.97521 0.08628-0.21950
  -7   1   5 30046.2 1056.80   4 0.27895-0.75354 0.53272-0.38705 0.84436-0.71079
   7   1  -4 20496.8 674.361   9 0.66389-0.17438-0.08432 0.23049 0.89136-0.96944
  -7   1   4 20517.5 874.490   6-0.02119-0.46811 0.99968-0.85410-0.01853 0.09668
   7   1  -4 19918.1 874.938   3 0.53598-0.04720 0.36891-0.22284 0.87373-0.95144
  -7   1   4 18938.9 772.685   5 0.17790-0.66697 0.24797-0.10231 0.96563-0.88761
   7   1  -4 20526.3 822.671   7 0.54484-0.05540-0.83701 0.98318 0.10428-0.18196
  -7   1   3 15855.1 773.259   6-0.01417-0.48972 0.99978-0.85418-0.01851 0.04112
   7   1  -3 14826.1 758.735   3 0.45700 0.04644 0.35276-0.20673 0.90800-0.93018
  -7   1   3 15236.6 679.723   5 0.07092-0.57460 0.19932-0.05368 0.96164-0.93913
   7   1  -3 15762.3 690.362   7 0.53575-0.03166-0.84356 0.98975 0.12006-0.14219
   7   1  -3 15942.5 626.971  10-0.08421 0.58848 0.26610-0.12047-0.94854 0.92599
   7   1  -3 16782.8 619.943   9 0.55617-0.05206 0.02605 0.12014 0.94765-0.97020
  -7   1   2 39854.6 1217.75   6-0.01282-0.50568 0.99980-0.85418-0.01851-0.01442
  -7   1   2 38863.9 1063.11   5-0.04605-0.47224 0.14342 0.00220 0.94166-0.97467
   7   1  -2 39458.5 1231.43   3 0.37558 0.14251 0.33366-0.18767 0.93291-0.89956
   7   1  -2 40068.6 1042.25   7 0.52811-0.00938-0.84862 0.99485 0.13294-0.09953
   7   1  -2 40377.1 994.093  10-0.00813 0.52699 0.38656-0.24091-0.89179 0.92478
   7   1  -2 39502.3 1121.78   1 0.33608 0.18197-0.65856 0.80332-0.56279 0.59545
   7   1  -2 41695.1 1008.16   9 0.43830 0.08040 0.12959 0.01661 0.97342-0.94045
  -7   1   1 12327.8 683.071   6-0.01711-0.51598 0.99975-0.85412-0.01852-0.06995
  -7   1   1 12735.5 602.164   5-0.16784-0.36506 0.08221 0.06338 0.90360-0.99213
   7   1  -1 12265.3 693.360   3 0.29437 0.23839 0.31247-0.16652 0.94862-0.85974
   7   1  -1 14158.3 586.851   7 0.52265 0.01073-0.85201 0.99826 0.14195-0.05299
   7   1  -1 12912.1 668.113   1 0.40372 0.12890-0.65556 0.80037-0.51126 0.59943
   7   1  -1 13547.1 584.960  10 0.06668 0.46678 0.49653-0.35086-0.81730 0.90582
   7   1  -1 13461.1 594.150   9 0.32180 0.21149 0.21961-0.07338 0.97327-0.88477
  -7   1   0 5672.75 464.200   6-0.02707-0.52062 0.99956-0.85391-0.01854-0.12546
  -7   1   0 5700.74 407.247   5-0.28820-0.25932 0.01857 0.12700 0.84780-0.99185
   7   1   0 6538.97 375.234   7 0.52044 0.02758-0.85333 0.99961 0.14554-0.00104
   7   1   0 6097.74 479.622   1 0.46564 0.08154-0.64921 0.79405-0.45969 0.60338
   7   1   0 5987.73 396.450  10 0.13614 0.41190 0.59098-0.44528-0.73112 0.87518
  -7   1   0 5634.96 464.484   2-0.35389-0.19343-0.22854 0.37447-0.96820 0.82440
  -7   1  -1 1220.00 229.085   6-0.04274-0.51955 0.99904-0.85338-0.01858-0.18097
  -7   1  -1 913.136 210.655   2-0.27184-0.29008-0.22624 0.37213-0.97407 0.77474
  -7   1  -1 1097.68 188.029   5-0.40116-0.16097-0.04435 0.18990 0.77711-0.97667
   7   1   1 1101.72 239.208   1 0.52204 0.03971-0.64007 0.78495-0.40864 0.60785
   7   1   1 1362.45 201.406  10 0.19784 0.36479 0.66814-0.52243-0.63972 0.83932
  -7   1  -2 6340.81 491.829   6-0.06419-0.51269 0.99791-0.85223-0.01861-0.23646
  -7   1  -2 6760.59 455.723   5-0.50237-0.07436-0.10383 0.24935 0.69592-0.95101
   7   1   2 6765.81 547.519   1 0.57328 0.00303-0.62863 0.77355-0.35846 0.61318
  -7   1  -2 6853.98 558.926   8-0.05101-0.52570 0.36942-0.22376-0.90827 0.65297
   7   1   2 6892.98 452.778  10 0.25100 0.32623 0.72888-0.58314-0.54824 0.80338
  -7   1  -2 6946.27 534.857   2-0.19529-0.38123-0.22265 0.36851-0.97302 0.71816
  -7   1  -3 9110.13 590.037   6-0.09155-0.49993 0.99575-0.85005-0.01865-0.29196
   7   1   3 8288.58 631.961   1 0.61978-0.02891-0.61529 0.76026-0.30933 0.61957
  -7   1  -3 8743.97 646.519   8 0.00693-0.59828 0.36140-0.21578-0.89736 0.58654
   7   1   3 9621.32 559.351  10 0.29601 0.29581 0.77540-0.62965-0.45997 0.77064
  -7   1  -3 10118.4 564.941   7 0.02977-0.62142 0.72756-0.58247-0.65316 0.34216
  -7   1  -3 8315.57 591.005   2-0.12592-0.46520-0.21827 0.36410-0.96694 0.65654
  -7   1  -4 16576.4 796.510   6-0.12496-0.48112 0.99200-0.84629-0.01868-0.34748
   7   1   4 16581.1 911.369   1 0.66198-0.05655-0.60037 0.74538-0.26131 0.62707
  -7   1  -4 16457.9 908.365   8 0.05669-0.66268 0.35353-0.20794-0.88552 0.51919
   7   1   4 17494.7 792.185  10 0.33381 0.27260 0.81028-0.66451-0.37653 0.74275
  -7   1  -4 17960.2 747.507   7 0.06085-0.66715 0.70318-0.55812-0.66719 0.30065
  -7   1  -4 16054.1 834.620   2-0.06463-0.54110-0.21355 0.35934-0.95764 0.59171
  -7   1  -5 14646.0 755.952   6-0.16462-0.45606 0.98595-0.84023-0.01868-0.40301
   7   1   5 12035.1 807.884   1 0.70029-0.08030-0.58411 0.72915-0.21443 0.63570
  -7   1  -5 13799.4 858.846   8 0.09861-0.71924 0.34617-0.20062-0.87377 0.45192
   7   1   5 13061.9 717.661  10 0.36552 0.25548 0.83589-0.69010-0.29848 0.72022
  -7   1  -5 11754.1 740.251   2-0.01169-0.60864-0.20883 0.35459-0.94671 0.52524
   7   1   6 3839.70 497.028   1 0.73507-0.10052-0.56669 0.71177-0.16863 0.64542
  -7   1  -6 4795.21 430.586   6-0.21078-0.42449 0.97669-0.83095-0.01864-0.45859
  -7   1  -6 4223.56 499.368   8 0.13322-0.76848 0.33961-0.19409-0.86283 0.38547
   7   1   6 3984.37 414.887  10 0.39219 0.24341 0.85420-0.70838-0.22568 0.70297
  -7   1  -6 4046.78 452.546   2 0.03308-0.66801-0.20437 0.35010-0.93537 0.45838
   7   1   7 614.193 248.422   1 0.76665-0.11753-0.54824 0.69336-0.12385 0.65616
  -7   1  -7 869.138 272.590   8 0.16114-0.81104 0.33397-0.18849-0.85318 0.32030
  -7   1  -7 305.793 200.651   2 0.07014-0.71967-0.20037 0.34606-0.92454 0.39201
   7   1   7 842.472 224.137  10 0.41470 0.23549 0.86672-0.72088-0.15773 0.69055
   7   1   8 898.938 304.391   1 0.79529-0.13161-0.52886 0.67402-0.08002 0.66785
  -7   1  -8 806.946 253.281   8 0.18301-0.84756 0.32935-0.18390-0.84510 0.25670
  -7   1  -8 495.273 217.324   2 0.10013-0.76426-0.19692 0.34258-0.91481 0.32675
   7   1   8 808.588 217.278  10 0.43379 0.23099 0.87461-0.72875-0.09408 0.68244
   7   1   9 2279.81 430.919   1 0.82124-0.14300-0.50862 0.65382-0.03706 0.68040
  -7   1  -9 1473.67 349.954   8 0.19945-0.87863 0.32576-0.18034-0.83872 0.19480
  -7   1  -9 1720.48 358.445   2 0.12369-0.80242-0.19407 0.33970-0.90656 0.26296
   7   1   9 1563.85 315.267  10 0.45004 0.22934 0.87872-0.73285-0.03418 0.67807
   7   1  10 639.278 277.656   1 0.84468-0.15187-0.48756 0.63280 0.00512 0.69374
  -7   1 -10 472.745 242.208   8 0.21099-0.90482 0.32317-0.17778-0.83408 0.13465
  -7   1 -10 525.216 237.232   2 0.14146-0.83480-0.19185 0.33744-0.89997 0.20084
   7   1  10 593.041 200.057  10 0.46388 0.23009 0.87971-0.73381 0.02248 0.67695
  -7   1 -11 3033.56 501.808   8 0.21813-0.92659 0.32154-0.17619-0.83115 0.07620
  -7   1 -11 2958.23 482.395   2 0.15404-0.86198-0.19023 0.33579-0.89512 0.14046
   7   1  11 2928.52 452.988  10 0.47568 0.23288 0.87801-0.73210 0.07636 0.67861
   7   1  11 3661.81 576.999   1 0.86576-0.15840-0.46572 0.61100 0.04659 0.70778
  -7   1 -12 3074.79 505.759   8 0.22126-0.94436 0.32082-0.17551-0.82984 0.01938
  -7   1 -12 2467.48 441.485   2 0.16195-0.88448-0.18920 0.33472-0.89199 0.08180
   7   1  12 3426.27 509.030  10 0.48571 0.23745 0.87398-0.72805 0.12787 0.68264
  -7   1 -13 1004.09 319.664   8 0.22073-0.95847 0.32094-0.17566-0.83006-0.03592
  -7   1 -13 1123.18 368.420   2 0.16562-0.90275-0.18872 0.33421-0.89052 0.02479
   7   1  13 656.420 255.638  10 0.49416 0.24359 0.86786-0.72190 0.17733 0.68871
  -7   2  17 1265.55 349.900   4 0.67320-0.97303 0.29314-0.00159 0.83194-0.03291
   7   2 -17 956.519 310.213   7 0.67953-0.38031-0.53649 0.82803-0.30298-0.49673
  -7   2  16 637.742 250.917   4 0.67012-0.98451 0.29577-0.00424 0.83297-0.08938
   7   2 -16 855.303 294.225   7 0.67767-0.36381-0.55858 0.85015-0.28206-0.46211
  -7   2  15-64.2197 135.007   4 0.66401-0.99296 0.30095-0.00943 0.83494-0.14681
   7   2 -15 534.085 234.847   7 0.67528-0.34678-0.57912 0.87071-0.26186-0.42676
  -7   2  14 1729.06 356.399   4 0.65460-0.99811 0.30880-0.01729 0.83783-0.20515
   7   2 -14 2566.84 446.704   7 0.67246-0.32931-0.59813 0.88975-0.24248-0.39060
  -7   2  13 2810.27 430.978   4 0.64154-0.99961 0.31944-0.02795 0.84152-0.26430
   7   2 -13 3167.51 483.916   7 0.66930-0.31150-0.61561 0.90726-0.22402-0.35350
  -7   2  12 149.309 141.197   4 0.62443-0.99706 0.33296-0.04148 0.84586-0.32409
   7   2 -12 71.0260 150.319   7 0.66591-0.29347-0.63156 0.92323-0.20663-0.31535
  -7   2  11 1650.36 327.698   4 0.60279-0.98999 0.34942-0.05795 0.85056-0.38424
  -7   2  11 1816.50 287.437   6-0.01971-0.36736 0.99971-0.70838-0.01852 0.48540
   7   2 -11 1473.86 315.058   7 0.66242-0.27533-0.64591 0.93762-0.19047-0.27596
  -7   2  10 5619.65 491.159   6 0.02662-0.42828 0.99932-0.70797-0.01839 0.42972
  -7   2  10 5562.89 523.260   5 0.57694-0.97828 0.40446-0.11284 0.83670-0.42550
   7   2 -10 5069.77 549.417   7 0.65895-0.25722-0.65862 0.95035-0.17574-0.23515
  -7   2  10 4801.67 514.165   4 0.57612-0.97788 0.36879-0.07734 0.85525-0.44439
  -7   2   9 9118.19 621.210   6 0.06636-0.48262 0.99715-0.70579-0.01824 0.37403
  -7   2   9 8723.70 623.736   5 0.54467-0.96063 0.39369-0.10209 0.85798-0.50230
   7   2  -9 8784.55 692.594   7 0.65565-0.23928-0.66958 0.96134-0.16270-0.19264
  -7   2   9 8428.52 656.908   4 0.54390-0.96021 0.39096-0.09953 0.85942-0.50400
  -7   2   8 8061.59 585.904   6 0.09990-0.53076 0.99399-0.70261-0.01809 0.31835
   7   2  -8 7876.35 600.936   3 0.76491-0.33472 0.39631-0.10441 0.69165-0.99159
  -7   2   8 7499.84 557.292   5 0.50267-0.93323 0.37904-0.08747 0.88207-0.58191
   7   2  -8 7758.82 624.579   7 0.65270-0.22169-0.67864 0.97043-0.15167-0.14813
  -7   2   8 7828.37 624.096   4 0.50561-0.93649 0.41569-0.12427 0.86240-0.56243
  -7   2   7 33630.4 1185.71   6 0.12759-0.57304 0.99046-0.69907-0.01795 0.26267
   7   2  -7 32099.7 1180.00   3 0.71038-0.26552 0.39338-0.10152 0.75035-0.99476
  -7   2   7 34730.7 1128.90   5 0.44855-0.89373 0.35925-0.06770 0.90777-0.66312
   7   2  -7 32341.6 1209.08   7 0.65030-0.20465-0.68558 0.97739-0.14306-0.10119
  -7   2   7 33304.7 1246.79   4 0.46086-0.90630 0.44256-0.15116 0.86342-0.61891
  -7   2   6 970.130 243.585   4 0.40940-0.86940 0.47101-0.17962 0.86160-0.67255
  -7   2   6 864.715 207.693   6 0.14966-0.60971 0.98704-0.69563-0.01782 0.20701
   7   2  -6 775.575 216.289   3 0.64818-0.18866 0.38683-0.09501 0.80362-0.99249
  -7   2   6 1013.18 193.564   5 0.37965-0.83943 0.33272-0.04119 0.93287-0.74375
   7   2  -6 831.395 205.613   7 0.64868-0.18838-0.69006 0.98190-0.13742-0.05129
  -7   2   5 18493.3 887.021   6 0.16632-0.64097 0.98410-0.69268-0.01772 0.15137
   7   2  -5 17626.8 856.132   3 0.57928-0.10510 0.37661-0.08483 0.85002-0.98336
  -7   2   5 19730.4 776.598   5 0.29336-0.76776 0.29768-0.00617 0.95379-0.82018
   7   2  -5 18259.2 839.013   7 0.64811-0.17316-0.69161 0.98347-0.13546 0.00231
  -7   2   5 16153.6 849.657   4 0.35122-0.82578 0.50028-0.20890 0.85604-0.72243
  -7   2   4 5410.16 488.123   6 0.17771-0.66696 0.98191-0.69047-0.01765 0.09576
   7   2  -4 5299.88 475.986   3 0.50519-0.01635 0.36292-0.07118 0.88839-0.96620
  -7   2   4 5911.56 411.918   5 0.18796-0.67696 0.25242 0.03906 0.96529-0.88720
   7   2  -4 6205.45 403.273   1 0.50867-0.01996-0.64254 0.93291-0.42112 0.34285
   7   2  -4 5276.21 433.376   7 0.64890-0.15932-0.68945 0.98135-0.13819 0.06058
  -7   2   4 4970.71 471.825   4 0.28664-0.77576 0.52946-0.23811 0.84584-0.76769
  -7   2   3 37506.4 1263.68   6 0.18395-0.68779 0.98065-0.68920-0.01761 0.04018
   7   2  -3 42298.4 1100.17   1 0.55463-0.05136-0.63316 0.92357-0.37717 0.35442
  -7   2   3 42518.3 1057.42   5 0.06380-0.56742 0.19600 0.09546 0.96089-0.93832
   7   2  -3 41166.1 1145.41   7 0.65142-0.14719-0.68240 0.97432-0.14703 0.12497
   7   2  -3 39949.8 1173.72  10-0.09169 0.59592 0.25379 0.03769-0.95306 0.93056
  -7   2   2 27148.3 1073.06   6 0.18508-0.70352 0.98042-0.68895-0.01760-0.01536
   7   2  -2 30331.9 977.536   1 0.59630-0.07847-0.62240 0.91285-0.33459 0.36735
  -7   2   2 29928.2 858.675   5-0.07523-0.44299 0.12903 0.16240 0.93416-0.96711
   7   2  -2 25725.3 1043.57   3 0.34971 0.16846 0.32713-0.03547 0.93885-0.90561
   7   2  -2 29724.3 918.024   7 0.65601-0.13714-0.66843 0.96038-0.16409 0.19758
   7   2  -2 28371.5 989.979  10-0.03513 0.55395 0.34480-0.05330-0.91414 0.94719
  -7   2   1 2371.47 331.682   6 0.18114-0.71417 0.98123-0.68974-0.01763-0.07088
   7   2  -1 2668.91 308.225   1 0.63423-0.10183-0.61051 0.90099-0.29328 0.38156
  -7   2   1 2958.18 271.944   5-0.22124-0.31160 0.05438 0.23703 0.88117-0.96964
   7   2  -1 2498.22 305.400  10 0.02224 0.51117 0.43221-0.14069-0.86379 0.95237
  -7   2   0 22813.3 983.123   6 0.17209-0.71972 0.98301-0.69151-0.01769-0.12636
   7   2   0 23825.1 942.687   1 0.66889-0.12194-0.59764 0.88817-0.25310 0.39690
   7   2   0 24003.2 924.713  10 0.07849 0.46951 0.51313-0.22158-0.80382 0.94794
  -7   2   0 23338.7 978.462   7 0.03412-0.58169 0.72424-0.43334-0.65521 0.51092
   7   2   1 9734.15 635.638   1 0.70069-0.13917-0.58393 0.87449-0.21392 0.41323
  -7   2  -1 9493.76 640.877   6 0.15786-0.72009 0.98563-0.69411-0.01777-0.18181
   7   2   1 9859.34 608.532  10 0.13201 0.43059 0.58557-0.29400-0.73673 0.93639
  -7   2  -1 10445.3 635.195   2-0.39288-0.16913-0.22904 0.52055-0.96269 0.76345
  -7   2  -1 10352.5 653.617   7 0.06966-0.63188 0.69598-0.40511-0.67093 0.47109
   7   2   2 11868.7 730.951   1 0.72993-0.15385-0.56944 0.86004-0.17561 0.43044
  -7   2  -2 11105.1 693.982   6 0.13835-0.71518 0.98886-0.69733-0.01789-0.23723
  -7   2  -2 11115.1 734.991   8-0.01474-0.56194 0.36455-0.07301-0.90180 0.64659
   7   2   2 10871.5 648.839  10 0.18166 0.39552 0.64856-0.35698-0.66513 0.92032
  -7   2  -2 11063.5 675.595   7 0.10240-0.67927 0.66812-0.37727-0.68384 0.42846
  -7   2  -2 11389.8 671.573   2-0.31563-0.26098-0.22767 0.51915-0.97187 0.71710
   7   2   3 3741.25 444.463   1 0.75689-0.16624-0.55424 0.84488-0.13806 0.44840
  -7   2  -3 3817.40 414.225   6 0.11340-0.70482 0.99238-0.70082-0.01802-0.29264
  -7   2  -3 3755.66 449.005   8 0.03995-0.63126 0.35628-0.06478-0.88976 0.57904
   7   2   3 3598.07 389.858  10 0.22686 0.36492 0.70201-0.41041-0.59136 0.90209
  -7   2  -3 3823.36 403.524   7 0.13197-0.72348 0.64141-0.35059-0.69419 0.38327
  -7   2  -3 3116.18 372.609   2-0.24352-0.34769-0.22507 0.51651-0.97439 0.66409
  -7   2  -4 4814.96 463.727   6 0.08277-0.68879 0.99576-0.70419-0.01817-0.34803
  -7   2  -4 3771.34 461.835   8 0.08658-0.69253 0.34835-0.05688-0.87731 0.51107
   7   2   4 4141.61 430.845  10 0.26742 0.33895 0.74642-0.45480-0.51728 0.88355
  -7   2  -4 4589.28 440.790   7 0.15808-0.76423 0.61658-0.32579-0.70228 0.33580
  -7   2  -4 4197.65 438.754   2-0.17812-0.42769-0.22167 0.51307-0.97196 0.60612
   7   2   4 4915.60 531.431   1 0.78176-0.17655-0.53836 0.82904-0.10116 0.46702
  -7   2  -5 11972.8 725.142   6 0.04619-0.66680 0.99846-0.70688-0.01832-0.40342
  -7   2  -5 11459.3 815.966   8 0.12563-0.74622 0.34108-0.04965-0.86533 0.44357
   7   2   5 12132.7 757.329  10 0.30348 0.31749 0.78262-0.49098-0.44421 0.86601
  -7   2  -5 11981.3 712.740   7 0.18055-0.80134 0.59427-0.30350-0.70841 0.28639
  -7   2  -5 12560.7 760.535   2-0.12032-0.50009-0.21788 0.50925-0.96624 0.54487
   7   2   5 11772.7 827.206   1 0.80471-0.18494-0.52184 0.81256-0.06482 0.48620
  -7   2  -6 10042.5 663.772   6 0.00327-0.63848 0.99980-0.70820-0.01846-0.45881
  -7   2  -6 7681.59 696.538   8 0.15774-0.79297 0.33468-0.04328-0.85440 0.37712
   7   2   6 9625.49 697.616  10 0.33533 0.30023 0.81159-0.51992-0.37299 0.85033
   7   2   6 9372.98 768.949   1 0.82589-0.19156-0.50467 0.79543-0.02897 0.50587
  -7   2  -6 8837.65 657.844   2-0.07040-0.56461-0.21403 0.50537-0.95867 0.48176
  -7   2  -7 19828.2 1135.65   8 0.18353-0.83339 0.32924-0.03788-0.84490 0.31211
   7   2   7 19230.2 1021.10  10 0.36336 0.28679 0.83427-0.54258-0.30408 0.83696
   7   2   7 19316.8 1129.75   1 0.84539-0.19649-0.48688 0.77768 0.00645 0.52596
  -7   2  -7 21568.1 1049.14   2-0.02825-0.62136-0.21037 0.50167-0.95041 0.41797
  -7   2  -8 467.052 192.217   2 0.00654-0.67075-0.20706 0.49834-0.94232 0.35435
  -7   2  -8 275.002 184.611   8 0.20364-0.86814 0.32482-0.03349-0.83705 0.24874
   7   2   8 24.1115 93.7574  10 0.38797 0.27677 0.85153-0.55983-0.23770 0.82611
   7   2   8 429.033 235.154   1 0.86329-0.19983-0.46845 0.75929 0.04152 0.54641
  -7   2  -9 3031.89 493.403   8 0.21865-0.89779 0.32142-0.03013-0.83093 0.18711
  -7   2  -9 3147.84 445.520   2 0.03449-0.71330-0.20423 0.49547-0.93498 0.29148
   7   2   9 2857.64 446.430  10 0.40956 0.26977 0.86413-0.57241-0.17385 0.81780
  -7   2 -10 2377.74 448.278   8 0.22907-0.92286 0.31900-0.02774-0.82655 0.12721
  -7   2 -10 2589.28 426.257   2 0.05618-0.74959-0.20191 0.49312-0.92878 0.22974
   7   2  10 2901.58 465.897  10 0.42848 0.26545 0.87270-0.58096-0.11246 0.81194
  -7   2 -11 181.719 173.758   8 0.23536-0.94378 0.31752-0.02630-0.82385 0.06900
   7   2  11 4.35603 120.649  10 0.44501 0.26351 0.87775-0.58599-0.05337 0.80839
  -7   2 -12 1045.59 322.682   8 0.23789-0.96095 0.31692-0.02574-0.82276 0.01239
   7   2  12 1665.91 365.355  10 0.45943 0.26368 0.87969-0.58791 0.00360 0.80696
  -7   3  16 2079.44 426.658   4 0.66180-0.97616 0.30281 0.13443 0.83564-0.09201
   7   3 -16 2133.32 474.810   7 0.68056-0.36655-0.44978 0.88707-0.37811-0.36599
  -7   3  15 120.426 142.634   4 0.65610-0.98502 0.30756 0.12967 0.83738-0.14921
   7   3 -15-137.773 171.507   7 0.68108-0.35243-0.46682 0.90414-0.36416-0.32439
  -7   3  14 969.377 292.106   4 0.64744-0.99092 0.31467 0.12254 0.83990-0.20718
   7   3 -14 1300.93 363.919   7 0.68126-0.33796-0.48202 0.91937-0.35139-0.28161
  -7   3  13 2065.08 424.137   4 0.63552-0.99356 0.32425 0.11295 0.84311-0.26585
   7   3 -13 2477.39 450.233   7 0.68119-0.32325-0.49532 0.93269-0.33997-0.23749
   7   3 -12 4748.43 584.640   7 0.68096-0.30837-0.50660 0.94400-0.33008-0.19183
  -7   3  12 4555.81 565.008   4 0.62004-0.99264 0.33636 0.10083 0.84688-0.32507
  -7   3  11 2765.56 447.618   4 0.60061-0.98777 0.35104 0.08613 0.85099-0.38463
  -7   3  11 3068.58 406.121   6 0.14121-0.52822 0.98842-0.55123-0.01787 0.48470
   7   3 -11 2560.51 418.865   7 0.68065-0.29342-0.51571 0.95314-0.32196-0.14440
  -7   3  10 2809.80 435.090   4 0.57682-0.97854 0.36830 0.06886 0.85515-0.44424
  -7   3  10 2072.54 328.943   6 0.18192-0.58353 0.98107-0.54387-0.01762 0.42892
  -7   3  10 2379.96 337.793   5 0.58422-0.98550 0.40682 0.03062 0.83153-0.42027
   7   3 -10 2331.90 403.361   7 0.68035-0.27848-0.52244 0.95990-0.31589-0.09493
  -7   3   9 5131.93 514.174   6 0.21662-0.63283 0.97333-0.53611-0.01739 0.37314
   7   3  -9 4969.47 544.497   7 0.68014-0.26363-0.52649 0.96398-0.31220-0.04307
  -7   3   9 4528.33 533.271   4 0.54824-0.96453 0.38805 0.04909 0.85895-0.50349
  -7   3   8 1424.41 298.403   4 0.51445-0.94529 0.41013 0.02700 0.86189-0.56189
  -7   3   8 1690.11 312.412   6 0.24576-0.67656 0.96575-0.52851-0.01717 0.31739
   7   3  -8 1333.01 269.473   3 0.76069-0.33043 0.39620 0.04137 0.69670-0.99673
   7   3  -8 1415.09 290.076   7 0.68009-0.24893-0.52746 0.96498-0.31131 0.01159
  -7   3   7 2132.40 367.739   4 0.47505-0.92045 0.43427 0.00284 0.86337-0.61882
  -7   3   7 1978.62 331.847   6 0.26969-0.71509 0.95877-0.52152-0.01698 0.26166
   7   3  -7 1948.50 320.317   3 0.70599-0.26107 0.39302 0.04451 0.75453-0.99904
   7   3  -7 2111.80 336.111   7 0.68023-0.23443-0.52480 0.96234-0.31374 0.06957
  -7   3   6 668.897 219.459   4 0.42974-0.88970 0.46007-0.02297 0.86269-0.67359
  -7   3   6 580.256 203.970   6 0.28869-0.74868 0.95274-0.51547-0.01682 0.20596
   7   3  -6 763.085 220.130   3 0.64441-0.18482 0.38634 0.05115 0.80647-0.99545
   7   3  -6 333.041 139.471   7 0.68057-0.22012-0.51773 0.95530-0.32014 0.13152
   7   3  -5 12901.4 764.062   3 0.57705-0.10281 0.37624 0.06121 0.85133-0.98478
   7   3  -5 13546.5 765.945   7 0.68100-0.20590-0.50516 0.94275-0.33135 0.19827
  -7   3   5 13235.8 835.151   4 0.37837-0.85289 0.48699-0.04991 0.85908-0.72544
  -7   3   4 2565.73 370.543   4 0.32097-0.81006 0.51436-0.07730 0.85177-0.77358
   7   3  -4 2849.46 341.326   7 0.68126-0.19153-0.48546 0.92309-0.34845 0.27092
   7   3  -4 2247.82 331.310   3 0.50552-0.01662 0.36299 0.07442 0.88824-0.96616
   7   3  -4 1881.63 304.534  10-0.12098 0.61057 0.20471 0.23260-0.96889 0.89092
   7   3  -3 6490.10 551.585   3 0.43171 0.07185 0.34708 0.09029 0.91679-0.93918
   7   3  -3 7590.83 514.770   7 0.68080-0.17642-0.45623 0.89388-0.37287 0.35088
   7   3  -3 6119.64 533.568  10-0.07783 0.58201 0.27655 0.16078-0.94452 0.92208
  -7   3   3 6762.51 587.040   4 0.25783-0.76148 0.54143-0.10438 0.84001-0.81727
   7   3  -2 27300.1 1127.28   3 0.35767 0.16055 0.32916 0.10817 0.93712-0.90398
   7   3  -2 27744.5 1121.22  10-0.03263 0.55141 0.34871 0.08864-0.91218 0.94527
  -7   3   2 26564.8 1175.95   7 0.02295-0.54109 0.73270-0.29602-0.64990 0.61678
   7   3  -1 10486.4 714.145   3 0.28537 0.24752 0.31000 0.12729 0.94985-0.86117
   7   3  -1 10408.2 693.109  10 0.01361 0.51976 0.41938 0.01799-0.87205 0.96069
  -7   3   1 10840.4 753.400   7 0.05878-0.59157 0.70485-0.26820-0.66630 0.57763
   7   3   0 771.714 193.268   1 0.84018-0.29344-0.49184 0.92805-0.00327 0.14717
  -7   3   0 250.593 173.810   7 0.09226-0.63968 0.67694-0.24031-0.68000 0.53579
   7   3   0 518.792 177.612  10 0.05988 0.48808 0.48689-0.04949-0.82484 0.96901
  -7   3  -1 1088.95 253.999   7 0.12308-0.68515 0.64960-0.21299-0.69121 0.49145
  -7   3  -1 1555.58 300.897   6 0.29517-0.85735 0.95058-0.51320-0.01676-0.18286
   7   3   1 1341.78 267.347  10 0.10521 0.45734 0.54986-0.11245-0.77158 0.97129
   7   3   1 1559.84 276.569   1 0.84922-0.28792-0.48311 0.91936 0.01374 0.18567
  -7   3  -2 5193.04 522.698   6 0.27826-0.85503 0.95611-0.51871-0.01691-0.23826
  -7   3  -2 4471.36 497.368   8-0.01472-0.56191 0.36454 0.07287-0.90180 0.64668
   7   3   2 5337.21 514.685  10 0.14880 0.42835 0.60734-0.16991-0.71357 0.96881
  -7   3  -2 5109.42 522.373   7 0.15102-0.72773 0.62342-0.18684-0.70019 0.44488
   7   3   2 5633.61 520.616   1 0.85899-0.28313-0.47309 0.90937 0.03284 0.22209
  -7   3  -3 5400.26 535.056   6 0.25659-0.84796 0.96268-0.52527-0.01708-0.29361
  -7   3  -3 4614.62 516.624   8 0.03814-0.62941 0.35657 0.08081-0.89020 0.57957
   7   3   3 4561.49 483.524  10 0.19004 0.40169 0.65876-0.22131-0.65210 0.96288
  -7   3  -3 5353.83 533.647   7 0.17591-0.76727 0.59894-0.16240-0.70721 0.39635
   7   3   3 4825.68 514.253   1 0.86912-0.27870-0.46193 0.89825 0.05357 0.25688
  -7   3  -4 15884.7 909.376   6 0.22993-0.83589 0.96999-0.53256-0.01729-0.34895
  -7   3  -4 14867.1 936.048   8 0.08318-0.68909 0.34896 0.08839-0.87829 0.51214
   7   3   4 16179.6 931.348  10 0.22856 0.37778 0.70394-0.26646-0.58843 0.95475
  -7   3  -4 16805.4 943.979   7 0.19767-0.80367 0.57665-0.14013-0.71257 0.34617
  -7   3  -5 4715.79 494.019   6 0.19797-0.81853 0.97766-0.54022-0.01752-0.40426
  -7   3  -5 4177.42 519.997   8 0.12093-0.74148 0.34199 0.09532-0.86685 0.44518
   7   3   5 3915.17 475.857  10 0.26413 0.35680 0.74295-0.30545-0.52361 0.94546
  -7   3  -5 3028.46 421.031   7 0.21624-0.83688 0.55693-0.12044-0.71656 0.29461
  -7   3  -6 350.710 138.082   7 0.23162-0.86691 0.54011-0.10364-0.71944 0.24194
  -7   3  -6 1057.95 241.044   6 0.16034-0.79549 0.98519-0.54774-0.01776-0.45955
  -7   3  -6 482.071 194.806   8 0.15200-0.78719 0.33585 0.10143-0.85642 0.37924
   7   3   6 703.679 214.830  10 0.29671 0.33881 0.77608-0.33857-0.45850 0.93589
  -7   3  -7 1706.18 318.265   7 0.24383-0.89377 0.52642-0.08998-0.72145 0.18840
  -7   3  -7 2742.83 453.895   8 0.17704-0.82686 0.33063 0.10661-0.84735 0.31465
   7   3   7 2407.74 402.030  10 0.32635 0.32376 0.80374-0.36621-0.39376 0.92669
  -7   3  -8 795.954 260.899   8 0.19663-0.86109 0.32638 0.11083-0.83983 0.25162
   7   3   8 1196.23 295.013  10 0.35318 0.31152 0.82637-0.38882-0.32984 0.91830
  -7   3  -9 2360.48 453.847   8 0.21133-0.89043 0.32309 0.11408-0.83394 0.19021
   7   3   9 3347.81 509.356  10 0.37737 0.30193 0.84443-0.40686-0.26705 0.91105
  -7   3 -10 969.037 330.406   8 0.22161-0.91535 0.32074 0.11640-0.82970 0.13045
   7   3  10 1023.39 303.574  10 0.39909 0.29480 0.85835-0.42076-0.20557 0.90511
   7   3  11 1570.10 370.575  10 0.41852 0.28995 0.86852-0.43091-0.14548 0.90056
  -7   4  14 934.569 333.246   4 0.62393-0.96738 0.33334 0.24958 0.84598-0.21322
   7   4 -14 596.827 258.259   7 0.67214-0.32869-0.35561 0.93868-0.44900-0.18393
  -7   4  13 2551.73 490.933   4 0.61239-0.97040 0.34220 0.24070 0.84858-0.27128
   7   4 -13 1449.24 356.317   7 0.67326-0.31517-0.36411 0.94721-0.44300-0.13438
  -7   4  12 1220.49 346.646   4 0.59755-0.97013 0.35330 0.22959 0.85158-0.32973
   7   4 -12 1017.71 303.234   7 0.67401-0.30128-0.37010 0.95322-0.43873-0.08310
  -7   4  11 366.387 222.762   4 0.57913-0.96626 0.36665 0.21622 0.85478-0.38839
  -7   4  11 384.766 185.878   6 0.24533-0.63229 0.96587-0.38282-0.01717 0.48396
   7   4 -11 106.018 145.708   7 0.67440-0.28702-0.37331 0.95647-0.43642-0.02987
  -7   4  10 1503.78 345.794   4 0.55678-0.95848 0.38225 0.20061 0.85794-0.44700
  -7   4  10 1238.30 300.916   6 0.28067-0.68222 0.95534-0.37228-0.01689 0.42814
   7   4 -10 1240.97 313.739   7 0.67441-0.27239-0.37344 0.95662-0.43633 0.02559
  -7   4   9 2279.32 422.851   4 0.53016-0.94641 0.40003 0.18282 0.86072-0.50523
   7   4  -9 1900.61 366.350   7 0.67400-0.25734-0.37005 0.95327-0.43876 0.08357
   7   4  -8 3831.92 444.971   3 0.77578-0.34546 0.39648 0.18675 0.67822-0.97837
   7   4  -8 3708.61 480.624   7 0.67307-0.24176-0.36261 0.94585-0.44407 0.14442
  -7   4   8 3513.27 495.196   4 0.49889-0.92971 0.41985 0.16298 0.86271-0.56267
   7   4  -7 4114.80 460.965   3 0.72357-0.27859 0.39436 0.18883 0.73733-0.98194
   7   4  -7 3927.66 475.170   7 0.67141-0.22546-0.35037 0.93364-0.45265 0.20855
  -7   4   7 4217.14 542.818   4 0.46266-0.90803 0.44152 0.14130 0.86343-0.61884
   7   4  -6 5701.48 544.105   3 0.66495-0.20530 0.38888 0.19428 0.79045-0.97953
   7   4  -6 4804.95 510.974   7 0.66874-0.20814-0.33239 0.91569-0.46499 0.27643
  -7   4   6 4569.29 547.581   4 0.42117-0.88111 0.46472 0.11808 0.86229-0.67315
  -7   4   5 363.470 189.655   4 0.37424-0.84874 0.48905 0.09374 0.85867-0.72499
   7   4  -5 483.425 200.709   3 0.60109-0.12678 0.38014 0.20298 0.83657-0.97012
   7   4  -5 452.531 185.649  10-0.12338 0.59834 0.20062 0.38252-0.97006 0.83660
   7   4  -5 324.320 141.386   7 0.66453-0.18929-0.30737 0.89069-0.48162 0.34861
  -7   4   4 1447.92 312.579   4 0.32180-0.81086 0.51399 0.06879 0.85190-0.77367
   7   4  -4 1572.42 301.663   3 0.53351-0.04454 0.36845 0.21463 0.87497-0.95299
   7   4  -4 1259.48 298.824  10-0.08923 0.57878 0.25786 0.32531-0.95159 0.87366
  -7   4   3 1076.98 273.136   4 0.26397-0.76758 0.53893 0.04382 0.84131-0.81854
  -7   4   3 925.980 285.905   7 0.01986-0.52321 0.73501-0.15257-0.64841 0.67090
   7   4  -3 1021.85 257.320   3 0.46398 0.03965 0.35429 0.22875 0.90540-0.92789
   7   4  -3 1002.91 266.461  10-0.05304 0.55718 0.31651 0.26667-0.92763 0.90524
  -7   4   2 1018.46 293.333   7 0.05392-0.57192 0.70875-0.12634-0.66418 0.63113
   7   4  -2 1101.80 258.847   3 0.39432 0.12397 0.33826 0.24474 0.92803-0.89499
   7   4  -2 1311.85 302.437  10-0.01532 0.53406 0.37554 0.20766-0.89798 0.93113
   7   4  -1 6451.22 593.192   3 0.32625 0.20671 0.32103 0.26193 0.94347-0.85491
   7   4  -1 6334.46 621.858  10 0.02335 0.50998 0.43385 0.14937-0.86271 0.95139
  -7   4   1 6648.12 657.814   7 0.08579-0.61843 0.68248-0.10009-0.67748 0.58888
   7   4   0 3947.84 498.089  10 0.06236 0.48556 0.49041 0.09283-0.82210 0.96633
  -7   4   0 2935.02 441.572   7 0.11525-0.66253 0.65669-0.07434-0.68850 0.54435
  -7   4  -1 1465.08 316.187   7 0.14214-0.70406 0.63188-0.04955-0.69746 0.49777
   7   4   1 1128.63 281.562  10 0.10112 0.46139 0.54431 0.03895-0.77668 0.97644
  -7   4  -2 122.146 139.727   7 0.16634-0.74291 0.60848-0.02618-0.70462 0.44938
  -7   4  -2 395.500 169.326   8-0.04764-0.52896 0.36898 0.21431-0.90772 0.65269
   7   4   2 685.064 221.297  10 0.13908 0.43802 0.59480-0.01152-0.72710 0.98239
  -7   4  -3 1301.44 299.502   7 0.18780-0.77901 0.58687-0.00459-0.71023 0.39945
  -7   4  -3 1974.21 351.048   8 0.00495-0.59618 0.36170 0.22156-0.89778 0.58724
   7   4   3 1533.11 330.517  10 0.17579 0.41590 0.64134-0.05804-0.67409 0.98493
  -7   4  -4 14.8176 117.846   7 0.20648-0.81234 0.56737 0.01488-0.71453 0.34820
  -7   4  -4 163.164 134.750   8 0.04991-0.65578 0.35465 0.22857-0.88727 0.52121
   7   4   4 359.179 173.710  10 0.21089 0.39540 0.68357-0.10025-0.61843 0.98480
  -7   4  -5 444.743 191.217   7 0.22239-0.84289 0.55025 0.03197-0.71776 0.29588
  -7   4  -5 537.994 217.214   6 0.29371-0.91421 0.95107-0.36777-0.01677-0.40504
  -7   4  -5 420.408 201.974   8 0.08778-0.70829 0.34814 0.23505-0.87697 0.45539
   7   4   5 298.133 192.231  10 0.24411 0.37677 0.72134-0.13799-0.56083 0.98274
  -7   4  -6 1018.83 279.100   7 0.23555-0.87070 0.53573 0.04646-0.72011 0.24269
  -7   4  -6 1450.03 305.183   6 0.26098-0.89608 0.96139-0.37808-0.01705-0.46031
  -7   4  -6 709.163 241.125   8 0.11914-0.75429 0.34233 0.24082-0.86742 0.39033
   7   4   6 867.974 266.427  10 0.27530 0.36018 0.75460-0.17124-0.50195 0.97939
  -7   4  -7 2907.78 458.206   7 0.24600-0.89579 0.52396 0.05821-0.72178 0.18881
  -7   4  -7 3178.09 512.414   8 0.14461-0.79439 0.33734 0.24577-0.85898 0.32638
   7   4   7 2610.07 449.783  10 0.30435 0.34571 0.78346-0.20008-0.44234 0.97532
  -7   4  -8 2165.36 405.055   7 0.25377-0.91820 0.51506 0.06707-0.72290 0.13438
  -7   4  -8 2540.57 475.298   8 0.16474-0.82916 0.33323 0.24986-0.85188 0.26376
   7   4   8 2671.43 460.407  10 0.33126 0.33340 0.80807-0.22467-0.38246 0.97098
  -7   4  -9 1822.42 418.987   8 0.18005-0.85911 0.32999 0.25306-0.84622 0.20258
   7   4   9 2198.10 429.477  10 0.35605 0.32320 0.82864-0.24522-0.32268 0.96673
  -7   5  11 2488.43 476.367   4 0.54180-0.92890 0.39236 0.33623 0.85963-0.39320
   7   5 -11 2235.22 440.044   7 0.64731-0.25979-0.22658 0.95547-0.53123 0.06502
  -7   5  10 2667.54 490.965   4 0.52000-0.92167 0.40659 0.32198 0.86151-0.45053
   7   5 -10 2732.36 463.492   7 0.64590-0.24374-0.22093 0.94984-0.53448 0.12381
  -7   5   9 449.834 231.793   4 0.49426-0.91049 0.42270 0.30585 0.86290-0.50737
   7   5  -9 12.9817 115.947   7 0.64345-0.22664-0.21129 0.94023-0.53996 0.18484
  -7   5   8 491.001 238.268   4 0.46428-0.89507 0.44058 0.28796 0.86343-0.56335
   7   5  -8 497.846 209.508   7 0.63971-0.20825-0.19709 0.92606-0.54787 0.24830
  -7   5   7 743.673 293.446   4 0.42978-0.87513 0.46004 0.26848 0.86269-0.61806
   7   5  -7 1162.29 324.592  10-0.13593 0.58166 0.17911 0.54984-0.97580 0.73132
   7   5  -7 1064.01 279.767   7 0.63432-0.18823-0.17763 0.90663-0.55844 0.31441
  -7   5   6 169.636 168.384   4 0.39052-0.85042 0.48083 0.24768 0.86019-0.67102
   7   5  -6 144.225 142.412  10-0.11006 0.57038 0.22317 0.50580-0.96334 0.77440
  -7   5   5 270.975 160.829   4 0.34631-0.82077 0.50262 0.22588 0.85541-0.72169
   7   5  -5 489.949 216.615  10-0.08219 0.55710 0.26943 0.45956-0.94728 0.81387
  -7   5   4 3011.33 457.437   4 0.29706-0.78608 0.52498 0.20350 0.84776-0.76949
   7   5  -4 3066.60 483.047  10-0.05253 0.54204 0.31733 0.41168-0.92726 0.84938
  -7   5   3 2290.13 435.721   7 0.02974-0.53294 0.72758 0.00058-0.65315 0.67572
  -7   5   3 2640.81 434.588   4 0.24280-0.74638 0.54742 0.18104 0.83666-0.81385
   7   5  -3 2220.42 410.579  10-0.02136 0.52546 0.36624 0.36279-0.90304 0.88071
  -7   5   2 2208.23 437.240   7 0.06052-0.57837 0.70345 0.02469-0.66705 0.63407
   7   5  -2 1886.18 371.835  10 0.01099 0.50771 0.41546 0.31359-0.87452 0.90772
   7   5  -1 4083.85 539.280  10 0.04414 0.48915 0.46428 0.26479-0.84170 0.93044
  -7   5   1 4026.27 573.187   7 0.08912-0.62161 0.67963 0.04848-0.67879 0.59026
  -7   5   0 755.623 282.479   7 0.11543-0.66256 0.65653 0.07155-0.68856 0.54449
   7   5   0 295.611 188.424  10 0.07770 0.47017 0.51203 0.21706-0.80473 0.94901
  -7   5  -1-58.8808 185.293   7 0.13935-0.70113 0.63452 0.09354-0.69658 0.49696
   7   5   1 7.68093 101.184  10 0.11129 0.45118 0.55807 0.17104-0.76390 0.96371
  -7   5  -2 2292.78 440.628   7 0.16082-0.73725 0.61391 0.11412-0.70307 0.44790
   7   5   2 1539.42 339.668  10 0.14452 0.43254 0.60184 0.12729-0.71956 0.97491
  -7   5  -3 3094.68 509.714   7 0.17983-0.77090 0.59499 0.13301-0.70823 0.39752
   7   5   3 2510.62 449.408  10 0.17707 0.41459 0.64291 0.08624-0.67216 0.98304
  -7   5  -4 9.52016 136.675   7 0.19637-0.80208 0.57801 0.14997-0.71227 0.34601
   7   5   4 115.844 143.156  10 0.20864 0.39761 0.68093 0.04824-0.62216 0.98858
  -7   5  -5 1058.37 321.757   7 0.21045-0.83080 0.56315 0.16480-0.71537 0.29357
   7   5   5 1504.62 352.616  10 0.23900 0.38184 0.71567 0.01352-0.57003 0.99199
  -7   5  -6 1066.27 323.902   7 0.22209-0.85709 0.55058 0.17734-0.71770 0.24035
   7   5   6 831.299 281.478  10 0.26796 0.36747 0.74698-0.01777-0.51624 0.99374
  -7   5  -7 757.944 253.585   7 0.23134-0.88098 0.54042 0.18747-0.71939 0.18649
  -7   6   6 1519.08 378.945   4 0.34079-0.80067 0.50522 0.36900 0.85467-0.66546
  -7   6   5 63.3376 140.228   4 0.29804-0.77247 0.52455 0.34965 0.84793-0.71417
  -7   6   4 671.340 275.997   4 0.25062-0.73961 0.54433 0.32986 0.83843-0.76012
   8  -5  -9 279.532 191.842   9 0.84659-0.35236-0.36993-0.35919 0.59115-0.92656
   8  -5  -8 1519.38 383.907   9 0.83516-0.32634-0.33913-0.38997 0.63682-0.91671
   8  -5  -7 5077.98 659.545   9 0.82067-0.29726-0.30704-0.42204 0.68026-0.90463
   8  -5  -6 303.350 155.450   9 0.80324-0.26524-0.27392-0.45515 0.72114-0.88998
  -8  -5   6 451.404 213.024   5-0.30384-0.23464 0.01005-0.73930 0.83913-0.67102
   8  -5  -5 3330.47 530.560   9 0.78307-0.23048-0.24005-0.48900 0.75913-0.87245
  -8  -5   5 2761.24 439.725   5-0.34882-0.20427-0.01479-0.71448 0.81224-0.69964
   8  -5  -4 2241.37 443.462   9 0.76043-0.19324-0.20580-0.52324 0.79396-0.85176
  -8  -5   4 2126.58 400.109   5-0.39424-0.17346-0.04040-0.68889 0.78200-0.72492
   8  -5  -3 1466.72 356.747   9 0.73566-0.15388-0.17151-0.55750 0.82543-0.82771
  -8  -5   3 1110.76 296.424   5-0.43951-0.14280-0.06651-0.66281 0.74853-0.74697
  -8  -5   3 1071.48 283.246  11 0.22833-0.81122-0.63503-0.09425 0.77168-0.77045
   8  -5  -2 81.7641 137.659   9 0.70920-0.11283-0.13759-0.59140 0.85342-0.80017
  -8  -5   2 137.469 158.557   5-0.48406-0.11286-0.09282-0.63652 0.71203-0.76599
  -8  -5   2 324.861 161.827  11 0.20395-0.80147-0.68096-0.04834 0.73183-0.78614
   8  -5  -1 3116.08 503.850   9 0.68151-0.07055-0.10442-0.62456 0.87789-0.76912
  -8  -5   1 2512.60 440.257   5-0.52739-0.08414-0.11906-0.61031 0.67279-0.78227
  -8  -5   1 2139.75 410.782  11 0.17863-0.79078-0.72448-0.00486 0.68887-0.79872
   8  -5   0 3259.84 508.530   9 0.65311-0.02756-0.07236-0.65660 0.89889-0.73460
  -8  -5   0 2681.66 453.684   5-0.56906-0.05708-0.14497-0.58441 0.63113-0.79613
  -8  -5   0 3257.66 500.439  11 0.15264-0.77941-0.76511 0.03574 0.64323-0.80863
   8  -5   1 604.203 242.314   9 0.62452 0.01563-0.04175-0.68719 0.91658-0.69676
  -8  -5  -1 434.332 229.916  11 0.12622-0.76762-0.80248 0.07308 0.59539-0.81633
   8  -5   2 685.507 234.065   9 0.59625 0.05849-0.01287-0.71606 0.93118-0.65583
  -8  -5  -2 1147.62 328.537  11 0.09961-0.75564-0.83637 0.10693 0.54580-0.82228
   8  -5   3 8.83787 73.3498   9 0.56877 0.10057 0.01405-0.74295 0.94296-0.61209
  -8  -5  -3 115.807 163.141  11 0.07303-0.74368-0.86665 0.13718 0.49490-0.82693
   8  -5   4-3.02068 106.082   9 0.54251 0.14142 0.03883-0.76771 0.95226-0.56586
  -8  -5  -4 137.594 172.472  11 0.04663-0.73191-0.89329 0.16379 0.44309-0.83067
  -8  -5  -5 173.847 222.029  11 0.02057-0.72048-0.91634 0.18681 0.39072-0.83384
   8  -4 -13 3018.18 533.589   9 0.86233-0.42638-0.46447-0.11885 0.41983-0.97729
  -8  -4  13 2538.61 447.705   5 0.10192-0.53805 0.21367-0.79694 0.96422-0.40742
   8  -4 -12 2741.02 504.702   9 0.86138-0.41084-0.43748-0.14582 0.47443-0.97637
  -8  -4  12 2671.60 456.610   5 0.07319-0.52393 0.20038-0.78367 0.96187-0.46058
   8  -4 -11 3951.50 580.755   9 0.85691-0.39178-0.40821-0.17507 0.52812-0.97454
  -8  -4  11 2691.58 461.143   5 0.04040-0.50576 0.18501-0.76832 0.95798-0.51222
   8  -4 -10 3839.92 583.059   9 0.84875-0.36902-0.37672-0.20655 0.58050-0.97139
  -8  -4  10 4034.87 534.436   5 0.00361-0.48358 0.16750-0.75083 0.95211-0.56187
   8  -4  -9 3155.57 514.261   9 0.83678-0.34246-0.34312-0.24012 0.63113-0.96650
  -8  -4   9 3376.16 482.684   5-0.03702-0.45756 0.14783-0.73119 0.94378-0.60905
   8  -4  -8 85.5378 138.635   9 0.82095-0.31204-0.30762-0.27561 0.67952-0.95936
  -8  -4   8-142.287 150.939   5-0.08123-0.42796 0.12606-0.70944 0.93250-0.65328
   8  -4  -7 427.695 205.051   9 0.80130-0.27779-0.27047-0.31274 0.72518-0.94949
  -8  -4   7 62.2321 129.038   5-0.12859-0.39520 0.10228-0.68568 0.91782-0.69413
   8  -4  -6 138.030 154.789   9 0.77796-0.23986-0.23202-0.35117 0.76761-0.93640
  -8  -4   6 292.111 174.612   5-0.17858-0.35983 0.07666-0.66009 0.89938-0.73120
   8  -4  -5 254.713 180.340   9 0.75121-0.19852-0.19270-0.39047 0.80637-0.91964
  -8  -4   5 97.3183 140.806   5-0.23054-0.32248 0.04947-0.63292 0.87689-0.76423
   8  -4  -4 3554.75 507.666   9 0.72145-0.15416-0.15299-0.43017 0.84110-0.89885
  -8  -4   4 3199.70 451.587   5-0.28372-0.28391 0.02099-0.60447 0.85022-0.79308
   8  -4  -3 4766.32 578.396   9 0.68918-0.10731-0.11340-0.46973 0.87154-0.87377
  -8  -4   3 4323.57 519.966   5-0.33735-0.24489-0.00841-0.57509 0.81938-0.81776
   8  -4  -2 4336.97 539.314   9 0.65505-0.05858-0.07448-0.50864 0.89758-0.84428
  -8  -4   2 4283.37 519.903   5-0.39064-0.20621-0.03835-0.54517 0.78452-0.83841
  -8  -4   2 4733.38 519.731  11 0.20154-0.79900-0.68528 0.10180 0.72781-0.78204
   8  -4  -1 928.282 278.939   9 0.61972-0.00866-0.03675-0.54635 0.91925-0.81043
  -8  -4   1 611.849 244.356   5-0.44284-0.16862-0.06846-0.51509 0.74592-0.85534
  -8  -4   1 682.132 218.522  11 0.17190-0.78399-0.73538 0.15187 0.67720-0.78697
   8  -4   0 3556.64 512.438   9 0.58393 0.04172-0.00067-0.58241 0.93673-0.77238
  -8  -4   0 4222.50 523.618   5-0.49331-0.13276-0.09837-0.48520 0.70398-0.86891
  -8  -4   0 3347.97 455.826  11 0.14191-0.76862-0.78075 0.19720 0.62397-0.78929
   8  -4   1 539.756 225.100   9 0.54839 0.09185 0.03335-0.61642 0.95033-0.73046
  -8  -4  -1 636.105 233.115   5-0.54149-0.09919-0.12775-0.45584 0.65915-0.87960
  -8  -4  -1 390.671 198.188  11 0.11194-0.75328-0.82112 0.23754 0.56894-0.78980
   8  -4   2 692.749 242.121   9 0.51377 0.14107 0.06499-0.64804 0.96045-0.68506
  -8  -4  -2 1442.81 303.046   2-0.24021-0.41407-0.22492-0.35724-0.97438 0.69852
  -8  -4  -2 731.099 243.796  11 0.08231-0.73828-0.85647 0.27286 0.51283-0.78923
   8  -4   3 705.095 254.292   9 0.48065 0.18879 0.09403-0.67706 0.96758-0.63666
  -8  -4  -3 739.479 234.604   2-0.18391-0.48498-0.22201-0.36019-0.97235 0.64096
  -8  -4  -3 678.006 253.565  11 0.05327-0.72387-0.88691 0.30327 0.45624-0.78819
   8  -4   4 1051.13 283.158   9 0.44951 0.23451 0.12034-0.70335 0.97221-0.58577
  -8  -4  -4 1535.85 330.014   2-0.13399-0.54949-0.21884-0.36339-0.96789 0.58096
  -8  -4  -4 1237.03 329.905  11 0.02498-0.71020-0.91267 0.32900 0.39966-0.78715
   8  -4   5 505.435 226.812   9 0.42076 0.27786 0.14384-0.72684 0.97486-0.53289
  -8  -4  -5 966.357 279.843   2-0.09047-0.60762-0.21564-0.36662-0.96200 0.51954
   8  -4   5 1160.05 314.895   1 0.35102 0.34828-0.65823 0.07476-0.55182 0.99308
   8  -4   6 1261.72 327.966   9 0.39467 0.31854 0.16456-0.74754 0.97599-0.47850
  -8  -4  -6 1525.49 328.258   2-0.05312-0.65956-0.21257-0.36972-0.95549 0.45750
   8  -4   6 1304.95 341.396   1 0.41759 0.29628-0.65445 0.07102-0.50009 0.99687
   8  -4   7 760.892 253.947   9 0.37143 0.35637 0.18255-0.76551 0.97603-0.42302
  -8  -4  -7 511.943 235.187   2-0.02164-0.70564-0.20976-0.37257-0.94897 0.39544
  -8  -4  -8 1688.95 366.396   2 0.00436-0.74625-0.20728-0.37508-0.94286 0.33380
  -8  -3  16 3112.87 511.958   5 0.28686-0.67909 0.29496-0.73234 0.95493-0.23151
   8  -3 -16 1732.09 412.916   7 0.50383-0.11243-0.86234 0.42534 0.17184-0.89574
   8  -3 -15 1045.23 317.960   9 0.85439-0.44753-0.51162 0.07414 0.30898-0.97744
  -8  -3  15 572.674 250.293   5 0.27160-0.67844 0.28854-0.72594 0.95737-0.28947
   8  -3 -15 438.211 217.472   7 0.47506-0.06902-0.87457 0.43760 0.21451-0.88286
   8  -3 -14 455.084 224.787   9 0.86018-0.43873-0.48771 0.05025 0.36802-0.98096
  -8  -3  14-14.2563 134.686   5 0.25241-0.67387 0.28040-0.71782 0.96000-0.34762
   8  -3 -13 1133.58 342.050   9 0.86240-0.42636-0.46103 0.02359 0.42709-0.98450
  -8  -3  13 550.652 246.605   5 0.22905-0.66512 0.27037-0.70781 0.96254-0.40568
   8  -3 -12 2945.97 489.583   9 0.86074-0.41010-0.43149-0.00593 0.48585-0.98774
  -8  -3  12 2559.75 430.111   5 0.20128-0.65195 0.25828-0.69575 0.96463-0.46329
   8  -3 -11 2.51767 118.563   9 0.85487-0.38964-0.39906-0.03834 0.54387-0.99024
  -8  -3  11 460.094 221.735   5 0.16889-0.63418 0.24397-0.68146 0.96584-0.52001
   8  -3 -10 1207.43 304.373   9 0.84451-0.36468-0.36377-0.07362 0.60062-0.99146
  -8  -3  10 1362.00 322.992   5 0.13176-0.61166 0.22729-0.66480 0.96562-0.57531
   8  -3  -9 904.602 268.431   9 0.82941-0.33499-0.32572-0.11165 0.65546-0.99078
  -8  -3   9 878.285 266.641   5 0.08986-0.58437 0.20811-0.64565 0.96335-0.62856
   8  -3  -8 3850.09 508.456   9 0.80942-0.30041-0.28515-0.15220 0.70770-0.98749
  -8  -3   8 3048.82 435.944   5 0.04330-0.55242 0.18638-0.62394 0.95838-0.67911
   8  -3  -7 5867.41 616.155   9 0.78455-0.26094-0.24241-0.19493 0.75660-0.98088
  -8  -3   7 5787.00 582.329   5-0.00764-0.51609 0.16209-0.59967 0.95000-0.72625
   8  -3  -6 11077.7 816.628   9 0.75495-0.21675-0.19796-0.23936 0.80145-0.97019
  -8  -3   6 13320.8 865.491   5-0.06246-0.47589 0.13535-0.57296 0.93757-0.76933
   8  -3  -5 3037.13 433.917   9 0.72100-0.16821-0.15241-0.28489 0.84157-0.95480
  -8  -3   5 2599.02 390.025   5-0.12048-0.43247 0.10638-0.54401 0.92053-0.80781
   8  -3  -4 1338.09 293.367   9 0.68327-0.11589-0.10647-0.33081 0.87646-0.93416
  -8  -3   4 994.026 254.615   5-0.18084-0.38672 0.07549-0.51315 0.89847-0.84127
   8  -3  -3 201.089 153.533   9 0.64256-0.06058-0.06088-0.37639 0.90580-0.90798
  -8  -3   3-72.6220 128.266   5-0.24255-0.33963 0.04309-0.48077 0.87120-0.86951
   8  -3  -2 3986.68 490.212   9 0.59978-0.00322-0.01640-0.42084 0.92950-0.87615
  -8  -3   2 3530.36 446.047   5-0.30454-0.29225 0.00966-0.44736 0.83873-0.89257
  -8  -3   1 6663.41 615.542   5-0.36577-0.24562-0.02428-0.41344 0.80133-0.91068
  -8  -3   1 6548.21 566.197   2-0.37865-0.23191-0.22891-0.20754-0.96491 0.85574
   8  -3  -1 6731.24 636.151   9 0.55597 0.05519 0.02624-0.46347 0.94772-0.83885
  -8  -3   0 9286.65 732.784   5-0.42529-0.20072-0.05824-0.37950 0.75942-0.92429
  -8  -3   0 9494.87 657.240  11 0.10944-0.73610-0.82428 0.38656 0.56426-0.72950
  -8  -3   0 10273.6 711.206   2-0.30618-0.31898-0.22740-0.20908-0.97252 0.80782
   8  -3   0 9805.98 779.843   9 0.51214 0.11361 0.06645-0.50366 0.96086-0.79647
  -8  -3  -1 9143.23 730.908   5-0.48226-0.15835-0.09175-0.34602 0.71358-0.93397
  -8  -3  -1 10239.9 699.706  11 0.07563-0.71691-0.86384 0.42609 0.49993-0.72071
  -8  -3  -1 9561.23 712.156   2-0.23854-0.40122-0.22484-0.21167-0.97436 0.75413
   8  -3   1 10188.1 797.920   9 0.46927 0.17107 0.10375-0.54094 0.96949-0.74958
   8  -3   2 1688.64 362.338   9 0.42821 0.22672 0.13782-0.57499 0.97432-0.69887
  -8  -3  -2 1863.20 336.312   2-0.17676-0.47760-0.22159-0.21496-0.97187 0.69610
  -8  -3  -2 1308.36 314.795   5-0.53605-0.11918-0.12439-0.31340 0.66447-0.94038
  -8  -3  -2 988.978 243.105  11 0.04329-0.69920-0.89643 0.45865 0.43643-0.71275
   8  -3   3 986.346 289.940   9 0.38966 0.27987 0.16848-0.60563 0.97607-0.64510
  -8  -3  -3 1320.56 313.683   2-0.12142-0.54755-0.21795-0.21862-0.96638 0.63507
  -8  -3  -3 1347.61 270.676  11 0.01255-0.68309-0.92279 0.48498 0.37435-0.70622
   8  -3   4 1898.00 378.932   9 0.35412 0.33000 0.19568-0.63282 0.97550-0.58901
  -8  -3  -4 1739.11 348.493   2-0.07270-0.61087-0.21421-0.22240-0.95907 0.57224
   8  -3   4 1687.30 362.517   1 0.30993 0.37459-0.65869 0.22086-0.58148 0.96734
   8  -3   5 1034.90 288.172   9 0.32197 0.37675 0.21948-0.65660 0.97328-0.53127
   8  -3   5 1470.38 344.975   1 0.37730 0.32178-0.65720 0.21941-0.53196 0.97333
  -8  -3  -5 1181.65 291.543   2-0.03052-0.66764-0.21057-0.22607-0.95090 0.50853
   8  -3   6 1611.25 371.106   9 0.29339 0.41991 0.24002-0.67712 0.97003-0.47250
   8  -3   6 813.484 286.700   1 0.44200 0.27164-0.65206 0.21431-0.47989 0.97678
  -8  -3  -6 1172.72 298.096   2 0.00538-0.71815-0.20718-0.22950-0.94261 0.44471
   8  -3   7 1380.15 344.738   9 0.26849 0.45941 0.25746-0.69454 0.96626-0.41320
  -8  -3  -7 1164.27 306.924   2 0.03538-0.76275-0.20413-0.23258-0.93474 0.38130
   8  -3   7 1003.29 296.925   1 0.50358 0.22463-0.64343 0.20572-0.42581 0.97821
   8  -3   8 4432.94 608.906   1 0.56168 0.18109-0.63150 0.19382-0.37016 0.97808
  -8  -3  -8 4043.06 565.391   2 0.05991-0.80188-0.20150-0.23524-0.92766 0.31869
   8  -3   8 4183.49 589.129   9 0.24725 0.49525 0.27202-0.70908 0.96236-0.35378
   8  -3   9 1049.47 322.787   1 0.61609 0.14124-0.61646 0.17883-0.31337 0.97680
  -8  -3  -9 789.016 287.434   2 0.07940-0.83597-0.19933-0.23746-0.92163 0.25713
   8  -3   9 1345.41 372.720   9 0.22959 0.52750 0.28390-0.72094 0.95866-0.29455
   8  -3  10 2802.97 498.678   1 0.66665 0.10524-0.59854 0.16094-0.25578 0.97473
   8  -2 -17 1052.51 318.499   9 0.82565-0.44788-0.56063 0.26899 0.16081-0.94028
  -8  -2  17 1029.94 313.426   5 0.39649-0.77405 0.33933-0.63087 0.92747-0.14847
   8  -2 -17 937.828 293.557   7 0.56463-0.18773-0.82053 0.52924 0.06805-0.84742
   8  -2 -16 781.138 260.137   9 0.83984-0.44748-0.54227 0.25065 0.22182-0.94576
  -8  -2  16 941.077 318.502   5 0.38699-0.77916 0.33562-0.62717 0.93057-0.20709
   8  -2 -16 919.476 295.938   7 0.54192-0.15038-0.83917 0.54791 0.10940-0.83322
   8  -2 -15 4118.04 561.850   9 0.85092-0.44396-0.52100 0.22939 0.28389-0.95231
  -8  -2  15 3661.93 544.898   5 0.37393-0.78071 0.33046-0.62204 0.93461-0.26665
   8  -2 -15 3207.33 523.252   7 0.51750-0.11132-0.85504 0.56380 0.15029-0.81857
   8  -2 -14 795.093 272.614   9 0.85850-0.43695-0.49658 0.20499 0.34688-0.95977
  -8  -2  14 135.683 150.939   5 0.35697-0.77836 0.32370-0.61530 0.93945-0.32700
   8  -2 -14 467.651 227.391   7 0.49142-0.07059-0.86811 0.57689 0.19067-0.80340
   8  -2 -13 7107.37 711.134   9 0.86216-0.42601-0.46881 0.17724 0.41051-0.96788
  -8  -2  13 6550.38 675.899   5 0.33576-0.77177 0.31514-0.60676 0.94488-0.38796
   8  -2 -13 6635.17 703.249   7 0.46372-0.02824-0.87836 0.58718 0.23045-0.78764
   8  -2 -12 4075.95 532.529   9 0.86138-0.41065-0.43749 0.14594 0.47442-0.97626
  -8  -2  12 4076.54 533.148   5 0.30992-0.76053 0.30455-0.59620 0.95061-0.44921
   8  -2 -11 154.005 139.664   9 0.85567-0.39034-0.40247 0.11094 0.53805-0.98437
  -8  -2  11-309.578 177.175   5 0.27906-0.74429 0.29169-0.58336 0.95622-0.51033
   8  -2 -10 12219.1 848.493   9 0.84448-0.36456-0.36369 0.07218 0.60073-0.99152
  -8  -2  10 11785.1 835.510   5 0.24285-0.72268 0.27631-0.56800 0.96113-0.57076
   8  -2  -9 318.002 173.407   9 0.82737-0.33286-0.32121 0.02971 0.66157-0.99685
  -8  -2   9 170.042 137.566   5 0.20102-0.69546 0.25817-0.54989 0.96465-0.62980
   8  -2  -8 2212.36 362.867   9 0.80399-0.29488-0.27525-0.01623 0.71957-0.99931
  -8  -2   8 2063.35 352.433   5 0.15344-0.66250 0.23707-0.52881 0.96595-0.68662
   8  -2  -7 1777.93 320.095   9 0.77420-0.25050-0.22624-0.06522 0.77359-0.99782
  -8  -2   7 1594.83 294.252   5 0.10020-0.62386 0.21288-0.50464 0.96411-0.74029
   8  -2  -6 3079.68 404.381   9 0.73816-0.19986-0.17484-0.11660 0.82252-0.99122
  -8  -2   6 2671.82 389.293   5 0.04161-0.57988 0.18558-0.47737 0.95815-0.78985
   8  -2  -5 17419.8 935.489   9 0.69635-0.14346-0.12193-0.16949 0.86533-0.97850
  -8  -2   5 16427.7 905.385   5-0.02169-0.53120 0.15529-0.44710 0.94715-0.83437
   8  -2  -4 1243.76 270.527   9 0.64964-0.08216-0.06855-0.22285 0.90122-0.95887
  -8  -2   4 1318.15 266.386   5-0.08877-0.47873 0.12230-0.41414 0.93034-0.87308
   8  -2  -3 10082.6 709.410   9 0.59922-0.01715-0.01584-0.27555 0.92977-0.93190
   8  -2  -3 11742.5 646.730   3 0.73566-0.15423 0.39512-0.68606 0.72477-0.72599
  -8  -2   3 9999.98 703.816   5-0.15842-0.42369 0.08706-0.37891 0.90718-0.90544
   8  -2  -2 4091.09 383.116   3 0.68089-0.08480 0.39064-0.68162 0.77715-0.72285
  -8  -2   2 3179.24 401.183   5-0.22927-0.36744 0.05013-0.34201 0.87748-0.93125
   8  -2  -2 3220.19 419.280   9 0.54652 0.05014 0.03510-0.32646 0.95095-0.89756
  -8  -2   1 18594.6 954.097   5-0.29988-0.31145 0.01221-0.30411 0.84136-0.95065
  -8  -2   1 19119.6 927.826   2-0.34785-0.26279-0.22843-0.06240-0.96889 0.85980
   8  -2  -1 20167.9 1014.50   9 0.49309 0.11817 0.08326-0.37461 0.96518-0.85626
   8  -2   0 1548.11 295.547   9 0.44040 0.18545 0.12787-0.41920 0.97322-0.80877
  -8  -2   0 1204.44 263.549   2-0.27494-0.35030-0.22635-0.06451-0.97398 0.80937
  -8  -2   0 1210.71 265.521   5-0.36886-0.25708-0.02602-0.26590 0.79929-0.96410
   8  -2   0 1436.03 231.451   3 0.55383 0.07159 0.37220-0.66325 0.86442-0.69905
   8  -2   1 1270.67 283.605   9 0.38976 0.25068 0.16840-0.45971 0.97607-0.75610
  -8  -2  -1 1760.88 308.949   2-0.20700-0.43284-0.22329-0.06761-0.97357 0.75343
  -8  -2  -1 1004.62 257.916   5-0.43502-0.20554-0.06389-0.22806 0.75201-0.97234
   8  -2   2 705.004 224.444   9 0.34224 0.31280 0.20457-0.49586 0.97486-0.69937
  -8  -2  -2 626.717 231.140   2-0.14509-0.50936-0.21959-0.07134-0.96909 0.69341
  -8  -2  -2 718.835 238.865   5-0.49737-0.15779-0.10081-0.19116 0.70039-0.97624
  -8  -2  -3 13330.7 859.212   5-0.55526-0.11451-0.13631-0.15568 0.64538-0.97675
  -8  -2  -3 12475.9 827.502   2-0.08977-0.57928-0.21558-0.07538-0.96189 0.63068
   8  -2   3 13534.6 900.202   9 0.29858 0.37105 0.23633-0.52761 0.97071-0.63970
   8  -2   4 27917.5 1302.42   1 0.36460 0.31969-0.65777 0.36562-0.54164 0.92760
  -8  -2  -4 26901.5 1229.16   2-0.04123-0.64242-0.21153-0.07947-0.95314 0.56639
   8  -2   4 28619.4 1325.31   9 0.25927 0.42495 0.26382-0.55508 0.96464-0.57810
   8  -2   5 10154.9 807.203   1 0.42887 0.26999-0.65342 0.36130-0.49084 0.93231
  -8  -2  -5 9639.46 776.491   2 0.00063-0.69888-0.20764-0.08339-0.94378 0.50150
  -8  -2  -6 1804.22 369.958   2 0.03611-0.74896-0.20406-0.08701-0.93454 0.43672
   8  -2   6 1806.09 378.270   1 0.48973 0.22369-0.64572 0.35364-0.43839 0.93538
   8  -2   7 3516.03 519.272   1 0.54692 0.18107-0.63491 0.34287-0.38476 0.93727
  -8  -2  -7 3614.33 519.255   2 0.06560-0.79305-0.20088-0.09022-0.92594 0.37259
   8  -2   8 670.501 267.944   1 0.60030 0.14225-0.62125 0.32925-0.33036 0.93839
  -8  -2  -8 1497.93 358.620   2 0.08955-0.83160-0.19816-0.09298-0.91834 0.30946
  -8  -2  -9 693.401 286.195   2 0.10843-0.86509-0.19593-0.09524-0.91196 0.24755
   8  -2   9 825.738 301.292   1 0.64981 0.10729-0.60498 0.31302-0.27552 0.93906
  -8  -2 -10 619.776 272.210   2 0.12267-0.89392-0.19420-0.09700-0.90693 0.18698
   8  -2  10 369.322 227.112   1 0.69548 0.07619-0.58631 0.29439-0.22051 0.93956
   8  -2  11 1294.26 382.102   1 0.73735 0.04888-0.56544 0.27357-0.16550 0.94008
   8  -1 -18-153.107 125.360   9 0.78744-0.42417-0.59035 0.44457 0.03753-0.87247
   8  -1 -17 874.723 275.814   9 0.80798-0.43011-0.57680 0.43104 0.09875-0.87817
  -8  -1  17 1155.11 326.816   5 0.47332-0.85082 0.36843-0.51415 0.89670-0.11765
   8  -1 -17 1456.34 386.447   7 0.60090-0.22386-0.78014 0.63457-0.00705-0.77225
   8  -1 -16 433.052 194.297   9 0.82591-0.43345-0.56034 0.41459 0.16184-0.88573
  -8  -1  16 983.085 304.170   5 0.46592-0.85802 0.36571-0.51145 0.90013-0.17659
   8  -1 -16 640.435 239.709   7 0.58347-0.19178-0.80149 0.65595 0.03070-0.75445
   8  -1 -15 4382.59 560.057   9 0.84086-0.43381-0.54066 0.39493 0.22682-0.89519
  -8  -1  15 5379.62 648.816   5 0.45513-0.86184 0.36171-0.50747 0.90494-0.23692
   8  -1 -15 5076.90 636.720   7 0.56452-0.15819-0.82063 0.67512 0.06825-0.73646
   8  -1 -14 1870.80 365.648   9 0.85234-0.43069-0.51740 0.37169 0.29366-0.90651
  -8  -1  14 1712.86 373.802   5 0.44056-0.86189 0.35625-0.50203 0.91109-0.29859
   8  -1 -14 1776.54 377.291   7 0.54409-0.12311-0.83757 0.69209 0.10560-0.71826
   8  -1 -13-3.56500 124.046   9 0.85976-0.42352-0.49019 0.34450 0.36220-0.91952
  -8  -1  13 131.005 134.787   5 0.42178-0.85772 0.34911-0.49492 0.91847-0.36149
   8  -1 -13 119.879 130.397   7 0.52219-0.08657-0.85229 0.70683 0.14269-0.69980
   8  -1 -12 2698.47 406.705   9 0.86242-0.41158-0.45864 0.31296 0.43209-0.93389
  -8  -1  12 2389.69 405.171   5 0.39829-0.84884 0.34004-0.48587 0.92686-0.42539
   8  -1 -12 2729.38 440.475   7 0.49884-0.04858-0.86475 0.71932 0.17949-0.68105
   8  -1 -11 2836.91 394.884   9 0.85948-0.39406-0.42237 0.27672 0.50280-0.94907
   8  -1 -11 3044.94 451.405   7 0.47407-0.00916-0.87492 0.72952 0.21592-0.66194
  -8  -1  11 2770.58 412.375   5 0.36955-0.83471 0.32872-0.47457 0.93590-0.48995
   8  -1 -10 1098.87 241.525   9 0.85008-0.37006-0.38112 0.23548 0.57349-0.96424
  -8  -1  10 948.746 254.286   5 0.33499-0.81476 0.31482-0.46070 0.94507-0.55464
   8  -1  -9 852.972 226.357   9 0.83332-0.33871-0.33474 0.18911 0.64301-0.97823
  -8  -1   9 404.407 176.922   5 0.29410-0.78848 0.29798-0.44388 0.95365-0.61874
   8  -1  -8 18928.4 929.016   9 0.80845-0.29924-0.28335 0.13775 0.70989-0.98959
  -8  -1   8 18147.9 953.757   5 0.24645-0.75544 0.27785-0.42377 0.96072-0.68132
   8  -1  -7 21631.4 972.954   9 0.77497-0.25118-0.22742 0.08183 0.77238-0.99656
  -8  -1   7 20847.5 1004.90   5 0.19181-0.71541 0.25412-0.40007 0.96512-0.74125
   8  -1  -6 9556.25 642.113   9 0.73287-0.19448-0.16782 0.02225 0.82863-0.99729
  -8  -1   6 9513.94 673.507   5 0.13024-0.66845 0.22660-0.37257 0.96557-0.79722
   8  -1  -5 33996.7 1190.53   9 0.68273-0.12975-0.10584-0.03971 0.87690-0.99003
   8  -1  -5 33875.1 1152.78   3 0.73290-0.18072 0.39496-0.54015 0.72770-0.84008
  -8  -1   5 34511.9 1243.97   5 0.06220-0.61502 0.19526-0.34125 0.96071-0.84787
   8  -1  -4 15730.0 806.278   9 0.62582-0.05825-0.04310-0.10243 0.91585-0.97345
   8  -1  -4 16521.6 801.420   3 0.67812-0.11128 0.39034-0.53558 0.77953-0.83638
  -8  -1   4 15041.9 819.682   5-0.01139-0.55604 0.16028-0.30629 0.94926-0.89194
   8  -1  -3 6514.20 526.241   9 0.56402 0.01815 0.01859-0.16411 0.94478-0.94686
   8  -1  -3 6651.21 504.334   3 0.61692-0.03542 0.38253-0.52780 0.82611-0.82744
  -8  -1   3 6818.38 553.826   5-0.08915-0.49289 0.12211-0.26815 0.93023-0.92843
   8  -1  -2 21499.5 897.632   3 0.55051 0.04566 0.37160-0.51691 0.86620-0.81199
  -8  -1   2 19793.0 926.475   5-0.16933-0.42732 0.08144-0.22750 0.90302-0.95674
   8  -1  -2 20183.8 926.869   9 0.49962 0.09714 0.07754-0.22304 0.96379-0.91035
   8  -1  -1 1290.14 248.382   9 0.43498 0.17637 0.13231-0.27778 0.97374-0.86477
  -8  -1   1 1209.53 252.439   2-0.35024-0.26049-0.22848 0.08326-0.96862 0.85962
  -8  -1   1 1325.69 256.309   5-0.24996-0.36130 0.03914-0.18523 0.86759-0.97682
   8  -1  -1 1838.83 278.996   3 0.48059 0.13023 0.35785-0.50320 0.89888-0.78915
  -8  -1   0 8584.14 624.340   5-0.32907-0.29680-0.00382-0.14229 0.82441-0.98916
   8  -1   0 9275.34 599.534   3 0.40927 0.21621 0.34184-0.48723 0.92378-0.75852
  -8  -1   0 9157.69 650.466   2-0.27686-0.34847-0.22642 0.08117-0.97392 0.80940
   8  -1   0 9494.82 659.221   9 0.37230 0.25364 0.18189-0.32735 0.97604-0.81155
  -8  -1  -1 5417.94 504.162   5-0.40491-0.23558-0.04650-0.09963 0.77442-0.99469
   8  -1   1 6291.11 506.844   3 0.33878 0.30136 0.32431-0.46974 0.94109-0.72030
  -8  -1  -1 5769.64 533.875   2-0.20819-0.43173-0.22335 0.07806-0.97362 0.75356
   8  -1   1 5984.10 537.335   9 0.31333 0.32721 0.22575-0.37119 0.97243-0.75241
  -8  -1  -2 32449.9 1228.19   5-0.47607-0.17903-0.08805-0.05810 0.71885-0.99464
  -8  -1  -2 33009.7 1270.79   2-0.14542-0.50911-0.21961 0.07429-0.96913 0.69353
   8  -1   2 29898.8 1248.47   1 0.31777 0.33717-0.65871 0.51216-0.57595 0.85097
   8  -1   2 32084.0 1257.81   9 0.25930 0.39583 0.26379-0.40921 0.96465-0.68911
  -8  -1  -3 2785.32 385.118   5-0.54159-0.12811-0.12781-0.01836 0.65905-0.99036
  -8  -1  -3 3033.62 410.548   2-0.08920-0.57993-0.21554 0.07018-0.96180 0.63068
   8  -1   3 2824.76 420.038   1 0.38325 0.28627-0.65689 0.51037-0.52736 0.85791
   8  -1   4 12791.9 865.298   1 0.44523 0.23884-0.65171 0.50523-0.47717 0.86324
  -8  -1  -4 13512.8 856.135   2-0.03981-0.64393-0.21141 0.06602-0.95285 0.56619
  -8  -1  -5 2587.96 410.968   2 0.00281-0.70115-0.20743 0.06201-0.94324 0.50105
   8  -1   5 2444.08 413.438   1 0.50347 0.19516-0.64345 0.49702-0.42590 0.86748
   8  -1   6 784.557 265.921   1 0.55784 0.15535-0.63241 0.48601-0.37398 0.87108
  -8  -1  -6 818.234 255.614   2 0.03893-0.75186-0.20376 0.05831-0.93375 0.43602
   8  -1   7 4055.51 551.817   1 0.60833 0.11943-0.61886 0.47250-0.32177 0.87438
  -8  -1  -7 4232.13 535.861   2 0.06893-0.79647-0.20051 0.05502-0.92492 0.37166
  -8  -1  -8 1933.13 358.928   8-0.04650-0.69634 0.36884-0.51516-0.90753 0.29832
  -8  -1  -8 2331.45 427.634   2 0.09327-0.83541-0.19773 0.05220-0.91711 0.30832
   8  -1   8 2398.23 459.679   1 0.65498 0.08734-0.60305 0.45674-0.26953 0.87766
   8  -1   9 4897.89 629.056   1 0.69790 0.05899-0.58521 0.43893-0.21746 0.88111
  -8  -1  -9 5390.82 605.692   8-0.02485-0.73262 0.36595-0.51231-0.90373 0.23901
  -8  -1  -9 4978.44 629.116   2 0.11243-0.86917-0.19545 0.04989-0.91057 0.24624
   8  -1  10 1836.48 410.775   1 0.73721 0.03424-0.56552 0.41929-0.16570 0.88487
  -8  -1 -10 1453.61 324.991   8-0.00839-0.76372 0.36364-0.51004-0.90054 0.18031
  -8  -1 -10 1132.09 342.676   2 0.12684-0.89818-0.19369 0.04810-0.90541 0.18555
   8  -1  11 1776.41 443.669   1 0.77304 0.01297-0.54415 0.39795-0.11435 0.88903
  -8  -1 -11 1508.18 400.816   2 0.13691-0.92285-0.19243 0.04680-0.90169 0.12629
   8   0 -18 346.906 214.458   7 0.64549-0.28294-0.69846 0.69859-0.12668-0.70809
  -8   0  17 1898.22 432.224   5 0.53058-0.90801 0.38885-0.38875 0.86650-0.08738
   8   0 -17 2150.95 465.581   7 0.63484-0.25765-0.72311 0.72327-0.09372-0.68551
  -8   0  16 1407.49 351.391   5 0.52499-0.91702 0.38691-0.38683 0.86975-0.14615
   8   0 -16 1610.69 373.792   7 0.62301-0.23117-0.74599 0.74618-0.06095-0.66273
  -8   0  15 743.761 262.289   5 0.51619-0.92284 0.38383-0.38377 0.87473-0.20665
   8   0 -15 1032.74 324.652   7 0.61004-0.20356-0.76715 0.76736-0.02837-0.63977
   8   0 -14-164.499 126.138   9 0.83412-0.41238-0.55048 0.55064 0.19555-0.80835
  -8   0  14-16.4950 154.331   5 0.50377-0.92503 0.37944-0.37940 0.88148-0.26892
   8   0 -14 111.591 139.153   7 0.59596-0.17483-0.78661 0.78686 0.00401-0.61660
   8   0 -13 12296.4 819.279   9 0.84841-0.41208-0.52670 0.52688 0.26799-0.82526
  -8   0  13 11687.2 880.719   5 0.48724-0.92311 0.37350-0.37349 0.88997-0.33293
   8   0 -13 11304.8 888.547   7 0.58081-0.14504-0.80441 0.80468 0.03617-0.59321
   8   0 -12 14484.5 845.469   9 0.85821-0.40728-0.49790 0.49810 0.34365-0.84540
  -8   0  12 13579.8 917.385   5 0.46601-0.91649 0.36574-0.36575 0.90009-0.39856
   8   0 -12 14997.6 985.974   7 0.56462-0.11420-0.82055 0.82085 0.06808-0.56957
   8   0 -11 4695.30 467.286   9 0.86236-0.39684-0.46333 0.46355 0.42224-0.86846
  -8   0  11 4587.67 519.242   5 0.43940-0.90449 0.35581-0.35584 0.91157-0.46556
   8   0 -11 3928.97 501.144   7 0.54742-0.08236-0.83504 0.83537 0.09971-0.54566
  -8   0  11 4475.95 441.867   4 0.38850-0.85396 0.48186-0.48183 0.86002-0.41431
   8   0 -10 15072.3 803.866   9 0.85946-0.37935-0.42224 0.42248 0.50304-0.89374
  -8   0  10 13004.4 838.138   5 0.40665-0.88635 0.34328-0.34334 0.92398-0.53349
   8   0 -10 14521.2 912.148   7 0.52925-0.04955-0.84789 0.84824 0.13102-0.52142
  -8   0  10 15042.7 786.725   4 0.34509-0.82511 0.50319-0.50318 0.85525-0.46499
  -8   0   9 1101.50 223.445   4 0.29517-0.78976 0.52580-0.52580 0.84742-0.51262
  -8   0   9 893.249 206.744   6-0.39557-0.09905 0.91392-0.91430-0.01802 0.35334
   8   0  -9 973.394 206.838   9 0.84790-0.35319-0.37401 0.37426 0.58478-0.91996
  -8   0   9 1000.88 243.797   5 0.36697-0.86128 0.32769-0.32777 0.93665-0.60168
   8   0  -9 1022.94 254.069   7 0.51016-0.01582-0.85908 0.85947 0.16197-0.49682
  -8   0   8 1446.92 256.431   6-0.36679-0.14243 0.92659-0.92696-0.01817 0.29795
   8   0  -8 1774.72 266.956   9 0.82603-0.31673-0.31830 0.31857 0.66548-0.94513
  -8   0   8 2023.10 330.081   5 0.31960-0.82852 0.30853-0.30863 0.94858-0.66913
   8   0  -8 1734.23 306.470   7 0.49021 0.01878-0.86863 0.86904 0.19247-0.47178
  -8   0   8 1400.16 238.705   4 0.23904-0.74818 0.54889-0.54891 0.83579-0.55644
   8   0  -7 11611.5 651.385   9 0.79245-0.26856-0.25533 0.25562 0.74245-0.96657
  -8   0   7 11306.0 683.841   6-0.34289-0.18093 0.93626-0.93661-0.01828 0.24252
   8   0  -7 10572.3 686.954   3 0.76250-0.23958 0.39625-0.39569 0.69455-0.91810
  -8   0   7 9693.18 662.596   5 0.26392-0.78745 0.28529-0.28542 0.95848-0.73455
   8   0  -7 9636.58 675.845   7 0.46944 0.05419-0.87652 0.87695 0.22247-0.44623
   8   0  -6 4217.84 386.161   9 0.74644-0.20796-0.18609 0.18640 0.81245-0.98106
  -8   0   6 3627.00 390.055   6-0.32388-0.21454 0.94341-0.94375-0.01835 0.18706
   8   0  -6 3370.76 394.892   3 0.71223-0.17465 0.39353-0.39301 0.74856-0.91658
  -8   0   6 3372.35 393.898   5 0.19962-0.73776 0.25755-0.25770 0.96473-0.79631
   8   0  -5 22968.5 888.087   9 0.68839-0.13531-0.11247 0.11280 0.87221-0.98529
  -8   0   5 23007.3 970.390   6-0.30977-0.24324 0.94842-0.94874-0.01841 0.13157
   8   0  -5 21712.4 959.140   3 0.65533-0.10308 0.38772-0.38725 0.79811-0.91060
  -8   0   5 20992.6 927.965   5 0.12684-0.67959 0.22505-0.22522 0.96546-0.85256
   8   0  -4 163.322 92.0245   9 0.62009-0.05242-0.03713 0.03747 0.91905-0.97661
  -8   0   4 514.918 180.583   6-0.30057-0.26704 0.95155-0.95185-0.01844 0.07606
   8   0  -4 342.646 163.142   3 0.59253-0.02563 0.37878-0.37835 0.84197-0.89893
  -8   0   4 132.269 136.749   5 0.04637-0.61374 0.18782-0.18802 0.95879-0.90141
  -8   0   3 15260.9 791.376   6-0.29629-0.28591 0.95297-0.95326-0.01845 0.02054
   8   0  -3 15493.0 793.945   3 0.52509 0.05648 0.36684-0.36644 0.87911-0.88054
  -8   0   3 14485.0 755.822   5-0.04025-0.54172 0.14626-0.14647 0.94303-0.94117
   8   0  -3 16339.4 754.528   9 0.54459 0.03767 0.03689-0.03653 0.95158-0.95362
  -8   0   2 4865.31 453.080   6-0.29693-0.29987 0.95276-0.95303-0.01845-0.03500
  -8   0   2 4670.81 429.039   5-0.13082-0.46577 0.10115-0.10139 0.91706-0.97072
   8   0  -2 4334.00 430.359   3 0.45467 0.14156 0.35225-0.35189 0.90885-0.85475
   8   0  -2 4314.39 399.386   9 0.46575 0.13111 0.10673-0.10635 0.97003-0.91654
  -8   0   1 19416.9 894.396   6-0.30250-0.30890 0.95090-0.95116-0.01843-0.09056
  -8   0   1 18922.5 855.628   5-0.22264-0.38856 0.05364-0.05390 0.88053-0.98970
   8   0  -1 19665.2 902.917   3 0.38322 0.22767 0.33555-0.33523 0.93098-0.82135
  -8   0   1 20580.5 940.586   2-0.38615-0.22466-0.22899 0.22938-0.96377 0.85486
   8   0  -1 20769.5 880.164   9 0.38746 0.22399 0.17019-0.16979 0.97609-0.86708
  -8   0   0 4720.59 447.329   6-0.31300-0.31300 0.94730-0.94754-0.01839-0.14613
  -8   0   0 4457.25 422.851   5-0.31290-0.31290 0.00508-0.00537 0.83395-0.99864
   8   0   0 4411.90 438.797   3 0.31277 0.31278 0.31745-0.31717 0.94581-0.78065
  -8   0   0 4744.02 479.117   2-0.31271-0.31271-0.22759 0.22795-0.97208 0.80764
   8   0   0 5068.23 491.675   1 0.31280 0.31280-0.65871 0.65775-0.57946 0.74356
   8   0   0 4833.16 440.316   9 0.31302 0.31302 0.22597-0.22556 0.97239-0.80786
   8   0   1 709.632 181.310   9 0.24477 0.39587 0.27370-0.27326 0.96187-0.74181
  -8   0  -1 684.743 182.217   6-0.32843-0.31216 0.94174-0.94197-0.01834-0.20173
   8   0   1 920.070 249.618   1 0.37705 0.26311-0.65721 0.65630-0.53215 0.75176
  -8   0  -1 932.146 243.249   2-0.24325-0.39676-0.22505 0.22538-0.97439 0.75442
  -8   0  -1 625.798 173.996   5-0.39905-0.24137-0.04315 0.04284 0.77860-0.99882
  -8   0  -2 222.641 117.629   6-0.34881-0.30638 0.93394-0.93414-0.01825-0.25735
   8   0   2 239.954 159.886   1 0.43761 0.21712-0.65254 0.65166-0.48358 0.75871
  -8   0  -2 424.834 183.270   2-0.17915-0.47547-0.22173 0.22202-0.97203 0.69653
  -8   0  -2 59.2374 106.945   5-0.47907-0.17596-0.08984 0.08951 0.71631-0.99204
  -8   0  -3 98.9733 90.9960   6-0.37413-0.29565 0.92346-0.92366-0.01813-0.31301
  -8   0  -3 101.667 146.115   2-0.12128-0.54794-0.21794 0.21820-0.96636 0.63532
  -8   0  -3 22.6948 97.4724   5-0.55164-0.11800-0.13405 0.13370 0.64905-0.98029
   8   0   3 53.9983 169.547   1 0.49427 0.17502-0.64499 0.64415-0.43428 0.76493
   8   0   4 24345.1 1180.29   1 0.54701 0.13684-0.63489 0.63409-0.38467 0.77084
  -8   0  -4 26108.6 1163.89   2-0.07008-0.61374-0.21400 0.21423-0.95861 0.57204
   8   0   5 5561.21 595.768   1 0.59586 0.10255-0.62253 0.62177-0.33506 0.77674
  -8   0  -5 5238.79 555.025   8-0.04510-0.65378 0.36866-0.36900-0.90729 0.46473
  -8   0  -5 5312.73 556.089   2-0.02564-0.67277-0.21013 0.21032-0.94985 0.50774
  -8   0  -6 108.843 152.070   2 0.01221-0.72523-0.20650 0.20666-0.94089 0.44326
  -8   0  -6-187.683 158.596   8-0.00977-0.70375 0.36384-0.36422-0.90082 0.40274
   8   0   6 69.5679 160.011   1 0.64096 0.07202-0.60817 0.60745-0.28567 0.78287
  -8   0  -7 39.3387 159.749   2 0.04380-0.77142-0.20325 0.20337-0.93237 0.37920
  -8   0  -7-172.187 159.912   8 0.01961-0.74777 0.35948-0.35990-0.89456 0.34096
   8   0   7 49.3191 172.027   1 0.68246 0.04508-0.59203 0.59135-0.23668 0.78939
   8   0   8 5116.65 626.961   1 0.72054 0.02156-0.57430 0.57367-0.18817 0.79641
  -8   0  -8 5254.88 599.879   8 0.04339-0.78619 0.35572-0.35617-0.88891 0.27980
  -8   0  -8 5585.00 623.198   2 0.06957-0.81179-0.20043 0.20053-0.92472 0.31601
   8   0   9-23.3077 166.616   1 0.75538 0.00128-0.55514 0.55454-0.14022 0.80397
  -8   0  -9 228.848 183.014   8 0.06195-0.81938 0.35264-0.35312-0.88414 0.21951
  -8   0  -9-266.602 208.578   2 0.08996-0.84678-0.19811 0.19817-0.91821 0.25397
   8   0  10 9.95867 164.027   1 0.78714-0.01592-0.53466 0.53410-0.09284 0.81211
  -8   0 -10-161.153 159.983   8 0.07565-0.84772 0.35028-0.35080-0.88041 0.16027
  -8   0 -10 271.791 195.131   2 0.10542-0.87685-0.19629 0.19631-0.91300 0.19323
  -8   0 -11 4612.30 636.075   2 0.11638-0.90241-0.19497 0.19496-0.90918 0.13387
  -8   0 -11 4511.72 610.469   8 0.08487-0.87158 0.34866-0.34921-0.87780 0.10214
   8   0  11 4919.86 697.824   1 0.81599-0.03020-0.51295 0.51243-0.04604 0.82082
  -8   0 -12 2133.49 446.313   8 0.08991-0.89126 0.34775-0.34834-0.87634 0.04517
  -8   1  17 1382.83 360.374   5 0.56978-0.94714 0.40211-0.25618 0.84164-0.06247
   8   1 -17 2526.17 500.912   7 0.66169-0.28435-0.64868 0.79457-0.18729-0.59186
  -8   1  16 526.766 227.202   5 0.56553-0.95750 0.40070-0.25480 0.84452-0.12086
   8   1 -16 223.509 188.455   7 0.65506-0.26308-0.67145 0.81737-0.16044-0.56316
  -8   1  15 5910.90 679.284   5 0.55822-0.96480 0.39826-0.25238 0.84936-0.18122
   8   1 -15 6348.68 729.708   7 0.64768-0.24106-0.69274 0.83868-0.13402-0.53404
  -8   1  14 1923.70 339.116   4 0.54853-0.97027 0.38785-0.24207 0.85891-0.24681
  -8   1  14 1671.93 356.112   5 0.54741-0.96861 0.39462-0.24876 0.85627-0.24365
   8   1 -14 1967.10 394.093   7 0.63963-0.21836-0.71259 0.85856-0.10806-0.50445
  -8   1  13-29.4927 139.315   4 0.52932-0.96563 0.40057-0.25481 0.86079-0.30414
  -8   1  13 142.485 144.196   5 0.53258-0.96838 0.38954-0.24371 0.86531-0.30821
   8   1 -13-235.316 183.958   7 0.63097-0.19506-0.73104 0.87704-0.08262-0.47435
  -8   1  12 2270.79 357.597   4 0.50521-0.95608 0.41594-0.27018 0.86242-0.36122
   8   1 -12 3035.85 464.965   7 0.62180-0.17124-0.74813 0.89416-0.05776-0.44366
  -8   1  12 2405.49 396.589   5 0.51306-0.96347 0.38273-0.23692 0.87647-0.37488
  -8   1  11 2703.39 344.531   6-0.26096-0.20442 0.96384-0.81839-0.01855 0.46490
   8   1 -11 3224.86 459.062   7 0.61219-0.14698-0.76388 0.90993-0.03356-0.41231
  -8   1  11 2554.04 395.696   5 0.48805-0.95307 0.37379-0.22801 0.88957-0.44350
  -8   1  11 3191.47 412.410   4 0.47582-0.94125 0.43381-0.28807 0.86336-0.41761
  -8   1  10 745.647 219.339   4 0.44079-0.92078 0.45396-0.30824 0.86308-0.47278
  -8   1  10 1041.27 231.608   6-0.21973-0.26024 0.97462-0.82916-0.01863 0.40944
  -8   1  10 851.997 231.534   5 0.45661-0.93625 0.36226-0.21649 0.90429-0.51374
   8   1 -10 772.817 253.767   7 0.60224-0.12240-0.77832 0.92440-0.01010-0.38022
  -8   1   9 704.359 205.933   4 0.39985-0.89440 0.47601-0.33031 0.86094-0.52610
  -8   1   9 929.803 222.351   6-0.18410-0.31046 0.98234-0.83687-0.01867 0.35394
  -8   1   9 479.544 166.846   5 0.41769-0.91193 0.34754-0.20180 0.92000-0.58497
   8   1  -9 930.974 243.424   7 0.59208-0.09759-0.79145 0.93756 0.01249-0.34728
  -8   1   8 18886.2 905.467   6-0.15391-0.35525 0.98776-0.84227-0.01868 0.29842
   8   1  -8 18215.8 937.830   3 0.76722-0.25890 0.39636-0.25009 0.68885-0.96804
  -8   1   8 18718.0 914.723   5 0.37016-0.87901 0.32896-0.18324 0.93572-0.65621
   8   1  -8 18266.0 956.353   7 0.58182-0.07269-0.80331 0.94944 0.03410-0.31333
  -8   1   8 17512.5 889.542   4 0.35290-0.86201 0.49947-0.35378 0.85625-0.57686
  -8   1   7 21823.2 975.347   6-0.12904-0.39472 0.99146-0.84595-0.01868 0.24288
   8   1  -7 20686.5 981.365   3 0.71794-0.19495 0.39396-0.24774 0.74297-0.96662
  -8   1   7 20091.3 921.118   5 0.31294-0.83641 0.30579-0.16010 0.94999-0.72600
   8   1  -7 21674.8 1003.41   7 0.57163-0.04786-0.81388 0.96004 0.05453-0.27821
  -8   1   7 21822.7 974.720   4 0.30001-0.82369 0.52369-0.37801 0.84828-0.62435
  -8   1   6 10388.3 679.719   6-0.10938-0.42898 0.99390-0.84838-0.01867 0.18733
   8   1  -6 10210.7 687.946   3 0.66229-0.12464 0.38856-0.24238 0.79260-0.96072
  -8   1   6 9011.09 601.628   5 0.24522-0.78330 0.27732-0.13165 0.96086-0.79238
   8   1  -6 10636.4 682.199   7 0.56172-0.02329-0.82317 0.96936 0.07357-0.24171
  -8   1   6 10099.2 661.056   4 0.24153-0.77976 0.54792-0.40226 0.83637-0.66789
  -8   1   5 34294.8 1216.40   6-0.09486-0.45809 0.99543-0.84989-0.01866 0.13178
   8   1  -5 32230.4 1196.18   3 0.60098-0.04867 0.38012-0.23397 0.83663-0.94923
  -8   1   5 34957.6 1148.72   5 0.16669-0.71938 0.24299-0.09734 0.96587-0.85291
   8   1  -5 35637.2 1190.98   7 0.55230 0.00076-0.83117 0.97739 0.09094-0.20353
   8   1  -4 16782.1 670.844   9 0.64675-0.07898-0.06541 0.21163 0.90311-0.96062
  -8   1   4 15679.1 826.792   6-0.08543-0.48212 0.99630-0.85075-0.01864 0.07623
   8   1  -4 14189.3 791.615   3 0.53515 0.03182 0.36876-0.22265 0.87415-0.93121
  -8   1   4 16176.9 770.240   5 0.07788-0.64518 0.20256-0.05694 0.96232-0.90488
   8   1  -4 16178.2 777.183   7 0.54371 0.02400-0.83786 0.98410 0.10627-0.16332
   8   1  -4 16577.3 675.233  10-0.08680 0.65477 0.26186-0.11627-0.95012 0.89261
  -8   1   3 6995.67 556.819   6-0.08104-0.50111 0.99667-0.85111-0.01864 0.02068
  -8   1   3 7277.08 509.777   5-0.01955-0.56236 0.15633-0.01073 0.94760-0.94568
   8   1  -3 6345.60 537.685   3 0.46629 0.11534 0.35479-0.20872 0.90452-0.90605
   8   1  -3 6923.56 492.217   7 0.53632 0.04603-0.84316 0.98943 0.11907-0.12057
   8   1  -3 7151.20 440.654  10-0.01751 0.60007 0.37218-0.22657-0.89983 0.89785
   8   1  -3 7068.53 445.609   9 0.55432 0.02804 0.02779 0.11845 0.94830-0.95028
  -8   1   2 21105.9 960.081   6-0.08168-0.51506 0.99662-0.85104-0.01864-0.03485
  -8   1   2 22835.6 882.365   5-0.12275-0.47377 0.10524 0.04035 0.91978-0.97337
   8   1  -2 21276.9 973.425   3 0.39616 0.20014 0.33870-0.19268 0.92753-0.87353
   8   1  -2 22839.5 839.371   7 0.53068 0.06632-0.84696 0.99327 0.12864-0.07460
   8   1  -2 22937.0 790.168  10 0.05223 0.54493 0.47595-0.33032-0.83314 0.88670
   8   1  -2 20953.4 894.763   1 0.36767 0.22858-0.65765 0.80229-0.53931 0.59248
   8   1  -2 22528.4 815.875   9 0.45636 0.14060 0.11463 0.03162 0.97136-0.91782
  -8   1   1 1402.87 260.734   6-0.08735-0.52399 0.99613-0.85053-0.01865-0.09038
   8   1  -1 968.763 228.568   1 0.42588 0.18494-0.65370 0.79839-0.49331 0.60199
  -8   1   1 1232.11 224.686   5-0.22794-0.38319 0.05084 0.09472 0.87810-0.98721
   8   1  -1 1007.72 235.774   3 0.32658 0.28437 0.32112-0.17513 0.94341-0.83389
   8   1  -1 1315.53 193.328   7 0.52748 0.08416-0.84902 0.99535 0.13399-0.02439
   8   1  -1 1105.87 173.281  10 0.11884 0.49292 0.56816-0.42251-0.75418 0.86328
   8   1  -1 1556.78 228.949   9 0.35994 0.25161 0.19129-0.04502 0.97573-0.86667
  -8   1   0 9618.76 653.371   6-0.09807-0.52787 0.99511-0.84949-0.01866-0.14591
  -8   1   0 9878.72 588.101   5-0.33096-0.29478-0.00486 0.15040 0.82327-0.98790
   8   1   0 8842.70 627.461   1 0.48024 0.14514-0.64716 0.79189-0.44686 0.61106
   8   1   0 9473.68 520.833  10 0.17968 0.44666 0.64613-0.50046-0.66817 0.83281
  -8   1   0 9303.74 638.058   2-0.38305-0.24245-0.22896 0.37493-0.96425 0.79990
   8   1   0 9790.80 578.478   9 0.27044 0.35570 0.25611-0.10982 0.96658-0.80200
  -8   1  -1 5216.35 481.500   6-0.11388-0.52665 0.99338-0.84774-0.01867-0.20144
  -8   1  -1 7109.82 502.288   5-0.42802-0.21233-0.05983 0.20534 0.75735-0.97750
   8   1   1 5791.04 528.511   1 0.53075 0.10919-0.63834 0.78311-0.40038 0.62010
   8   1   1 6449.74 445.675  10 0.23342 0.40752 0.70943-0.56374-0.57992 0.80009
  -8   1  -1 5715.57 511.014   2-0.31348-0.32661-0.22761 0.37355-0.97203 0.75214
  -8   1  -2 33436.1 1214.27   6-0.13485-0.52028 0.99065-0.84501-0.01868-0.25696
  -8   1  -2 34479.9 1108.38   5-0.51627-0.13869-0.11226 0.25775 0.68324-0.95891
   8   1   2 31896.4 1262.91   1 0.57752 0.07699-0.62753 0.77234-0.35413 0.62936
   8   1   2 35997.2 1085.30  10 0.27981 0.37572 0.75923-0.61352-0.49300 0.76871
  -8   1  -2 31300.0 1201.99   2-0.24820-0.40650-0.22527 0.37118-0.97440 0.69898
  -8   1  -3 3269.40 387.198   6-0.16107-0.50866 0.98657-0.84090-0.01868-0.31250
   8   1   3 3297.68 440.754   1 0.62071 0.04835-0.61499 0.75984-0.30830 0.63906
   8   1   3 3581.07 364.259  10 0.31935 0.35078 0.79744-0.65171-0.40958 0.74083
  -8   1  -3 3082.76 399.564   2-0.18837-0.48093-0.22226 0.36813-0.97263 0.64168
  -8   1  -4 14117.9 796.252   6-0.19265-0.49168 0.98062-0.83494-0.01866-0.36806
   8   1   4 12037.9 839.216   1 0.66054 0.02309-0.60093 0.74582-0.26302 0.64929
  -8   1  -4 13066.9 871.033   8-0.02196-0.66224 0.36555-0.21999-0.90318 0.51623
   8   1   4 13808.2 734.906  10 0.35284 0.33187 0.82610-0.68035-0.33069 0.71748
  -8   1  -4 12793.6 811.097   2-0.13472-0.54918-0.21889 0.36473-0.96797 0.58149
  -8   1  -5 2783.95 357.713   6-0.22975-0.46917 0.97218-0.82648-0.01861-0.42365
  -8   1  -5 2609.35 414.399   8 0.01656-0.71540 0.35995-0.21442-0.89525 0.45278
   8   1   5 2187.75 389.006   1 0.69720 0.00099-0.58553 0.73045-0.21833 0.66012
   8   1   5 2947.88 365.609  10 0.38119 0.31811 0.84706-0.70129-0.25660 0.69893
  -8   1  -5 3236.97 433.593   2-0.08760-0.61090-0.21541 0.36122-0.96155 0.51953
  -8   1  -6 243.234 173.432   2-0.04701-0.66609-0.21204 0.35781-0.95430 0.45675
  -8   1  -6 387.117 207.778   8 0.04895-0.76243 0.35481-0.20931-0.88751 0.38953
   8   1   6 380.853 213.054   1 0.73092-0.01817-0.56892 0.71388-0.17428 0.67158
   8   1   6 709.230 204.979  10 0.40523 0.30867 0.86183-0.71603-0.18714 0.68500
   8   1   7 3532.23 518.004   1 0.76188-0.03456-0.55121 0.69621-0.13084 0.68366
  -8   1  -7 4266.22 548.903   8 0.07559-0.80371 0.35029-0.20483-0.88043 0.32692
  -8   1  -7 3676.53 477.849   2-0.01276-0.71495-0.20893 0.35466-0.94695 0.39387
   8   1   7 3349.05 416.092  10 0.42567 0.30282 0.87160-0.72579-0.12193 0.67532
   8   1   8 2807.31 470.640   1 0.79024-0.04836-0.53248 0.67753-0.08801 0.69634
  -8   1  -8 2444.36 420.847   2 0.01549-0.75779-0.20617 0.35188-0.94005 0.33144
  -8   1  -8 1817.22 367.340   8 0.09689-0.83965 0.34649-0.20106-0.87428 0.26527
   8   1   8 2316.60 355.149  10 0.44311 0.29998 0.87731-0.73148-0.06049 0.66942
  -8   1  -9 5238.28 659.810   8 0.11326-0.87065 0.34345-0.19805-0.86928 0.20474
   8   1   9 5641.05 689.901   1 0.81616-0.05972-0.51281 0.65789-0.04575 0.70960
  -8   1  -9 5857.43 647.266   2 0.03813-0.79504-0.20384 0.34952-0.93397 0.26982
   8   1  10 1551.40 421.091   1 0.83977-0.06877-0.49222 0.63734-0.00402 0.72339
  -8   1 -10 1711.19 391.271   8 0.12509-0.89712 0.34119-0.19583-0.86550 0.14545
  -8   1 -10 1620.97 368.225   2 0.05560-0.82711-0.20198 0.34761-0.92895 0.20926
  -8   1 -11 1080.67 328.050   8 0.13273-0.91940 0.33970-0.19438-0.86299 0.08742
  -8   1 -11 1499.29 360.376   2 0.06830-0.85441-0.20058 0.34618-0.92511 0.14989
   8   1  11 1175.28 368.758   1 0.86117-0.07560-0.47075 0.61591 0.03722 0.73766
  -8   1 -12 112.648 170.245   2 0.07659-0.87731-0.19964 0.34521-0.92252 0.09177
  -8   2  17 808.589 275.196   4 0.60167-0.97971 0.35025-0.05872 0.85079-0.07228
  -8   2  16 1092.20 318.979   4 0.59619-0.98878 0.35430-0.06279 0.85184-0.12879
   8   2 -16 1207.39 359.395   7 0.67528-0.28315-0.57910 0.87074-0.26188-0.46165
  -8   2  15 3234.40 494.285   4 0.58740-0.99456 0.36071-0.06921 0.85341-0.18582
  -8   2  15 4339.02 583.042   5 0.58205-0.98856 0.40612-0.11442 0.83309-0.16489
   8   2 -15 4681.48 633.847   7 0.67237-0.26560-0.59862 0.89029-0.24197-0.42602
  -8   2  14 322.685 205.847   4 0.57507-0.99678 0.36954-0.07805 0.85542-0.24327
  -8   2  14 232.847 167.577   5 0.57210-0.99322 0.40287-0.11119 0.84006-0.22737
   8   2 -14 442.986 224.993   7 0.66909-0.24767-0.61664 0.90834-0.22292-0.38952
  -8   2  13 7002.48 680.953   5 0.55811-0.99384 0.39823-0.10657 0.84943-0.29227
   8   2 -13 7381.75 759.006   7 0.66554-0.22948-0.63317 0.92489-0.20484-0.35205
  -8   2  13 7124.57 696.646   4 0.55890-0.99517 0.38080-0.08933 0.85768-0.30098
  -8   2  12 4938.61 552.332   5 0.53934-0.98969 0.39187-0.10024 0.86126-0.35961
   8   2 -12 4225.56 551.863   7 0.66182-0.21112-0.64818 0.93993-0.18787-0.31347
  -8   2  12 3975.53 506.279   4 0.53857-0.98940 0.39450-0.10305 0.85995-0.35872
  -8   2  11 219.815 151.671   4 0.51373-0.97913 0.41058-0.11914 0.86193-0.41615
  -8   2  11 20.5330 101.088   6-0.07170-0.39362 0.99740-0.70610-0.01863 0.46493
  -8   2  11 301.374 157.127   5 0.51488-0.97984 0.38337-0.09176 0.87546-0.42933
   8   2 -11 138.348 151.694   7 0.65807-0.19272-0.66165 0.95343-0.17218-0.27362
  -8   2  10 11828.2 753.912   6-0.03190-0.44801 0.99943-0.70811-0.01855 0.40932
  -8   2  10 13068.7 819.578   5 0.48359-0.96316 0.37218-0.08059 0.89178-0.50117
   8   2 -10 11707.0 848.309   7 0.65440-0.17441-0.67351 0.96532-0.15795-0.23231
  -8   2  10 11292.6 810.239   4 0.48405-0.96401 0.42890-0.13747 0.86321-0.47287
  -8   2   9 225.621 155.742   4 0.44920-0.94372 0.44923-0.15781 0.86328-0.52840
  -8   2   9 321.121 153.620   6 0.00220-0.49671 0.99981-0.70848-0.01846 0.35370
  -8   2   9 130.687 120.581   5 0.44412-0.93830 0.35758-0.06602 0.90963-0.57454
   8   2  -9 110.510 123.802   7 0.65097-0.15634-0.68367 0.97551-0.14544-0.18927
  -8   2   8 1877.52 340.090   4 0.40896-0.91804 0.47124-0.17984 0.86158-0.58215
  -8   2   8 1515.01 282.969   6 0.03088-0.53999 0.99917-0.70782-0.01837 0.29807
  -8   2   8 2249.60 319.468   5 0.39493-0.90372 0.33872-0.04718 0.92799-0.64841
   8   2  -8 2057.00 349.315   3 0.74479-0.23640 0.39559-0.10366 0.71488-0.99417
   8   2  -8 2368.03 365.223   7 0.64796-0.13868-0.69200 0.98386-0.13496-0.14420
  -8   2   7 1445.11 299.632   4 0.36319-0.88683 0.49449-0.20311 0.85747-0.63350
  -8   2   7 1374.69 283.735   6 0.05436-0.57807 0.99798-0.70662-0.01829 0.24244
   8   2  -7 1639.14 308.618   3 0.69289-0.16984 0.39184-0.09995 0.76661-0.99037
  -8   2   7 1911.90 283.769   5 0.33438-0.85778 0.31458-0.02306 0.94521-0.72116
   8   2  -7 1719.90 299.739   7 0.64556-0.12163-0.69828 0.99017-0.12691-0.09671
  -8   2   6 2892.70 386.003   6 0.07282-0.61112 0.99664-0.70526-0.01821 0.18683
   8   2  -6 3430.25 415.327   3 0.63535-0.09764 0.38514-0.09329 0.81316-0.98139
  -8   2   6 4277.60 407.891   5 0.26100-0.79901 0.28405 0.00744 0.95889-0.79035
   8   2  -6 3417.45 404.403   7 0.64399-0.10542-0.70221 0.99413-0.12180-0.04627
  -8   2   6 3138.77 409.377   4 0.31192-0.85012 0.51843-0.22706 0.85032-0.68179
  -8   2   5 16365.5 888.552   6 0.08639-0.63929 0.99541-0.70402-0.01815 0.13123
   8   2  -5 16950.5 904.808   3 0.57312-0.02074 0.37557-0.08376 0.85363-0.96633
  -8   2   5 18887.4 808.415   5 0.17380-0.72642 0.24615 0.04532 0.96574-0.85272
   8   2  -5 18172.8 872.815   7 0.64353-0.09032-0.70334 0.99529-0.12032 0.00780
   8   2  -5 18206.1 846.230  10-0.14242 0.69576 0.16790 0.12352-0.97854 0.86555
  -8   2   5 16456.7 901.704   4 0.25540-0.80816 0.54241-0.25105 0.83948-0.72641
  -8   2   4 1588.62 289.439   6 0.09516-0.66266 0.99451-0.70310-0.01811 0.07565
  -8   2   4 1649.01 245.899   5 0.07291-0.64014 0.20025 0.09120 0.96184-0.90434
   8   2  -4 1330.79 277.707   3 0.50746 0.05957 0.36338-0.07160 0.88736-0.94453
   8   2  -4 1370.36 234.839  10-0.09328 0.66121 0.25116 0.04028-0.95400 0.89654
   8   2  -4 1598.27 257.655   7 0.64449-0.07663-0.70098 0.99295-0.12341 0.06644
  -8   2   3 10076.8 696.753   6 0.09921-0.68130 0.99407-0.70264-0.01809 0.02009
  -8   2   3 11561.7 597.724   5-0.03983-0.54202 0.14647 0.14496 0.94313-0.94115
   8   2  -3 11525.4 631.926   1 0.55282 0.02866-0.63358 0.92386-0.37897 0.37672
   8   2  -3 10257.3 708.387   3 0.43991 0.14179 0.34894-0.05721 0.91405-0.91569
   8   2  -3 10988.9 615.436   7 0.64721-0.06471-0.69400 0.98600-0.13241 0.13098
   8   2  -3 11436.6 658.751  10-0.04117 0.62369 0.33533-0.04387-0.91881 0.91688
  -8   2   2 3874.60 442.954   6 0.09856-0.69525 0.99414-0.70270-0.01809-0.03544
   8   2  -2 3574.74 379.833   1 0.59109 0.00494-0.62387 0.91420-0.34007 0.39334
   8   2  -2 3426.15 424.485   3 0.37211 0.22425 0.33280-0.04110 0.93376-0.87987
   8   2  -2 3191.39 352.815  10 0.01239 0.58473 0.41755-0.12607-0.87321 0.92682
  -8   2   1 20126.5 983.719   6 0.09322-0.70450 0.99472-0.70326-0.01812-0.09095
   8   2  -1 21603.0 938.381   1 0.62682-0.01622-0.61300 0.90337-0.30156 0.41035
   8   2  -1 19714.9 991.087   3 0.30567 0.30534 0.31554-0.02388 0.94694-0.83752
   8   2  -1 20715.9 894.960  10 0.06573 0.54598 0.49519-0.20369-0.81836 0.92751
  -8   2   0 1423.07 277.267   6 0.08315-0.70904 0.99572-0.70425-0.01816-0.14645
   8   2   0 1407.16 265.026   1 0.66014-0.03499-0.60108 0.89149-0.26348 0.42779
   8   2   0 1382.95 247.274  10 0.11736 0.50894 0.56620-0.27468-0.75610 0.92079
  -8   2  -1 1539.05 284.646   6 0.06830-0.70878 0.99700-0.70551-0.01823-0.20192
   8   2   1 1599.25 291.658   1 0.69123-0.05151-0.58821 0.87866-0.22583 0.44565
   8   2   1 1316.85 241.296  10 0.16610 0.47479 0.62928-0.33774-0.68859 0.90882
  -8   2  -2 386.124 162.052   7 0.03375-0.68888 0.72453-0.43376-0.65504 0.37902
  -8   2  -2 499.644 171.777   2-0.35420-0.30058-0.22855 0.52007-0.96816 0.69283
  -8   2  -2 642.664 202.986   6 0.04856-0.70363 0.99833-0.70683-0.01831-0.25738
   8   2   2 1042.30 261.700   1 0.72023-0.06595-0.57446 0.86494-0.18859 0.46393
   8   2   2 526.581 163.299  10 0.21117 0.44431 0.68391-0.39235-0.61796 0.89372
   8   2   3 12353.0 829.332   1 0.74726-0.07842-0.55989 0.85041-0.15173 0.48259
  -8   2  -3 12778.6 794.503   6 0.02378-0.69346 0.99941-0.70789-0.01840-0.31283
  -8   2  -3 13111.7 873.583   8-0.03454-0.63498 0.36727-0.07578-0.90548 0.57413
   8   2   3 13849.6 787.951  10 0.25220 0.41788 0.73017-0.43859-0.54603 0.87733
  -8   2  -3 14318.0 813.382   7 0.05876-0.72853 0.70487-0.41413-0.66629 0.33473
  -8   2  -3 13566.0 816.218   2-0.29306-0.37632-0.22699 0.51848-0.97327 0.64240
   8   2   4 25718.8 1232.78   1 0.77245-0.08904-0.54453 0.83509-0.11524 0.50162
  -8   2  -4 26921.4 1157.06   6-0.00620-0.67806 0.99983-0.70830-0.01849-0.36827
  -8   2  -4 28434.2 1318.49   8 0.00815-0.69231 0.36122-0.06978-0.89710 0.51023
   8   2   4 28149.4 1164.18  10 0.28910 0.39557 0.76858-0.47698-0.47424 0.86108
  -8   2  -4 30864.0 1185.60   7 0.08080-0.76521 0.68671-0.39599-0.67549 0.28838
  -8   2  -4 27503.3 1179.77   2-0.23707-0.44692-0.22477 0.51623-0.97435 0.58795
  -8   2  -5 11332.8 750.466   6-0.04165-0.65721 0.99909-0.70754-0.01857-0.42373
  -8   2  -5 10301.6 821.358   8 0.04454-0.74334 0.35553-0.06412-0.88862 0.44624
   8   2   5 10700.4 742.756  10 0.32202 0.37725 0.79986-0.50824-0.40358 0.84596
  -8   2  -5 10145.1 738.889   2-0.18692-0.51166-0.22218 0.51360-0.97254 0.53061
   8   2   5 9747.30 800.336   1 0.79588-0.09791-0.52843 0.81903-0.07908 0.52098
   8   2   6 1909.43 390.700   1 0.81764-0.10511-0.51160 0.80224-0.04322 0.54063
  -8   2  -6 2179.98 368.892   2-0.14295-0.57023-0.21945 0.51083-0.96887 0.47141
  -8   2  -6 1447.66 333.361   8 0.07500-0.78844 0.35040-0.05902-0.88059 0.38269
   8   2   6 1393.58 284.792  10 0.35122 0.36263 0.82481-0.53317-0.33470 0.83261
   8   2   7 3073.04 503.244   1 0.83780-0.11071-0.49405 0.78473-0.00763 0.56056
  -8   2  -7 3215.97 451.931   2-0.10522-0.62257-0.21677 0.50812-0.96420 0.41121
  -8   2  -7 2911.79 474.867   8 0.09993-0.82801 0.34593-0.05459-0.87337 0.31996
   8   2   7 2920.91 420.607  10 0.37704 0.35141 0.84421-0.55255-0.26794 0.82139
  -8   2  -8 740.194 252.597   2-0.07355-0.66884-0.21428 0.50560-0.95922 0.35069
  -8   2  -8 1445.32 345.301   8 0.11976-0.86247 0.34221-0.05091-0.86722 0.25829
   8   2   8 942.897 251.028  10 0.39980 0.34324 0.85877-0.56709-0.20345 0.81243
   8   2   8 1226.72 356.938   1 0.85641-0.11475-0.47580 0.76652 0.02772 0.58072
  -8   2  -9 695.241 257.539   2-0.04769-0.70930-0.21210 0.50338-0.95443 0.29037
  -8   2  -9 1466.76 361.599   8 0.13489-0.89225 0.33928-0.04800-0.86227 0.19783
   8   2   9 1536.38 419.290   1 0.87351-0.11729-0.45683 0.74760 0.06287 0.60109
   8   2   9 781.416 260.598  10 0.41983 0.33780 0.86911-0.57741-0.14123 0.80575
  -8   2 -10 764.053 290.272   8 0.14572-0.91771 0.33712-0.04588-0.85860 0.13864
   8   2  10 997.081 279.481  10 0.43742 0.33480 0.87576-0.58404-0.08121 0.80127
   8   2  11 637.610 242.181  10 0.45282 0.33400 0.87913-0.58739-0.02324 0.79884
  -8   3  15 499.945 254.563   4 0.58691-0.99404 0.36107 0.07614 0.85350-0.18586
   8   3 -15 483.977 227.028   7 0.68125-0.27433-0.48841 0.92581-0.34593-0.32199
  -8   3  14 108.094 174.250   4 0.57578-0.99747 0.36903 0.06817 0.85531-0.24312
   8   3 -14 292.714 198.336   7 0.68105-0.25948-0.50298 0.94041-0.33327-0.27910
  -8   3  13 775.297 291.718   4 0.56125-0.99750 0.37918 0.05800 0.85737-0.30064
   8   3 -13 760.203 274.313   7 0.68065-0.24444-0.51569 0.95315-0.32198-0.23484
  -8   3  12 3399.64 520.831   4 0.54304-0.99385 0.39153 0.04564 0.85950-0.35823
   8   3 -12 3200.65 503.607   7 0.68014-0.22929-0.52644 0.96392-0.31225-0.18903
  -8   3  11 464.441 211.382   4 0.52087-0.98623 0.40603 0.03112 0.86145-0.41563
  -8   3  11 736.272 227.280   6 0.07555-0.54082 0.99641-0.55925-0.01820 0.46446
   8   3 -11 558.858 222.904   7 0.67963-0.21413-0.53508 0.97259-0.30430-0.14143
  -8   3  10 1223.32 310.529   4 0.49442-0.97435 0.42260 0.01453 0.86289-0.47252
  -8   3  10 983.747 255.862   6 0.11177-0.59163 0.99258-0.55541-0.01803 0.40876
  -8   3   9 516.784 217.960   4 0.46342-0.95791 0.44108-0.00396 0.86343-0.52851
  -8   3   9 867.683 243.868   6 0.14264-0.63709 0.98819-0.55100-0.01786 0.35305
   8   3  -9 1360.01 305.770   7 0.67889-0.18411-0.54512 0.98268-0.29491-0.03973
  -8   3   8 3600.08 457.825   6 0.16847-0.67752 0.98370-0.54650-0.01771 0.29736
   8   3  -8 3387.96 440.467   3 0.74083-0.23237 0.39540 0.04220 0.71922-0.99861
   8   3  -8 3454.29 457.448   7 0.67883-0.16940-0.54585 0.98344-0.29422 0.01513
  -8   3   8 3379.02 469.827   4 0.42760-0.93665 0.46123-0.02412 0.86259-0.58313
  -8   3   7 5336.91 559.426   6 0.18953-0.71317 0.97949-0.54227-0.01758 0.24169
   8   3  -7 4800.04 513.749   3 0.68900-0.16588 0.39146 0.04610 0.77008-0.99395
   8   3  -7 5750.08 562.628   7 0.67905-0.15498-0.54306 0.98067-0.29685 0.07331
  -8   3   7 5685.61 601.269   4 0.38679-0.91040 0.48273-0.04564 0.85987-0.63585
  -8   3   6 13865.3 880.683   6 0.20601-0.74426 0.97584-0.53860-0.01746 0.18604
   8   3  -6 12256.2 803.828   3 0.63214-0.09436 0.38470 0.05282 0.81548-0.98381
   8   3  -6 13601.5 826.122   7 0.67956-0.14085-0.53598 0.97363-0.30346 0.13546
  -8   3   6 11510.7 825.996   4 0.34089-0.87906 0.50517-0.06809 0.85468-0.68612
  -8   3   5 3215.53 435.511   6 0.21809-0.77093 0.97297-0.53572-0.01738 0.13042
   8   3  -5 2900.53 404.421   3 0.57127-0.01883 0.37526 0.06223 0.85470-0.96750
   8   3  -5 3438.89 402.214   7 0.68030-0.12694-0.52355 0.96122-0.31488 0.20243
   8   3  -5 3153.21 404.156  10-0.11952 0.67282 0.20718 0.23009-0.96818 0.85524
  -8   3   5 3106.96 436.669   4 0.28996-0.84269 0.52804-0.09098 0.84646-0.73335
  -8   3   4 920.367 249.473   6 0.22586-0.79330 0.97103-0.53376-0.01732 0.07482
   8   3  -4 1230.14 271.914   3 0.50768 0.05942 0.36342 0.07402 0.88726-0.94454
  -8   3   4 988.179 271.151   4 0.23420-0.80149 0.55077-0.11373 0.83466-0.77700
   8   3  -4 865.050 216.951  10-0.07964 0.64753 0.27359 0.16370-0.94568 0.88827
  -8   3   3 92.2161 116.323   6 0.22941-0.81144 0.97012-0.53284-0.01730 0.01926
   8   3  -3 200.931 155.042   3 0.44282 0.13894 0.34960 0.08780 0.91305-0.91479
   8   3  -3 183.746 131.636  10-0.03759 0.62008 0.34094 0.09636-0.91606 0.91419
  -8   3   2 2683.18 402.089   6 0.22876-0.82540 0.97029-0.53299-0.01730-0.03628
   8   3  -2 3004.50 417.926   3 0.37818 0.21825 0.33431 0.10306 0.93226-0.87848
   8   3  -2 3281.68 406.758  10 0.00581 0.59126 0.40769 0.02964-0.87931 0.93298
  -8   3   1 6540.27 615.525   6 0.22394-0.83517 0.97152-0.53420-0.01734-0.09178
   8   3  -1 6702.18 614.294   3 0.31516 0.29593 0.31808 0.11924 0.94541-0.83609
   8   3  -1 6266.76 563.195  10 0.04971 0.56196 0.47232-0.03497-0.83583 0.94503
  -8   3   0 8193.96 680.521   6 0.21489-0.84072 0.97375-0.53641-0.01740-0.14725
   8   3   0 8908.70 673.818  10 0.09321 0.53304 0.53351-0.09614-0.78636 0.95110
  -8   3   0 8298.08 690.512   7 0.03822-0.66392 0.72108-0.28453-0.65711 0.49226
  -8   3  -1 9228.19 722.564   6 0.20155-0.84197 0.97686-0.53951-0.01749-0.20270
   8   3   1 10302.5 733.111  10 0.13556 0.50529 0.59022-0.15283-0.73191 0.95219
  -8   3  -1 8802.13 708.274   7 0.06541-0.70575 0.69947-0.26295-0.66914 0.44874
   8   3   1 10624.3 731.106   1 0.83215-0.19265-0.49918 0.93531-0.01787 0.23780
  -8   3  -2 1293.16 296.006   7 0.09010-0.74508 0.67880-0.24230-0.67917 0.40322
  -8   3  -2 1110.36 271.650   6 0.18380-0.83882 0.98069-0.54332-0.01761-0.25811
   8   3   2 1060.10 253.913  10 0.17612 0.47933 0.64174-0.20433-0.67360 0.94942
   8   3   2 1317.06 294.070   1 0.84410-0.19004-0.48812 0.92428 0.00403 0.27141
  -8   3  -3 997.776 264.286   7 0.11212-0.78175 0.65950-0.22303-0.68738 0.35589
  -8   3  -3 1104.39 268.066   6 0.16148-0.83109 0.98499-0.54761-0.01775-0.31351
  -8   3  -3 870.502 256.696   8-0.03396-0.63552 0.36719 0.07017-0.90538 0.57412
   8   3   3 967.695 251.066  10 0.21442 0.45562 0.68769-0.25026-0.61255 0.94390
   8   3   3 949.839 280.170   1 0.85611-0.18749-0.47611 0.91231 0.02713 0.30383
  -8   3  -4 1434.28 292.569   7 0.13135-0.81562 0.64199-0.20555-0.69399 0.30695
  -8   3  -4 1415.33 302.195   6 0.13438-0.81860 0.98947-0.55207-0.01791-0.36889
  -8   3  -4 1550.04 327.407   8 0.00752-0.69164 0.36132 0.07601-0.89723 0.51046
   8   3   4 1434.28 302.178  10 0.25017 0.43446 0.72797-0.29052-0.54977 0.93666
   8   3   4 1538.98 338.114   1 0.86799-0.18480-0.46322 0.89946 0.05120 0.33528
  -8   3  -5 1071.32 269.522   7 0.14768-0.84659 0.62662-0.19020-0.69918 0.25659
  -8   3  -5 1492.52 313.780   6 0.10224-0.80105 0.99373-0.55632-0.01808-0.42427
  -8   3  -5 1047.26 283.728   8 0.04286-0.74163 0.35581 0.08148-0.88904 0.44675
   8   3   5 1769.50 329.856  10 0.28323 0.41600 0.76269-0.32522-0.48616 0.92859
  -8   3  -6 1209.02 323.779   8 0.07245-0.78584 0.35084 0.08641-0.88130 0.38349
   8   3   6 1249.48 295.210  10 0.31355 0.40026 0.79212-0.35463-0.42241 0.92037
  -8   3  -7 887.184 275.438   8 0.09668-0.82472 0.34653 0.09069-0.87435 0.32103
   8   3   7 882.494 241.171  10 0.34121 0.38720 0.81658-0.37907-0.35905 0.91255
  -8   3  -8 4169.60 593.551   8 0.11598-0.85865 0.34293 0.09425-0.86842 0.25959
   8   3   8 4073.13 547.859  10 0.36629 0.37670 0.83647-0.39894-0.29647 0.90551
  -8   3  -9 1093.17 335.177   8 0.13075-0.88806 0.34009 0.09706-0.86365 0.19930
   8   3   9 1375.15 322.191  10 0.38896 0.36863 0.85216-0.41461-0.23491 0.89948
   8   3  10 2018.84 415.480  10 0.40935 0.36284 0.86402-0.42645-0.17452 0.89464
  -8   4  13 2970.56 549.485   4 0.54402-0.98023 0.39088 0.19201 0.85940-0.30263
   8   4 -13 3898.56 589.449   7 0.67573-0.23938-0.38509 0.96827-0.42787-0.12888
  -8   4  12 3191.73 536.399   4 0.52691-0.97768 0.40214 0.18074 0.86099-0.35967
   8   4 -12 3149.79 513.317   7 0.67632-0.22532-0.39067 0.97387-0.42377-0.07743
  -8   4  11 3482.23 544.018   4 0.50619-0.97153 0.41532 0.16754 0.86237-0.41650
  -8   4  11 3070.62 459.492   6 0.17617-0.64137 0.98222-0.39920-0.01766 0.46389
   8   4 -11 3510.91 529.222   7 0.67660-0.21096-0.39350 0.97674-0.42167-0.02398
  -8   4  10 4033.45 527.136   6 0.20856-0.68836 0.97525-0.39222-0.01745 0.40813
   8   4 -10 4856.86 594.360   7 0.67658-0.19629-0.39328 0.97654-0.42184 0.03173
  -8   4  10 4354.56 590.516   4 0.48162-0.96151 0.43035 0.15249 0.86326-0.47285
  -8   4   9 3514.44 530.442   4 0.45292-0.94738 0.44711 0.13572 0.86334-0.52838
  -8   4   9 2313.74 408.232   6 0.23606-0.73046 0.96838-0.38533-0.01725 0.35239
   8   4  -9 3566.10 492.319   7 0.67620-0.18127-0.38956 0.97285-0.42459 0.09003
  -8   4   8 127.693 156.345   4 0.41989-0.92890 0.46541 0.11740 0.86222-0.58271
   8   4  -8 155.313 148.555   3 0.75541-0.24689 0.39603 0.18724 0.70287-0.98236
   8   4  -8 71.2341 107.133   7 0.67537-0.16580-0.38179 0.96510-0.43029 0.15127
  -8   4   7 504.792 222.818   4 0.38231-0.90589 0.48500 0.09780 0.85946-0.63541
  -8   4   7 675.562 234.186   6 0.27767-0.80127 0.95629-0.37321-0.01691 0.24098
   8   4  -7 237.239 166.457   3 0.70575-0.18257 0.39300 0.19023 0.75476-0.97873
   8   4  -7 220.512 142.380   7 0.67390-0.14968-0.36920 0.95255-0.43937 0.21590
  -8   4   6 562.291 219.254   4 0.34008-0.87822 0.50555 0.07723 0.85457-0.68597
  -8   4   6 905.278 274.584   6 0.29225-0.83044 0.95156-0.36847-0.01679 0.18532
   8   4  -6 474.900 192.679   3 0.65140-0.11356 0.38724 0.19595 0.80115-0.96959
   8   4  -6 530.541 195.337  10-0.12074 0.65940 0.20512 0.37798-0.96878 0.80035
  -8   4   5 394.900 206.971   4 0.29316-0.84586 0.52667 0.05610 0.84705-0.73391
   8   4  -5 35.3273 110.036   3 0.59341-0.04091 0.37892 0.20423 0.84142-0.95433
   8   4  -5 310.603 161.657  10-0.08904 0.64230 0.25816 0.32496-0.95148 0.83859
   8   4  -4 3389.70 445.491   3 0.53301 0.03415 0.36835 0.21476 0.87522-0.93260
   8   4  -4 3366.96 467.992  10-0.05532 0.62317 0.31288 0.27026-0.92927 0.87192
  -8   4   4 3316.88 475.672   4 0.24164-0.80889 0.54788 0.03488 0.83640-0.77870
   8   4  -3 4793.67 530.746   3 0.47153 0.11029 0.35592 0.22715 0.90249-0.90434
   8   4  -3 3817.89 498.132  10-0.01997 0.60241 0.36839 0.21477-0.90189 0.90007
   8   4  -2 3870.35 488.139   3 0.41032 0.18616 0.34209 0.24094 0.92347-0.86979
   8   4  -2 4498.40 536.191  10 0.01653 0.58050 0.42374 0.15944-0.86928 0.92300
  -8   4   1 848.708 256.477   7 0.04000-0.65090 0.71971-0.13740-0.65793 0.54870
   8   4  -1 852.832 254.782   3 0.35064 0.26051 0.32737 0.25562 0.93866-0.82944
   8   4  -1 676.539 221.049  10 0.05365 0.55798 0.47798 0.10522-0.83161 0.94087
   8   4   0 3419.09 474.112  10 0.09084 0.53537 0.53025 0.05297-0.78922 0.95402
   8   4   0 2759.69 430.571   3 0.29356 0.33225 0.31225 0.27071 0.94874-0.78399
  -8   4   0 3314.30 491.595   7 0.06652-0.69207 0.69856-0.11628-0.66961 0.50483
  -8   4  -1 386.056 184.903   7 0.09077-0.73097 0.67822-0.09597-0.67943 0.45911
  -8   4  -1 618.698 239.938   6 0.28795-0.92832 0.95298-0.36978-0.01682-0.20341
   8   4   1 284.245 146.293  10 0.12762 0.51320 0.57980 0.00344-0.74262 0.96295
  -8   4  -2 1067.07 304.449   7 0.11263-0.76747 0.65904-0.07682-0.68757 0.41170
  -8   4  -2 1123.21 308.741   6 0.27215-0.92712 0.95802-0.37480-0.01696-0.25881
   8   4   2 933.908 270.987  10 0.16350 0.49190 0.62602-0.04276-0.69241 0.96828
  -8   4  -3 962.150 279.235   7 0.13201-0.80149 0.64137-0.05918-0.69421 0.36279
  -8   4  -3 828.424 275.169   6 0.25227-0.92183 0.96392-0.38068-0.01712-0.31419
   8   4   3 848.310 264.043  10 0.19813 0.47187 0.66848-0.08520-0.63926 0.97067
  -8   4  -4 1232.56 312.875   7 0.14884-0.83297 0.62550-0.04333-0.69953 0.31257
  -8   4  -4 942.160 257.971   6 0.22810-0.91225 0.97046-0.38721-0.01730-0.36954
  -8   4  -4 1697.16 354.613   8-0.02127-0.66281 0.36546 0.21774-0.90306 0.51638
   8   4   4 1829.74 358.906  10 0.23119 0.45340 0.70692-0.12362-0.58383 0.97077
  -8   4  -5 996.306 291.631   7 0.16309-0.86186 0.61168-0.02954-0.70371 0.26120
  -8   4  -5 639.540 215.575   6 0.19936-0.89811 0.97735-0.39408-0.01751-0.42487
  -8   4  -5 852.317 269.808   8 0.01408-0.71280 0.36033 0.22284-0.89580 0.45360
   8   4   5 822.544 268.783  10 0.26248 0.43670 0.74121-0.15789-0.52674 0.96922
  -8   4  -6 936.683 287.796   7 0.17474-0.88815 0.60012-0.01801-0.70690 0.20884
  -8   4  -6 1526.93 365.064   8 0.04378-0.75714 0.35566 0.22747-0.88881 0.39110
  -8   4  -7 287.592 154.648   7 0.18376-0.91181 0.59100-0.00892-0.70923 0.15562
  -8   4  -7 425.070 213.872   8 0.06825-0.79625 0.35156 0.23153-0.88244 0.32922
   8   4   7 745.393 242.104  10 0.31927 0.40909 0.79737-0.21401-0.40974 0.96330
   8   5 -11 493.218 220.973   7 0.65171-0.18592-0.24502 0.97398-0.52044 0.07486
  -8   5  10 439.422 216.588   6 0.26559-0.74534 0.96002-0.23113-0.01701 0.40766
   8   5 -10 812.626 265.513   7 0.65025-0.16981-0.23876 0.96775-0.52414 0.13410
  -8   5   9 24.3608 152.760   4 0.42296-0.91738 0.46376 0.26478 0.86238-0.52738
  -8   5   9 189.518 178.516   6 0.29035-0.78469 0.95219-0.22329-0.01680 0.35191
   8   5  -9 2.65133 96.9132   7 0.64776-0.15268-0.22842 0.95744-0.53017 0.19568
  -8   5   8 2086.19 432.103   4 0.39154-0.90053 0.48031 0.24822 0.86028-0.58073
   8   5  -8 1826.08 403.214  10-0.13095 0.64038 0.18769 0.54122-0.97359 0.69414
   8   5  -7 5881.23 693.053  10-0.10694 0.63097 0.22840 0.50053-0.96168 0.73777
  -8   5   7 5532.15 679.283   4 0.35595-0.87950 0.49801 0.23050 0.85662-0.63253
  -8   5   6 636.899 244.516   4 0.31606-0.85417 0.51658 0.21191 0.85099-0.68235
   8   5  -6 535.936 247.382  10-0.08102 0.61964 0.27134 0.45761-0.94654 0.77817
  -8   5   5 3538.92 529.434   4 0.27182-0.82449 0.53570 0.19278 0.84294-0.72975
   8   5  -5 3428.55 518.938  10-0.05333 0.60654 0.31606 0.41291-0.92783 0.81500
   8   5  -4 1978.07 408.055  10-0.02410 0.59190 0.36200 0.36699-0.90530 0.84800
   8   5  -3 1774.01 371.939  10 0.00640 0.57600 0.40856 0.32044-0.87878 0.87702
  -8   5   2 158.929 181.914   7 0.02165-0.61777 0.73367-0.00561-0.64928 0.59567
   8   5  -2 272.365 176.508  10 0.03783 0.55916 0.45512 0.27391-0.84822 0.90200
  -8   5   1 2850.86 493.208   7 0.04770-0.65846 0.71369 0.01435-0.66142 0.55226
   8   5  -1 2778.59 469.706  10 0.06987 0.54171 0.50104 0.22801-0.81370 0.92301
  -8   5   0 2810.89 480.522   7 0.07168-0.69709 0.69431 0.03369-0.67177 0.50706
   8   5   0 2657.80 429.149   3 0.35473 0.27114 0.32842 0.40021 0.93777-0.77313
   8   5   0 2972.06 489.025  10 0.10215 0.52402 0.54572 0.18335-0.77540 0.94025
  -8   5  -1 559.066 234.949   7 0.09351-0.73355 0.67586 0.05211-0.68048 0.46023
   8   5   1 248.403 204.712   3 0.30342 0.33711 0.31493 0.41365 0.94729-0.72712
   8   5   1 480.028 214.464  10 0.13433 0.50644 0.58861 0.14048-0.73359 0.95397
  -8   5  -2 597.183 245.972   7 0.11310-0.76779 0.65863 0.06932-0.68773 0.41194
   8   5   2 768.202 246.024  10 0.16608 0.48928 0.62926 0.09985-0.68862 0.96454
  -8   5  -3 288.254 184.563   7 0.13041-0.79974 0.64286 0.08507-0.69368 0.36234
   8   5   3 69.7207 141.109  10 0.19711 0.47284 0.66727 0.06186-0.64089 0.97235
  -8   5  -4 572.155 254.713   7 0.14541-0.82939 0.62878 0.09912-0.69848 0.31159
  -8   5  -4 884.185 280.397   6 0.28277-0.96687 0.95467-0.22556-0.01687-0.37002
   8   5   4 162.101 135.704  10 0.22717 0.45737 0.70236 0.02678-0.59083 0.97782
  -9  -5   8 709.340 257.055   5-0.24687-0.34061 0.04079-0.77003 0.86910-0.61054
   9  -5  -7 134.429 172.323   9 0.81422-0.21255-0.29424-0.43479 0.69652-0.90032
  -9  -5   7 479.699 210.678   5-0.28641-0.31568 0.01954-0.74880 0.84877-0.64573
   9  -5  -6 552.663 234.743   9 0.79656-0.18031-0.26227-0.46675 0.73462-0.88290
  -9  -5   6 856.551 281.765   5-0.32735-0.28935-0.00287-0.72641 0.82544-0.67791
   9  -5  -5 663.856 265.521   9 0.77657-0.14572-0.22988-0.49912 0.76984-0.86259
  -9  -5   5 397.676 224.423   5-0.36922-0.26209-0.02622-0.70308 0.79906-0.70705
   9  -5  -4 1075.85 333.592   9 0.75454-0.10910-0.19739-0.53159 0.80199-0.83921
  -9  -5   4 955.569 272.392   5-0.41152-0.23441-0.05029-0.67904 0.76963-0.73314
   9  -5  -3 1013.37 330.351   9 0.73083-0.07079-0.16513-0.56383 0.83094-0.81264
  -9  -5   3 1398.26 346.382   5-0.45375-0.20679-0.07485-0.65450 0.73726-0.75629
   9  -5  -2 2000.06 425.984   9 0.70583-0.03120-0.13343-0.59551 0.85665-0.78283
  -9  -5   2 1958.04 422.524   5-0.49544-0.17970-0.09965-0.62973 0.70210-0.77665
   9  -5  -1 3850.66 588.509   9 0.67997 0.00925-0.10263-0.62629 0.87913-0.74979
  -9  -5   1 3056.18 492.177   5-0.53616-0.15360-0.12445-0.60494 0.66436-0.79442
   9  -5   0 93.7354 143.856   9 0.65372 0.05010-0.07302-0.65589 0.89849-0.71362
   9  -5   1 676.350 288.015   9 0.62751 0.09090-0.04487-0.68402 0.91488-0.67449
  -9  -4  13 2800.37 490.716   5 0.05213-0.56649 0.19053-0.77384 0.95952-0.42330
   9  -4 -12 2778.34 514.369   9 0.85948-0.33068-0.42236-0.16089 0.50283-0.98421
  -9  -4  12 2910.82 487.781   5 0.02387-0.55284 0.17717-0.76050 0.95554-0.47485
   9  -4 -11 1292.09 348.931   9 0.85331-0.30992-0.39279-0.19044 0.55442-0.98027
  -9  -4  11 974.228 297.339   5-0.00799-0.53559 0.16192-0.74527 0.94993-0.52475
   9  -4 -10 82.1514 142.670   9 0.84365-0.28567-0.36131-0.22190 0.60434-0.97467
  -9  -4  10 112.381 164.796   5-0.04335-0.51485 0.14474-0.72812 0.94231-0.57264
   9  -4  -9 866.536 287.774   9 0.83046-0.25789-0.32811-0.25509 0.65219-0.96700
  -9  -4   9 1264.87 319.362   5-0.08201-0.49080 0.12567-0.70906 0.93228-0.61813
   9  -4  -8 3271.11 526.697   9 0.81378-0.22662-0.29340-0.28978 0.69756-0.95684
  -9  -4   8 3287.08 498.295   5-0.12370-0.46372 0.10476-0.68817 0.91946-0.66084
   9  -4  -7 1296.46 350.655   9 0.79374-0.19198-0.25748-0.32568 0.74004-0.94379
  -9  -4   7 1053.13 302.264   5-0.16804-0.43399 0.08211-0.66555 0.90352-0.70042
   9  -4  -6 3027.61 496.099   9 0.77054-0.15419-0.22069-0.36245 0.77924-0.92747
  -9  -4   6 2856.12 454.998   5-0.21455-0.40208 0.05790-0.64136 0.88417-0.73659
   9  -4  -5 1864.42 381.831   9 0.74451-0.11357-0.18344-0.39968 0.81485-0.90756
  -9  -4   5 1660.24 356.358   5-0.26270-0.36855 0.03233-0.61581 0.86122-0.76915
   9  -4  -4 5869.15 671.996   9 0.71607-0.07053-0.14616-0.43694 0.84664-0.88382
  -9  -4   4 4052.37 540.976   5-0.31185-0.33400 0.00566-0.58917 0.83455-0.79800
   9  -4  -3 2733.50 464.891   9 0.68570-0.02557-0.10930-0.47378 0.87447-0.85612
  -9  -4   3 2909.21 462.386   5-0.36139-0.29908-0.02182-0.56171 0.80419-0.82316
   9  -4  -2 680.877 271.415   9 0.65398 0.02075-0.07331-0.50976 0.89831-0.82445
  -9  -4   2 794.721 259.460   5-0.41066-0.26442-0.04980-0.53376 0.77026-0.84474
   9  -4  -1 1135.14 314.663   9 0.62150 0.06782-0.03859-0.54445 0.91827-0.78888
  -9  -4   1 1891.97 383.632   5-0.45906-0.23063-0.07798-0.50560 0.73297-0.86297
   9  -4   0 238.145 186.232   9 0.58888 0.11503-0.00554-0.57749 0.93456-0.74964
  -9  -4   0 194.254 173.179   5-0.50604-0.19826-0.10605-0.47755 0.69261-0.87813
  -9  -4  -1 3348.70 508.518   5-0.55114-0.16777-0.13374-0.44988 0.64955-0.89059
   9  -4   1 3525.36 540.055   9 0.55670 0.16180 0.02554-0.60856 0.94746-0.70702
   9  -4   2 866.191 261.333   9 0.52552 0.20758 0.05441-0.63741 0.95734-0.66138
   9  -4   3 1037.19 307.019   9 0.49579 0.25190 0.08090-0.66388 0.96462-0.61313
  -9  -4  -3 2691.09 439.790   2-0.23928-0.50778-0.22488-0.35727-0.97437 0.62242
   9  -4   4 990.001 296.830   9 0.46792 0.29436 0.10490-0.68786 0.96970-0.56270
  -9  -4  -4 995.172 291.801   2-0.19465-0.56701-0.22262-0.35956-0.97299 0.56551
   9  -4   4 1381.37 389.164   1 0.32247 0.44047-0.65870 0.07507-0.57260 0.97886
   9  -4   5 732.877 284.382   9 0.44222 0.33465 0.12637-0.70931 0.97303-0.51049
  -9  -4  -5 433.657 224.216   2-0.15530-0.62096-0.22026-0.36196-0.97010 0.50708
   9  -4   5 1334.72 358.374   1 0.38506 0.39244-0.65678 0.07319-0.52595 0.98773
   9  -4   6 1742.51 393.392   1 0.44603 0.34603-0.65162 0.06806-0.47649 0.99379
  -9  -4  -6 1982.75 399.277   2-0.12117-0.66969-0.21794-0.36431-0.96635 0.44780
  -9  -3  15 582.518 262.536   5 0.21460-0.69967 0.26410-0.70154 0.96375-0.31644
   9  -3 -14 415.359 212.533   9 0.86190-0.36219-0.47295 0.03554 0.40149-0.99386
  -9  -3  14 609.715 241.862   5 0.19435-0.69403 0.25524-0.69270 0.96500-0.37321
   9  -3 -13 1926.71 415.773   9 0.86200-0.34770-0.44531 0.00792 0.45914-0.99599
  -9  -3  13 1918.28 408.702   5 0.17020-0.68449 0.24455-0.68204 0.96581-0.42954
   9  -3 -12 355.792 211.859   9 0.85825-0.32935-0.41507-0.02230 0.51600-0.99733
  -9  -3  12 504.754 256.081   5 0.14201-0.67092 0.23193-0.66943 0.96585-0.48509
   9  -3 -11 3786.48 556.108   9 0.85042-0.30693-0.38228-0.05508 0.57162-0.99742
  -9  -3  11 4037.13 549.405   5 0.10970-0.65321 0.21724-0.65476 0.96469-0.53945
   9  -3 -10 8696.63 805.711   9 0.83833-0.28025-0.34704-0.09030 0.62548-0.99576
  -9  -3  10 8279.93 762.700   5 0.07321-0.63134 0.20039-0.63794 0.96187-0.59215
   9  -3  -9 5379.17 634.240   9 0.82189-0.24921-0.30954-0.12778 0.67702-0.99177
  -9  -3   9 4341.87 551.283   5 0.03263-0.60536 0.18133-0.61890 0.95688-0.64267
   9  -3  -8 158.971 162.480   9 0.80107-0.21381-0.27007-0.16723 0.72563-0.98486
  -9  -3   8 106.169 155.920   5-0.01188-0.57547 0.16004-0.59764 0.94917-0.69048
   9  -3  -7 1812.78 374.103   9 0.77602-0.17416-0.22902-0.20827 0.77073-0.97444
  -9  -3   7 1081.04 280.209   5-0.05998-0.54197 0.13657-0.57419 0.93821-0.73504
   9  -3  -6 587.248 198.476   9 0.74699-0.13054-0.18685-0.25042 0.81176-0.95994
  -9  -3   6 670.357 234.353   5-0.11123-0.50534 0.11105-0.54869 0.92351-0.77587
   9  -3  -5 340.336 200.719   9 0.71444-0.08340-0.14412-0.29312 0.84827-0.94093
  -9  -3   5 407.974 191.550   5-0.16501-0.46617 0.08367-0.52134 0.90469-0.81256
   9  -3  -4 5996.00 636.742   9 0.67895-0.03332-0.10145-0.33577 0.87994-0.91707
  -9  -3   4 7209.95 671.665   5-0.22061-0.42518 0.05471-0.49240 0.88145-0.84484
   9  -3  -3 10442.2 820.208   9 0.64125 0.01898-0.05946-0.37775 0.90662-0.88823
  -9  -3   3 8903.21 745.264   5-0.27722-0.38318 0.02451-0.46222 0.85368-0.87259
   9  -3  -2 611.274 228.680   9 0.60213 0.07269-0.01876-0.41843 0.92836-0.85444
  -9  -3   2 797.706 260.377   5-0.33401-0.34100-0.00655-0.43118 0.82142-0.89584
   9  -3  -1 2683.14 438.960   9 0.56244 0.12697 0.02010-0.45727 0.94537-0.81593
  -9  -3   1 2751.51 425.901   5-0.39014-0.29948-0.03807-0.39969 0.78486-0.91480
  -9  -3   1 3063.08 429.437   2-0.40823-0.28050-0.22913-0.20727-0.96001 0.83029
  -9  -3   0 4771.53 559.671   5-0.44486-0.25937-0.06963-0.36815 0.74434-0.92980
  -9  -3   0 4427.53 517.795   2-0.34536-0.35798-0.22838-0.20805-0.96916 0.78390
   9  -3   0 4063.88 529.612   9 0.52303 0.18098 0.05667-0.49382 0.95803-0.77306
   9  -3   1 274.984 175.091   9 0.48465 0.23395 0.09058-0.52772 0.96684-0.72636
  -9  -3  -1 371.803 207.548   2-0.28633-0.43161-0.22676-0.20970-0.97357 0.73278
  -9  -3  -1 385.361 235.889   5-0.49748-0.22136-0.10088-0.33693 0.70029-0.94127
  -9  -3  -2 3320.14 489.997   5-0.54747-0.18598-0.13146-0.30637 0.65322-0.94972
  -9  -3  -2 3593.63 486.529   2-0.23196-0.50058-0.22454-0.21196-0.97428 0.67796
   9  -3   2 3398.62 507.548   9 0.44798 0.28521 0.12161-0.55873 0.97239-0.67638
   9  -3   3 2221.28 396.748   9 0.41357 0.33422 0.14961-0.58672 0.97529-0.62375
  -9  -3  -3 2000.20 388.823   2-0.18273-0.56441-0.22194-0.21460-0.97228 0.62042
  -9  -3  -4 3998.18 535.499   2-0.13888-0.62286-0.21917-0.21740-0.96844 0.56104
   9  -3   4 4679.66 590.355   1 0.34757 0.41515-0.65832 0.22037-0.55438 0.96074
   9  -3   4 4593.94 610.536   9 0.38182 0.38056 0.17456-0.61165 0.97612-0.56906
   9  -3   5 4921.27 644.301   1 0.40887 0.36841-0.65517 0.21726-0.50713 0.96902
  -9  -3  -5 5060.18 606.528   2-0.10045-0.67590-0.21641-0.22019-0.96352 0.50059
   9  -3   5 5557.25 679.073   9 0.35304 0.42393 0.19650-0.63356 0.97545-0.51287
   9  -3   6 3242.09 541.922   1 0.46797 0.32387-0.64889 0.21102-0.45765 0.97505
  -9  -3  -6 4047.61 562.259   2-0.06732-0.72363-0.21377-0.22286-0.95813 0.43967
   9  -3   6 3886.23 583.378   9 0.32741 0.46416 0.21551-0.65256 0.97377-0.45566
   9  -3   7 3837.79 576.812   9 0.30501 0.50115 0.23174-0.66877 0.97150-0.39787
  -9  -3  -7 4232.39 584.383   2-0.03928-0.76627-0.21136-0.22531-0.95274 0.37875
   9  -3   7 3865.82 586.575   1 0.52451 0.28190-0.63959 0.20175-0.40631 0.97923
   9  -3   8 139.826 166.553   1 0.57817 0.24279-0.62736 0.18957-0.35346 0.98189
  -9  -3  -8 18.6750 160.208   2-0.01607-0.80408-0.20924-0.22746-0.94771 0.31819
   9  -2 -16 1669.49 405.645   9 0.84695-0.37633-0.52974 0.23817 0.25931-0.96268
  -9  -2  16 2276.70 479.559   5 0.32678-0.79718 0.31148-0.60307 0.94699-0.24409
   9  -2 -16 1371.84 388.054   7 0.53764-0.06783-0.84224 0.55105 0.11681-0.82000
   9  -2 -15 5302.52 669.281   9 0.85587-0.37066-0.50690 0.21535 0.32118-0.96903
  -9  -2  15 4010.73 587.439   5 0.31175-0.79676 0.30530-0.59692 0.95024-0.30287
   9  -2 -15 4039.50 604.128   7 0.51449-0.03004-0.85674 0.56558 0.15512-0.80276
   9  -2 -14 721.245 267.550   9 0.86112-0.36131-0.48102 0.18948 0.38345-0.97578
  -9  -2  14 378.617 234.367   5 0.29292-0.79254 0.29749-0.58913 0.95386-0.36201
   9  -2 -14 390.554 224.170   7 0.49000 0.00910-0.86872 0.57758 0.19278-0.78488
   9  -2 -13 927.750 274.277   9 0.86231-0.34791-0.45197 0.16045 0.44580-0.98260
  -9  -2  13 1377.03 335.143   5 0.27001-0.78423 0.28787-0.57953 0.95761-0.42127
   9  -2 -13 733.953 276.627   7 0.46425 0.04950-0.87819 0.58709 0.22972-0.76627
   9  -2 -12 1727.92 367.829   9 0.85904-0.33005-0.41965 0.12815 0.50776-0.98904
  -9  -2  12 2166.25 412.652   5 0.24274-0.77158 0.27626-0.56795 0.96114-0.48032
   9  -2 -11 184.207 138.021   9 0.85093-0.30734-0.38404 0.09256 0.56878-0.99453
  -9  -2  11 189.156 165.694   5 0.21089-0.75434 0.26248-0.55419 0.96402-0.53872
   9  -2 -10 259.149 155.180   9 0.83761-0.27943-0.34519 0.05373 0.62815-0.99838
  -9  -2  10 266.464 187.439   5 0.17424-0.73230 0.24635-0.53808 0.96573-0.59595
   9  -2  -9 414.081 185.476   9 0.81882-0.24605-0.30330 0.01186 0.68507-0.99978
  -9  -2   9 793.058 271.652   5 0.13272-0.70539 0.22772-0.51948 0.96564-0.65138
   9  -2  -8 264.241 183.689   9 0.79447-0.20710-0.25870-0.03272 0.73866-0.99784
  -9  -2   8 328.568 183.477   5 0.08634-0.67362 0.20648-0.49826 0.96307-0.70432
   9  -2  -7 3289.14 443.705   9 0.76462-0.16266-0.21189-0.07951 0.78801-0.99167
  -9  -2   7 3987.86 494.891   5 0.03530-0.63719 0.18260-0.47440 0.95726-0.75404
   9  -2  -6 8184.63 679.883   9 0.72961-0.11306-0.16353-0.12786 0.83230-0.98043
  -9  -2   6 7809.21 673.645   5-0.02000-0.59650 0.15611-0.44794 0.94751-0.79980
   9  -2  -5 7996.15 672.860   9 0.69004-0.05890-0.11441-0.17696 0.87082-0.96343
  -9  -2   5 7848.64 664.129   5-0.07894-0.55217 0.12719-0.41904 0.93314-0.84094
   9  -2  -4 2449.48 371.686   9 0.64675-0.00102-0.06541-0.22594 0.90311-0.94020
   9  -2  -4 3193.54 371.624   3 0.76916-0.12419 0.39639-0.68726 0.68648-0.72259
  -9  -2   4 2424.76 374.065   5-0.14073-0.50500 0.09611-0.38798 0.91363-0.87695
   9  -2  -3 4547.64 517.247   9 0.60081 0.05951-0.01744-0.27389 0.92900-0.91056
   9  -2  -3 4962.93 459.500   3 0.72519-0.06556 0.39447-0.68538 0.73568-0.71626
  -9  -2   3 4105.79 488.262   5-0.20436-0.45597 0.06324-0.35513 0.88865-0.90749
   9  -2  -2 3273.71 370.590   3 0.67624-0.00195 0.39014-0.68109 0.78112-0.70617
  -9  -2   2 2570.92 390.426   5-0.26877-0.40617 0.02906-0.32098 0.85810-0.93246
   9  -2  -2 2880.08 416.157   9 0.55341 0.12151 0.02865-0.31997 0.94862-0.87466
   9  -2  -1 8958.10 602.366   3 0.62314 0.06581 0.38343-0.67442 0.82184-0.69135
  -9  -2   1 6905.71 628.127   5-0.33285-0.35671-0.00591-0.28603 0.82213-0.95201
  -9  -2   1 7857.62 652.675   2-0.38085-0.30797-0.22893-0.06185-0.96458 0.83495
   9  -2  -1 8523.52 705.521   9 0.50574 0.18377 0.07214-0.36344 0.96240-0.83291
  -9  -2   0 6172.84 599.997   5-0.39552-0.30865-0.04113-0.25083 0.78110-0.96650
  -9  -2   0 6815.79 620.652   2-0.31764-0.38578-0.22773-0.06309-0.97172 0.78655
   9  -2   0 6596.26 635.980   9 0.45896 0.24514 0.11245-0.40373 0.97101-0.78600
  -9  -2  -1 6407.60 622.543   5-0.45585-0.26293-0.07609-0.21590 0.73557-0.97649
  -9  -2  -1 5779.12 582.860   2-0.25838-0.45964-0.22570-0.06515-0.97433 0.73363
   9  -2   1 6550.55 644.365   9 0.41408 0.30462 0.14920-0.44047 0.97526-0.73472
  -9  -2  -2 11608.3 834.935   5-0.51308-0.22031-0.11032-0.18169 0.68619-0.98263
  -9  -2  -2 11195.5 815.019   2-0.20388-0.52875-0.22312-0.06777-0.97344 0.67720
   9  -2   2 12203.3 883.458   9 0.37189 0.36140 0.18220-0.47345 0.97604-0.67998
   9  -2   3 2600.10 421.850   9 0.33300 0.41488 0.21140-0.50263 0.97422-0.62264
   9  -2   3 2419.69 418.977   1 0.33648 0.41145-0.65855 0.36624-0.56250 0.91346
  -9  -2  -3 3138.41 448.578   5-0.56661-0.18139-0.14344-0.14859 0.63369-0.98564
  -9  -2  -3 2841.98 432.633   2-0.15463-0.59260-0.22021-0.07071-0.97003 0.61826
   9  -2   4 5384.35 629.533   1 0.39723 0.36526-0.65602 0.36375-0.51641 0.92288
  -9  -2  -4 5680.70 620.269   2-0.11087-0.65096-0.21719-0.07377-0.96499 0.55769
   9  -2   4 5624.86 641.088   9 0.29780 0.46468 0.23689-0.52810 0.97061-0.56351
   9  -2   5 25.4822 112.494   9 0.26650 0.51057 0.25884-0.55003 0.96592-0.50329
   9  -2   5-90.5462 209.064   1 0.45557 0.32149-0.65049 0.35826-0.46838 0.93037
  -9  -2  -5-247.111 192.864   2-0.07261-0.70381-0.21421-0.07678-0.95906 0.49622
   9  -2   6 73.1379 111.349   9 0.23919 0.55247 0.27746-0.56864 0.96073-0.44257
  -9  -2  -6 126.785 186.042   2-0.03975-0.75128-0.21140-0.07962-0.95284 0.43447
   9  -2   6-60.0069 169.114   1 0.51116 0.28046-0.64210 0.34990-0.41881 0.93632
   9  -2   7 1048.76 336.599   1 0.56378 0.24240-0.63099 0.33884-0.36806 0.94108
  -9  -2  -7 1335.44 351.939   2-0.01204-0.79359-0.20886-0.08220-0.94679 0.37289
   9  -2   8 199.874 228.798   1 0.61327 0.20747-0.61734 0.32523-0.31643 0.94497
  -9  -2  -8 41.3548 164.896   2 0.01079-0.83102-0.20664-0.08445-0.94125 0.31182
   9  -2   9 5316.64 703.929   1 0.65955 0.17576-0.60131 0.30924-0.26418 0.94824
  -9  -2  -9 4403.42 635.320   2 0.02904-0.86388-0.20479-0.08633-0.93647 0.25150
   9  -1 -17 20.2842 84.9680   9 0.81961-0.36349-0.56678 0.42107 0.13830-0.89715
   9  -1 -16 140.461 139.527   9 0.83566-0.36494-0.54840 0.40271 0.20234-0.90566
  -9  -1  16 180.076 179.768   5 0.40292-0.87325 0.34184-0.48761 0.92528-0.22233
   9  -1 -16 486.420 231.598   7 0.57841-0.10846-0.80696 0.66150 0.04103-0.74415
   9  -1 -15 4941.47 616.291   9 0.84839-0.36308-0.52676 0.38108 0.26784-0.91564
  -9  -1  15 4971.94 644.397   5 0.38956-0.87450 0.33662-0.48242 0.92975-0.28231
   9  -1 -15 5129.42 674.493   7 0.56018-0.07558-0.82453 0.67909 0.07645-0.72402
   9  -1 -14 207.082 151.093   9 0.85733-0.35743-0.50156 0.35590 0.33463-0.92691
  -9  -1  14 68.2393 128.058   5 0.37238-0.87193 0.32985-0.47567 0.93507-0.34315
   9  -1 -14 208.958 174.088   7 0.54073-0.04149-0.84004 0.69463 0.11147-0.70350
   9  -1 -13 413.410 192.956   9 0.86193-0.34743-0.47253 0.32689 0.40241-0.93917
  -9  -1  13 832.521 262.354   5 0.35103-0.86519 0.32131-0.46715 0.94104-0.40464
   9  -1 -13 1209.24 332.664   7 0.52012-0.00623-0.85352 0.70814 0.14606-0.68254
   9  -1 -12 3695.03 487.636   9 0.86156-0.33247-0.43940 0.29378 0.47072-0.95195
  -9  -1  12 4328.20 553.342   5 0.32510-0.85387 0.31079-0.45665 0.94737-0.46649
   9  -1 -12 3490.81 514.396   7 0.49839 0.03014-0.86496 0.71961 0.18017-0.66110
   9  -1 -11 6986.33 637.466   9 0.85556-0.31187-0.40199 0.25639 0.53888-0.96459
  -9  -1  11 6884.97 667.586   5 0.29420-0.83758 0.29802-0.44391 0.95363-0.52827
   9  -1 -11 7424.94 719.518   7 0.47561 0.06756-0.87437 0.72905 0.21372-0.63911
   9  -1 -10 2887.25 409.938   9 0.84326-0.28499-0.36022 0.21463 0.60599-0.97618
   9  -1 -10 3039.25 465.937   7 0.45184 0.10597-0.88176 0.73646 0.24666-0.61649
  -9  -1  10 2973.75 440.347   5 0.25797-0.81597 0.28277-0.42868 0.95929-0.58945
   9  -1  -9 3139.45 412.139   9 0.82411-0.25124-0.31418 0.16861 0.67094-0.98559
  -9  -1   9 4024.35 501.510   5 0.21612-0.78872 0.26476-0.41069 0.96364-0.64931
   9  -1  -8 8186.10 642.990   9 0.79770-0.21024-0.26422 0.11867 0.73239-0.99153
  -9  -1   8 7881.29 677.827   5 0.16846-0.75568 0.24378-0.38974 0.96584-0.70704
   9  -1  -7 552.824 182.684   9 0.76397-0.16192-0.21094 0.06541 0.78895-0.99256
  -9  -1   7 291.310 163.468   5 0.11503-0.71685 0.21967-0.36565 0.96497-0.76168
   9  -1  -6 2922.36 384.063   9 0.72322-0.10658-0.15526 0.00975 0.83923-0.98731
   9  -1  -6 3715.07 427.607   3 0.76639-0.15068 0.39634-0.54146 0.68987-0.83714
  -9  -1   6 2867.57 397.791   5 0.05608-0.67251 0.19239-0.33839 0.96000-0.81223
   9  -1  -5 13437.8 799.315   9 0.67625-0.04502-0.09834-0.04715 0.88207-0.97463
   9  -1  -5 12347.7 749.468   3 0.72160-0.09122 0.39423-0.53938 0.73932-0.83106
  -9  -1   5 12925.1 815.293   5-0.00783-0.62322 0.16200-0.30802 0.94996-0.85771
   9  -1  -4 5312.54 505.701   9 0.62430 0.02153-0.04151-0.10397 0.91671-0.95375
   9  -1  -4 5561.41 508.413   3 0.67166-0.02663 0.38964-0.53484 0.78495-0.82116
  -9  -1   4 5204.97 522.127   5-0.07580-0.56986 0.12875-0.27480 0.93401-0.89727
   9  -1  -3 1394.62 274.886   9 0.56896 0.09146 0.01387-0.15933 0.94288-0.92440
   9  -1  -3 1520.77 273.493   3 0.61728 0.04241 0.38259-0.52782 0.82587-0.80655
  -9  -1   3 1226.50 266.130   5-0.14668-0.51359 0.09307-0.23914 0.91150-0.93029
  -9  -1   2 5984.70 546.237   5-0.21908-0.45580 0.05551-0.20161 0.88214-0.95645
   9  -1  -2 6642.30 541.280   3 0.55949 0.11487 0.37320-0.51848 0.86133-0.78648
   9  -1  -2 6695.07 574.168   9 0.51202 0.16299 0.06655-0.21199 0.96089-0.88688
  -9  -1   1 15466.7 878.674   5-0.29152-0.39797 0.01676-0.16288 0.84599-0.97581
   9  -1  -1 17375.3 873.886   3 0.49959 0.18943 0.36179-0.50710 0.89087-0.76049
  -9  -1   1 16181.1 912.239   2-0.38308-0.30582-0.22896 0.08378-0.96424 0.83470
   9  -1  -1 17169.5 929.387   9 0.45528 0.23433 0.11554-0.26096 0.97150-0.84196
   9  -1   0 195.802 143.426   9 0.40032 0.30388 0.16012-0.30553 0.97584-0.79078
  -9  -1   0 374.789 189.745   2-0.31964-0.38387-0.22778 0.08257-0.97156 0.78648
  -9  -1   0 464.875 193.709   5-0.36253-0.34157-0.02246-0.12368 0.80345-0.98879
   9  -1   0 509.092 177.872   3 0.43907 0.26461 0.34875-0.49411 0.91434-0.72843
  -9  -1  -1 3793.19 453.699   5-0.43082-0.28789-0.06145-0.08471 0.75522-0.99608
   9  -1   1 4033.88 436.052   3 0.37947 0.33887 0.33463-0.48002 0.93194-0.69050
  -9  -1  -1 4822.27 526.627   2-0.25995-0.45815-0.22577 0.08053-0.97431 0.73369
   9  -1   1 3999.57 477.268   9 0.34846 0.37033 0.19993-0.34531 0.97522-0.73464
   9  -1   2 210.607 148.462   9 0.30064 0.43274 0.23486-0.38023 0.97097-0.67487
  -9  -1  -2 149.299 158.407   2-0.20490-0.52781-0.22317 0.07790-0.97349 0.67734
  -9  -1  -2 430.185 178.919   5-0.49530-0.23802-0.09956-0.04662 0.70222-0.99860
   9  -1   2 656.106 232.905   1 0.35539 0.37776-0.65810 0.51143-0.54856 0.84411
   9  -1   2 588.376 186.023   3 0.32221 0.41080 0.31996-0.46539 0.94420-0.64723
   9  -1   3 160.767 132.236   9 0.25746 0.49052 0.26506-0.41041 0.96431-0.61268
  -9  -1  -3 942.642 283.234   2-0.15505-0.59226-0.22024 0.07493-0.97007 0.61839
  -9  -1  -3 728.157 243.193   5-0.55520-0.19273-0.13628-0.00993 0.64544-0.99734
   9  -1   3 344.009 201.722   1 0.41406 0.33365-0.65475 0.50812-0.50295 0.85400
   9  -1   4 15693.5 1026.81   1 0.47003 0.29224-0.64861 0.50202-0.45586 0.86243
  -9  -1  -4 15266.2 977.864   2-0.11068-0.65123-0.21717 0.07183-0.96497 0.55775
   9  -1   5 4462.25 580.210   1 0.52306 0.25378-0.63987 0.49331-0.40768 0.86977
  -9  -1  -5 3957.84 536.221   2-0.07186-0.70465-0.21415 0.06877-0.95893 0.49618
   9  -1   6 5429.73 651.308   1 0.57300 0.21839-0.62870 0.48218-0.35874 0.87634
  -9  -1  -6 5067.89 607.969   2-0.03848-0.75263-0.21129 0.06588-0.95258 0.43429
   9  -1   7 841.955 337.736   1 0.61980 0.18616-0.61529 0.46881-0.30930 0.88243
  -9  -1  -7 1101.70 281.090   2-0.01035-0.79536-0.20870 0.06325-0.94639 0.37258
  -9  -1  -8 1627.78 379.661   2 0.01283-0.83314-0.20644 0.06096-0.94074 0.31139
   9  -1   8 1498.31 385.095   1 0.66343 0.15709-0.59981 0.45337-0.25960 0.88824
  -9  -1  -9 366.588 250.798   2 0.03135-0.86626-0.20455 0.05904-0.93585 0.25096
   9  -1   9 720.768 300.689   1 0.70393 0.13116-0.58241 0.43602-0.20979 0.89395
   9  -1  10 655.501 306.453   1 0.74133 0.10831-0.56324 0.41689-0.16001 0.89968
  -9  -1 -10 936.568 314.957   2 0.04553-0.89504-0.20306 0.05752-0.93188 0.19147
   9   0 -17 281.296 195.875   7 0.62981-0.17435-0.73333 0.73357-0.07936-0.67923
  -9   0  16 8930.17 879.167   5 0.46028-0.93054 0.36362-0.36357 0.90267-0.19966
   9   0 -16 8260.91 858.574   7 0.61800-0.14790-0.75459 0.75485-0.04801-0.65504
  -9   0  15 1443.54 357.304   5 0.44844-0.93331 0.35921-0.35918 0.90782-0.26032
   9   0 -15 1727.83 403.084   7 0.60523-0.12048-0.77416 0.77446-0.01699-0.63051
  -9   0  14 3437.88 511.825   5 0.43279-0.93228 0.35331-0.35330 0.91422-0.32225
   9   0 -14 3747.87 556.538   7 0.59153-0.09214-0.79211 0.79243 0.01366-0.60562
  -9   0  13 1616.42 349.513   5 0.41291-0.92700 0.34570-0.34572 0.92175-0.38529
   9   0 -13 1573.21 365.036   7 0.57698-0.06295-0.80846 0.80881 0.04392-0.58032
  -9   0  12 148.988 170.870   5 0.38829-0.91699 0.33612-0.33617 0.93016-0.44922
   9   0 -12-200.217 178.143   7 0.56163-0.03295-0.82325 0.82363 0.07373-0.55459
   9   0 -11 194.830 116.830   9 0.86170-0.31793-0.44115 0.44142 0.46732-0.89297
  -9   0  11-197.790 163.702   5 0.35840-0.90171 0.32427-0.32434 0.93906-0.51363
   9   0 -11 49.3571 125.771   7 0.54553-0.00220-0.83649 0.83689 0.10307-0.52838
   9   0 -10 8370.99 621.954   9 0.85472-0.29635-0.39841 0.39870 0.54497-0.91511
  -9   0  10 6692.83 627.799   5 0.32268-0.88061 0.30980-0.30989 0.94791-0.57800
   9   0 -10 7489.81 689.169   7 0.52875 0.02921-0.84821 0.84864 0.13186-0.50163
   9   0  -9 5683.54 499.411   9 0.83930-0.26634-0.34954 0.34984 0.62184-0.93645
  -9   0   9 5107.13 538.209   5 0.28063-0.85317 0.29235-0.29246 0.95596-0.64158
   9   0  -9 4900.50 543.712   7 0.51139 0.06122-0.85843 0.85889 0.16004-0.47426
   9   0  -8 2863.92 349.166   9 0.81443-0.22688-0.29466 0.29498 0.69600-0.95508
  -9   0   8 2521.28 355.107   6-0.38690-0.20057 0.91786-0.91825-0.01807 0.27728
  -9   0   8 2543.14 375.942   5 0.23183-0.81898 0.27157-0.27170 0.96227-0.70341
   9   0  -8 2173.85 360.427   7 0.49352 0.09373-0.86718 0.86767 0.18753-0.44620
   9   0  -7 6647.28 523.989   9 0.77948-0.17733-0.23439 0.23473 0.76513-0.96869
  -9   0   7 6196.99 546.144   6-0.36728-0.23479 0.92638-0.92677-0.01817 0.22184
   9   0  -7 5849.00 548.903   3 0.74892-0.14780 0.39578-0.39519 0.71028-0.91318
  -9   0   7 5355.46 528.549   5 0.17606-0.77781 0.24716-0.24732 0.96568-0.76234
   9   0  -7 6227.04 574.770   7 0.47526 0.12664-0.87450 0.87502 0.21422-0.41735
   9   0  -6 6877.07 526.145   9 0.73447-0.11773-0.16993 0.17029 0.82681-0.97484
  -9   0   6 6176.84 546.376   6-0.35201-0.26466 0.93266-0.93303-0.01824 0.16637
   9   0  -6 5645.34 531.030   3 0.70184-0.08607 0.39266-0.39211 0.75842-0.90580
  -9   0   6 7227.38 600.452   5 0.11337-0.72974 0.21892-0.21910 0.96488-0.81705
   9   0  -6 6105.74 551.784   7 0.45675 0.15979-0.88042 0.88097 0.24002-0.38760
   9   0  -5 12376.1 701.343   9 0.68032-0.04899-0.10304 0.10342 0.87885-0.97136
  -9   0   5 11129.1 728.995   6-0.34110-0.29016 0.93695-0.93730-0.01829 0.11088
   9   0  -5 10434.9 713.789   3 0.64988-0.01944 0.38705-0.38653 0.80232-0.89417
  -9   0   5 11340.7 734.698   5 0.04424-0.67522 0.18682-0.18702 0.95850-0.86619
   9   0  -4 31518.4 1118.76   9 0.61883 0.02710-0.03582 0.03622 0.91974-0.95673
  -9   0   4 30043.8 1191.27   6-0.33455-0.31131 0.93945-0.93979-0.01831 0.05537
   9   0  -4 29724.3 1180.16   3 0.59378 0.05132 0.37898-0.37851 0.84119-0.87751
  -9   0   4 29244.7 1156.50   5-0.03043-0.61516 0.15105-0.15127 0.94526-0.90847
   9   0  -3 817.187 189.450   9 0.55250 0.10802 0.02951-0.02909 0.94893-0.93040
  -9   0   3 555.442 172.022   6-0.33238-0.32808 0.94027-0.94059-0.01832-0.00016
   9   0  -3 692.251 215.654   3 0.53460 0.12516 0.36865-0.36822 0.87443-0.85521
  -9   0   3 696.202 196.106   5-0.10926-0.55094 0.11204-0.11229 0.92414-0.94286
  -9   0   2 10376.0 704.140   6-0.33458-0.34047 0.93944-0.93975-0.01831-0.05570
  -9   0   2 10083.5 672.693   5-0.19047-0.48434 0.07049-0.07077 0.89453-0.96877
   9   0  -2 8642.75 648.940   3 0.47361 0.20081 0.35636-0.35597 0.90168-0.82693
   9   0  -2 10633.8 670.013   9 0.48418 0.19094 0.09099-0.09056 0.96693-0.89287
   9   0  -1 106.322 102.799   9 0.41662 0.27309 0.14717-0.14672 0.97511-0.84553
  -9   0   1 247.555 151.598   6-0.34116-0.34849 0.93693-0.93722-0.01829-0.11127
  -9   0   1 1.05343 93.5891   5-0.27206-0.41736 0.02729-0.02759 0.85639-0.98615
   9   0  -1 187.072 143.578   3 0.41222 0.27686 0.34254-0.34219 0.92290-0.79263
  -9   0   1-91.8252 150.746   2-0.41506-0.27393-0.22915 0.22959-0.95873 0.82927
   9   0   0 95.4060 102.853   9 0.35215 0.35215 0.19717-0.19670 0.97541-0.79030
  -9   0   0 298.685 157.920   6-0.35212-0.35212 0.93261-0.93288-0.01824-0.16685
  -9   0   0-179.710 164.336   2-0.35179-0.35179-0.22851 0.22891-0.96844 0.78345
  -9   0   0 98.0837 94.8562   5-0.35202-0.35202-0.01657 0.01625 0.81022-0.99550
   9   0   0 165.488 149.654   3 0.35187 0.35187 0.32768-0.32737 0.93839-0.75259
   9   0   0 346.929 192.108   1 0.35190 0.35190-0.65821 0.65713-0.55116 0.73578
  -9   0  -1 26135.6 1109.92   6-0.36748-0.35136 0.92630-0.92656-0.01817-0.22246
  -9   0  -1 27283.6 1121.80   5-0.42851-0.29013-0.06011 0.05977 0.75698-0.99778
   9   0   1 27275.0 1169.18   3 0.29387 0.42454 0.31233-0.31206 0.94869-0.70736
   9   0   1 25808.0 1192.52   1 0.40867 0.30970-0.65519 0.65415-0.50729 0.74742
  -9   0  -1 26751.7 1190.40   2-0.29176-0.42643-0.22695 0.22732-0.97333 0.73280
   9   0   1 28800.0 1173.19   9 0.29247 0.42642 0.24068-0.24019 0.96991-0.72928
   9   0   2 2172.69 385.583   1 0.46271 0.27022-0.64959 0.64860-0.46223 0.75787
   9   0   2 1656.95 303.206   9 0.23863 0.49486 0.27784-0.27733 0.96061-0.66446
  -9   0  -2 1927.44 312.899   6-0.38722-0.34621 0.91771-0.91795-0.01807-0.27810
  -9   0  -2 2028.39 365.345   2-0.23596-0.49683-0.22472 0.22506-0.97434 0.67828
  -9   0  -2 1880.51 316.992   5-0.50008-0.23318-0.10244 0.10207 0.69798-0.99430
  -9   0  -3 641.885 205.081   5-0.56569-0.18218-0.14285 0.14247 0.63465-0.98649
  -9   0  -3 593.696 234.439   2-0.18507-0.56233-0.22207 0.22238-0.97243 0.62083
   9   0   3 393.851 237.305   1 0.51382 0.23367-0.64161 0.64066-0.41634 0.76750
  -9   0  -4-19.6412 128.785   2-0.13950-0.62250-0.21921 0.21948-0.96850 0.56138
   9   0   4 186.646 214.821   1 0.56191 0.20014-0.63144 0.63053-0.36993 0.77661
   9   0   5-0.82027 165.318   1 0.60695 0.16967-0.61928 0.61840-0.32326 0.78545
  -9   0  -5 133.946 167.052   2-0.09941-0.67719-0.21633 0.21656-0.96336 0.50070
  -9   0  -6-9.28014 169.638   2-0.06478-0.72642-0.21356 0.21376-0.95767 0.43947
   9   0   6 151.294 215.511   1 0.64897 0.14221-0.60529 0.60445-0.27650 0.79421
  -9   0  -7 2694.07 459.410   2-0.03544-0.77036-0.21102 0.21119-0.95194 0.37822
   9   0   7 2213.86 413.113   1 0.68803 0.11771-0.58963 0.58883-0.22982 0.80304
  -9   0  -8-483.845 253.339   2-0.01117-0.80923-0.20878 0.20891-0.94658 0.31733
  -9   0  -8-188.297 178.239   8-0.03752-0.78349 0.36766-0.36813-0.90600 0.27627
   9   0   9 2350.46 498.068   1 0.75760 0.07726-0.55381 0.55309-0.13703 0.82129
  -9   0  -9 1825.52 403.575   2 0.00834-0.84334-0.20689 0.20699-0.94187 0.25708
  -9   0  -9 1995.23 410.465   8-0.02016-0.81548 0.36531-0.36581-0.90284 0.21760
  -9   0 -10 4415.10 638.569   2 0.02338-0.87298-0.20537 0.20544-0.93799 0.19766
  -9   0 -10 3269.10 532.546   8-0.00720-0.84309 0.36347-0.36401-0.90030 0.15954
   9   0  10 5229.17 733.173   1 0.78830 0.06113-0.53385 0.53317-0.09104 0.83082
  -9   0 -11 1584.86 383.208   8 0.00162-0.86654 0.36219-0.36276-0.89849 0.10221
  -9   1  16 616.160 258.235   5 0.49953-0.96973 0.37792-0.23206 0.88371-0.18064
   9   1 -16 577.869 284.451   7 0.65108-0.18083-0.68336 0.82936-0.14583-0.55715
  -9   1  15 4770.87 615.296   5 0.48879-0.97360 0.37406-0.22822 0.88920-0.24165
   9   1 -15 4829.20 659.924   7 0.64355-0.15866-0.70329 0.84931-0.12039-0.52704
  -9   1  14 0.73228 81.0083   4 0.45347-0.95342 0.44680-0.30104 0.86335-0.27178
  -9   1  14-141.085 149.725   5 0.47425-0.97366 0.36877-0.22295 0.89627-0.30423
   9   1 -14 246.549 197.350   7 0.63546-0.13592-0.72180 0.86785-0.09553-0.49635
  -9   1  13 682.563 237.080   4 0.43179-0.94630 0.45894-0.31319 0.86277-0.32665
  -9   1  13 1081.39 291.101   5 0.45540-0.96942 0.36181-0.21601 0.90482-0.36830
   9   1 -13 525.420 210.728   7 0.62688-0.11270-0.73894 0.88501-0.07131-0.46503
  -9   1  12 3818.93 437.150   6-0.32972-0.19931 0.94126-0.79587-0.01833 0.49965
  -9   1  12 3714.15 493.894   5 0.43164-0.96028 0.35287-0.20709 0.91468-0.43368
   9   1 -12 3508.24 517.808   7 0.61792-0.08909-0.75472 0.90083-0.04779-0.43299
  -9   1  12 3779.38 480.966   4 0.40545-0.93452 0.47309-0.32735 0.86134-0.38068
  -9   1  11 6629.42 576.835   6-0.28976-0.25386 0.95509-0.80968-0.01847 0.44425
  -9   1  11 5818.67 594.662   5 0.40230-0.94555 0.34159-0.19584 0.92550-0.50001
   9   1 -11 6713.67 673.540   7 0.60866-0.06519-0.76920 0.91533-0.02508-0.40016
  -9   1  11 5869.69 573.788   4 0.37426-0.91789 0.48904-0.34332 0.85867-0.43346
  -9   1  10 3917.16 449.132   6-0.25482-0.30340 0.96557-0.82014-0.01856 0.38881
  -9   1  10 2986.14 422.713   5 0.36664-0.92450 0.32756-0.18183 0.93674-0.56678
   9   1 -10 3118.56 445.904   7 0.59923-0.04111-0.78237 0.92853-0.00326-0.36643
  -9   1  10 3053.89 409.946   4 0.33809-0.89628 0.50648-0.36078 0.85430-0.48454
  -9   1   9 2416.18 354.375   6-0.22476-0.34805 0.97341-0.82796-0.01862 0.33333
  -9   1   9 3647.41 452.325   5 0.32391-0.89638 0.31030-0.16459 0.94763-0.63319
   9   1  -9 3531.92 463.452   7 0.58973-0.01698-0.79428 0.94046 0.01753-0.33167
  -9   1   9 2921.79 400.448   4 0.29692-0.86967 0.52504-0.37935 0.84773-0.53343
  -9   1   8 7425.93 612.253   6-0.19949-0.38792 0.97918-0.83372-0.01865 0.27782
   9   1  -8 8073.70 665.537   3 0.75328-0.16676 0.39595-0.24965 0.70532-0.96386
  -9   1   8 7690.83 623.065   5 0.27342-0.86050 0.28931-0.14363 0.95710-0.69817
   9   1  -8 8005.84 665.315   7 0.58034 0.00706-0.80491 0.95113 0.03713-0.29573
  -9   1   8 7863.86 630.867   4 0.25085-0.83816 0.54423-0.39856 0.83848-0.57963
  -9   1   7 75.4440 120.474   6-0.17892-0.42309 0.98334-0.83787-0.01867 0.22230
   9   1  -7 409.080 201.938   3 0.70678-0.10560 0.39308-0.24682 0.75379-0.95680
  -9   1   7 319.336 150.865   5 0.21462-0.81632 0.26411-0.11845 0.96375-0.76034
   9   1  -7 200.553 131.342   7 0.57121 0.03083-0.81429 0.96054 0.05536-0.25841
  -9   1   6 3184.47 406.447   6-0.16298-0.45362 0.98624-0.84075-0.01868 0.16677
   9   1  -6 2975.08 406.319   3 0.65550-0.03966 0.38775-0.24153 0.79797-0.94545
  -9   1   6 3192.21 392.407   5 0.14733-0.76363 0.23432-0.08868 0.96592-0.81802
   9   1  -6 2825.06 376.510   7 0.56256 0.05413-0.82241 0.96868 0.07197-0.21948
  -9   1   5 13339.6 823.693   6-0.15163-0.47957 0.98813-0.84262-0.01868 0.11124
   9   1  -5 13796.7 839.836   3 0.60015 0.03035 0.37999-0.23381 0.83716-0.92911
  -9   1   5 14634.9 795.481   5 0.07182-0.70274 0.19975-0.05413 0.96173-0.86936
   9   1  -5 14084.5 804.129   7 0.55465 0.07668-0.82924 0.97554 0.08666-0.17862
  -9   1   4 5341.46 528.205   6-0.14483-0.50097 0.98919-0.84367-0.01868 0.05570
   9   1  -4 5675.76 544.869   3 0.54172 0.10344 0.36998-0.22384 0.87080-0.90722
  -9   1   4 5135.83 477.817   5-0.01096-0.63456 0.16048-0.01489 0.94935-0.91249
   9   1  -4 5955.46 501.073   7 0.54780 0.09818-0.83475 0.98107 0.09904-0.13545
  -9   1   3 1354.53 275.058   6-0.14256-0.51784 0.98953-0.84399-0.01868 0.00016
  -9   1   3 2126.32 306.858   5-0.09935-0.56079 0.11701 0.02855 0.92720-0.94586
   9   1  -3 1916.99 279.683   7 0.54240 0.11822-0.83882 0.98518 0.10856-0.08943
   9   1  -3 1351.62 294.547   3 0.48137 0.17845 0.35801-0.21191 0.89857-0.87945
   9   1  -3 1863.72 300.901   1 0.34788 0.31201-0.65832 0.80280-0.55414 0.57231
  -9   1   2 6651.50 581.172   6-0.14480-0.53019 0.98919-0.84364-0.01868-0.05538
  -9   1   2 7540.34 555.942   5-0.19101-0.48374 0.07021 0.07533 0.89431-0.96849
   9   1  -2 6174.57 568.967   3 0.42042 0.25407 0.34446-0.19840 0.92040-0.84576
   9   1  -2 6637.94 558.136   1 0.40112 0.27333-0.65575 0.80028-0.51332 0.58701
   9   1  -2 7578.81 515.767   9 0.47988 0.19533 0.09469 0.05162 0.96772-0.89361
  -9   1   1 15660.2 887.571   6-0.15158-0.53801 0.98813-0.84256-0.01868-0.11091
  -9   1   1 18454.7 857.546   5-0.28315-0.40620 0.02130 0.12422 0.85053-0.98023
   9   1  -1 15702.9 904.130   3 0.36019 0.32896 0.32980-0.18378 0.93656-0.80638
   9   1  -1 16746.2 894.011   1 0.45192 0.23710-0.65093 0.79550-0.47150 0.60070
   9   1  -1 18839.7 838.958   9 0.39840 0.29140 0.16163-0.01530 0.97590-0.84627
   9   1   0 456.333 145.855   9 0.32188 0.38252 0.21955-0.07320 0.97328-0.78812
  -9   1   0 573.954 200.414   6-0.16291-0.54128 0.98625-0.84067-0.01868-0.16646
  -9   1   0 432.826 154.553   5-0.37291-0.33105-0.02830 0.17380 0.79660-0.98182
   9   1   0 824.703 227.600   3 0.30191 0.40190 0.31452-0.16854 0.94752-0.76182
  -9   1   0 389.547 194.616   2-0.41437-0.28930-0.22915 0.37516-0.95886 0.77396
   9   1   0 246.325 163.695   1 0.50006 0.20352-0.64403 0.78864-0.42902 0.61374
  -9   1  -1 3945.11 463.410   6-0.17882-0.53996 0.98336-0.83776-0.01867-0.22200
  -9   1  -1 4161.75 422.046   5-0.45772-0.26086-0.07719 0.22266 0.73406-0.97479
   9   1   1 3749.17 462.691   1 0.54546 0.17268-0.63523 0.77988-0.38618 0.62641
  -9   1  -1 4143.09 479.325   2-0.35462-0.36365-0.22856 0.37454-0.96811 0.72767
   9   1   1 4291.10 430.956   9 0.25260 0.46639 0.26838-0.12201 0.96340-0.72273
  -9   1  -2 259.750 154.021   6-0.19938-0.53400 0.97921-0.83359-0.01865-0.27756
  -9   1  -2 452.973 193.493   2-0.29832-0.43456-0.22716 0.37311-0.97299 0.67702
   9   1   2 257.594 198.362   1 0.58810 0.14460-0.62470 0.76939-0.34319 0.63894
  -9   1  -2 165.157 131.477   5-0.53559-0.19760-0.12410 0.26956 0.66491-0.96117
  -9   1  -3 543.756 187.280   6-0.22467-0.52331 0.97343-0.82780-0.01862-0.33313
  -9   1  -3 469.888 211.840   2-0.24633-0.50114-0.22519 0.37111-0.97440 0.62289
   9   1   3 693.897 238.985   1 0.62802 0.11925-0.61260 0.75733-0.30022 0.65149
  -9   1  -4 16670.1 924.847   6-0.25477-0.50780 0.96558-0.81993-0.01856-0.38872
   9   1   4 15633.2 1014.42   1 0.66529 0.09654-0.59908 0.74384-0.25740 0.66418
  -9   1  -4 15086.9 942.234   2-0.19925-0.56282-0.22287 0.36875-0.97322 0.56619
  -9   1  -5 5116.54 516.092   6-0.28983-0.48734 0.95507-0.80941-0.01847-0.44435
   9   1   5 3620.59 516.178   1 0.70000 0.07639-0.58424 0.72905-0.21480 0.67710
  -9   1  -5 5129.25 570.240   2-0.15740-0.61928-0.22039 0.36624-0.97029 0.50772
   9   1   6 5024.12 631.569   1 0.73225 0.05871-0.56821 0.71305-0.17248 0.69029
  -9   1  -6 4125.47 552.886   8-0.02958-0.76211 0.36660-0.22112-0.90459 0.38598
  -9   1  -6 4836.98 573.880   2-0.12089-0.67039-0.21792 0.36373-0.96631 0.44821
   9   1   7 1396.68 374.134   1 0.76214 0.04338-0.55105 0.69593-0.13046 0.70379
  -9   1  -7 1106.81 296.593   2-0.08967-0.71621-0.21557 0.36136-0.96188 0.38824
  -9   1  -7 1170.08 310.765   8-0.00470-0.80163 0.36311-0.21767-0.89980 0.32567
   9   1   8 1294.74 359.229   1 0.78976 0.03032-0.53282 0.67775-0.08876 0.71761
  -9   1  -8 1095.41 305.455   2-0.06358-0.75690-0.21346 0.35921-0.95745 0.32828
  -9   1  -8 994.953 294.391   8 0.01546-0.83643 0.36012-0.21471-0.89549 0.26585
   9   1   9 778.981 314.124   1 0.81520 0.01945-0.51359 0.65855-0.04738 0.73175
  -9   1  -9 632.547 264.888   2-0.04238-0.79271-0.21163 0.35735-0.95337 0.26867
  -9   1  -9 591.842 269.067   8 0.03117-0.86677 0.35768-0.21231-0.89188 0.20672
  -9   1 -10 967.978 311.062   2-0.02581-0.82388-0.21014 0.35582-0.94988 0.20965
  -9   1 -10 342.514 230.855   8 0.04270-0.89294 0.35583-0.21050-0.88908 0.14841
  -9   2  16 1715.37 389.417   4 0.51691-0.98771 0.40856-0.11706 0.86173-0.15921
  -9   2  16 2045.98 429.977   5 0.52093-0.99106 0.38549-0.09381 0.87207-0.16893
  -9   2  15 4409.23 588.086   5 0.51067-0.99542 0.38189-0.09022 0.87777-0.23016
   9   2 -15 4218.13 630.301   7 0.66993-0.18489-0.61232 0.90407-0.22755-0.41980
  -9   2  15 4308.86 579.102   4 0.50585-0.99121 0.41554-0.12405 0.86238-0.21532
  -9   2  14 479.996 227.405   4 0.49114-0.99106 0.42461-0.13313 0.86301-0.27140
  -9   2  14 708.709 238.140   5 0.49653-0.99588 0.37685-0.08521 0.88527-0.29317
   9   2 -14 681.240 254.530   7 0.66642-0.16673-0.62932 0.92109-0.20911-0.38270
  -9   2  13 646.600 242.438   4 0.47257-0.98705 0.43573-0.14427 0.86339-0.32724
  -9   2  13 795.255 249.967   5 0.47792-0.99188 0.37011-0.07849 0.89452-0.35794
   9   2 -13 711.473 253.422   7 0.66269-0.14836-0.64484 0.93664-0.19170-0.34456
  -9   2  12 2478.90 420.001   4 0.44993-0.97897 0.44882-0.15737 0.86329-0.38259
  -9   2  12 2849.15 438.765   5 0.45413-0.98270 0.36133-0.06974 0.90537-0.42431
   9   2 -12 2301.38 430.796   7 0.65888-0.12991-0.65886 0.95069-0.17546-0.30525
  -9   2  11-71.0603 134.451   4 0.42299-0.96659 0.46374-0.17231 0.86238-0.43713
  -9   2  11 195.856 128.086   6-0.12190-0.42167 0.99239-0.70112-0.01868 0.44442
  -9   2  11-140.471 129.796   5 0.42435-0.96753 0.35009-0.05852 0.91750-0.49196
   9   2 -11 326.206 190.723   7 0.65509-0.11148-0.67135 0.96321-0.16056-0.26460
  -9   2  10 604.740 233.433   4 0.39157-0.94973 0.48029-0.18888 0.86028-0.49048
  -9   2  10 678.633 211.860   6-0.08747-0.47069 0.99612-0.70484-0.01865 0.38885
  -9   2  10 641.610 213.419   5 0.38762-0.94541 0.33586-0.04431 0.93037-0.56035
   9   2 -10 301.900 165.390   7 0.65147-0.09321-0.68226 0.97415-0.14720-0.22242
  -9   2   9 362.335 183.815   4 0.35553-0.92825 0.49821-0.20681 0.85657-0.54222
  -9   2   9 469.246 179.421   6-0.05807-0.51469 0.99829-0.70698-0.01860 0.33327
   9   2  -9 760.378 243.961   3 0.77562-0.20370 0.39648-0.10447 0.67843-0.99261
  -9   2   9 450.935 166.701   5 0.34291-0.91531 0.31803-0.02651 0.94313-0.62862
   9   2  -9 508.874 209.495   7 0.64815-0.07525-0.69148 0.98340-0.13562-0.17846
  -9   2   8 471.877 206.216   4 0.31482-0.90210 0.51714-0.22576 0.85079-0.59189
  -9   2   8 507.228 202.700   6-0.03349-0.55386 0.99938-0.70806-0.01856 0.27768
   9   2  -8 396.829 198.619   3 0.73190-0.14532 0.39490-0.10293 0.72874-0.98739
  -9   2   8 291.506 134.085   5 0.28918-0.87620 0.29593-0.00443 0.95453-0.69554
   9   2  -8 426.366 179.032   7 0.64532-0.05777-0.69888 0.99083-0.12613-0.13240
  -9   2   7 2903.81 412.160   6-0.01359-0.58836 0.99979-0.70846-0.01851 0.22210
   9   2  -7 3044.69 429.624   3 0.68339-0.08214 0.39090-0.09897 0.77500-0.97811
  -9   2   7 4384.82 451.937   5 0.22552-0.82715 0.26884 0.02264 0.96286-0.75939
   9   2  -7 4027.85 466.221   7 0.64316-0.04097-0.70426 0.99623-0.11913-0.08386
  -9   2   7 4059.25 493.923   4 0.26949-0.87133 0.53666-0.24529 0.84246-0.63902
  -9   2   6 8009.72 662.961   6 0.00177-0.61832 0.99981-0.70847-0.01847 0.16652
   9   2  -6 8036.96 671.975   3 0.63070-0.01480 0.38450-0.09261 0.81651-0.96409
  -9   2   6 9360.07 624.580   5 0.15136-0.76760 0.23613 0.05533 0.96594-0.81799
   9   2  -6 9220.32 679.474   7 0.64189-0.02506-0.70730 0.99930-0.11511-0.03232
   9   2  -6 9037.40 621.045  10-0.13316 0.75020 0.18389 0.10748-0.97458 0.82662
  -9   2   5 7084.38 623.775   6 0.01266-0.64381 0.99968-0.70831-0.01843 0.11095
   9   2  -5 7328.98 637.063   3 0.57469 0.05588 0.37584-0.08399 0.85272-0.94477
   9   2  -5 8233.81 615.807   7 0.64178-0.01030-0.70756 0.99959-0.11476 0.02287
   9   2  -5 8108.67 579.784  10-0.08795 0.71958 0.25997 0.03143-0.95082 0.85840
  -9   2   4 1989.13 345.169   6 0.01917-0.66492 0.99954-0.70816-0.01841 0.05539
   9   2  -4 2397.14 384.335   3 0.51639 0.12883 0.36515-0.07334 0.88325-0.91978
   9   2  -4 2883.39 347.907  10-0.03978 0.68601 0.33751-0.04609-0.91774 0.88086
  -9   2   3 4306.92 497.522   6 0.02133-0.68167 0.99948-0.70808-0.01840-0.00016
   9   2  -3 3704.27 465.342   3 0.45700 0.20289 0.35276-0.06099 0.90800-0.88900
   9   2  -3 4785.85 444.468  10 0.01013 0.65069 0.41417-0.12273-0.87532 0.89397
  -9   2   2 3052.48 419.429   6 0.01915-0.69409 0.99954-0.70813-0.01841-0.05569
   9   2  -2 3417.20 402.017   1 0.59624 0.07800-0.62242 0.91263-0.33466 0.40845
   9   2  -2 3060.03 440.409   3 0.39772 0.27684 0.33908-0.04735 0.92709-0.85256
   9   2  -2 3671.92 394.453  10 0.06041 0.61501 0.48764-0.19618-0.82426 0.89844
  -9   2   1 6797.56 614.870   6 0.01262-0.70216 0.99968-0.70825-0.01843-0.11121
   9   2  -1 8290.36 636.476   1 0.62924 0.05956-0.61220 0.90244-0.29887 0.42817
   9   2  -1 7840.90 677.296   3 0.33974 0.34948 0.32456-0.03287 0.94091-0.81084
   9   2  -1 7923.62 579.696  10 0.10972 0.58028 0.55596-0.26448-0.76589 0.89562
  -9   2   0 5986.50 575.009   6 0.00172-0.70585 0.99981-0.70837-0.01847-0.16671
   9   2   0 7124.60 610.830   1 0.66054 0.04282-0.60093 0.89122-0.26302 0.44784
   9   2   0 6965.24 543.035  10 0.15693 0.54767 0.61772-0.32622-0.70197 0.88723
  -9   2  -1 5783.52 571.670   6-0.01362-0.70510 0.99979-0.70833-0.01851-0.22221
   9   2   1 6174.47 588.490   1 0.69016 0.02776-0.58869 0.87901-0.22717 0.46750
   9   2   1 7214.06 566.165  10 0.20119 0.51800 0.67213-0.38061-0.63433 0.87513
   9   2   2 11994.9 850.707   1 0.71812 0.01436-0.57552 0.86589-0.19137 0.48722
  -9   2  -2 11418.2 792.901   6-0.03350-0.69983 0.99938-0.70790-0.01856-0.27770
   9   2   2 13185.4 783.285  10 0.24198 0.49181 0.71898-0.42744-0.56469 0.86102
  -9   2  -2 11587.4 796.735   2-0.39302-0.33994-0.22905 0.52061-0.96267 0.66678
  -9   2  -3 2829.81 406.301   6-0.05803-0.68989 0.99829-0.70680-0.01860-0.33319
   9   2   3 2478.64 406.220   1 0.74448 0.00257-0.56148 0.85188-0.15564 0.50701
   9   2   3 2573.59 364.920  10 0.27907 0.46930 0.75848-0.46692-0.49447 0.84635
  -9   2  -3 3146.40 431.515   2-0.34061-0.40695-0.22828 0.51981-0.96966 0.61824
   9   2   4 5817.73 642.071   1 0.76925-0.00764-0.54659 0.83703-0.12000 0.52689
  -9   2  -4 6530.61 607.475   6-0.08738-0.67514 0.99613-0.70462-0.01865-0.38868
   9   2   4 6423.39 579.722  10 0.31248 0.45049 0.79112-0.49954-0.42477 0.83218
  -9   2  -4 6229.86 609.502   2-0.29231-0.46985-0.22697 0.51846-0.97330 0.56635
  -9   2  -5-155.482 120.884   6-0.12175-0.65537 0.99241-0.70089-0.01868-0.44419
   9   2   5 221.619 174.475   1 0.79249-0.01632-0.53088 0.82137-0.08447 0.54687
  -9   2  -5 13.9865 134.635   2-0.24867-0.52809-0.22529 0.51676-0.97440 0.51191
  -9   2  -5 56.1273 165.351   8-0.03129-0.74572 0.36683-0.07544-0.90490 0.44190
   9   2   5 111.506 111.788  10 0.34235 0.43522 0.81753-0.52594-0.35632 0.81927
  -9   2  -6 247.773 163.885   2-0.21003-0.58134-0.22345 0.51487-0.97369 0.45568
   9   2   6 45.5421 90.5925  10 0.36892 0.42324 0.83840-0.54679-0.28961 0.80809
   9   2   7 1382.00 369.319   1 0.83446-0.02917-0.49710 0.78767-0.01371 0.58714
  -9   2  -7 1282.30 309.640   2-0.17650-0.62947-0.22157 0.51297-0.97185 0.39830
  -9   2  -7 967.970 306.105   8 0.02069-0.82698 0.35932-0.06800-0.89431 0.32028
  -9   2  -8 274.457 207.654   2-0.14806-0.67250-0.21979 0.51115-0.96940 0.34031
  -9   2  -8-73.5672 137.474   8 0.03969-0.86062 0.35632-0.06503-0.88982 0.26027
  -9   2  -9 5501.46 713.152   8 0.05440-0.88996 0.35391-0.06266-0.88612 0.20105
   9   2   9 4499.60 685.277   1 0.87061-0.03619-0.46022 0.75087 0.05669 0.62778
  -9   3  15 803.422 296.704   4 0.51312-0.99845 0.41097 0.02623 0.86197-0.21487
  -9   3  14 573.603 260.057   4 0.49991-0.99980 0.41923 0.01795 0.86267-0.27102
   9   3 -14 202.184 169.121   7 0.68056-0.18072-0.51795 0.95545-0.31995-0.27179
  -9   3  13 1231.60 333.167   4 0.48324-0.99769 0.42938 0.00779 0.86322-0.32703
   9   3 -13 2473.74 451.746   7 0.67995-0.16547-0.52994 0.96748-0.30904-0.22715
  -9   3  12 424.003 225.610   4 0.46293-0.99194 0.44136-0.00422 0.86343-0.38268
   9   3 -12 569.420 228.462   7 0.67928-0.15016-0.54000 0.97756-0.29972-0.18093
  -9   3  11 3275.77 456.171   6 0.01294-0.55646 0.99967-0.56255-0.01843 0.44413
   9   3 -11 3837.62 544.670   7 0.67865-0.13489-0.54796 0.98555-0.29222-0.13288
  -9   3  11 4266.90 576.327   4 0.43876-0.98233 0.45509-0.01795 0.86301-0.43772
  -9   3  10 6905.65 659.588   6 0.04515-0.60326 0.99852-0.56138-0.01832 0.38848
   9   3 -10 7618.61 745.106   7 0.67815-0.11974-0.55364 0.99125-0.28681-0.08274
  -9   3  10 8036.36 759.682   4 0.41055-0.96868 0.47040-0.03328 0.86168-0.49184
  -9   3   9 4280.22 520.795   6 0.07252-0.64522 0.99666-0.55950-0.01821 0.33284
   9   3  -9 4039.54 509.849   3 0.77217-0.20018 0.39644 0.04123 0.68276-0.99704
   9   3  -9 5078.17 585.831   7 0.67786-0.10481-0.55674 0.99438-0.28384-0.03017
  -9   3   9 5778.18 645.304   4 0.37812-0.95082 0.48711-0.05000 0.85906-0.54467
  -9   3   8 317.328 189.043   4 0.34139-0.92864 0.50494-0.06785 0.85475-0.59582
  -9   3   8 190.351 155.781   6 0.09530-0.68260 0.99450-0.55732-0.01811 0.27719
   9   3  -8 400.917 196.323   3 0.72823-0.14158 0.39467 0.04296 0.73257-0.99131
   9   3  -8 218.133 145.710   7 0.67784-0.09015-0.55688 0.99455-0.28370 0.02524
  -9   3   7 1397.28 336.502   4 0.30029-0.90210 0.52357-0.08649 0.84833-0.64485
  -9   3   7 1582.91 329.868   6 0.11368-0.71557 0.99234-0.55515-0.01802 0.22157
   9   3  -7 2022.23 375.706   3 0.67988-0.07857 0.39053 0.04707 0.77803-0.98124
   9   3  -7 2161.91 359.970   7 0.67816-0.07582-0.55353 0.99122-0.28692 0.08401
  -9   3   6 433.957 187.917   4 0.25489-0.87126 0.54261-0.10555 0.83937-0.69134
  -9   3   6 308.668 175.954   6 0.12781-0.74430 0.99043-0.55322-0.01794 0.16596
   9   3  -6 648.116 240.982   3 0.62782-0.01185 0.38410 0.05346 0.81855-0.96624
   9   3  -6 600.234 189.440  10-0.11274 0.72975 0.21864 0.21858-0.96475 0.81684
  -9   3   5 246.975 165.087   6 0.13781-0.76890 0.98895-0.55172-0.01789 0.11036
   9   3  -5 430.440 198.936   3 0.57296 0.05767 0.37554 0.06197 0.85372-0.94588
   9   3  -5 466.269 172.512  10-0.07574 0.70734 0.27995 0.15730-0.94318 0.85081
  -9   3   4 7385.50 681.248   6 0.14375-0.78944 0.98801-0.55077-0.01786 0.05479
   9   3  -4 6222.56 619.484   3 0.51631 0.12898 0.36513 0.07235 0.88329-0.91992
   9   3  -4 7026.27 612.933  10-0.03657 0.68276 0.34255 0.09472-0.91527 0.87843
  -9   3   3 9162.16 760.240   6 0.14569-0.80597 0.98770-0.55044-0.01785-0.00076
   9   3  -3 9374.88 754.845   3 0.45900 0.20096 0.35320 0.08424 0.90726-0.88836
   9   3  -3 9212.60 698.642  10 0.00412 0.65666 0.40513 0.03215-0.88086 0.89957
  -9   3   2 978.325 258.192   6 0.14364-0.81852 0.98803-0.55076-0.01786-0.05628
   9   3  -2 1126.13 296.690   3 0.40214 0.27248 0.34014 0.09726 0.92585-0.85142
   9   3  -2 923.349 233.178  10 0.04559 0.62978 0.46638-0.02907-0.84018 0.91442
  -9   3   1 2623.81 417.666   6 0.13760-0.82708 0.98898-0.55169-0.01789-0.11179
   9   3  -1 3219.88 467.438   3 0.34677 0.34251 0.32637 0.11099 0.93947-0.80951
   9   3  -1 3194.17 414.599  10 0.08707 0.60289 0.52505-0.08772-0.79373 0.92351
  -9   3   0 4260.69 522.252   6 0.12752-0.83160 0.99047-0.55317-0.01795-0.16727
   9   3   0 4995.05 570.103   3 0.29381 0.41013 0.31232 0.12500 0.94870-0.76321
   9   3   0 4463.29 490.836  10 0.12786 0.57670 0.58011-0.14277-0.74230 0.92762
  -9   3  -1 245.218 168.482   6 0.11334-0.83201 0.99238-0.55507-0.01802-0.22274
   9   3   1 323.687 164.334  10 0.16731 0.55184 0.63079-0.19342-0.68680 0.92765
   9   3   2 3464.46 480.708   1 0.83514-0.10288-0.49649 0.93254-0.01249 0.30845
  -9   3  -2 3019.27 448.697   6 0.09493-0.82820 0.99454-0.55720-0.01811-0.27818
   9   3   2 2637.63 400.567  10 0.20494 0.52880 0.67658-0.23919-0.62822 0.92461
  -9   3  -2 3074.18 448.728   7 0.02931-0.76256 0.72791-0.29149-0.65295 0.35637
  -9   3  -3 2401.06 391.741   7 0.04820-0.79610 0.71329-0.27690-0.66165 0.30952
  -9   3  -3 1973.47 360.022   6 0.07217-0.82003 0.99669-0.55934-0.01821-0.33362
   9   3   3 2277.41 382.197  10 0.24040 0.50793 0.71723-0.27983-0.56751 0.91944
   9   3   3 2813.36 458.405   1 0.84821-0.10139-0.48411 0.92019 0.01182 0.33966
  -9   3  -4 4557.57 542.284   6 0.04485-0.80731 0.99854-0.56117-0.01832-0.38905
   9   3   4 3960.26 503.305  10 0.27348 0.48945 0.75272-0.31530-0.50552 0.91299
  -9   3  -4 3939.98 501.074   7 0.06454-0.82707 0.70019-0.26382-0.66877 0.26110
   9   3   4 4403.55 562.157   1 0.86105-0.09966-0.47088 0.90701 0.03697 0.37002
  -9   3  -5 5155.82 579.743   6 0.01273-0.78979 0.99968-0.56230-0.01843-0.44448
  -9   3  -5 4457.55 593.456   8-0.03085-0.74613 0.36677 0.07050-0.90482 0.44191
   9   3   5 4411.99 543.828  10 0.30406 0.47346 0.78318-0.34573-0.44297 0.90597
   9   3   5 4751.60 615.681   1 0.87350-0.09755-0.45684 0.89301 0.06285 0.39966
  -9   3  -6 3285.73 526.085   8-0.00313-0.78848 0.36288 0.07435-0.89947 0.38105
   9   3   6 3115.05 474.607  10 0.33214 0.45997 0.80883-0.37137-0.38042 0.89896
  -9   3  -7 3748.57 572.227   8 0.01986-0.82610 0.35945 0.07775-0.89450 0.32056
   9   3   7 3420.87 498.028  10 0.35778 0.44893 0.82999-0.39250-0.31832 0.89239
   9   3   8 202.370 146.455  10 0.38106 0.44023 0.84697-0.40946-0.25695 0.88656
  -9   4  12 2970.68 528.292   4 0.45325-0.98223 0.44693 0.13593 0.86334-0.38256
   9   4 -12 2702.02 493.978   7 0.67768-0.14842-0.40504 0.98833-0.41304-0.06753
  -9   4  11 1023.78 340.013   4 0.43079-0.97433 0.45949 0.12335 0.86273-0.43740
  -9   4  11 1085.58 295.454   6 0.10909-0.65254 0.99291-0.40993-0.01804 0.44370
   9   4 -11 1339.48 336.959   7 0.67788-0.13397-0.40729 0.99060-0.41134-0.01368
  -9   4  10 212.678 177.344   4 0.40463-0.96273 0.47352 0.10931 0.86128-0.49141
  -9   4  10 32.0904 126.004   6 0.13862-0.69667 0.98882-0.40582-0.01789 0.38801
   9   4 -10-101.851 115.134   7 0.67780-0.11925-0.40646 0.98980-0.41197 0.04250
  -9   4   9 964.630 304.576   4 0.37460-0.94726 0.48887 0.09395 0.85870-0.54428
  -9   4   9 903.880 270.591   6 0.16363-0.73628 0.98460-0.40158-0.01774 0.33232
   9   4  -9 898.212 258.047   7 0.67742-0.10422-0.40211 0.98548-0.41525 0.10132
  -9   4   8 3849.12 549.071   4 0.34059-0.92781 0.50531 0.07749 0.85464-0.59567
  -9   4   8 3931.55 530.526   6 0.18439-0.77164 0.98056-0.39753-0.01761 0.27665
   9   4  -8 3449.56 476.056   3 0.74218-0.15547 0.39547 0.18784 0.71774-0.97660
   9   4  -8 3153.69 476.750  10-0.14089 0.72867 0.17054 0.41250-0.97791 0.71899
  -9   4   7 2118.41 422.608   4 0.30252-0.90430 0.52259 0.06019 0.84872-0.64520
  -9   4   7 1294.98 336.800   6 0.20110-0.80294 0.97696-0.39391-0.01750 0.22100
   9   4  -7 1012.72 291.774   3 0.69569-0.09432 0.39210 0.19116 0.76408-0.96740
   9   4  -7 1503.76 323.928  10-0.11362 0.71599 0.21716 0.36590-0.96520 0.76181
  -9   4   6 2862.31 462.796   4 0.26038-0.87673 0.54039 0.04238 0.84056-0.69249
  -9   4   6 2815.10 458.484   6 0.21391-0.83035 0.97398-0.39092-0.01741 0.16538
   9   4  -6 2498.38 411.935   3 0.64576-0.02972 0.38652 0.19671 0.80545-0.95324
   9   4  -6 2383.93 412.610  10-0.08413 0.70109 0.26624 0.31683-0.94848 0.80063
  -9   4   5 1903.26 372.251   6 0.22295-0.85399 0.97176-0.38869-0.01734 0.10977
   9   4  -5 1952.32 377.431   3 0.59327 0.03743 0.37890 0.20429 0.84151-0.93378
   9   4  -5 2727.18 439.014  10-0.05265 0.68420 0.31714 0.26596-0.92734 0.83503
  -9   4   4 3952.66 537.016   6 0.22831-0.87394 0.97041-0.38731-0.01730 0.05420
   9   4  -4 4816.29 559.091   3 0.53920 0.10616 0.36952 0.21363 0.87210-0.90883
   9   4  -4 4515.03 547.503  10-0.01951 0.66566 0.36909 0.21403-0.90151 0.86473
  -9   4   3 3036.97 482.494   6 0.23003-0.89025 0.96996-0.38685-0.01729-0.00135
   9   4  -3 2698.77 431.219   3 0.48460 0.17542 0.35869 0.22442 0.89725-0.87845
   9   4  -3 2817.71 438.795  10 0.01487 0.64586 0.42127 0.16187-0.87086 0.88962
  -9   4   2 1100.24 300.092   6 0.22813-0.90296 0.97045-0.38732-0.01730-0.05688
   9   4  -2 1058.87 291.949   3 0.43047 0.24421 0.34679 0.23628 0.91720-0.84287
   9   4  -2 1017.29 271.334  10 0.05006 0.62527 0.47284 0.11032-0.83545 0.90974
  -9   4   1 1752.19 365.570   6 0.22261-0.91203 0.97185-0.38871-0.01735-0.11238
   9   4  -1 1485.82 340.171   3 0.37777 0.31157 0.33421 0.24882 0.93237-0.80251
   9   4  -1 906.815 253.579  10 0.08558 0.60434 0.52298 0.06019-0.79551 0.92534
  -9   4   0-42.5791 140.166   6 0.21342-0.91744 0.97410-0.39094-0.01741-0.16785
   9   4   0 222.353 170.849   3 0.32732 0.37669 0.32131 0.26168 0.94328-0.75789
   9   4   0 433.849 192.666  10 0.12096 0.58356 0.57099 0.01221-0.75141 0.93678
  -9   4  -1 2702.80 456.832   7 0.03866-0.75712 0.72075-0.13858-0.65731 0.41636
  -9   4  -1 3169.75 484.284   6 0.20049-0.91910 0.97710-0.39392-0.01750-0.22330
   9   4   1 3086.55 456.441  10 0.15576 0.56335 0.61622-0.03301-0.70366 0.94456
  -9   4  -2 967.769 292.242   7 0.05802-0.79112 0.70547-0.12332-0.66597 0.36947
  -9   4  -2 828.333 276.281   6 0.18369-0.91691 0.98071-0.39752-0.01761-0.27872
   9   4   2 1063.79 284.809  10 0.18960 0.54410 0.65823-0.07499-0.65280 0.94924
  -9   4  -3 1423.57 352.357   7 0.07510-0.82284 0.69148-0.10936-0.67318 0.32113
  -9   4  -3 2199.23 421.098   6 0.16289-0.91070 0.98473-0.40153-0.01774-0.33413
   9   4   3 1603.59 347.362  10 0.22217 0.52612 0.69665-0.11339-0.59943 0.95141
  -9   4  -4 1072.20 307.571   7 0.08980-0.85219 0.67905-0.09696-0.67905 0.27145
  -9   4  -4 1104.40 295.436   6 0.13788-0.90028 0.98893-0.40571-0.01789-0.38952
   9   4   4 932.623 297.522  10 0.25323 0.50966 0.73129-0.14801-0.54413 0.95164
  -9   4  -5 74.9332 129.466   7 0.10205-0.87909 0.66842-0.08636-0.68371 0.22057
  -9   4  -5 311.636 181.951   6 0.10840-0.88540 0.99300-0.40976-0.01804-0.44490
  -9   4  -5 444.615 247.157   8-0.05616-0.72078 0.37007 0.21308-0.90908 0.44627
   9   4   5 560.906 235.504  10 0.28260 0.49488 0.76206-0.17876-0.48742 0.95048
  -9   4  -6 1574.96 394.405   8-0.02839-0.76318 0.36644 0.21668-0.90438 0.38604
   9   4   6 1336.45 321.061  10 0.31017 0.48190 0.78896-0.20564-0.42980 0.94839
  -9   5   8 831.139 299.180   6 0.23856-0.82575 0.96771-0.23882-0.01723 0.27623
   9   5  -8 1029.49 318.755  10-0.09986 0.68759 0.24024 0.48865-0.95778 0.69890
  -9   5   7 637.486 262.010   4 0.28204-0.88379 0.53142 0.19707 0.84496-0.64140
  -9   5   7 336.214 243.935   6 0.25383-0.85561 0.96347-0.23457-0.01711 0.22057
   9   5  -7 211.830 147.487  10-0.07569 0.67802 0.28003 0.44888-0.94315 0.73981
  -9   5   6 1072.52 328.197   6 0.26552-0.88190 0.96004-0.23112-0.01701 0.16494
  -9   5   6 442.558 240.361   4 0.24216-0.85847 0.54767 0.18080 0.83652-0.68841
   9   5  -6 600.768 239.812  10-0.04982 0.66674 0.32164 0.40728-0.92528 0.77748
  -9   5   5 708.502 269.387   6 0.27375-0.90473 0.95752-0.22858-0.01694 0.10933
   9   5  -5 633.008 267.454  10-0.02241 0.65392 0.36462 0.36433-0.90391 0.81165
  -9   5   4 1239.81 372.944   6 0.27862-0.92419 0.95599-0.22704-0.01690 0.05375
   9   5  -4 1200.64 317.779  10 0.00631 0.63980 0.40843 0.32054-0.87886 0.84213
  -9   5   3 2137.33 440.088   6 0.28016-0.94033 0.95550-0.22653-0.01689-0.00180
   9   5  -3 1765.01 387.852  10 0.03605 0.62465 0.45252 0.27646-0.85004 0.86885
  -9   5   2 2878.52 504.769   6 0.27841-0.95318 0.95606-0.22708-0.01690-0.05732
   9   5  -2 2171.47 416.494  10 0.06652 0.60876 0.49632 0.23269-0.81747 0.89182
  -9   5   1 3915.84 592.299   6 0.27334-0.96270 0.95765-0.22865-0.01695-0.11281
   9   5  -1 3242.13 485.295   3 0.43020 0.25921 0.34673 0.38197 0.91729-0.78753
   9   5  -1 3549.82 539.899  10 0.09741 0.59247 0.53926 0.18977-0.78125 0.91113
  -9   5   0-164.588 132.016   7 0.02668-0.73035 0.72989-0.00197-0.65170 0.46636
  -9   5   0 154.879 149.261   6 0.26491-0.96888 0.96022-0.23120-0.01702-0.16828
   9   5   0-435.254 217.397   3 0.38210 0.32196 0.33527 0.39338 0.93127-0.74598
   9   5   0-76.8367 143.008  10 0.12840 0.57608 0.58082 0.14822-0.74158 0.92700
  -9   5  -1 973.819 324.306   7 0.04634-0.76465 0.71476 0.01314-0.66081 0.41992
  -9   5  -1 1329.74 340.510   6 0.25306-0.97162 0.96369-0.23466-0.01711-0.22373
   9   5   1 555.118 231.123   3 0.33657 0.38216 0.32373 0.40488 0.94153-0.70072
   9   5   1 862.013 305.181  10 0.15916 0.55990 0.62054 0.10852-0.69874 0.93970
   9   5   2 690.013 266.756   3 0.29408 0.43931 0.31239 0.41619 0.94866-0.65232
 -10  -4  11 3738.02 558.008   5-0.05633-0.56547 0.13837-0.72175 0.93913-0.53454
  10  -4 -10 1906.14 421.999   9 0.83946-0.20322-0.34995-0.23321 0.62124-0.97100
 -10  -4  10 1683.19 391.693   5-0.09026-0.54616 0.12156-0.70497 0.92991-0.58083
  10  -4  -9 1797.73 406.324   9 0.82566-0.17483-0.31750-0.26564 0.66654-0.96078
 -10  -4   9 2038.15 416.477   5-0.12704-0.52399 0.10306-0.68649 0.91834-0.62479
  10  -4  -8 814.123 285.822   9 0.80874-0.14332-0.28390-0.29923 0.70923-0.94793
 -10  -4   8 944.108 302.780   5-0.16641-0.49923 0.08295-0.66640 0.90415-0.66611
  10  -4  -7 3418.61 553.460   9 0.78889-0.10887-0.24944-0.33367 0.74897-0.93215
 -10  -4   7 2347.23 452.169   5-0.20803-0.47222 0.06132-0.64480 0.88705-0.70453
  10  -4  -6 2027.11 430.088   9 0.76635-0.07174-0.21445-0.36864 0.78549-0.91315
 -10  -4   6 2346.90 438.526   5-0.25147-0.44339 0.03834-0.62184 0.86684-0.73984
  10  -4  -5 2498.05 458.514   9 0.74147-0.03227-0.17931-0.40376 0.81857-0.89070
 -10  -4   5 2057.34 401.892   5-0.29626-0.41321 0.01418-0.59770 0.84337-0.77189
  10  -4  -4 3122.32 520.622   9 0.71465 0.00914-0.14439-0.43866 0.84806-0.86467
 -10  -4   4 1575.53 364.132   5-0.34190-0.38218-0.01093-0.57261 0.81657-0.80061
  10  -4  -3 1281.05 329.634   9 0.68636 0.05203-0.11008-0.47296 0.87392-0.83501
 -10  -4   3 784.669 272.894   5-0.38784-0.35085-0.03676-0.54681 0.78645-0.82601
  10  -4  -2 5119.40 661.282   9 0.65709 0.09589-0.07675-0.50627 0.89617-0.80174
 -10  -4   2 5239.69 639.213   5-0.43357-0.31974-0.06305-0.52054 0.75312-0.84819
  10  -4  -1 5086.55 645.722   9 0.62738 0.14019-0.04474-0.53826 0.91496-0.76500
 -10  -4   1 4356.73 596.460   5-0.47856-0.28935-0.08954-0.49408 0.71674-0.86733
  10  -4   0 984.025 307.756   9 0.59773 0.18444-0.01435-0.56863 0.93048-0.72500
 -10  -4   0 401.728 228.242   5-0.52237-0.26015-0.11599-0.46765 0.67754-0.88365
  10  -4   1 164.073 151.850   9 0.56864 0.22812 0.01418-0.59714 0.94301-0.68200
 -10  -4  -1 761.860 277.531   5-0.56458-0.23256-0.14216-0.44150 0.63581-0.89743
  10  -4   2 413.217 213.639   9 0.54055 0.27080 0.04064-0.62358 0.95288-0.63635
 -10  -4  -3 876.437 270.227   2-0.29263-0.53260-0.22698-0.35513-0.97329 0.60079
  10  -3 -13 3260.07 558.024   9 0.86087-0.26832-0.43264-0.00470 0.48369-0.99997
 -10  -3  13 2947.08 517.009   5 0.11167-0.70419 0.21814-0.65566 0.96480-0.44911
  10  -3 -12 1367.81 340.855   9 0.85560-0.24845-0.40220-0.03512 0.53853-0.99929
 -10  -3  12 936.332 310.764   5 0.08342-0.69055 0.20513-0.64267 0.96282-0.50265
  10  -3 -11 550.757 267.753   9 0.84646-0.22472-0.36955-0.06776 0.59174-0.99697
 -10  -3  11 355.508 227.854   5 0.05147-0.67321 0.19022-0.62779 0.95944-0.55478
  10  -3 -10 565.471 236.033   9 0.83337-0.19703-0.33485-0.10244 0.64286-0.99257
 -10  -3  10 739.864 269.428   5 0.01587-0.65222 0.17336-0.61095 0.95425-0.60511
  10  -3  -9 1192.87 331.788   9 0.81632-0.16539-0.29833-0.13894 0.69139-0.98557
 -10  -3   9 591.452 241.889   5-0.02326-0.62770 0.15453-0.59214 0.94682-0.65320
  10  -3  -8 2956.37 494.269   9 0.79542-0.12990-0.26032-0.17693 0.73684-0.97550
 -10  -3   8 3054.15 477.359   5-0.06570-0.59987 0.13375-0.57139 0.93672-0.69862
  10  -3  -7 2351.49 437.144   9 0.77087-0.09076-0.22119-0.21604 0.77874-0.96188
 -10  -3   7 2676.55 435.339   5-0.11113-0.56905 0.11110-0.54875 0.92355-0.74096
  10  -3  -6 1289.24 334.742   9 0.74301-0.04830-0.18139-0.25582 0.81670-0.94432
 -10  -3   6 1716.82 356.533   5-0.15912-0.53567 0.08670-0.52438 0.90692-0.77986
  10  -3  -5 3154.90 497.686   9 0.71229-0.00299-0.14143-0.29577 0.85041-0.92250
 -10  -3   5 3222.30 476.208   5-0.20915-0.50026 0.06074-0.49844 0.88656-0.81502
  10  -3  -4 6395.39 688.022   9 0.67926 0.04463-0.10181-0.33536 0.87969-0.89626
 -10  -3   4 7414.86 718.778   5-0.26059-0.46342 0.03346-0.47118 0.86228-0.84626
  10  -3  -3 1076.60 290.611   9 0.64459 0.09389-0.06307-0.37409 0.90450-0.86555
 -10  -3   3 812.869 262.942   5-0.31281-0.42582 0.00514-0.44288 0.83400-0.87349
  10  -3  -2 1264.65 316.198   9 0.60896 0.14412-0.02569-0.41145 0.92495-0.83047
 -10  -3   2 749.046 265.027   5-0.36511-0.38813-0.02391-0.41386 0.80177-0.89678
  10  -3  -1 604.597 230.140   9 0.57307 0.19460 0.00991-0.44703 0.94126-0.79126
 -10  -3   1 433.640 214.055   5-0.41682-0.35103-0.05335-0.38445 0.76574-0.91627
 -10  -3   0 3351.30 492.892   2-0.38473-0.39678-0.22897-0.20742-0.96399 0.75818
 -10  -3   0 4402.89 573.159   5-0.46731-0.31514-0.08285-0.35496 0.72619-0.93223
  10  -3   0 3670.15 529.372   9 0.53760 0.24466 0.04336-0.48047 0.95380-0.74827
 -10  -3  -1 4823.37 616.091   5-0.51605-0.28102-0.11212-0.32572 0.68345-0.94501
 -10  -3  -1 4704.87 577.931   2-0.33287-0.46324-0.22811-0.20831-0.97042 0.70907
  10  -3   1 5242.42 646.872   9 0.50318 0.29367 0.07440-0.51148 0.96299-0.70194
  10  -3   2 949.643 300.991   9 0.47035 0.34110 0.10283-0.53990 0.96932-0.65275
 -10  -3  -2 1301.85 326.388   2-0.28480-0.52591-0.22671-0.20975-0.97364 0.65676
 -10  -3  -2 1152.10 328.536   5-0.56254-0.24914-0.14088-0.29699 0.63792-0.95500
 -10  -3  -3 4701.14 595.971   2-0.24095-0.58437-0.22495-0.21154-0.97438 0.60197
  10  -3   3 5066.84 651.633   1 0.32813 0.49823-0.65866 0.22055-0.56855 0.93991
  10  -3   3 4101.69 592.202   9 0.43955 0.38649 0.12856-0.56561 0.97330-0.60120
  10  -3   4 859.696 284.283   9 0.41113 0.42951 0.15156-0.58859 0.97541-0.54779
 -10  -3  -4 923.253 320.434   2-0.20155-0.63837-0.22299-0.21353-0.97333 0.54539
  10  -3   4 1523.94 402.384   1 0.38567 0.45525-0.65675 0.21868-0.52548 0.95236
  10  -3   5 284.716 174.732   9 0.38533 0.46990 0.17185-0.60886 0.97611-0.49296
  10  -3   5 384.853 240.533   1 0.44175 0.41374-0.65209 0.21406-0.48011 0.96251
 -10  -3  -5-81.6644 178.695   2-0.16670-0.68782-0.22097-0.21558-0.97109 0.48761
 -10  -3  -6 160.083 189.755   2-0.13639-0.73273-0.21900-0.21759-0.96816 0.42915
  10  -3   6 639.480 296.123   1 0.49599 0.37405-0.64471 0.20672-0.43273 0.97064
  10  -2 -15 2029.99 434.459   9 0.85886-0.29539-0.49490 0.20340 0.35094-0.97822
  10  -2 -14 62.0678 118.700   9 0.86219-0.28413-0.46807 0.17659 0.41211-0.98387
 -10  -2  14-65.8783 158.024   5 0.22860-0.80644 0.27017-0.56185 0.96258-0.39131
  10  -2 -14 178.891 186.219   7 0.49208 0.08529-0.86782 0.57676 0.18968-0.76115
  10  -2 -13 543.356 234.103   9 0.86146-0.26881-0.43831 0.14685 0.47283-0.98907
 -10  -2  13 502.376 249.009   5 0.20448-0.79694 0.25968-0.55138 0.96444-0.44869
  10  -2 -13 397.660 225.027   7 0.46834 0.12367-0.87688 0.58586 0.22402-0.73994
  10  -2 -12 1240.02 306.066   9 0.85636-0.24911-0.40562 0.11417 0.53264-0.99335
 -10  -2  12 1146.70 320.766   5 0.17634-0.78341 0.24729-0.53901 0.96568-0.50544
  10  -2 -11 339.720 193.580   9 0.84663-0.22479-0.37005 0.07862 0.59096-0.99614
 -10  -2  11 808.765 302.170   5 0.14404-0.76572 0.23284-0.52458 0.96588-0.56116
  10  -2 -10 1738.35 361.164   9 0.83205-0.19562-0.33177 0.04036 0.64714-0.99680
 -10  -2  10 2150.08 413.768   5 0.10751-0.74379 0.21623-0.50800 0.96456-0.61537
  10  -2  -9 2506.31 416.054   9 0.81255-0.16152-0.29104-0.00035 0.70049-0.99463
 -10  -2   9 2351.94 421.739   5 0.06675-0.71764 0.19738-0.48917 0.96121-0.66753
  10  -2  -8 7515.11 702.172   9 0.78816-0.12254-0.24824-0.04313 0.75027-0.98889
 -10  -2   8 6787.53 679.483   5 0.02189-0.68740 0.17623-0.46805 0.95523-0.71707
  10  -2  -7 1478.96 313.983   9 0.75911-0.07890-0.20389-0.08746 0.79579-0.97888
 -10  -2   7 1366.62 329.871   5-0.02680-0.65332 0.15281-0.44465 0.94606-0.76342
  10  -2  -6 1961.79 367.717   9 0.72582-0.03101-0.15860-0.13273 0.83645-0.96401
 -10  -2   6 1971.87 377.371   5-0.07890-0.61583 0.12721-0.41907 0.93315-0.80603
  10  -2  -5 3700.98 490.665   9 0.68890 0.02050-0.11307-0.17825 0.87178-0.94382
 -10  -2   5 3263.01 462.967   5-0.13386-0.57548 0.09960-0.39148 0.91602-0.84442
  10  -2  -4 4007.88 512.890   9 0.64915 0.07484-0.06802-0.22328 0.90154-0.91806
  10  -2  -4 4986.52 492.797   3 0.76279-0.03963 0.39625-0.68708 0.69420-0.70966
 -10  -2   4 5071.22 567.120   5-0.19097-0.53298 0.07023-0.36214 0.89432-0.87824
  10  -2  -3 5733.06 601.193   9 0.60747 0.13111-0.02417-0.26711 0.92570-0.88670
  10  -2  -3 6432.18 552.418   3 0.72297 0.01486 0.39432-0.68519 0.73794-0.69787
 -10  -2   3 6369.42 641.460   5-0.24942-0.48914 0.03943-0.33136 0.86785-0.90728
  10  -2  -2 1360.10 315.059   9 0.56484 0.18833 0.01781-0.30908 0.94447-0.84994
 -10  -2   2 1030.39 277.400   5-0.30835-0.44482 0.00758-0.29953 0.83656-0.93152
  10  -2  -1 1477.79 324.449   9 0.52223 0.24553 0.05738-0.34863 0.95824-0.80819
 -10  -2   1 1340.36 304.485   5-0.36687-0.40091-0.02490-0.26707 0.80060-0.95107
 -10  -2   1 2079.65 367.436   2-0.41506-0.35194-0.22915-0.06159-0.95873 0.80854
  10  -2   0 876.130 274.900   9 0.48055 0.30181 0.09411-0.38534 0.96760-0.76202
 -10  -2   0 974.337 289.668   2-0.35978-0.42181-0.22864-0.06213-0.96748 0.76175
 -10  -2   0 1459.17 345.240   5-0.42416-0.35824-0.05759-0.23441 0.76027-0.96626
 -10  -2  -1 4083.22 526.490   5-0.47945-0.31755-0.09007-0.20195 0.71598-0.97749
 -10  -2  -1 5408.24 602.635   2-0.30774-0.48846-0.22745-0.06336-0.97242 0.71116
  10  -2   1 3758.34 512.625   9 0.44059 0.35637 0.12771-0.41892 0.97320-0.71210
  10  -2   2 725.406 270.855   9 0.40297 0.40857 0.15803-0.44922 0.97575-0.65913
 -10  -2  -2 620.632 260.593   2-0.25956-0.55124-0.22575-0.06509-0.97431 0.65752
  10  -2   2 1172.50 338.057   1 0.31894 0.49263-0.65871 0.36624-0.57512 0.89107
 -10  -2  -2 486.712 215.906   5-0.53213-0.27949-0.12197-0.17007 0.66826-0.98528
  10  -2   3 2777.94 471.587   9 0.36819 0.45794 0.18503-0.47620 0.97597-0.60382
 -10  -2  -3 3725.94 525.929   2-0.21566-0.60974-0.22374-0.06714-0.97389 0.60157
  10  -2   3 3806.37 548.662   1 0.37576 0.45037-0.65728 0.36484-0.53314 0.90461
  10  -2   4 1225.40 337.897   9 0.33659 0.50414 0.20876-0.49991 0.97448-0.54681
 -10  -2  -4 1068.47 312.428   2-0.17630-0.66370-0.22156-0.06935-0.97183 0.54397
  10  -2   4 1198.19 347.879   1 0.43096 0.40973-0.65321 0.36082-0.48911 0.91609
  10  -2   5 3519.77 543.560   9 0.30836 0.54697 0.22934-0.52047 0.97188-0.48869
 -10  -2  -5 3287.59 514.952   2-0.14156-0.71305-0.21935-0.07159-0.96872 0.48533
  10  -2   5 4237.45 616.181   1 0.48420 0.37106-0.64657 0.35422-0.44334 0.92584
  10  -2   6 7245.47 800.529   1 0.53519 0.33463-0.63743 0.34512-0.39612 0.93414
 -10  -2  -6 7379.69 779.745   2-0.11140-0.75780-0.21723-0.07375-0.96506 0.42614
  10  -2   6 6096.53 729.252   9 0.28359 0.58633 0.24693-0.53805 0.96865-0.42993
  10  -2   7 3583.82 558.652   9 0.26230 0.62221 0.26174-0.55284 0.96518-0.37094
  10  -2   7 2845.22 542.730   1 0.58373 0.30065-0.62589 0.33362-0.34773 0.94126
 -10  -2  -7 2855.73 513.375   2-0.08573-0.79808-0.21526-0.07575-0.96125 0.36679
 -10  -1  15 4412.57 633.228   5 0.32257-0.88573 0.30975-0.45558 0.94793-0.32108
  10  -1 -15 4122.24 624.324   7 0.55889 0.00398-0.82565 0.68030 0.07885-0.70579
  10  -1 -14 1415.66 335.484   9 0.86011-0.28195-0.48817 0.34256 0.36696-0.93867
 -10  -1  14 1990.33 404.803   5 0.30327-0.88105 0.30180-0.44765 0.95193-0.38061
  10  -1 -14 1140.96 372.705   7 0.54064 0.03687-0.84011 0.69478 0.11163-0.68302
  10  -1 -13 2140.53 389.315   9 0.86241-0.26966-0.45799 0.31240 0.43343-0.94962
 -10  -1  13 1842.58 391.316   5 0.27992-0.87231 0.29205-0.43793 0.95608-0.44027
  10  -1 -13 2373.04 446.391   7 0.52150 0.07066-0.85270 0.70740 0.14382-0.65967
  10  -1 -12 1996.48 372.209   9 0.85974-0.25240-0.42407 0.27850 0.49968-0.96035
 -10  -1  12 1763.78 372.587   5 0.25225-0.85925 0.28033-0.42623 0.96002-0.49973
  10  -1 -12 1748.74 391.365   7 0.50153 0.10527-0.86347 0.71820 0.17538-0.63568
  10  -1 -11 82.3514 125.680   9 0.85158-0.22965-0.38636 0.24081 0.56501-0.97014
 -10  -1  11 235.452 196.856   5 0.21999-0.84160 0.26644-0.41237 0.96333-0.55856
  10  -1 -11 68.7227 152.812   7 0.48081 0.14063-0.87244 0.72720 0.20625-0.61100
  10  -1 -10-26.3139 95.1367   9 0.83751-0.20098-0.34494 0.19940 0.62852-0.97813
 -10  -1  10-43.9410 142.361   5 0.18293-0.81915 0.25020-0.39615 0.96548-0.61622
  10  -1 -10 131.091 164.302   7 0.45944 0.17665-0.87965 0.73443 0.23635-0.58556
  10  -1  -9 479.521 200.568   9 0.81719-0.16607-0.30006 0.15454 0.68921-0.98330
 -10  -1   9 911.798 264.080   5 0.14094-0.79177 0.23144-0.37741 0.96583-0.67209
  10  -1  -8 1183.01 267.259   9 0.79054-0.12483-0.25216 0.10666 0.74597-0.98453
 -10  -1   8 1152.48 298.159   5 0.09404-0.75948 0.21004-0.35603 0.96367-0.72545
  10  -1  -7 6330.72 594.333   9 0.75772-0.07741-0.20190 0.05642 0.79770-0.98074
 -10  -1   7 6580.73 641.297   5 0.04238-0.72243 0.18594-0.33196 0.95825-0.77555
  10  -1  -6 2111.85 341.780   9 0.71922-0.02432-0.15015 0.00468 0.84342-0.97094
  10  -1  -6 2223.86 360.764   3 0.75897-0.06506 0.39615-0.54123 0.69873-0.82535
 -10  -1   6 1402.55 302.342   5-0.01366-0.68100 0.15918-0.30522 0.94881-0.82162
  10  -1  -5 7286.15 629.279   9 0.67586 0.03364-0.09789-0.04756 0.88238-0.95437
  10  -1  -5 7397.30 627.659   3 0.71771-0.00914 0.39395-0.53907 0.74320-0.81430
 -10  -1   5 7778.64 673.759   5-0.07352-0.63576 0.12989-0.27595 0.93463-0.86297
  10  -1  -4 3513.05 439.731   9 0.62877 0.09532-0.04620-0.09923 0.91415-0.93062
  10  -1  -4 2753.01 388.204   3 0.67269 0.05054 0.38975-0.53492 0.78410-0.79966
 -10  -1   4 2628.16 398.077   5-0.13638-0.58750 0.09832-0.24441 0.91515-0.89900
  10  -1  -3 7791.20 654.635   9 0.57927 0.15941 0.00389-0.14930 0.93872-0.89966
  10  -1  -3 8254.05 655.370   3 0.62456 0.11333 0.38364-0.52884 0.82085-0.78088
 -10  -1   3 8340.08 688.313   5-0.20127-0.53722 0.06486-0.21097 0.88998-0.92935
 -10  -1   2 3898.93 481.314   5-0.26710-0.48601 0.02996-0.17609 0.85896-0.95385
  10  -1  -2 4806.00 499.636   3 0.57418 0.17837 0.37575-0.52099 0.85301-0.75752
  10  -1  -2 3516.17 453.157   9 0.52878 0.22449 0.05144-0.19683 0.95642-0.86184
  10  -1  -1 222.985 145.278   9 0.47868 0.28919 0.09573-0.24110 0.96793-0.81783
 -10  -1   1 65.8268 122.391   5-0.33270-0.43501-0.00583-0.14032 0.82222-0.97262
  10  -1  -1-91.7735 126.618   3 0.52254 0.24467 0.36635-0.51163 0.88034-0.72932
 -10  -1   1-29.1703 145.729   2-0.41712-0.34996-0.22915 0.08402-0.95833 0.80823
  10  -1   0 1774.06 336.679   9 0.43017 0.35229 0.13623-0.28158 0.97416-0.76853
 -10  -1   0 1847.89 375.484   2-0.36177-0.41992-0.22868 0.08351-0.96723 0.76159
 -10  -1   0 1332.19 309.303   5-0.39697-0.38536-0.04196-0.10422 0.78008-0.98601
  10  -1   0 1746.84 314.804   3 0.47075 0.31113 0.35575-0.50107 0.90280-0.69624
 -10  -1  -1 4797.56 542.682   5-0.45889-0.33805-0.07787-0.06833 0.73311-0.99455
  10  -1   1 6881.35 618.442   3 0.41988 0.37665 0.34434-0.48970 0.92057-0.65849
 -10  -1  -1 7027.45 675.075   2-0.30950-0.48679-0.22750 0.08230-0.97230 0.71113
  10  -1   1 6465.93 661.457   1 0.33847 0.45831-0.65852 0.51169-0.56105 0.82159
  10  -1   1 5737.07 597.054   9 0.38427 0.41278 0.17267-0.31801 0.97611-0.71497
 -10  -1  -2 6747.66 643.172   5-0.51762-0.29393-0.11308-0.03314 0.68198-0.99895
  10  -1   2 8332.10 676.329   3 0.37098 0.44022 0.33252-0.47792 0.93403-0.61642
  10  -1   2 8162.36 761.749   1 0.39329 0.41806-0.65628 0.50949-0.51952 0.83557
 -10  -1  -2 7531.17 710.499   2-0.26099-0.54990-0.22581 0.08058-0.97429 0.65759
  10  -1   2 7481.18 700.210   9 0.34171 0.46993 0.20496-0.35028 0.97483-0.65816
  10  -1   3 2862.21 448.470   9 0.30300 0.52323 0.23318-0.37848 0.97126-0.59906
  10  -1   3 3018.61 482.845   1 0.44625 0.37966-0.65159 0.50484-0.47631 0.84788
 -10  -1  -3 2954.13 465.250   2-0.21670-0.60878-0.22379 0.07852-0.97393 0.60169
  10  -1   3 3227.47 431.249   3 0.32490 0.50095 0.32067-0.46611 0.94372-0.57057
  10  -1   4 1487.02 338.322   9 0.26842 0.57240 0.25751-0.40279 0.96625-0.53853
 -10  -1  -4 1422.25 348.040   2-0.17692-0.66316-0.22159 0.07630-0.97188 0.54411
  10  -1   4 1703.09 389.495   1 0.49708 0.34340-0.64453 0.49782-0.43174 0.85883
  10  -1   5 305.722 164.814   9 0.23808 0.61734 0.27821-0.42347 0.96049-0.47725
 -10  -1  -5 492.661 257.964   2-0.14177-0.71292-0.21937 0.07404-0.96875 0.48544
  10  -1   5 580.032 273.179   1 0.54555 0.30949-0.63521 0.48854-0.38609 0.86870
  10  -1   6 748.031 294.671   1 0.59153 0.27807-0.62375 0.47712-0.33961 0.87773
 -10  -1  -6 478.545 248.806   2-0.11124-0.75805-0.21721 0.07185-0.96504 0.42621
 -10  -1  -7 9.48810 174.797   2-0.08523-0.79866-0.21522 0.06983-0.96117 0.36680
  10  -1   7-74.7170 205.872   1 0.63491 0.24925-0.61027 0.46368-0.29251 0.88615
 -10  -1  -8 184.404 143.611   2-0.06359-0.83490-0.21346 0.06803-0.95745 0.30755
  10  -1   8 107.978 192.225   1 0.67566 0.22307-0.59489 0.44833-0.24497 0.89412
 -10   0  16 23.6906 112.754   5 0.39285-0.94134 0.33791-0.33790 0.92868-0.24625
  10   0 -16-385.050 221.023   7 0.61518-0.06681-0.75919 0.75953-0.04092-0.64150
 -10   0  15 821.621 293.460   5 0.37831-0.94141 0.33219-0.33220 0.93328-0.30638
  10   0 -15 1141.85 343.155   7 0.60288-0.03986-0.77745 0.77782-0.01155-0.61531
 -10   0  14 322.848 191.875   5 0.35991-0.93762 0.32488-0.32491 0.93864-0.36725
  10   0 -14 253.337 189.176   7 0.58984-0.01218-0.79415 0.79455 0.01729-0.58862
 -10   0  13 588.664 245.255   5 0.33730-0.92962 0.31576-0.31582 0.94451-0.42864
  10   0 -13 385.241 213.685   7 0.57615 0.01616-0.80933 0.80976 0.04559-0.56136
 -10   0  12 898.295 290.016   5 0.31008-0.91701 0.30461-0.30469 0.95058-0.49023
  10   0 -12 549.155 239.952   7 0.56186 0.04508-0.82304 0.82349 0.07329-0.53351
 -10   0  11 1102.78 297.774   5 0.27786-0.89940 0.29118-0.29128 0.95641-0.55157
  10   0 -11 504.417 225.398   7 0.54708 0.07451-0.83530 0.83579 0.10032-0.50500
 -10   0  10 13591.0 926.881   5 0.24029-0.87644 0.27521-0.27534 0.96141-0.61209
  10   0 -10 14824.8 1003.43   7 0.53187 0.10436-0.84617 0.84668 0.12663-0.47576
 -10   0   9 2518.04 422.830   5 0.19709-0.84785 0.25644-0.25659 0.96486-0.67106
  10   0  -9 2856.98 440.914   7 0.51636 0.13451-0.85568 0.85622 0.15212-0.44570
  10   0  -8 3456.96 408.205   9 0.80627-0.14045-0.27936 0.27973 0.71469-0.95321
 -10   0   8 3170.65 440.534   5 0.14809-0.81347 0.23466-0.23484 0.96592-0.72764
  10   0  -8 2591.03 405.637   7 0.50066 0.16486-0.86388 0.86445 0.17671-0.41475
  10   0  -7 10023.9 680.795   9 0.77175-0.09134-0.22251 0.22291 0.77740-0.96039
 -10   0   7 9901.35 733.639   6-0.39460-0.28571 0.91436-0.91478-0.01803 0.20113
  10   0  -7 8902.72 712.172   3 0.74191-0.06260 0.39545-0.39483 0.71804-0.90031
 -10   0   7 8775.27 707.233   5 0.09334-0.77332 0.20972-0.20991 0.96362-0.78086
  10   0  -7 9516.11 734.260   7 0.48491 0.19525-0.87083 0.87142 0.20028-0.38277
 -10   0   6-101.204 125.629   6-0.38232-0.31259 0.91989-0.92029-0.01809 0.14566
  10   0  -6 42.8637 93.5696   9 0.72916-0.03416-0.16295 0.16336 0.83279-0.96026
  10   0  -6 47.1759 119.004   3 0.69847-0.00450 0.39236-0.39177 0.76154-0.88827
 -10   0   6 87.9700 160.798   5 0.03311-0.72770 0.18156-0.18178 0.95695-0.82970
  10   0  -6 50.2765 117.362   7 0.46927 0.22554-0.87657 0.87720 0.22271-0.34966
  10   0  -5 8119.00 611.947   9 0.67956 0.03003-0.10215 0.10258 0.87946-0.95141
 -10   0   5 7842.80 654.200   6-0.37397-0.33554 0.92353-0.92391-0.01814 0.09017
  10   0  -5 7889.37 665.019   3 0.65142 0.05721 0.38724-0.38669 0.80113-0.87234
 -10   0   5 8669.42 681.128   5-0.03202-0.67719 0.15027-0.15051 0.94491-0.87318
  10   0  -5 8506.07 665.101   7 0.45393 0.25553-0.88120 0.88185 0.24385-0.31525
  10   0  -4 12371.8 752.582   9 0.62455 0.09963-0.04177 0.04222 0.91657-0.93299
 -10   0   4 11742.6 802.237   6-0.36955-0.35456 0.92542-0.92579-0.01816 0.03465
  10   0  -4 12693.2 826.329   3 0.60145 0.12185 0.38019-0.37968 0.83634-0.85201
 -10   0   4 11839.9 785.249   5-0.10114-0.62267 0.11612-0.11638 0.92665-0.91045
  10   0  -3-14.7852 98.0496   9 0.56616 0.17262 0.01656-0.01609 0.94397-0.90487
 -10   0   3 59.5710 110.828   6-0.36906-0.36964 0.92563-0.92598-0.01816-0.02089
  10   0  -3-375.073 191.795   3 0.54940 0.18856 0.37139-0.37093 0.86679-0.82693
 -10   0   3-154.276 132.580   5-0.17307-0.56535 0.07951-0.07980 0.90156-0.94087
 -10   0   2 2304.00 364.003   6-0.37251-0.38079 0.92416-0.92449-0.01814-0.07644
 -10   0   2 2272.40 353.181   5-0.24639-0.50665 0.04105-0.04136 0.86933-0.96416
  10   0  -2 1979.49 340.394   3 0.49627 0.25634 0.36111-0.36068 0.89231-0.79692
  10   0  -2 2298.70 338.892   9 0.50651 0.24686 0.07145-0.07097 0.96222-0.86759
 -10   0   1 9538.85 718.664   6-0.37991-0.38799 0.92096-0.92127-0.01811-0.13202
 -10   0   1 9153.31 688.915   5-0.31958-0.44807 0.00142-0.00175 0.83005-0.98040
  10   0  -1 9162.30 714.609   3 0.44311 0.32416 0.34967-0.34928 0.91295-0.76203
  10   0  -1 9162.34 737.802   1 0.33858 0.42886-0.65852 0.65728-0.56097 0.71058
  10   0  -1 10331.8 723.212   9 0.44765 0.32031 0.12188-0.12138 0.97243-0.82228
 -10   0   0 8532.33 678.527   6-0.39125-0.39125 0.91590-0.91620-0.01805-0.18761
 -10   0   0 8539.44 671.432   5-0.39113-0.39113-0.03863 0.03827 0.78417-0.99004
  10   0   0 8849.74 712.234   3 0.39097 0.39097 0.33744-0.33710 0.92894-0.72249
  10   0   0 8460.78 719.297   1 0.39100 0.39100-0.65643 0.65523-0.52131 0.72644
 -10   0   0 8876.69 735.753   2-0.39088-0.39088-0.22903 0.22948-0.96302 0.75747
  10   0   0 9238.05 697.020   9 0.39128 0.39128 0.16722-0.16669 0.97605-0.77038
  10   0   1 783.015 227.345   9 0.33869 0.45846 0.20720-0.20666 0.97463-0.71343
 -10   0  -1 504.909 209.717   2-0.33856-0.45781-0.22824 0.22866-0.96987 0.70879
  10   0   1 699.242 261.915   1 0.44163 0.35494-0.65210 0.65095-0.48021 0.74085
 -10   0  -1 209.863 137.238   5-0.45969-0.33718-0.07835 0.07797 0.73245-0.99383
  10   0   1 251.262 162.265   3 0.34080 0.45580 0.32483-0.32452 0.94069-0.67871
 -10   0  -2 7832.15 654.432   5-0.52416-0.28732-0.11708 0.11668 0.67585-0.99275
  10   0   2 7458.44 674.699   3 0.29342 0.51784 0.31221-0.31194 0.94876-0.63125
  10   0   2 6685.12 676.155   1 0.49019 0.32093-0.64564 0.64453-0.43797 0.75412
 -10   0  -2 7917.66 711.650   2-0.28968-0.52129-0.22688 0.22726-0.97343 0.65681
  10   0   2 7290.37 655.993   9 0.29074 0.52100 0.24190-0.24134 0.96967-0.65295
  10   0   3 159.013 122.791   9 0.24791 0.57842 0.27157-0.27099 0.96249-0.59025
 -10   0  -3 243.885 185.757   2-0.24479-0.58078-0.22512 0.22547-0.97440 0.60225
  10   0   3-128.815 200.838   1 0.53652 0.28917-0.63715 0.63608-0.39485 0.76652
  10   0   4 805.616 285.105   1 0.58048 0.25977-0.62676 0.62572-0.35109 0.77828
 -10   0  -4 782.996 266.205   2-0.20425-0.63592-0.22314 0.22346-0.97346 0.54577
  10   0   5 1697.88 405.275   1 0.62201 0.23280-0.61458 0.61358-0.30688 0.78958
 -10   0  -5 1534.68 358.396   2-0.16824-0.68653-0.22107 0.22135-0.97122 0.48800
 -10   0  -6 876.571 317.109   2-0.13683-0.73254-0.21903 0.21928-0.96821 0.42946
  10   0   6 1329.18 367.980   1 0.66108 0.20830-0.60072 0.59977-0.26238 0.80060
 -10   0  -7 1350.52 364.272   2-0.10996-0.77401-0.21712 0.21734-0.96487 0.37059
  10   0   7 1021.44 328.882   1 0.69769 0.18625-0.58530 0.58439-0.21772 0.81146
 -10   0  -8 601.216 300.022   2-0.08750-0.81107-0.21540 0.21559-0.96153 0.31172
  10   0   8 326.635 298.882   1 0.73187 0.16663-0.56841 0.56753-0.17299 0.82225
 -10   1  16 624.873 252.335   5 0.42982-0.97824 0.35218-0.20634 0.91539-0.23291
 -10   1  15 4244.70 600.218   5 0.41593-0.97896 0.34686-0.20105 0.92065-0.29368
  10   1 -15 4516.71 638.077   7 0.64107-0.07791-0.70924 0.85535-0.11253-0.51426
 -10   1  14 1266.40 326.745   5 0.39807-0.97571 0.33995-0.19416 0.92694-0.35549
  10   1 -14 1945.37 433.337   7 0.63320-0.05539-0.72654 0.87267-0.08895-0.48230
 -10   1  13 1657.19 332.412   4 0.33413-0.92684 0.50833-0.36260 0.85374-0.33815
 -10   1  13 1656.76 346.007   5 0.37580-0.96805 0.33120-0.18544 0.93405-0.41811
  10   1 -13 2422.23 453.926   7 0.62496-0.03251-0.74248 0.88864-0.06613-0.44957
 -10   1  12 2189.16 387.121   4 0.30685-0.91413 0.52069-0.37497 0.84947-0.38933
 -10   1  12 2020.10 345.242   6-0.35532-0.25195 0.93132-0.78596-0.01822 0.47898
 -10   1  12 1903.48 376.418   5 0.34862-0.95549 0.32034-0.17460 0.94167-0.48125
  10   1 -12 1672.00 376.974   7 0.61647-0.00938-0.75710 0.90328-0.04415-0.41601
 -10   1  11 108.577 112.201   4 0.27526-0.89709 0.53427-0.38856 0.84363-0.43895
 -10   1  11 306.112 152.297   6-0.32096-0.30092 0.94447-0.79909-0.01837 0.42358
 -10   1  11 107.640 149.602   5 0.31602-0.93749 0.30706-0.16134 0.94935-0.54445
  10   1 -11-99.3656 146.889   7 0.60783 0.01391-0.77042 0.91663-0.02310-0.38151
 -10   1  10 568.920 189.030   6-0.29103-0.34544 0.95468-0.80929-0.01847 0.36815
 -10   1  10 330.325 157.125   5 0.27747-0.91355 0.29102-0.14532 0.95647-0.60709
 -10   1  10 23.8781 101.357   4 0.23936-0.87576 0.54877-0.40308 0.83587-0.48664
  10   1 -10 277.116 160.361   7 0.59916 0.03722-0.78247 0.92870-0.00311-0.34596
 -10   1   9 649.036 220.873   6-0.26546-0.38561 0.96254-0.81712-0.01854 0.31268
 -10   1   9 570.052 195.192   5 0.23251-0.88320 0.27186-0.12619 0.96221-0.66835
  10   1  -9 947.978 269.585   7 0.59059 0.06043-0.79325 0.93952 0.01569-0.30921
 -10   1   8 727.638 233.347   6-0.24416-0.42151 0.96847-0.82304-0.01858 0.25719
  10   1  -8 952.687 269.564   3 0.74553-0.08082 0.39563-0.24929 0.71405-0.95195
 -10   1   8 903.228 246.756   5 0.18079-0.84609 0.24925-0.10361 0.96555-0.72721
  10   1  -8 778.698 223.648   7 0.58229 0.08338-0.80279 0.94908 0.03313-0.27110
 -10   1   7 6661.81 621.546   6-0.22707-0.45319 0.97284-0.82740-0.01862 0.20168
  10   1  -7 6515.01 627.713   3 0.70230-0.02292 0.39270-0.24640 0.75800-0.94037
 -10   1   7 6754.23 601.544   5 0.12217-0.80208 0.22293-0.07731 0.96529-0.78246
  10   1  -7 6527.57 607.619   7 0.57444 0.10587-0.81107 0.95739 0.04899-0.23141
 -10   1   6 1466.33 306.078   6-0.21416-0.48069 0.97592-0.83046-0.01864 0.14616
  10   1  -6 1573.18 319.306   3 0.65546 0.03858 0.38774-0.24149 0.79801-0.92484
 -10   1   6 2003.72 335.759   5 0.05682-0.75135 0.19274-0.04713 0.96009-0.83278
  10   1  -6 2056.61 334.119   7 0.56727 0.12769-0.81808 0.96443 0.06301-0.18988
 -10   1   5 7632.97 660.644   6-0.20540-0.50406 0.97790-0.83242-0.01865 0.09064
  10   1  -5 8128.05 688.124   3 0.60567 0.10302 0.38084-0.23463 0.83360-0.90490
 -10   1   5 7563.96 612.516   5-0.01467-0.69447 0.15869-0.01311 0.94860-0.87682
  10   1  -5 8335.89 648.882   7 0.56103 0.14857-0.82378 0.97016 0.07486-0.14619
 -10   1   4 3601.26 463.740   6-0.20075-0.52331 0.97891-0.83342-0.01865 0.03510
 -10   1   4 3466.66 409.159   5-0.09128-0.63247 0.12105 0.02451 0.92961-0.91334
  10   1  -4 3440.17 409.669   7 0.55605 0.16819-0.82808 0.97448 0.08410-0.09988
  10   1  -4 2551.32 393.801   3 0.55376 0.16960 0.37218-0.22601 0.86445-0.88023
  10   1  -4 4278.92 471.077   1 0.34159 0.38194-0.65846 0.80279-0.55877 0.54194
 -10   1   3 7265.59 648.292   6-0.20020-0.53844 0.97903-0.83352-0.01865-0.02043
 -10   1   3 8605.45 636.822   5-0.17151-0.56685 0.08032 0.06521 0.90217-0.94142
  10   1  -3 7650.81 670.844   3 0.50065 0.23737 0.36200-0.21587 0.89040-0.85065
  10   1  -3 8913.00 682.126   1 0.38938 0.34871-0.65653 0.80090-0.52258 0.56126
 -10   1   2 3822.91 474.352   6-0.20377-0.54948 0.97826-0.83273-0.01865-0.07598
 -10   1   2 5324.83 502.056   5-0.25347-0.49950 0.03727 0.10824 0.86585-0.96062
  10   1  -2 3740.29 475.545   3 0.44732 0.30536 0.35061-0.20452 0.91148-0.81620
  10   1  -2 4465.03 500.945   1 0.43581 0.31684-0.65272 0.79713-0.48508 0.57927
 -10   1   1 120.663 134.485   6-0.21145-0.55639 0.97654-0.83100-0.01864-0.13152
 -10   1   1-80.9706 100.548   5-0.33510-0.43248-0.00716 0.15265 0.82075-0.97104
  10   1  -1-144.387 139.403   3 0.39478 0.37256 0.33837-0.19231 0.92791-0.77709
  10   1  -1 69.9696 161.260   1 0.48060 0.28662-0.64711 0.79156-0.44655 0.59626
 -10   1   0 1579.70 311.757   6-0.22327-0.55916 0.97377-0.82821-0.01862-0.18708
 -10   1   0 1818.48 296.935   5-0.41433-0.36786-0.05191 0.19738 0.76757-0.97338
  10   1   0 1860.54 349.310   1 0.52353 0.25825-0.63978 0.78426-0.40723 0.61246
  10   1   0 2220.16 388.989   3 0.34394 0.43807 0.32564-0.17963 0.94006-0.73371
 -10   1  -1 7389.65 657.338   6-0.23927-0.55776 0.96976-0.82418-0.01859-0.24264
 -10   1  -1 6745.44 568.525   5-0.48933-0.30747-0.09598 0.24142 0.70746-0.96879
  10   1   1 6084.75 626.371   1 0.56448 0.23186-0.63082 0.77535-0.36735 0.62809
  10   1   1 6587.64 648.112   3 0.29560 0.50106 0.31280-0.16683 0.94845-0.68657
 -10   1  -1 5928.10 598.866   2-0.39541-0.40104-0.22906 0.37509-0.96227 0.70128
 -10   1  -2 7755.27 678.692   6-0.25950-0.55213 0.96425-0.81866-0.01855-0.29822
  10   1   2 7392.60 709.819   1 0.60338 0.20753-0.62034 0.76491-0.32708 0.64334
 -10   1  -2 7814.78 697.716   2-0.34648-0.46457-0.22840 0.37440-0.96904 0.65251
  10   1   2 8376.86 659.964   9 0.25561 0.55623 0.26633-0.11989 0.96397-0.64720
 -10   1  -3 2909.53 422.287   6-0.28402-0.54221 0.95692-0.81131-0.01849-0.35383
 -10   1  -3 2864.48 454.170   2-0.30107-0.52458-0.22725 0.37321-0.97283 0.60077
  10   1   3 2595.83 449.327   1 0.64017 0.18529-0.60844 0.75305-0.28657 0.65834
 -10   1  -4 1396.38 294.259   6-0.31291-0.52791 0.94733-0.80171-0.01839-0.40946
 -10   1  -4 1538.26 328.794   2-0.25967-0.58058-0.22576 0.37169-0.97431 0.54672
  10   1   4 1976.61 399.207   1 0.67487 0.16516-0.59521 0.73986-0.24592 0.67321
 -10   1  -5 463.732 251.861   2-0.22258-0.63228-0.22408 0.36998-0.97409 0.49096
  10   1   5 867.618 319.765   1 0.70749 0.14710-0.58073 0.72541-0.20522 0.68803
 -10   1  -6 772.203 298.754   2-0.18993-0.67952-0.22235 0.36821-0.97272 0.43406
  10   1   6 908.307 310.665   1 0.73806 0.13110-0.56506 0.70978-0.16453 0.70286
  10   1   7 111.420 152.575   1 0.76661 0.11711-0.54826 0.69302-0.12391 0.71775
 -10   1  -7 50.1354 143.513   2-0.16177-0.72228-0.22067 0.36650-0.97068 0.37649
  10   1   8 572.442 294.056   1 0.79318 0.10510-0.53038 0.67519-0.08337 0.73273
 -10   1  -8 426.148 236.027   2-0.13804-0.76062-0.21911 0.36491-0.96834 0.31862
 -10   2  15 2629.05 465.809   4 0.42106-0.98462 0.46478-0.17331 0.86228-0.23575
 -10   2  15 2103.93 430.708   5 0.43481-0.99777 0.35407-0.06244 0.91342-0.28639
 -10   2  14 287.311 201.664   4 0.40464-0.98276 0.47351-0.18206 0.86128-0.29021
 -10   2  14 172.291 153.614   5 0.41681-0.99439 0.34720-0.05560 0.92033-0.34882
  10   2 -14-12.4645 99.3819   7 0.66469-0.08674-0.63678 0.92864-0.20080-0.37037
 -10   2  13 402.326 219.343   4 0.38447-0.97715 0.48391-0.19247 0.85966-0.34403
 -10   2  13 314.369 173.176   5 0.39412-0.98631 0.33841-0.04682 0.92826-0.41226
  10   2 -13 584.653 260.470   7 0.66100-0.06840-0.65128 0.94316-0.18430-0.33133
 -10   2  12 1006.30 277.038   4 0.36042-0.96767 0.49584-0.20442 0.85715-0.39698
 -10   2  12 755.043 249.956   6-0.20541-0.40181 0.97790-0.68667-0.01865 0.47936
 -10   2  12 742.533 237.429   5 0.36612-0.97292 0.32736-0.03580 0.93689-0.47642
  10   2 -12 982.513 297.300   7 0.65728-0.05004-0.66428 0.95619-0.16905-0.29103
 -10   2  11 556.776 219.889   4 0.33240-0.95420 0.50913-0.21772 0.85349-0.44877
 -10   2  11 982.039 261.396   6-0.17079-0.45103 0.98486-0.69362-0.01868 0.42385
 -10   2  11 568.993 211.190   5 0.33215-0.95356 0.31367-0.02213 0.94574-0.54079
  10   2 -11 933.826 289.181   7 0.65367-0.03179-0.67575 0.96769-0.15522-0.24932
 -10   2  10 2587.52 432.000   4 0.30034-0.93670 0.52355-0.23215 0.84834-0.49908
 -10   2  10 2219.92 381.914   6-0.14084-0.49557 0.98979-0.69853-0.01868 0.36832
 -10   2  10 2575.12 396.080   5 0.29149-0.92751 0.29689-0.00538 0.95412-0.60468
  10   2 -10 1947.63 389.584   7 0.65029-0.01376-0.68562 0.97759-0.14301-0.20598
 -10   2   9 2873.77 435.268   4 0.26423-0.91515 0.53883-0.24745 0.84137-0.54756
 -10   2   9 2549.85 407.356   6-0.11539-0.53562 0.99320-0.70193-0.01867 0.31277
 -10   2   9 3138.77 411.485   5 0.24346-0.89409 0.27657 0.01492 0.96106-0.66714
  10   2  -9 2235.70 403.196   3 0.76646-0.11635 0.39634-0.10430 0.68978-0.98331
  10   2  -9 2385.24 408.344   7 0.64728 0.00389-0.69379 0.98579-0.13267-0.16077
 -10   2   8 7266.02 672.878   6-0.09430-0.57130 0.99548-0.70420-0.01865 0.25722
  10   2  -8 8307.81 730.890   3 0.72531-0.06053 0.39448-0.10248 0.73556-0.97356
 -10   2   8 6659.46 591.193   5 0.18747-0.85271 0.25221 0.03926 0.96531-0.72691
  10   2  -8 7128.93 667.010   7 0.64483 0.02099-0.70012 0.99214-0.12452-0.11337
 -10   2   7 1061.50 271.027   6-0.07746-0.60275 0.99696-0.70566-0.01863 0.20166
  10   2  -7 1390.82 322.177   3 0.68045-0.00102 0.39059-0.09863 0.77753-0.96000
  10   2  -7 1749.32 329.214   7 0.64311 0.03735-0.70438 0.99643-0.11896-0.06339
 -10   2   6 1720.05 345.226   6-0.06477-0.63003 0.99787-0.70656-0.01862 0.14610
  10   2  -6 1569.70 339.982   3 0.63249 0.06161 0.38475-0.09282 0.81523-0.94217
  10   2  -6 1973.96 340.324   7 0.64233 0.05277-0.70626 0.99834-0.11649-0.01032
 -10   2   5 2765.93 436.760   6-0.05617-0.65323 0.99839-0.70706-0.01860 0.09055
  10   2  -5 3883.71 510.723   3 0.58215 0.12661 0.37709-0.08521 0.84831-0.91971
 -10   2   4 4692.73 547.033   6-0.05162-0.67237 0.99864-0.70728-0.01859 0.03500
  10   2  -4 4941.65 565.174   3 0.53029 0.19313 0.36784-0.07599 0.87657-0.89245
 -10   2   3 5250.86 569.894   6-0.05110-0.68749 0.99866-0.70730-0.01859-0.02054
  10   2  -3 5613.92 598.104   3 0.47781 0.26027 0.35726-0.06546 0.90000-0.86035
 -10   2   2 1050.52 279.009   6-0.05459-0.69859 0.99848-0.70710-0.01860-0.07607
  10   2  -2 1346.61 309.256   3 0.42566 0.32708 0.34568-0.05392 0.91875-0.82357
 -10   2   1 2165.12 379.061   6-0.06213-0.70566 0.99804-0.70664-0.01861-0.13159
  10   2  -1 2110.47 377.476   3 0.37473 0.39268 0.33345-0.04172 0.93312-0.78241
  10   2  -1 1834.05 336.845   1 0.63865 0.12834-0.60898 0.89910-0.28829 0.43810
 -10   2   0 829.907 250.751   6-0.07373-0.70865 0.99725-0.70584-0.01863-0.18711
  10   2   0 1520.34 346.869   3 0.32581 0.45626 0.32091-0.02922 0.94356-0.73731
  10   2   0 1254.39 290.530   1 0.66768 0.11387-0.59813 0.88829-0.25455 0.45988
 -10   2  -1 3942.14 503.475   6-0.08947-0.70751 0.99594-0.70451-0.01865-0.24263
  10   2   1 4690.61 547.217   1 0.69548 0.10064-0.58631 0.87651-0.22050 0.48135
 -10   2  -2 457.405 199.617   6-0.10942-0.70215 0.99389-0.70245-0.01867-0.29815
  10   2   2 745.431 243.965   1 0.72201 0.08867-0.57356 0.86380-0.18623 0.50259
 -10   2  -3 3792.61 495.548   6-0.13370-0.69247 0.99082-0.69936-0.01868-0.35368
 -10   2  -3 2996.07 450.912   2-0.38675-0.43899-0.22899 0.52057-0.96368 0.59170
  10   2   3 2969.06 472.497   1 0.74724 0.07801-0.55990 0.85019-0.15177 0.52366
 -10   2  -4 1016.98 275.251   6-0.16245-0.67832 0.98633-0.69485-0.01868-0.40921
 -10   2  -4 568.357 241.712   2-0.34489-0.49545-0.22837 0.51991-0.96921 0.54171
  10   2   4 853.440 279.998   1 0.77115 0.06866-0.54537 0.83570-0.11719 0.54459
  10   2   5 2841.59 496.267   1 0.79373 0.06064-0.52999 0.82035-0.08250 0.56542
 -10   2  -5 3185.29 481.089   2-0.30687-0.54807-0.22742 0.51893-0.97248 0.48944
 -10   2  -6 5870.55 646.329   2-0.27298-0.59656-0.22628 0.51775-0.97404 0.43547
  10   2   6 6322.01 762.013   1 0.81499 0.05394-0.51376 0.80416-0.04773 0.58616
  10   2   7 4064.80 634.710   1 0.83491 0.04859-0.49670 0.78714-0.01290 0.60685
 -10   2  -7 2910.18 474.549   2-0.24339-0.64075-0.22506 0.51650-0.97439 0.38029
 -10   2  -7 3173.74 535.397   8-0.05474-0.82976 0.36989-0.07859-0.90886 0.31421
 -10   3  13 2831.93 501.326   4 0.40285-0.99550 0.47445-0.03730 0.86116-0.34550
  10   3 -13 3298.46 546.202   7 0.67939-0.08665-0.53849 0.97610-0.30112-0.21443
 -10   3  12 873.067 344.364   4 0.38109-0.98830 0.48562-0.04849 0.85934-0.39913
  10   3 -12 906.917 288.999   7 0.67868-0.07129-0.54771 0.98535-0.29246-0.16755
 -10   3  11 477.613 232.208   4 0.35567-0.97744 0.49814-0.06102 0.85659-0.45183
 -10   3  11 185.379 158.235   6-0.04719-0.57457 0.99885-0.56175-0.01858 0.42372
  10   3 -11 406.513 189.736   7 0.67804-0.05601-0.55484 0.99251-0.28566-0.11880
 -10   3  10 1090.95 315.739   4 0.32651-0.96284 0.51184-0.07474 0.85262-0.50331
 -10   3  10 521.586 230.165   6-0.01856-0.61780 0.99973-0.56261-0.01852 0.36812
  10   3 -10 482.238 217.209   7 0.67756-0.04089-0.55966 0.99735-0.28102-0.06790
 -10   3   9 670.096 251.075   4 0.29354-0.94443 0.52650-0.08941 0.84712-0.55327
 -10   3   9 943.276 293.517   6 0.00567-0.65663 0.99978-0.56265-0.01845 0.31251
  10   3  -9 775.427 277.266   3 0.76318-0.11300 0.39626 0.04145 0.69374-0.98737
  10   3  -9 605.097 208.790   7 0.67733-0.02602-0.56188 0.99960-0.27887-0.01450
 -10   3   8 3365.03 507.999   4 0.25676-0.92221 0.54186-0.10479 0.83978-0.60138
 -10   3   8 2314.01 406.391   6 0.02568-0.69123 0.99935-0.56221-0.01839 0.25691
  10   3  -8 2240.43 400.400   3 0.72189-0.05704 0.39425 0.04342 0.73903-0.97713
  10   3  -8 3037.78 422.238  10-0.13302 0.79914 0.18412 0.25304-0.97452 0.73612
  10   3  -8 2784.90 439.048   7 0.67741-0.01145-0.56110 0.99885-0.27962 0.04180
 -10   3   7 2075.74 386.481   6 0.04161-0.72175 0.99870-0.56154-0.01833 0.20132
  10   3  -7 2998.69 465.071   3 0.67722 0.00229 0.39025 0.04738 0.78029-0.96287
  10   3  -7 2656.08 391.882  10-0.10109 0.78180 0.23819 0.19899-0.95847 0.77560
 -10   3   6 1005.68 293.694   6 0.05357-0.74832 0.99803-0.56086-0.01829 0.14573
  10   3  -6 1451.40 322.505   3 0.62980 0.06437 0.38437 0.05322 0.81715-0.94420
  10   3  -6 1456.15 295.352  10-0.06662 0.76193 0.29473 0.14248-0.93714 0.80981
 -10   3   5 4125.12 540.644   6 0.06165-0.77099 0.99750-0.56030-0.01826 0.09016
  10   3  -5 3752.25 506.173   3 0.58039 0.12844 0.37680 0.06076 0.84936-0.92087
  10   3  -5 3637.86 458.298  10-0.03005 0.73995 0.35274 0.08448-0.91012 0.83833
 -10   3   4 6840.91 683.733   6 0.06591-0.78985 0.99718-0.55998-0.01824 0.03461
  10   3  -4 7123.38 694.083   3 0.52982 0.19367 0.36775 0.06977 0.87681-0.89279
  10   3  -4 6609.01 609.629  10 0.00810 0.71639 0.41112 0.02612-0.87721 0.86095
 -10   3   3 1182.14 302.086   6 0.06638-0.80491 0.99715-0.55993-0.01824-0.02093
  10   3  -3 800.716 264.319   3 0.47896 0.25919 0.35750 0.07997 0.89955-0.86000
  10   3  -3 908.587 242.249  10 0.04719 0.69188 0.46870-0.03144-0.83849 0.87777
 -10   3   2 664.090 245.988   6 0.06306-0.81619 0.99740-0.56016-0.01825-0.07646
  10   3  -2 597.813 240.327   3 0.42866 0.32415 0.34638 0.09106 0.91779-0.82271
  10   3  -2 671.229 207.002  10 0.08658 0.66709 0.52437-0.08708-0.79432 0.88914
 -10   3   1 679.215 231.791   6 0.05593-0.82366 0.99788-0.56063-0.01828-0.13197
  10   3  -1 451.544 228.011   3 0.37974 0.38773 0.33469 0.10270 0.93187-0.78126
  10   3  -1 580.124 212.517  10 0.12560 0.64266 0.57714-0.13984-0.74529 0.89565
 -10   3   0 4447.18 568.958   6 0.04496-0.82728 0.99853-0.56126-0.01832-0.18746
  10   3   0 3711.52 529.101   3 0.33289 0.44924 0.32277 0.11458 0.94224-0.73610
  10   3   0 4096.22 495.513  10 0.16367 0.61919 0.62623-0.18890-0.69217 0.89806
 -10   3  -1 5158.94 604.164   6 0.03006-0.82698 0.99920-0.56191-0.01838-0.24295
  10   3   1 5311.94 630.918   3 0.28870 0.50809 0.31092 0.12640 0.94941-0.68774
  10   3   1 5407.00 568.981  10 0.20029 0.59716 0.67106-0.23371-0.63578 0.89721
 -10   3  -2 1154.68 303.151   6 0.01114-0.82265 0.99971-0.56240-0.01844-0.29842
  10   3   2 1348.52 311.181  10 0.23508 0.57697 0.71129-0.27392-0.57700 0.89396
 -10   3  -3 4091.35 543.497   6-0.01195-0.81417 0.99980-0.56249-0.01850-0.35389
  10   3   3 4218.69 521.305  10 0.26777 0.55886 0.74678-0.30940-0.51662 0.88912
  10   3   3 4774.54 605.759   1 0.84502-0.02000-0.48723 0.92320 0.00576 0.36622
 -10   3  -4 1678.93 344.959   6-0.03937-0.80134 0.99918-0.56184-0.01857-0.40937
  10   3   4 1603.51 354.284   1 0.85825-0.01866-0.47387 0.90987 0.03137 0.39613
  10   3   5 340.364 240.586   1 0.87107-0.01693-0.45968 0.89573 0.05768 0.42533
 -10   4  11 3625.42 539.043   6 0.04393-0.66563 0.99858-0.41563-0.01833 0.42342
  10   4 -11 2960.09 482.678   7 0.67849-0.05632-0.41483 0.99822-0.40560 0.00121
 -10   4  10 1847.95 431.010   4 0.32679-0.96309 0.51171 0.07110 0.85266-0.50332
 -10   4  10 1332.60 338.118   6 0.07076-0.70706 0.99681-0.41384-0.01822 0.36777
 -10   4   9 2691.90 492.080   4 0.29610-0.94696 0.52540 0.05740 0.84758-0.55370
 -10   4   9 2447.88 449.066   6 0.09339-0.74428 0.99470-0.41172-0.01812 0.31213
  10   4  -9 2571.81 448.252   3 0.77501-0.12477 0.39648 0.18690 0.67920-0.97293
  10   4  -9 1771.58 382.157  10-0.12775 0.77924 0.19316 0.38984-0.97212 0.67823
 -10   4   8 1060.99 334.954   4 0.26180-0.92722 0.53982 0.04296 0.84086-0.60242
 -10   4   8 845.759 259.916   6 0.11202-0.77751 0.99255-0.40955-0.01803 0.25651
  10   4  -8 1144.92 316.847   3 0.73514-0.07023 0.39509 0.18825 0.72533-0.96354
  10   4  -8 806.638 282.550  10-0.10233 0.76841 0.23612 0.34690-0.95916 0.72081
 -10   4   7 2241.66 422.488   6 0.12681-0.80691 0.99057-0.40755-0.01795 0.20089
  10   4  -7 2667.07 452.958   3 0.69206-0.01249 0.39176 0.19154 0.76736-0.95004
  10   4  -7 2145.41 409.600  10-0.07480 0.75547 0.28148 0.30155-0.94257 0.75975
 -10   4   6 3027.45 509.112   6 0.13790-0.83259 0.98893-0.40590-0.01789 0.14529
  10   4  -6 2207.29 417.074   3 0.64642 0.04781 0.38660 0.19666 0.80495-0.93210
  10   4  -6 2257.76 414.676  10-0.04536 0.74062 0.32870 0.25435-0.92198 0.79470
 -10   4   5 2511.88 459.130   6 0.14538-0.85466 0.98775-0.40470-0.01785 0.08971
  10   4  -5 1920.59 383.229   3 0.59897 0.10992 0.37980 0.20342 0.83792-0.90954
  10   4  -5 1731.78 364.191  10-0.01429 0.72414 0.37713 0.20594-0.89710 0.82536
 -10   4   4 1493.58 370.657   6 0.14930-0.87318 0.98710-0.40404-0.01782 0.03415
  10   4  -4 2062.99 409.008   3 0.55050 0.17305 0.37159 0.21159 0.86620-0.88229
  10   4  -4 1722.99 350.562  10 0.01809 0.70636 0.42605 0.15704-0.86779 0.85159
 -10   4   3 1062.91 297.678   6 0.14970-0.88818 0.98704-0.40395-0.01782-0.02139
  10   4  -3 1192.65 323.069   3 0.50183 0.23638 0.36224 0.22090 0.88988-0.85044
  10   4  -3 1001.08 278.126  10 0.05138 0.68766 0.47473 0.10839-0.83405 0.87338
 -10   4   2 5391.11 666.292   6 0.14659-0.89967 0.98755-0.40445-0.01784-0.07691
  10   4  -2 5722.60 666.390   3 0.45375 0.29912 0.35204 0.23106 0.90919-0.81421
  10   4  -2 4407.74 548.513  10 0.08517 0.66846 0.52241 0.06073-0.79600 0.89087
 -10   4   1 3741.73 550.112   6 0.13995-0.90763 0.98861-0.40550-0.01788-0.13241
  10   4  -1 4521.32 600.578   3 0.40699 0.36055 0.34130 0.24176 0.92445-0.77395
  10   4  -1 3824.70 523.645  10 0.11903 0.64920 0.56842 0.01474-0.75393 0.90434
 -10   4   0 698.088 258.755   6 0.12974-0.91200 0.99015-0.40702-0.01793-0.18789
  10   4   0 932.061 293.286   3 0.36219 0.42001 0.33031 0.25272 0.93610-0.73007
  10   4   0 1369.15 316.095  10 0.15256 0.63026 0.61215-0.02898-0.70824 0.91418
 -10   4  -1 707.375 261.037   6 0.11586-0.91272 0.99206-0.40892-0.01801-0.24336
  10   4   1 140.417 164.955   3 0.31988 0.47698 0.31934 0.26364 0.94461-0.68304
  10   4   1 827.563 260.143  10 0.18539 0.61202 0.65311-0.06991-0.65938 0.92086
 -10   4  -2 529.182 220.313   6 0.09821-0.90967 0.99418-0.41102-0.01809-0.29881
  10   4   2 444.280 193.871  10 0.21720 0.59480 0.69091-0.10770-0.60788 0.92489
 -10   4  -3 336.812 207.869   6 0.07664-0.90270 0.99631-0.41314-0.01819-0.35425
  10   4   3 746.276 246.192  10 0.24773 0.57886 0.72531-0.14207-0.55425 0.92680
 -10   4  -4 585.400 237.593   6 0.05096-0.89161 0.99819-0.41500-0.01830-0.40968
  10   4   4 867.676 277.766  10 0.27679 0.56439 0.75614-0.17288-0.49900 0.92709
 -11  -4   7 902.227 311.390   5-0.24848-0.51000 0.03993-0.62345 0.86831-0.70638
 -11  -4   6 665.188 301.945   5-0.28915-0.48394 0.01805-0.60158 0.84728-0.74087
  11  -4  -5 2713.73 517.058   9 0.74174 0.04572-0.17967-0.40334 0.81824-0.86981
 -11  -4   5 3494.57 558.302   5-0.33096-0.45674-0.00486-0.57869 0.82327-0.77237
  11  -4  -4 3306.17 569.471   9 0.71673 0.08532-0.14700-0.43600 0.84597-0.84201
 -11  -4   4 2862.64 519.465   5-0.37346-0.42885-0.02861-0.55497 0.79623-0.80085
  11  -4  -3 794.594 294.691   9 0.69058 0.12606-0.11506-0.46793 0.87035-0.81088
 -11  -4   3 566.882 261.361   5-0.41621-0.40071-0.05300-0.53061 0.76619-0.82633
 -11  -4   2 165.869 184.068   5-0.45876-0.37277-0.07780-0.50583 0.73321-0.84887
  11  -3 -11 2643.59 491.776   9 0.84348-0.14348-0.36083-0.07642 0.60507-0.98974
 -11  -3  11 3368.76 549.154   5-0.00587-0.69410 0.16294-0.60054 0.95034-0.56628
  11  -3 -10 2976.93 507.435   9 0.82998-0.11539-0.32702-0.11022 0.65369-0.98283
 -11  -3  10 2699.72 494.372   5-0.04042-0.67416 0.14618-0.58380 0.94299-0.61445
  11  -3  -9 703.596 265.292   9 0.81293-0.08375-0.29177-0.14544 0.69958-0.97320
 -11  -3   9 628.770 274.565   5-0.07801-0.65118 0.12766-0.56530 0.93340-0.66037
  11  -3  -8 1794.09 401.122   9 0.79250-0.04873-0.25541-0.18178 0.74235-0.96044
 -11  -3   8 1438.18 357.725   5-0.11842-0.62538 0.10743-0.54509 0.92120-0.70369
  11  -3  -7 5383.92 663.539   9 0.76895-0.01058-0.21831-0.21887 0.78164-0.94421
 -11  -3   7 6218.99 707.277   5-0.16132-0.59709 0.08557-0.52326 0.90609-0.74410
  11  -3  -6 12.0488 142.303   9 0.74262 0.03034-0.18087-0.25629 0.81717-0.92422
 -11  -3   6-6.35426 138.328   5-0.20633-0.56669 0.06221-0.49993 0.88779-0.78132
  11  -3  -5 812.510 264.856   9 0.71397 0.07359-0.14353-0.29362 0.84875-0.90027
 -11  -3   5 613.846 257.542   5-0.25298-0.53465 0.03753-0.47527 0.86609-0.81514
  11  -3  -4 413.971 213.945   9 0.68350 0.11865-0.10673-0.33040 0.87628-0.87228
 -11  -3   4 274.665 199.057   5-0.30076-0.50148 0.01173-0.44949 0.84086-0.84542
  11  -3  -3 1278.41 333.668   9 0.65179 0.16495-0.07090-0.36620 0.89979-0.84026
 -11  -3   3 2227.23 433.691   5-0.34911-0.46774-0.01495-0.42283 0.81206-0.87213
  11  -3  -2 3182.99 518.651   9 0.61943 0.21190-0.03645-0.40064 0.91941-0.80436
 -11  -3   2 3531.47 527.067   5-0.39747-0.43399-0.04224-0.39556 0.77973-0.89532
  11  -3  -1 1292.30 333.710   9 0.58702 0.25891-0.00370-0.43337 0.93538-0.76481
 -11  -3   1 1258.16 309.061   5-0.44528-0.40079-0.06988-0.36795 0.74400-0.91512
  11  -3   0 1222.30 324.198   9 0.55511 0.30541 0.02705-0.46410 0.94802-0.72193
 -11  -3   0 1951.10 405.610   5-0.49203-0.36866-0.09759-0.34026 0.70511-0.93174
  11  -3   1 697.447 271.308   9 0.52422 0.35089 0.05559-0.49262 0.95770-0.67608
 -11  -3  -1 409.010 220.559   2-0.37849-0.49580-0.22891-0.20747-0.96493 0.68303
 -11  -3  -1 391.792 213.960   5-0.53724-0.33805-0.12512-0.31275 0.66331-0.94546
  11  -3   2 336.523 191.814   9 0.49479 0.39491 0.08177-0.51879 0.96483-0.62768
 -11  -3  -2 1013.24 328.685   2-0.33587-0.55302-0.22818-0.20823-0.97013 0.63270
  11  -3   2 1177.37 379.470   1 0.31772 0.57227-0.65871 0.22044-0.57598 0.91234
  11  -3   3 59.3361 129.595   9 0.46720 0.43710 0.10551-0.54251 0.96982-0.57715
 -11  -3  -3 93.7994 157.697   2-0.29678-0.60671-0.22711-0.20933-0.97307 0.58011
  11  -2 -14 2073.73 437.658   9 0.86241-0.20610-0.45807 0.16664 0.43327-0.98446
  11  -2 -13 2424.06 464.324   9 0.86031-0.18940-0.42809 0.13668 0.49223-0.98790
 -11  -2  13 2474.01 477.981   5 0.13942-0.81010 0.23076-0.52249 0.96580-0.47064
  11  -2 -13 2699.73 514.839   7 0.47549 0.19479-0.87442 0.58347 0.21390-0.70919
  11  -2 -12 1240.14 345.574   9 0.85401-0.16851-0.39553 0.10413 0.54984-0.98999
  11  -2 -12 1284.52 339.789   7 0.45315 0.23177-0.88141 0.59049 0.24490-0.68463
 -11  -2  12 1346.71 372.802   5 0.11086-0.79615 0.21777-0.50952 0.96475-0.52511
  11  -2 -11 691.373 245.920   9 0.84336-0.14327-0.36050 0.06912 0.60558-0.99020
 -11  -2  11 748.663 290.398   5 0.07855-0.77845 0.20288-0.49465 0.96238-0.57825
  11  -2 -10 385.084 216.561   9 0.82828-0.11360-0.32322 0.03186 0.65886-0.98795
 -11  -2  10 355.048 199.423   5 0.04252-0.75703 0.18601-0.47781 0.95827-0.62966
  11  -2  -9 1096.94 288.351   9 0.80880-0.07952-0.28400-0.00734 0.70909-0.98266
 -11  -2   9 1472.38 352.556   5 0.00284-0.73196 0.16713-0.45895 0.95197-0.67888
  11  -2  -8 1609.84 355.209   9 0.78507-0.04120-0.24325-0.04807 0.75570-0.97375
 -11  -2   8 2566.01 442.255   5-0.04029-0.70344 0.14624-0.43809 0.94302-0.72545
  11  -2  -7 2207.25 403.774   9 0.75739 0.00107-0.20143-0.08987 0.79815-0.96067
 -11  -2   7 2736.61 460.630   5-0.08659-0.67176 0.12339-0.41526 0.93097-0.76892
  11  -2  -6 108.380 142.398   9 0.72621 0.04684-0.15912-0.13217 0.83602-0.94302
 -11  -2   6 184.773 183.928   5-0.13564-0.63731 0.09870-0.39059 0.91540-0.80887
  11  -2  -5 1454.29 331.162   9 0.69213 0.09552-0.11690-0.17437 0.86902-0.92049
 -11  -2   5 1797.71 382.046   5-0.18695-0.60062 0.07232-0.36424 0.89599-0.84497
  11  -2  -4 1604.39 346.555   9 0.65585 0.14639-0.07537-0.21588 0.89703-0.89298
 -11  -2   4 1600.74 368.694   5-0.23990-0.56228 0.04450-0.33644 0.87247-0.87697
  11  -2  -3 590.726 250.096   9 0.61815 0.19869-0.03512-0.25611 0.92011-0.86054
 -11  -2   3 536.459 221.964   5-0.29381-0.52297 0.01551-0.30748 0.84473-0.90474
  11  -2  -2 737.951 245.683   9 0.57984 0.25159 0.00334-0.29455 0.93848-0.82338
 -11  -2   2 819.647 275.587   5-0.34799-0.48341-0.01433-0.27766 0.81276-0.92830
  11  -2  -1 271.166 174.978   9 0.54171 0.30432 0.03957-0.33077 0.95251-0.78189
 -11  -2   1 92.0728 168.857   5-0.40172-0.44429-0.04467-0.24734 0.77671-0.94776
  11  -2   0 2593.56 457.441   9 0.50448 0.35614 0.07325-0.36443 0.96269-0.73655
 -11  -2   0 3638.03 531.663   2-0.40153-0.45824-0.22910-0.06163-0.96122 0.73494
 -11  -2   0 2405.96 434.353   5-0.45432-0.40630-0.07518-0.21685 0.73681-0.96338
  11  -2   1 438.597 204.389   9 0.46879 0.40642 0.10416-0.39532 0.96957-0.68790
 -11  -2  -1 459.391 241.022   2-0.35560-0.51877-0.22857-0.06219-0.96799 0.68618
 -11  -2  -1 575.017 263.347   5-0.50518-0.37005-0.10552-0.18653 0.69339-0.97549
 -11  -2  -2 7415.80 756.855   5-0.55378-0.33606-0.13539-0.15669 0.64688-0.98449
  11  -2   2 6639.77 743.517   1 0.36338 0.52640-0.65782 0.36523-0.54257 0.87903
 -11  -2  -2 7544.49 765.791   2-0.31289-0.57609-0.22760-0.06320-0.97207 0.63472
  11  -2   2 6352.84 714.363   9 0.43517 0.45464 0.13216-0.42330 0.97372-0.63653
  11  -2   3 1353.22 356.369   9 0.40400 0.50039 0.15721-0.44834 0.97572-0.58300
 -11  -2  -3 1378.02 364.433   2-0.27375-0.62983-0.22631-0.06452-0.97402 0.58114
  11  -2   3 2123.35 448.053   1 0.41513 0.48920-0.65466 0.36211-0.50208 0.89406
  11  -2   4 5047.98 694.973   1 0.46554 0.45335-0.64922 0.35671-0.45977 0.90726
 -11  -2  -4 5113.60 653.004   2-0.23843-0.67975-0.22484-0.06603-0.97436 0.52595
  11  -2   4 4958.17 656.848   9 0.37560 0.54339 0.17936-0.47046 0.97609-0.52785
  11  -2   5 400.792 235.276   9 0.35014 0.58344 0.19867-0.48976 0.97531-0.47155
 -11  -2  -5 1039.05 363.872   2-0.20703-0.72575-0.22329-0.06761-0.97358 0.46963
  11  -2   5 502.774 265.213   1 0.51433 0.41913-0.64152 0.34904-0.41586 0.91888
 -11  -1  14 157.124 188.567   5 0.23377-0.88977 0.27240-0.41829 0.96208-0.41134
  11  -1 -14 1214.94 340.361   7 0.54346 0.11232-0.83804 0.69279 0.10671-0.65747
 -11  -1  13 67.9636 161.278   5 0.20899-0.87960 0.26165-0.40757 0.96415-0.46893
  11  -1 -13 339.146 220.632   7 0.52589 0.14453-0.85002 0.70480 0.13662-0.63183
  11  -1 -12-51.8105 116.573   9 0.85784-0.17225-0.41292 0.26740 0.51984-0.95993
 -11  -1  12 186.295 188.113   5 0.18019-0.86541 0.24899-0.39492 0.96557-0.52586
  11  -1 -12 108.617 149.997   7 0.50774 0.17733-0.86036 0.71516 0.16577-0.60544
  11  -1 -11 777.904 246.179   9 0.84839-0.14820-0.37556 0.23006 0.58233-0.96690
 -11  -1  11 1034.15 313.446   5 0.14721-0.84704 0.23427-0.38022 0.96591-0.58173
  11  -1 -11 855.914 283.005   7 0.48910 0.21061-0.86910 0.72393 0.19411-0.57823
  11  -1 -10 2717.93 428.260   9 0.83347-0.11869-0.33510 0.18962 0.64250-0.97154
 -11  -1  10 2758.93 462.663   5 0.10997-0.82441 0.21736-0.36334 0.96470-0.63603
  11  -1 -10 3357.68 524.858   7 0.47008 0.24427-0.87630 0.73116 0.22157-0.55014
  11  -1  -9 4937.73 567.796   9 0.81299-0.08361-0.29188 0.14641 0.69945-0.97298
 -11  -1   9 4840.11 590.957   5 0.06847-0.79752 0.19818-0.34419 0.96139-0.68824
  11  -1  -9 4834.53 609.513   7 0.45079 0.27820-0.88203 0.73692 0.24807-0.52109
  11  -1  -8 1002.68 289.385   9 0.78701-0.04304-0.24637 0.10093 0.75231-0.97031
 -11  -1   8 1286.49 329.528   5 0.02281-0.76648 0.17667-0.32270 0.95538-0.73774
  11  -1  -7 3665.49 475.067   9 0.75584 0.00272-0.19923 0.05380 0.80025-0.96272
 -11  -1   7 2824.26 455.833   5-0.02674-0.73154 0.15284-0.29889 0.94607-0.78396
  11  -1  -6 9168.58 738.632   9 0.72005 0.05311-0.15121 0.00580 0.84256-0.94951
  11  -1  -6 8848.07 725.300   3 0.75734 0.01476 0.39609-0.54114 0.70063-0.80662
 -11  -1   6 9764.45 806.715   5-0.07980-0.69309 0.12677-0.27284 0.93290-0.82630
  11  -1  -5 6570.38 631.357   9 0.68042 0.10733-0.10315-0.04224 0.87877-0.93020
  11  -1  -5 6639.32 628.833   3 0.71979 0.06697 0.39410-0.53918 0.74113-0.79158
 -11  -1   5 6709.29 661.509   5-0.13579-0.65171 0.09862-0.24472 0.91535-0.86428
  11  -1  -4 2464.12 395.403   9 0.63793 0.16441-0.05591-0.08946 0.90868-0.90459
  11  -1  -4 3070.04 439.074   3 0.67948 0.12194 0.39049-0.53562 0.77836-0.77329
 -11  -1   4 2519.95 416.859   5-0.19402-0.60809 0.06865-0.21477 0.89305-0.89749
  11  -1  -3 4317.48 511.016   9 0.59369 0.22325-0.01031-0.13505 0.93237-0.87275
  11  -1  -3 3856.77 484.728   3 0.63699 0.17909 0.38536-0.53053 0.81197-0.75136
 -11  -1   3 4223.61 530.518   5-0.25366-0.56306 0.03717-0.18331 0.86576-0.92572
 -11  -1   2 3814.70 502.029   5-0.31383-0.51750 0.00457-0.15074 0.83341-0.94889
  11  -1  -2 4114.69 497.332   3 0.59301 0.23773 0.37886-0.52407 0.84167-0.72554
  11  -1  -2 3412.74 471.282   9 0.54881 0.28271 0.03296-0.17829 0.95019-0.83504
 -11  -1   1 3457.46 484.008   5-0.37361-0.47233-0.02870-0.11749 0.79613-0.96713
  11  -1  -1 4227.98 500.950   3 0.54832 0.29708 0.37120-0.51644 0.86736-0.69569
  11  -1  -1 3231.63 458.382   9 0.50439 0.34173 0.07333-0.21865 0.96271-0.79204
  11  -1   0 2793.49 437.619   9 0.46138 0.39933 0.11042-0.25572 0.97067-0.74448
 -11  -1   0 2889.11 461.299   2-0.40342-0.45644-0.22911 0.08399-0.96088 0.73469
  11  -1   0 3937.68 542.720   1 0.33112 0.52931-0.65863 0.51164-0.56639 0.79193
 -11  -1   0 2597.82 419.858   5-0.43212-0.42843-0.06221-0.08400 0.75423-0.98074
  11  -1   0 3081.85 439.730   3 0.50375 0.35632 0.36263-0.50792 0.88903-0.66183
  11  -1   1 3074.35 508.425   1 0.38185 0.49314-0.65696 0.51001-0.52844 0.80949
  11  -1   1 2050.11 394.207   9 0.42057 0.45474 0.14400-0.28928 0.97487-0.69315
 -11  -1  -1 2430.03 428.180   2-0.35741-0.51705-0.22861 0.08345-0.96777 0.68605
 -11  -1  -1 2272.71 413.253   5-0.48857-0.38659-0.09552-0.05072 0.70813-0.99016
  11  -1   1 2118.87 377.383   3 0.46011 0.41462 0.35344-0.49877 0.90685-0.62412
  11  -1   2 1870.41 375.628   9 0.38257 0.50733 0.17398-0.31925 0.97612-0.63888
 -11  -1  -2 1899.39 409.561   2-0.31452-0.57454-0.22764 0.08246-0.97195 0.63469
  11  -1   2 1765.31 402.144   1 0.43141 0.45815-0.65317 0.50626-0.48874 0.82531
 -11  -1  -2 2313.27 412.106   5-0.54228-0.34749-0.12824-0.01802 0.65837-0.99592
  11  -1   2 2090.71 380.648   3 0.41816 0.47123 0.34394-0.48930 0.92110-0.58284
  11  -1   3 831.653 255.896   9 0.34781 0.55668 0.20041-0.34566 0.97519-0.58242
 -11  -1  -3 482.591 237.552   2-0.27515-0.62851-0.22636 0.08114-0.97398 0.58118
  11  -1   3 781.979 245.190   3 0.37856 0.52549 0.33440-0.47981 0.93217-0.53838
  11  -1   3 934.748 311.794   1 0.47948 0.42463-0.64727 0.50040-0.44753 0.83962
  11  -1   4 234.538 168.820   9 0.31656 0.60252 0.22342-0.36864 0.97276-0.52447
 -11  -1  -4 520.474 242.123   2-0.23956-0.67870-0.22489 0.07964-0.97437 0.52605
  11  -1   5 2241.41 445.115   9 0.28894 0.64473 0.24317-0.38838 0.96942-0.46561
 -11  -1  -5 1959.27 426.931   2-0.20789-0.72497-0.22333 0.07805-0.97361 0.46975
  11  -1   5 1622.57 409.258   1 0.57029 0.36295-0.62938 0.48259-0.36149 0.86461
  11  -1   6-237.994 254.407   1 0.61268 0.33512-0.61753 0.47077-0.31707 0.87570
  11  -1   6 205.004 149.900   9 0.26499 0.68328 0.25988-0.40507 0.96566-0.40632
 -11  -1  -6-61.8443 194.757   2-0.18019-0.76727-0.22179 0.07647-0.97211 0.41271
  11   0 -14 4467.24 631.739   7 0.59068 0.06525-0.79315 0.79363 0.01551-0.56619
 -11   0  14 3787.48 572.608   5 0.28597-0.94190 0.29458-0.29465 0.95508-0.40427
 -11   0  13 2609.54 463.831   5 0.26126-0.93180 0.28416-0.28426 0.95885-0.46357
  11   0 -13 2063.53 433.212   7 0.57802 0.09255-0.80738 0.80789 0.04183-0.53697
 -11   0  12 944.291 292.675   5 0.23218-0.91734 0.27172-0.27183 0.96224-0.52247
  11   0 -12 672.681 262.446   7 0.56497 0.12024-0.82022 0.82076 0.06741-0.50700
 -11   0  11 76.7355 158.687   5 0.19849-0.89826 0.25706-0.25720 0.96479-0.58054
  11   0 -11-29.9956 123.740   7 0.55162 0.14823-0.83172 0.83228 0.09217-0.47622
 -11   0  10 274.167 190.924   5 0.15998-0.87436 0.24000-0.24016 0.96594-0.63721
  11   0 -10-227.647 167.616   7 0.53809 0.17641-0.84193 0.84252 0.11604-0.44454
 -11   0   9 245.832 157.325   5 0.11656-0.84555 0.22037-0.22056 0.96504-0.69183
  11   0  -9 25.3178 129.843   7 0.52449 0.20465-0.85089 0.85151 0.13892-0.41188
  11   0  -8 268.683 171.345   3 0.77699-0.03415 0.39649-0.39579 0.67669-0.89383
 -11   0   8 187.818 162.879   5 0.06823-0.81183 0.19807-0.19828 0.96136-0.74367
  11   0  -8 144.417 148.145   7 0.51096 0.23283-0.85866 0.85931 0.16072-0.37813
  11   0  -7 20292.0 1129.26   3 0.74047 0.01703 0.39538-0.39472 0.71960-0.88122
 -11   0   7 20369.7 1124.92   5 0.01520-0.77341 0.17304-0.17327 0.95413-0.79196
  11   0  -7 20999.2 1156.10   7 0.49765 0.26078-0.86531 0.86598 0.18130-0.34316
  11   0  -6 498.908 218.511   3 0.70079 0.07137 0.39257-0.39195 0.75940-0.86549
 -11   0   6 402.570 171.717   5-0.04216-0.73066 0.14532-0.14558 0.94259-0.83593
  11   0  -6 216.952 144.655   7 0.48474 0.28833-0.87089 0.87160 0.20053-0.30684
  11   0  -5 56.4236 146.365   3 0.65842 0.12841 0.38810-0.38752 0.79568-0.84623
 -11   0   5 79.7239 124.520   5-0.10323-0.68420 0.11507-0.11534 0.92601-0.87487
  11   0  -5 48.7650 111.758   7 0.47245 0.31527-0.87549 0.87622 0.21823-0.26899
  11   0  -4 15288.6 892.484   9 0.63551 0.16693-0.05333 0.05383 0.91016-0.90601
  11   0  -4 15322.7 975.375   3 0.61395 0.18753 0.38209-0.38155 0.82812-0.82314
 -11   0   4 13701.2 901.431   5-0.16719-0.63485 0.08255-0.08285 0.90385-0.90823
  11   0  -4 15488.6 919.465   7 0.46100 0.34136-0.87919 0.87994 0.23420-0.22942
  11   0  -3 5738.45 559.939   9 0.58400 0.23303-0.00073 0.00125 0.93670-0.87704
 -11   0   3 6290.83 614.945   5-0.23303-0.58363 0.04815-0.04847 0.87572-0.93562
  11   0  -3 5262.58 581.169   3 0.56810 0.24804 0.37471-0.37421 0.85651-0.79600
  11   0  -2 17.3275 108.422   9 0.53166 0.29997 0.04882-0.04828 0.95558-0.84039
  11   0  -2 178.873 185.357   1 0.33544 0.49564-0.65857 0.65718-0.56326 0.67787
 -11   0   2 31.5000 106.077   5-0.29960-0.53167 0.01236-0.01271 0.84151-0.95693
  11   0  -2 96.1473 119.371   3 0.52164 0.30917 0.36617-0.36571 0.88077-0.76474
  11   0  -1 855.069 230.371   9 0.48002 0.36620 0.09457-0.09402 0.96769-0.79698
 -11   0   1 815.645 234.457   5-0.36572-0.48015-0.02425 0.02388 0.80136-0.97230
  11   0  -1 792.716 263.839   3 0.47536 0.37011 0.35674-0.35632 0.90098-0.72942
  11   0  -1 790.276 271.569   1 0.38330 0.46234-0.65688 0.65553-0.52732 0.69744
  11   0   0 935.419 256.012   9 0.43041 0.43041 0.13604-0.13547 0.97414-0.74790
  11   0   0 812.723 276.438   1 0.43010 0.43010-0.65330 0.65199-0.48982 0.71546
 -11   0   0 914.133 243.879   5-0.43024-0.43024-0.06111 0.06072 0.75566-0.98212
  11   0   0 1024.32 284.521   3 0.43007 0.43007 0.34670-0.34631 0.91733-0.69024
  11   0   1 412.783 208.971   1 0.47556 0.39920-0.64784 0.64657-0.45100 0.73215
  11   0   1 236.819 147.146   9 0.38383 0.49158 0.17301-0.17242 0.97612-0.69435
 -11   0  -1 171.431 198.402   2-0.38411-0.49044-0.22897 0.22943-0.96409 0.68245
 -11   0  -1 301.697 164.662   5-0.49213-0.38296-0.09766 0.09724 0.70502-0.98699
  11   0   1-165.595 170.145   3 0.38647 0.48832 0.33635-0.33600 0.93013-0.64751
 -11   0  -2 9823.25 778.396   5-0.55053-0.33918-0.13336 0.13292 0.65017-0.98766
  11   0   2 9861.58 821.961   3 0.34521 0.54424 0.32597-0.32567 0.93980-0.60164
  11   0   2 11367.1 926.076   1 0.51945 0.36988-0.64056 0.63933-0.41107 0.74774
 -11   0  -2 10665.3 886.515   2-0.34112-0.54803-0.22829 0.22872-0.96961 0.63244
  11   0   2 10448.1 829.737   9 0.34100 0.54899 0.20549-0.20488 0.97478-0.63750
  11   0   3 6212.49 716.544   1 0.56160 0.34229-0.63152 0.63033-0.37024 0.76243
  11   0   3 6210.03 670.392   3 0.30681 0.59730 0.31584-0.31558 0.94677-0.55308
 -11   0  -3 6041.60 683.924   2-0.30145-0.60230-0.22726 0.22765-0.97281 0.58011
  11   0   3 6137.47 654.103   9 0.30237 0.60222 0.23363-0.23300 0.97118-0.57837
  11   0   4 21.2696 105.062   9 0.26814 0.65104 0.25770-0.25706 0.96620-0.51786
 -11   0  -4 164.217 211.834   2-0.26541-0.65293-0.22599 0.22635-0.97422 0.52598
  11   0   5 77.1539 125.721   9 0.23835 0.69542 0.27803-0.27736 0.96055-0.45669
 -11   0  -5-116.030 204.354   2-0.23321-0.69973-0.22459 0.22492-0.97430 0.47053
  11   0   5 259.822 210.212   1 0.64017 0.29284-0.60844 0.60733-0.28657 0.78978
 -11   0  -6 591.185 265.915   2-0.20494-0.74261-0.22318 0.22347-0.97349 0.41418
  11   0   6-187.576 210.493   1 0.67645 0.27112-0.59456 0.59348-0.24400 0.80274
 -11   1  14 926.124 288.597   5 0.31999-0.97586 0.30869-0.16294 0.94850-0.39763
  11   1 -14 1010.98 320.853   7 0.63282 0.02325-0.72731 0.87352-0.08787-0.46274
 -11   1  13 153.506 146.561   5 0.29498-0.96546 0.29835-0.15262 0.95349-0.45815
  11   1 -13 323.997 206.909   7 0.62513 0.04558-0.74217 0.88841-0.06658-0.42849
 -11   1  12-26.1485 77.9017   6-0.38372-0.30181 0.91927-0.77394-0.01809 0.45827
  11   1 -12-134.034 144.549   7 0.61731 0.06805-0.75573 0.90199-0.04626-0.39327
 -11   1  11 582.204 207.000   6-0.35390-0.34622 0.93190-0.78654-0.01823 0.40288
 -11   1  11 562.192 238.786   5 0.23039-0.93009 0.27094-0.12526 0.96241-0.57810
  11   1 -11 677.092 247.428   7 0.60947 0.09053-0.76800 0.91429-0.02700-0.35697
 -11   1  10 2396.50 394.541   6-0.32808-0.38664 0.94187-0.79650-0.01834 0.34745
 -11   1  10 2180.46 385.194   5 0.19011-0.90443 0.25337-0.10772 0.96520-0.63641
  11   1 -10 3039.51 491.990   7 0.60174 0.11291-0.77900 0.92532-0.00895-0.31947
 -11   1   9 4260.82 524.092   6-0.30618-0.42313 0.94965-0.80427-0.01842 0.29199
 -11   1   9 4101.07 520.815   5 0.14419-0.87311 0.23291-0.08727 0.96588-0.69261
  11   1  -9 4886.50 593.339   7 0.59426 0.13503-0.78875 0.93510 0.00774-0.28062
 -11   1   8 729.406 230.978   6-0.28815-0.45576 0.95561-0.81021-0.01847 0.23651
  11   1  -8 1683.92 355.741   3 0.74313-0.00022 0.39551-0.24914 0.71670-0.93395
 -11   1   8 1005.59 270.642   5 0.09252-0.83606 0.20934-0.06373 0.96356-0.74581
  11   1  -8 1192.63 296.033   7 0.58720 0.15673-0.79724 0.94362 0.02289-0.24023
 -11   1   7 3578.28 485.170   6-0.27396-0.48455 0.96002-0.81460-0.01851 0.18101
 -11   1   7 3036.18 438.905   5 0.03523-0.79337 0.18256-0.03697 0.95725-0.79502
  11   1  -7 3185.59 446.700   7 0.58076 0.17782-0.80446 0.95086 0.03627-0.19805
  11   1  -7 3380.34 485.835   3 0.70332 0.05425 0.39279-0.24646 0.75704-0.91876
 -11   1   6 7907.67 713.427   6-0.26356-0.50955 0.96309-0.81766-0.01854 0.12550
  11   1  -6 9318.15 786.769   3 0.66078 0.11145 0.38838-0.24210 0.79380-0.89999
 -11   1   6 9162.63 719.123   5-0.02732-0.74543 0.15256-0.00699 0.94595-0.83923
  11   1  -6 10790.6 788.891   7 0.57515 0.19807-0.81035 0.95678 0.04758-0.15382
 -11   1   5 7344.77 691.064   6-0.25694-0.53077 0.96498-0.81953-0.01856 0.06998
  11   1  -5 6772.45 665.855   3 0.61609 0.17080 0.38241-0.23616 0.82667-0.87733
 -11   1   5 7050.22 624.285   5-0.09444-0.69293 0.11947 0.02607 0.92867-0.87747
  11   1  -5 7535.55 646.930   1 0.34650 0.44066-0.65835 0.80252-0.55516 0.50332
 -11   1   4 3250.88 462.288   6-0.25408-0.54822 0.96577-0.82031-0.01856 0.01445
 -11   1   4 3080.68 420.175   5-0.16512-0.63685 0.08361 0.06191 0.90464-0.90896
  11   1  -4 2808.23 436.357   3 0.56993 0.23162 0.37503-0.22882 0.85546-0.85059
  11   1  -4 3691.71 461.282   1 0.38876 0.41297-0.65657 0.80077-0.52307 0.52674
 -11   1   3 3999.01 517.395   6-0.25498-0.56191 0.96552-0.82004-0.01856-0.04109
 -11   1   3 4566.90 498.639   5-0.23808-0.57850 0.04547 0.10003 0.87333-0.93317
  11   1  -3 3165.19 464.403   3 0.52303 0.29318 0.36644-0.22027 0.88011-0.81971
  11   1  -3 4812.04 537.016   1 0.43049 0.38581-0.65326 0.79751-0.48950 0.54869
 -11   1   2 3895.17 505.673   6-0.25964-0.57185 0.96421-0.81871-0.01855-0.09664
 -11   1   2 4011.90 468.605   5-0.31183-0.51937 0.00567 0.13980 0.83457-0.94992
  11   1  -2 3686.37 489.217   1 0.47137 0.35949-0.64843 0.79272-0.45469 0.56939
  11   1  -2 3278.70 473.946   3 0.47617 0.35470 0.35691-0.21078 0.90066-0.78473
 -11   1   1 4026.50 516.537   6-0.26808-0.57801 0.96177-0.81626-0.01853-0.15220
  11   1  -1 4080.65 532.822   3 0.43011 0.41543 0.34671-0.20062 0.91732-0.74586
  11   1  -1 3672.74 509.047   1 0.51115 0.33427-0.64210 0.78643-0.41882 0.58904
 -11   1   0 3072.36 451.398   6-0.28032-0.58036 0.95807-0.81254-0.01850-0.20777
  11   1   0 2651.89 441.154   1 0.54964 0.31034-0.63430 0.77867-0.38209 0.60783
  11   1   0 2603.98 440.605   3 0.38554 0.47465 0.33612-0.19007 0.93038-0.70339
 -11   1  -1 1977.82 371.961   6-0.29639-0.57889 0.95294-0.80740-0.01845-0.26335
  11   1   1 2179.22 419.095   1 0.58668 0.28786-0.62509 0.76950-0.34467 0.62593
  11   1   1 2524.62 433.259   3 0.34310 0.53176 0.32543-0.17942 0.94023-0.65771
  11   1   2 1752.39 399.306   1 0.62218 0.26693-0.61452 0.75897-0.30669 0.64346
 -11   1  -2 1941.17 372.400   6-0.31634-0.57354 0.94612-0.80056-0.01838-0.31896
 -11   1  -2 1729.73 383.212   2-0.39320-0.49603-0.22905 0.37509-0.96264 0.62555
  11   1   2 2285.15 428.537   3 0.30330 0.58622 0.31490-0.16892 0.94731-0.60926
 -11   1  -3 834.944 239.552   6-0.34023-0.56425 0.93729-0.79171-0.01829-0.37459
 -11   1  -3 449.285 250.151   2-0.35342-0.55041-0.22854 0.37454-0.96825 0.57563
  11   1   3 254.297 224.464   1 0.65605 0.24762-0.60265 0.74713-0.26828 0.66057
 -11   1  -4 274.798 163.017   6-0.36813-0.55094 0.92602-0.78044-0.01816-0.43025
 -11   1  -4 173.917 189.777   2-0.31699-0.60144-0.22771 0.37368-0.97177 0.52362
  11   1   4 51.4608 175.837   1 0.68825 0.22998-0.58953 0.73405-0.22954 0.67734
 -11   1  -5 1119.60 306.185   2-0.28419-0.64884-0.22669 0.37263-0.97366 0.46998
  11   1   5 1514.04 376.697   1 0.71875 0.21404-0.57521 0.71977-0.19054 0.69387
 -11   1  -6 686.602 279.360   2-0.25517-0.69246-0.22557 0.37148-0.97436 0.41515
  11   1   6-116.922 212.573   1 0.74753 0.19983-0.55973 0.70434-0.15136 0.71020
 -11   2  14 1746.32 388.494   4 0.31703-0.97336 0.51614-0.22470 0.85114-0.30060
 -11   2  14 1571.54 368.281   5 0.33428-0.99009 0.31454-0.02296 0.94524-0.39431
 -11   2  13 2653.75 462.838   4 0.29602-0.96691 0.52543-0.23401 0.84757-0.35248
 -11   2  13 2463.67 424.712   5 0.30823-0.97864 0.30385-0.01230 0.95096-0.45555
  11   2 -13 2791.41 525.009   7 0.66054 0.01032-0.65296 0.94492-0.18235-0.31264
 -11   2  12 1324.94 330.817   4 0.27140-0.95684 0.53587-0.24446 0.84285-0.40321
 -11   2  12 563.523 209.589   6-0.24908-0.43639 0.96715-0.67595-0.01857 0.45872
  11   2 -12 1468.31 362.040   7 0.65709 0.02841-0.66492 0.95691-0.16829-0.27115
 -11   2  11 638.885 235.994   6-0.21870-0.48136 0.97486-0.68365-0.01863 0.40324
 -11   2  11 565.858 254.165   4 0.24315-0.94316 0.54728-0.25589 0.83674-0.45256
  11   2 -11 664.321 243.765   7 0.65381 0.04634-0.67532 0.96733-0.15575-0.22815
 -11   2  10 22.9170 98.1500   6-0.19254-0.52213 0.98064-0.68942-0.01866 0.34773
  11   2 -10-124.056 153.546   7 0.65083 0.06396-0.68408 0.97613-0.14493-0.18342
 -11   2   9 956.199 285.402   6-0.17045-0.55881 0.98492-0.69368-0.01868 0.29221
  11   2  -9 779.744 266.859   3 0.76235-0.03404 0.39624-0.10416 0.69472-0.96761
  11   2  -9 857.425 271.425   7 0.64829 0.08114-0.69110 0.98318-0.13610-0.13671
 -11   2   8 1154.29 308.158   6-0.15234-0.59151 0.98801-0.69676-0.01868 0.23668
  11   2  -8 1593.53 363.138   3 0.72405 0.01892 0.39440-0.10236 0.73684-0.95419
  11   2  -8 1606.54 334.400   7 0.64636 0.09772-0.69621 0.98831-0.12958-0.08768
 -11   2   7 2201.16 416.517   6-0.13813-0.62033 0.99019-0.69891-0.01868 0.18114
  11   2  -7 2593.85 449.753   3 0.68288 0.07475 0.39085-0.09885 0.77544-0.93726
 -11   2   6 518.360 208.634   6-0.12774-0.64531 0.99163-0.70034-0.01868 0.12560
  11   2  -6-309.588 196.114   3 0.63939 0.13291 0.38568-0.09372 0.81021-0.91650
 -11   2   5 1230.46 313.119   6-0.12113-0.66651 0.99249-0.70119-0.01868 0.07006
  11   2  -5 1014.56 282.526   3 0.59418 0.19278 0.37905-0.08713 0.84094-0.89171
 -11   2   4 1330.23 316.089   6-0.11829-0.68396 0.99285-0.70153-0.01867 0.01452
  11   2  -4 1847.57 378.627   3 0.54795 0.25366 0.37113-0.07925 0.86755-0.86279
 -11   2   3 766.723 251.522   6-0.11918-0.69766 0.99274-0.70140-0.01867-0.04102
  11   2  -3 265.510 183.440   3 0.50144 0.31484 0.36216-0.07032 0.89005-0.82976
 -11   2   2 820.920 276.037   6-0.12382-0.70762 0.99215-0.70080-0.01868-0.09656
  11   2  -2 1282.48 318.244   3 0.45537 0.37557 0.35240-0.06060 0.90860-0.79277
 -11   2   1 228.664 154.771   6-0.13222-0.71382 0.99102-0.69966-0.01868-0.15209
  11   2  -1-50.6301 126.816   3 0.41042 0.43518 0.34211-0.05035 0.92344-0.75209
 -11   2   0 3351.86 496.568   6-0.14443-0.71621 0.98925-0.69787-0.01868-0.20763
  11   2   0 2906.11 468.443   3 0.36723 0.49303 0.33158-0.03986 0.93493-0.70804
  11   2   0 2536.42 427.302   1 0.67989 0.17986-0.59312 0.88316-0.23982 0.46566
 -11   2  -1 320.580 168.896   6-0.16049-0.71474 0.98667-0.69527-0.01868-0.26317
  11   2   1 381.273 184.973   1 0.70574 0.16858-0.58156 0.87165-0.20747 0.48883
  11   2   1 751.409 283.152   3 0.32632 0.54860 0.32105-0.02937 0.94346-0.66104
  11   2   2 6857.40 733.644   1 0.73062 0.15827-0.56908 0.85920-0.17469 0.51156
 -11   2  -2 6231.27 669.015   6-0.18049-0.70933 0.98304-0.69163-0.01867-0.31871
  11   2   2 6784.16 732.390   3 0.28814 0.60144 0.31076-0.01912 0.94948-0.61153
 -11   2  -3 1560.29 349.589   6-0.20453-0.69989 0.97809-0.68666-0.01865-0.37427
  11   2   3 1867.64 410.741   1 0.75447 0.14898-0.55568 0.84585-0.14153 0.53392
 -11   2  -4 4370.21 550.707   6-0.23274-0.68628 0.97143-0.67998-0.01861-0.42985
 -11   2  -4 5121.32 618.428   2-0.39551-0.52300-0.22906 0.52065-0.96225 0.51419
  11   2   4 5489.94 695.840   1 0.77723 0.14077-0.54140 0.83160-0.10804 0.55596
  11   2   5 407.587 300.693   1 0.79888 0.13369-0.52623 0.81647-0.07429 0.57772
 -11   2  -5 226.793 202.493   2-0.36239-0.57072-0.22869 0.52024-0.96715 0.46356
  11   3 -12 448.232 218.794   7 0.67849 0.00717-0.54991 0.98763-0.29037-0.14901
 -11   3  11 3568.03 565.052   4 0.27261-0.97258 0.53537-0.09827 0.84310-0.45887
 -11   3  11 3812.90 539.533   6-0.10533-0.59468 0.99435-0.55728-0.01866 0.40323
  11   3 -11 3083.01 515.216   7 0.67792 0.02237-0.55603 0.99378-0.28452-0.09931
 -11   3  10 2510.65 459.396   6-0.07985-0.63475 0.99677-0.55969-0.01864 0.34767
 -11   3  10 2505.54 471.139   4 0.24319-0.95773 0.54727-0.11018 0.83675-0.50798
  11   3 -10 2540.01 448.396   7 0.67755 0.03739-0.55979 0.99756-0.28090-0.04739
 -11   3   9 880.508 275.752   6-0.05844-0.67077 0.99826-0.56117-0.01860 0.29210
  11   3  -9 702.807 266.016   3 0.75923-0.03086 0.39615 0.04159 0.69841-0.97140
 -11   3   8 1129.49 316.623   6-0.04093-0.70287 0.99912-0.56200-0.01857 0.23653
  11   3  -8 1364.41 345.158   3 0.72084 0.02220 0.39417 0.04353 0.74008-0.95754
 -11   3   7 5766.61 666.061   6-0.02722-0.73117 0.99955-0.56242-0.01854 0.18096
  11   3  -7 6909.60 727.443   3 0.67983 0.07787 0.39053 0.04714 0.77807-0.93999
 -11   3   6 148.765 180.209   6-0.01723-0.75576 0.99975-0.56260-0.01852 0.12540
  11   3  -6 446.590 235.590   3 0.63677 0.13559 0.38533 0.05230 0.81213-0.91852
 -11   3   5 830.582 287.895   6-0.01089-0.77670 0.99981-0.56265-0.01850 0.06984
  11   3  -5 923.040 293.272   3 0.59229 0.19473 0.37875 0.05884 0.84212-0.89299
 -11   3   4 348.281 215.007   6-0.00817-0.79402 0.99983-0.56265-0.01849 0.01430
  11   3  -4 538.169 229.158   3 0.54707 0.25461 0.37097 0.06658 0.86802-0.86336
 -11   3   3 1199.82 314.096   6-0.00904-0.80774 0.99982-0.56263-0.01850-0.04124
  11   3  -3 2040.35 411.481   3 0.50180 0.31454 0.36224 0.07527 0.88990-0.82970
 -11   3   2 4024.55 574.190   6-0.01351-0.81787 0.99979-0.56258-0.01851-0.09677
  11   3  -2 4029.11 567.348   3 0.45715 0.37385 0.35279 0.08467 0.90794-0.79222
 -11   3   1 1170.00 327.888   6-0.02161-0.82437 0.99967-0.56245-0.01853-0.15228
  11   3  -1 784.654 281.775   3 0.41376 0.43190 0.34290 0.09453 0.92244-0.75119
 -11   3   0 1731.31 378.832   6-0.03338-0.82720 0.99938-0.56214-0.01856-0.20779
  11   3   0 1963.04 414.058   3 0.37218 0.48814 0.33282 0.10457 0.93374-0.70696
 -11   3  -1 448.946 220.555   6-0.04888-0.82629 0.99877-0.56151-0.01859-0.26330
  11   3   1 1177.07 326.477   3 0.33289 0.54210 0.32277 0.11458 0.94224-0.65993
 -11   3  -2 553.799 230.482   6-0.06823-0.82154 0.99764-0.56037-0.01862-0.31880
  11   3   2 1103.20 286.146   3 0.29626 0.59339 0.31298 0.12433 0.94835-0.61051
 -11   3  -3-16.4350 142.478   6-0.09155-0.81281 0.99575-0.55846-0.01865-0.37431
  11   4  -9 266.553 187.608   3 0.77052-0.04208 0.39642 0.18700 0.68480-0.95790
  11   4  -8 525.376 236.660   3 0.73335 0.00975 0.39499 0.18839 0.72722-0.94478
  11   4  -7 878.980 299.354   3 0.69370 0.06406 0.39192 0.19142 0.76588-0.92791
  11   4  -7 584.828 222.706  10-0.03366 0.79263 0.34711 0.23590-0.91299 0.75074
  11   4  -6 536.519 249.282   3 0.65214 0.12029 0.38733 0.19597 0.80058-0.90709
  11   4  -6 788.987 236.480  10-0.00450 0.77805 0.39209 0.19094-0.88860 0.78190
 -11   4   5 3291.10 533.661   6 0.07018-0.85771 0.99685-0.41383-0.01822 0.06952
  11   4  -5 2850.44 498.490   3 0.60928 0.17780 0.38139 0.20186 0.83123-0.88220
  11   4  -5 3313.80 495.190  10 0.02597 0.76218 0.43773 0.14532-0.86013 0.80896
 -11   4   4 3311.84 543.311   6 0.07273-0.87486 0.99664-0.41361-0.01821 0.01397
  11   4  -4 2865.44 499.293   3 0.56578 0.23596 0.37431 0.20891 0.85782-0.85326
  11   4  -4 3003.12 481.774  10 0.05742 0.74532 0.48338 0.09969-0.82753 0.83189
 -11   4   3 719.029 296.018   6 0.07189-0.88862 0.99671-0.41366-0.01821-0.04156
  11   4  -3 313.045 199.033   3 0.52230 0.29411 0.36630 0.21688 0.88046-0.82037
  11   4  -2 351.144 203.389   3 0.47946 0.35161 0.35761 0.22553 0.89934-0.78372
  11   4  -1 689.236 270.418   3 0.43784 0.40789 0.34847 0.23462 0.91475-0.74360
  12  -3  -8 1414.70 378.071   9 0.79220 0.02983-0.25491-0.18223 0.74291-0.94044
  12  -3  -7 1560.87 372.846   9 0.76997 0.06665-0.21984-0.21728 0.78010-0.92210
 -12  -3   7 1839.32 428.278   5-0.21075-0.62589 0.05989-0.49762 0.88586-0.74445
  12  -3  -6 496.800 228.596   9 0.74542 0.10580-0.18468-0.25243 0.81373-0.90021
 -12  -3   6 323.937 203.654   5-0.25301-0.59824 0.03751-0.47526 0.86608-0.78019
  12  -3  -5 602.873 244.950   9 0.71894 0.14687-0.14980-0.28729 0.84370-0.87466
 -12  -3   5 899.077 295.576   5-0.29660-0.56925 0.01399-0.45177 0.84318-0.81281
  12  -3  -4 1372.17 354.148   9 0.69103 0.18938-0.11558-0.32149 0.86997-0.84540
 -12  -3   4 377.416 233.799   5-0.34109-0.53938-0.01048-0.42731 0.81707-0.84222
  12  -3  -3 691.531 258.333   9 0.66217 0.23283-0.08239-0.35467 0.89260-0.81251
 -12  -3   3 804.746 282.307   5-0.38599-0.50909-0.03571-0.40211 0.78773-0.86840
  12  -3  -2 1547.75 375.320   9 0.63288 0.27671-0.05053-0.38650 0.91174-0.77612
 -12  -3   2 669.255 266.349   5-0.43084-0.47885-0.06146-0.37638 0.75521-0.89139
  12  -2 -12 138.114 146.746   9 0.85241-0.08865-0.38936 0.09802 0.56008-0.97966
  12  -2 -11 273.026 191.534   9 0.84145-0.06310-0.35523 0.06390 0.61347-0.97752
  12  -2 -10 3938.12 573.545   9 0.82647-0.03353-0.31925 0.02794 0.66421-0.97273
 -12  -2  10 3429.97 552.844   5-0.02088-0.77185 0.15568-0.44752 0.94732-0.63930
  12  -2  -9 1179.95 315.626   9 0.80758-0.00004-0.28175-0.00953 0.71181-0.96481
 -12  -2   9 1079.40 309.696   5-0.05926-0.74809 0.13693-0.42879 0.93839-0.68589
  12  -2  -8 393.153 168.406   9 0.78500 0.03713-0.24313-0.04814 0.75583-0.95331
 -12  -2   8 350.754 203.138   5-0.10056-0.72140 0.11641-0.40829 0.92683-0.72985
  12  -2  -7 3292.97 520.783   9 0.75906 0.07767-0.20382-0.08743 0.79586-0.93782
 -12  -2   7 3502.25 549.161   5-0.14449-0.69208 0.09419-0.38610 0.91229-0.77082
  12  -2  -6 3037.42 491.313   9 0.73021 0.12111-0.16432-0.12692 0.83163-0.91806
 -12  -2   6 4246.56 589.714   5-0.19065-0.66053 0.07040-0.36233 0.89446-0.80851
  12  -2  -5 431.214 207.312   9 0.69900 0.16691-0.12513-0.16609 0.86295-0.89386
 -12  -2   5 995.979 292.797   5-0.23860-0.62719 0.04519-0.33714 0.87309-0.84266
  12  -2  -4 544.928 244.034   9 0.66606 0.21444-0.08675-0.20444 0.88978-0.86517
 -12  -2   4 407.266 236.426   5-0.28781-0.59260 0.01878-0.31075 0.84801-0.87310
  12  -2  -3 1344.53 347.344   9 0.63205 0.26304-0.04966-0.24152 0.91223-0.83209
 -12  -2   3 1128.87 311.874   5-0.33770-0.55731-0.00860-0.28340 0.81916-0.89977
  12  -2  -2 236.473 164.545   9 0.59765 0.31203-0.01427-0.27689 0.93051-0.79485
 -12  -2   2-340.689 199.611   5-0.38769-0.52193-0.03667-0.25535 0.78656-0.92268
 -12  -2   1 5947.61 700.415   5-0.43720-0.48704-0.06516-0.22688 0.75032-0.94196
  12  -2  -1 5929.04 697.568   9 0.56351 0.36076 0.01908-0.31022 0.94497-0.75378
  12  -2   0 954.899 294.104   9 0.53023 0.40864 0.05012-0.34125 0.95600-0.70929
 -12  -2   0 1172.22 358.683   5-0.48566-0.45319-0.09378-0.19829 0.71065-0.95781
  12  -2   0 1885.75 449.595   1 0.31036 0.62848-0.65870 0.36591-0.58118 0.82712
  12  -2   1 792.298 305.941   9 0.49833 0.45514 0.07867-0.36978 0.96407-0.66184
 -12  -2  -1 766.514 296.536   2-0.40234-0.55022-0.22910-0.06161-0.96108 0.65871
  12  -2   1 436.165 252.101   1 0.35907 0.59434-0.65798 0.36523-0.54581 0.84727
 -12  -2  -1 804.022 310.360   5-0.53257-0.42088-0.12224-0.16985 0.66783-0.97051
  12  -2   2-10.2748 133.475   9 0.46824 0.49982 0.10463-0.39571 0.96966-0.61190
 -12  -2  -2-33.9056 150.532   2-0.36442-0.60273-0.22872-0.06203-0.96689 0.60899
 -12  -1  12 3858.44 584.740   5 0.10914-0.87259 0.21698-0.36295 0.96466-0.54554
  12  -1 -12 3316.34 544.741   7 0.51658 0.24675-0.85556 0.71045 0.15177-0.57080
 -12  -1  11 1335.89 369.921   5 0.07597-0.85403 0.20167-0.34767 0.96214-0.59854
  12  -1 -11 1677.36 383.506   7 0.50000 0.27797-0.86420 0.71911 0.17771-0.54120
 -12  -1  10 2078.27 430.146   5 0.03905-0.83172 0.18437-0.33039 0.95780-0.64971
  12  -1 -10 2348.65 439.022   7 0.48327 0.30935-0.87148 0.72642 0.20267-0.51061
 -12  -1   9 1800.90 402.583   5-0.00154-0.80574 0.16502-0.31106 0.95116-0.69860
  12  -1  -9 1521.79 370.214   7 0.46651 0.34076-0.87748 0.73245 0.22658-0.47897
  12  -1  -8 3163.31 463.025   9 0.78685 0.03537-0.24612 0.10073 0.75259-0.95002
 -12  -1   8 3823.64 556.211   5-0.04563-0.77626 0.14363-0.28969 0.94176-0.74472
  12  -1  -8 2698.75 484.553   7 0.44985 0.37206-0.88228 0.73727 0.24933-0.44618
  12  -1  -7 2449.21 432.808   9 0.75780 0.07902-0.20202 0.05664 0.79759-0.93950
 -12  -1   7 2265.58 438.221   5-0.09291-0.74359 0.12023-0.26632 0.92913-0.78760
  12  -1  -6 1798.88 368.018   9 0.72493 0.12648-0.15746 0.01211 0.83740-0.92378
  12  -1  -6 1621.98 343.455   3 0.76052 0.08978 0.39619-0.54120 0.69690-0.78224
 -12  -1   6 1561.82 358.816   5-0.14299-0.70812 0.09495-0.24106 0.91282-0.82681
  12  -1  -5 2665.15 437.713   9 0.68898 0.17702-0.11316-0.03218 0.87171-0.90257
  12  -1  -5 2673.69 436.825   3 0.72665 0.13831 0.39457-0.53962 0.73419-0.76400
 -12  -1   5 2792.90 466.614   5-0.19535-0.67037 0.06795-0.21408 0.89249-0.86200
  12  -1  -4 888.565 275.490   9 0.65079 0.22981-0.06981-0.07551 0.90046-0.87579
  12  -1  -4 978.144 266.167   3 0.69075 0.18887 0.39163-0.53672 0.76853-0.74280
 -12  -1   4 1031.87 292.036   5-0.24937-0.63096 0.03946-0.18561 0.86787-0.89290
  12  -1  -3 4314.76 545.993   9 0.61127 0.28392-0.02805-0.11726 0.92376-0.84357
  12  -1  -3 4934.19 583.175   3 0.65332 0.24096 0.38748-0.53261 0.79967-0.71842
 -12  -1   3 4073.59 551.468   5-0.30436-0.59058 0.00976-0.15594 0.83883-0.91938
  12  -1  -2 1974.70 384.855   9 0.57134 0.33844 0.01158-0.15686 0.94195-0.80624
  12  -1  -2 1869.68 368.648   3 0.61492 0.29402 0.38224-0.52741 0.82747-0.69068
 -12  -1   2 2750.99 470.302   5-0.35959-0.54997-0.02081-0.12539 0.80536-0.94142
  12  -1  -1 966.000 285.293   9 0.53187 0.39251 0.04863-0.19389 0.95552-0.76429
  12  -1  -1 890.635 317.767   1 0.33211 0.59196-0.65862 0.51146-0.56568 0.75621
 -12  -1   1 399.108 208.222   5-0.41432-0.50985-0.05190-0.09432 0.76758-0.95916
  12  -1  -1 1126.74 290.847   3 0.57618 0.34742 0.37609-0.52130 0.85185-0.65953
  12  -1   0 2510.67 434.470   9 0.49363 0.44534 0.08279-0.22804 0.96507-0.71831
  12  -1   0 3327.20 545.912   1 0.37872 0.55991-0.65713 0.51002-0.53086 0.77691
 -12  -1   0 3110.83 483.836   5-0.46783-0.47095-0.08316-0.06309 0.72576-0.97286
  12  -1   0 3572.80 496.266   3 0.53773 0.40053 0.36924-0.51449 0.87285-0.62500
  12  -1   1 2759.02 477.756   9 0.45726 0.49630 0.11388-0.25911 0.97124-0.66895
 -12  -1  -1 3071.68 520.255   2-0.40409-0.54855-0.22911 0.08401-0.96077 0.65848
  12  -1   1 3062.92 534.321   1 0.42467 0.52851-0.65382 0.50674-0.49430 0.79586
 -12  -1  -1 2533.87 455.849   5-0.51949-0.43390-0.11423-0.03205 0.68024-0.98286
  12  -1   2 3677.27 595.337   1 0.46969 0.49806-0.64866 0.50163-0.45616 0.81324
 -12  -1  -2 3756.52 588.435   2-0.36611-0.60112-0.22874 0.08360-0.96666 0.60885
 -12  -1  -2 3431.09 522.495   5-0.56875-0.39925-0.14478-0.00151 0.63146-0.98959
  12  -1   2 3618.43 547.928   9 0.42328 0.54487 0.14181-0.28702 0.97468-0.61688
  12  -1   3 1699.01 370.545   9 0.39206 0.59069 0.16660-0.31180 0.97603-0.56270
 -12  -1  -3 1248.73 350.716   2-0.33112-0.65071-0.22807 0.08290-0.97058 0.55724
  12  -1   3 1451.79 409.225   1 0.51351 0.46880-0.64167 0.49468-0.41663 0.82922
  12  -1   4 5441.22 695.799   9 0.36385 0.63349 0.18833-0.33351 0.97585-0.50700
 -12   0  13 320.405 238.151   5 0.18537-0.93415 0.25128-0.25141 0.96539-0.49069
  12   0 -13 161.482 172.999   7 0.58229 0.16654-0.80278 0.80337 0.03312-0.50763
 -12   0  12-32.9115 136.010   5 0.15511-0.91850 0.23782-0.23797 0.96595-0.54677
  12   0 -12 105.064 172.281   7 0.57058 0.19290-0.81491 0.81553 0.05660-0.47556
 -12   0  11 175.012 167.274   5 0.12066-0.89865 0.22224-0.22242 0.96522-0.60156
  12   0 -11-230.960 176.479   7 0.55875 0.21938-0.82578 0.82642 0.07912-0.44253
 -12   0  10 5088.42 623.314   5 0.08194-0.87454 0.20445-0.20464 0.96269-0.65455
  12   0 -10 3797.81 569.047   7 0.54692 0.24585-0.83542 0.83609 0.10060-0.40847
 -12   0   9-39.1059 136.792   5 0.03897-0.84619 0.18434-0.18456 0.95779-0.70516
  12   0  -9 193.323 187.325   7 0.53523 0.27218-0.84391 0.84461 0.12094-0.37326
  12   0  -8 1156.89 317.914   3 0.77725 0.04379 0.39650-0.39576 0.67636-0.87286
 -12   0   8 1241.82 309.108   5-0.00810-0.81373 0.16187-0.16211 0.94991-0.75280
  12   0  -8 1481.89 339.332   7 0.52382 0.29823-0.85130 0.85202 0.14002-0.33679
  12   0  -7 9553.87 824.037   3 0.74369 0.09200 0.39554-0.39485 0.71609-0.85706
 -12   0   7 9844.45 831.064   5-0.05900-0.77743 0.13706-0.13732 0.93846-0.79687
  12   0  -7 9243.17 799.175   7 0.51287 0.32383-0.85763 0.85838 0.15769-0.29892
  12   0  -6-57.1163 144.829   3 0.70769 0.14266 0.39316-0.39250 0.75292-0.83836
 -12   0   6-363.029 211.340   5-0.11331-0.73773 0.11000-0.11029 0.92285-0.83678
  12   0  -6-7.70816 111.971   7 0.50255 0.34879-0.86297 0.86375 0.17381-0.25949
  12   0  -5 1735.33 363.775   3 0.66969 0.19533 0.38942-0.38880 0.78658-0.81650
 -12   0   5 1667.61 360.297   5-0.17044-0.69522 0.08087-0.08119 0.90259-0.87204
  12   0  -4 2408.69 424.331   3 0.63018 0.24950 0.38443-0.38385 0.81688-0.79126
 -12   0   4 3056.79 461.325   5-0.22963-0.65063 0.04994-0.05028 0.87731-0.90227
  12   0  -3 2223.78 410.646   3 0.58976 0.30459 0.37834-0.37780 0.84369-0.76254
 -12   0   3 2323.89 404.184   5-0.29005-0.60483 0.01756-0.01792 0.84679-0.92727
  12   0  -3 2746.85 475.266   1 0.34105 0.55366-0.65847 0.65692-0.55917 0.63877
 -12   0   2 475.553 207.424   5-0.35077-0.55872-0.01588 0.01549 0.81101-0.94701
  12   0  -2 269.071 215.580   3 0.54903 0.35997 0.37133-0.37083 0.86698-0.73030
  12   0  -2 737.223 271.507   1 0.38435 0.52493-0.65682 0.65531-0.52651 0.66162
 -12   0   1 7986.12 727.516   5-0.41084-0.51326-0.04990 0.04950 0.77013-0.96165
  12   0  -1 7588.45 731.294   3 0.50863 0.41504 0.36361-0.36315 0.88684-0.69463
  12   0  -1 8109.75 791.688   1 0.42716 0.49668-0.65358 0.65211-0.49225 0.68288
 -12   0   0 5188.25 595.399   5-0.46936-0.46936-0.08406 0.08364 0.72449-0.97153
  12   0   0 5875.02 663.117   3 0.46916 0.46916 0.35541-0.35499 0.90341-0.65567
  12   0   0 5131.86 649.925   1 0.46920 0.46920-0.64873 0.64730-0.45658 0.70273
  12   0   1 284.108 157.874   9 0.42816 0.52550 0.13786-0.13722 0.97432-0.67199
 -12   0  -1 13.4172 100.521   5-0.52550-0.42782-0.11790 0.11745 0.67458-0.97714
  12   0   1 96.5666 152.386   3 0.43120 0.52178 0.34696-0.34658 0.91696-0.61369
  12   0   1-24.1150 159.874   1 0.51023 0.44273-0.64226 0.64087-0.41967 0.72133
  12   0   2 5038.19 683.134   1 0.55006 0.41747-0.63421 0.63285-0.38168 0.73886
  12   0   2 4317.46 582.930   3 0.39525 0.57240 0.33848-0.33814 0.92778-0.56898
 -12   0  -2 4927.90 657.942   2-0.39082-0.57650-0.22903 0.22950-0.96303 0.60530
  12   0   2 4528.50 572.880   9 0.38986 0.57839 0.16832-0.16766 0.97607-0.61821
  12   0   3 266.745 177.570   9 0.35504 0.62780 0.19499-0.19431 0.97554-0.56216
 -12   0  -3 106.232 149.055   2-0.35575-0.62617-0.22858 0.22902-0.96797 0.55471
  12   0   3 158.940 197.578   1 0.58850 0.39359-0.62459 0.62328-0.34277 0.75547
  12   0   3 63.0702 124.995   3 0.36172 0.62059 0.33019-0.32989 0.93621-0.52188
  12   0   4 810.557 257.173   9 0.32394 0.67350 0.21805-0.21735 0.97346-0.50456
 -12   0  -4 1694.13 411.131   2-0.32379-0.67273-0.22789 0.22830-0.97123 0.50243
  12   0   4 1199.25 329.773   3 0.33096 0.66601 0.32227-0.32201 0.94260-0.47274
  12   0   5 1218.95 318.878   9 0.29663 0.71540 0.23772-0.23700 0.97046-0.44604
  12   0   5 1372.23 354.385   3 0.30324 0.70840 0.31488-0.31466 0.94732-0.42193
 -12   1  13 1414.19 352.294   5 0.21383-0.96253 0.26376-0.11807 0.96381-0.48905
  12   1 -13 1618.18 429.653   7 0.62723 0.12175-0.73828 0.88460-0.07225-0.40218
 -12   1  12 3642.24 548.275   5 0.18231-0.94563 0.24993-0.10426 0.96550-0.54626
  12   1 -12 3988.90 603.854   7 0.62022 0.14341-0.75085 0.89719-0.05367-0.36521
 -12   1  11 1314.60 315.846   6-0.38818-0.39019 0.91728-0.77196-0.01806 0.38215
 -12   1  11 1211.91 322.068   5 0.14612-0.92404 0.23377-0.08813 0.96590-0.60218
  12   1 -11 984.256 307.353   7 0.61331 0.16496-0.76214 0.90851-0.03631-0.32703
 -12   1  10 2348.63 426.781   6-0.36577-0.42720 0.92702-0.78168-0.01818 0.32672
 -12   1  10 2412.32 428.107   5 0.10508-0.89762 0.21512-0.06950 0.96442-0.65622
  12   1 -10 2094.10 417.635   7 0.60664 0.18628-0.77215 0.91854-0.02029-0.28750
 -12   1   9 1894.35 372.441   6-0.34695-0.46062 0.93467-0.78932-0.01826 0.27127
  12   1  -9 1721.19 384.515   3 0.77914 0.02730 0.39651-0.25006 0.67395-0.92608
 -12   1   9 1711.93 350.577   5 0.05917-0.86631 0.19383-0.04823 0.96036-0.70768
  12   1  -9 1368.47 344.381   7 0.60035 0.20721-0.78088 0.92730-0.00580-0.24645
 -12   1   8 3182.68 485.068   6-0.33166-0.49050 0.94054-0.79517-0.01832 0.21580
 -12   1   8 3703.19 517.606   5 0.00844-0.83020 0.16981-0.02424 0.95298-0.75581
  12   1  -8 3757.45 552.393   3 0.74525 0.07585 0.39561-0.24921 0.71437-0.91097
  12   1  -8 3784.84 524.012   7 0.59461 0.22759-0.78832 0.93477 0.00698-0.20368
 -12   1   7 2055.16 402.359   6-0.31989-0.51687 0.94485-0.79947-0.01837 0.16030
  12   1  -7 1757.21 376.654   3 0.70886 0.12690 0.39326-0.24689 0.75181-0.89288
 -12   1   7 2384.37 406.302   5-0.04682-0.78955 0.14304 0.00251 0.94148-0.79983
 -12   1   6 2143.86 401.585   6-0.31161-0.53975 0.94778-0.80238-0.01840 0.10479
  12   1  -6 1750.34 373.871   3 0.67039 0.18004 0.38950-0.24317 0.78601-0.87155
 -12   1   6 2513.63 402.317   5-0.10614-0.74484 0.11361 0.03193 0.92511-0.83898
 -12   1   5 2865.18 458.946   6-0.30680-0.55915 0.94944-0.80403-0.01842 0.04927
  12   1  -5 3194.97 487.179   3 0.63034 0.23475 0.38445-0.23816 0.81677-0.84678
 -12   1   5 2227.11 385.028   5-0.16884-0.69675 0.08170 0.06381 0.90321-0.87260
 -12   1   4 1189.12 313.605   6-0.30546-0.57509 0.94990-0.80447-0.01842-0.00626
  12   1  -4 705.041 245.107   3 0.58927 0.29047 0.37826-0.23201 0.84399-0.81847
 -12   1   3 4508.60 572.316   6-0.30758-0.58756 0.94918-0.80373-0.01841-0.06181
  12   1  -3 4796.04 602.665   3 0.54779 0.34662 0.37110-0.22490 0.86764-0.78659
  12   1  -3 4670.85 567.522   1 0.47132 0.42317-0.64844 0.79257-0.45473 0.53443
 -12   1   2 3203.77 491.247   6-0.31318-0.59656 0.94723-0.80177-0.01839-0.11736
  12   1  -2 3131.46 491.672   3 0.50650 0.40257 0.36318-0.21702 0.88780-0.75122
  12   1  -2 1985.22 399.229   1 0.50755 0.40151-0.64274 0.78691-0.42215 0.55737
 -12   1   1 969.873 289.025   6-0.32226-0.60208 0.94400-0.79852-0.01836-0.17293
  12   1  -1 787.547 266.926   1 0.54307 0.38055-0.63575 0.77996-0.38851 0.57924
  12   1  -1 751.799 247.431   3 0.46599 0.45774 0.35472-0.20860 0.90463-0.71253
 -12   1   0 3673.44 514.384   6-0.33486-0.60408 0.93934-0.79384-0.01831-0.22852
  12   1   0 3369.29 524.675   1 0.57770 0.36048-0.62749 0.77173-0.35394 0.60020
  12   1   0 3679.94 546.388   3 0.42683 0.51156 0.34595-0.19987 0.91838-0.67074
  12   1   1 2959.36 511.600   1 0.61128 0.34146-0.61796 0.76225-0.31859 0.62036
 -12   1  -1 2978.32 475.983   6-0.35099-0.60254 0.93307-0.78755-0.01824-0.28413
  12   1   1 2976.45 491.079   3 0.38950 0.56355 0.33709-0.19104 0.92933-0.62617
 -12   1  -2 3412.44 495.496   6-0.37072-0.59741 0.92493-0.77940-0.01815-0.33976
  12   1   2 3798.66 584.548   3 0.35444 0.61327 0.32834-0.18233 0.93783-0.57914
  12   1   2 3732.48 591.422   1 0.64369 0.32362-0.60720 0.75152-0.28256 0.63985
 -12   1  -3 1281.03 315.269   6-0.39408-0.58865 0.91460-0.76906-0.01803-0.39542
 -12   1  -3 1190.30 352.004   2-0.40396-0.57804-0.22911 0.37516-0.96079 0.54762
  12   1   3 1748.42 389.701   3 0.32199 0.66039 0.31990-0.17393 0.94424-0.53001
  12   1   3 1767.02 409.936   1 0.67483 0.30704-0.59523 0.73960-0.24597 0.65877
 -12   1  -4 4669.06 630.652   2-0.37194-0.62467-0.22883 0.37484-0.96587 0.49717
  12   1   4 4638.24 684.097   1 0.70463 0.29180-0.58208 0.72649-0.20889 0.67721
 -12   2  12 293.545 177.500   6-0.29266-0.47105 0.95416-0.66299-0.01846 0.43804
  12   2 -12 259.044 192.144   7 0.65825 0.10553-0.66104 0.95310-0.17290-0.24592
 -12   2  11-53.2580 132.101   6-0.26588-0.51243 0.96241-0.67123-0.01854 0.38258
  12   2 -11 171.378 153.162   7 0.65543 0.12299-0.67031 0.96240-0.16183-0.20144
 -12   2  10 3072.62 494.445   6-0.24294-0.54997 0.96879-0.67760-0.01859 0.32709
  12   2 -10 3694.27 552.972   7 0.65296 0.14010-0.67788 0.97001-0.15260-0.15512
 -12   2   9 472.852 221.473   6-0.22375-0.58376 0.97365-0.68244-0.01862 0.27159
  12   2  -9 1233.72 329.012   3 0.76261 0.04390 0.39625-0.10414 0.69442-0.94666
 -12   2   8-7.27051 144.696   6-0.20821-0.61389 0.97727-0.68605-0.01864 0.21607
  12   2  -8 699.666 269.781   3 0.72727 0.09390 0.39461-0.10254 0.73356-0.93027
 -12   2   7 2962.36 492.519   6-0.19628-0.64043 0.97987-0.68862-0.01866 0.16055
  12   2  -7 3790.84 557.956   3 0.68969 0.14614 0.39153-0.09950 0.76947-0.91065
 -12   2   6 3622.23 546.089   6-0.18789-0.66341 0.98159-0.69033-0.01866 0.10502
  12   2  -6 3613.91 550.669   3 0.65035 0.20014 0.38710-0.09511 0.80196-0.88761
 -12   2   5 555.964 234.088   6-0.18302-0.68287 0.98255-0.69128-0.01867 0.04948
  12   2  -5 608.447 236.063   3 0.60978 0.25537 0.38147-0.08952 0.83090-0.86102
 -12   2   4 784.575 264.039   6-0.18166-0.69884 0.98282-0.69153-0.01867-0.00605
  12   2  -4 696.579 245.858   3 0.56854 0.31127 0.37479-0.08287 0.85626-0.83085
 -12   2   3 1142.78 317.889   6-0.18379-0.71130 0.98240-0.69110-0.01867-0.06159
  12   2  -3 1176.18 336.626   3 0.52723 0.36724 0.36725-0.07538 0.87808-0.79713
 -12   2   2-35.5975 125.467   6-0.18942-0.72027 0.98128-0.68996-0.01866-0.11713
  12   2  -2 232.154 186.306   3 0.48642 0.42272 0.35907-0.06724 0.89649-0.76002
 -12   2   1 5433.40 660.578   6-0.19858-0.72570 0.97938-0.68804-0.01865-0.17268
  12   2  -1 5933.66 704.855   3 0.44666 0.47714 0.35046-0.05867 0.91172-0.71971
 -12   2   0 1292.80 335.409   6-0.21131-0.72757 0.97657-0.68522-0.01864-0.22823
  12   2   0 743.111 275.379   3 0.40844 0.53001 0.34165-0.04989 0.92403-0.67649
 -12   2  -1 291.676 181.177   6-0.22765-0.72582 0.97270-0.68133-0.01861-0.28380
  12   2   1 906.791 281.356   1 0.71982 0.23270-0.57467 0.86464-0.18913 0.49100
  12   2   1 475.970 250.003   3 0.37222 0.58090 0.33282-0.04111 0.93373-0.63067
 -12   2  -2 314.803 184.912   6-0.24769-0.72038 0.96752-0.67614-0.01858-0.33937
  12   2   2 49.6273 167.961   1 0.74296 0.22412-0.56233 0.85233-0.15775 0.51514
  12   2   2 113.778 128.830   3 0.33834 0.62944 0.32419-0.03252 0.94118-0.58259
 -12   2  -3 900.602 269.335   6-0.27152-0.71115 0.96075-0.66934-0.01852-0.39497
  12   2   3 1166.35 350.694   1 0.76530 0.21634-0.54908 0.83912-0.12583 0.53873
 -12   3   8 765.089 289.271   6-0.10501-0.71704 0.99438-0.55730-0.01866 0.21605
  12   3  -8 526.628 258.285   3 0.72422 0.09701 0.39441 0.04333 0.73667-0.93348
 -12   3   7 2054.03 432.561   6-0.09331-0.74333 0.99558-0.55848-0.01865 0.16050
  12   3  -7 1934.93 440.002   3 0.68676 0.14913 0.39124 0.04646 0.77206-0.91334
 -12   3   6 295.741 190.959   6-0.08511-0.76613 0.99633-0.55921-0.01864 0.10496
  12   3  -6 543.266 252.855   3 0.64775 0.20280 0.38677 0.05089 0.80395-0.88970
 -12   3   5 794.440 282.116   6-0.08036-0.78548 0.99673-0.55960-0.01864 0.04941
  12   3  -5 1256.56 381.801   3 0.60773 0.25748 0.38116 0.05646 0.83225-0.86247
 -12   3   4 738.753 264.315   6-0.07902-0.80141 0.99684-0.55969-0.01864-0.00613
  12   3  -4 346.640 188.059   3 0.56726 0.31262 0.37457 0.06302 0.85699-0.83168
 -12   3   3 918.287 301.326   6-0.08111-0.81392 0.99667-0.55951-0.01864-0.06166
  12   3  -3 1470.54 376.438   3 0.52689 0.36764 0.36719 0.07036 0.87824-0.79740
 -12   3   2 1768.87 398.877   6-0.08662-0.82301 0.99620-0.55902-0.01865-0.11719
  12   3  -2 1437.31 360.133   3 0.48718 0.42202 0.35923 0.07827 0.89618-0.75981
  13  -2  -9 1396.38 351.909   9 0.80873 0.07706-0.28387-0.00737 0.70926-0.94170
  13  -2  -8 730.431 261.178   9 0.78763 0.11276-0.24738-0.04384 0.75121-0.92813
  13  -2  -7 1209.52 336.838   9 0.76366 0.15132-0.21049-0.08071 0.78939-0.91078
  13  -2  -6 2618.07 477.194   9 0.73724 0.19233-0.17361-0.11757 0.82360-0.88947
  13  -2  -5-96.3755 131.727   9 0.70888 0.23529-0.13719-0.15397 0.85374-0.86408
  13  -2  -4 1325.59 367.986   9 0.67912 0.27964-0.10164-0.18950 0.87981-0.83463
  13  -2  -3 2339.75 454.554   9 0.64854 0.32481-0.06735-0.22377 0.90194-0.80124
  13  -2  -2 65.9034 95.3425   9 0.61771 0.37023-0.03466-0.25644 0.92035-0.76412
  13  -1 -10 790.274 302.606   7 0.49858 0.37231-0.86487 0.71989 0.17988-0.46719
 -13  -1   9 1531.80 378.252   5-0.06936-0.81615 0.13194-0.27802 0.93575-0.70377
  13  -1  -9 1681.04 390.617   7 0.48422 0.40131-0.87110 0.72615 0.20129-0.43305
 -13  -1   8 1432.53 362.726   5-0.11168-0.78844 0.11082-0.25692 0.92337-0.74691
  13  -1  -8 812.172 261.359   7 0.47016 0.43001-0.87628 0.73135 0.22146-0.39767
 -13  -1   7 701.863 256.413   5-0.15662-0.75811 0.08798-0.23410 0.90786-0.78692
  13  -1  -7 324.545 199.212   7 0.45656 0.45826-0.88048 0.73558 0.24028-0.36094
  13  -1  -6 4133.90 564.094   3 0.76765 0.16084 0.39637-0.54134 0.68834-0.75303
 -13  -1   6 4574.78 616.317   5-0.20381-0.72553 0.06353-0.20968 0.88889-0.82346
  13  -1  -5 432.423 194.578   3 0.73733 0.20582 0.39521-0.54023 0.72299-0.73216
 -13  -1   5 682.333 277.905   5-0.25276-0.69119 0.03765-0.18382 0.86621-0.85630
  13  -1  -4 6.13128 88.6273   9 0.66656 0.29230-0.08731-0.05796 0.88942-0.84419
  13  -1  -4-26.7899 117.715   3 0.70552 0.25229 0.39298-0.53803 0.75498-0.70861
 -13  -1   4-79.6970 153.187   5-0.30294-0.65562 0.01054-0.15673 0.83964-0.88525
  13  -1  -3 441.330 217.253   9 0.63131 0.34213-0.04888-0.09637 0.91266-0.81191
  13  -1  -3 342.153 192.034   3 0.67264 0.29983 0.38975-0.53485 0.78414-0.68224
 -13  -1   3 462.627 239.840   5-0.35375-0.61942-0.01754-0.12867 0.80911-0.91024
  13  -1  -2 4118.75 556.694   9 0.59579 0.39225-0.01241-0.13283 0.93139-0.77511
  13  -1  -2 4519.61 645.354   1 0.34043 0.64727-0.65848 0.51117-0.55962 0.71515
  13  -1  -2 4358.82 577.049   3 0.63917 0.34796 0.38565-0.53079 0.81037-0.65294
 -13  -1   2 4212.16 578.568   5-0.40460-0.58318-0.04632-0.09991 0.77464-0.93129
  13  -1  -1 2906.23 536.590   1 0.38298 0.61929-0.65690 0.50963-0.52757 0.73861
  13  -1  -1 1619.70 372.145   9 0.56070 0.44193 0.02176-0.16697 0.94601-0.73421
 -13  -1   1 2094.99 421.991   5-0.45486-0.54753-0.07550-0.07076 0.73636-0.94853
  13  -1   0-33.7499 137.446   9 0.52667 0.49055 0.05336-0.19856 0.95702-0.68969
 -13  -1   0 482.199 238.173   5-0.50396-0.51304-0.10479-0.04149 0.69449-0.96218
  13  -1   1 2910.74 508.950   9 0.49426 0.53756 0.08224-0.22742 0.96494-0.64209
  13   0 -11 2232.38 448.546   7 0.56805 0.28834-0.81734 0.81806 0.06150-0.40428
 -13   0  10 2986.59 513.908   5 0.00613-0.87696 0.16871-0.16894 0.95257-0.66501
  13   0 -10 2087.60 419.960   7 0.55794 0.31310-0.82647 0.82722 0.08062-0.36785
 -13   0   9 597.871 243.307   5-0.03588-0.84956 0.14839-0.14865 0.94404-0.71200
  13   0  -9 449.525 212.161   7 0.54813 0.33755-0.83449 0.83527 0.09845-0.33013
 -13   0   8 906.772 287.540   5-0.08132-0.81873 0.12601-0.12629 0.93247-0.75595
  13   0  -8 1013.90 296.624   7 0.53878 0.36154-0.84144 0.84224 0.11485-0.29099
  13   0  -7 3240.97 525.863   3 0.75076 0.16313 0.39585-0.39512 0.70819-0.82852
 -13   0   7 3021.49 484.263   5-0.12987-0.78480 0.10163-0.10193 0.91739-0.79639
  13   0  -6 1240.55 340.550   3 0.71830 0.21025 0.39399-0.39330 0.74261-0.80741
 -13   0   6 1479.27 355.119   5-0.18109-0.74818 0.07536-0.07569 0.89837-0.83288
  13   0  -5 3305.38 522.878   3 0.68433 0.25888 0.39099-0.39034 0.77418-0.78345
 -13   0   5 3173.70 498.517   5-0.23444-0.70944 0.04740-0.04775 0.87506-0.86509
  13   0  -5 3515.70 521.453   1 0.31573 0.62806-0.65871 0.65696-0.57739 0.56647
  13   0  -4 2050.29 424.309   3 0.64930 0.30858 0.38697-0.38636 0.80277-0.75650
 -13   0   4 2621.89 455.022   5-0.28926-0.66923 0.01799-0.01836 0.84722-0.89277
  13   0  -4 1810.09 400.939   1 0.35430 0.60405-0.65813 0.65642-0.54938 0.59397
  13   0  -3 126.851 164.131   3 0.61367 0.35886 0.38205-0.38148 0.82831-0.72651
 -13   0   3-113.260 151.744   5-0.34484-0.62827-0.01257 0.01217 0.81474-0.91581
  13   0  -2 24.4297 113.358   1 0.43191 0.55557-0.65312 0.65149-0.48833 0.64396
 -13   0   2 108.929 134.797   5-0.40040-0.58732-0.04392 0.04350 0.77765-0.93424
  13   0  -2 73.8241 147.307   3 0.57796 0.40924 0.37639-0.37586 0.85080-0.69347
 -13   0   1 9857.89 847.622   5-0.45519-0.54714-0.07569 0.07525 0.73610-0.94821
  13   0  -1 9808.28 877.667   3 0.54266 0.45920 0.37016-0.36967 0.87032-0.65746
  13   0  -1 12029.2 1023.26   1 0.47038 0.53166-0.64857 0.64698-0.45555 0.66670
 -13   0   0 1430.71 340.849   5-0.50847-0.50847-0.10752 0.10705 0.69041-0.95804
  13   0   0 1297.49 332.062   3 0.50826 0.50826 0.36354-0.36308 0.88700-0.61862
  13   0   0 1493.45 406.275   1 0.50830 0.50830-0.64261 0.64106-0.42146 0.68812
  13   0   1 966.343 328.149   3 0.47522 0.55596 0.35671-0.35629 0.90104-0.57713
  13   1 -11 28.1626 138.680   7 0.61905 0.23749-0.75283 0.89928-0.05068-0.29203
 -13   1  10 435.711 221.379   5 0.02253-0.89330 0.17654-0.03095 0.95533-0.66772
  13   1 -10 187.974 176.773   7 0.61350 0.25768-0.76184 0.90831-0.03678-0.25038
 -13   1   9 1203.73 332.393   6-0.38776-0.49806 0.91747-0.77215-0.01806 0.25051
 -13   1   9 1458.61 354.422   5-0.02267-0.86271 0.15482-0.00925 0.94694-0.71485
 -13   1   8 1123.89 333.090   6-0.37481-0.52560 0.92317-0.77783-0.01813 0.19504
  13   1  -8 1321.82 325.142   3 0.75116 0.14813 0.39587-0.24943 0.70774-0.88370
 -13   1   7 436.611 221.073   6-0.36510-0.54990 0.92730-0.78194-0.01818 0.13955
  13   1  -7 193.099 230.419   3 0.71809 0.19587 0.39397-0.24757 0.74282-0.86325
 -13   1   6 4652.27 617.034   6-0.35863-0.57098 0.92998-0.78461-0.01821 0.08404
  13   1  -6 3773.93 582.044   3 0.68342 0.24519 0.39090-0.24454 0.77497-0.83987
 -13   1   5 396.655 206.738   6-0.35537-0.58883 0.93131-0.78592-0.01822 0.02852
  13   1  -5 621.333 258.998   3 0.64760 0.29568 0.38675-0.24044 0.80406-0.81343
 -13   1   4 213.044 175.634   6-0.35533-0.60347 0.93132-0.78592-0.01822-0.02702
  13   1  -4 174.691 168.609   3 0.61109 0.34685 0.38167-0.23539 0.83003-0.78387
 -13   1   3 995.422 308.397   6-0.35850-0.61490 0.93003-0.78461-0.01821-0.08257
  13   1  -3 608.075 242.081   3 0.57437 0.39823 0.37579-0.22954 0.85290-0.75121
 -13   1   2 3621.04 549.091   6-0.36490-0.62309 0.92738-0.78195-0.01818-0.13814
  13   1  -2 4385.72 621.236   3 0.53795 0.44931 0.36928-0.22308 0.87273-0.71551
  13   1  -2 4184.15 596.968   1 0.54420 0.44306-0.63551 0.77956-0.38741 0.54314
 -13   1   1 2096.39 415.374   6-0.37454-0.62805 0.92329-0.77784-0.01813-0.19373
  13   1  -1 1955.89 421.549   1 0.57602 0.42580-0.62792 0.77201-0.35566 0.56691
  13   1  -1 1688.37 402.286   3 0.50230 0.49962 0.36234-0.21618 0.88967-0.67692
  13   1   0 798.684 332.271   1 0.60725 0.40913-0.61919 0.76332-0.32293 0.58970
 -13   1   0 442.928 196.549   6-0.38745-0.62974 0.91761-0.77214-0.01807-0.24933
  13   1   1 3095.02 538.536   1 0.63772 0.39323-0.60930 0.75347-0.28935 0.61163
;
_shelx_hkl_checksum              64546
_shelx_res_file
;
TITL
CELL  0.71073  9.39927  4.86380 13.23952 90.00000 105.24890 90.00000
ZERR 2  0.00026  0.00013  0.00038  0.00000  0.00290  0.00000
LATT -1
SYMM -X, Y+ 0.50000, -Z
SFAC C H N O P
UNIT 12 34 8 10 2
TEMP 23
SIZE 0.30 0.30 0.10
PLAN 30
FMAP 2
L.S. 50
SHEL 50 0.7
EQIV $1 X,-1+Y,Z
EQIV $2 1-X,-1/2+Y,1-Z
EQIV $3 2-X,-1/2+Y,1-Z
EQIV $4 2-X,1/2+Y,1-Z
EQIV $5 1+X,1+Y,Z
EQIV $6 2-X,1/2+Y,2-Z
EQIV $7 X,1+Y,Z
HTAB N1 O1_$1
HTAB N1 O2_$2
HTAB N1 O5
HTAB N6 O1_$3
HTAB N8 O2_$4
HTAB N8 O5_$5
HTAB N9 O4_$5
HTAB N9 O4_$6
HTAB O3 O4_$7
BOND $H
BOND
CONF
ACTA
WGHT    0.044500    0.009500
FVAR      11.27437
C1    1    0.708596    1.190328    0.520439    11.00000    0.03076    0.02841 =
         0.02509   -0.00008    0.00710    0.00419
C2    1    0.777076    1.053927    0.626998    11.00000    0.02718    0.02612 =
         0.02407   -0.00176    0.00622   -0.00247
H2    2    0.766272    1.173500    0.681522    11.00000    0.03623
C3    1    0.938531    0.976517    0.636519    11.00000    0.02488    0.04011 =
         0.02772    0.00091    0.00604   -0.00300
H3B   2    0.947567    0.854052    0.581227    11.00000    0.04031
H3A   2    0.988638    1.136350    0.624825    11.00000    0.05095
C4    1    1.021351    0.864548    0.743499    11.00000    0.02685    0.05601 =
         0.02996    0.00782    0.00555   -0.00299
H4B   2    1.031377    1.014011    0.793439    11.00000    0.06339
H4A   2    0.971369    0.720852    0.768752    11.00000    0.05497
C5    1    1.171762    0.749897    0.743830    11.00000    0.02861    0.04369 =
         0.03892    0.00805    0.00158   -0.00369
H5A   2    1.218616    0.703811    0.814197    11.00000    0.06287
H5B   2    1.151229    0.569086    0.692900    11.00000    0.05339
C7    1    1.388680    1.059245    0.769937    11.00000    0.02293    0.04031 =
         0.02814   -0.00059    0.00776    0.00397
N1    3    0.689927    0.805330    0.636676    11.00000    0.02520    0.03022 =
         0.02873    0.00200    0.00530   -0.00183
H1A   2    0.708824    0.674188    0.594519    11.00000    0.05190
H1B   2    0.594245    0.860520    0.614941    11.00000    0.05283
H1C   2    0.708967    0.748049    0.710933    11.00000    0.04147
N6    3    1.265168    0.950858    0.710671    11.00000    0.02727    0.05095 =
         0.02660    0.00198    0.00550   -0.00416
H6    2    1.257706    0.961774    0.640903    11.00000    0.04335
N8    3    1.470339    1.214810    0.722707    11.00000    0.02971    0.05190 =
         0.03539    0.00632    0.00654   -0.00601
H8A   2    1.542107    1.314398    0.759500    11.00000    0.04035
H8B   2    1.425929    1.291774    0.653228    11.00000    0.05673
N9    3    1.434113    1.018108    0.872055    11.00000    0.03146    0.06592 =
         0.02731    0.00153    0.00512   -0.01057
H9A   2    1.385716    0.934868    0.907766    11.00000    0.03957
H9B   2    1.518451    1.111814    0.911299    11.00000    0.05357
O1    4    0.765364    1.417203    0.505954    11.00000    0.05606    0.02957 =
         0.03089    0.00179    0.01043   -0.00372
O2    4    0.605265    1.071222    0.457880    11.00000    0.03788    0.04036 =
         0.03541    0.00046   -0.00490   -0.00030
O3    4    0.798441    0.733812    1.013884    11.00000    0.07212    0.03085 =
         0.03890    0.00047    0.00187   -0.00156
H7    2    0.767552    0.864955    0.989047    11.00000    0.05946
O4    4    0.719117    0.250802    0.978199    11.00000    0.04683    0.03025 =
         0.03589    0.00257    0.00849   -0.00560
O5    4    0.715128    0.567887    0.825282    11.00000    0.05544    0.05493 =
         0.02981    0.00741    0.00933   -0.01272
P1    5    0.787769    0.489384    0.935443    11.00000    0.02773    0.03307 =
         0.03180    0.00249    0.00698   -0.00185
H8    2    0.920630    0.431779    0.941414    11.00000    0.03827
HKLF 4
REM
REM R1 =  0.0317 for    3247 Fo > 4sig(Fo)  and  0.0363 for all    3545 data
REM    213 parameters refined using      1 restraints
END
WGHT      0.0445      0.0095
REM Highest difference peak  0.233,  deepest hole -0.256,  1-sigma level  0.041
Q1    1   0.8595  0.9971  0.6345  11.00000  0.05    0.23
Q2    1   0.7591  0.5426  0.8705  11.00000  0.05    0.21
Q3    1   0.7072  0.7285  0.9826  11.00000  0.05    0.17
Q4    1   1.0971  0.8328  0.7417  11.00000  0.05    0.17
Q5    1   0.6767  1.0625  0.4664  11.00000  0.05    0.16
Q6    1   0.6782  1.0032  0.4375  11.00000  0.05    0.16
Q7    1   0.7367  0.2395  1.0028  11.00000  0.05    0.15
Q8    1   0.7029  1.5355  0.4786  11.00000  0.05    0.15
Q9    1   0.7263  0.3918  0.9711  11.00000  0.05    0.15
Q10   1   0.8529  0.7319  0.9820  11.00000  0.05    0.14
Q11   1   0.6584  0.6316  0.8379  11.00000  0.05    0.14
Q12   1   0.7425  0.1939  0.9326  11.00000  0.05    0.14
Q13   1   1.0007  1.0124  0.5776  11.00000  0.05    0.14
Q14   1   0.5713  0.9663  0.4668  11.00000  0.05    0.14
Q15   1   0.7595  0.2787  0.9380  11.00000  0.05    0.13
Q16   1   1.4241  1.3071  0.7392  11.00000  0.05    0.13
Q17   1   0.6857  1.4068  0.5043  11.00000  0.05    0.13
Q18   1   0.7554  0.4058  1.0005  11.00000  0.05    0.13
Q19   1   0.7973  0.3010  0.9606  11.00000  0.05    0.13
Q20   1   0.9819  0.8794  0.6829  11.00000  0.05    0.13
Q21   1   0.9313  0.9858  0.7032  11.00000  0.05    0.13
Q22   1   0.7181  0.5992  0.7691  11.00000  0.05    0.13
Q23   1   0.7748  0.2399  1.0163  11.00000  0.05    0.12
Q24   1   0.7095  0.5494  0.7999  11.00000  0.05    0.12
Q25   1   0.9490  0.7727  0.5951  11.00000  0.05    0.12
Q26   1   0.8605  0.4720  0.7476  11.00000  0.05    0.12
Q27   1   1.4446  1.1766  0.6602  11.00000  0.05    0.12
Q28   1   0.5800  1.1134  0.3996  11.00000  0.05    0.12
Q29   1   0.8027  0.8900  1.0055  11.00000  0.05    0.12
Q30   1   0.7300  0.6356  0.9625  11.00000  0.05    0.12
;
_shelx_res_checksum              39174
loop_
_space_group_symop_operation_xyz
'x, y, z'
'-x, y+1/2, -z'
loop_
_atom_site_type_symbol
_atom_site_label
_atom_site_fract_x
_atom_site_fract_y
_atom_site_fract_z
_atom_site_U_iso_or_equiv
_atom_site_adp_type
_atom_site_calc_flag
_atom_site_occupancy
C C1 0.7086(2) 1.1903(4) 0.52044(15) 0.0281(4) Uani d 1
C C2 0.7771(2) 1.0539(4) 0.62700(14) 0.0259(4) Uani d 1
H H2 0.766(3) 1.174(6) 0.682(2) 0.036(6) Uiso d 1
C C3 0.93853(19) 0.9765(6) 0.63652(14) 0.0311(4) Uani d 1
H H3B 0.948(3) 0.854(6) 0.581(2) 0.040(7) Uiso d 1
H H3A 0.989(3) 1.136(7) 0.625(2) 0.051(8) Uiso d 1
C C4 1.0214(2) 0.8645(6) 0.74350(17) 0.0380(5) Uani d 1
H H4B 1.031(3) 1.014(9) 0.793(3) 0.063(9) Uiso d 1
H H4A 0.971(3) 0.721(8) 0.769(2) 0.055(8) Uiso d 1
C C5 1.1718(2) 0.7499(5) 0.74383(19) 0.0384(5) Uani d 1
H H5A 1.219(3) 0.704(8) 0.814(2) 0.063(9) Uiso d 1
H H5B 1.151(3) 0.569(7) 0.693(2) 0.053(8) Uiso d 1
C C7 1.3887(2) 1.0592(5) 0.76994(15) 0.0303(4) Uani d 1
N N1 0.68993(19) 0.8053(4) 0.63668(14) 0.0284(3) Uani d 1
H H1A 0.709(3) 0.674(8) 0.595(2) 0.052(8) Uiso d 1
H H1B 0.594(3) 0.861(7) 0.615(2) 0.053(8) Uiso d 1
H H1C 0.709(3) 0.748(6) 0.711(2) 0.041(7) Uiso d 1
N N6 1.26517(17) 0.9509(5) 0.71067(13) 0.0352(4) Uani d 1
H H6 1.258(3) 0.962(7) 0.641(2) 0.043(7) Uiso d 1
N N8 1.4703(2) 1.2148(5) 0.72271(16) 0.0394(4) Uani d 1
H H8A 1.542(3) 1.314(6) 0.759(2) 0.040(7) Uiso d 1
H H8B 1.426(3) 1.292(8) 0.653(2) 0.057(8) Uiso d 1
N N9 1.4341(2) 1.0181(6) 0.87205(14) 0.0421(5) Uani d 1
H H9A 1.386(3) 0.935(6) 0.908(2) 0.040(7) Uiso d 1
H H9B 1.518(3) 1.112(6) 0.911(2) 0.054(8) Uiso d 1
O O1 0.76536(19) 1.4172(3) 0.50595(12) 0.0390(4) Uani d 1
O O2 0.60526(16) 1.0712(3) 0.45788(12) 0.0406(4) Uani d 1
O O3 0.7984(2) 0.7338(4) 1.01388(15) 0.0497(4) Uani d 1
H H7 0.768(4) 0.865(7) 0.989(3) 0.059(10) Uiso d 1
O O4 0.71912(18) 0.2508(3) 0.97820(13) 0.0381(4) Uani d 1
O O5 0.7151(2) 0.5679(4) 0.82528(12) 0.0471(4) Uani d 1
P P1 0.78777(5) 0.48938(12) 0.93544(4) 0.03103(13) Uani d 1
H H8 0.921(2) 0.432(6) 0.9414(18) 0.038(7) Uiso d 1
loop_
_atom_site_aniso_label
_atom_site_aniso_U_11
_atom_site_aniso_U_22
_atom_site_aniso_U_33
_atom_site_aniso_U_12
_atom_site_aniso_U_13
_atom_site_aniso_U_23
C1 0.0308(9) 0.0284(10) 0.0251(9) 0.0042(7) 0.0071(7) -0.0001(7)
C2 0.0272(8) 0.0261(9) 0.0241(8) -0.0025(6) 0.0062(6) -0.0018(7)
C3 0.0249(7) 0.0401(10) 0.0277(8) -0.0030(9) 0.0060(6) 0.0009(9)
C4 0.0269(9) 0.0560(14) 0.0300(10) -0.0030(9) 0.0056(7) 0.0078(10)
C5 0.0286(9) 0.0437(13) 0.0389(11) -0.0037(9) 0.0016(8) 0.0081(10)
C7 0.0229(7) 0.0403(11) 0.0281(8) 0.0040(7) 0.0078(6) -0.0006(8)
N1 0.0252(7) 0.0302(8) 0.0287(8) -0.0018(6) 0.0053(6) 0.0020(7)
N6 0.0273(7) 0.0510(12) 0.0266(7) -0.0042(8) 0.0055(6) 0.0020(8)
N8 0.0297(8) 0.0519(12) 0.0354(9) -0.0060(8) 0.0065(7) 0.0063(9)
N9 0.0315(8) 0.0659(15) 0.0273(8) -0.0106(10) 0.0051(6) 0.0015(10)
O1 0.0561(9) 0.0296(8) 0.0309(7) -0.0037(6) 0.0104(7) 0.0018(6)
O2 0.0379(8) 0.0404(9) 0.0354(8) -0.0003(6) -0.0049(6) 0.0005(7)
O3 0.0721(12) 0.0308(9) 0.0389(9) -0.0016(9) 0.0019(8) 0.0005(8)
O4 0.0468(9) 0.0302(8) 0.0359(8) -0.0056(7) 0.0085(6) 0.0026(6)
O5 0.0554(9) 0.0549(11) 0.0298(8) -0.0127(8) 0.0093(7) 0.0074(7)
P1 0.0277(2) 0.0331(3) 0.0318(2) -0.0019(2) 0.00698(17) 0.0025(2)
loop_
_atom_type_symbol
_atom_type_description
_atom_type_scat_dispersion_real
_atom_type_scat_dispersion_imag
_atom_type_scat_source
C C 0.0033 0.0016 'International Tables Vol C Tables 4.2.6.8 and 6.1.1.4'
H H 0.0000 0.0000 'International Tables Vol C Tables 4.2.6.8 and 6.1.1.4'
N N 0.0061 0.0033 'International Tables Vol C Tables 4.2.6.8 and 6.1.1.4'
O O 0.0106 0.0060 'International Tables Vol C Tables 4.2.6.8 and 6.1.1.4'
P P 0.1023 0.0942 'International Tables Vol C Tables 4.2.6.8 and 6.1.1.4'
loop_
_geom_angle_atom_site_label_1
_geom_angle_atom_site_label_2
_geom_angle_atom_site_label_3
_geom_angle
O2 C1 O1 126.5(2)
O2 C1 C2 118.40(18)
O1 C1 C2 115.13(17)
N1 C2 C3 110.42(17)
N1 C2 C1 108.85(15)
C3 C2 C1 110.30(15)
N1 C2 H2 105.1(16)
C3 C2 H2 112.8(15)
C1 C2 H2 109.2(16)
C4 C3 C2 114.54(15)
C4 C3 H3B 111.0(16)
C2 C3 H3B 111.8(16)
C4 C3 H3A 107.0(18)
C2 C3 H3A 108.1(17)
H3B C3 H3A 104(2)
C5 C4 C3 112.39(18)
C5 C4 H4B 110.5(18)
C3 C4 H4B 107(2)
C5 C4 H4A 106.0(19)
C3 C4 H4A 114.2(18)
H4B C4 H4A 106(3)
N6 C5 C4 112.8(2)
N6 C5 H5A 107(2)
C4 C5 H5A 106.4(19)
N6 C5 H5B 112.1(15)
C4 C5 H5B 106.3(15)
H5A C5 H5B 112(3)
N9 C7 N6 122.79(19)
N9 C7 N8 119.4(2)
N6 C7 N8 117.80(18)
C2 N1 H1A 109(2)
C2 N1 H1B 105(2)
H1A N1 H1B 111(3)
C2 N1 H1C 110.8(17)
H1A N1 H1C 114(3)
H1B N1 H1C 108(2)
C7 N6 C5 126.23(18)
C7 N6 H6 113.5(17)
C5 N6 H6 117.0(19)
C7 N8 H8A 120.5(17)
C7 N8 H8B 119.9(18)
H8A N8 H8B 113(3)
C7 N9 H9A 124.8(18)
C7 N9 H9B 119.3(18)
H9A N9 H9B 115(2)
P1 O3 H7 114(3)
O5 P1 O4 115.71(10)
O5 P1 O3 112.85(11)
O4 P1 O3 107.13(10)
O5 P1 H8 108.0(11)
O4 P1 H8 108.6(13)
O3 P1 H8 103.7(12)
loop_
_geom_bond_atom_site_label_1
_geom_bond_atom_site_label_2
_geom_bond_distance
C1 O2 1.242(2)
C1 O1 1.262(3)
C1 C2 1.539(3)
C2 N1 1.485(2)
C2 C3 1.536(3)
C2 H2 0.95(3)
C3 C4 1.526(3)
C3 H3B 0.96(3)
C3 H3A 0.94(3)
C4 C5 1.519(3)
C4 H4B 0.97(4)
C4 H4A 0.95(3)
C5 N6 1.457(3)
C5 H5A 0.95(3)
C5 H5B 1.09(3)
C7 N9 1.322(3)
C7 N6 1.327(3)
C7 N8 1.344(3)
N1 H1A 0.90(3)
N1 H1B 0.91(3)
N1 H1C 0.99(3)
N6 H6 0.91(3)
N8 H8A 0.87(3)
N8 H8B 0.98(3)
N9 H9A 0.84(3)
N9 H9B 0.94(3)
O3 P1 1.564(2)
O3 H7 0.74(3)
O4 P1 1.5085(16)
O5 P1 1.4884(17)
P1 H8 1.26(2)
loop_
_geom_hbond_atom_site_label_D
_geom_hbond_atom_site_label_H
_geom_hbond_atom_site_label_A
_geom_hbond_site_symmetry_A
_geom_hbond_distance_DH
_geom_hbond_distance_HA
_geom_hbond_distance_DA
_geom_hbond_angle_DHA
N1 H1A O1 1_545 0.90(3) 1.88(3) 2.776(2) 174(3)
N1 H1B O2 2_646 0.91(3) 2.34(3) 2.955(2) 125(3)
N1 H1C O5 . 0.99(3) 1.74(3) 2.704(2) 164(3)
N6 H6 O1 2_746 0.91(3) 1.91(3) 2.811(2) 170(3)
N8 H8B O2 2_756 0.98(3) 1.97(3) 2.887(3) 155(3)
N8 H8A O5 1_665 0.87(3) 2.04(3) 2.906(3) 172(2)
N9 H9B O4 1_665 0.94(3) 1.98(3) 2.907(2) 167(2)
N9 H9A O4 2_757 0.84(3) 2.20(3) 3.033(3) 171(3)
O3 H7 O4 1_565 0.74(3) 1.93(4) 2.630(3) 158(4)
loop_
_geom_torsion_atom_site_label_1
_geom_torsion_atom_site_label_2
_geom_torsion_atom_site_label_3
_geom_torsion_atom_site_label_4
_geom_torsion
O2 C1 C2 N1 -5.6(2)
O1 C1 C2 N1 174.44(16)
O2 C1 C2 C3 115.7(2)
O1 C1 C2 C3 -64.3(2)
N1 C2 C3 C4 -65.2(3)
C1 C2 C3 C4 174.4(2)
C2 C3 C4 C5 171.0(2)
C3 C4 C5 N6 56.9(3)
N9 C7 N6 C5 -7.8(4)
N8 C7 N6 C5 171.6(2)
C4 C5 N6 C7 113.4(2)

_cod_database_fobs_code 2019944
