#------------------------------------------------------------------------------
#$Date: 2016-02-20 00:18:51 +0200 (Sat, 20 Feb 2016) $
#$Revision: 176760 $
#$URL: svn://www.crystallography.net/cod/cif/2/01/96/2019614.cif $
#------------------------------------------------------------------------------
#
# This file is available in the Crystallography Open Database (COD),
# http://www.crystallography.net/. The original data for this entry
# were provided by IUCr Journals, http://journals.iucr.org/.
#
# The file may be used within the scientific community so long as
# proper attribution is given to the journal article from which the
# data were obtained.
#
data_2019614
loop_
_publ_author_name
'Caballero-Jim\'enez, Judith'
'Reyes Ortega, Yasmi'
'Bern\`es, Sylvain'
'Escudero, Roberto'
_publ_section_title
;
 A candidate for a single-chain magnet:
 [Mn~3~(OAc)~6~(py)~2~(H~2~O)~2~]~<i>n~</i> (OAc is acetate and py is
 pyridine)
;
_journal_coeditor_code           YP3067
_journal_issue                   8
_journal_name_full               'Acta Crystallographica Section C'
_journal_page_first
;
;
_journal_paper_doi               10.1107/S2053229614015137
_journal_volume                  70
_journal_year                    2014
_chemical_formula_iupac          '[Mn3 (C2 H3 O2)6 (C6 H5 N)2 (H2 O)2]'
_chemical_formula_moiety         'C22 H32 Mn3 N2 O14'
_chemical_formula_sum            'C22 H32 Mn3 N2 O14'
_chemical_formula_weight         713.31
_chemical_melting_point          493
_chemical_name_systematic
<i>catena</i>-Poly[di-\m~3~-acetato-\k^6^<i>O</i>:<i>O</i>:<i>O</i>'-tetra-\m~2~-acetato-\k^4^<i>O</i>:<i>O</i>;\k^4^<i>O</i>:<i>O</i>'-diaquabis(pyridine-\k<i>N</i>)trimanganese(II)]
_space_group_crystal_system      triclinic
_space_group_IT_number           2
_space_group_name_Hall           '-P 1'
_space_group_name_H-M_alt        'P -1'
_symmetry_space_group_name_Hall  '-P 1'
_symmetry_space_group_name_H-M   'P -1'
_atom_sites_solution_hydrogens   geom
_atom_sites_solution_primary     direct
_atom_sites_solution_secondary   difmap
_audit_creation_method           SHELXL2013
_cell_angle_alpha                83.1600(10)
_cell_angle_beta                 81.9940(10)
_cell_angle_gamma                77.4230(10)
_cell_formula_units_Z            1
_cell_length_a                   8.1153(2)
_cell_length_b                   9.0404(2)
_cell_length_c                   10.0759(2)
_cell_measurement_reflns_used    9432
_cell_measurement_temperature    200(2)
_cell_measurement_theta_max      28.32
_cell_measurement_theta_min      2.32
_cell_volume                     711.43(3)
_computing_cell_refinement       'APEX2 (Bruker, 2009)'
_computing_data_collection       'APEX2 (Bruker, 2009)'
_computing_data_reduction        'XPREP (Bruker, 2009)'
_computing_molecular_graphics
;
SHELXTL (Sheldrick, 2008) and Mercury (Macrae <i>et al.</i>,
2008)
;
_computing_publication_material  'SHELXL2013 (Sheldrick, 2008)'
_computing_structure_refinement  'SHELXL2013 (Sheldrick, 2008)'
_computing_structure_solution    'SHELXS2013 (Sheldrick, 2008)'
_diffrn_ambient_temperature      200(2)
_diffrn_measured_fraction_theta_full 0.997
_diffrn_measured_fraction_theta_max 0.995
_diffrn_measurement_device_type  'Bruker APEXII CCD area-detector'
_diffrn_measurement_method       '\f and \w scans'
_diffrn_radiation_monochromator  graphite
_diffrn_radiation_source         'fine-focus sealed tube'
_diffrn_radiation_type           MoK\a
_diffrn_radiation_wavelength     0.71073
_diffrn_reflns_av_R_equivalents  0.0121
_diffrn_reflns_limit_h_max       10
_diffrn_reflns_limit_h_min       -10
_diffrn_reflns_limit_k_max       12
_diffrn_reflns_limit_k_min       -12
_diffrn_reflns_limit_l_max       13
_diffrn_reflns_limit_l_min       -13
_diffrn_reflns_number            11780
_diffrn_reflns_theta_full        25.242
_diffrn_reflns_theta_max         28.318
_diffrn_reflns_theta_min         2.318
_exptl_absorpt_coefficient_mu    1.381
_exptl_absorpt_correction_T_max  0.8518
_exptl_absorpt_correction_T_min  0.8196
_exptl_absorpt_correction_type   multi-scan
_exptl_absorpt_process_details   '(SADABS; Bruker, 2009)'
_exptl_crystal_colour            colourless
_exptl_crystal_density_diffrn    1.665
_exptl_crystal_description       block
_exptl_crystal_F_000             365
_exptl_crystal_size_max          0.150
_exptl_crystal_size_mid          0.120
_exptl_crystal_size_min          0.120
_refine_diff_density_max         0.313
_refine_diff_density_min         -0.354
_refine_ls_extinction_method     none
_refine_ls_goodness_of_fit_ref   1.060
_refine_ls_hydrogen_treatment    mixed
_refine_ls_matrix_type           full
_refine_ls_number_constraints    0
_refine_ls_number_parameters     198
_refine_ls_number_reflns         3514
_refine_ls_number_restraints     0
_refine_ls_restrained_S_all      1.060
_refine_ls_R_factor_all          0.0218
_refine_ls_R_factor_gt           0.0196
_refine_ls_shift/su_max          0.001
_refine_ls_shift/su_mean         0.000
_refine_ls_structure_factor_coef Fsqd
_refine_ls_weighting_details
'w = 1/[\s^2^(Fo^2^)+(0.0310P)^2^+0.2663P] where P=(Fo^2^+2Fc^2^)/3'
_refine_ls_weighting_scheme      calc
_refine_ls_wR_factor_gt          0.0551
_refine_ls_wR_factor_ref         0.0565
_reflns_number_gt                3269
_reflns_number_total             3514
_reflns_threshold_expression     I>2\s(I)
_cod_data_source_file            yp3067sup1.cif
_cod_data_source_block           I
_cod_database_code               2019614
_cod_database_fobs_code          2019614
#BEGIN Tags that were not found in dictionaries:
_shelx_space_group_comment
;
The symmetry employed for this shelxl refinement is uniquely defined by the
following loop, which should always be used as a source of symmetry information
in preference to the above space-group names. They are only intended as
comments.
;
_shelx_estimated_absorpt_t_min   0.820
_shelx_estimated_absorpt_t_max   0.852
_shelx_hkl_file
;
  -2   0   0  191.13    2.37
  -2   0   0  190.73    2.74
  -2   0   0  189.84    2.89
  -2   0   0  186.29    2.49
  -2   0   0  179.59    2.35
   2   0   0  182.62    2.36
   2   0   0  190.24    2.58
   2   0   0  183.83    2.41
   2   0   0  188.70    2.60
   2   0   0  183.47    2.86
  -3   0   0   15.06    0.29
  -3   0   0   15.35    0.29
  -3   0   0   15.06    0.26
   3   0   0   15.13    0.27
   3   0   0   15.37    0.29
   3   0   0   15.55    0.28
   3   0   0   15.32    0.30
  -4   0   0    3.54    0.16
  -4   0   0    3.52    0.14
  -4   0   0    3.50    0.17
   4   0   0    3.64    0.16
   4   0   0    3.55    0.17
  -5   0   0  256.48    3.29
  -5   0   0  249.81    3.07
  -5   0   0  241.91    3.80
   5   0   0  254.25    3.28
   5   0   0  251.89    3.17
   5   0   0  252.18    3.15
  -6   0   0  225.83    2.79
  -6   0   0  221.07    3.40
  -6   0   0  223.38    2.99
   6   0   0  226.32    3.00
   6   0   0  223.95    2.88
   6   0   0  227.51    2.80
  -7   0   0   21.59    0.43
   7   0   0   20.93    0.46
   7   0   0   21.14    0.45
   7   0   0   20.97    0.49
   8   0   0    5.69    0.27
   8   0   0    5.99    0.29
   9   0   0    3.87    0.28
   9   0   0    3.36    0.27
  10   0   0    7.64    0.35
  10   0   0    7.61    0.36
  10  -1   0    1.91    0.29
  10  -1   0    2.56    0.29
   9  -1   0   60.03    1.00
   9  -1   0   62.37    1.00
   8  -1   0    0.14    0.13
   8  -1   0    0.09    0.13
   7  -1   0   31.48    0.63
   7  -1   0   33.24    0.61
   7  -1   0   33.07    0.58
  -7   1   0   33.27    0.55
   6  -1   0    1.38    0.22
   6  -1   0    1.34    0.18
  -6   1   0    1.51    0.15
  -6   1   0    1.35    0.17
  -6   1   0    1.15    0.16
   5  -1   0   51.40    0.74
   5  -1   0   51.99    0.81
  -5   1   0   51.43    0.72
  -5   1   0   51.27    0.81
  -5   1   0   49.83    0.87
   4  -1   0   82.91    1.08
   4  -1   0   82.81    1.17
  -4   1   0   83.77    1.07
  -4   1   0   85.37    1.17
  -4   1   0   80.20    1.21
  -4   1   0   82.99    1.31
   3  -1   0   84.87    1.06
   3  -1   0   82.60    1.06
   3  -1   0   83.86    1.15
  -3   1   0   85.75    1.05
  -3   1   0   85.36    1.15
  -3   1   0   83.19    1.31
  -3   1   0   82.67    1.19
   2  -1   0   81.14    1.08
   2  -1   0   81.36    0.99
   2  -1   0   81.80    1.05
  -2   1   0   79.60    1.08
  -2   1   0   82.06    0.99
  -2   1   0   79.77    1.25
  -2   1   0   79.66    1.12
   1  -1   0  217.61    2.91
   1  -1   0  215.70    2.66
   1  -1   0  219.38    2.67
   1  -1   0  217.08    3.43
  -1   1   0  216.56    2.99
  -1   1   0  220.28    2.64
  -1   1   0  219.37    3.40
  -1   1   0  218.03    2.93
   0  -1   0   72.39    1.18
   0  -1   0   75.68    0.95
   0  -1   0   73.76    1.44
   0   1   0   73.38    1.42
   0   1   0   74.50    1.20
   0   1   0   74.47    0.99
  -1  -1   0  187.92    2.44
  -1  -1   0  185.77    2.84
  -1  -1   0  190.70    2.35
  -1  -1   0  191.42    2.35
  -1  -1   0  178.86    3.63
  -1  -1   0  196.17    2.53
   1   1   0  190.72    2.51
   1   1   0  190.90    2.37
   1   1   0  183.85    3.64
   1   1   0  187.25    2.36
  -2  -1   0   12.77    0.22
  -2  -1   0   12.83    0.23
  -2  -1   0   12.81    0.24
  -2  -1   0   13.11    0.22
   2   1   0   12.90    0.24
   2   1   0   13.05    0.23
   2   1   0   12.95    0.21
   2   1   0   12.84    0.22
  -3  -1   0    6.56    0.18
  -3  -1   0    6.78    0.16
   3   1   0    6.86    0.17
   3   1   0    6.71    0.18
   3   1   0    6.47    0.16
   3   1   0    6.68    0.18
  -4  -1   0    5.87    0.17
  -4  -1   0    5.57    0.20
   4   1   0    5.74    0.18
   4   1   0    6.11    0.19
   4   1   0    5.65    0.20
  -5  -1   0   86.99    1.15
  -5  -1   0   85.79    1.23
   5   1   0   86.41    1.16
   5   1   0   85.50    1.18
   5   1   0   86.67    1.23
  -6  -1   0    4.42    0.21
  -6  -1   0    4.95    0.25
   6   1   0    4.25    0.22
   6   1   0    4.53    0.23
   6   1   0    4.11    0.25
  -7  -1   0   27.02    0.51
   7   1   0   28.23    0.54
   7   1   0   27.21    0.53
   7   1   0   27.50    0.57
  -8  -1   0   18.51    0.43
   8   1   0   18.85    0.45
   8   1   0   18.96    0.45
   9   1   0    2.87    0.25
   9   1   0    2.79    0.27
  10   1   0    0.02    0.15
  10   1   0    0.31    0.15
   9  -2   0    4.68    0.30
   9  -2   0    5.03    0.30
   8  -2   0   62.75    1.01
   8  -2   0   64.06    0.99
   7  -2   0   49.31    0.78
   6  -2   0    5.17    0.23
   6  -2   0    5.03    0.27
  -6   2   0    4.62    0.27
  -6   2   0    4.79    0.33
  -6   2   0    4.88    0.19
   5  -2   0    8.86    0.25
   5  -2   0    9.03    0.29
  -5   2   0    8.63    0.26
  -5   2   0    8.99    0.30
  -5   2   0    8.94    0.35
  -5   2   0    9.08    0.21
   4  -2   0   48.35    0.67
   4  -2   0   48.89    0.74
   4  -2   0   46.38    0.66
  -4   2   0   46.42    0.74
  -4   2   0   48.68    0.74
  -4   2   0   47.45    0.84
  -4   2   0   48.59    0.64
   3  -2   0   58.42    0.75
   3  -2   0   56.93    0.82
   3  -2   0   57.51    0.74
  -3   2   0   57.41    0.73
  -3   2   0   55.35    0.83
  -3   2   0   57.43    0.82
  -3   2   0   56.80    0.95
   2  -2   0  113.91    1.52
   2  -2   0  117.91    1.43
   2  -2   0  113.78    1.42
  -2   2   0  118.24    1.52
  -2   2   0  113.54    1.79
  -2   2   0  116.77    1.40
  -2   2   0  117.11    1.65
   1  -2   0   91.73    1.19
   1  -2   0   91.20    1.15
  -1   2   0   89.78    1.41
  -1   2   0   90.92    1.21
   0  -2   0    6.46    0.23
   0  -2   0    6.36    0.14
   0   2   0    5.93    0.20
   0   2   0    6.24    0.25
   0   2   0    6.47    0.14
  -1  -2   0  170.24    2.10
  -1  -2   0  161.81    2.61
  -1  -2   0  167.14    2.11
  -1  -2   0  168.79    3.25
  -1  -2   0  168.66    2.25
   1   2   0  164.16    2.65
   1   2   0  168.29    2.25
   1   2   0  166.99    2.09
   1   2   0  169.17    3.18
   1   2   0  172.32    2.09
  -2  -2   0   43.53    0.70
  -2  -2   0   44.81    0.60
  -2  -2   0   45.86    0.63
  -2  -2   0   46.15    0.60
   2   2   0   45.41    0.63
   2   2   0   46.73    0.63
   2   2   0   46.77    0.95
   2   2   0   46.00    0.60
  -3  -2   0   49.95    0.67
  -3  -2   0   49.12    0.70
   3   2   0   48.77    0.66
   3   2   0   48.59    1.03
   3   2   0   49.09    0.70
   3   2   0   49.36    0.69
  -4  -2   0   83.14    1.15
  -4  -2   0   83.28    1.09
   4   2   0   84.40    1.22
   4   2   0   81.86    1.15
   4   2   0   82.89    1.12
   4   2   0   82.24    1.08
  -5  -2   0  303.09    3.94
  -5  -2   0  313.48    3.79
   5   2   0  298.99    4.01
   5   2   0  302.89    4.05
   5   2   0  305.85    3.86
  -6  -2   0    1.73    0.18
  -6  -2   0    1.59    0.20
   6   2   0    1.71    0.21
   6   2   0    1.51    0.20
   6   2   0    1.95    0.20
  -7  -2   0    1.77    0.19
   7   2   0    1.67    0.21
   7   2   0    1.82    0.23
   7   2   0    1.81    0.21
  -8  -2   0   18.84    0.44
   8   2   0   19.62    0.46
   8   2   0   18.92    0.46
  -9  -2   0    9.60    0.34
   9   2   0    9.80    0.37
   9   2   0    9.79    0.36
  10   2   0   50.37    0.91
  10   2   0   50.42    0.91
   9  -3   0    3.20    0.27
   9  -3   0    2.50    0.28
   8  -3   0    4.92    0.27
   7  -3   0    6.27    0.26
   6  -3   0   24.78    0.53
   6  -3   0   26.15    0.47
  -6   3   0   26.04    0.62
   5  -3   0   32.05    0.51
   5  -3   0   31.29    0.58
  -5   3   0   30.64    0.68
  -5   3   0   30.39    0.45
  -5   3   0   31.09    0.56
  -5   3   0   31.76    0.59
   4  -3   0  143.58    1.75
   4  -3   0  141.15    1.91
   4  -3   0  141.61    1.76
  -4   3   0  139.50    2.23
  -4   3   0  141.36    1.71
  -4   3   0  141.67    1.98
  -4   3   0  139.88    1.91
   3  -3   0  100.90    1.25
   3  -3   0  102.79    1.37
   3  -3   0  101.79    1.25
  -3   3   0  100.22    1.62
  -3   3   0  102.80    1.38
  -3   3   0   95.63    1.40
   2  -3   0  186.15    2.28
   2  -3   0  184.65    2.47
   2  -3   0  189.07    2.25
  -2   3   0  186.64    2.48
  -2   3   0  177.21    2.89
  -2   3   0  181.91    2.58
   1  -3   0   55.73    0.75
  -1   3   0   55.65    0.75
  -1   3   0   54.23    0.93
   0  -3   0   46.61    0.93
   0   3   0   46.05    0.63
   0   3   0   44.79    0.77
  -1  -3   0  700.01   13.00
   1   3   0  700.56    8.82
   1   3   0  695.06   10.64
   1   3   0  705.28   13.00
   1   3   0  688.42    8.29
   1   3   0  684.15    8.28
  -2  -3   0  132.74    1.84
  -2  -3   0  136.18    1.65
  -2  -3   0  136.91    2.56
  -2  -3   0  135.58    1.69
   2   3   0  135.28    1.73
   2   3   0  138.69    2.55
   2   3   0  134.12    1.64
  -3  -3   0   26.07    0.40
  -3  -3   0   25.72    0.41
  -3  -3   0   24.87    0.43
   3   3   0   26.35    0.39
   3   3   0   25.69    0.64
   3   3   0   25.71    0.41
   3   3   0   26.06    0.42
  -4  -3   0   53.23    0.78
  -4  -3   0   53.36    0.74
   4   3   0   54.13    0.79
   4   3   0   52.36    0.74
   4   3   0   53.29    1.18
   4   3   0   52.78    0.77
  -5  -3   0    4.93    0.22
  -5  -3   0    5.08    0.20
   5   3   0    5.12    0.21
   5   3   0    4.84    0.21
   5   3   0    4.66    0.22
   5   3   0    4.82    0.20
  -6  -3   0  183.43    2.46
  -6  -3   0  181.24    2.32
   6   3   0  186.07    2.46
   6   3   0  179.86    2.38
   6   3   0  181.13    2.31
  -7  -3   0   57.57    0.87
   7   3   0   55.12    0.92
   7   3   0   55.23    0.89
   7   3   0   56.49    0.87
  -8  -3   0    1.24    0.15
   8   3   0    1.18    0.16
   8   3   0    1.10    0.15
  -9  -3   0    2.64    0.25
   9   3   0    2.49    0.25
   9   3   0    2.56    0.26
 -10  -3   0    1.05    0.17
  10   3   0    1.02    0.19
  10   3   0    1.33    0.20
   9  -4   0   24.49    0.56
   8  -4   0   38.41    0.69
   7  -4   0    6.41    0.26
   6  -4   0   41.86    0.66
   6  -4   0   41.05    0.74
  -6   4   0   42.71    0.74
  -6   4   0   42.73    0.89
   5  -4   0   14.58    0.38
   5  -4   0   14.12    0.31
  -5   4   0   13.86    0.37
  -5   4   0   13.98    0.33
  -5   4   0   13.20    0.49
   4  -4   0   27.60    0.43
   4  -4   0   28.30    0.51
   4  -4   0   28.10    0.43
  -4   4   0   28.22    0.52
  -4   4   0   27.48    0.65
  -4   4   0   28.05    0.48
   3  -4   0  358.78    4.34
   3  -4   0  349.52    4.57
   3  -4   0  355.35    4.40
  -3   4   0  345.92    5.69
  -3   4   0  354.36    4.64
  -3   4   0  356.57    4.93
   2  -4   0   76.47    0.93
   2  -4   0   76.70    0.93
   2  -4   0   75.13    1.05
  -2   4   0   75.13    1.28
  -2   4   0   78.48    1.05
   1  -4   0    1.12    0.22
   1  -4   0    1.12    0.11
  -1   4   0    1.00    0.12
  -1   4   0    0.91    0.16
   0  -4   0   35.10    0.78
   0   4   0   34.90    0.66
   0   4   0   35.23    0.53
  -1  -4   0    3.78    0.10
  -1  -4   0    4.00    0.27
  -1  -4   0    3.75    0.10
   1   4   0    3.86    0.21
   1   4   0    4.01    0.25
   1   4   0    4.07    0.15
  -2  -4   0  308.03    4.17
  -2  -4   0  312.14    3.86
  -2  -4   0  304.09    6.17
  -2  -4   0  317.24    3.94
   2   4   0  310.75    4.19
   2   4   0  308.48    3.85
   2   4   0  315.70    5.95
  -3  -4   0  228.68    2.71
  -3  -4   0  218.06    4.15
  -3  -4   0  224.74    3.03
   3   4   0  218.31    2.86
   3   4   0  220.37    2.72
   3   4   0  226.35    2.96
   3   4   0  222.46    4.14
  -4  -4   0   46.85    0.68
  -4  -4   0   47.83    0.71
   4   4   0   47.57    0.72
   4   4   0   47.39    0.71
   4   4   0   47.33    1.09
   4   4   0   46.28    0.67
  -5  -4   0    2.79    0.18
  -5  -4   0    2.81    0.19
   5   4   0    2.80    0.20
   5   4   0    2.78    0.20
   5   4   0    2.65    0.18
  -6  -4   0    0.20    0.11
  -6  -4   0    0.24    0.12
   6   4   0    0.13    0.12
   6   4   0    0.18    0.12
   6   4   0    0.36    0.11
  -7  -4   0   13.18    0.36
   7   4   0   12.97    0.35
   7   4   0   12.53    0.37
   7   4   0   13.16    0.37
  -8  -4   0   14.42    0.39
   8   4   0   14.00    0.40
   8   4   0   13.01    0.38
  -9  -4   0   20.52    0.50
   9   4   0   19.59    0.50
   9   4   0   20.44    0.50
 -10  -4   0    0.57    0.17
  10   4   0    0.69    0.18
  10   4   0    0.72    0.18
   8  -5   0    8.93    0.33
   7  -5   0   82.89    1.17
   6  -5   0   44.66    0.68
  -6   5   0   41.08    0.94
  -6   5   0   42.84    0.75
   5  -5   0    4.55    0.19
   5  -5   0    5.00    0.26
  -5   5   0    5.03    0.26
  -5   5   0    4.60    0.40
  -5   5   0    5.04    0.21
   4  -5   0   19.10    0.42
   4  -5   0   18.94    0.33
  -4   5   0   19.79    0.37
  -4   5   0   18.65    0.58
  -4   5   0   19.41    0.43
   3  -5   0    2.72    0.19
   3  -5   0    2.87    0.11
   3  -5   0    2.98    0.12
  -3   5   0    2.84    0.34
  -3   5   0    2.86    0.12
   2  -5   0  275.79    3.63
  -2   5   0  281.05    4.29
  -2   5   0  281.27    3.82
   1  -5   0  324.45    6.28
   1  -5   0  324.40    4.34
  -1   5   0  324.65    4.11
  -1   5   0  330.66    5.21
   0  -5   0  212.38    4.09
   0  -5   0  206.59    2.77
   0   5   0  211.65    2.66
   0   5   0  207.85    3.23
  -1  -5   0    7.98    0.38
  -1  -5   0    8.21    0.15
  -1  -5   0    8.26    0.16
   1   5   0    8.21    0.23
   1   5   0    8.11    0.35
   1   5   0    8.13    0.31
  -2  -5   0   22.48    0.35
  -2  -5   0   22.81    0.37
  -2  -5   0   22.83    0.35
  -2  -5   0   23.01    0.66
   2   5   0   22.60    0.31
   2   5   0   22.89    0.61
   2   5   0   23.17    0.42
  -3  -5   0    8.62    0.21
  -3  -5   0    8.91    0.22
  -3  -5   0    8.06    0.20
  -3  -5   0    8.90    0.47
   3   5   0    8.75    0.19
   3   5   0    8.76    0.41
   3   5   0    8.76    0.24
  -4  -5   0   56.98    0.81
  -4  -5   0   57.67    0.84
   4   5   0   58.07    0.86
   4   5   0   56.54    1.28
   4   5   0   56.27    0.78
  -5  -5   0   84.17    1.19
  -5  -5   0   83.44    1.14
   5   5   0   81.73    1.19
   5   5   0   83.01    1.19
   5   5   0   81.87    1.12
  -6  -5   0   47.65    0.78
  -6  -5   0   48.60    0.76
   6   5   0   48.46    0.74
   6   5   0   46.15    0.79
   6   5   0   47.52    0.78
  -7  -5   0    8.88    0.30
   7   5   0    8.48    0.31
   7   5   0    8.64    0.32
   7   5   0    9.01    0.30
  -8  -5   0    9.37    0.34
   8   5   0    9.42    0.35
   8   5   0    9.09    0.33
  -9  -5   0    5.75    0.31
   9   5   0    5.78    0.31
   9   5   0    6.22    0.32
 -10  -5   0   14.17    0.46
  10   5   0   14.76    0.47
  10   5   0   14.06    0.46
   7  -6   0    0.54    0.13
   6  -6   0    3.46    0.20
  -6   6   0    3.36    0.21
   5  -6   0   32.47    0.61
   5  -6   0   31.63    0.51
  -5   6   0   31.51    0.82
  -5   6   0   32.49    0.57
   4  -6   0   31.15    0.48
   4  -6   0   32.33    0.58
  -4   6   0   32.78    0.54
  -4   6   0   32.05    0.78
   3  -6   0   24.29    0.37
   3  -6   0   24.88    0.37
   3  -6   0   25.31    0.47
  -3   6   0   25.92    0.69
  -3   6   0   25.75    0.42
   2  -6   0   39.89    0.63
   2  -6   0   38.39    0.97
  -2   6   0   40.95    0.57
  -2   6   0   39.05    0.86
   1  -6   0   36.77    0.57
   1  -6   0   36.90    0.90
  -1   6   0   37.47    0.62
  -1   6   0   37.27    0.80
   0  -6   0   40.94    0.96
   0  -6   0   39.39    0.60
   0   6   0   40.95    0.65
   0   6   0   41.07    0.83
  -1  -6   0   20.43    0.31
  -1  -6   0   20.54    0.31
  -1  -6   0   20.65    0.64
   1   6   0   20.63    0.41
   1   6   0   21.57    0.54
   1   6   0   20.74    0.61
  -2  -6   0   42.88    0.59
  -2  -6   0   43.47    0.63
  -2  -6   0   42.62    0.59
  -2  -6   0   42.83    1.03
   2   6   0   42.59    1.00
   2   6   0   43.34    0.68
  -3  -6   0    1.56    0.14
  -3  -6   0    0.91    0.18
  -3  -6   0    1.66    0.14
  -3  -6   0    1.46    0.13
   3   6   0    1.63    0.17
   3   6   0    0.96    0.15
  -4  -6   0   61.44    0.88
  -4  -6   0   60.30    0.85
   4   6   0   59.52    0.92
   4   6   0   59.87    0.82
  -5  -6   0   36.71    0.61
  -5  -6   0   36.39    0.61
   5   6   0   36.05    0.65
   5   6   0   36.57    0.57
  -6  -6   0   10.80    0.31
  -6  -6   0   10.85    0.32
   6   6   0   11.37    0.32
   6   6   0   10.89    0.30
   6   6   0   11.55    0.35
  -7  -6   0  105.43    1.46
   7   6   0  104.81    1.52
   7   6   0  100.37    1.51
   7   6   0  103.84    1.43
  -8  -6   0   19.27    0.48
   8   6   0   19.55    0.50
  -9  -6   0    2.53    0.28
   9   6   0    2.61    0.28
 -10  -6   0   10.13    0.41
  10   6   0    9.65    0.42
   7  -7   0   10.87    0.33
   6  -7   0    0.94    0.12
   5  -7   0    0.13    0.09
   5  -7   0    0.12    0.13
  -5   7   0    0.16    0.08
  -5   7   0   -0.59    0.26
   4  -7   0    1.03    0.13
   4  -7   0    1.11    0.14
  -4   7   0    1.18    0.13
  -4   7   0    1.18    0.28
   3  -7   0   34.24    0.59
   3  -7   0   34.09    0.47
   3  -7   0   32.78    0.91
  -3   7   0   32.97    0.83
  -3   7   0   33.93    0.53
   2  -7   0  154.63    2.05
   2  -7   0  152.70    3.02
  -2   7   0  152.67    2.53
   1  -7   0   16.64    0.34
   1  -7   0   17.00    0.62
  -1   7   0   17.42    0.59
  -1   7   0   16.65    0.39
   0  -7   0    0.54    0.15
   0  -7   0    0.66    0.09
   0   7   0    0.85    0.13
   0   7   0    1.00    0.25
  -1  -7   0    4.90    0.14
  -1  -7   0    5.09    0.42
  -1  -7   0    4.96    0.14
   1   7   0    5.59    0.41
   1   7   0    5.10    0.24
  -2  -7   0    0.45    0.17
  -2  -7   0    0.67    0.08
  -2  -7   0    0.83    0.10
  -2  -7   0    0.70    0.08
   2   7   0    0.56    0.15
   2   7   0    0.71    0.13
  -3  -7   0   55.12    0.78
  -3  -7   0   55.64    1.34
  -3  -7   0   56.36    0.81
   3   7   0   54.98    0.87
  -4  -7   0   66.15    1.54
  -4  -7   0   66.69    0.96
  -4  -7   0   65.70    0.92
   4   7   0   63.86    1.01
  -5  -7   0   43.67    0.70
  -5  -7   0   42.48    0.69
   5   7   0   42.31    0.75
  -6  -7   0    7.69    0.28
  -6  -7   0    8.00    0.29
   6   7   0    8.26    0.32
  -7  -7   0   10.52    0.34
   7   7   0   10.16    0.37
  -8  -7   0   21.12    0.51
   8   7   0   20.92    0.53
  -9  -7   0   13.72    0.45
   9   7   0   13.77    0.46
   6  -8   0   30.96    0.53
   5  -8   0    2.27    0.16
  -5   8   0    1.65    0.16
   4  -8   0    3.19    0.15
   4  -8   0    3.61    0.42
  -4   8   0    3.16    0.16
   3  -8   0   32.53    0.92
  -3   8   0   31.90    0.86
  -3   8   0   30.14    0.50
   2  -8   0    0.49    0.15
   2  -8   0    0.88    0.12
  -2   8   0    1.06    0.28
   1  -8   0   80.57    1.75
   1  -8   0   79.63    1.13
  -1   8   0   80.88    1.52
  -1   8   0   82.21    1.21
   0  -8   0   34.56    0.56
   0  -8   0   35.67    0.96
   0   8   0   36.43    0.86
   0   8   0   35.60    0.65
  -1  -8   0   21.01    0.38
  -1  -8   0   22.12    0.34
  -1  -8   0   22.04    0.74
   1   8   0   22.20    0.47
  -2  -8   0    0.04    0.16
  -2  -8   0    0.17    0.07
  -2  -8   0    0.18    0.09
   2   8   0    0.18    0.11
  -3  -8   0   22.43    0.40
  -3  -8   0   23.08    0.83
  -3  -8   0   23.49    0.41
   3   8   0   21.83    0.49
  -4  -8   0   19.69    0.40
  -4  -8   0   21.27    0.80
  -4  -8   0   20.76    0.40
   4   8   0   19.93    0.47
  -5  -8   0   64.96    0.97
  -5  -8   0   67.52    0.99
   5   8   0   66.37    1.07
  -6  -8   0    1.49    0.20
   6   8   0    1.01    0.17
  -7  -8   0    0.49    0.14
   7   8   0    0.63    0.16
  -8  -8   0    0.33    0.15
   8   8   0    0.42    0.17
  -9  -8   0    3.49    0.31
   9   8   0    3.37    0.32
   5  -9   0    7.29    0.22
   4  -9   0   97.19    1.23
   4  -9   0   98.26    2.24
  -4   9   0   95.44    1.39
   3  -9   0   40.46    1.12
  -3   9   0   42.36    0.63
   2  -9   0    0.12    0.15
   1  -9   0    1.11    0.18
   0  -9   0   -0.21    0.15
   0   9   0   -0.17    0.12
   0   9   0   -0.03    0.06
  -1  -9   0   62.76    1.46
  -1  -9   0   60.63    0.81
   1   9   0   61.79    1.00
  -2  -9   0  160.14    2.01
  -2  -9   0  165.63    3.25
   2   9   0  160.64    2.22
  -3  -9   0   52.81    1.34
  -3  -9   0   51.11    0.75
   3   9   0   50.81    0.88
  -4  -9   0   12.71    0.72
  -4  -9   0   12.61    0.31
   4   9   0   12.73    0.40
  -5  -9   0   11.18    0.32
   5   9   0   11.18    0.39
  -6  -9   0    8.79    0.31
   6   9   0    8.94    0.37
  -7  -9   0   24.83    0.56
   7   9   0   26.26    0.62
  -8  -9   0   40.08    0.77
   8   9   0   40.04    0.83
   1 -10   0   40.85    1.12
   0  10   0    1.94    0.13
   0  10   0    1.72    0.24
  -1 -10   0    7.33    0.59
  -1 -10   0    8.51    0.20
   1  10   0    8.51    0.23
   1  10   0    8.03    0.34
  -2 -10   0    5.86    0.59
  -2 -10   0    6.50    0.20
   2  10   0    6.90    0.33
  -3 -10   0    9.17    0.26
  -3 -10   0    8.05    0.67
   3  10   0    9.54    0.37
  -4 -10   0   38.64    0.64
  -4 -10   0   37.74    1.16
   4  10   0   38.53    0.76
  -5 -10   0    1.31    0.20
   5  10   0    1.22    0.19
  -6 -10   0    0.14    0.12
   6  10   0    0.31    0.16
  -7 -10   0    3.63    0.28
   7  10   0    3.17    0.32
   0  11   0   14.24    0.46
   0  11   0   13.72    0.29
  -1 -11   0   14.93    0.29
   1  11   0   14.86    0.33
   1  11   0   15.12    0.46
  -2 -11   0    0.17    0.08
   2  11   0    0.10    0.09
   2  11   0    0.14    0.15
  -3 -11   0    0.46    0.10
   3  11   0    0.38    0.16
  -4 -11   0    0.11    0.10
   4  11   0    0.11    0.15
  -5 -11   0    6.98    0.28
   5  11   0    7.25    0.38
  -6 -11   0   24.05    0.54
   6  11   0   23.49    0.62
   5  11  -1    0.59    0.18
  -5 -11   1    0.79    0.14
   4  11  -1    4.91    0.33
  -4 -11   1    4.81    0.24
   3  11  -1    0.22    0.16
   3  11  -1    0.10    0.09
  -3 -11   1    0.15    0.09
   2  11  -1    4.29    0.30
  -2 -11   1    4.28    0.18
   1  11  -1   28.40    0.64
  -1 -11   1   28.46    0.44
   0  11  -1    9.73    0.39
   7  10  -1    5.43    0.36
  -7 -10   1    5.58    0.31
   6  10  -1    2.21    0.28
  -6 -10   1    2.19    0.23
   5  10  -1   17.84    0.51
  -5 -10   1   18.22    0.42
   4  10  -1   29.57    0.63
  -4 -10   1   28.69    0.52
  -4 -10   1   25.58    1.03
   3  10  -1    9.85    0.38
  -3 -10   1    8.55    0.71
  -3 -10   1   10.46    0.27
   2  10  -1    2.21    0.26
  -2 -10   1    2.06    0.15
   1  10  -1    7.94    0.34
  -1 -10   1    8.21    0.19
  -1 -10   1    7.83    0.59
   0  10  -1   -0.02    0.13
   0 -10   1   -0.34    0.17
  -1  10  -1   39.52    0.75
  -1  10  -1   39.28    1.03
   1 -10   1   38.66    1.13
  -2  10  -1   50.99    1.22
   2 -10   1   48.54    1.33
   8   9  -1   44.52    0.88
  -8  -9   1   43.29    0.82
   7   9  -1   16.86    0.50
  -7  -9   1   16.91    0.45
   6   9  -1    2.16    0.27
  -6  -9   1    1.85    0.22
   5   9  -1   19.29    0.50
  -5  -9   1   18.46    0.42
   4   9  -1    1.24    0.17
  -4  -9   1    0.68    0.23
  -4  -9   1    1.50    0.17
   3   9  -1   50.18    0.87
  -3  -9   1   50.95    1.36
  -3  -9   1   50.64    0.74
   2   9  -1  158.19    2.17
  -2  -9   1  160.85    3.23
  -2  -9   1  157.35    1.97
   1   9  -1   85.33    1.29
   1   9  -1   86.23    1.60
  -1  -9   1   85.32    1.09
  -1  -9   1   86.07    1.91
   0   9  -1   18.75    0.45
   0   9  -1   19.54    0.67
   0  -9   1   18.42    0.73
  -1   9  -1   12.41    0.38
  -1   9  -1   12.95    0.59
   1  -9   1   12.66    0.63
  -2   9  -1   33.93    0.91
   2  -9   1   33.66    1.01
  -3   9  -1   43.91    1.08
   3  -9   1   43.14    1.18
  -4   9  -1   60.22    1.37
   9   8  -1    7.73    0.39
  -9  -8   1    7.64    0.37
   8   8  -1    0.03    0.15
  -8  -8   1    0.01    0.14
   7   8  -1   41.09    0.80
  -7  -8   1   41.06    0.74
   6   8  -1   22.35    0.54
  -6  -8   1   22.23    0.48
   5   8  -1   23.99    0.53
  -5  -8   1   24.35    0.48
   4   8  -1    0.07    0.12
  -4  -8   1    0.13    0.09
  -4  -8   1   -0.12    0.20
   3   8  -1    6.34    0.27
  -3  -8   1    6.06    0.21
  -3  -8   1    6.16    0.59
   2   8  -1   12.58    0.35
   2   8  -1   12.42    0.49
  -2  -8   1   12.48    0.63
  -2  -8   1   12.74    0.25
  -2  -8   1   12.56    0.26
   1   8  -1   68.21    1.03
   1   8  -1   67.66    1.28
  -1  -8   1   66.82    0.87
  -1  -8   1   67.60    1.55
  -1  -8   1   67.89    0.93
  -1  -8   1   67.62    0.91
   0   8  -1   89.15    1.60
   0   8  -1   88.74    1.29
   0  -8   1   88.24    1.20
   0  -8   1   89.90    1.92
  -1   8  -1    1.60    0.27
  -1   8  -1    1.39    0.21
   1  -8   1    0.87    0.17
  -2   8  -1    3.74    0.43
   2  -8   1    3.13    0.41
  -3   8  -1    3.16    0.45
   3  -8   1    3.84    0.46
  -4   8  -1    1.38    0.31
   4  -8   1    0.84    0.18
   4  -8   1    1.21    0.12
  -5   8  -1   32.29    0.92
   5  -8   1   32.45    0.50
  -6   8  -1   30.74    0.96
   6  -8   1   32.68    0.53
   9   7  -1   20.84    0.56
  -9  -7   1   20.29    0.54
   8   7  -1    0.08    0.15
  -8  -7   1    0.04    0.13
   7   7  -1    0.74    0.16
  -7  -7   1    0.83    0.14
   6   7  -1    3.51    0.26
  -6  -7   1    3.72    0.23
  -6  -7   1    3.92    0.23
   5   7  -1   35.09    0.66
  -5  -7   1   34.91    0.60
  -5  -7   1   35.49    0.59
   4   7  -1   80.36    1.21
  -4  -7   1   83.31    1.14
  -4  -7   1   83.31    1.87
  -4  -7   1   81.83    1.12
   3   7  -1   36.00    0.64
  -3  -7   1   36.18    0.56
  -3  -7   1   37.25    1.05
  -3  -7   1   35.98    0.55
   2   7  -1    1.28    0.15
   2   7  -1    1.24    0.24
  -2  -7   1    1.21    0.13
  -2  -7   1    1.03    0.12
  -2  -7   1    1.11    0.12
  -2  -7   1    1.10    0.21
   1   7  -1    0.42    0.22
   1   7  -1    0.30    0.11
  -1  -7   1    0.24    0.16
  -1  -7   1    0.21    0.07
  -1  -7   1    0.30    0.06
  -1  -7   1    0.29    0.06
  -1  -7   1    0.36    0.07
   0   7  -1   17.86    0.40
   0   7  -1   17.48    0.57
   0  -7   1   17.95    0.67
   0  -7   1   17.98    0.30
  -1   7  -1    0.63    0.12
  -1   7  -1    0.25    0.25
   1  -7   1    0.44    0.08
   1  -7   1    0.24    0.16
  -2   7  -1    0.56    0.25
   2  -7   1    0.78    0.10
   2  -7   1    0.43    0.15
  -3   7  -1   55.35    0.79
  -3   7  -1   54.83    1.14
   3  -7   1   55.90    0.84
   3  -7   1   54.95    1.32
  -4   7  -1   14.93    0.30
  -4   7  -1   14.98    0.58
   4  -7   1   15.79    0.37
   4  -7   1   14.60    0.27
  -5   7  -1    4.62    0.48
   5  -7   1    5.27    0.19
  -6   7  -1    5.67    0.55
   6  -7   1    6.46    0.23
   7  -7   1   17.26    0.40
 -10  -6   1    3.05    0.32
   9   6  -1    2.58    0.28
  -9  -6   1    2.29    0.28
   8   6  -1   39.39    0.76
  -8  -6   1   38.40    0.72
   7   6  -1   55.00    0.93
   7   6  -1   54.95    0.89
   7   6  -1   55.12    0.90
  -7  -6   1   54.72    0.89
   6   6  -1   29.45    0.52
   6   6  -1   28.72    0.58
   6   6  -1   29.79    0.55
  -6  -6   1   29.56    0.55
  -6  -6   1   29.40    0.55
   5   6  -1    7.13    0.24
   5   6  -1    7.24    0.29
   5   6  -1    6.48    0.27
   5   6  -1    6.96    0.22
  -5  -6   1    6.37    0.24
  -5  -6   1    6.67    0.25
   4   6  -1  126.69    1.73
   4   6  -1  124.60    1.59
  -4  -6   1  128.40    2.61
  -4  -6   1  127.02    1.69
  -4  -6   1  125.78    1.63
   3   6  -1    0.27    0.06
   3   6  -1    0.05    0.10
   3   6  -1    0.09    0.17
  -3  -6   1    0.12    0.07
  -3  -6   1    0.13    0.08
  -3  -6   1    0.12    0.18
  -3  -6   1    0.14    0.08
   2   6  -1  254.81    3.25
   2   6  -1  254.07    4.00
   2   6  -1  253.60    4.78
  -2  -6   1  258.87    4.82
  -2  -6   1  258.95    3.08
  -2  -6   1  254.86    3.28
  -2  -6   1  256.20    3.12
   1   6  -1   51.35    0.96
   1   6  -1   50.02    1.15
   1   6  -1   49.76    0.76
  -1  -6   1   50.36    1.17
  -1  -6   1   50.39    0.65
  -1  -6   1   50.80    0.65
  -1  -6   1   50.10    0.69
   0   6  -1    9.94    0.27
   0   6  -1   10.15    0.40
   0  -6   1   10.37    0.49
   0  -6   1   10.56    0.20
  -1   6  -1    5.65    0.22
  -1   6  -1    5.29    0.39
   1  -6   1    6.23    0.42
   1  -6   1    5.35    0.17
  -2   6  -1   23.30    0.62
   2  -6   1   23.26    0.40
   2  -6   1   23.42    0.73
  -3   6  -1   45.10    0.96
  -3   6  -1   46.27    0.66
   3  -6   1   45.78    0.70
   3  -6   1   44.90    0.59
   3  -6   1   43.67    0.59
  -4   6  -1   99.44    1.78
  -4   6  -1   99.88    1.43
   4  -6   1  102.08    1.43
   4  -6   1  101.73    1.27
  -5   6  -1   51.78    0.84
  -5   6  -1   48.87    1.06
   5  -6   1   50.07    0.83
   5  -6   1   49.97    0.71
  -6   6  -1    0.40    0.25
   6  -6   1    0.57    0.11
  -7   6  -1    1.16    0.32
   7  -6   1    2.07    0.20
  10   5  -1    2.93    0.30
 -10  -5   1    3.16    0.30
   9   5  -1    0.20    0.15
   9   5  -1    0.26    0.15
  -9  -5   1    0.35    0.15
   8   5  -1    9.81    0.36
   8   5  -1   10.88    0.35
  -8  -5   1   10.19    0.36
   7   5  -1    2.49    0.24
   7   5  -1    2.53    0.22
   7   5  -1    1.97    0.21
  -7  -5   1    2.16    0.21
   6   5  -1   47.26    0.73
   6   5  -1   45.66    0.78
   6   5  -1   47.08    0.77
  -6  -5   1   47.18    0.75
  -6  -5   1   47.36    0.77
   5   5  -1   79.16    1.17
   5   5  -1   79.96    1.24
   5   5  -1   79.97    1.09
   5   5  -1   81.15    1.15
  -5  -5   1   80.58    1.11
  -5  -5   1   79.24    1.14
   4   5  -1   89.28    1.24
   4   5  -1   91.38    1.27
   4   5  -1   90.87    1.35
   4   5  -1   90.66    1.18
  -4  -5   1   92.02    1.24
  -4  -5   1   86.27    1.91
  -4  -5   1   91.90    1.20
   3   5  -1   59.84    0.78
   3   5  -1   60.00    1.30
   3   5  -1   58.29    0.99
   3   5  -1   59.12    0.87
  -3  -5   1   59.55    0.83
  -3  -5   1   59.99    0.81
  -3  -5   1   59.45    1.34
  -3  -5   1   57.70    0.81
   2   5  -1  111.12    1.47
   2   5  -1  111.13    1.33
   2   5  -1  110.96    2.17
   2   5  -1  109.03    1.75
  -2  -5   1  110.17    1.37
  -2  -5   1  110.90    1.37
  -2  -5   1  109.77    1.43
  -2  -5   1  110.22    2.19
   1   5  -1  100.69    1.62
   1   5  -1  100.50    1.98
   1   5  -1  100.18    1.33
  -1  -5   1  100.60    1.22
  -1  -5   1   97.87    1.29
  -1  -5   1   99.17    1.22
  -1  -5   1  100.62    2.00
   0   5  -1  218.92    2.86
   0   5  -1  211.92    3.41
   0  -5   1  213.48    2.80
   0  -5   1  216.94    4.03
  -1   5  -1  346.65    4.48
  -1   5  -1  343.11    5.40
   1  -5   1  348.58    4.56
   1  -5   1  341.89    6.55
  -2   5  -1   16.36    0.49
   2  -5   1   16.29    0.31
  -3   5  -1   98.84    1.34
  -3   5  -1   92.42    1.33
  -3   5  -1   95.91    1.64
   3  -5   1   96.70    1.18
   3  -5   1   95.64    1.18
   3  -5   1   96.79    1.32
  -4   5  -1    0.36    0.12
  -4   5  -1    0.45    0.23
  -4   5  -1    0.39    0.08
   4  -5   1    0.52    0.12
   4  -5   1    0.40    0.08
  -5   5  -1   74.60    1.11
  -5   5  -1   71.55    1.34
   5  -5   1   71.75    0.98
   5  -5   1   72.71    1.10
  -6   5  -1   59.36    1.18
   6  -5   1   58.90    0.97
   6  -5   1   60.43    0.86
  -7   5  -1   22.06    0.68
   7  -5   1   21.80    0.45
  -8   5  -1    2.34    0.36
   8  -5   1    3.66    0.25
  10   4  -1   21.18    0.55
  10   4  -1   20.05    0.55
 -10  -4   1   20.86    0.55
   9   4  -1   38.76    0.74
   9   4  -1   38.78    0.76
  -9  -4   1   39.30    0.74
   8   4  -1    8.44    0.33
   8   4  -1    8.20    0.34
  -8  -4   1    9.24    0.33
   7   4  -1    5.51    0.27
   7   4  -1    5.76    0.28
   7   4  -1    6.26    0.27
  -7  -4   1    6.02    0.27
   6   4  -1   11.92    0.35
   6   4  -1   12.05    0.34
   6   4  -1   12.55    0.33
  -6  -4   1   12.04    0.34
  -6  -4   1   12.29    0.33
   5   4  -1    0.33    0.08
   5   4  -1    0.43    0.09
   5   4  -1    0.23    0.11
   5   4  -1    0.36    0.11
  -5  -4   1    0.90    0.11
  -5  -4   1    0.30    0.11
   4   4  -1  145.47    1.87
   4   4  -1  150.40    1.96
   4   4  -1  149.65    1.98
   4   4  -1  152.38    2.12
   4   4  -1  146.98    2.90
  -4  -4   1  151.18    1.98
  -4  -4   1  151.30    1.89
   3   4  -1  416.24    5.47
   3   4  -1  416.89    6.41
   3   4  -1  415.21    5.23
   3   4  -1  419.43    7.80
   3   4  -1  411.90    5.50
  -3  -4   1  418.86    8.00
  -3  -4   1  409.33    5.51
  -3  -4   1  425.39    5.33
   2   4  -1   42.53    0.62
   2   4  -1   42.22    0.93
   2   4  -1   40.18    0.71
   2   4  -1   42.41    0.54
  -2  -4   1   41.23    0.95
  -2  -4   1   41.26    0.56
  -2  -4   1   41.94    0.56
  -2  -4   1   40.72    0.58
   1   4  -1   52.99    1.11
   1   4  -1   50.43    0.89
   1   4  -1   54.21    0.74
  -1  -4   1   52.51    1.12
  -1  -4   1   52.73    0.69
  -1  -4   1   53.34    0.66
  -1  -4   1   52.42    0.66
   0   4  -1    0.74    0.14
   0  -4   1    1.05    0.25
   0  -4   1    1.19    0.08
  -1   4  -1   12.71    0.25
  -1   4  -1   11.63    0.36
   1  -4   1   12.40    0.43
   1  -4   1   12.52    0.22
  -2   4  -1  261.38    3.45
  -2   4  -1  257.23    4.14
   2  -4   1  261.43    3.42
  -3   4  -1  120.29    1.62
  -3   4  -1  120.99    1.66
  -3   4  -1  117.67    1.95
   3  -4   1  121.77    1.47
   3  -4   1  119.60    1.62
   3  -4   1  122.75    1.47
  -4   4  -1    0.28    0.07
  -4   4  -1    0.40    0.12
  -4   4  -1    0.11    0.20
   4  -4   1    0.36    0.11
   4  -4   1    0.38    0.06
   4  -4   1    0.32    0.08
  -5   4  -1    0.04    0.21
  -5   4  -1   -0.08    0.11
   5  -4   1    0.11    0.11
   5  -4   1    0.02    0.08
  -6   4  -1    3.93    0.37
   6  -4   1    3.95    0.21
   6  -4   1    3.67    0.24
  -7   4  -1    0.52    0.22
   7  -4   1    0.14    0.11
  -8   4  -1   24.34    0.71
   8  -4   1   24.68    0.52
   9  -4   1   16.97    0.46
  10   3  -1    3.86    0.33
  10   3  -1    3.79    0.31
 -10  -3   1    4.19    0.31
   9   3  -1   -0.06    0.14
   9   3  -1    0.04    0.14
  -9  -3   1    0.11    0.13
   8   3  -1   10.56    0.37
   8   3  -1   10.46    0.35
  -8  -3   1   10.72    0.35
   7   3  -1   57.21    0.87
   7   3  -1   55.69    0.90
   7   3  -1   54.00    0.91
  -7  -3   1   57.25    0.88
   6   3  -1   90.41    1.28
   6   3  -1   87.03    1.29
   6   3  -1   87.66    1.22
  -6  -3   1   88.72    1.23
  -6  -3   1   89.49    1.29
   5   3  -1   27.37    0.52
   5   3  -1   26.01    0.46
   5   3  -1   26.15    0.49
   5   3  -1   26.49    0.48
  -5  -3   1   26.45    0.46
  -5  -3   1   26.16    0.48
   4   3  -1    0.99    0.14
   4   3  -1    0.79    0.14
   4   3  -1    0.80    0.12
  -4  -3   1    0.84    0.14
  -4  -3   1    0.95    0.13
   3   3  -1    0.93    0.11
   3   3  -1    0.93    0.10
   3   3  -1    0.55    0.11
   3   3  -1    0.73    0.09
   3   3  -1    0.91    0.11
   3   3  -1    0.90    0.12
  -3  -3   1    0.81    0.11
  -3  -3   1    0.44    0.12
  -3  -3   1    0.84    0.10
  -3  -3   1    0.82    0.11
   2   3  -1   53.74    0.69
   2   3  -1   53.11    0.72
   2   3  -1   54.57    1.11
   2   3  -1   52.69    0.85
   2   3  -1   53.99    0.74
  -2  -3   1   53.37    0.70
  -2  -3   1   54.67    1.13
  -2  -3   1   53.83    0.70
  -2  -3   1   52.62    0.72
   1   3  -1  114.03    1.51
   1   3  -1  112.22    1.37
   1   3  -1  111.33    1.75
   1   3  -1  116.41    2.16
  -1  -3   1  113.20    1.50
  -1  -3   1  114.71    1.44
  -1  -3   1  112.76    1.39
  -1  -3   1  116.63    2.17
   0   3  -1   53.11    0.89
   0   3  -1   53.74    0.72
   0  -3   1   53.44    0.69
   0  -3   1   53.62    1.09
   0  -3   1   53.96    0.71
  -1   3  -1   19.36    0.30
  -1   3  -1   19.43    0.30
  -1   3  -1   18.47    0.41
   1  -3   1   19.52    0.29
   1  -3   1   19.18    0.30
  -2   3  -1   94.80    1.26
  -2   3  -1   93.30    1.29
  -2   3  -1   94.29    1.30
  -2   3  -1   93.43    1.52
   2  -3   1   95.48    1.14
   2  -3   1   93.86    1.14
   2  -3   1   95.79    1.26
  -3   3  -1    4.80    0.18
  -3   3  -1    4.73    0.26
  -3   3  -1    4.81    0.14
   3  -3   1    4.87    0.12
   3  -3   1    4.69    0.13
   3  -3   1    4.48    0.17
  -4   3  -1  102.62    1.44
  -4   3  -1  104.05    1.48
  -4   3  -1  102.48    1.70
   4  -3   1  104.61    1.31
   4  -3   1  104.83    1.31
   4  -3   1  103.94    1.43
  -5   3  -1   31.24    0.44
  -5   3  -1   31.54    0.57
  -5   3  -1   30.83    0.68
   5  -3   1   31.67    0.57
   5  -3   1   31.86    0.50
   5  -3   1   31.10    0.49
  -6   3  -1   27.97    0.55
  -6   3  -1   26.34    0.63
   6  -3   1   26.99    0.48
   6  -3   1   27.38    0.55
  -7   3  -1    5.49    0.38
   7  -3   1    5.77    0.25
  -8   3  -1   17.37    0.55
   8  -3   1   18.42    0.44
   8  -3   1   17.60    0.43
   9  -3   1   18.46    0.48
  10   2  -1   50.71    0.92
  10   2  -1   50.61    0.93
   9   2  -1    0.10    0.14
   9   2  -1    0.00    0.14
  -9  -2   1   -0.02    0.13
   8   2  -1    0.70    0.16
   8   2  -1    0.25    0.13
  -8  -2   1    0.58    0.14
   7   2  -1    0.75    0.14
   7   2  -1    0.70    0.15
   7   2  -1    0.63    0.13
  -7  -2   1    0.84    0.13
   6   2  -1    1.21    0.19
   6   2  -1    1.51    0.19
   6   2  -1    1.45    0.21
  -6  -2   1    1.40    0.18
  -6  -2   1    1.54    0.21
   5   2  -1  169.95    3.38
   5   2  -1  177.02    2.34
   5   2  -1  178.47    2.28
   5   2  -1  172.72    2.20
  -5  -2   1  178.78    2.21
  -5  -2   1  176.52    2.34
   4   2  -1   26.89    0.73
   4   2  -1   27.54    0.46
   4   2  -1   27.37    0.49
   4   2  -1   27.09    0.44
   4   2  -1   27.51    0.46
  -4  -2   1   27.28    0.44
  -4  -2   1   26.96    0.46
   3   2  -1    6.64    0.18
   3   2  -1    6.22    0.16
   3   2  -1    6.75    0.33
   3   2  -1    6.44    0.19
  -3  -2   1    6.66    0.17
  -3  -2   1    6.54    0.18
   2   2  -1   60.15    1.20
   2   2  -1   59.95    0.80
   2   2  -1   60.39    0.86
   2   2  -1   59.55    0.76
   2   2  -1   59.10    0.91
   2   2  -1   59.69    0.80
  -2  -2   1   60.38    1.22
  -2  -2   1   58.76    0.91
  -2  -2   1   57.93    0.80
  -2  -2   1   58.32    0.77
  -2  -2   1   59.56    0.77
   1   2  -1   25.87    0.46
   1   2  -1   27.10    0.35
   1   2  -1   26.75    0.60
   1   2  -1   26.23    0.36
   1   2  -1   26.81    0.39
   1   2  -1   27.09    0.35
  -1  -2   1   26.77    0.36
  -1  -2   1   26.30    0.38
  -1  -2   1   26.33    0.36
  -1  -2   1   26.27    0.36
  -1  -2   1   26.94    0.46
  -1  -2   1   27.67    0.63
   0   2  -1   33.13    0.72
   0   2  -1   34.34    0.59
   0   2  -1   35.11    0.46
   0  -2   1   33.62    0.74
   0  -2   1   35.31    0.46
  -1   2  -1   36.54    0.50
  -1   2  -1   35.82    0.49
   1  -2   1   36.66    0.50
   1  -2   1   36.37    0.49
  -2   2  -1   30.36    0.45
  -2   2  -1   30.55    0.45
  -2   2  -1   30.08    0.44
  -2   2  -1   29.88    0.56
   2  -2   1   30.26    0.40
   2  -2   1   31.50    0.40
   2  -2   1   30.23    0.40
   2  -2   1   29.92    0.42
   2  -2   1   30.52    0.45
  -3   2  -1    5.77    0.12
  -3   2  -1    6.01    0.18
  -3   2  -1    5.97    0.25
  -3   2  -1    5.56    0.15
   3  -2   1    5.92    0.14
   3  -2   1    5.89    0.15
   3  -2   1    6.15    0.19
  -4   2  -1   -0.01    0.13
  -4   2  -1    0.05    0.09
  -4   2  -1    0.28    0.05
   4  -2   1    0.21    0.09
   4  -2   1    0.17    0.06
   4  -2   1    0.21    0.07
  -5   2  -1   32.02    0.57
  -5   2  -1   31.24    0.65
  -5   2  -1   31.89    0.47
   5  -2   1   32.57    0.57
   5  -2   1   31.80    0.51
  -6   2  -1   50.86    0.73
  -6   2  -1   51.50    0.96
  -6   2  -1   52.10    0.85
   6  -2   1   52.29    0.85
   6  -2   1   51.15    0.77
  -7   2  -1  114.54    1.88
   7  -2   1  114.02    1.55
   7  -2   1  115.39    1.58
  -8   2  -1   11.73    0.44
   8  -2   1   11.84    0.36
   8  -2   1   12.24    0.36
   9  -2   1    0.18    0.14
   9  -2   1    0.05    0.14
  10  -2   1    0.13    0.16
  10   1  -1    6.39    0.35
  10   1  -1    6.28    0.36
   9   1  -1   55.32    0.95
   9   1  -1   54.26    0.92
   8   1  -1   60.94    0.95
   8   1  -1   59.24    0.98
  -8  -1   1   59.52    0.93
   7   1  -1   20.90    0.45
   7   1  -1   22.25    0.48
   7   1  -1   21.28    0.49
  -7  -1   1   21.73    0.45
   6   1  -1  113.45    1.60
   6   1  -1  113.73    1.56
   6   1  -1  113.32    1.51
  -6  -1   1  112.10    1.61
  -6  -1   1  113.40    1.50
   5   1  -1   98.10    1.38
   5   1  -1   98.74    1.30
   5   1  -1   98.82    1.34
  -5  -1   1   97.74    1.38
  -5  -1   1   96.82    1.29
   4   1  -1  103.51    1.35
   4   1  -1  104.24    1.39
   4   1  -1  105.82    1.44
  -4  -1   1  105.46    1.35
  -4  -1   1  106.28    1.44
   3   1  -1  102.74    1.41
   3   1  -1   99.64    1.29
   3   1  -1   95.21    1.24
   3   1  -1  100.17    1.33
  -3  -1   1   97.33    1.25
  -3  -1   1   98.01    1.33
  -3  -1   1   99.74    1.40
   2   1  -1  518.83    9.98
   2   1  -1  522.57    6.90
   2   1  -1  530.37    7.28
   2   1  -1  531.04    6.72
   2   1  -1  518.79    6.48
  -2  -1   1  527.57    7.28
  -2  -1   1  525.24    6.52
  -2  -1   1  524.17    6.89
  -2  -1   1  527.00    6.48
   1   1  -1   45.16    0.64
   1   1  -1   44.63    0.59
   1   1  -1   43.42    0.57
   1   1  -1   44.38    0.89
   1   1  -1   44.44    0.57
   1   1  -1   45.37    0.60
   1   1  -1   45.19    0.69
  -1  -1   1   44.96    0.57
  -1  -1   1   46.00    0.64
  -1  -1   1   45.26    0.62
  -1  -1   1   45.41    0.59
  -1  -1   1   45.45    0.90
  -1  -1   1   44.95    0.57
   0   1  -1   16.08    0.20
   0   1  -1   15.96    0.28
   0   1  -1   15.99    0.23
   0   1  -1   16.21    0.22
   0  -1   1   15.79    0.35
   0  -1   1   15.56    0.21
   0  -1   1   15.38    0.22
   0  -1   1   16.00    0.22
   0  -1   1   15.65    0.28
   0  -1   1   15.88    0.21
  -1   1  -1   25.99    0.37
  -1   1  -1   26.18    0.45
  -1   1  -1   25.23    0.32
  -1   1  -1   25.69    0.32
  -1   1  -1   26.02    0.36
   1  -1   1   25.02    0.33
   1  -1   1   25.40    0.32
   1  -1   1   25.75    0.45
   1  -1   1   25.27    0.33
   1  -1   1   25.68    0.36
  -2   1  -1   13.71    0.30
  -2   1  -1   14.33    0.21
  -2   1  -1   14.13    0.25
   2  -1   1   13.99    0.22
   2  -1   1   14.15    0.25
   2  -1   1   14.03    0.21
  -3   1  -1  750.02    9.76
  -3   1  -1  736.39    9.04
  -3   1  -1  732.25   11.36
   3  -1   1  744.15    9.11
   3  -1   1  752.02    9.09
   3  -1   1  741.67    9.78
  -4   1  -1  146.31    1.97
  -4   1  -1  149.50    1.81
  -4   1  -1  145.02    2.26
   4  -1   1  150.35    1.83
   4  -1   1  146.79    1.96
  -5   1  -1    0.34    0.11
  -5   1  -1    0.22    0.07
  -5   1  -1    0.20    0.13
   5  -1   1    0.25    0.09
   5  -1   1    0.28    0.11
  -6   1  -1    1.09    0.17
  -6   1  -1    1.00    0.14
  -6   1  -1    0.83    0.14
   6  -1   1    0.83    0.13
   6  -1   1    1.16    0.17
   6  -1   1    1.07    0.15
  -7   1  -1    0.24    0.15
   7  -1   1   -0.04    0.10
   7  -1   1    0.09    0.13
   7  -1   1   -0.02    0.11
   8  -1   1    6.30    0.29
   8  -1   1    6.76    0.28
   9  -1   1   20.33    0.48
   9  -1   1   20.73    0.50
  10  -1   1    6.81    0.35
  10  -1   1    7.40    0.34
  10   0  -1    0.29    0.17
  10   0  -1    0.12    0.16
   9   0  -1    5.75    0.31
   9   0  -1    5.47    0.32
   8   0  -1   21.59    0.51
   8   0  -1   22.60    0.50
   7   0  -1    2.35    0.21
   7   0  -1    2.82    0.24
   7   0  -1    2.75    0.23
  -7   0   1    2.64    0.20
   6   0  -1  281.58    3.51
   6   0  -1  287.31    3.63
   6   0  -1  281.80    3.75
  -6   0   1  284.82    3.50
  -6   0   1  290.15    3.76
   5   0  -1   76.37    1.04
   5   0  -1   75.46    1.11
  -5   0   1   75.07    1.11
  -5   0   1   77.14    1.16
  -5   0   1   75.00    1.03
   4   0  -1   46.48    0.73
   4   0  -1   44.52    0.70
   4   0  -1   45.71    0.65
  -4   0   1   45.71    0.70
  -4   0   1   45.07    0.72
  -4   0   1   44.14    0.64
   3   0  -1   10.20    0.21
   3   0  -1    9.83    0.21
   3   0  -1    9.65    0.23
  -3   0   1   10.26    0.23
  -3   0   1    9.95    0.20
  -3   0   1   10.11    0.23
   2   0  -1    0.13    0.05
   2   0  -1    0.15    0.07
   2   0  -1    0.19    0.05
   2   0  -1    0.05    0.07
   2   0  -1    0.08    0.05
  -2   0   1    0.11    0.05
  -2   0   1    0.15    0.05
  -2   0   1    0.07    0.07
   1   0  -1  253.11    3.35
   1   0  -1  251.50    3.15
   1   0  -1  249.51    4.77
  -1   0   1  255.12    3.55
  -1   0   1  247.02    3.13
  -1   0   1  258.18    3.37
  -1   0   1  250.72    3.15
  -1   0  -1   84.02    1.05
  -1   0  -1   84.78    1.07
  -1   0  -1   85.73    1.16
  -1   0  -1   84.45    1.21
  -1   0  -1   81.49    1.06
   1   0   1   84.86    1.19
   1   0   1   82.82    1.07
   1   0   1   84.94    1.15
   1   0   1   81.76    1.04
   1   0   1   83.71    1.05
  -2   0  -1   72.43    0.90
  -2   0  -1   73.63    1.12
  -2   0  -1   70.46    0.97
  -2   0  -1   71.64    0.90
   2   0   1   73.21    0.97
   2   0   1   74.99    1.02
   2   0   1   72.30    0.90
   2   0   1   72.58    0.91
   2   0   1   71.31    0.94
  -3   0  -1   96.55    1.19
  -3   0  -1   94.45    1.28
  -3   0  -1   96.82    1.46
   3   0   1   95.05    1.28
   3   0   1   95.29    1.19
   3   0   1   94.12    1.22
   3   0   1   96.06    1.20
  -4   0  -1   27.94    0.43
  -4   0  -1   28.12    0.47
  -4   0  -1   28.08    0.50
   4   0   1   27.59    0.47
   4   0   1   27.22    0.43
   4   0   1   28.33    0.44
  -5   0  -1  353.22    4.75
  -5   0  -1  355.08    4.58
  -5   0  -1  350.87    5.52
   5   0   1  370.55    4.72
   5   0   1  355.62    4.69
   5   0   1  362.38    4.61
  -6   0  -1   82.54    1.34
  -6   0  -1   84.91    1.25
  -6   0  -1   83.94    1.14
   6   0   1   85.19    1.25
   6   0   1   84.98    1.16
   6   0   1   83.56    1.17
  -7   0  -1    2.08    0.18
  -7   0  -1    2.30    0.22
   7   0   1    1.93    0.20
   7   0   1    1.95    0.22
   7   0   1    1.80    0.21
   8   0   1   42.50    0.73
   8   0   1   42.43    0.73
   9   0   1   14.49    0.42
   9   0   1   14.89    0.41
  10   0   1   19.41    0.49
  10   0   1   19.68    0.53
  10  -1  -1    7.15    0.37
  10  -1  -1    7.77    0.38
   9  -1  -1   32.03    0.66
   9  -1  -1   31.44    0.65
   8  -1  -1    3.63    0.26
   8  -1  -1    3.36    0.28
   7  -1  -1    7.19    0.30
   7  -1  -1    6.73    0.28
  -7   1   1    6.86    0.24
   6  -1  -1    3.84    0.24
   6  -1  -1    4.19    0.22
  -6   1   1    4.30    0.20
  -6   1   1    3.45    0.26
  -6   1   1    3.93    0.22
   5  -1  -1   79.49    1.06
   5  -1  -1   79.11    1.15
  -5   1   1   75.27    1.18
  -5   1   1   77.38    1.04
  -5   1   1   78.64    1.15
   4  -1  -1  261.12    3.49
   4  -1  -1  261.61    3.19
  -4   1   1  267.69    3.42
  -4   1   1  262.82    3.65
  -4   1   1  263.52    3.28
   3  -1  -1  171.33    2.25
   3  -1  -1  171.06    2.10
   3  -1  -1  173.30    2.10
  -3   1   1  174.50    2.13
  -3   1   1  170.60    2.51
  -3   1   1  173.39    2.25
   2  -1  -1   25.20    0.36
   2  -1  -1   24.72    0.35
  -2   1   1   24.89    0.40
  -2   1   1   25.14    0.40
  -2   1   1   25.16    0.35
   1  -1  -1   44.88    0.56
   1  -1  -1   44.10    0.61
   1  -1  -1   45.39    0.56
  -1   1   1   43.91    0.56
  -1   1   1   44.06    0.61
  -1   1   1   45.20    0.63
  -1   1   1   45.00    0.56
   0  -1  -1  134.16    1.68
   0  -1  -1  132.28    1.68
   0  -1  -1  133.66    1.86
   0  -1  -1  132.93    1.79
   0   1   1  133.03    1.67
   0   1   1  134.32    1.69
   0   1   1  132.81    1.89
   0   1   1  133.01    1.76
  -1  -1  -1  324.20    3.89
  -1  -1  -1  319.05    4.00
  -1  -1  -1  312.42    3.90
  -1  -1  -1  319.23    4.19
   1   1   1  312.60    4.39
   1   1   1  319.45    3.91
   1   1   1  314.87    3.89
   1   1   1  305.05    3.88
   1   1   1  313.42    4.00
  -2  -1  -1    3.64    0.12
  -2  -1  -1    3.90    0.11
  -2  -1  -1    3.75    0.12
   2   1   1    3.59    0.14
   2   1   1    3.68    0.11
   2   1   1    3.76    0.12
   2   1   1    3.51    0.11
  -3  -1  -1   13.34    0.24
  -3  -1  -1   13.02    0.26
   3   1   1   13.05    0.24
   3   1   1   12.98    0.23
   3   1   1   12.98    0.26
  -4  -1  -1   19.29    0.33
  -4  -1  -1   19.47    0.37
  -4  -1  -1   20.00    0.36
   4   1   1   19.30    0.34
   4   1   1   19.03    0.36
   4   1   1   19.08    0.34
  -5  -1  -1    7.95    0.21
  -5  -1  -1    7.71    0.25
  -5  -1  -1    8.13    0.22
   5   1   1    8.22    0.23
   5   1   1    7.82    0.26
   5   1   1    7.68    0.23
  -6  -1  -1    3.60    0.19
  -6  -1  -1    3.62    0.18
  -6  -1  -1    3.22    0.24
   6   1   1    3.01    0.23
   6   1   1    3.26    0.20
   6   1   1    3.58    0.21
  -7  -1  -1   55.12    0.83
  -7  -1  -1   54.12    0.89
   7   1   1   56.64    0.86
   7   1   1   55.69    0.85
   7   1   1   53.96    0.91
  -8  -1  -1  156.76    2.06
   8   1   1  155.08    2.11
   8   1   1  158.76    2.08
   9   1   1    0.00    0.12
   9   1   1   -0.09    0.13
  10   1   1   14.40    0.43
  10   1   1   13.88    0.46
   9  -2  -1   21.97    0.56
   9  -2  -1   22.33    0.53
   8  -2  -1   86.98    1.27
   8  -2  -1   86.43    1.32
   7  -2  -1    7.29    0.28
   6  -2  -1    0.41    0.11
   6  -2  -1    0.31    0.14
  -6   2   1    0.27    0.09
  -6   2   1    0.38    0.11
   5  -2  -1    5.44    0.21
   5  -2  -1    5.02    0.25
  -5   2   1    4.96    0.21
  -5   2   1    5.25    0.25
  -5   2   1    5.32    0.18
   4  -2  -1    4.58    0.17
   4  -2  -1    4.51    0.20
  -4   2   1    4.45    0.15
  -4   2   1    4.45    0.18
  -4   2   1    4.67    0.20
   3  -2  -1  133.74    1.79
   3  -2  -1  133.86    1.66
   3  -2  -1  132.27    1.66
  -3   2   1  136.05    1.80
  -3   2   1  135.54    1.65
  -3   2   1  131.81    1.87
  -3   2   1  138.82    2.15
   2  -2  -1    1.27    0.12
   2  -2  -1    1.28    0.09
   2  -2  -1    1.42    0.08
  -2   2   1    1.27    0.09
  -2   2   1    1.51    0.18
  -2   2   1    1.26    0.12
  -2   2   1    1.36    0.08
   1  -2  -1  149.82    1.90
   1  -2  -1  148.80    1.86
   1  -2  -1  146.82    1.87
   1  -2  -1  148.36    2.08
  -1   2   1  148.48    2.10
  -1   2   1  150.63    1.83
   0  -2  -1  127.19    1.59
   0  -2  -1  124.51    2.37
   0  -2  -1  127.64    1.58
   0  -2  -1  124.89    1.57
   0   2   1  128.57    1.70
   0   2   1  127.53    1.77
   0   2   1  121.22    1.54
  -1  -2  -1  146.39    1.95
  -1  -2  -1  153.76    1.94
  -1  -2  -1  149.13    1.86
  -1  -2  -1  148.57    2.84
  -1  -2  -1  150.14    1.86
   1   2   1  152.42    1.91
   1   2   1  149.37    2.86
   1   2   1  148.50    1.98
   1   2   1  146.99    1.87
  -2  -2  -1  146.95    2.05
  -2  -2  -1  151.84    1.92
  -2  -2  -1  148.73    1.83
   2   2   1  151.93    1.83
   2   2   1  145.90    2.00
   2   2   1  144.51    2.06
  -3  -2  -1    0.88    0.10
  -3  -2  -1    1.14    0.12
   3   2   1    1.04    0.11
   3   2   1    0.95    0.12
   3   2   1    1.04    0.10
  -4  -2  -1   20.86    0.36
  -4  -2  -1   21.00    0.38
   4   2   1   20.49    0.36
   4   2   1   20.59    0.36
   4   2   1   20.76    0.38
  -5  -2  -1   51.39    0.74
  -5  -2  -1   49.45    0.79
   5   2   1   52.15    0.80
   5   2   1   50.38    0.75
   5   2   1   52.12    0.75
  -6  -2  -1    8.88    0.27
  -6  -2  -1    8.75    0.30
   6   2   1    8.66    0.30
   6   2   1    8.57    0.27
   6   2   1    8.54    0.27
  -7  -2  -1    2.20    0.19
   7   2   1    2.03    0.22
   7   2   1    2.26    0.22
   7   2   1    1.95    0.24
  -8  -2  -1    0.08    0.12
   8   2   1   -0.07    0.13
   8   2   1    0.34    0.13
  -9  -2  -1   25.23    0.54
   9   2   1   25.27    0.56
   9   2   1   25.38    0.54
  10   2   1   20.45    0.51
  10   2   1   20.28    0.54
   9  -3  -1   -0.01    0.18
   9  -3  -1    0.18    0.14
   8  -3  -1    7.98    0.32
   7  -3  -1    4.74    0.25
   6  -3  -1   16.69    0.37
   6  -3  -1   16.60    0.43
  -6   3   1   17.47    0.41
   5  -3  -1  128.04    1.80
   5  -3  -1  131.95    1.65
  -5   3   1  126.44    1.85
  -5   3   1  127.76    1.61
  -5   3   1  128.29    1.80
   4  -3  -1   71.30    0.95
   4  -3  -1   72.58    1.06
   4  -3  -1   72.56    0.96
  -4   3   1   72.32    1.24
  -4   3   1   72.60    1.08
  -4   3   1   72.50    1.07
   3  -3  -1    1.50    0.10
   3  -3  -1    1.68    0.12
   3  -3  -1    1.65    0.15
  -3   3   1    1.66    0.16
  -3   3   1    1.60    0.24
  -3   3   1    1.48    0.08
  -3   3   1    1.52    0.11
   2  -3  -1   27.88    0.46
   2  -3  -1   27.84    0.39
   2  -3  -1   29.33    0.39
  -2   3   1   28.16    0.56
  -2   3   1   27.94    0.46
  -2   3   1   27.86    0.44
   1  -3  -1   24.99    0.33
   1  -3  -1   25.64    0.34
   1  -3  -1   25.03    0.40
  -1   3   1   25.74    0.38
  -1   3   1   24.49    0.50
   0  -3  -1  159.15    3.00
   0  -3  -1  155.74    1.94
   0  -3  -1  160.25    1.95
   0   3   1  151.80    2.07
   0   3   1  156.47    2.17
  -1  -3  -1  335.34    6.31
  -1  -3  -1  333.74    4.10
  -1  -3  -1  332.37    4.13
   1   3   1  331.77    4.27
   1   3   1  325.62    6.24
   1   3   1  325.74    4.06
  -2  -3  -1    5.08    0.15
  -2  -3  -1    5.05    0.14
  -2  -3  -1    4.83    0.13
   2   3   1    5.20    0.15
   2   3   1    5.31    0.27
   2   3   1    5.39    0.13
  -3  -3  -1   -0.01    0.06
  -3  -3  -1   -0.03    0.06
   3   3   1    0.12    0.09
   3   3   1    0.01    0.05
   3   3   1    0.06    0.07
   3   3   1   -0.07    0.07
  -4  -3  -1   24.57    0.44
  -4  -3  -1   25.23    0.41
   4   3   1   24.41    0.42
   4   3   1   25.38    0.44
   4   3   1   25.13    0.66
   4   3   1   24.89    0.41
  -5  -3  -1   91.30    1.21
  -5  -3  -1   88.66    1.28
   5   3   1   90.09    1.20
   5   3   1   91.74    1.28
   5   3   1   89.61    1.24
  -6  -3  -1  199.13    2.64
  -6  -3  -1  193.24    2.48
   6   3   1  198.38    2.49
   6   3   1  196.97    2.55
   6   3   1  196.66    2.64
  -7  -3  -1   63.98    0.94
   7   3   1   63.16    0.96
   7   3   1   61.27    0.94
   7   3   1   59.72    0.99
  -8  -3  -1    0.77    0.14
   8   3   1    0.67    0.14
   8   3   1    0.41    0.14
  -9  -3  -1    0.18    0.14
   9   3   1    0.42    0.14
   9   3   1    0.13    0.15
 -10  -3  -1    0.63    0.17
  10   3   1    0.70    0.16
  10   3   1    0.39    0.18
   9  -4  -1   22.37    0.54
   8  -4  -1   17.91    0.45
   7  -4  -1    2.00    0.22
  -7   4   1    2.00    0.22
   6  -4  -1   60.44    0.88
  -6   4   1   59.78    0.99
   5  -4  -1    0.64    0.14
   5  -4  -1    0.50    0.10
  -5   4   1    0.69    0.15
  -5   4   1    0.73    0.11
   4  -4  -1  143.69    1.95
   4  -4  -1  141.61    1.77
   4  -4  -1  139.86    1.78
  -4   4   1  143.16    1.95
  -4   4   1  141.31    2.00
  -4   4   1  144.26    2.30
   3  -4  -1  219.30    2.65
   3  -4  -1  218.36    2.88
   3  -4  -1  217.73    2.68
  -3   4   1  222.84    3.40
  -3   4   1  218.94    3.12
  -3   4   1  219.68    2.88
   2  -4  -1   45.31    0.58
   2  -4  -1   43.25    0.67
   2  -4  -1   44.44    0.58
  -2   4   1   44.32    0.66
  -2   4   1   44.98    0.84
   1  -4  -1   63.54    0.79
   1  -4  -1   63.58    0.90
   1  -4  -1   65.39    0.80
  -1   4   1   65.16    1.11
  -1   4   1   64.00    0.89
  -1   4   1   64.72    0.90
   0  -4  -1   97.34    1.81
   0  -4  -1   95.41    1.16
   0  -4  -1   94.39    1.18
   0   4   1   96.81    1.27
   0   4   1   93.27    1.30
  -1  -4  -1  245.60    3.05
  -1  -4  -1  243.58    3.05
  -1  -4  -1  246.12    4.68
   1   4   1  244.93    3.23
   1   4   1  245.15    4.66
   1   4   1  246.39    2.97
  -2  -4  -1  644.46    8.54
  -2  -4  -1  636.62   12.24
  -2  -4  -1  639.88    8.02
  -2  -4  -1  667.40    7.97
   2   4   1  657.37    7.89
   2   4   1  657.32    8.48
   2   4   1  640.95   12.20
  -3  -4  -1   86.79    1.19
  -3  -4  -1   87.21    1.12
   3   4   1   86.92    1.11
   3   4   1   87.93    1.73
   3   4   1   87.59    1.18
  -4  -4  -1   11.33    0.26
  -4  -4  -1   11.40    0.28
   4   4   1   11.38    0.27
   4   4   1   11.45    0.27
   4   4   1   11.42    0.47
   4   4   1   10.93    0.25
  -5  -4  -1   59.06    0.89
  -5  -4  -1   58.87    0.85
   5   4   1   58.23    0.84
   5   4   1   59.50    0.90
   5   4   1   58.72    0.88
   5   4   1   59.12    1.35
  -6  -4  -1   14.34    0.34
  -6  -4  -1   13.93    0.37
   6   4   1   13.75    0.35
   6   4   1   13.93    0.37
   6   4   1   13.87    0.34
  -7  -4  -1   65.85    0.98
   7   4   1   64.93    1.00
   7   4   1   64.22    1.03
   7   4   1   65.02    0.97
  -8  -4  -1   24.57    0.52
   8   4   1   24.39    0.52
   8   4   1   23.55    0.51
  -9  -4  -1   15.43    0.43
   9   4   1   15.06    0.44
   9   4   1   15.99    0.45
 -10  -4  -1    0.15    0.14
  10   4   1   -0.19    0.15
  10   4   1   -0.13    0.15
   8  -5  -1   18.16    0.46
   7  -5  -1   79.62    1.14
  -7   5   1   78.00    1.28
   6  -5  -1    0.92    0.13
  -6   5   1    0.82    0.12
   5  -5  -1    7.14    0.29
   5  -5  -1    6.71    0.23
  -5   5   1    7.03    0.24
   4  -5  -1    2.43    0.16
   4  -5  -1    2.47    0.21
  -4   5   1    2.44    0.16
   3  -5  -1   21.50    0.43
   3  -5  -1   21.80    0.34
   3  -5  -1   20.69    0.34
  -3   5   1   21.44    0.38
  -3   5   1   22.07    0.60
   2  -5  -1  303.37    3.99
   2  -5  -1  296.30    3.66
   2  -5  -1  300.41    3.72
  -2   5   1  300.72    4.60
  -2   5   1  302.27    4.16
   1  -5  -1  189.54    2.28
   1  -5  -1  186.57    2.48
   1  -5  -1  192.80    3.63
   1  -5  -1  191.19    2.33
  -1   5   1  189.97    2.98
  -1   5   1  189.35    2.44
  -1   5   1  193.80    2.62
   0  -5  -1   18.22    0.27
   0  -5  -1   18.41    0.27
   0  -5  -1   18.43    0.51
   0   5   1   18.88    0.36
   0   5   1   18.94    0.30
  -1  -5  -1  136.37    2.56
  -1  -5  -1  135.13    1.68
  -1  -5  -1  135.76    1.64
   1   5   1  133.48    1.76
   1   5   1  135.00    2.55
  -2  -5  -1   23.64    0.40
  -2  -5  -1   23.42    0.64
  -2  -5  -1   23.83    0.37
  -2  -5  -1   24.19    0.37
   2   5   1   23.85    0.43
   2   5   1   23.81    0.61
  -3  -5  -1  132.14    1.66
  -3  -5  -1  134.95    1.77
   3   5   1  134.00    1.64
   3   5   1  131.72    1.75
   3   5   1  130.52    2.54
  -4  -5  -1   68.55    0.95
  -4  -5  -1   69.33    1.00
   4   5   1   68.23    0.93
   4   5   1   69.28    1.47
   4   5   1   69.71    1.00
  -5  -5  -1  113.44    1.49
  -5  -5  -1  113.92    1.57
   5   5   1  111.17    1.55
   5   5   1  113.63    1.47
  -6  -5  -1    1.01    0.15
  -6  -5  -1    0.88    0.13
   6   5   1    1.01    0.15
   6   5   1    0.99    0.15
   6   5   1    0.76    0.12
  -7  -5  -1   36.56    0.65
   7   5   1   36.52    0.67
   7   5   1   35.79    0.67
   7   5   1   38.82    0.65
  -8  -5  -1    2.47    0.23
   8   5   1    2.77    0.24
   8   5   1    2.57    0.24
  -9  -5  -1    1.86    0.26
   9   5   1    2.45    0.25
   9   5   1    2.00    0.25
 -10  -5  -1   22.58    0.57
  10   5   1   22.35    0.57
  10   5   1   23.89    0.57
   7  -6  -1   -0.02    0.11
  -7   6   1   -0.04    0.11
   6  -6  -1   59.35    0.87
  -6   6   1   56.61    0.96
   5  -6  -1   12.63    0.30
   5  -6  -1   12.08    0.37
  -5   6   1   12.59    0.32
   4  -6  -1   40.27    0.60
   4  -6  -1   42.05    0.72
  -4   6   1   41.72    0.68
   3  -6  -1  112.20    1.54
   3  -6  -1  109.36    1.37
  -3   6   1  107.66    1.55
   2  -6  -1    3.22    0.12
   2  -6  -1    3.06    0.12
   2  -6  -1    3.25    0.34
   2  -6  -1    3.33    0.20
  -2   6   1    3.41    0.13
   1  -6  -1    5.07    0.36
   1  -6  -1    5.35    0.21
   1  -6  -1    5.17    0.13
   1  -6  -1    4.91    0.13
  -1   6   1    5.43    0.14
  -1   6   1    5.37    0.24
   0  -6  -1    7.74    0.16
   0  -6  -1    8.58    0.39
   0  -6  -1    8.21    0.16
   0   6   1    8.18    0.18
   0   6   1    8.05    0.26
  -1  -6  -1   59.04    0.76
  -1  -6  -1   58.17    0.76
  -1  -6  -1   59.00    0.77
  -1  -6  -1   59.90    1.26
   1   6   1   59.89    1.24
   1   6   1   58.52    0.88
  -2  -6  -1   59.24    1.29
  -2  -6  -1   59.52    0.79
  -2  -6  -1   59.54    0.86
  -2  -6  -1   58.37    0.79
   2   6   1   59.75    1.26
   2   6   1   61.46    0.90
  -3  -6  -1   13.41    0.57
  -3  -6  -1   12.83    0.27
  -3  -6  -1   12.90    0.30
  -3  -6  -1   12.33    0.28
   3   6   1   13.32    0.24
   3   6   1   13.20    0.51
   3   6   1   12.85    0.33
  -4  -6  -1   21.43    0.40
  -4  -6  -1   21.56    0.42
   4   6   1   21.44    0.45
   4   6   1   21.51    0.37
   4   6   1   22.02    0.69
  -5  -6  -1    1.99    0.18
  -5  -6  -1    1.71    0.20
   5   6   1    1.66    0.21
   5   6   1    1.78    0.16
  -6  -6  -1   79.76    1.16
  -6  -6  -1   84.01    1.22
   6   6   1   82.17    1.14
   6   6   1   80.51    1.21
  -7  -6  -1   63.38    0.98
   7   6   1   64.06    0.95
   7   6   1   63.43    1.01
   7   6   1   60.93    1.00
  -8  -6  -1   12.85    0.39
   8   6   1   12.19    0.37
   8   6   1   12.70    0.40
  -9  -6  -1    0.34    0.14
   9   6   1    0.24    0.15
 -10  -6  -1    2.06    0.28
  10   6   1    2.19    0.28
   7  -7  -1    0.18    0.12
   6  -7  -1    0.37    0.11
  -6   7   1    0.46    0.11
   5  -7  -1    0.07    0.09
  -5   7   1    0.02    0.08
   4  -7  -1    1.28    0.20
   4  -7  -1    0.96    0.14
  -4   7   1    0.96    0.14
   3  -7  -1   30.32    0.84
   3  -7  -1   31.35    0.57
   3  -7  -1   30.88    0.45
  -3   7   1   29.51    0.51
   2  -7  -1   36.91    0.94
   2  -7  -1   38.05    0.64
   2  -7  -1   37.30    0.52
  -2   7   1   39.09    0.59
   1  -7  -1    5.76    0.42
   1  -7  -1    5.74    0.14
   1  -7  -1    5.77    0.23
   1  -7  -1    5.91    0.15
  -1   7   1    5.87    0.26
  -1   7   1    5.78    0.16
   0  -7  -1   11.41    0.21
   0  -7  -1   11.44    0.29
   0  -7  -1   11.42    0.21
   0  -7  -1   12.18    0.50
   0   7   1   11.74    0.24
   0   7   1   11.96    0.33
  -1  -7  -1    0.34    0.15
  -1  -7  -1    0.55    0.07
  -1  -7  -1    0.69    0.10
   1   7   1    0.56    0.13
  -2  -7  -1    3.77    0.45
  -2  -7  -1    4.15    0.19
  -2  -7  -1    3.71    0.16
  -2  -7  -1    3.84    0.16
   2   7   1    3.92    0.37
   2   7   1    4.20    0.22
  -3  -7  -1   81.33    1.77
  -3  -7  -1   83.07    1.16
  -3  -7  -1   82.50    1.10
   3   7   1   82.97    1.72
   3   7   1   81.81    1.20
  -4  -7  -1   50.15    0.77
  -4  -7  -1   50.16    0.74
   4   7   1   49.01    0.81
  -5  -7  -1   -0.06    0.11
  -5  -7  -1    0.06    0.10
   5   7   1   -0.07    0.12
  -6  -7  -1   12.07    0.34
  -6  -7  -1   12.01    0.33
   6   7   1   11.74    0.37
  -7  -7  -1    1.50    0.22
   7   7   1    1.50    0.23
  -8  -7  -1   36.47    0.70
   8   7   1   36.90    0.73
  -9  -7  -1    8.09    0.36
   9   7   1    8.42    0.37
   6  -8  -1   42.47    0.68
  -6   8   1   43.68    0.78
   5  -8  -1    4.66    0.20
  -5   8   1    4.62    0.22
   4  -8  -1    9.91    0.34
   4  -8  -1   10.75    0.54
   4  -8  -1   10.05    0.24
  -4   8   1    9.85    0.27
   3  -8  -1   22.94    0.75
   3  -8  -1   23.20    0.37
   3  -8  -1   23.92    0.49
  -3   8   1   23.31    0.42
   2  -8  -1   54.32    0.84
   2  -8  -1   54.12    1.25
   2  -8  -1   54.10    0.71
  -2   8   1   50.99    0.79
   1  -8  -1  301.60    3.58
   1  -8  -1  299.12    3.89
   1  -8  -1  300.11    5.60
  -1   8   1  296.20    3.86
  -1   8   1  303.13    4.08
   0  -8  -1   13.07    0.24
   0  -8  -1   13.37    0.31
   0  -8  -1   12.78    0.54
   0   8   1   13.10    0.37
   0   8   1   12.99    0.26
  -1  -8  -1    0.26    0.07
  -1  -8  -1    0.03    0.15
   1   8   1    0.35    0.12
   1   8   1    0.22    0.07
  -2  -8  -1    0.02    0.16
  -2  -8  -1   -0.05    0.07
  -2  -8  -1    0.09    0.10
   2   8   1   -0.03    0.11
  -3  -8  -1    0.16    0.08
  -3  -8  -1   -0.10    0.17
  -3  -8  -1    0.19    0.10
   3   8   1    0.23    0.12
  -4  -8  -1  113.60    1.51
  -4  -8  -1  117.21    1.59
   4   8   1  113.89    1.64
  -5  -8  -1  129.16    1.73
  -5  -8  -1  132.06    1.81
   5   8   1  130.54    1.84
  -6  -8  -1   32.78    0.61
  -6  -8  -1   33.25    0.61
   6   8   1   32.71    0.66
  -7  -8  -1    0.10    0.12
   7   8   1    0.17    0.14
  -8  -8  -1    1.08    0.17
   8   8   1    0.99    0.18
  -9  -8  -1    0.50    0.16
   9   8   1    0.54    0.17
   5  -9  -1   17.84    0.36
  -5   9   1   17.63    0.40
   4  -9  -1   60.62    0.83
  -4   9   1   59.61    0.93
   3  -9  -1   15.37    0.29
  -3   9   1   15.56    0.32
   2  -9  -1    9.12    0.51
  -2   9   1    9.01    0.22
   1  -9  -1    2.54    0.40
   1  -9  -1    3.03    0.13
  -1   9   1    3.00    0.15
   0  -9  -1   10.96    0.23
   0  -9  -1   10.80    0.55
   0   9   1   11.12    0.26
   0   9   1   11.53    0.38
  -1  -9  -1   29.03    0.45
  -1  -9  -1   29.57    0.55
  -1  -9  -1   29.78    0.88
   1   9   1   29.10    0.51
   1   9   1   29.06    0.60
  -2  -9  -1   90.94    1.93
  -2  -9  -1   87.28    1.16
   2   9   1   88.09    1.33
  -3  -9  -1    9.03    0.25
  -3  -9  -1    7.65    0.59
   3   9   1    8.92    0.34
  -4  -9  -1   17.11    0.37
   4   9   1   17.05    0.46
  -5  -9  -1   14.35    0.36
   5   9   1   14.50    0.43
  -6  -9  -1    0.18    0.13
   6   9   1    0.29    0.15
  -7  -9  -1   27.68    0.59
   7   9   1   28.81    0.65
  -8  -9  -1   16.75    0.48
   8   9   1   15.85    0.51
  -3  10   1   23.01    0.42
  -2  10   1   31.20    0.52
  -1  10   1   10.46    0.25
   0 -10  -1    1.05    0.12
   0  10   1    0.59    0.17
   0  10   1    0.90    0.13
  -1 -10  -1    2.16    0.14
   1  10   1    2.17    0.16
   1  10   1    2.22    0.25
  -2 -10  -1    0.04    0.08
   2  10   1    0.11    0.13
   2  10   1    0.11    0.09
  -3 -10  -1   50.40    1.32
  -3 -10  -1   49.64    0.75
   3  10   1   49.96    0.90
  -4 -10  -1   64.70    0.95
   4  10   1   66.09    1.10
  -5 -10  -1    0.77    0.13
   5  10   1    0.78    0.17
  -6 -10  -1    2.91    0.25
   6  10   1    2.88    0.29
  -7 -10  -1    1.86    0.24
   7  10   1    1.96    0.29
  -2  11   1    0.49    0.08
  -1  11   1    3.50    0.17
   0 -11  -1   37.96    0.55
   0  11   1   39.57    0.79
   0  11   1   38.24    0.64
  -1 -11  -1    7.43    0.21
   1  11   1    7.28    0.24
   1  11   1    7.31    0.36
  -2 -11  -1    5.99    0.21
   2  11   1    5.92    0.25
   2  11   1    5.66    0.33
  -3 -11  -1    4.48    0.21
   3  11   1    4.42    0.25
   3  11   1    4.43    0.32
  -4 -11  -1    1.25    0.19
   4  11   1    1.03    0.15
   4  11   1    0.86    0.18
  -5 -11  -1   29.58    0.58
   5  11   1   30.37    0.69
  -6 -11  -1   20.21    0.49
   6  11   1   21.75    0.60
  -2 -12  -1   18.88    0.37
   2  12   1   19.01    0.44
   2  12   1   19.08    0.55
  -3 -12  -1   25.21    0.48
   3  12   1   26.24    0.66
   5  11  -2    0.37    0.18
  -5 -11   2    0.36    0.12
   4  11  -2    2.41    0.30
  -4 -11   2    2.66    0.20
   3  11  -2    1.81    0.27
   3  11  -2    1.50    0.18
  -3 -11   2    1.97    0.18
   2  11  -2   10.30    0.39
   2  11  -2    9.49    0.28
  -2 -11   2    9.67    0.25
   1  11  -2   37.11    0.73
   1  11  -2   35.96    0.60
   0  11  -2    9.21    0.37
   0  11  -2    7.40    0.65
  -1  11  -2    0.75    0.38
   6  10  -2    2.43    0.31
  -6 -10   2    2.79    0.25
   5  10  -2   34.68    0.73
  -5 -10   2   35.44    0.63
   4  10  -2    9.81    0.38
  -4 -10   2   10.07    0.29
   3  10  -2    0.14    0.09
   3  10  -2    0.48    0.15
  -3 -10   2    0.23    0.09
  -3 -10   2   -0.45    0.21
   2  10  -2    4.55    0.29
   2  10  -2    4.65    0.19
   2  10  -2    2.74    0.49
  -2 -10   2    4.63    0.18
   1  10  -2    1.99    0.24
   1  10  -2    2.13    0.14
   1  10  -2    1.87    0.33
  -1 -10   2    2.29    0.13
   0  10  -2   30.42    0.85
   0  10  -2   29.29    0.46
   0  10  -2   29.17    0.61
   0 -10   2   27.48    0.97
  -1  10  -2   42.35    0.77
  -1  10  -2   41.69    1.05
   1 -10   2   40.68    1.26
  -2  10  -2   15.76    0.71
  -3  10  -2    0.38    0.34
   7   9  -2    8.81    0.39
  -7  -9   2    8.27    0.34
   6   9  -2   14.44    0.45
  -6  -9   2   13.83    0.39
   5   9  -2    9.28    0.37
  -5  -9   2    9.86    0.78
  -5  -9   2    8.90    0.30
   4   9  -2   18.04    0.46
  -4  -9   2   17.40    0.38
  -4  -9   2   16.19    0.84
   3   9  -2   35.46    0.68
   3   9  -2   36.27    0.64
   3   9  -2   35.30    0.84
  -3  -9   2   35.61    1.12
  -3  -9   2   34.76    0.57
   2   9  -2   81.40    1.22
   2   9  -2   81.01    1.24
   2   9  -2   81.03    1.52
  -2  -9   2   82.74    1.08
  -2  -9   2   83.48    1.91
   1   9  -2    3.40    0.25
   1   9  -2    3.25    0.42
   1   9  -2    3.15    0.15
  -1  -9   2    3.11    0.14
  -1  -9   2    2.91    0.50
   0   9  -2   51.27    0.77
   0   9  -2   53.92    1.14
   0   9  -2   54.00    0.88
   0  -9   2   55.00    1.38
  -1   9  -2    0.44    0.26
  -1   9  -2    0.52    0.14
   1  -9   2    0.09    0.16
  -2   9  -2   51.24    1.14
   2  -9   2   49.09    1.32
  -3   9  -2   73.89    1.49
   3  -9   2   69.75    1.71
  -4   9  -2   44.04    1.11
  -5   9  -2    0.67    0.35
   8   8  -2    1.84    0.28
  -8  -8   2    1.77    0.26
   7   8  -2   44.39    0.85
  -7  -8   2   45.74    0.80
   6   8  -2   34.41    0.69
  -6  -8   2   33.66    0.63
   5   8  -2   18.06    0.47
  -5  -8   2   18.40    0.81
  -5  -8   2   17.19    0.40
   4   8  -2   14.94    0.41
   4   8  -2   14.75    0.37
  -4  -8   2   14.48    0.77
  -4  -8   2   14.79    0.34
   3   8  -2    1.43    0.15
   3   8  -2    1.18    0.22
   3   8  -2    1.30    0.20
  -3  -8   2    0.66    0.22
  -3  -8   2    1.17    0.15
   2   8  -2   20.65    0.45
   2   8  -2   20.56    0.60
   2   8  -2   20.70    0.40
  -2  -8   2   21.19    0.82
  -2  -8   2   20.70    0.36
   1   8  -2  104.20    1.82
   1   8  -2  104.42    1.47
  -1  -8   2  106.99    2.25
  -1  -8   2  103.13    1.31
   0   8  -2   63.57    1.24
   0   8  -2   63.98    0.97
   0  -8   2   63.19    1.50
  -1   8  -2    0.14    0.23
  -1   8  -2    0.27    0.12
   1  -8   2    0.16    0.15
  -2   8  -2    0.00    0.25
   2  -8   2    0.00    0.15
  -3   8  -2    1.37    0.29
   3  -8   2    1.96    0.42
  -4   8  -2    1.25    0.30
   4  -8   2    0.91    0.18
  -5   8  -2   36.57    0.97
   5  -8   2   36.16    0.54
  -6   8  -2   20.14    0.78
   6  -8   2   20.86    0.39
   9   7  -2   11.90    0.45
  -9  -7   2   11.25    0.43
   8   7  -2    8.74    0.38
  -8  -7   2    9.20    0.37
   7   7  -2    3.35    0.28
  -7  -7   2    2.72    0.25
   6   7  -2   25.32    0.56
  -6  -7   2   25.39    0.52
   5   7  -2    8.77    0.32
  -5  -7   2    8.58    0.25
  -5  -7   2    8.83    0.28
   4   7  -2    9.74    0.32
   4   7  -2    9.86    0.29
  -4  -7   2   10.35    0.68
  -4  -7   2   10.06    0.24
  -4  -7   2    9.50    0.27
   3   7  -2    4.89    0.34
   3   7  -2    4.52    0.20
   3   7  -2    4.65    0.24
  -3  -7   2    4.39    0.15
  -3  -7   2    5.15    0.55
  -3  -7   2    4.20    0.18
   2   7  -2    3.05    0.21
   2   7  -2    3.45    0.16
   2   7  -2    3.16    0.34
  -2  -7   2    3.18    0.53
  -2  -7   2    3.21    0.15
   1   7  -2   11.19    0.31
   1   7  -2   11.38    0.48
  -1  -7   2   10.90    0.21
  -1  -7   2   11.15    0.21
  -1  -7   2   11.26    0.61
   0   7  -2    6.39    0.43
   0   7  -2    6.56    0.25
   0  -7   2    6.75    0.51
  -1   7  -2   28.41    0.52
  -1   7  -2   28.72    0.73
   1  -7   2   28.02    0.42
   1  -7   2   28.14    0.87
  -2   7  -2    2.25    0.38
   2  -7   2    2.00    0.40
   2  -7   2    1.99    0.14
  -3   7  -2    5.90    0.44
   3  -7   2    5.92    0.21
   3  -7   2    6.74    0.48
  -4   7  -2    0.28    0.24
   4  -7   2    0.15    0.06
  -5   7  -2    6.22    0.48
   5  -7   2    6.26    0.20
  -6   7  -2   12.18    0.60
   6  -7   2   12.93    0.31
  -7   7  -2    4.08    0.53
   7  -7   2    4.23    0.24
   9   6  -2    9.16    0.39
  -9  -6   2    9.17    0.39
   8   6  -2   83.80    1.33
  -8  -6   2   85.61    1.29
   7   6  -2   13.12    0.37
   7   6  -2   13.26    0.41
  -7  -6   2   13.32    0.38
   6   6  -2   11.46    0.37
   6   6  -2   12.11    0.32
  -6  -6   2   11.89    0.32
  -6  -6   2   11.72    0.34
   5   6  -2    1.36    0.21
   5   6  -2    1.50    0.17
   5   6  -2    1.61    0.16
  -5  -6   2    1.75    0.17
  -5  -6   2    1.38    0.18
   4   6  -2   12.28    0.26
   4   6  -2   12.88    0.40
   4   6  -2   12.58    0.33
   4   6  -2   12.63    0.34
  -4  -6   2   12.71    0.30
  -4  -6   2   13.84    0.74
  -4  -6   2   12.71    0.28
   3   6  -2   88.04    1.25
   3   6  -2   89.23    1.47
   3   6  -2   88.05    1.11
   3   6  -2   88.32    1.31
  -3  -6   2   89.60    1.93
  -3  -6   2   89.11    1.17
  -3  -6   2   86.40    1.18
  -3  -6   2   87.87    1.16
   2   6  -2  191.81    2.65
   2   6  -2  192.44    3.00
   2   6  -2  193.49    2.50
  -2  -6   2  195.24    3.74
  -2  -6   2  193.48    2.36
  -2  -6   2  192.15    2.35
   1   6  -2   62.88    1.14
   1   6  -2   62.83    0.92
  -1  -6   2   63.78    0.81
  -1  -6   2   62.94    0.81
  -1  -6   2   64.30    1.43
   0   6  -2   -0.04    0.08
   0   6  -2   -0.14    0.19
   0  -6   2    0.10    0.14
  -1   6  -2   35.31    0.57
  -1   6  -2   34.56    0.78
   1  -6   2   35.54    0.50
   1  -6   2   35.52    0.94
  -2   6  -2    0.31    0.22
   2  -6   2    0.50    0.08
   2  -6   2    0.32    0.15
  -3   6  -2  167.00    2.71
   3  -6   2  164.15    2.18
  -4   6  -2  275.78    3.53
  -4   6  -2  261.69    4.24
   4  -6   2  272.48    3.25
   4  -6   2  270.27    3.51
  -5   6  -2   41.32    0.95
   5  -6   2   41.89    0.71
   5  -6   2   42.24    0.62
  -6   6  -2    4.91    0.46
   6  -6   2    4.44    0.27
   6  -6   2    4.32    0.21
  -7   6  -2    0.57    0.28
   7  -6   2    0.47    0.12
  10   5  -2    3.09    0.33
 -10  -5   2    2.92    0.30
   9   5  -2    6.07    0.35
   9   5  -2    5.87    0.32
  -9  -5   2    6.45    0.34
   8   5  -2   19.60    0.51
   8   5  -2   19.72    0.47
  -8  -5   2   19.77    0.49
   7   5  -2    0.24    0.11
   7   5  -2   -0.05    0.13
   7   5  -2    0.23    0.13
  -7  -5   2    0.11    0.12
   6   5  -2   47.46    0.74
   6   5  -2   46.65    0.80
   6   5  -2   46.70    0.77
  -6  -5   2   46.87    0.76
  -6  -5   2   48.15    0.77
   5   5  -2  109.77    1.45
   5   5  -2  109.68    1.54
   5   5  -2  111.86    1.52
  -5  -5   2  109.82    1.48
  -5  -5   2  110.85    1.52
   4   5  -2    0.15    0.09
   4   5  -2    0.30    0.09
   4   5  -2    0.10    0.11
   4   5  -2    0.07    0.08
   4   5  -2    0.14    0.13
  -4  -5   2    0.06    0.09
  -4  -5   2    0.13    0.09
  -4  -5   2    0.22    0.19
   3   5  -2  171.26    2.22
   3   5  -2  168.99    2.64
   3   5  -2  173.56    2.10
   3   5  -2  170.46    2.23
   3   5  -2  174.52    2.40
  -3  -5   2  173.02    2.13
  -3  -5   2  172.14    3.35
  -3  -5   2  172.99    2.22
   2   5  -2   30.34    0.61
   2   5  -2   30.74    0.51
   2   5  -2   30.41    0.50
   2   5  -2   30.72    0.80
   2   5  -2   30.68    0.41
  -2  -5   2   30.11    0.43
  -2  -5   2   30.47    0.83
  -2  -5   2   30.89    0.45
  -2  -5   2   30.37    0.45
   1   5  -2   77.91    1.06
   1   5  -2   75.96    1.30
   1   5  -2   78.52    1.61
   1   5  -2   78.71    1.09
  -1  -5   2   77.41    1.63
  -1  -5   2   76.60    0.97
  -1  -5   2   77.81    0.97
   0   5  -2  193.66    2.42
   0   5  -2  189.50    2.97
   0  -5   2  188.97    3.63
  -1   5  -2  169.70    2.67
  -1   5  -2  169.08    2.15
   1  -5   2  168.39    2.16
   1  -5   2  167.77    3.25
  -2   5  -2    0.39    0.20
   2  -5   2    0.49    0.08
   2  -5   2    0.37    0.14
  -3   5  -2   86.15    1.51
  -3   5  -2   84.42    1.19
  -3   5  -2   89.29    1.19
   3  -5   2   84.90    1.06
   3  -5   2   83.01    1.18
   3  -5   2   85.49    1.06
  -4   5  -2    5.89    0.23
  -4   5  -2    5.98    0.41
   4  -5   2    5.89    0.23
   4  -5   2    5.74    0.18
  -5   5  -2   55.61    0.86
  -5   5  -2   51.99    1.07
   5  -5   2   52.63    0.75
   5  -5   2   54.48    0.85
  -6   5  -2   66.55    1.30
   6  -5   2   68.25    0.95
   6  -5   2   67.43    1.06
  -7   5  -2    0.83    0.26
   7  -5   2    0.55    0.12
  -8   5  -2    3.14    0.48
   8  -5   2    3.48    0.25
  10   4  -2   18.95    0.53
  10   4  -2   18.74    0.54
 -10  -4   2   18.66    0.52
   9   4  -2   31.23    0.68
   9   4  -2   31.98    0.66
  -9  -4   2   31.69    0.66
   8   4  -2    2.68    0.26
   8   4  -2    2.24    0.23
  -8  -4   2    2.69    0.25
   7   4  -2    5.83    0.27
   7   4  -2    5.56    0.27
   7   4  -2    5.84    0.28
  -7  -4   2    6.15    0.28
   6   4  -2    2.66    0.22
   6   4  -2    2.51    0.21
   6   4  -2    2.63    0.23
  -6  -4   2    2.85    0.21
  -6  -4   2    2.77    0.21
   5   4  -2   61.48    1.00
   5   4  -2   61.21    0.94
   5   4  -2   60.29    0.91
   5   4  -2   61.14    0.87
  -5  -4   2   62.85    0.90
  -5  -4   2   62.09    0.92
   4   4  -2  253.23    3.34
   4   4  -2  262.10    3.25
   4   4  -2  255.86    3.19
   4   4  -2  254.67    3.87
   4   4  -2  256.55    3.53
  -4  -4   2  256.27    3.14
  -4  -4   2  263.20    3.35
  -4  -4   2  245.24    4.82
   3   4  -2  180.90    2.30
   3   4  -2  186.67    2.49
   3   4  -2  179.96    3.40
   3   4  -2  174.19    2.73
   3   4  -2  174.68    2.30
   3   4  -2  178.21    2.19
  -3  -4   2  177.68    2.21
  -3  -4   2  178.27    2.31
  -3  -4   2  178.91    3.43
   2   4  -2   14.80    0.29
   2   4  -2   14.83    0.24
   2   4  -2   14.44    0.35
   2   4  -2   14.90    0.30
   2   4  -2   15.35    0.49
   2   4  -2   14.97    0.24
  -2  -4   2   15.50    0.26
  -2  -4   2   15.23    0.54
  -2  -4   2   15.05    0.26
  -2  -4   2   14.49    0.24
   1   4  -2    4.01    0.29
   1   4  -2    4.06    0.22
   1   4  -2    3.97    0.12
   1   4  -2    4.08    0.15
  -1  -4   2    3.93    0.11
  -1  -4   2    4.13    0.12
  -1  -4   2    4.04    0.31
   0   4  -2  104.12    1.34
   0   4  -2  103.72    1.41
   0   4  -2  103.82    1.67
   0  -4   2  102.81    2.05
   0  -4   2  105.03    1.26
   0  -4   2  103.89    1.25
  -1   4  -2   97.38    1.27
  -1   4  -2   99.34    1.61
   1  -4   2   97.27    1.96
   1  -4   2   99.33    1.27
  -2   4  -2  315.26    4.24
  -2   4  -2  309.43    4.97
  -2   4  -2  304.49    4.03
   2  -4   2  308.56    4.11
  -3   4  -2   24.19    0.60
  -3   4  -2   23.78    0.39
  -3   4  -2   24.53    0.42
   3  -4   2   24.02    0.41
   3  -4   2   24.55    0.35
   3  -4   2   24.05    0.35
   3  -4   2   24.55    0.35
  -4   4  -2    3.27    0.35
  -4   4  -2    3.60    0.20
   4  -4   2    3.61    0.16
   4  -4   2    3.78    0.20
   4  -4   2    3.90    0.14
  -5   4  -2    0.20    0.21
  -5   4  -2    0.11    0.11
   5  -4   2    0.07    0.09
   5  -4   2    0.14    0.11
  -6   4  -2    6.89    0.39
   6  -4   2    6.86    0.24
   6  -4   2    6.78    0.28
  -7   4  -2   31.83    0.78
   7  -4   2   33.34    0.58
  -8   4  -2   23.42    0.68
   8  -4   2   22.61    0.49
   9  -4   2    9.94    0.37
  10   3  -2    0.00    0.15
  10   3  -2    0.30    0.17
 -10  -3   2    0.12    0.15
   9   3  -2    4.28    0.31
   9   3  -2    4.37    0.31
  -9  -3   2    4.45    0.28
   8   3  -2    9.45    0.36
   8   3  -2    8.96    0.34
  -8  -3   2    9.28    0.33
   7   3  -2   58.72    0.95
   7   3  -2   58.25    0.95
   7   3  -2   58.97    0.91
  -7  -3   2   58.76    0.91
   6   3  -2    5.86    0.25
   6   3  -2    5.81    0.28
   6   3  -2    5.66    0.26
  -6  -3   2    6.17    0.28
  -6  -3   2    6.10    0.25
   5   3  -2   14.92    0.34
   5   3  -2   15.59    0.37
   5   3  -2   14.47    0.36
   5   3  -2   14.71    0.34
  -5  -3   2   14.80    0.34
  -5  -3   2   15.19    0.34
   4   3  -2  112.09    1.50
   4   3  -2  110.03    2.23
   4   3  -2  110.84    1.43
   4   3  -2  110.78    1.51
  -4  -3   2  112.36    1.51
  -4  -3   2  114.19    1.45
   3   3  -2   10.83    0.24
   3   3  -2   10.45    0.23
   3   3  -2   11.18    0.26
   3   3  -2   10.61    0.42
   3   3  -2   11.34    0.26
   3   3  -2   11.03    0.23
  -3  -3   2   10.75    0.23
  -3  -3   2   11.04    0.24
  -3  -3   2   10.91    0.49
   2   3  -2  113.60    2.20
   2   3  -2  112.37    1.74
   2   3  -2  115.50    1.59
   2   3  -2  114.28    1.49
   2   3  -2  114.47    1.41
   2   3  -2  117.02    1.48
  -2  -3   2  115.71    1.42
  -2  -3   2  110.37    1.41
  -2  -3   2  109.88    1.47
  -2  -3   2  116.84    2.23
   1   3  -2   27.86    0.42
   1   3  -2   27.92    0.43
   1   3  -2   27.68    0.66
   1   3  -2   27.80    0.51
  -1  -3   2   28.27    0.68
  -1  -3   2   27.37    0.38
  -1  -3   2   28.40    0.39
   0   3  -2    1.11    0.09
   0   3  -2    1.06    0.17
   0   3  -2    1.19    0.06
   0  -3   2    1.42    0.09
   0  -3   2    1.19    0.24
   0  -3   2    1.19    0.06
   0  -3   2    1.24    0.06
  -1   3  -2    1.39    0.09
  -1   3  -2    1.48    0.06
  -1   3  -2    1.34    0.08
  -1   3  -2    1.34    0.18
   1  -3   2    1.45    0.05
   1  -3   2    1.45    0.08
   1  -3   2    1.46    0.08
   1  -3   2    1.00    0.25
  -2   3  -2   32.64    0.64
  -2   3  -2   31.92    0.48
  -2   3  -2   31.72    0.47
   2  -3   2   32.26    0.42
   2  -3   2   32.74    0.48
   2  -3   2   32.42    0.45
   2  -3   2   32.60    0.43
  -3   3  -2    3.34    0.16
  -3   3  -2    3.54    0.27
  -3   3  -2    3.20    0.12
   3  -3   2    3.34    0.15
   3  -3   2    3.26    0.10
   3  -3   2    3.27    0.12
   3  -3   2    3.24    0.12
  -4   3  -2   48.94    0.74
  -4   3  -2   47.56    0.91
   4  -3   2   47.99    0.74
   4  -3   2   48.33    0.67
   4  -3   2   48.27    0.66
  -5   3  -2   84.99    1.49
  -5   3  -2   87.95    1.26
   5  -3   2   90.39    1.18
   5  -3   2   86.46    1.26
   5  -3   2   86.43    1.15
  -6   3  -2    5.39    0.36
  -6   3  -2    5.37    0.27
   6  -3   2    5.45    0.26
   6  -3   2    4.90    0.22
  -7   3  -2   12.00    0.45
   7  -3   2   10.99    0.31
   7  -3   2   11.43    0.32
  -8   3  -2    4.38    0.37
   8  -3   2    3.81    0.25
   8  -3   2    3.93    0.26
   9  -3   2    6.01    0.31
  10   2  -2   14.82    0.49
  10   2  -2   13.78    0.48
   9   2  -2    0.57    0.16
   9   2  -2    0.30    0.16
  -9  -2   2    0.23    0.13
   8   2  -2    2.34    0.25
   8   2  -2    2.73    0.27
  -8  -2   2    2.39    0.22
   7   2  -2    0.55    0.14
   7   2  -2    0.52    0.14
   7   2  -2    0.60    0.13
  -7  -2   2    0.53    0.12
   6   2  -2   31.13    0.59
   6   2  -2   31.38    0.58
   6   2  -2   30.22    0.55
  -6  -2   2   31.27    0.59
  -6  -2   2   30.65    0.55
   5   2  -2   88.30    1.20
   5   2  -2   88.79    1.25
   5   2  -2   90.68    1.27
  -5  -2   2   90.74    1.21
  -5  -2   2   88.59    1.27
   4   2  -2  104.53    1.36
   4   2  -2  105.69    1.42
   4   2  -2  103.70    2.10
   4   2  -2  107.43    1.53
   4   2  -2  106.00    1.44
  -4  -2   2  105.60    1.44
  -4  -2   2  105.48    1.37
   3   2  -2   21.29    0.59
   3   2  -2   21.89    0.38
   3   2  -2   21.11    0.35
   3   2  -2   20.11    0.35
   3   2  -2   20.59    0.36
  -3  -2   2   21.66    0.36
  -3  -2   2   20.59    0.36
  -3  -2   2   21.25    0.38
   2   2  -2  335.20    4.77
   2   2  -2  332.12    6.55
   2   2  -2  337.49    4.32
   2   2  -2  330.00    4.18
   2   2  -2  334.53    4.43
   2   2  -2  331.12    5.10
  -2  -2   2  338.51    4.19
  -2  -2   2  333.61    4.22
  -2  -2   2  332.92    4.61
  -2  -2   2  337.65    6.34
  -2  -2   2  326.45    4.43
   1   2  -2   40.30    0.66
   1   2  -2   39.21    0.53
   1   2  -2   39.38    0.55
   1   2  -2   39.46    0.52
   1   2  -2   40.21    0.59
   1   2  -2   39.57    0.84
  -1  -2   2   40.00    0.55
  -1  -2   2   38.78    0.52
  -1  -2   2   41.17    0.87
  -1  -2   2   38.81    0.53
  -1  -2   2   39.93    0.52
   0   2  -2   49.81    0.62
   0   2  -2   50.89    0.65
   0   2  -2   50.84    1.03
   0   2  -2   50.27    0.61
   0   2  -2   49.73    0.83
   0   2  -2   49.96    0.70
   0  -2   2   50.55    1.03
   0  -2   2   50.18    0.63
   0  -2   2   49.86    0.63
   0  -2   2   51.88    0.65
  -1   2  -2  294.56    3.84
  -1   2  -2  283.48    4.63
  -1   2  -2  293.90    3.70
  -1   2  -2  295.11    4.07
   1  -2   2  297.23    3.83
   1  -2   2  299.62    3.60
   1  -2   2  289.82    3.63
   1  -2   2  300.39    3.69
  -2   2  -2  135.72    2.13
  -2   2  -2  136.59    1.89
  -2   2  -2  137.22    1.84
   2  -2   2  137.86    1.72
   2  -2   2  140.63    1.67
   2  -2   2  135.17    1.70
   2  -2   2  139.93    1.85
  -3   2  -2    0.01    0.12
  -3   2  -2    0.07    0.04
  -3   2  -2    0.05    0.05
  -3   2  -2   -0.01    0.07
   3  -2   2   -0.02    0.04
   3  -2   2    0.09    0.07
   3  -2   2    0.02    0.05
   3  -2   2    0.09    0.05
  -4   2  -2   31.40    0.48
  -4   2  -2   37.17    0.70
  -4   2  -2   37.39    0.59
   4  -2   2   37.52    0.52
   4  -2   2   37.24    0.59
   4  -2   2   37.49    0.53
  -5   2  -2    0.96    0.11
  -5   2  -2    0.71    0.18
  -5   2  -2    0.95    0.13
   5  -2   2    0.96    0.13
   5  -2   2    0.83    0.11
  -6   2  -2   77.26    1.35
  -6   2  -2   78.88    1.19
   6  -2   2   79.80    1.09
   6  -2   2   79.48    1.09
   6  -2   2   79.10    1.19
  -7   2  -2   52.86    1.00
   7  -2   2   53.63    0.90
   7  -2   2   52.69    0.83
   7  -2   2   54.28    0.82
  -8   2  -2    5.90    0.36
   8  -2   2    4.87    0.24
   8  -2   2    4.96    0.27
   9  -2   2    2.23    0.25
  10  -2   2    0.01    0.15
  10   1  -2   14.41    0.48
  10   1  -2   15.04    0.49
   9   1  -2   64.17    1.08
   9   1  -2   64.18    1.05
   8   1  -2   62.16    0.98
   8   1  -2   61.20    1.01
  -8  -1   2   61.85    0.97
   7   1  -2    4.99    0.25
   7   1  -2    4.32    0.27
   7   1  -2    4.95    0.27
  -7  -1   2    4.36    0.24
   6   1  -2   31.60    0.56
   6   1  -2   31.28    0.59
   6   1  -2   30.68    0.59
  -6  -1   2   31.53    0.60
  -6  -1   2   30.50    0.55
   5   1  -2   29.60    0.54
   5   1  -2   30.30    0.54
   5   1  -2   29.72    0.51
   5   1  -2   30.06    0.83
  -5  -1   2   29.59    0.50
  -5  -1   2   30.05    0.54
  -5  -1   2   30.25    0.56
   4   1  -2  115.69    1.53
   4   1  -2  115.04    1.57
   4   1  -2  115.03    1.47
   4   1  -2  114.90    2.27
  -4  -1   2  115.62    1.48
  -4  -1   2  113.44    1.65
  -4  -1   2  115.97    1.57
   3   1  -2  994.58   12.04
   3   1  -2  976.51   18.37
   3   1  -2  970.42   12.75
   3   1  -2 1000.00   13.49
   3   1  -2  972.76   12.46
  -3  -1   2  954.56   12.71
  -3  -1   2  969.42   13.47
  -3  -1   2  978.84   12.04
   2   1  -2  383.26    4.99
   2   1  -2  378.16    5.09
   2   1  -2  381.55    7.26
   2   1  -2  376.76    4.82
   2   1  -2  382.97    5.32
  -2  -1   2  384.09    7.33
  -2  -1   2  388.71    5.38
  -2  -1   2  377.39    4.81
  -2  -1   2  370.86    5.04
   1   1  -2  631.17    8.63
   1   1  -2  632.39    7.67
   1   1  -2  624.27    7.92
   1   1  -2  631.96   11.74
   1   1  -2  634.66    8.08
  -1  -1   2  598.11    7.64
  -1  -1   2  629.10    8.59
  -1  -1   2  653.42   11.74
  -1  -1   2  604.81    7.66
   0   1  -2   68.76    0.86
   0   1  -2   69.02    1.34
   0   1  -2   70.77    0.85
   0   1  -2   69.64    0.89
   0   1  -2   71.38    0.99
   0  -1   2   68.81    0.86
   0  -1   2   68.58    0.96
   0  -1   2   69.48    1.34
   0  -1   2   69.16    0.86
  -1   1  -2  416.57    6.58
  -1   1  -2  424.31    5.79
  -1   1  -2  417.08    5.45
  -1   1  -2  414.84    5.10
  -1   1  -2  429.54    5.11
   1  -1   2  411.57    5.15
   1  -1   2  416.90    5.12
   1  -1   2  425.27    5.44
  -2   1  -2  236.70    2.92
  -2   1  -2  235.19    3.36
  -2   1  -2  231.53    3.77
  -2   1  -2  237.46    3.22
   2  -1   2  230.86    3.00
   2  -1   2  241.10    2.97
   2  -1   2  238.68    3.17
  -3   1  -2  941.50   14.31
  -3   1  -2  939.20   11.34
  -3   1  -2  928.90   12.19
   3  -1   2  925.39   11.36
   3  -1   2  932.87   11.42
   3  -1   2  932.76   12.19
   3  -1   2  940.25   11.43
  -4   1  -2   56.93    0.74
  -4   1  -2   55.43    0.95
  -4   1  -2   56.33    0.82
   4  -1   2   54.64    0.82
   4  -1   2   56.11    0.76
   4  -1   2   54.48    0.75
  -5   1  -2   10.43    0.34
  -5   1  -2   10.85    0.30
  -5   1  -2   10.45    0.23
   5  -1   2   10.99    0.30
   5  -1   2   10.56    0.26
   5  -1   2   10.86    0.25
  -6   1  -2   17.36    0.34
  -6   1  -2   17.89    0.42
  -6   1  -2   17.14    0.46
   6  -1   2   17.67    0.36
   6  -1   2   17.49    0.38
   6  -1   2   17.96    0.42
  -7   1  -2    6.05    0.30
   7  -1   2    5.83    0.29
   7  -1   2    5.96    0.26
   7  -1   2    6.10    0.23
  -8   1  -2   35.50    0.73
   8  -1   2   35.21    0.65
   8  -1   2   37.04    0.63
   9  -1   2   23.39    0.49
   9  -1   2   23.48    0.54
  10  -1   2    1.25    0.19
  10   0  -2   17.48    0.52
  10   0  -2   17.62    0.54
   9   0  -2    4.28    0.33
   9   0  -2    4.80    0.31
   8   0  -2   10.21    0.38
   8   0  -2    9.89    0.35
   7   0  -2    0.25    0.12
   7   0  -2    0.29    0.14
  -7   0   2    0.21    0.11
   6   0  -2   35.57    0.61
   6   0  -2   36.26    0.66
   6   0  -2   36.29    0.66
  -6   0   2   36.55    0.68
  -6   0   2   36.26    0.60
  -6   0   2   35.56    0.66
   5   0  -2    7.11    0.24
   5   0  -2    7.00    0.27
  -5   0   2    7.10    0.22
  -5   0   2    7.19    0.25
  -5   0   2    7.04    0.26
   4   0  -2   81.41    1.07
   4   0  -2   80.60    1.14
  -4   0   2   79.61    1.06
  -4   0   2   78.51    1.14
  -4   0   2   80.45    1.20
   3   0  -2    0.12    0.07
   3   0  -2    0.03    0.07
  -3   0   2    0.11    0.06
  -3   0   2    0.03    0.06
  -3   0   2    0.13    0.08
   2   0  -2   54.07    1.07
   2   0  -2   53.50    0.79
   2   0  -2   53.33    0.75
   2   0  -2   53.25    0.70
  -2   0   2   53.04    0.70
  -2   0   2   53.97    0.79
  -2   0   2   52.92    0.75
   1   0  -2  424.35    5.33
   1   0  -2  430.96    5.70
   1   0  -2  432.19    5.28
   1   0  -2  433.43    8.01
  -1   0   2  425.06    5.36
  -1   0   2  423.53    5.33
  -1   0   2  427.64    6.00
  -1   0   2  428.37    8.04
   0   0  -2   86.73    1.11
   0   0  -2   89.03    1.73
   0   0  -2   86.35    1.06
   0   0   2   87.06    1.06
   0   0   2   85.20    1.65
   0   0   2   85.11    1.19
  -1   0  -2    2.92    0.10
  -1   0  -2    2.87    0.11
  -1   0  -2    2.95    0.11
  -1   0  -2    2.88    0.10
  -1   0  -2    2.85    0.07
   1   0   2    3.31    0.10
   1   0   2    2.95    0.10
   1   0   2    3.12    0.06
   1   0   2    3.07    0.11
  -2   0  -2  195.45    2.77
  -2   0  -2  194.84    2.45
  -2   0  -2  198.72    2.48
  -2   0  -2  185.19    2.65
   2   0   2  193.27    2.52
   2   0   2  187.96    2.49
   2   0   2  197.17    2.47
   2   0   2  193.47    2.59
   2   0   2  194.90    2.76
  -3   0  -2   89.58    1.40
  -3   0  -2   89.17    1.12
  -3   0  -2   89.82    1.21
   3   0   2   87.57    1.13
   3   0   2   90.66    1.26
   3   0   2   89.07    1.21
   3   0   2   90.27    1.12
   3   0   2   87.87    1.13
  -4   0  -2  240.49    3.31
  -4   0  -2  239.62    3.02
  -4   0  -2  242.30    3.80
   4   0   2  234.71    3.14
   4   0   2  243.52    3.19
   4   0   2  247.64    2.94
  -5   0  -2   72.32    0.98
  -5   0  -2   73.65    1.07
  -5   0  -2   72.29    1.19
   5   0   2   73.68    0.99
   5   0   2   70.94    1.06
   5   0   2   73.39    0.99
  -6   0  -2   14.96    0.38
  -6   0  -2   14.45    0.31
  -6   0  -2   14.23    0.38
   6   0   2   15.14    0.35
   6   0   2   14.36    0.31
   6   0   2   14.16    0.37
  -7   0  -2    0.79    0.11
  -7   0  -2    0.88    0.15
   7   0   2    0.88    0.15
   7   0   2    0.69    0.12
   7   0   2    0.75    0.12
   8   0   2   52.81    0.83
   8   0   2   52.16    0.85
   9   0   2    9.41    0.35
   9   0   2    9.58    0.32
  10   0   2   18.68    0.46
  10   0   2   18.04    0.51
   9  -1  -2    0.33    0.15
   9  -1  -2    0.30    0.17
   8  -1  -2    0.43    0.17
   8  -1  -2    0.17    0.13
   7  -1  -2    7.95    0.30
  -7   1   2    7.64    0.26
  -7   1   2    7.86    0.31
   6  -1  -2   26.07    0.50
   6  -1  -2   25.12    0.54
  -6   1   2   26.15    0.47
  -6   1   2   26.33    0.56
  -6   1   2   27.09    0.55
   5  -1  -2  228.54    3.01
   5  -1  -2  227.35    2.81
  -5   1   2  228.03    2.79
  -5   1   2  224.72    3.00
  -5   1   2  224.13    3.16
   4  -1  -2  123.43    1.68
   4  -1  -2  125.62    1.57
  -4   1   2  124.58    1.69
  -4   1   2  122.58    1.76
  -4   1   2  118.19    1.55
   3  -1  -2   56.14    0.82
   3  -1  -2   57.17    0.76
  -3   1   2   56.40    0.83
  -3   1   2   56.06    0.76
  -3   1   2   56.13    0.85
   2  -1  -2   96.40    1.22
   2  -1  -2   98.57    1.22
   2  -1  -2   96.57    1.31
  -2   1   2   99.11    1.32
  -2   1   2   96.84    1.38
  -2   1   2   99.05    1.22
   1  -1  -2    8.33    0.17
   1  -1  -2    8.42    0.17
   1  -1  -2    8.38    0.21
  -1   1   2    8.69    0.19
  -1   1   2    8.78    0.17
   0  -1  -2   11.66    0.20
   0  -1  -2   11.36    0.19
   0  -1  -2   11.24    0.19
   0  -1  -2   11.86    0.22
   0   1   2   11.18    0.19
   0   1   2   11.41    0.20
   0   1   2   11.43    0.22
  -1  -1  -2  274.61    3.84
  -1  -1  -2  263.22    3.37
  -1  -1  -2  274.90    3.46
  -1  -1  -2  274.62    3.48
   1   1   2  268.18    3.43
   1   1   2  274.29    3.85
   1   1   2  267.73    3.48
   1   1   2  271.94    3.43
  -3  -1  -2   32.08    0.45
  -3  -1  -2   32.15    0.46
  -3  -1  -2   31.57    0.50
   3   1   2   32.12    0.47
   3   1   2   33.15    0.52
   3   1   2   31.77    0.50
   3   1   2   32.46    0.45
  -4  -1  -2   84.06    1.10
  -4  -1  -2   85.11    1.18
   4   1   2   83.52    1.11
   4   1   2   86.52    1.24
   4   1   2   85.54    1.11
   4   1   2   85.56    1.19
  -5  -1  -2    9.13    0.27
  -5  -1  -2    8.91    0.27
  -5  -1  -2    9.17    0.23
   5   1   2    8.91    0.26
   5   1   2    8.60    0.27
   5   1   2    9.23    0.25
   5   1   2    9.12    0.23
  -6  -1  -2    1.13    0.20
  -6  -1  -2    1.11    0.15
  -6  -1  -2    1.42    0.16
   6   1   2    1.02    0.15
   6   1   2    1.55    0.19
   6   1   2    1.25    0.16
  -7  -1  -2   40.15    0.66
  -7  -1  -2   40.56    0.72
   7   1   2   40.15    0.73
   7   1   2   40.31    0.68
   7   1   2   40.95    0.66
  -8  -1  -2   96.70    1.36
   8   1   2   97.22    1.38
   8   1   2   98.54    1.39
   9   1   2    0.44    0.14
   9   1   2    0.74    0.14
  10   1   2    2.00    0.24
  10   1   2    1.42    0.19
   9  -2  -2   16.50    0.47
   9  -2  -2   16.25    0.50
   8  -2  -2   34.75    0.66
   7  -2  -2   63.67    0.96
  -7   2   2   62.60    1.08
   6  -2  -2    0.23    0.11
   6  -2  -2    0.15    0.13
  -6   2   2    0.20    0.10
  -6   2   2    0.22    0.09
   5  -2  -2   64.73    1.00
   5  -2  -2   64.78    0.92
  -5   2   2   64.78    1.03
  -5   2   2   64.96    0.89
  -5   2   2   65.21    1.01
   4  -2  -2   58.30    0.91
   4  -2  -2   60.55    0.83
  -4   2   2   59.93    0.93
  -4   2   2   60.37    0.82
  -4   2   2   61.21    0.92
   3  -2  -2  129.54    1.76
   3  -2  -2  135.32    1.66
   3  -2  -2  132.32    1.63
  -3   2   2  131.03    1.76
  -3   2   2  125.05    1.83
  -3   2   2  131.69    1.62
   2  -2  -2   18.73    0.35
   2  -2  -2   19.23    0.31
   2  -2  -2   19.00    0.30
  -2   2   2   19.21    0.34
  -2   2   2   19.75    0.30
  -2   2   2   19.33    0.35
   1  -2  -2   48.06    0.62
   1  -2  -2   46.47    0.61
   1  -2  -2   46.79    0.68
  -1   2   2   47.57    0.70
  -1   2   2   47.29    0.61
   0  -2  -2   36.39    0.52
   0  -2  -2   37.21    0.49
   0  -2  -2   36.02    0.49
   0   2   2   36.40    0.55
   0   2   2   36.47    0.48
   0   2   2   36.15    0.52
  -1  -2  -2  428.12    5.39
  -1  -2  -2  447.01    5.56
  -1  -2  -2  435.33    5.46
   1   2   2  438.60    5.60
   1   2   2  441.96    5.41
   1   2   2  426.49    6.09
  -2  -2  -2   50.47    0.67
  -2  -2  -2   50.78    0.68
  -2  -2  -2   50.27    0.71
  -2  -2  -2   49.89    0.67
   2   2   2   51.15    0.75
   2   2   2   49.77    0.66
   2   2   2   50.22    0.68
  -3  -2  -2   65.91    0.92
  -3  -2  -2   66.03    0.86
   3   2   2   64.40    0.92
   3   2   2   64.89    0.87
   3   2   2   64.90    0.86
   3   2   2   67.49    0.97
  -4  -2  -2   11.85    0.25
  -4  -2  -2   11.83    0.28
   4   2   2   12.06    0.25
   4   2   2   11.83    0.28
   4   2   2   11.99    0.26
   4   2   2   11.84    0.28
  -5  -2  -2    0.06    0.08
  -5  -2  -2   -0.03    0.09
   5   2   2   -0.24    0.08
   5   2   2   -0.19    0.10
   5   2   2    0.05    0.09
   5   2   2   -0.10    0.08
  -6  -2  -2    1.25    0.16
  -6  -2  -2    1.29    0.18
  -6  -2  -2    1.08    0.14
   6   2   2    1.09    0.15
   6   2   2    0.92    0.12
   6   2   2    1.54    0.19
   6   2   2    1.62    0.18
  -7  -2  -2    2.32    0.18
  -7  -2  -2    1.79    0.19
   7   2   2    1.83    0.24
   7   2   2    1.80    0.19
   7   2   2    1.61    0.21
  -8  -2  -2   19.10    0.44
   8   2   2   19.09    0.46
   8   2   2   19.42    0.44
  -9  -2  -2   28.65    0.58
   9   2   2   29.95    0.62
   9   2   2   29.32    0.58
  10   2   2    0.94    0.18
  10   2   2    1.03    0.17
   9  -3  -2    0.19    0.15
   9  -3  -2   -0.32    0.19
   8  -3  -2    4.68    0.28
   7  -3  -2   21.54    0.47
  -7   3   2   21.14    0.51
   6  -3  -2   87.72    1.22
   6  -3  -2   88.37    1.34
  -6   3   2   88.73    1.38
   5  -3  -2   56.71    0.83
   5  -3  -2   58.36    0.93
  -5   3   2   58.51    0.93
  -5   3   2   57.56    0.94
  -5   3   2   55.31    0.79
   4  -3  -2   18.97    0.35
   4  -3  -2   18.29    0.41
  -4   3   2   18.78    0.39
  -4   3   2   18.44    0.32
  -4   3   2   19.06    0.42
   3  -3  -2   32.23    0.55
   3  -3  -2   31.05    0.47
   3  -3  -2   32.25    0.48
  -3   3   2   31.71    0.54
  -3   3   2   32.16    0.46
  -3   3   2   31.96    0.55
   2  -3  -2    0.44    0.06
   2  -3  -2    0.50    0.09
   2  -3  -2    0.50    0.06
  -2   3   2    0.45    0.06
  -2   3   2    0.51    0.07
   1  -3  -2   34.90    0.48
   1  -3  -2   34.63    0.54
   1  -3  -2   35.88    0.48
  -1   3   2   35.02    0.54
   0  -3  -2  714.45    8.60
   0  -3  -2  699.96    8.59
   0   3   2  698.60    9.65
   0   3   2  698.13    8.49
   0   3   2  709.62    8.96
  -1  -3  -2   85.06    1.08
  -1  -3  -2   88.87    1.08
   1   3   2   86.86    1.22
   1   3   2   87.13    1.14
   1   3   2   87.08    1.61
   1   3   2   86.60    1.07
  -2  -3  -2    5.24    0.15
  -2  -3  -2    4.76    0.14
   2   3   2    5.10    0.15
   2   3   2    4.98    0.14
   2   3   2    4.85    0.15
   2   3   2    4.97    0.25
  -3  -3  -2   49.75    0.74
  -3  -3  -2   50.75    0.69
   3   3   2   48.90    0.68
   3   3   2   51.01    0.71
  -4  -3  -2    8.76    0.23
  -4  -3  -2    9.12    0.25
   4   3   2    9.29    0.23
   4   3   2    8.77    0.22
   4   3   2    9.52    0.25
  -5  -3  -2   97.15    1.30
  -5  -3  -2   97.02    1.38
   5   3   2   99.75    1.38
   5   3   2   98.63    1.30
   5   3   2   96.90    1.32
  -6  -3  -2  151.42    1.97
  -6  -3  -2  152.80    2.10
   6   3   2  153.32    2.01
   6   3   2  155.07    2.10
   6   3   2  151.39    1.97
  -7  -3  -2   54.17    0.84
   7   3   2   53.40    0.90
   7   3   2   54.73    0.85
   7   3   2   54.55    0.85
  -8  -3  -2    3.75    0.24
   8   3   2    2.90    0.25
   8   3   2    2.76    0.23
  -9  -3  -2    0.93    0.16
   9   3   2    1.01    0.15
   9   3   2    0.84    0.17
  10   3   2   16.98    0.46
  10   3   2   16.03    0.49
   8  -4  -2   -0.05    0.13
   7  -4  -2   17.06    0.42
  -7   4   2   17.86    0.47
   6  -4  -2    1.93    0.20
  -6   4   2    1.86    0.21
   5  -4  -2   39.07    0.71
   5  -4  -2   40.18    0.63
  -5   4   2   39.94    0.70
   4  -4  -2  193.65    2.40
   4  -4  -2  195.45    2.61
   4  -4  -2  197.34    2.40
  -4   4   2  184.47    2.70
  -4   4   2  197.72    2.35
  -4   4   2  195.43    2.61
   3  -4  -2   47.12    0.75
   3  -4  -2   47.33    0.66
   3  -4  -2   46.83    0.66
  -3   4   2   47.28    0.61
  -3   4   2   47.85    0.75
   2  -4  -2    5.81    0.16
   2  -4  -2    5.65    0.15
   2  -4  -2    5.67    0.21
  -2   4   2    5.80    0.17
   1  -4  -2  151.73    2.00
   1  -4  -2  150.68    1.89
   1  -4  -2  150.81    1.83
  -1   4   2  149.76    2.16
   0  -4  -2   51.71    1.00
   0  -4  -2   50.51    0.67
   0  -4  -2   51.51    0.67
   0   4   2   50.86    0.75
   0   4   2   51.39    0.63
   0   4   2   52.41    0.74
  -1  -4  -2  655.93    7.94
  -1  -4  -2  649.76   11.94
  -1  -4  -2  641.67    7.88
   1   4   2  627.67    8.89
   1   4   2  646.53   11.90
   1   4   2  642.66    8.42
   1   4   2  647.15    7.81
  -2  -4  -2  367.71    4.56
  -2  -4  -2  345.90    4.52
   2   4   2  367.04    4.50
   2   4   2  361.67    6.85
   2   4   2  364.26    5.20
   2   4   2  373.62    4.89
  -3  -4  -2  209.39    2.77
  -3  -4  -2  205.79    2.54
   3   4   2  207.79    2.70
   3   4   2  208.78    3.84
   3   4   2  205.21    2.57
  -4  -4  -2   38.08    0.58
  -4  -4  -2   37.33    0.61
   4   4   2   37.99    0.91
   4   4   2   38.18    0.57
   4   4   2   37.47    0.60
  -5  -4  -2  102.28    1.35
  -5  -4  -2  103.01    1.44
   5   4   2  100.75    1.39
   5   4   2  102.42    2.09
   5   4   2  100.59    1.34
   5   4   2  101.34    1.43
  -6  -4  -2    8.64    0.28
  -6  -4  -2    8.62    0.31
   6   4   2    8.00    0.27
   6   4   2    9.16    0.31
   6   4   2    8.43    0.28
  -7  -4  -2   43.67    0.72
   7   4   2   43.17    0.72
   7   4   2   42.89    0.76
   7   4   2   43.44    0.73
  -8  -4  -2   46.73    0.80
   8   4   2   47.13    0.80
   8   4   2   48.26    0.80
  -9  -4  -2    9.73    0.36
   9   4   2    9.79    0.35
   9   4   2    9.55    0.37
 -10  -4  -2    5.31    0.32
  10   4   2    5.15    0.34
  10   4   2    5.61    0.30
   8  -5  -2   30.71    0.62
   7  -5  -2   42.58    0.72
  -7   5   2   41.07    0.80
   6  -5  -2    2.14    0.20
  -6   5   2    1.90    0.21
   5  -5  -2    4.64    0.21
   5  -5  -2    4.85    0.26
  -5   5   2    4.55    0.22
   4  -5  -2    6.79    0.29
   4  -5  -2    7.02    0.22
  -4   5   2    7.10    0.24
   3  -5  -2   27.74    0.43
   3  -5  -2   27.34    0.43
   3  -5  -2   27.33    0.52
  -3   5   2   27.29    0.49
   2  -5  -2  213.71    2.82
   2  -5  -2  211.37    2.66
   2  -5  -2  217.17    2.59
  -2   5   2  213.34    3.00
   1  -5  -2  139.46    2.64
   1  -5  -2  142.53    1.73
   1  -5  -2  142.47    1.90
   1  -5  -2  142.25    1.73
  -1   5   2  140.26    1.95
   0  -5  -2    4.80    0.25
   0  -5  -2    4.63    0.14
   0  -5  -2    4.62    0.13
   0   5   2    5.36    0.20
   0   5   2    4.86    0.15
  -1  -5  -2   22.62    0.35
  -1  -5  -2   23.15    0.36
  -1  -5  -2   23.04    0.56
   1   5   2   22.74    0.31
   1   5   2   22.74    0.42
   1   5   2   23.37    0.55
   1   5   2   23.22    0.40
  -2  -5  -2    6.95    0.18
  -2  -5  -2    6.84    0.17
  -2  -5  -2    6.75    0.35
   2   5   2    6.61    0.15
   2   5   2    6.92    0.22
   2   5   2    6.51    0.20
   2   5   2    6.89    0.30
  -3  -5  -2   40.83    0.60
  -3  -5  -2   40.58    0.64
   3   5   2   41.04    0.91
   3   5   2   39.63    0.57
   3   5   2   40.85    0.64
  -4  -5  -2  116.16    1.60
  -4  -5  -2  115.78    1.51
   4   5   2  114.18    1.49
   4   5   2  117.36    1.58
   4   5   2  119.37    2.30
  -5  -5  -2   32.89    0.59
  -5  -5  -2   33.72    0.56
   5   5   2   33.76    0.59
   5   5   2   33.66    0.55
  -6  -5  -2   19.18    0.42
  -6  -5  -2   19.55    0.45
   6   5   2   19.44    0.41
   6   5   2   18.89    0.43
  -7  -5  -2   28.82    0.56
   7   5   2   29.10    0.57
   7   5   2   29.06    0.55
   7   5   2   29.18    0.59
  -8  -5  -2    4.59    0.27
   8   5   2    4.63    0.26
   8   5   2    4.26    0.27
  -9  -5  -2   32.44    0.66
   9   5   2   32.74    0.66
   9   5   2   32.37    0.66
 -10  -5  -2   23.77    0.58
  10   5   2   24.81    0.59
  10   5   2   23.82    0.57
   7  -6  -2    4.51    0.26
  -7   6   2    4.13    0.27
   6  -6  -2   41.43    0.68
  -6   6   2   41.26    0.77
   5  -6  -2   43.50    0.67
  -5   6   2   43.45    0.76
   4  -6  -2   33.56    0.63
   4  -6  -2   33.52    0.53
  -4   6   2   33.68    0.60
   3  -6  -2    4.47    0.17
   3  -6  -2    4.31    0.25
  -3   6   2    4.56    0.19
   2  -6  -2    0.31    0.12
   2  -6  -2    0.27    0.07
   2  -6  -2    0.38    0.07
   2  -6  -2    0.18    0.12
  -2   6   2    0.30    0.08
   1  -6  -2   22.07    0.59
   1  -6  -2   21.87    0.34
   1  -6  -2   22.12    0.35
   1  -6  -2   21.70    0.43
  -1   6   2   21.81    0.39
   0  -6  -2   35.08    0.80
   0  -6  -2   35.41    0.50
   0  -6  -2   35.13    0.50
   0   6   2   34.96    0.60
   0   6   2   35.17    0.56
  -1  -6  -2   80.26    1.04
  -1  -6  -2   81.34    1.04
  -1  -6  -2   80.92    1.61
   1   6   2   81.01    1.17
   1   6   2   81.57    1.15
  -2  -6  -2   37.28    0.55
  -2  -6  -2   37.16    0.89
  -2  -6  -2   37.50    0.54
   2   6   2   37.32    0.63
   2   6   2   37.41    0.85
   2   6   2   37.74    0.50
   2   6   2   36.96    0.61
  -3  -6  -2    1.29    0.15
  -3  -6  -2    1.22    0.17
   3   6   2    1.18    0.12
   3   6   2    0.79    0.14
   3   6   2    1.47    0.18
  -4  -6  -2   -0.16    0.10
  -4  -6  -2    0.01    0.09
   4   6   2   -0.17    0.13
   4   6   2    0.04    0.08
   4   6   2   -0.04    0.10
  -5  -6  -2    0.67    0.12
  -5  -6  -2    0.76    0.13
   5   6   2    0.65    0.11
   5   6   2    0.57    0.13
  -6  -6  -2   56.21    0.87
  -6  -6  -2   56.07    0.91
   6   6   2   56.65    0.84
   6   6   2   55.96    0.90
  -7  -6  -2   27.87    0.55
   7   6   2   26.20    0.56
   7   6   2   27.79    0.53
  -8  -6  -2    7.96    0.32
   8   6   2    7.91    0.33
   8   6   2    7.71    0.32
  -9  -6  -2    0.00    0.13
   9   6   2    0.03    0.14
   9   6   2   -0.15    0.13
 -10  -6  -2    0.04    0.14
  10   6   2    0.10    0.15
   7  -7  -2    1.59    0.23
  -7   7   2    1.27    0.16
   6  -7  -2    1.22    0.14
  -6   7   2    1.07    0.14
   5  -7  -2    1.76    0.18
  -5   7   2    1.91    0.19
   4  -7  -2    5.06    0.27
   4  -7  -2    5.01    0.20
  -4   7   2    5.40    0.22
   3  -7  -2   70.51    0.94
   3  -7  -2   71.93    1.09
   3  -7  -2   69.44    1.51
  -3   7   2   71.07    1.07
   2  -7  -2    3.11    0.21
   2  -7  -2    3.24    0.33
   2  -7  -2    3.01    0.15
  -2   7   2    3.19    0.16
   1  -7  -2   16.12    0.29
   1  -7  -2   16.35    0.38
   1  -7  -2   16.54    0.54
  -1   7   2   16.39    0.32
   0  -7  -2   29.28    0.44
   0  -7  -2   29.45    0.45
   0  -7  -2   30.92    0.76
   0   7   2   29.93    0.50
   0   7   2   29.64    0.57
  -1  -7  -2    6.55    0.19
  -1  -7  -2    6.71    0.42
  -1  -7  -2    6.45    0.18
   1   7   2    6.63    0.21
   1   7   2    6.40    0.27
  -2  -7  -2  110.74    1.42
  -2  -7  -2  111.80    1.43
  -2  -7  -2  110.71    2.21
   2   7   2  112.91    2.19
   2   7   2  110.73    1.55
   2   7   2  112.59    1.60
  -3  -7  -2   31.60    0.55
  -3  -7  -2   30.65    0.51
   3   7   2   31.70    0.59
   3   7   2   31.28    0.81
  -4  -7  -2    5.42    0.24
  -4  -7  -2    5.12    0.22
   4   7   2    5.11    0.25
  -5  -7  -2   14.94    0.38
  -5  -7  -2   14.74    0.35
   5   7   2   15.24    0.40
  -6  -7  -2    3.37    0.23
   6   7   2    3.45    0.25
  -7  -7  -2   -0.03    0.12
   7   7   2    0.22    0.14
  -8  -7  -2   20.43    0.50
   8   7   2   21.04    0.52
  -9  -7  -2   19.76    0.52
   9   7   2   20.04    0.53
   6  -8  -2   33.34    0.59
  -6   8   2   33.72    0.67
   5  -8  -2    2.27    0.19
  -5   8   2    1.73    0.19
   4  -8  -2   16.53    0.34
  -4   8   2   16.57    0.38
   3  -8  -2   14.35    0.39
   3  -8  -2   14.18    0.29
   3  -8  -2   13.76    0.55
  -3   8   2   14.23    0.33
   2  -8  -2   39.54    0.57
   2  -8  -2   40.21    0.69
   2  -8  -2   39.74    0.98
  -2   8   2   39.27    0.65
   1  -8  -2  225.73    2.97
   1  -8  -2  223.07    4.20
   1  -8  -2  224.05    2.72
  -1   8   2  222.18    3.06
   0  -8  -2   96.45    1.93
   0  -8  -2   95.70    1.36
   0  -8  -2   95.19    1.22
   0   8   2   95.94    1.37
   0   8   2   93.66    1.39
  -1  -8  -2    4.13    0.42
  -1  -8  -2    4.50    0.17
   1   8   2    4.58    0.19
   1   8   2    4.50    0.25
  -2  -8  -2    7.50    0.22
  -2  -8  -2    7.02    0.49
   2   8   2    7.48    0.24
   2   8   2    8.00    0.41
   2   8   2    7.78    0.30
  -3  -8  -2   29.10    0.53
  -3  -8  -2   28.06    0.82
  -3  -8  -2   28.27    0.48
   3   8   2   28.17    0.57
   3   8   2   29.24    0.55
  -4  -8  -2   85.67    1.19
  -4  -8  -2   88.68    1.26
   4   8   2   85.45    1.29
  -5  -8  -2   72.46    1.06
  -5  -8  -2   74.24    1.11
   5   8   2   72.16    1.14
  -6  -8  -2   11.97    0.35
   6   8   2   12.57    0.40
  -7  -8  -2    2.09    0.23
   7   8   2    2.85    0.27
  -8  -8  -2    0.20    0.14
   8   8   2    0.37    0.16
  -9  -8  -2    9.83    0.39
   9   8   2    9.94    0.41
   5  -9  -2   23.97    0.46
  -5   9   2   26.03    0.53
   4  -9  -2   14.86    0.32
  -4   9   2   13.92    0.35
   3  -9  -2    0.68    0.10
  -3   9   2    0.60    0.10
   2  -9  -2    6.06    0.19
  -2   9   2    5.75    0.21
   1  -9  -2    1.20    0.14
   1  -9  -2    1.09    0.14
  -1   9   2    1.20    0.14
   0  -9  -2   40.34    0.69
   0  -9  -2   39.80    0.59
   0  -9  -2   39.78    1.00
   0   9   2   41.42    0.76
   0   9   2   40.64    0.66
  -1  -9  -2   71.38    0.96
  -1  -9  -2   71.10    1.56
   1   9   2   71.60    1.09
   1   9   2   72.72    1.14
  -2  -9  -2   33.96    0.94
  -2  -9  -2   33.83    0.54
   2   9   2   35.59    0.62
   2   9   2   34.60    0.67
  -3  -9  -2    0.45    0.10
  -3  -9  -2    0.50    0.12
  -3  -9  -2    0.30    0.16
   3   9   2    0.39    0.14
   3   9   2    0.46    0.11
  -4  -9  -2   14.17    0.34
  -4  -9  -2   14.26    0.36
   4   9   2   13.95    0.39
   4   9   2   13.59    0.41
  -5  -9  -2    5.70    0.29
  -5  -9  -2    5.82    0.26
   5   9   2    5.86    0.31
  -6  -9  -2   20.28    0.47
   6   9   2   20.52    0.53
  -7  -9  -2   54.92    0.92
   7   9   2   55.77    0.99
  -8  -9  -2    0.13    0.14
   8   9   2    0.27    0.17
   3 -10  -2   10.85    0.26
  -3  10   2   10.87    0.29
   2 -10  -2   53.80    0.75
  -2  10   2   54.53    0.86
   1 -10  -2    2.95    0.15
  -1  10   2    2.71    0.17
   0 -10  -2    2.01    0.14
   0  10   2    1.89    0.26
   0  10   2    1.69    0.16
  -1 -10  -2    4.54    0.18
   1  10   2    4.60    0.31
   1  10   2    4.11    0.20
  -2 -10  -2    0.17    0.09
   2  10   2    0.10    0.14
   2  10   2    0.12    0.09
  -3 -10  -2   27.46    0.86
  -3 -10  -2   26.46    0.48
   3  10   2   27.39    0.56
   3  10   2   26.22    0.60
  -4 -10  -2   43.70    0.71
   4  10   2   44.30    0.81
   4  10   2   43.90    0.83
  -5 -10  -2    0.15    0.11
   5  10   2    0.10    0.15
   5  10   2    0.14    0.12
  -6 -10  -2    7.17    0.30
   6  10   2    7.07    0.36
   6  10   2    7.05    0.35
  -7 -10  -2    0.00    0.13
   7  10   2    0.04    0.16
  -2  11   2    2.63    0.18
   1 -11  -2   27.25    0.46
  -1  11   2   27.66    0.51
   0 -11  -2   31.90    0.50
   0  11   2   32.08    0.71
   0  11   2   32.39    0.58
  -1 -11  -2   11.11    0.27
   1  11   2   11.08    0.31
   1  11   2   10.66    0.42
  -2 -11  -2    0.04    0.09
   2  11   2    0.16    0.10
   2  11   2    0.02    0.15
  -3 -11  -2    7.31    0.25
   3  11   2    7.11    0.29
   3  11   2    7.57    0.36
  -4 -11  -2    2.54    0.21
   4  11   2    2.18    0.25
   4  11   2    2.37    0.30
  -5 -11  -2   26.02    0.54
   5  11   2   26.26    0.62
   5  11   2   26.80    0.65
  -6 -11  -2   11.79    0.38
   6  11   2   11.79    0.43
   6  11   2   11.51    0.45
  -2 -12  -2   20.33    0.41
   2  12   2   20.88    0.48
   2  12   2   20.21    0.59
  -3 -12  -2   13.30    0.34
   3  12   2   13.47    0.40
   3  12   2   13.52    0.48
   4  11  -3    2.11    0.29
  -4 -11   3    2.15    0.21
   3  11  -3    0.31    0.16
  -3 -11   3    0.21    0.10
   2  11  -3   13.11    0.43
   2  11  -3   10.88    0.64
   2  11  -3   12.12    0.32
  -2 -11   3   12.97    0.30
   1  11  -3   36.03    1.00
   1  11  -3   37.58    0.62
   1  11  -3   37.31    0.73
   0  11  -3    7.10    0.60
   6  10  -3   38.77    0.81
  -6 -10   3   39.80    0.73
   5  10  -3   49.16    0.91
  -5 -10   3   48.29    0.81
   4  10  -3    5.37    0.31
  -4 -10   3    4.74    0.24
   3  10  -3   18.12    0.66
   3  10  -3   18.03    0.42
   3  10  -3   18.85    0.49
  -3 -10   3   18.98    0.39
   2  10  -3   25.99    0.50
   2  10  -3   27.28    0.78
   2  10  -3   27.33    0.59
  -2 -10   3   27.12    0.46
   1  10  -3    5.25    0.50
   1  10  -3    4.70    0.28
   1  10  -3    5.02    0.19
  -1 -10   3    5.24    0.17
   0  10  -3   71.33    1.05
   0  10  -3   74.64    1.48
   0  10  -3   72.74    1.14
  -1  10  -3   49.50    1.18
  -2  10  -3    8.39    0.60
  -3  10  -3    1.87    0.38
   7   9  -3   -0.05    0.16
  -7  -9   3   -0.09    0.13
   6   9  -3   12.69    0.43
  -6  -9   3   12.03    0.38
   5   9  -3    0.57    0.16
  -5  -9   3    0.64    0.13
   4   9  -3   48.62    0.86
   4   9  -3   46.59    0.99
  -4  -9   3   48.45    0.76
   3   9  -3   40.39    0.89
   3   9  -3   40.40    0.73
   3   9  -3   39.70    0.71
  -3  -9   3   40.36    0.63
  -3  -9   3   38.88    1.23
   2   9  -3   27.37    0.74
   2   9  -3   28.11    0.57
   2   9  -3   27.94    0.51
  -2  -9   3   26.11    0.97
  -2  -9   3   28.51    0.46
   1   9  -3    1.11    0.27
   1   9  -3    0.97    0.15
   1   9  -3    1.04    0.12
  -1  -9   3    0.84    0.12
  -1  -9   3    0.38    0.19
   0   9  -3    4.09    0.14
   0   9  -3    4.30    0.44
   0   9  -3    4.39    0.24
   0  -9   3    3.53    0.52
  -1   9  -3    9.74    0.50
  -1   9  -3    8.58    0.31
   1  -9   3    7.50    0.60
  -2   9  -3   21.01    0.71
   2  -9   3   19.63    0.83
  -3   9  -3   46.18    1.12
  -4   9  -3   10.18    0.62
   8   8  -3    5.18    0.35
  -8  -8   3    5.01    0.32
   7   8  -3   24.25    0.59
  -7  -8   3   23.49    0.54
   6   8  -3   23.88    0.57
  -6  -8   3   23.69    0.51
   5   8  -3    1.22    0.18
  -5  -8   3    0.64    0.24
  -5  -8   3    1.04    0.14
   4   8  -3    0.93    0.21
   4   8  -3    1.03    0.16
  -4  -8   3    0.32    0.23
  -4  -8   3    0.91    0.12
   3   8  -3    9.09    0.27
   3   8  -3    8.35    0.31
   3   8  -3    9.60    0.42
  -3  -8   3    8.58    0.25
  -3  -8   3    8.57    0.67
   2   8  -3    2.86    0.22
   2   8  -3    3.15    0.17
   2   8  -3    3.59    0.35
  -2  -8   3    3.17    0.53
  -2  -8   3    3.08    0.16
   1   8  -3   32.94    0.59
   1   8  -3   31.81    0.53
   1   8  -3   31.96    0.78
  -1  -8   3   32.88    1.01
  -1  -8   3   32.40    0.48
   0   8  -3   39.80    0.67
   0   8  -3   38.69    0.90
   0   8  -3   38.44    0.60
   0  -8   3   40.17    1.12
  -1   8  -3   15.39    0.37
  -1   8  -3   15.50    0.59
   1  -8   3   14.97    0.68
  -2   8  -3    1.64    0.29
   2  -8   3    0.89    0.19
  -3   8  -3    1.21    0.28
   3  -8   3    0.79    0.18
  -4   8  -3   21.35    0.72
  -5   8  -3    9.52    0.59
   5  -8   3    8.72    0.23
   8   7  -3    0.57    0.17
  -8  -7   3    0.49    0.16
   7   7  -3    3.17    0.28
  -7  -7   3    3.23    0.27
   6   7  -3   20.71    0.51
  -6  -7   3   20.39    0.47
   5   7  -3  155.33    2.13
  -5  -7   3  155.75    2.02
  -5  -7   3  153.44    3.22
   4   7  -3   40.67    0.73
   4   7  -3   41.05    0.73
   4   7  -3   42.53    0.81
  -4  -7   3   41.10    1.19
  -4  -7   3   40.20    0.65
   3   7  -3    0.02    0.07
   3   7  -3    0.01    0.17
   3   7  -3    0.03    0.10
  -3  -7   3    0.06    0.08
  -3  -7   3   -0.15    0.18
   2   7  -3    6.37    0.38
   2   7  -3    6.41    0.26
   2   7  -3    6.51    0.21
  -2  -7   3    6.55    0.20
  -2  -7   3    6.06    0.58
   1   7  -3   12.00    0.47
   1   7  -3   11.88    0.26
   1   7  -3   12.44    0.32
  -1  -7   3   11.96    0.24
  -1  -7   3   12.46    0.65
   0   7  -3   25.96    0.48
   0   7  -3   25.86    0.67
   0   7  -3   24.42    0.41
   0  -7   3   25.41    0.82
   0  -7   3   25.03    0.37
  -1   7  -3  112.89    1.53
  -1   7  -3  114.34    1.95
   1  -7   3  113.12    2.39
  -2   7  -3   13.41    0.53
   2  -7   3   14.10    0.63
  -3   7  -3    0.65    0.23
  -3   7  -3    0.68    0.10
   3  -7   3    0.38    0.16
  -4   7  -3    2.23    0.40
   4  -7   3    0.76    0.17
   4  -7   3    1.29    0.12
  -5   7  -3    0.07    0.24
   5  -7   3    0.02    0.08
  -6   7  -3   21.08    0.73
   6  -7   3   21.81    0.41
   9   6  -3   16.90    0.51
  -9  -6   3   16.57    0.50
   8   6  -3   62.19    1.08
  -8  -6   3   65.52    1.05
   7   6  -3   15.78    0.45
  -7  -6   3   15.17    0.42
   6   6  -3    8.46    0.28
   6   6  -3    8.61    0.32
  -6  -6   3    8.91    0.31
  -6  -6   3    8.59    0.28
   5   6  -3   40.00    0.64
   5   6  -3   39.30    0.71
  -5  -6   3   40.83    0.64
  -5  -6   3   41.42    1.17
  -5  -6   3   39.88    0.67
   4   6  -3   12.23    0.26
   4   6  -3   12.15    0.35
   4   6  -3   12.14    0.33
   4   6  -3   12.27    0.37
  -4  -6   3   11.99    0.30
  -4  -6   3   12.42    0.74
  -4  -6   3   12.52    0.27
   3   6  -3   89.65    1.29
   3   6  -3   91.28    1.36
   3   6  -3   92.14    1.52
  -3  -6   3   92.85    2.01
  -3  -6   3   92.15    1.20
  -3  -6   3   89.89    1.21
   2   6  -3  137.08    2.20
   2   6  -3  135.26    1.82
   2   6  -3  139.83    1.94
  -2  -6   3  138.65    1.72
  -2  -6   3  134.29    1.72
  -2  -6   3  138.82    2.79
   1   6  -3   18.45    0.34
   1   6  -3   18.77    0.38
   1   6  -3   17.80    0.52
  -1  -6   3   18.13    0.31
  -1  -6   3   18.65    0.71
  -1  -6   3   18.81    0.31
   0   6  -3   46.23    0.93
   0   6  -3   45.57    0.68
   0   6  -3   46.95    0.70
   0  -6   3   46.01    1.16
   0  -6   3   45.36    0.60
   0  -6   3   46.33    0.61
  -1   6  -3   26.38    0.40
  -1   6  -3   26.31    0.45
  -1   6  -3   26.18    0.66
   1  -6   3   26.19    0.82
  -2   6  -3   60.44    1.18
   2  -6   3   61.61    0.83
   2  -6   3   61.81    1.45
  -3   6  -3   31.04    0.75
  -3   6  -3   31.56    0.49
   3  -6   3   32.16    0.50
   3  -6   3   30.80    0.93
   3  -6   3   32.45    0.44
  -4   6  -3   33.35    0.83
   4  -6   3   35.50    0.58
   4  -6   3   34.64    0.50
  -5   6  -3   22.82    0.69
   5  -6   3   24.18    0.41
  -6   6  -3    7.48    0.48
   6  -6   3    7.48    0.25
  -7   6  -3    1.15    0.29
   7  -6   3    1.09    0.14
   9   5  -3    3.53    0.31
  -9  -5   3    3.30    0.30
   8   5  -3    0.03    0.14
  -8  -5   3   -0.06    0.12
   7   5  -3   31.21    0.61
   7   5  -3   31.88    0.59
   7   5  -3   31.91    0.65
  -7  -5   3   31.72    0.62
   6   5  -3   40.86    0.74
   6   5  -3   42.21    0.70
   6   5  -3   41.97    0.68
  -6  -5   3   41.01    0.70
  -6  -5   3   41.23    0.70
   5   5  -3   38.26    0.69
   5   5  -3   40.41    0.65
   5   5  -3   40.17    0.63
  -5  -5   3   40.38    0.65
  -5  -5   3   39.49    0.66
   4   5  -3    2.79    0.23
   4   5  -3    2.60    0.21
   4   5  -3    2.74    0.17
   4   5  -3    2.83    0.19
   4   5  -3    2.82    0.17
  -4  -5   3    2.67    0.19
  -4  -5   3    2.99    0.17
  -4  -5   3    2.84    0.58
   3   5  -3   32.40    0.56
   3   5  -3   31.21    0.56
   3   5  -3   32.17    0.48
   3   5  -3   31.73    0.47
   3   5  -3   32.17    0.63
  -3  -5   3   31.86    0.48
  -3  -5   3   32.09    0.51
  -3  -5   3   32.39    0.94
   2   5  -3    3.28    0.19
   2   5  -3    3.29    0.16
   2   5  -3    2.98    0.27
   2   5  -3    3.32    0.11
  -2  -5   3    3.28    0.15
  -2  -5   3    3.29    0.14
  -2  -5   3    3.44    0.46
   1   5  -3  124.04    2.48
   1   5  -3  122.21    2.00
   1   5  -3  125.03    1.64
   1   5  -3  125.44    1.74
  -1  -5   3  125.24    1.55
  -1  -5   3  128.24    1.55
  -1  -5   3  126.23    2.51
   0   5  -3  503.01    7.64
   0   5  -3  492.42    6.34
   0   5  -3  470.71    6.78
   0  -5   3  504.71    6.03
   0  -5   3  501.36    6.00
   0  -5   3  480.07    9.68
  -1   5  -3   26.21    0.43
  -1   5  -3   25.78    0.62
  -1   5  -3   26.41    0.40
   1  -5   3   25.89    0.36
   1  -5   3   26.15    0.36
   1  -5   3   25.96    0.77
  -2   5  -3   -0.07    0.19
  -2   5  -3    0.17    0.07
  -2   5  -3    0.11    0.05
   2  -5   3    0.06    0.05
   2  -5   3    0.00    0.14
   2  -5   3    0.06    0.06
  -3   5  -3   12.81    0.26
  -3   5  -3   12.82    0.50
  -3   5  -3   13.15    0.28
   3  -5   3   12.85    0.28
   3  -5   3   12.80    0.23
   3  -5   3   12.81    0.22
  -4   5  -3    0.29    0.11
  -4   5  -3    0.23    0.21
   4  -5   3    0.26    0.10
   4  -5   3    0.26    0.08
  -5   5  -3   95.83    1.35
  -5   5  -3   90.41    1.67
   5  -5   3   96.29    1.35
   5  -5   3   93.36    1.23
  -6   5  -3   78.37    1.51
   6  -5   3   83.25    1.12
   6  -5   3   82.36    1.23
  -7   5  -3    0.43    0.23
   7  -5   3    0.25    0.11
  -8   5  -3    3.06    0.45
   8  -5   3    2.92    0.25
   9   4  -3   17.40    0.51
   9   4  -3   18.65    0.49
  -9  -4   3   18.35    0.51
   8   4  -3    6.76    0.31
   8   4  -3    6.40    0.33
  -8  -4   3    6.63    0.32
   7   4  -3   15.19    0.39
   7   4  -3   14.64    0.39
   7   4  -3   14.73    0.43
  -7  -4   3   14.68    0.40
   6   4  -3   11.21    0.32
   6   4  -3   11.10    0.32
   6   4  -3   10.80    0.35
  -6  -4   3   11.22    0.33
  -6  -4   3   11.42    0.33
   5   4  -3   32.49    0.55
   5   4  -3   32.50    0.56
   5   4  -3   32.19    0.60
  -5  -4   3   33.40    0.57
  -5  -4   3   33.05    0.57
   4   4  -3  120.43    1.54
   4   4  -3  121.34    1.75
   4   4  -3  117.94    1.83
   4   4  -3  118.47    1.60
   4   4  -3  118.49    1.62
  -4  -4   3  121.49    1.61
  -4  -4   3  119.20    2.46
  -4  -4   3  119.75    1.56
   3   4  -3   60.53    0.81
   3   4  -3   59.11    1.33
   3   4  -3   60.29    0.88
   3   4  -3   60.47    0.93
   3   4  -3   59.38    0.99
   3   4  -3   59.52    0.83
  -3  -4   3   62.88    0.84
  -3  -4   3   61.28    0.84
  -3  -4   3   59.78    1.37
   2   4  -3    0.52    0.09
   2   4  -3    0.36    0.11
   2   4  -3    0.71    0.11
   2   4  -3    0.50    0.12
   2   4  -3    0.72    0.09
   2   4  -3    0.80    0.08
  -2  -4   3    0.57    0.07
  -2  -4   3    0.76    0.08
  -2  -4   3    0.47    0.14
  -2  -4   3    0.71    0.11
   1   4  -3    7.44    0.18
   1   4  -3    7.41    0.13
   1   4  -3    7.17    0.19
   1   4  -3    7.14    0.28
   1   4  -3    7.58    0.37
  -1  -4   3    7.26    0.17
  -1  -4   3    7.15    0.40
  -1  -4   3    7.40    0.17
   0   4  -3   10.82    0.35
   0   4  -3   10.75    0.22
   0   4  -3   10.97    0.21
   0  -4   3   11.17    0.19
   0  -4   3   11.21    0.19
   0  -4   3   10.91    0.44
  -1   4  -3  184.27    2.58
  -1   4  -3  189.60    2.92
  -1   4  -3  185.80    2.37
   1  -4   3  189.83    2.31
   1  -4   3  188.90    2.25
   1  -4   3  185.67    3.57
  -2   4  -3   97.66    1.36
  -2   4  -3   97.64    1.29
  -2   4  -3   96.68    1.64
   2  -4   3  100.56    1.25
   2  -4   3   96.45    1.21
   2  -4   3   99.62    1.20
   2  -4   3   97.68    1.29
  -3   4  -3    4.74    0.18
  -3   4  -3    4.77    0.16
  -3   4  -3    4.86    0.36
   3  -4   3    4.68    0.15
   3  -4   3    4.83    0.13
   3  -4   3    4.86    0.18
  -4   4  -3   19.10    0.39
  -4   4  -3   18.99    0.56
   4  -4   3   18.80    0.34
   4  -4   3   19.18    0.38
   4  -4   3   19.35    0.32
  -5   4  -3   52.11    0.82
  -5   4  -3   50.81    1.02
   5  -4   3   52.14    0.81
   5  -4   3   50.66    0.74
  -6   4  -3    6.16    0.28
  -6   4  -3    6.36    0.39
   6  -4   3    6.12    0.27
   6  -4   3    6.29    0.24
  -7   4  -3   58.73    1.17
   7  -4   3   57.31    0.88
  -8   4  -3    5.83    0.44
   8  -4   3    5.03    0.28
   9  -4   3    1.09    0.17
  10   3  -3    0.08    0.17
  10   3  -3    0.10    0.17
 -10  -3   3   -0.02    0.16
   9   3  -3    7.76    0.35
   9   3  -3    8.36    0.39
  -9  -3   3    8.45    0.36
   8   3  -3   58.54    0.95
   8   3  -3   57.52    0.99
  -8  -3   3   58.33    0.95
   7   3  -3   62.30    1.00
   7   3  -3   62.88    0.96
   7   3  -3   62.37    1.01
  -7  -3   3   62.07    0.97
   6   3  -3    4.72    0.24
   6   3  -3    4.57    0.26
   6   3  -3    5.05    0.25
  -6  -3   3    5.09    0.25
  -6  -3   3    4.82    0.25
   5   3  -3    3.42    0.21
   5   3  -3    3.52    0.20
   5   3  -3    3.36    0.23
  -5  -3   3    3.32    0.21
  -5  -3   3    3.51    0.22
   4   3  -3    2.72    0.20
   4   3  -3    2.57    0.16
   4   3  -3    2.67    0.17
   4   3  -3    2.73    0.15
   4   3  -3    2.51    0.17
  -4  -3   3    2.74    0.17
  -4  -3   3    2.77    0.17
   3   3  -3    3.00    0.14
   3   3  -3    3.00    0.17
   3   3  -3    3.10    0.17
   3   3  -3    2.89    0.14
   3   3  -3    3.17    0.16
   3   3  -3    2.81    0.32
  -3  -3   3    3.00    0.40
  -3  -3   3    3.05    0.14
  -3  -3   3    3.12    0.16
   2   3  -3  178.20    3.36
   2   3  -3  179.02    2.17
   2   3  -3  175.34    2.35
   2   3  -3  176.33    2.78
   2   3  -3  176.86    2.45
   2   3  -3  180.91    2.33
  -2  -3   3  177.83    2.36
  -2  -3   3  176.17    3.38
  -2  -3   3  182.72    2.24
   1   3  -3   97.05    1.36
   1   3  -3   97.95    1.26
   1   3  -3   94.08    1.53
   1   3  -3   95.13    1.90
   1   3  -3   97.26    1.19
  -1  -3   3   96.64    1.92
  -1  -3   3   99.20    1.21
  -1  -3   3   97.38    1.21
   0   3  -3   25.87    0.38
   0   3  -3   26.19    0.41
   0   3  -3   26.54    0.53
   0  -3   3   25.73    0.37
   0  -3   3   25.76    0.68
   0  -3   3   26.93    0.37
   0  -3   3   26.39    0.38
  -1   3  -3   51.16    0.68
  -1   3  -3   51.55    0.91
  -1   3  -3   50.44    0.74
  -1   3  -3   51.32    0.68
   1  -3   3   52.03    0.66
   1  -3   3   52.20    0.66
   1  -3   3   53.41    0.68
   1  -3   3   50.94    1.13
  -2   3  -3    9.21    0.20
  -2   3  -3    9.54    0.33
  -2   3  -3    9.79    0.20
   2  -3   3    9.63    0.16
   2  -3   3    9.70    0.20
   2  -3   3    9.79    0.18
   2  -3   3    9.90    0.17
  -3   3  -3    1.22    0.19
  -3   3  -3    1.46    0.14
  -3   3  -3    1.27    0.11
   3  -3   3    1.25    0.13
   3  -3   3    1.21    0.08
   3  -3   3    1.39    0.09
   3  -3   3    1.49    0.11
  -4   3  -3   85.61    1.48
  -4   3  -3   87.17    1.21
  -4   3  -3   86.37    1.26
   4  -3   3   85.87    1.12
   4  -3   3   86.75    1.12
   4  -3   3   87.49    1.11
   4  -3   3   85.44    1.12
   4  -3   3   86.52    1.21
  -5   3  -3   26.51    0.66
  -5   3  -3   27.10    0.51
   5  -3   3   27.48    0.51
   5  -3   3   27.14    0.46
  -6   3  -3    1.71    0.20
  -6   3  -3    1.67    0.31
   6  -3   3    1.74    0.20
   6  -3   3    1.37    0.16
   6  -3   3    1.54    0.18
  -7   3  -3    1.20    0.22
   7  -3   3    1.32    0.20
  -8   3  -3   13.22    0.50
   8  -3   3   12.54    0.37
   9  -3   3    7.55    0.34
  10   2  -3   15.05    0.50
  10   2  -3   14.50    0.49
   9   2  -3    0.98    0.19
   9   2  -3    0.76    0.17
  -9  -2   3    1.08    0.17
   8   2  -3    3.44    0.26
   8   2  -3    3.45    0.29
  -8  -2   3    3.07    0.26
   7   2  -3   12.30    0.39
   7   2  -3   11.91    0.37
   7   2  -3   12.32    0.36
  -7  -2   3   12.21    0.35
   6   2  -3   72.22    1.12
   6   2  -3   75.49    1.08
   6   2  -3   74.99    1.14
  -6  -2   3   75.43    1.08
  -6  -2   3   75.47    1.14
   5   2  -3   67.30    1.01
   5   2  -3   67.22    1.01
   5   2  -3   68.02    0.96
  -5  -2   3   68.30    1.02
  -5  -2   3   67.75    0.97
  -5  -2   3   67.31    1.07
   4   2  -3  103.69    1.36
   4   2  -3  103.14    2.10
   4   2  -3  105.98    1.53
   4   2  -3  102.98    1.57
   4   2  -3  104.69    1.43
   4   2  -3  103.10    1.42
  -4  -2   3  105.93    1.37
  -4  -2   3  103.43    1.52
  -4  -2   3  103.89    1.43
   3   2  -3   13.23    0.28
   3   2  -3   12.78    0.27
   3   2  -3   13.04    0.29
   3   2  -3   12.94    0.27
   3   2  -3   12.94    0.47
  -3  -2   3   12.58    0.27
  -3  -2   3   12.89    0.51
  -3  -2   3   12.81    0.29
  -3  -2   3   12.64    0.27
   2   2  -3  190.13    2.61
   2   2  -3  195.03    3.02
   2   2  -3  191.32    2.36
   2   2  -3  194.34    3.62
   2   2  -3  197.05    2.66
   2   2  -3  197.57    2.44
  -2  -2   3  193.98    2.63
  -2  -2   3  189.47    2.65
  -2  -2   3  195.43    2.43
  -2  -2   3  196.97    3.85
   1   2  -3   68.49    1.00
   1   2  -3   70.19    1.12
   1   2  -3   71.09    1.40
   1   2  -3   70.06    0.92
   1   2  -3   69.16    0.92
   1   2  -3   70.82    0.89
  -1  -2   3   67.56    0.89
  -1  -2   3   72.21    1.42
  -1  -2   3   70.97    0.90
   0   2  -3    5.88    0.13
   0   2  -3    5.97    0.15
   0   2  -3    6.34    0.23
   0   2  -3    6.02    0.28
   0   2  -3    6.18    0.13
   0  -2   3    6.28    0.14
   0  -2   3    5.90    0.14
   0  -2   3    6.20    0.14
   0  -2   3    6.14    0.30
  -1   2  -3  181.36    2.87
  -1   2  -3  185.66    2.30
  -1   2  -3  184.15    2.55
  -1   2  -3  182.45    2.24
  -1   2  -3  181.30    2.40
   1  -2   3  178.67    2.28
   1  -2   3  187.04    2.28
   1  -2   3  185.94    2.28
  -2   2  -3   45.87    0.82
  -2   2  -3   46.29    0.69
  -2   2  -3   45.83    0.65
  -2   2  -3   46.27    0.58
   2  -2   3   45.74    0.61
   2  -2   3   46.89    0.65
   2  -2   3   46.29    0.60
  -3   2  -3   34.21    0.66
  -3   2  -3   33.25    0.45
  -3   2  -3   33.72    0.52
  -3   2  -3   33.16    0.54
   3  -2   3   33.48    0.48
   3  -2   3   33.92    0.47
   3  -2   3   33.10    0.52
   3  -2   3   33.56    0.44
  -4   2  -3    2.68    0.18
  -4   2  -3    2.71    0.28
   4  -2   3    3.02    0.15
   4  -2   3    2.87    0.15
   4  -2   3    2.76    0.13
   4  -2   3    2.70    0.18
  -5   2  -3   18.69    0.41
  -5   2  -3   18.96    0.32
  -5   2  -3   18.43    0.50
   5  -2   3   19.44    0.37
   5  -2   3   19.47    0.41
   5  -2   3   19.65    0.33
  -6   2  -3   88.11    1.54
  -6   2  -3   90.46    1.32
   6  -2   3   89.81    1.32
   6  -2   3   92.99    1.20
   6  -2   3   88.42    1.23
  -7   2  -3   40.32    0.84
   7  -2   3   40.30    0.74
   7  -2   3   40.44    0.68
   7  -2   3   41.33    0.63
  -8   2  -3    2.25    0.33
   8  -2   3    1.80    0.22
   9  -2   3    0.04    0.13
  10   1  -3   11.26    0.44
  10   1  -3   11.28    0.46
   9   1  -3   63.84    1.10
   9   1  -3   64.52    1.06
   8   1  -3   35.18    0.72
   8   1  -3   36.10    0.68
  -8  -1   3   35.83    0.67
   7   1  -3   26.85    0.54
   7   1  -3   27.56    0.58
  -7  -1   3   27.56    0.54
   6   1  -3   70.58    1.09
   6   1  -3   69.45    1.08
   6   1  -3   70.22    1.02
  -6  -1   3   70.78    1.09
  -6  -1   3   70.22    1.14
  -6  -1   3   69.52    1.02
   5   1  -3    0.41    0.13
   5   1  -3    0.28    0.10
   5   1  -3    0.16    0.12
  -5  -1   3    0.35    0.12
  -5  -1   3    0.38    0.10
  -5  -1   3    0.28    0.10
   4   1  -3   47.68    1.10
   4   1  -3   48.32    0.74
   4   1  -3   47.38    0.74
   4   1  -3   47.84    0.70
  -4  -1   3   47.20    0.78
  -4  -1   3   47.35    0.74
  -4  -1   3   48.12    0.70
   3   1  -3  483.51    6.52
   3   1  -3  487.18    9.13
   3   1  -3  473.35    5.96
   3   1  -3  475.24    6.43
  -3  -1   3  462.96    5.93
  -3  -1   3  474.23    6.65
  -3  -1   3  463.34    6.36
   2   1  -3    2.84    0.13
   2   1  -3    3.08    0.25
   2   1  -3    3.09    0.13
   2   1  -3    3.06    0.14
  -2  -1   3    3.06    0.14
  -2  -1   3    2.77    0.13
  -2  -1   3    3.11    0.28
  -2  -1   3    2.81    0.13
   1   1  -3  404.01    5.66
   1   1  -3  393.20    7.69
   1   1  -3  396.06    5.05
   1   1  -3  409.29    5.31
  -1  -1   3  402.75    5.00
  -1  -1   3  398.81    5.11
  -1  -1   3  409.10    5.66
  -1  -1   3  405.04    7.71
   0   1  -3    2.13    0.21
   0   1  -3    2.43    0.11
   0   1  -3    2.44    0.10
   0   1  -3    2.57    0.09
   0  -1   3    2.40    0.10
   0  -1   3    2.32    0.10
   0  -1   3    2.41    0.10
   0  -1   3    2.62    0.23
  -1   1  -3   62.31    0.79
  -1   1  -3   63.31    0.90
  -1   1  -3   61.53    0.83
   1  -1   3   62.81    0.79
   1  -1   3   62.53    0.80
  -2   1  -3  716.62    9.26
  -2   1  -3  710.83    8.67
  -2   1  -3  702.42   11.07
  -2   1  -3  708.21    9.83
   2  -1   3  718.02    8.71
   2  -1   3  700.16    8.75
   2  -1   3  729.41    9.30
  -3   1  -3  421.07    6.48
  -3   1  -3  421.45    5.13
  -3   1  -3  412.68    5.57
  -3   1  -3  419.53    5.91
   3  -1   3  408.61    5.59
   3  -1   3  402.43    5.12
   3  -1   3  422.71    5.27
  -4   1  -3   19.25    0.45
  -4   1  -3   18.57    0.36
  -4   1  -3   18.59    0.31
   4  -1   3   18.79    0.34
   4  -1   3   18.85    0.37
   4  -1   3   19.15    0.29
   4  -1   3   18.86    0.34
  -5   1  -3   57.65    0.88
  -5   1  -3   56.27    0.78
  -5   1  -3   55.90    1.01
   5  -1   3   56.34    0.77
   5  -1   3   57.91    0.87
   5  -1   3   56.63    0.81
  -6   1  -3    0.16    0.17
  -6   1  -3    0.20    0.08
  -6   1  -3    0.05    0.13
   6  -1   3    0.06    0.11
   6  -1   3    0.24    0.09
   6  -1   3    0.19    0.13
  -7   1  -3   36.90    0.76
   7  -1   3   37.56    0.70
   7  -1   3   37.81    0.65
   7  -1   3   38.56    0.60
  -8   1  -3   78.68    1.38
   8  -1   3   79.32    1.18
   8  -1   3   80.28    1.13
   9  -1   3   25.62    0.56
  10  -1   3    0.91    0.18
   9   0  -3    0.12    0.14
   9   0  -3    0.35    0.18
   8   0  -3   39.19    0.73
   8   0  -3   40.33    0.78
   7   0  -3   73.39    1.09
   7   0  -3   73.90    1.15
  -7   0   3   72.66    1.08
   6   0  -3   44.52    0.79
   6   0  -3   46.51    0.74
  -6   0   3   45.49    0.82
  -6   0   3   46.94    0.74
   5   0  -3   -0.08    0.10
   5   0  -3    0.06    0.16
   5   0  -3    0.03    0.11
  -5   0   3   -0.02    0.09
  -5   0   3    0.21    0.10
  -5   0   3    0.02    0.12
   4   0  -3   58.12    0.83
   4   0  -3   58.70    1.27
   4   0  -3   57.61    0.88
  -4   0   3   58.58    0.82
  -4   0   3   58.49    0.92
  -4   0   3   57.39    0.88
   3   0  -3   21.05    0.58
   3   0  -3   20.08    0.38
   3   0  -3   20.22    0.36
  -3   0   3   20.77    0.36
  -3   0   3   20.26    0.38
  -3   0   3   21.00    0.40
   2   0  -3  489.40    7.01
   2   0  -3  492.30    6.34
   2   0  -3  501.23    6.72
   2   0  -3  506.69    9.47
  -2   0   3  482.05    6.20
  -2   0   3  512.39    7.09
  -2   0   3  489.57    6.60
   1   0  -3  219.68    2.84
   1   0  -3  228.06    3.14
   1   0  -3  224.02    3.13
   1   0  -3  225.86    4.32
  -1   0   3  222.65    2.85
  -1   0   3  225.44    3.25
  -1   0   3  227.55    4.41
   0   0  -3  387.07    7.26
   0   0  -3  381.69    4.84
   0   0   3  387.94    5.45
   0   0   3  386.00    4.83
   0   0   3  380.71    4.90
   0   0   3  384.83    7.28
  -1   0  -3  229.99    2.87
  -1   0  -3  227.09    2.85
  -1   0  -3  231.46    3.17
   1   0   3  225.52    2.95
   1   0   3  224.74    3.12
   1   0   3  220.27    2.86
  -2   0  -3    2.13    0.06
  -2   0  -3    2.24    0.10
  -2   0  -3    1.96    0.12
  -2   0  -3    2.22    0.12
   2   0   3    2.16    0.06
   2   0   3    2.11    0.11
   2   0   3    2.33    0.10
   2   0   3    2.22    0.11
  -3   0  -3    2.33    0.13
  -3   0  -3    2.19    0.11
  -3   0  -3    1.81    0.14
   3   0   3    2.21    0.13
   3   0   3    1.85    0.14
   3   0   3    2.22    0.08
   3   0   3    2.15    0.13
  -4   0  -3  199.14    3.04
  -4   0  -3  191.14    2.54
  -4   0  -3  190.46    2.37
   4   0   3  196.51    2.39
   4   0   3  195.36    2.55
   4   0   3  191.81    2.44
  -5   0  -3  160.45    2.01
  -5   0  -3  161.35    2.16
  -5   0  -3  160.32    2.50
   5   0   3  159.90    2.03
   5   0   3  163.87    2.17
   5   0   3  158.92    2.03
  -6   0  -3   20.08    0.45
  -6   0  -3   19.74    0.38
  -6   0  -3   19.70    0.48
   6   0   3   20.56    0.42
   6   0   3   19.62    0.36
   6   0   3   18.99    0.43
  -7   0  -3   27.13    0.49
  -7   0  -3   27.71    0.59
   7   0   3   26.39    0.52
   7   0   3   27.42    0.56
   7   0   3   27.49    0.48
  -8   0  -3    9.14    0.35
   8   0   3    9.33    0.28
   8   0   3    8.41    0.32
   9   0   3   13.84    0.41
   9   0   3   13.51    0.35
  10   0   3   14.84    0.47
   9  -1  -3    3.22    0.33
   9  -1  -3    2.99    0.29
   8  -1  -3    1.35    0.18
   8  -1  -3    1.35    0.20
   7  -1  -3    2.04    0.22
  -7   1   3    2.32    0.24
  -7   1   3    2.34    0.20
   6  -1  -3    0.03    0.13
   6  -1  -3    0.21    0.11
  -6   1   3    0.11    0.09
  -6   1   3   -0.02    0.10
   5  -1  -3   60.67    0.96
   5  -1  -3   61.62    0.89
  -5   1   3   59.71    0.96
  -5   1   3   60.78    0.99
  -5   1   3   60.85    0.87
   4  -1  -3   59.74    0.84
   4  -1  -3   59.35    0.90
  -4   1   3   57.62    0.90
  -4   1   3   57.87    0.83
  -4   1   3   60.01    0.94
   3  -1  -3   19.08    0.34
   3  -1  -3   18.68    0.37
  -3   1   3   18.04    0.33
  -3   1   3   18.97    0.38
  -3   1   3   18.83    0.37
   2  -1  -3   34.77    0.73
   2  -1  -3   33.83    0.49
   2  -1  -3   33.27    0.53
  -2   1   3   33.92    0.56
  -2   1   3   33.58    0.50
   1  -1  -3   20.23    0.32
   1  -1  -3   20.95    0.45
   1  -1  -3   20.30    0.35
  -1   1   3   20.20    0.36
  -1   1   3   20.13    0.32
   0  -1  -3   32.03    0.51
   0  -1  -3   32.20    0.46
   0  -1  -3   32.91    0.46
   0   1   3   32.14    0.46
   0   1   3   32.22    0.51
   0   1   3   33.01    0.63
  -1  -1  -3  147.01    1.99
  -1  -1  -3  146.12    1.91
  -1  -1  -3  146.13    1.82
   1   1   3  146.19    2.08
   1   1   3  141.10    1.88
   1   1   3  139.95    1.90
  -2  -1  -3   47.88    0.64
  -2  -1  -3   48.22    0.62
  -2  -1  -3   48.12    0.68
   2   1   3   47.67    0.72
   2   1   3   46.64    0.62
   2   1   3   46.02    0.64
  -3  -1  -3    8.62    0.20
  -3  -1  -3    8.53    0.22
  -3  -1  -3    9.03    0.23
  -3  -1  -3    8.60    0.17
   3   1   3    8.74    0.22
   3   1   3    8.51    0.17
   3   1   3    8.79    0.21
   3   1   3    8.78    0.20
   3   1   3    8.92    0.22
  -4  -1  -3   77.47    1.03
  -4  -1  -3   79.06    1.11
   4   1   3   78.35    1.11
   4   1   3   75.55    1.02
   4   1   3   79.10    1.04
   4   1   3   79.26    1.16
  -5  -1  -3    0.04    0.07
  -5  -1  -3   -0.04    0.10
  -5  -1  -3    0.04    0.13
   5   1   3   -0.02    0.07
   5   1   3    0.01    0.08
   5   1   3    0.04    0.09
   5   1   3   -0.08    0.10
  -6  -1  -3    6.33    0.28
  -6  -1  -3    6.50    0.30
  -6  -1  -3    6.38    0.22
   6   1   3    6.83    0.26
   6   1   3    6.42    0.28
   6   1   3    6.50    0.21
  -7  -1  -3   52.27    0.80
  -7  -1  -3   52.93    0.92
   7   1   3   51.52    0.82
   7   1   3   51.26    0.87
   7   1   3   52.76    0.79
  -8  -1  -3   12.39    0.34
   8   1   3   13.07    0.33
   8   1   3   13.34    0.39
   9   1   3    6.73    0.27
   9   1   3    6.43    0.32
  10   1   3    0.99    0.18
   9  -2  -3   42.74    0.87
   9  -2  -3   42.94    0.81
   8  -2  -3   28.07    0.59
   7  -2  -3   76.28    1.14
  -7   2   3   78.34    1.29
   6  -2  -3    5.64    0.29
   6  -2  -3    5.41    0.25
  -6   2   3    6.33    0.28
  -6   2   3    5.29    0.22
   5  -2  -3   47.64    0.80
   5  -2  -3   47.53    0.73
  -5   2   3   47.43    0.81
  -5   2   3   47.09    0.82
  -5   2   3   47.24    0.71
   4  -2  -3   56.25    0.81
   4  -2  -3   56.89    0.89
  -4   2   3   57.27    0.91
  -4   2   3   57.28    0.89
  -4   2   3   56.25    0.80
   3  -2  -3  146.47    1.99
   3  -2  -3  149.43    1.85
  -3   2   3  147.19    2.08
  -3   2   3  147.29    1.84
  -3   2   3  148.07    1.99
   2  -2  -3  254.97    3.54
   2  -2  -3  262.91    3.33
  -2   2   3  258.83    3.19
  -2   2   3  256.13    3.81
   1  -2  -3   67.45    1.26
   1  -2  -3   68.03    0.88
   1  -2  -3   67.56    0.88
  -1   2   3   67.83    0.88
  -1   2   3   66.69    0.99
   0  -2  -3  112.89    1.41
   0  -2  -3  112.65    1.41
   0   2   3  114.77    1.41
   0   2   3  112.15    1.58
  -1  -2  -3   47.07    0.64
  -1  -2  -3   47.69    0.64
   1   2   3   47.84    0.72
   1   2   3   48.29    0.64
   1   2   3   47.84    0.65
  -2  -2  -3  227.17    2.88
   2   2   3  228.88    2.92
   2   2   3  231.65    3.19
   2   2   3  224.68    3.03
  -3  -2  -3  271.83    3.76
  -3  -2  -3  273.36    3.37
   3   2   3  269.38    3.54
   3   2   3  268.49    3.58
   3   2   3  280.52    3.82
   3   2   3  265.80    3.53
  -4  -2  -3   20.56    0.37
  -4  -2  -3   20.52    0.39
   4   2   3   20.90    0.40
   4   2   3   20.67    0.37
   4   2   3   21.01    0.41
   4   2   3   20.57    0.35
  -5  -2  -3    2.92    0.17
  -5  -2  -3    2.86    0.20
   5   2   3    2.68    0.15
   5   2   3    2.83    0.18
   5   2   3    2.86    0.19
   5   2   3    2.92    0.20
  -6  -2  -3    2.38    0.24
  -6  -2  -3    2.15    0.17
  -6  -2  -3    2.11    0.22
   6   2   3    2.29    0.21
   6   2   3    2.04    0.17
   6   2   3    2.26    0.19
   6   2   3    2.36    0.20
  -7  -2  -3   15.00    0.36
  -7  -2  -3   15.56    0.39
   7   2   3   15.44    0.35
   7   2   3   15.27    0.39
   7   2   3   14.74    0.41
  -8  -2  -3   44.63    0.75
   8   2   3   43.63    0.72
   8   2   3   43.90    0.76
  -9  -2  -3   56.15    0.95
   9   2   3   57.28    0.95
   9   2   3   56.65    0.91
  10   2   3   25.92    0.55
  10   2   3   27.03    0.62
   9  -3  -3   10.13    0.40
   8  -3  -3    0.34    0.14
  -8   3   3    0.33    0.14
   7  -3  -3   55.10    0.89
  -7   3   3   56.02    1.00
   6  -3  -3  142.68    1.87
  -6   3   3  141.76    2.11
   5  -3  -3    0.02    0.10
   5  -3  -3   -0.04    0.12
  -5   3   3   -0.02    0.09
  -5   3   3    0.01    0.08
   4  -3  -3  107.56    1.40
   4  -3  -3  108.42    1.53
  -4   3   3  106.60    1.37
  -4   3   3  105.88    1.58
  -4   3   3  105.74    1.52
   3  -3  -3   93.66    1.21
   3  -3  -3   91.61    1.32
  -3   3   3   94.42    1.20
  -3   3   3   92.47    1.37
   2  -3  -3    0.68    0.08
   2  -3  -3    0.72    0.11
  -2   3   3    1.16    0.11
  -2   3   3    0.84    0.12
   1  -3  -3  317.20    3.93
   1  -3  -3  327.91    4.16
  -1   3   3  326.64    4.03
  -1   3   3  323.67    4.68
   0  -3  -3  230.27    2.97
   0  -3  -3  247.12    3.12
   0   3   3  240.73    2.98
   0   3   3  239.93    3.42
   0   3   3  237.69    3.17
  -1  -3  -3    0.50    0.06
  -1  -3  -3    0.33    0.06
   1   3   3    0.43    0.07
   1   3   3    0.41    0.06
   1   3   3    0.49    0.07
   1   3   3    0.25    0.04
  -2  -3  -3  104.91    1.34
   2   3   3  107.01    1.38
   2   3   3  106.55    1.33
   2   3   3  106.12    1.50
   2   3   3  104.96    1.33
  -3  -3  -3   37.08    0.55
  -3  -3  -3   37.00    0.59
   3   3   3   37.61    0.61
   3   3   3   37.40    0.55
   3   3   3   36.05    0.54
  -4  -3  -3  123.01    1.57
  -4  -3  -3  122.65    1.67
   4   3   3  123.75    1.76
   4   3   3  120.25    1.59
   4   3   3  122.20    1.56
  -5  -3  -3  130.68    1.81
  -5  -3  -3  130.86    1.70
   5   3   3  133.09    1.91
   5   3   3  132.04    1.70
   5   3   3  130.21    1.72
   5   3   3  132.08    1.81
  -6  -3  -3   18.99    0.40
  -6  -3  -3   18.48    0.44
   6   3   3   18.46    0.38
   6   3   3   18.95    0.44
   6   3   3   18.76    0.44
   6   3   3   18.93    0.41
  -7  -3  -3   22.26    0.46
  -7  -3  -3   22.91    0.48
   7   3   3   22.31    0.48
   7   3   3   22.95    0.51
   7   3   3   22.30    0.45
  -8  -3  -3    3.03    0.23
   8   3   3    3.41    0.27
   8   3   3    3.06    0.22
  -9  -3  -3   16.60    0.44
   9   3   3   17.27    0.43
   9   3   3   17.00    0.46
  10   3   3    7.56    0.32
  10   3   3    6.88    0.36
   8  -4  -3    3.71    0.28
  -8   4   3    3.59    0.30
   7  -4  -3    9.29    0.33
  -7   4   3    9.63    0.36
   6  -4  -3    0.18    0.11
  -6   4   3    0.25    0.11
   5  -4  -3   49.01    0.84
   5  -4  -3   48.14    0.75
  -5   4   3   49.87    0.85
   4  -4  -3   81.11    1.21
   4  -4  -3   79.28    1.08
  -4   4   3   79.47    1.23
   3  -4  -3    7.38    0.27
   3  -4  -3    7.44    0.22
  -3   4   3    7.34    0.17
  -3   4   3    7.79    0.24
   2  -4  -3   11.75    0.31
   2  -4  -3   12.00    0.25
   2  -4  -3   11.90    0.25
  -2   4   3   12.10    0.28
   1  -4  -3   19.13    0.38
   1  -4  -3   19.29    0.32
   1  -4  -3   19.98    0.33
  -1   4   3   19.35    0.37
  -1   4   3   19.14    0.29
   0  -4  -3   31.61    0.45
   0  -4  -3   30.95    0.45
   0   4   3   30.84    0.43
   0   4   3   30.80    0.51
   0   4   3   29.57    0.50
  -1  -4  -3  302.35    3.98
  -1  -4  -3  326.87    4.01
   1   4   3  327.62    4.07
   1   4   3  327.29    4.01
   1   4   3  321.59    5.94
   1   4   3  323.94    4.58
   1   4   3  326.87    4.01
  -2  -4  -3  186.54    2.30
   2   4   3  182.77    2.70
   2   4   3  188.15    2.29
   2   4   3  191.99    3.44
   2   4   3  189.72    2.39
  -3  -4  -3   43.36    0.63
  -3  -4  -3   42.97    0.67
   3   4   3   42.56    0.65
   3   4   3   43.66    0.93
   3   4   3   41.67    0.61
   3   4   3   42.53    0.70
  -4  -4  -3    4.20    0.20
  -4  -4  -3    3.60    0.18
   4   4   3    3.66    0.20
   4   4   3    3.87    0.18
   4   4   3    4.78    0.34
   4   4   3    3.81    0.18
  -5  -4  -3    8.84    0.26
  -5  -4  -3    9.28    0.30
   5   4   3    8.95    0.26
   5   4   3    9.27    0.29
   5   4   3    8.82    0.26
  -6  -4  -3   44.91    0.77
  -6  -4  -3   44.81    0.71
   6   4   3   44.16    0.71
   6   4   3   44.08    0.71
   6   4   3   44.98    0.80
  -7  -4  -3   68.12    1.02
   7   4   3   68.34    1.03
   7   4   3   67.65    1.08
   7   4   3   68.82    1.02
  -8  -4  -3   61.66    0.97
   8   4   3   60.09    0.96
   8   4   3   61.83    0.97
  -9  -4  -3    1.62    0.23
   9   4   3    1.97    0.23
   9   4   3    2.02    0.27
 -10  -4  -3   17.98    0.50
  10   4   3   18.81    0.51
  10   4   3   18.58    0.48
   8  -5  -3   27.18    0.58
  -8   5   3   25.94    0.64
   7  -5  -3   10.48    0.35
  -7   5   3   10.23    0.38
   6  -5  -3   11.50    0.33
  -6   5   3   11.67    0.37
   5  -5  -3    2.35    0.20
  -5   5   3    2.34    0.21
   4  -5  -3   10.27    0.27
   4  -5  -3    9.86    0.33
  -4   5   3   10.60    0.30
   3  -5  -3   61.60    0.85
   3  -5  -3   62.03    0.97
  -3   5   3   61.74    0.97
   2  -5  -3  124.03    1.72
   2  -5  -3  124.16    1.56
   2  -5  -3  125.49    1.57
  -2   5   3  123.65    1.77
   1  -5  -3  131.93    1.64
   1  -5  -3  130.90    2.44
   1  -5  -3  132.38    1.80
   1  -5  -3  131.31    1.64
  -1   5   3  131.53    1.85
   0  -5  -3   32.82    0.69
   0  -5  -3   34.13    0.49
   0  -5  -3   34.85    0.50
   0   5   3   34.10    0.57
   0   5   3   33.63    0.45
   0   5   3   33.48    0.55
  -1  -5  -3   57.66    1.15
  -1  -5  -3   58.05    0.79
  -1  -5  -3   59.72    0.80
   1   5   3   58.69    0.87
   1   5   3   58.65    0.76
   1   5   3   60.60    1.14
   1   5   3   58.79    0.89
  -2  -5  -3    3.14    0.15
   2   5   3    3.27    0.18
   2   5   3    3.80    0.14
   2   5   3    2.76    0.16
   2   5   3    3.01    0.24
  -3  -5  -3  147.35    1.85
  -3  -5  -3  145.97    1.97
   3   5   3  146.92    1.92
   3   5   3  146.74    2.75
   3   5   3  143.97    2.07
   3   5   3  146.02    1.82
  -4  -5  -3  142.13    1.83
  -4  -5  -3  143.43    1.95
   4   5   3  143.90    1.81
   4   5   3  142.75    1.90
   4   5   3  144.35    2.76
   4   5   3  141.86    2.05
  -5  -5  -3    0.05    0.12
  -5  -5  -3    0.03    0.10
   5   5   3    0.32    0.10
   5   5   3    0.33    0.11
   5   5   3    0.12    0.10
   5   5   3    0.03    0.16
  -6  -5  -3   37.71    0.69
  -6  -5  -3   38.69    0.65
   6   5   3   37.86    0.66
   6   5   3   37.83    0.72
   6   5   3   38.32    0.64
  -7  -5  -3   23.47    0.50
   7   5   3   24.12    0.50
   7   5   3   24.66    0.50
  -8  -5  -3    3.61    0.26
   8   5   3    3.16    0.24
   8   5   3    3.93    0.27
  -9  -5  -3   71.60    1.14
   9   5   3   71.66    1.13
   9   5   3   71.24    1.13
 -10  -5  -3    9.27    0.40
  10   5   3    9.39    0.41
  10   5   3   10.33    0.38
   7  -6  -3    9.00    0.34
  -7   6   3    9.69    0.37
   6  -6  -3   21.83    0.46
  -6   6   3   21.20    0.51
   5  -6  -3   57.59    0.86
  -5   6   3   57.56    0.97
   4  -6  -3    0.15    0.09
   4  -6  -3    0.17    0.13
  -4   6   3    0.19    0.09
   3  -6  -3    9.31    0.32
   3  -6  -3    8.34    0.24
  -3   6   3    8.75    0.26
   2  -6  -3    4.25    0.24
   2  -6  -3    4.20    0.32
   2  -6  -3    4.13    0.18
  -2   6   3    4.19    0.19
   1  -6  -3    2.64    0.22
   1  -6  -3    2.62    0.15
   1  -6  -3    2.84    0.27
   1  -6  -3    2.81    0.14
  -1   6   3    2.73    0.16
   0  -6  -3   86.04    1.65
   0  -6  -3   85.35    1.11
   0  -6  -3   86.69    1.11
   0   6   3   86.36    1.23
   0   6   3   84.90    1.25
  -1  -6  -3   55.60    0.77
  -1  -6  -3   56.48    1.15
  -1  -6  -3   56.27    0.77
   1   6   3   57.59    0.87
   1   6   3   55.79    0.71
   1   6   3   56.18    0.87
  -2  -6  -3   26.55    0.43
  -2  -6  -3   24.95    0.43
   2   6   3   25.85    0.49
   2   6   3   26.92    0.64
   2   6   3   25.76    0.48
   2   6   3   26.52    0.39
  -3  -6  -3   26.36    0.45
  -3  -6  -3   25.76    0.49
   3   6   3   25.76    0.67
   3   6   3   25.27    0.41
   3   6   3   25.54    0.49
   3   6   3   25.61    0.50
  -4  -6  -3    0.73    0.11
  -4  -6  -3    0.70    0.13
   4   6   3    1.04    0.18
   4   6   3    0.33    0.14
  -5  -6  -3   20.45    0.45
  -5  -6  -3   20.33    0.42
   5   6   3   20.53    0.45
   5   6   3   21.19    0.41
   5   6   3   20.42    0.47
  -6  -6  -3   47.83    0.78
   6   6   3   47.78    0.75
   6   6   3   48.15    0.87
   6   6   3   49.09    0.81
  -7  -6  -3   16.84    0.42
   7   6   3   16.49    0.42
   7   6   3   16.74    0.40
  -8  -6  -3    2.76    0.26
   8   6   3    2.31    0.24
   8   6   3    2.25    0.23
  -9  -6  -3    0.13    0.14
   9   6   3    0.02    0.13
   9   6   3    0.05    0.13
 -10  -6  -3    0.08    0.15
  10   6   3    0.18    0.15
   6  -7  -3    7.03    0.29
  -6   7   3    7.06    0.31
   5  -7  -3   11.93    0.32
  -5   7   3   12.37    0.36
   4  -7  -3   91.23    1.24
  -4   7   3   92.33    1.40
   3  -7  -3   24.55    0.67
   3  -7  -3   23.38    0.52
   3  -7  -3   24.22    0.42
  -3   7   3   24.72    0.48
   2  -7  -3    0.04    0.08
   2  -7  -3    0.03    0.10
   2  -7  -3   -0.03    0.11
  -2   7   3    0.23    0.08
   1  -7  -3    7.21    0.36
   1  -7  -3    6.96    0.28
   1  -7  -3    7.05    0.21
  -1   7   3    7.17    0.23
   0  -7  -3    1.83    0.15
   0  -7  -3    2.02    0.32
   0   7   3    1.75    0.16
   0   7   3    1.81    0.23
  -1  -7  -3   16.03    0.32
  -1  -7  -3   16.30    0.53
   1   7   3   16.58    0.35
   1   7   3   15.54    0.40
  -2  -7  -3  119.67    1.55
   2   7   3  122.18    2.32
   2   7   3  120.66    1.67
   2   7   3  119.94    1.74
  -3  -7  -3   19.23    0.42
  -3  -7  -3   19.38    0.38
   3   7   3   19.60    0.43
   3   7   3   19.70    0.59
   3   7   3   19.29    0.44
  -4  -7  -3    6.66    0.24
  -4  -7  -3    7.06    0.28
   4   7   3    6.60    0.28
   4   7   3    6.48    0.44
   4   7   3    6.95    0.27
  -5  -7  -3   16.12    0.41
  -5  -7  -3   16.35    0.37
   5   7   3   16.39    0.42
   5   7   3   16.32    0.41
  -6  -7  -3    0.30    0.12
   6   7   3    0.37    0.13
   6   7   3    0.36    0.13
  -7  -7  -3   26.12    0.55
   7   7   3   25.74    0.57
  -8  -7  -3   41.08    0.76
   8   7   3   40.73    0.78
  -9  -7  -3   16.87    0.49
   9   7   3   17.78    0.50
   5  -8  -3   30.53    0.55
  -5   8   3   31.05    0.62
   4  -8  -3   13.51    0.32
  -4   8   3   13.42    0.36
   2  -8  -3   31.88    0.62
   2  -8  -3   33.03    0.52
  -2   8   3   33.34    0.59
   1  -8  -3   78.16    1.58
   1  -8  -3   77.38    1.17
   1  -8  -3   76.27    1.04
  -1   8   3   78.34    1.17
   0  -8  -3    7.67    0.29
   0  -8  -3    7.63    0.41
   0  -8  -3    7.66    0.22
   0   8   3    8.32    0.24
   0   8   3    7.94    0.32
  -1  -8  -3   41.60    0.96
  -1  -8  -3   39.92    0.61
   1   8   3   40.98    0.74
   1   8   3   41.60    0.69
  -2  -8  -3   18.96    0.62
  -2  -8  -3   18.29    0.36
   2   8   3   18.54    0.45
   2   8   3   19.44    0.41
  -3  -8  -3   31.47    0.54
  -3  -8  -3   33.16    0.60
   3   8   3   34.48    0.62
   3   8   3   32.43    0.82
   3   8   3   31.48    0.63
  -4  -8  -3   64.79    0.96
  -4  -8  -3   66.48    1.03
   4   8   3   66.00    1.05
   4   8   3   67.49    1.09
  -5  -8  -3   89.04    1.28
   5   8   3   90.92    1.37
   5   8   3   93.43    1.45
  -6  -8  -3    0.48    0.12
   6   8   3    0.46    0.15
   6   8   3    0.40    0.14
  -7  -8  -3   49.57    0.85
   7   8   3   50.31    0.90
  -8  -8  -3    7.13    0.34
   8   8   3    6.45    0.35
  -9  -8  -3    8.26    0.39
   9   8   3    9.02    0.40
   4  -9  -3   16.02    0.36
  -4   9   3   16.31    0.41
   3  -9  -3    8.01    0.24
  -3   9   3    8.11    0.28
   2  -9  -3    2.74    0.17
  -2   9   3    2.66    0.19
   1  -9  -3   12.13    0.28
   1  -9  -3   11.29    0.36
  -1   9   3   11.66    0.31
   0  -9  -3  115.44    1.68
   0  -9  -3  118.12    1.52
   0   9   3  118.39    1.72
   0   9   3  120.03    1.72
  -1  -9  -3  155.59    1.98
   1   9   3  158.52    2.18
   1   9   3  156.34    2.23
  -2  -9  -3    6.93    0.48
  -2  -9  -3    7.99    0.25
   2   9   3    8.16    0.33
   2   9   3    8.19    0.28
  -3  -9  -3    7.93    0.26
  -3  -9  -3    8.62    0.30
   3   9   3    8.68    0.34
   3   9   3    8.41    0.30
  -4  -9  -3    0.84    0.12
  -4  -9  -3    0.75    0.14
   4   9   3    0.66    0.13
   4   9   3    0.68    0.16
  -5  -9  -3    0.79    0.13
   5   9   3    0.92    0.17
   5   9   3    0.72    0.14
  -6  -9  -3   70.55    1.08
   6   9   3   71.37    1.22
   6   9   3   70.05    1.16
  -7  -9  -3   76.53    1.18
   7   9   3   76.16    1.25
  -8  -9  -3    0.08    0.14
   8   9   3    0.10    0.16
   3 -10  -3   15.22    0.34
  -3  10   3   15.32    0.38
   2 -10  -3   38.62    0.60
  -2  10   3   38.27    0.68
   1 -10  -3    0.33    0.09
  -1  10   3    0.28    0.10
   0 -10  -3    5.71    0.21
   0  10   3    5.43    0.23
   0  10   3    5.56    0.33
  -1 -10  -3    6.01    0.22
   1  10   3    5.74    0.24
   1  10   3    5.23    0.32
  -2 -10  -3    4.13    0.20
   2  10   3    3.70    0.22
   2  10   3    4.02    0.30
  -3 -10  -3    4.08    0.22
   3  10   3    3.68    0.24
   3  10   3    3.96    0.30
  -4 -10  -3    3.03    0.22
   4  10   3    2.89    0.24
   4  10   3    2.92    0.28
  -5 -10  -3    1.93    0.22
   5  10   3    1.63    0.24
   5  10   3    1.28    0.19
  -6 -10  -3    2.38    0.24
   6  10   3    1.92    0.27
   6  10   3    2.14    0.28
  -7 -10  -3    0.28    0.14
   7  10   3   -0.03    0.16
   1 -11  -3   37.99    0.59
  -1  11   3   37.48    0.68
   0 -11  -3    9.22    0.26
   0  11   3    9.35    0.30
  -1 -11  -3    0.43    0.10
   1  11   3    0.38    0.11
   1  11   3    0.44    0.18
  -2 -11  -3    0.48    0.11
   2  11   3    0.38    0.12
   2  11   3    0.58    0.18
  -3 -11  -3    2.24    0.20
   3  11   3    2.07    0.28
   3  11   3    2.46    0.23
  -4 -11  -3   11.95    0.34
   4  11   3   11.41    0.39
   4  11   3   11.99    0.45
  -5 -11  -3   38.16    0.69
   5  11   3   39.29    0.81
   5  11   3   37.90    0.79
  -6 -11  -3   29.18    0.60
   6  11   3   27.82    0.69
   6  11   3   28.76    0.69
  -2 -11   4   23.52    0.44
   5  10  -4   26.34    0.63
  -5 -10   4   26.49    0.55
   4  10  -4    2.18    0.27
  -4 -10   4    2.04    0.21
   3  10  -4   11.91    0.56
   3  10  -4   11.42    0.39
  -3 -10   4   12.19    0.32
   2  10  -4    7.09    0.32
   2  10  -4    7.31    0.49
   2  10  -4    6.57    0.25
  -2 -10   4    7.13    0.24
   1  10  -4   45.50    0.74
   1  10  -4   46.42    1.08
   1  10  -4   43.77    0.80
  -1 -10   4   45.42    0.66
   0  10  -4   60.15    0.90
   0  10  -4   59.90    1.31
  -1  10  -4   29.36    0.88
  -2  10  -4    0.25    0.31
   6   9  -4    1.31    0.20
  -6  -9   4    1.11    0.17
   5   9  -4    2.71    0.27
  -5  -9   4    2.29    0.23
   4   9  -4   25.08    0.57
  -4  -9   4   25.41    0.50
   3   9  -4   21.76    0.51
   3   9  -4   21.87    0.48
   3   9  -4   22.47    0.65
  -3  -9   4   22.25    0.43
   2   9  -4    0.80    0.15
   2   9  -4    0.80    0.24
   2   9  -4    0.99    0.15
  -2  -9   4    0.85    0.11
   1   9  -4    0.92    0.26
   1   9  -4    0.50    0.09
   1   9  -4    0.54    0.13
  -1  -9   4    0.74    0.09
  -1  -9   4    0.26    0.20
   0   9  -4    4.03    0.44
   0   9  -4    3.51    0.15
   0   9  -4    3.60    0.23
   0  -9   4    3.66    0.15
   0  -9   4    3.10    0.61
  -1   9  -4   14.53    0.28
  -1   9  -4   15.31    0.62
  -2   9  -4   53.30    1.21
  -3   9  -4   21.16    0.75
  -4   9  -4    0.77    0.31
   7   8  -4    4.23    0.32
  -7  -8   4    3.28    0.28
   6   8  -4    4.91    0.32
  -6  -8   4    4.31    0.27
   5   8  -4    1.38    0.18
  -5  -8   4    1.82    0.21
   4   8  -4    0.18    0.14
   4   8  -4    0.33    0.19
  -4  -8   4   -0.15    0.22
  -4  -8   4    0.26    0.11
   3   8  -4   14.50    0.40
   3   8  -4   14.99    0.37
   3   8  -4   15.48    0.50
  -3  -8   4   14.26    0.33
  -3  -8   4   13.83    0.78
   2   8  -4   19.66    0.41
   2   8  -4   20.66    0.60
   2   8  -4   20.21    0.45
  -2  -8   4   19.32    0.84
  -2  -8   4   19.86    0.38
   1   8  -4   18.20    0.59
   1   8  -4   19.07    0.37
   1   8  -4   18.47    0.42
  -1  -8   4   18.20    0.33
  -1  -8   4   17.08    0.79
   0   8  -4   17.47    0.34
   0   8  -4   17.79    0.40
   0   8  -4   17.73    0.60
   0  -8   4   17.20    0.76
   0  -8   4   17.54    0.30
  -1   8  -4    0.06    0.23
  -1   8  -4   -0.02    0.06
  -1   8  -4   -0.09    0.10
   1  -8   4   -0.05    0.17
  -2   8  -4   11.81    0.25
  -2   8  -4   13.72    0.57
   2  -8   4   11.27    0.65
  -3   8  -4    0.71    0.26
  -3   8  -4    0.57    0.08
  -4   8  -4   23.86    0.77
  -5   8  -4   11.25    0.62
   5  -8   4   11.46    0.26
   8   7  -4    0.17    0.16
  -8  -7   4    0.05    0.14
   7   7  -4    0.65    0.17
  -7  -7   4    0.62    0.15
   6   7  -4   11.02    0.38
  -6  -7   4   10.96    0.35
   5   7  -4  147.93    2.05
  -5  -7   4  147.26    3.15
  -5  -7   4  148.13    1.96
   4   7  -4   41.07    0.72
   4   7  -4   41.35    0.80
  -4  -7   4   39.11    0.66
  -4  -7   4   38.95    1.22
   3   7  -4    0.38    0.10
   3   7  -4    0.12    0.12
   3   7  -4    0.35    0.18
  -3  -7   4    0.01    0.20
  -3  -7   4    0.41    0.10
   2   7  -4    0.14    0.18
   2   7  -4    0.03    0.10
   2   7  -4    0.12    0.08
  -2  -7   4   -0.04    0.18
  -2  -7   4    0.05    0.08
   1   7  -4    8.85    0.24
   1   7  -4    9.52    0.27
   1   7  -4    8.69    0.42
  -1  -7   4    9.10    0.22
  -1  -7   4    8.91    0.60
   0   7  -4   77.38    1.42
   0   7  -4   76.88    1.12
   0   7  -4   76.69    1.10
   0  -7   4   78.43    1.00
   0  -7   4   77.54    1.78
  -1   7  -4  129.83    1.85
  -1   7  -4  136.36    1.78
  -1   7  -4  133.54    2.27
   1  -7   4  136.68    1.65
   1  -7   4  134.96    2.79
  -2   7  -4    2.81    0.36
  -2   7  -4    2.53    0.13
   2  -7   4    2.24    0.45
   2  -7   4    2.62    0.12
  -3   7  -4    7.74    0.48
  -3   7  -4    7.80    0.20
   3  -7   4    8.11    0.56
  -4   7  -4    1.08    0.27
   4  -7   4    0.77    0.19
   4  -7   4    1.19    0.13
  -5   7  -4   16.60    0.65
   5  -7   4   16.81    0.33
  -6   7  -4   24.78    0.81
   6  -7   4   24.18    0.45
   9   6  -4   22.16    0.60
  -9  -6   4   23.72    0.60
   8   6  -4   59.28    1.06
  -8  -6   4   60.71    1.02
   7   6  -4    1.84    0.26
  -7  -6   4    1.25    0.17
   6   6  -4   48.77    0.85
  -6  -6   4   47.86    0.81
   5   6  -4   18.69    0.46
  -5  -6   4   18.92    0.43
  -5  -6   4   19.02    0.83
   4   6  -4   30.48    0.61
   4   6  -4   29.02    0.57
   4   6  -4   28.99    0.48
  -4  -6   4   29.86    1.02
  -4  -6   4   29.81    0.47
  -4  -6   4   29.56    0.53
   3   6  -4   20.37    0.51
   3   6  -4   20.58    0.44
   3   6  -4   19.66    0.43
  -3  -6   4   19.92    0.80
  -3  -6   4   20.19    0.39
   2   6  -4   28.81    0.67
   2   6  -4   30.16    0.53
   2   6  -4   29.23    0.53
  -2  -6   4   30.38    0.96
  -2  -6   4   29.33    0.48
   1   6  -4    0.90    0.21
   1   6  -4    1.10    0.17
   1   6  -4    1.11    0.13
  -1  -6   4    1.31    0.13
  -1  -6   4    0.55    0.19
   0   6  -4  117.83    1.56
   0   6  -4  117.53    1.65
   0   6  -4  118.60    1.98
   0  -6   4  118.73    1.47
   0  -6   4  116.86    1.47
   0  -6   4  119.04    2.46
  -1   6  -4    2.66    0.37
  -1   6  -4    2.56    0.13
  -1   6  -4    2.89    0.17
   1  -6   4    2.76    0.12
   1  -6   4    2.85    0.47
   1  -6   4    2.63    0.13
  -2   6  -4   88.42    1.17
  -2   6  -4   88.16    1.57
  -2   6  -4   85.67    1.23
   2  -6   4   86.99    1.10
   2  -6   4   85.70    1.92
  -3   6  -4   87.59    1.26
  -3   6  -4   87.35    1.59
   3  -6   4   86.17    1.95
   3  -6   4   90.09    1.12
  -4   6  -4    6.83    0.45
  -4   6  -4    6.62    0.21
   4  -6   4    6.82    0.19
   4  -6   4    6.69    0.20
  -5   6  -4    2.20    0.39
   5  -6   4    1.35    0.16
  -6   6  -4    3.72    0.46
   6  -6   4    3.32    0.20
  -7   6  -4    0.40    0.29
   7  -6   4    0.00    0.11
   9   5  -4    0.60    0.18
  -9  -5   4    0.70    0.17
   8   5  -4    4.68    0.32
  -8  -5   4    4.98    0.30
   7   5  -4   48.90    0.87
   7   5  -4   47.68    0.82
  -7  -5   4   48.28    0.83
   6   5  -4   30.70    0.56
   6   5  -4   30.43    0.62
   6   5  -4   30.51    0.56
  -6  -5   4   31.53    0.57
  -6  -5   4   30.48    0.59
   5   5  -4   12.12    0.36
   5   5  -4   12.12    0.31
   5   5  -4   12.19    0.30
  -5  -5   4   11.51    0.33
  -5  -5   4   12.25    0.30
   4   5  -4    0.18    0.12
   4   5  -4    0.41    0.10
   4   5  -4    0.56    0.15
   4   5  -4    0.42    0.09
   4   5  -4    0.29    0.09
  -4  -5   4    0.40    0.10
  -4  -5   4    0.27    0.22
  -4  -5   4    0.36    0.11
   3   5  -4   44.18    0.63
   3   5  -4   43.96    0.82
   3   5  -4   44.06    0.71
   3   5  -4   42.80    0.63
   3   5  -4   43.89    0.74
  -3  -5   4   44.94    0.63
  -3  -5   4   43.76    0.67
  -3  -5   4   45.07    1.20
   2   5  -4   47.36    0.88
   2   5  -4   47.66    0.63
   2   5  -4   47.02    0.72
   2   5  -4   47.47    0.76
  -2  -5   4   45.89    0.68
  -2  -5   4   47.94    1.19
  -2  -5   4   47.13    0.68
   1   5  -4  156.23    2.19
   1   5  -4  156.22    2.50
   1   5  -4  156.62    2.03
  -1  -5   4  162.17    3.13
  -1  -5   4  160.33    1.95
  -1  -5   4  156.16    1.95
   0   5  -4  184.66    2.32
   0   5  -4  181.21    2.89
   0   5  -4  180.10    2.55
   0  -5   4  180.43    2.23
   0  -5   4  186.16    2.23
   0  -5   4  186.75    3.57
  -1   5  -4    2.10    0.34
  -1   5  -4    2.10    0.13
  -1   5  -4    1.94    0.12
   1  -5   4    2.23    0.11
   1  -5   4    1.94    0.12
   1  -5   4    2.48    0.43
  -2   5  -4    0.55    0.07
  -2   5  -4    0.45    0.23
  -2   5  -4    0.45    0.08
  -2   5  -4    0.46    0.07
   2  -5   4    0.60    0.07
   2  -5   4    0.55    0.06
   2  -5   4    0.28    0.16
  -3   5  -4    0.85    0.24
  -3   5  -4    1.20    0.13
  -3   5  -4    0.97    0.10
   3  -5   4    0.92    0.12
   3  -5   4    1.21    0.14
  -4   5  -4    5.33    0.21
  -4   5  -4    4.78    0.19
  -4   5  -4    4.93    0.39
   4  -5   4    4.92    0.18
   4  -5   4    4.97    0.20
  -5   5  -4  166.19    2.78
   5  -5   4  169.15    2.12
   5  -5   4  171.09    2.27
  -6   5  -4   81.74    1.55
   6  -5   4   84.00    1.15
  -7   5  -4    0.12    0.23
   7  -5   4    0.14    0.11
  -8   5  -4    5.13    0.50
   8  -5   4    3.73    0.26
   9   4  -4   10.66    0.43
   9   4  -4    9.75    0.40
  -9  -4   4   10.51    0.41
   8   4  -4    0.99    0.18
   8   4  -4    1.07    0.16
  -8  -4   4    1.14    0.17
   7   4  -4    5.69    0.28
   7   4  -4    7.06    0.29
   7   4  -4    6.29    0.33
  -7  -4   4    6.17    0.29
   6   4  -4    5.70    0.26
   6   4  -4    6.25    0.26
   6   4  -4    5.85    0.28
  -6  -4   4    6.42    0.27
  -6  -4   4    5.96    0.27
   5   4  -4    7.09    0.25
   5   4  -4    7.11    0.25
   5   4  -4    6.95    0.29
  -5  -4   4    7.26    0.26
  -5  -4   4    7.33    0.27
   4   4  -4   74.54    1.22
   4   4  -4   76.34    1.19
   4   4  -4   75.61    1.04
   4   4  -4   75.75    1.07
   4   4  -4   75.24    1.11
  -4  -4   4   76.56    1.73
  -4  -4   4   77.23    1.07
  -4  -4   4   74.86    1.06
   3   4  -4   64.74    0.90
   3   4  -4   65.89    1.10
   3   4  -4   67.05    1.03
   3   4  -4   65.23    0.91
   3   4  -4   67.40    0.96
  -3  -4   4   66.93    1.53
  -3  -4   4   66.81    0.92
  -3  -4   4   66.01    0.92
   2   4  -4    6.29    0.22
   2   4  -4    6.30    0.17
   2   4  -4    6.61    0.29
   2   4  -4    6.53    0.21
   2   4  -4    6.51    0.15
  -2  -4   4    6.56    0.20
  -2  -4   4    6.56    0.49
   1   4  -4    0.26    0.11
   1   4  -4    0.42    0.08
   1   4  -4    0.50    0.08
   1   4  -4    0.43    0.15
   1   4  -4    0.47    0.07
  -1  -4   4    0.17    0.14
  -1  -4   4    0.31    0.07
  -1  -4   4    0.34    0.07
   0   4  -4   15.25    0.28
   0   4  -4   15.59    0.44
   0   4  -4   15.99    0.30
   0  -4   4   15.27    0.55
   0  -4   4   15.89    0.27
   0  -4   4   15.65    0.27
  -1   4  -4  101.46    1.31
  -1   4  -4  100.33    1.44
  -1   4  -4  101.46    1.70
   1  -4   4  102.31    1.28
   1  -4   4  101.83    2.09
   1  -4   4  107.99    1.33
   1  -4   4  101.40    1.28
  -2   4  -4   29.75    0.49
  -2   4  -4   29.83    0.67
  -2   4  -4   30.21    0.44
   2  -4   4   29.29    0.83
   2  -4   4   29.24    0.44
   2  -4   4   30.18    0.43
   2  -4   4   30.62    0.42
  -3   4  -4    6.36    0.20
  -3   4  -4    6.71    0.40
  -3   4  -4    6.27    0.20
   3  -4   4    6.50    0.20
   3  -4   4    6.89    0.17
   3  -4   4    6.89    0.14
   3  -4   4    6.45    0.18
  -4   4  -4    4.99    0.20
  -4   4  -4    4.74    0.39
  -4   4  -4    5.27    0.22
   4  -4   4    4.95    0.19
   4  -4   4    5.15    0.21
  -5   4  -4   45.96    0.73
  -5   4  -4   44.42    0.95
   5  -4   4   45.32    0.73
   5  -4   4   43.69    0.67
  -6   4  -4   10.35    0.33
  -6   4  -4   10.13    0.47
   6  -4   4   10.27    0.33
   6  -4   4   10.67    0.29
  -7   4  -4   38.81    0.91
   7  -4   4   38.90    0.66
  -8   4  -4    4.87    0.44
   8  -4   4    3.82    0.26
   9   3  -4    3.29    0.32
   9   3  -4    3.06    0.30
  -9  -3   4    2.86    0.29
   8   3  -4   50.95    0.86
   8   3  -4   48.86    0.90
  -8  -3   4   50.43    0.87
   7   3  -4   39.64    0.71
   7   3  -4   40.17    0.76
  -7  -3   4   40.31    0.73
   6   3  -4    6.01    0.27
   6   3  -4    5.70    0.29
   6   3  -4    5.99    0.27
  -6  -3   4    5.77    0.26
  -6  -3   4    6.11    0.27
   5   3  -4    0.42    0.11
   5   3  -4    0.44    0.12
   5   3  -4    0.42    0.14
  -5  -3   4    0.57    0.13
  -5  -3   4    0.55    0.12
   4   3  -4    3.76    0.23
   4   3  -4    3.91    0.19
   4   3  -4    3.16    0.18
   4   3  -4    3.80    0.19
   4   3  -4    3.57    0.20
  -4  -3   4    3.87    0.20
  -4  -3   4    3.65    0.20
  -4  -3   4    2.99    0.46
   3   3  -4  136.08    2.68
   3   3  -4  137.41    1.81
   3   3  -4  140.48    1.97
   3   3  -4  136.51    1.73
   3   3  -4  134.98    2.11
   3   3  -4  135.26    1.81
  -3  -3   4  138.55    1.81
  -3  -3   4  136.53    1.75
  -3  -3   4  140.44    2.74
   2   3  -4  236.99    4.39
   2   3  -4  237.16    3.28
   2   3  -4  233.79    2.94
   2   3  -4  235.65    3.09
   2   3  -4  229.34    3.65
   2   3  -4  234.82    2.95
  -2  -3   4  234.69    4.42
  -2  -3   4  234.80    2.87
   1   3  -4   38.96    0.53
   1   3  -4   38.37    0.90
   1   3  -4   39.02    0.71
   1   3  -4   39.19    0.62
   1   3  -4   38.69    0.56
   1   3  -4   37.46    0.52
  -1  -3   4   38.48    0.55
  -1  -3   4   38.42    0.93
  -1  -3   4   37.61    0.55
   0   3  -4   21.24    0.33
   0   3  -4   21.25    0.38
   0   3  -4   21.65    0.49
   0  -3   4   22.28    0.35
   0  -3   4   21.81    0.34
   0  -3   4   21.35    0.63
  -1   3  -4   19.59    0.29
  -1   3  -4   19.71    0.29
  -1   3  -4   19.53    0.47
  -1   3  -4   19.55    0.35
   1  -3   4   19.98    0.32
   1  -3   4   19.99    0.31
   1  -3   4   20.46    0.30
   1  -3   4   19.55    0.60
  -2   3  -4   39.03    0.62
  -2   3  -4   38.97    0.77
  -2   3  -4   39.30    0.56
   2  -3   4   39.43    0.55
   2  -3   4   39.43    0.54
  -3   3  -4   34.21    0.53
  -3   3  -4   32.44    0.55
  -3   3  -4   32.99    0.72
   3  -3   4   33.85    0.48
   3  -3   4   33.69    0.50
   3  -3   4   33.44    0.52
  -4   3  -4   67.98    1.24
  -4   3  -4   69.79    0.99
  -4   3  -4   67.40    1.04
   4  -3   4   68.72    0.91
   4  -3   4   69.63    0.99
   4  -3   4   67.56    0.92
  -5   3  -4    9.26    0.44
  -5   3  -4    9.33    0.29
   5  -3   4    8.93    0.28
   5  -3   4    9.34    0.19
   5  -3   4    9.62    0.26
  -6   3  -4    2.10    0.22
  -6   3  -4    2.09    0.33
   6  -3   4    1.92    0.21
   6  -3   4    2.04    0.19
  -7   3  -4    4.86    0.38
   7  -3   4    4.21    0.24
  -8   3  -4    6.87    0.42
   8  -3   4    5.96    0.29
   9  -3   4   19.83    0.50
   9   2  -4    0.57    0.17
   9   2  -4    0.75    0.19
  -9  -2   4    0.54    0.16
   8   2  -4    0.30    0.14
   8   2  -4    0.28    0.16
  -8  -2   4    0.40    0.14
   7   2  -4   54.30    0.88
   7   2  -4   54.04    0.93
  -7  -2   4   54.54    0.89
   6   2  -4   73.38    1.07
   6   2  -4   72.59    1.12
   6   2  -4   72.78    1.12
  -6  -2   4   72.68    1.07
  -6  -2   4   72.94    1.12
   5   2  -4   41.56    0.68
   5   2  -4   40.59    0.71
   5   2  -4   41.87    0.70
  -5  -2   4   42.08    0.76
  -5  -2   4   43.16    0.69
  -5  -2   4   42.91    0.71
   4   2  -4   13.12    0.31
   4   2  -4   13.70    0.58
   4   2  -4   13.48    0.34
   4   2  -4   13.46    0.32
   4   2  -4   13.51    0.34
  -4  -2   4   14.28    0.32
  -4  -2   4   13.61    0.34
  -4  -2   4   13.49    0.32
   3   2  -4   92.71    1.84
   3   2  -4   90.99    1.20
   3   2  -4   91.73    1.25
   3   2  -4   88.04    1.24
  -3  -2   4   91.28    1.25
  -3  -2   4   90.45    1.87
  -3  -2   4   91.64    1.21
  -3  -2   4   88.74    1.33
   2   2  -4   66.94    0.99
   2   2  -4   64.37    0.90
   2   2  -4   64.43    0.88
   2   2  -4   66.65    0.91
   2   2  -4   66.55    1.37
  -2  -2   4   64.48    1.39
  -2  -2   4   66.08    0.89
   1   2  -4  152.97    2.89
   1   2  -4  153.70    2.03
   1   2  -4  152.07    2.12
   1   2  -4  150.61    1.93
   1   2  -4  153.92    1.88
  -1  -2   4  152.04    1.89
  -1  -2   4  152.37    2.90
   0   2  -4  117.42    1.84
   0   2  -4  116.06    1.63
   0   2  -4  116.66    1.44
   0   2  -4  115.81    1.46
   0  -2   4  112.74    1.45
   0  -2   4  117.39    2.25
   0  -2   4  117.60    1.45
  -1   2  -4   48.54    0.67
  -1   2  -4   49.79    0.64
  -1   2  -4   49.81    0.75
  -1   2  -4   49.51    0.63
  -1   2  -4   49.38    0.89
   1  -2   4   49.99    0.67
   1  -2   4   50.74    0.66
   1  -2   4   48.98    1.08
  -2   2  -4   60.75    1.06
  -2   2  -4   60.21    0.83
  -2   2  -4   61.07    0.90
   2  -2   4   61.24    0.80
   2  -2   4   60.66    0.80
  -3   2  -4   16.21    0.33
  -3   2  -4   16.33    0.32
  -3   2  -4   16.80    0.46
   3  -2   4   16.80    0.29
   3  -2   4   16.67    0.32
   3  -2   4   16.28    0.30
  -4   2  -4   20.06    0.40
  -4   2  -4   20.39    0.39
  -4   2  -4   20.73    0.53
  -4   2  -4   20.44    0.32
   4  -2   4   20.57    0.39
   4  -2   4   20.05    0.36
   4  -2   4   19.13    0.34
  -5   2  -4   33.96    0.60
  -5   2  -4   33.89    0.75
  -5   2  -4   34.30    0.50
   5  -2   4   34.94    0.56
   5  -2   4   34.52    0.60
   5  -2   4   35.54    0.48
   5  -2   4   33.02    0.48
  -6   2  -4   98.04    1.69
  -6   2  -4  100.05    1.43
   6  -2   4   98.46    1.43
   6  -2   4   96.56    1.34
   6  -2   4  100.88    1.28
  -7   2  -4   43.10    0.90
   7  -2   4   42.84    0.72
   7  -2   4   42.94    0.78
  -8   2  -4    0.72    0.20
   8  -2   4    0.56    0.14
   9  -2   4    0.14    0.14
   9   1  -4   22.06    0.59
   9   1  -4   22.01    0.56
   8   1  -4    4.98    0.30
   8   1  -4    5.44    0.33
  -8  -1   4    5.31    0.28
   7   1  -4   23.59    0.52
   7   1  -4   23.98    0.56
  -7  -1   4   24.11    0.51
   6   1  -4   38.70    0.71
   6   1  -4   40.25    0.68
   6   1  -4   39.60    0.72
  -6  -1   4   40.17    0.68
   5   1  -4   10.28    0.32
   5   1  -4   10.87    0.31
   5   1  -4   10.98    0.35
  -5  -1   4   10.67    0.32
  -5  -1   4   10.86    0.32
  -5  -1   4   10.43    0.30
   4   1  -4  106.83    1.48
   4   1  -4  106.59    2.14
   4   1  -4  106.01    1.40
  -4  -1   4  105.59    1.57
  -4  -1   4  107.02    1.48
  -4  -1   4  105.38    1.41
   3   1  -4  147.35    1.95
   3   1  -4  147.67    2.08
   3   1  -4  146.10    1.85
   3   1  -4  148.65    2.81
  -3  -1   4  146.88    1.95
  -3  -1   4  144.88    1.85
  -3  -1   4  144.52    2.08
   2   1  -4    0.63    0.08
   2   1  -4    0.85    0.12
   2   1  -4    0.97    0.12
   2   1  -4    0.42    0.10
  -2  -1   4    0.51    0.08
  -2  -1   4    0.42    0.12
  -2  -1   4    0.65    0.11
   1   1  -4  301.11    5.85
   1   1  -4  305.46    3.83
   1   1  -4  294.70    4.00
   1   1  -4  302.84    4.20
  -1  -1   4  295.37    3.85
  -1  -1   4  294.35    4.21
  -1  -1   4  294.37    5.90
   0   1  -4   49.36    0.74
   0   1  -4   48.40    0.66
   0  -1   4   48.78    0.67
   0  -1   4   49.40    1.02
   0  -1   4   49.63    0.67
   0  -1   4   46.99    0.73
  -1   1  -4   86.45    1.06
  -1   1  -4   86.93    1.08
  -1   1  -4   85.25    1.23
   1  -1   4   85.60    1.10
   1  -1   4   84.08    1.09
   1  -1   4   86.33    1.68
  -2   1  -4  585.42    7.66
  -2   1  -4  577.70    7.23
  -2   1  -4  596.62    8.21
   2  -1   4  576.66    7.28
   2  -1   4  577.35    7.21
  -3   1  -4  175.74    2.45
  -3   1  -4  174.64    2.30
  -3   1  -4  178.86    2.15
  -3   1  -4  180.60    2.75
   3  -1   4  177.51    2.18
   3  -1   4  172.94    2.30
  -4   1  -4    1.40    0.16
  -4   1  -4    1.26    0.18
  -4   1  -4    1.25    0.14
  -4   1  -4    1.40    0.11
   4  -1   4    1.37    0.15
   4  -1   4    1.50    0.14
  -5   1  -4   17.42    0.39
  -5   1  -4   17.40    0.32
  -5   1  -4   16.97    0.49
   5  -1   4   17.72    0.40
   5  -1   4   17.72    0.28
   5  -1   4   17.32    0.36
  -6   1  -4   11.14    0.35
  -6   1  -4   10.12    0.26
  -6   1  -4   10.51    0.42
   6  -1   4   10.64    0.23
   6  -1   4   11.10    0.33
   6  -1   4   10.84    0.31
  -7   1  -4   64.83    1.18
   7  -1   4   64.43    0.98
   7  -1   4   66.20    0.90
   7  -1   4   64.68    1.04
  -8   1  -4   54.18    1.04
   8  -1   4   54.49    0.89
   9  -1   4    2.29    0.26
  10  -1   4    5.76    0.35
   9   0  -4    2.47    0.32
   9   0  -4    2.45    0.29
   8   0  -4   19.40    0.50
   8   0  -4   19.39    0.53
   7   0  -4   28.29    0.58
   7   0  -4   27.96    0.62
  -7   0   4   28.11    0.56
   6   0  -4    5.18    0.27
   6   0  -4    5.61    0.26
  -6   0   4    5.20    0.27
  -6   0   4    5.52    0.25
   5   0  -4    3.52    0.22
   5   0  -4    3.43    0.24
  -5   0   4    3.64    0.25
  -5   0   4    3.48    0.22
  -5   0   4    3.24    0.20
   4   0  -4   13.30    0.34
   4   0  -4   13.48    0.55
   4   0  -4   13.60    0.32
  -4   0   4   13.51    0.34
  -4   0   4   13.41    0.31
  -4   0   4   13.64    0.34
   3   0  -4    0.00    0.10
   3   0  -4   -0.11    0.09
   3   0  -4   -0.04    0.08
  -3   0   4   -0.07    0.07
  -3   0   4   -0.11    0.09
  -3   0   4   -0.03    0.07
   2   0  -4  397.72    5.41
   2   0  -4  389.95    5.28
   2   0  -4  397.20    7.61
   2   0  -4  390.85    4.97
  -2   0   4  394.00    7.59
  -2   0   4  399.61    5.65
  -2   0   4  400.16    5.13
   1   0  -4  661.07    8.82
   1   0  -4  669.08   12.42
   1   0  -4  647.57    8.28
   1   0  -4  680.11    9.25
  -1   0   4  665.61   12.46
  -1   0   4  657.62    9.30
  -1   0   4  665.16    8.40
   0   0  -4   65.34    0.87
   0   0   4   65.36    0.88
   0   0   4   66.96    1.30
   0   0   4   68.40    0.98
  -1   0  -4   34.46    0.50
  -1   0  -4   35.53    0.47
  -1   0  -4   35.66    0.57
   1   0   4   34.99    0.51
   1   0   4   34.95    0.56
  -2   0  -4    4.26    0.15
  -2   0  -4    4.00    0.14
  -2   0  -4    4.14    0.09
  -2   0  -4    4.14    0.16
   2   0   4    4.11    0.15
   2   0   4    4.23    0.15
  -3   0  -4  207.12    2.84
  -3   0  -4  205.48    2.73
  -3   0  -4  204.79    2.61
  -3   0  -4  206.84    2.54
   3   0   4  204.91    2.52
  -4   0  -4  102.82    1.35
  -4   0  -4  105.37    1.45
  -4   0  -4  108.09    1.54
   4   0   4  105.64    1.32
   4   0   4  106.32    1.45
   4   0   4  104.37    1.37
  -5   0  -4  134.55    1.72
  -5   0  -4  135.96    1.86
  -5   0  -4  138.86    2.16
   5   0   4  136.11    1.86
   5   0   4  133.51    1.75
   5   0   4  134.73    1.71
  -6   0  -4    1.18    0.15
  -6   0  -4    1.18    0.19
  -6   0  -4    1.04    0.15
   6   0   4    1.31    0.19
   6   0   4    1.15    0.16
   6   0   4    1.31    0.13
  -7   0  -4   53.54    1.01
  -7   0  -4   54.52    0.82
   7   0   4   55.61    0.86
   7   0   4   54.49    0.79
   7   0   4   54.98    0.91
  -8   0  -4    3.71    0.31
   8   0   4    3.89    0.19
   8   0   4    3.42    0.27
   9   0   4   22.04    0.52
  10   0   4   18.45    0.52
   9  -1  -4    2.21    0.29
   9  -1  -4    2.08    0.25
   8  -1  -4    2.50    0.27
   8  -1  -4    2.09    0.24
   7  -1  -4    7.86    0.31
   6  -1  -4   79.04    1.24
   6  -1  -4   77.24    1.14
  -6   1   4   79.89    1.13
  -6   1   4   80.07    1.29
   5  -1  -4    0.28    0.14
   5  -1  -4    0.20    0.12
  -5   1   4    0.38    0.14
  -5   1   4    0.22    0.10
  -5   1   4    0.37    0.11
   4  -1  -4    6.06    0.43
   4  -1  -4    5.49    0.24
   4  -1  -4    5.56    0.23
  -4   1   4    5.37    0.24
  -4   1   4    5.60    0.21
  -4   1   4    5.46    0.23
   3  -1  -4   50.11    0.78
   3  -1  -4   50.71    1.07
   3  -1  -4   49.18    0.72
  -3   1   4   49.95    0.81
  -3   1   4   48.91    0.72
   2  -1  -4   17.69    0.46
   2  -1  -4   17.08    0.35
   2  -1  -4   16.84    0.32
  -2   1   4   17.55    0.36
  -2   1   4   16.81    0.32
   1  -1  -4  128.75    1.60
   1  -1  -4  127.15    2.38
  -1   1   4  129.32    2.44
  -1   1   4  125.25    1.60
  -1   1   4  127.59    1.80
   0  -1  -4  141.79    1.94
   0  -1  -4  137.36    1.72
   0   1   4  135.77    1.73
   0   1   4  138.09    2.63
   0   1   4  141.73    1.94
  -1  -1  -4    3.12    0.15
  -1  -1  -4    3.40    0.14
  -1  -1  -4    3.15    0.11
   1   1   4    3.00    0.14
   1   1   4    3.17    0.14
  -2  -1  -4   -0.01    0.06
  -2  -1  -4   -0.02    0.05
  -2  -1  -4   -0.06    0.06
   2   1   4   -0.01    0.06
   2   1   4    0.13    0.07
   2   1   4    0.02    0.04
  -3  -1  -4   11.34    0.24
  -3  -1  -4   11.64    0.27
  -3  -1  -4    9.80    0.26
  -3  -1  -4   11.68    0.20
   3   1   4   10.78    0.25
   3   1   4   10.95    0.26
   3   1   4   10.33    0.20
  -4  -1  -4   35.27    0.56
  -4  -1  -4   32.90    0.51
   4   1   4   32.25    0.57
   4   1   4   32.30    0.52
   4   1   4   32.51    0.47
   4   1   4   32.46    0.52
  -5  -1  -4    7.65    0.27
  -5  -1  -4    7.73    0.23
   5   1   4    7.79    0.19
   5   1   4    7.79    0.27
   5   1   4    8.11    0.26
  -6  -1  -4   30.62    0.53
  -6  -1  -4   31.01    0.66
  -6  -1  -4   29.57    0.58
   6   1   4   32.18    0.56
   6   1   4   30.90    0.49
   6   1   4   30.72    0.59
  -7  -1  -4    2.45    0.28
  -7  -1  -4    2.40    0.19
   7   1   4    2.49    0.24
   7   1   4    2.41    0.23
   7   1   4    2.26    0.16
  -8  -1  -4    2.14    0.21
  -8  -1  -4    2.09    0.27
   8   1   4    2.24    0.25
   8   1   4    2.59    0.19
   9   1   4    1.73    0.26
  10   1   4    0.23    0.16
   9  -2  -4   58.96    1.02
   9  -2  -4   59.96    1.10
   8  -2  -4   39.20    0.74
   7  -2  -4    0.55    0.14
  -7   2   4    0.49    0.14
   6  -2  -4    5.10    0.25
  -6   2   4    5.21    0.23
  -6   2   4    5.46    0.27
   5  -2  -4    0.09    0.13
   5  -2  -4    0.24    0.11
  -5   2   4    0.26    0.11
  -5   2   4    0.17    0.09
   4  -2  -4   81.30    1.21
   4  -2  -4   80.70    1.66
   4  -2  -4   81.53    1.11
  -4   2   4   82.41    1.11
  -4   2   4   80.24    1.26
   3  -2  -4  362.10    6.68
   3  -2  -4  352.19    4.85
   3  -2  -4  357.70    4.43
  -3   2   4  361.00    4.86
  -3   2   4  348.74    4.43
   2  -2  -4   99.08    1.39
   2  -2  -4  102.20    1.89
   2  -2  -4   99.84    1.29
  -2   2   4   98.92    1.46
  -2   2   4   99.32    1.29
   1  -2  -4   38.06    0.74
   1  -2  -4   38.20    0.55
  -1   2   4   38.47    0.63
  -1   2   4   36.92    0.55
   0  -2  -4   30.18    0.46
   0   2   4   30.67    0.46
   0   2   4   31.36    0.52
  -1  -2  -4    5.32    0.16
   1   2   4    5.39    0.16
   1   2   4    5.23    0.18
   1   2   4    5.21    0.16
  -2  -2  -4    3.16    0.14
   2   2   4    3.20    0.15
   2   2   4    3.24    0.12
   2   2   4    3.15    0.14
  -3  -2  -4  436.45    5.94
  -3  -2  -4  441.65    6.14
  -3  -2  -4  436.35    5.54
   3   2   4  447.39    6.24
   3   2   4  429.67    5.65
   3   2   4  434.32    5.64
  -4  -2  -4  193.49    2.55
  -4  -2  -4  190.97    2.38
   4   2   4  195.06    2.68
   4   2   4  188.74    2.46
   4   2   4  191.31    2.39
   4   2   4  192.57    2.39
  -5  -2  -4    8.59    0.25
  -5  -2  -4    8.78    0.29
   5   2   4    8.37    0.22
   5   2   4    8.99    0.27
   5   2   4    8.75    0.28
   5   2   4    8.68    0.27
  -6  -2  -4    0.39    0.10
  -6  -2  -4    0.38    0.14
   6   2   4    0.68    0.13
   6   2   4    0.65    0.10
   6   2   4    0.53    0.14
  -7  -2  -4   21.67    0.51
  -7  -2  -4   21.64    0.44
   7   2   4   21.43    0.50
   7   2   4   22.22    0.47
   7   2   4   21.10    0.41
  -8  -2  -4   25.66    0.56
  -8  -2  -4   25.51    0.52
   8   2   4   24.34    0.54
   8   2   4   25.51    0.48
   9   2   4   19.54    0.50
   9   2   4   18.54    0.42
  10   2   4   18.08    0.52
   8  -3  -4    6.42    0.33
   7  -3  -4   28.92    0.58
  -7   3   4   29.29    0.66
   6  -3  -4   56.45    0.89
  -6   3   4   58.02    1.01
   5  -3  -4    1.53    0.22
   5  -3  -4    1.43    0.19
  -5   3   4    1.69    0.17
  -5   3   4    2.07    0.20
   4  -3  -4  107.18    1.41
   4  -3  -4  108.02    1.54
  -4   3   4  106.69    1.60
  -4   3   4  104.09    1.39
   3  -3  -4   24.74    0.44
   3  -3  -4   24.81    0.49
  -3   3   4   24.60    0.42
  -3   3   4   23.94    0.48
   2  -3  -4  142.50    1.94
   2  -3  -4  142.73    1.79
  -2   3   4  139.16    2.02
  -2   3   4  145.68    1.79
   1  -3  -4  313.41    3.99
  -1   3   4  310.08    4.49
  -1   3   4  313.66    3.91
   0  -3  -4    0.50    0.08
   0   3   4    0.63    0.08
   0   3   4    0.56    0.08
  -1  -3  -4    0.89    0.12
   1   3   4    0.88    0.11
   1   3   4    0.91    0.12
   1   3   4    0.96    0.12
  -2  -3  -4   33.27    0.51
   2   3   4   33.88    0.56
   2   3   4   32.38    0.50
   2   3   4   32.82    0.51
  -3  -3  -4  148.85    1.99
  -3  -3  -4  150.43    1.87
   3   3   4  148.44    1.86
   3   3   4  148.38    2.10
   3   3   4  147.80    1.90
   3   3   4  147.32    1.86
  -4  -3  -4  305.78    4.03
  -4  -3  -4  313.45    3.78
   4   3   4  310.77    4.25
   4   3   4  313.34    3.85
   4   3   4  310.08    4.02
  -5  -3  -4  240.46    2.99
  -5  -3  -4  239.16    3.18
   5   3   4  238.73    3.11
   5   3   4  243.05    2.99
   5   3   4  243.00    3.36
  -6  -3  -4   12.29    0.36
  -6  -3  -4   11.78    0.32
   6   3   4   12.14    0.35
   6   3   4   12.55    0.37
   6   3   4   12.19    0.30
  -7  -3  -4    0.64    0.12
   7   3   4    0.77    0.14
   7   3   4    0.59    0.14
   7   3   4    0.58    0.11
  -8  -3  -4   22.36    0.49
   8   3   4   23.16    0.52
   8   3   4   22.51    0.46
  -9  -3  -4    0.37    0.14
   9   3   4    0.56    0.13
   9   3   4    0.42    0.15
  10   3   4   37.06    0.75
  10   3   4   36.02    0.68
   8  -4  -4    7.98    0.35
   7  -4  -4    1.08    0.16
  -7   4   4    0.95    0.16
   6  -4  -4    0.07    0.12
  -6   4   4    0.05    0.11
   5  -4  -4   82.57    1.18
  -5   4   4   85.34    1.34
   4  -4  -4   51.52    0.89
   4  -4  -4   54.81    0.80
  -4   4   4   53.58    0.90
   3  -4  -4   13.66    0.32
   3  -4  -4   13.97    0.37
  -3   4   4   14.33    0.36
  -3   4   4   14.36    0.29
   2  -4  -4    6.36    0.25
   2  -4  -4    5.83    0.21
  -2   4   4    6.17    0.18
  -2   4   4    6.36    0.23
   1  -4  -4    8.26    0.22
  -1   4   4    8.57    0.20
  -1   4   4    8.16    0.24
   0  -4  -4  127.16    1.59
   0   4   4  127.08    1.56
   0   4   4  121.77    1.78
  -1  -4  -4  252.96    3.30
   1   4   4  252.19    3.14
   1   4   4  252.77    3.58
   1   4   4  251.07    3.18
  -2  -4  -4  191.02    2.31
   2   4   4  185.72    2.60
   2   4   4  182.40    2.29
   2   4   4  187.64    2.39
   2   4   4  184.06    2.29
   2   4   4  189.58    3.43
  -3  -4  -4    0.60    0.10
  -3  -4  -4    0.59    0.11
   3   4   4    0.44    0.09
   3   4   4    0.39    0.09
   3   4   4    0.40    0.09
  -4  -4  -4   29.17    0.54
  -4  -4  -4   30.27    0.51
   4   4   4   29.07    0.50
   4   4   4   29.83    0.51
   4   4   4   30.84    0.56
  -5  -4  -4   21.63    0.43
  -5  -4  -4   21.18    0.46
   5   4   4   21.30    0.42
   5   4   4   21.42    0.47
   5   4   4   21.56    0.41
  -6  -4  -4   38.54    0.65
  -6  -4  -4   38.25    0.70
   6   4   4   38.48    0.65
   6   4   4   37.56    0.63
   6   4   4   38.13    0.72
  -7  -4  -4   44.77    0.75
   7   4   4   44.53    0.75
   7   4   4   43.38    0.72
  -8  -4  -4   18.45    0.45
   8   4   4   18.79    0.46
   8   4   4   18.19    0.43
  -9  -4  -4    6.03    0.30
   9   4   4    5.67    0.27
   9   4   4    5.72    0.33
 -10  -4  -4   12.89    0.43
  10   4   4   13.90    0.41
  10   4   4   13.56    0.46
   7  -5  -4    7.12    0.32
  -7   5   4    7.20    0.35
   6  -5  -4    0.32    0.12
  -6   5   4    0.51    0.14
   5  -5  -4    2.71    0.22
  -5   5   4    2.93    0.23
   4  -5  -4   16.57    0.37
   4  -5  -4   17.06    0.44
  -4   5   4   17.03    0.42
   3  -5  -4   99.60    1.31
   3  -5  -4   99.63    1.45
  -3   5   4   97.42    1.48
   2  -5  -4  108.48    1.56
   2  -5  -4  110.53    1.42
  -2   5   4  109.48    1.61
   1  -5  -4   83.68    1.22
   1  -5  -4   83.65    1.10
   1  -5  -4   82.13    1.10
  -1   5   4   84.26    1.24
  -1   5   4   81.21    1.05
   0  -5  -4    0.85    0.12
   0  -5  -4    0.79    0.10
   0   5   4    0.90    0.11
   0   5   4    0.87    0.14
  -1  -5  -4   72.59    0.98
   1   5   4   72.44    1.04
   1   5   4   72.96    0.94
   1   5   4   71.07    1.09
   1   5   4   72.97    0.94
  -2  -5  -4    2.73    0.16
   2   5   4    2.67    0.14
   2   5   4    2.79    0.17
   2   5   4    2.75    0.18
   2   5   4    2.91    0.22
  -3  -5  -4  132.12    1.70
   3   5   4  129.28    1.67
   3   5   4  133.88    1.76
   3   5   4  136.00    2.50
   3   5   4  130.07    1.90
  -4  -5  -4   63.76    1.00
  -4  -5  -4   66.04    0.93
   4   5   4   65.39    0.96
   4   5   4   65.70    1.04
   4   5   4   63.54    0.91
   4   5   4   66.88    1.39
  -5  -5  -4    4.01    0.26
  -5  -5  -4    4.10    0.23
   5   5   4    4.00    0.24
   5   5   4    4.27    0.22
   5   5   4    5.11    0.47
   5   5   4    4.30    0.22
  -6  -5  -4    0.31    0.12
   6   5   4    0.29    0.12
   6   5   4    0.36    0.11
   6   5   4    0.18    0.11
  -7  -5  -4    6.97    0.29
   7   5   4    7.38    0.28
   7   5   4    7.73    0.29
  -8  -5  -4    1.84    0.24
   8   5   4    1.90    0.23
   8   5   4    1.90    0.22
  -9  -5  -4   42.93    0.79
   9   5   4   42.10    0.76
   9   5   4   41.84    0.78
 -10  -5  -4    4.45    0.31
  10   5   4    4.65    0.30
  10   5   4    4.05    0.34
   7  -6  -4    2.47    0.26
  -7   6   4    2.23    0.27
   6  -6  -4   41.06    0.71
  -6   6   4   41.14    0.81
   5  -6  -4   53.61    0.83
  -5   6   4   52.09    0.93
   4  -6  -4    0.27    0.10
  -4   6   4    0.21    0.10
   3  -6  -4    3.69    0.20
   3  -6  -4    3.55    0.24
  -3   6   4    3.53    0.21
   2  -6  -4    4.15    0.19
   2  -6  -4    4.55    0.28
   2  -6  -4    4.13    0.27
  -2   6   4    4.43    0.21
   1  -6  -4    6.33    0.28
   1  -6  -4    6.72    0.22
   1  -6  -4    6.84    0.27
  -1   6   4    6.64    0.24
   0  -6  -4  104.07    1.36
   0  -6  -4  102.85    1.35
   0   6   4  104.30    1.29
   0   6   4  105.47    1.53
   0   6   4  105.56    1.47
  -1  -6  -4    8.43    0.24
   1   6   4    7.98    0.25
   1   6   4    7.94    0.18
   1   6   4    8.40    0.29
  -2  -6  -4   17.94    0.36
   2   6   4   18.26    0.41
   2   6   4   18.41    0.47
   2   6   4   18.04    0.32
   2   6   4   17.80    0.39
  -3  -6  -4    2.22    0.18
   3   6   4    2.30    0.20
   3   6   4    2.24    0.16
   3   6   4    2.11    0.19
   3   6   4    1.92    0.30
  -4  -6  -4    3.97    0.24
  -4  -6  -4    4.16    0.22
   4   6   4    3.35    0.38
   4   6   4    4.44    0.24
   4   6   4    4.00    0.19
   4   6   4    4.12    0.23
  -5  -6  -4   16.39    0.39
  -5  -6  -4   16.54    0.42
   5   6   4   16.54    0.40
   5   6   4   16.22    0.42
   5   6   4   17.24    0.37
   5   6   4   15.84    0.62
  -6  -6  -4   42.35    0.72
   6   6   4   42.22    0.73
   6   6   4   42.73    0.81
   6   6   4   42.96    0.70
  -7  -6  -4    5.73    0.28
   7   6   4    5.46    0.27
   7   6   4    5.37    0.27
  -8  -6  -4    0.44    0.14
   8   6   4    0.31    0.13
   8   6   4    0.27    0.13
  -9  -6  -4    1.05    0.18
   9   6   4    0.90    0.17
   9   6   4    0.77    0.16
 -10  -6  -4    5.24    0.35
  10   6   4    6.19    0.34
   6  -7  -4    0.73    0.14
  -6   7   4    0.90    0.16
   5  -7  -4   23.60    0.48
  -5   7   4   23.34    0.54
   4  -7  -4  104.43    1.41
  -4   7   4  104.68    1.60
   3  -7  -4   16.39    0.36
  -3   7   4   16.70    0.40
   2  -7  -4   24.99    0.45
   2  -7  -4   26.20    0.63
   2  -7  -4   24.70    0.54
  -2   7   4   25.92    0.51
   1  -7  -4   17.31    0.35
   1  -7  -4   17.40    0.47
   1  -7  -4   17.12    0.42
  -1   7   4   17.90    0.39
   0  -7  -4   -0.02    0.10
   0  -7  -4    0.20    0.09
   0   7   4    0.16    0.09
   0   7   4    0.14    0.13
  -1  -7  -4  107.09    1.40
   1   7   4  108.46    1.58
   1   7   4  106.01    1.52
  -2  -7  -4   69.08    0.97
   2   7   4   67.51    1.05
   2   7   4   69.18    1.37
   2   7   4   69.06    1.08
  -3  -7  -4    6.74    0.25
   3   7   4    6.41    0.28
   3   7   4    6.47    0.26
   3   7   4    6.69    0.36
  -4  -7  -4    3.52    0.24
  -4  -7  -4    3.24    0.21
   4   7   4    2.53    0.36
   4   7   4    3.94    0.24
   4   7   4    3.88    0.23
  -5  -7  -4    0.38    0.12
   5   7   4    0.31    0.12
   5   7   4    0.30    0.13
  -6  -7  -4   14.99    0.39
   6   7   4   14.89    0.41
   6   7   4   15.15    0.44
  -7  -7  -4   28.01    0.58
   7   7   4   29.25    0.61
  -8  -7  -4   27.67    0.60
   8   7   4   27.43    0.61
  -9  -7  -4    6.62    0.36
   9   7   4    6.72    0.35
   5  -8  -4   10.86    0.33
  -5   8   4   10.79    0.37
   4  -8  -4    3.07    0.21
  -4   8   4    3.15    0.23
   3  -8  -4   22.88    0.44
  -3   8   4   21.69    0.49
   2  -8  -4   58.04    0.84
  -2   8   4   57.14    0.95
   1  -8  -4   67.93    1.09
   1  -8  -4   69.13    0.97
  -1   8   4   70.49    1.09
   0  -8  -4    1.17    0.16
   0   8   4    1.34    0.17
  -1  -8  -4   43.16    0.67
   1   8   4   43.98    0.78
   1   8   4   44.93    0.76
  -2  -8  -4    5.45    0.22
   2   8   4    5.55    0.25
   2   8   4    5.07    0.28
  -3  -8  -4   56.32    0.85
   3   8   4   57.74    0.95
   3   8   4   56.76    0.94
  -4  -8  -4  155.81    2.02
   4   8   4  154.00    2.13
   4   8   4  154.74    2.27
  -5  -8  -4   40.43    0.70
   5   8   4   41.82    0.79
   5   8   4   42.33    0.77
  -6  -8  -4    7.33    0.30
   6   8   4    7.20    0.33
   6   8   4    7.08    0.33
  -7  -8  -4    7.36    0.32
   7   8   4    7.19    0.33
  -8  -8  -4    0.17    0.14
   8   8   4    0.00    0.14
  -9  -8  -4   12.18    0.45
   9   8   4   12.43    0.45
   4  -9  -4   14.53    0.36
  -4   9   4   14.30    0.41
   3  -9  -4    0.22    0.10
  -3   9   4    0.19    0.11
   2  -9  -4    0.25    0.10
  -2   9   4    0.31    0.11
   1  -9  -4    4.43    0.21
  -1   9   4    4.49    0.23
   0  -9  -4   24.53    0.54
   0  -9  -4   25.20    0.46
   0   9   4   26.07    0.52
  -1  -9  -4  106.13    1.43
   1   9   4  109.39    1.60
   1   9   4  107.39    1.61
  -2  -9  -4   13.96    0.33
   2   9   4   14.23    0.43
   2   9   4   13.93    0.38
  -3  -9  -4   21.29    0.44
   3   9   4   21.80    0.49
   3   9   4   21.91    0.52
  -4  -9  -4    0.85    0.13
   4   9   4    0.76    0.14
   4   9   4    0.88    0.16
  -5  -9  -4   15.01    0.39
   5   9   4   14.55    0.44
   5   9   4   15.43    0.44
  -6  -9  -4   24.85    0.54
   6   9   4   25.40    0.61
   6   9   4   25.74    0.60
  -7  -9  -4    8.88    0.35
   7   9   4    9.11    0.39
  -8  -9  -4    3.90    0.31
   8   9   4    2.99    0.30
   3 -10  -4   34.34    0.60
  -3  10   4   35.59    0.68
   2 -10  -4    6.65    0.25
  -2  10   4    6.88    0.28
   1 -10  -4    2.23    0.19
  -1  10   4    2.27    0.21
   0 -10  -4    0.56    0.11
   0  10   4    0.57    0.12
  -1 -10  -4    2.59    0.19
   1  10   4    2.42    0.21
   1  10   4    2.37    0.28
  -2 -10  -4   33.38    0.58
   2  10   4   32.20    0.64
   2  10   4   33.00    0.70
  -3 -10  -4    6.70    0.26
   3  10   4    6.85    0.30
   3  10   4    6.86    0.34
  -4 -10  -4    0.04    0.11
   4  10   4   -0.01    0.11
   4  10   4   -0.06    0.14
  -5 -10  -4    1.00    0.15
   5  10   4    0.95    0.16
   5  10   4    0.93    0.18
  -6 -10  -4   -0.07    0.12
   6  10   4   -0.07    0.13
   6  10   4   -0.11    0.15
  -7 -10  -4    2.91    0.27
   7  10   4    2.88    0.31
   1 -11  -4   18.28    0.39
  -1  11   4   18.55    0.45
   0 -11  -4    7.37    0.26
   0  11   4    7.50    0.29
  -1 -11  -4    1.45    0.19
   1  11   4    1.24    0.21
   1  11   4    1.30    0.21
  -2 -11  -4    6.48    0.26
   2  11   4    6.48    0.30
   2  11   4    6.86    0.38
  -3 -11  -4    2.45    0.22
   3  11   4    2.40    0.25
   3  11   4    1.96    0.29
  -4 -11  -4    4.72    0.26
   4  11   4    4.50    0.29
   4  11   4    4.63    0.34
  -5 -11  -4   21.32    0.49
   5  11   4   20.60    0.58
   5  11   4   20.36    0.55
  -6 -11  -4   28.75    0.61
   6  11   4   28.84    0.70
   6  11   4   28.75    0.69
   4  10  -5    4.92    0.32
  -4 -10   5    4.66    0.26
   3  10  -5    8.37    0.52
   3  10  -5    8.48    0.35
  -3 -10   5    7.99    0.29
   2  10  -5    0.58    0.15
   2  10  -5    0.62    0.11
   2  10  -5    1.00    0.29
  -2 -10   5    0.56    0.11
   1  10  -5   18.79    0.41
   1  10  -5   19.27    0.69
  -1 -10   5   19.02    0.38
   0  10  -5   20.35    0.41
   0  10  -5   20.60    0.76
   0 -10   5   20.30    0.38
  -1  10  -5   12.07    0.28
  -1  10  -5   12.79    0.64
   6   9  -5    0.77    0.19
  -6  -9   5    0.54    0.15
   5   9  -5   12.46    0.43
  -5  -9   5   12.17    0.38
   4   9  -5   45.68    0.83
  -4  -9   5   44.13    0.75
   3   9  -5   28.61    0.73
   3   9  -5   25.85    0.57
  -3  -9   5   27.06    0.51
   2   9  -5    3.06    0.39
   2   9  -5    2.03    0.18
   2   9  -5    2.07    0.22
  -2  -9   5    2.19    0.18
   1   9  -5    2.34    0.22
   1   9  -5    3.87    0.44
   1   9  -5    2.60    0.17
  -1  -9   5    2.94    0.18
   0   9  -5    0.00    0.07
   0   9  -5    0.31    0.25
   0  -9   5   -0.01    0.08
  -1   9  -5   16.38    0.34
  -1   9  -5   17.39    0.67
   1  -9   5   16.80    0.31
  -2   9  -5   69.46    1.44
  -2   9  -5   65.63    1.00
  -3   9  -5   16.33    0.33
  -3   9  -5   18.23    0.72
   7   8  -5   17.77    0.53
  -7  -8   5   17.85    0.49
   6   8  -5    2.09    0.27
  -6  -8   5    1.78    0.24
   5   8  -5    0.45    0.15
  -5  -8   5    0.52    0.14
   4   8  -5    2.63    0.26
  -4  -8   5    2.65    0.21
   3   8  -5   10.34    0.46
   3   8  -5   10.09    0.34
  -3  -8   5   10.31    0.30
   2   8  -5   58.27    0.93
   2   8  -5   59.05    1.17
   2   8  -5   58.78    0.95
  -2  -8   5   58.34    1.56
  -2  -8   5   58.32    0.85
   1   8  -5   23.97    0.69
   1   8  -5   23.70    0.46
   1   8  -5   23.79    0.48
  -1  -8   5   22.91    0.92
  -1  -8   5   24.37    0.42
   0   8  -5    1.37    0.17
   0   8  -5    1.48    0.14
   0   8  -5    1.50    0.26
   0  -8   5    1.62    0.14
   0  -8   5    0.91    0.22
  -1   8  -5    1.62    0.27
  -1   8  -5    1.35    0.13
   1  -8   5    0.92    0.21
   1  -8   5    1.37    0.13
  -2   8  -5    0.33    0.25
  -2   8  -5    0.21    0.08
   2  -8   5    0.20    0.07
  -3   8  -5    6.40    0.51
  -3   8  -5    5.90    0.20
   3  -8   5    6.10    0.18
  -4   8  -5    8.16    0.55
   4  -8   5    8.26    0.22
  -5   8  -5    3.14    0.50
   5  -8   5    2.00    0.17
   7   7  -5    1.11    0.19
  -7  -7   5    0.83    0.17
   6   7  -5   30.92    0.65
  -6  -7   5   29.34    0.61
   5   7  -5   93.77    1.40
  -5  -7   5   91.48    1.33
   4   7  -5    9.35    0.38
   4   7  -5    8.44    0.33
  -4  -7   5    6.63    0.72
  -4  -7   5    8.38    0.29
   3   7  -5   22.07    0.57
   3   7  -5   20.34    0.46
   3   7  -5   20.13    0.45
  -3  -7   5   19.08    0.86
  -3  -7   5   20.81    0.42
   2   7  -5   12.68    0.34
   2   7  -5   12.41    0.32
   2   7  -5   13.56    0.46
  -2  -7   5   12.74    0.30
  -2  -7   5   12.35    0.71
   1   7  -5    2.75    0.34
   1   7  -5    2.96    0.17
   1   7  -5    2.75    0.19
  -1  -7   5    2.39    0.52
  -1  -7   5    2.77    0.16
   0   7  -5   32.48    0.55
   0   7  -5   31.56    0.78
   0   7  -5   31.55    0.54
   0  -7   5   32.74    1.02
   0  -7   5   31.97    0.50
  -1   7  -5   22.98    0.42
  -1   7  -5   22.01    0.42
  -1   7  -5   23.00    0.66
   1  -7   5   22.59    0.38
   1  -7   5   22.94    0.84
  -2   7  -5    0.44    0.08
  -2   7  -5    0.33    0.24
   2  -7   5    0.34    0.08
   2  -7   5    0.40    0.18
  -3   7  -5    4.74    0.44
  -3   7  -5    4.36    0.18
   3  -7   5    4.55    0.17
   3  -7   5    4.18    0.49
  -4   7  -5    3.12    0.43
  -4   7  -5    3.10    0.17
   4  -7   5    3.11    0.16
  -5   7  -5   18.56    0.70
   5  -7   5   19.03    0.37
  -6   7  -5   33.71    0.94
   6  -7   5   33.14    0.56
   8   6  -5   20.12    0.56
  -8  -6   5   20.36    0.55
   7   6  -5    0.58    0.17
  -7  -6   5    0.34    0.14
   6   6  -5   15.01    0.44
  -6  -6   5   16.03    0.43
   5   6  -5    3.46    0.26
  -5  -6   5    3.03    0.23
  -5  -6   5    2.74    0.62
   4   6  -5  100.85    1.65
   4   6  -5   98.78    1.44
  -4  -6   5  101.01    2.27
  -4  -6   5   99.77    1.38
   3   6  -5  173.73    2.74
   3   6  -5  173.85    2.30
   3   6  -5  172.82    2.48
  -3  -6   5  170.74    2.21
  -3  -6   5  176.13    3.53
   2   6  -5   20.69    0.43
   2   6  -5   20.22    0.42
   2   6  -5   20.61    0.55
  -2  -6   5   20.34    0.79
  -2  -6   5   19.68    0.39
   1   6  -5   19.31    0.39
   1   6  -5   19.38    0.39
   1   6  -5   18.79    0.54
  -1  -6   5   18.66    0.36
  -1  -6   5   19.07    0.77
   0   6  -5   31.89    0.75
   0   6  -5   31.36    0.54
   0   6  -5   31.42    0.52
   0  -6   5   32.59    0.98
   0  -6   5   32.22    0.50
  -1   6  -5    4.02    0.39
  -1   6  -5    4.47    0.17
  -1   6  -5    4.67    0.18
   1  -6   5    4.55    0.17
   1  -6   5    4.39    0.50
  -2   6  -5   80.14    1.18
  -2   6  -5   80.11    1.50
   2  -6   5   80.92    1.84
   2  -6   5   82.32    1.06
  -3   6  -5  186.55    2.55
  -3   6  -5  182.56    3.02
   3  -6   5  181.08    3.68
   3  -6   5  185.46    2.27
  -4   6  -5   20.20    0.66
  -4   6  -5   20.71    0.42
   4  -6   5   20.92    0.37
   4  -6   5   20.23    0.79
  -5   6  -5    9.10    0.50
   5  -6   5    8.69    0.25
  -6   6  -5    0.08    0.25
   6  -6   5    0.17    0.10
  -7   6  -5    1.61    0.31
   7  -6   5    1.06    0.15
   8   5  -5   15.27    0.49
  -8  -5   5   15.89    0.48
   7   5  -5   10.47    0.39
  -7  -5   5    9.78    0.38
   6   5  -5    7.34    0.33
  -6  -5   5    7.47    0.31
   5   5  -5    5.54    0.28
   5   5  -5    5.33    0.22
  -5  -5   5    5.55    0.23
  -5  -5   5    5.55    0.27
  -5  -5   5    6.66    0.61
   4   5  -5   27.02    0.46
   4   5  -5   28.02    0.57
   4   5  -5   26.92    0.54
  -4  -5   5   28.44    0.98
  -4  -5   5   26.57    0.51
   3   5  -5    6.38    0.25
   3   5  -5    6.38    0.26
   3   5  -5    5.93    0.32
   3   5  -5    6.38    0.17
  -3  -5   5    6.97    0.64
  -3  -5   5    5.97    0.23
   2   5  -5    4.96    0.21
   2   5  -5    4.75    0.22
   2   5  -5    4.51    0.33
  -2  -5   5    4.71    0.21
  -2  -5   5    5.51    0.57
   1   5  -5   58.86    0.92
   1   5  -5   59.19    0.85
   1   5  -5   58.10    1.10
  -1  -5   5   59.73    0.83
  -1  -5   5   60.11    1.43
  -1  -5   5   60.41    0.83
   0   5  -5   45.16    0.92
   0   5  -5   45.09    0.72
   0   5  -5   46.63    0.67
   0  -5   5   45.28    0.65
   0  -5   5   46.13    1.18
   0  -5   5   45.20    0.65
  -1   5  -5    2.75    0.37
  -1   5  -5    2.69    0.16
  -1   5  -5    2.54    0.14
   1  -5   5    2.62    0.14
   1  -5   5    3.06    0.44
   1  -5   5    2.50    0.15
  -2   5  -5    0.15    0.22
  -2   5  -5    0.31    0.08
   2  -5   5    0.17    0.16
   2  -5   5    0.18    0.08
  -3   5  -5    7.45    0.23
  -3   5  -5    7.42    0.41
   3  -5   5    7.59    0.53
   3  -5   5    7.61    0.21
  -4   5  -5   46.48    1.02
  -4   5  -5   48.65    0.78
   4  -5   5   47.33    0.69
   4  -5   5   48.42    0.73
  -5   5  -5   10.63    0.51
   5  -5   5   10.12    0.28
   5  -5   5   10.70    0.28
  -6   5  -5    0.45    0.24
   6  -5   5    0.28    0.11
  -7   5  -5    0.33    0.25
   7  -5   5    0.15    0.12
   9   4  -5    3.54    0.33
  -9  -4   5    3.47    0.33
   8   4  -5    2.62    0.26
   8   4  -5    2.81    0.30
  -8  -4   5    3.08    0.29
   7   4  -5    0.63    0.16
   7   4  -5    0.88    0.15
  -7  -4   5    0.72    0.16
   6   4  -5   14.18    0.38
   6   4  -5   13.23    0.36
   6   4  -5   13.35    0.41
  -6  -4   5   13.68    0.37
  -6  -4   5   14.01    0.39
   5   4  -5   60.00    0.96
   5   4  -5   61.29    0.90
   5   4  -5   59.20    0.91
  -5  -4   5   59.30    0.93
  -5  -4   5   61.13    0.92
   4   4  -5   62.62    1.05
   4   4  -5   61.48    0.95
   4   4  -5   61.77    0.90
   4   4  -5   62.38    0.89
  -4  -4   5   62.77    0.91
  -4  -4   5   62.00    1.54
  -4  -4   5   60.38    0.92
   3   4  -5   47.55    0.70
   3   4  -5   48.32    0.76
   3   4  -5   48.40    0.81
   3   4  -5   48.46    0.87
   3   4  -5   46.94    0.70
  -3  -4   5   48.44    1.24
  -3  -4   5   49.27    0.74
   2   4  -5   42.60    0.72
   2   4  -5   41.94    0.60
   2   4  -5   42.83    0.67
   2   4  -5   43.26    0.82
   2   4  -5   43.36    0.62
  -2  -4   5   43.31    1.11
  -2  -4   5   42.92    0.65
   1   4  -5   -0.02    0.06
   1   4  -5   -0.02    0.07
   1   4  -5    0.08    0.08
   1   4  -5   -0.07    0.16
  -1  -4   5    0.08    0.16
  -1  -4   5   -0.01    0.07
   0   4  -5   17.77    0.31
   0   4  -5   17.19    0.35
   0   4  -5   17.46    0.50
   0   4  -5   17.52    0.26
   0  -4   5   18.07    0.33
   0  -4   5   17.58    0.65
   0  -4   5   17.82    0.32
  -1   4  -5  188.85    2.62
  -1   4  -5  191.75    2.36
  -1   4  -5  187.62    2.99
   1  -4   5  190.31    2.32
   1  -4   5  190.32    3.68
   1  -4   5  189.39    2.33
  -2   4  -5   83.60    1.10
  -2   4  -5   84.26    1.47
  -2   4  -5   82.50    1.22
   2  -4   5   82.47    1.79
   2  -4   5   81.87    1.08
   2  -4   5   82.98    1.07
  -3   4  -5    1.74    0.16
  -3   4  -5    1.74    0.26
  -3   4  -5    1.72    0.15
   3  -4   5    1.72    0.15
  -4   4  -5    0.66    0.22
  -4   4  -5    0.72    0.10
  -4   4  -5    0.71    0.11
   4  -4   5    0.73    0.10
   4  -4   5    0.72    0.11
  -5   4  -5   21.86    0.44
  -5   4  -5   20.51    0.62
  -5   4  -5   21.75    0.46
   5  -4   5   20.80    0.41
   5  -4   5   20.97    0.41
   5  -4   5   22.10    0.44
  -6   4  -5   11.98    0.54
   6  -4   5   11.81    0.34
   6  -4   5   12.32    0.32
  -7   4  -5   25.64    0.73
   7  -4   5   25.51    0.51
  -8   4  -5    9.25    0.53
   8  -4   5    8.12    0.33
   9   3  -5   13.37    0.49
   9   3  -5   13.51    0.45
  -9  -3   5   14.60    0.47
   8   3  -5   32.59    0.71
   8   3  -5   33.89    0.68
  -8  -3   5   34.28    0.69
   7   3  -5   18.41    0.50
   7   3  -5   18.83    0.46
  -7  -3   5   18.13    0.48
   6   3  -5    5.76    0.27
   6   3  -5    5.42    0.30
   6   3  -5    5.86    0.27
  -6  -3   5    5.24    0.27
  -6  -3   5    5.89    0.27
   5   3  -5   10.67    0.35
   5   3  -5   11.51    0.32
   5   3  -5   10.65    0.31
  -5  -3   5   11.51    0.33
  -5  -3   5   10.94    0.32
   4   3  -5   23.51    0.45
   4   3  -5   23.52    0.45
   4   3  -5   23.70    0.49
   4   3  -5   23.94    0.50
  -4  -3   5   23.54    0.47
  -4  -3   5   23.70    0.86
  -4  -3   5   23.18    0.45
   3   3  -5  103.34    1.43
   3   3  -5  102.32    1.42
   3   3  -5  109.35    1.57
   3   3  -5  106.95    1.38
   3   3  -5  105.01    1.68
  -3  -3   5  103.13    1.39
  -3  -3   5  104.16    2.19
   2   3  -5   79.03    1.11
   2   3  -5   79.52    1.09
   2   3  -5   79.76    1.06
   2   3  -5   82.49    1.22
   2   3  -5   81.32    1.34
   2   3  -5   79.32    1.68
  -2  -3   5   79.90    1.09
  -2  -3   5   81.97    1.73
   1   3  -5   27.72    0.41
   1   3  -5   27.69    0.45
   1   3  -5   28.01    0.50
   1   3  -5   27.54    0.59
   1   3  -5   27.97    0.43
  -1  -3   5   27.91    0.79
  -1  -3   5   27.83    0.46
   0   3  -5   65.13    0.98
   0   3  -5   65.91    0.84
   0   3  -5   65.17    1.14
   0   3  -5   63.83    0.86
   0  -3   5   62.43    0.87
   0  -3   5   66.02    0.88
   0  -3   5   65.44    1.42
  -1   3  -5  112.89    1.63
  -1   3  -5  115.47    1.43
  -1   3  -5  112.83    1.48
  -1   3  -5  115.83    1.40
  -1   3  -5  114.72    1.88
   1  -3   5  114.44    2.30
   1  -3   5  115.34    1.46
   1  -3   5  114.57    1.44
  -2   3  -5   40.13    0.82
  -2   3  -5   39.21    0.51
  -2   3  -5   39.78    0.57
  -2   3  -5   38.59    0.65
   2  -3   5   39.85    1.00
   2  -3   5   39.14    0.58
   2  -3   5   39.50    0.57
  -3   3  -5   41.34    0.68
  -3   3  -5   41.72    0.63
  -3   3  -5   40.55    0.86
   3  -3   5   40.47    0.61
   3  -3   5   41.76    0.60
  -4   3  -5   26.72    0.69
  -4   3  -5   27.04    0.51
  -4   3  -5   27.85    0.49
   4  -3   5   27.13    0.46
   4  -3   5   27.25    0.48
  -5   3  -5    1.94    0.20
  -5   3  -5    2.14    0.34
  -5   3  -5    2.00    0.18
   5  -3   5    2.04    0.19
   5  -3   5    1.98    0.18
   5  -3   5    2.21    0.18
  -6   3  -5   35.21    0.83
  -6   3  -5   36.45    0.66
   6  -3   5   36.35    0.62
   6  -3   5   37.12    0.66
  -7   3  -5    0.88    0.25
   7  -3   5    0.77    0.14
  -8   3  -5   10.93    0.51
   8  -3   5   10.58    0.36
  -9   3  -5   24.23    0.71
   9  -3   5   20.64    0.53
   9   2  -5   11.67    0.47
   9   2  -5   11.86    0.43
  -9  -2   5   11.59    0.43
   8   2  -5    0.23    0.16
   8   2  -5    0.25    0.14
  -8  -2   5    0.26    0.14
   7   2  -5  106.20    1.60
   7   2  -5  108.99    1.52
  -7  -2   5  106.68    1.53
   6   2  -5  125.78    1.81
   6   2  -5  129.60    1.73
   6   2  -5  128.35    1.81
  -6  -2   5  128.77    1.75
   5   2  -5   12.84    0.35
   5   2  -5   13.17    0.38
   5   2  -5   13.28    0.36
  -5  -2   5   13.64    0.36
  -5  -2   5   13.04    0.35
   4   2  -5   34.08    0.59
   4   2  -5   34.60    0.58
   4   2  -5   34.57    0.62
  -4  -2   5   34.29    0.64
  -4  -2   5   34.89    0.60
  -4  -2   5   34.81    0.59
   3   2  -5   69.96    1.51
   3   2  -5   70.02    0.98
   3   2  -5   71.36    1.02
   3   2  -5   71.20    1.01
  -3  -2   5   68.88    1.09
  -3  -2   5   71.28    1.57
  -3  -2   5   72.28    1.00
   2   2  -5   33.95    0.83
   2   2  -5   33.52    0.54
   2   2  -5   34.13    0.59
   2   2  -5   33.57    0.52
   2   2  -5   33.09    0.52
  -2  -2   5   33.13    0.87
  -2  -2   5   33.65    0.54
   1   2  -5   77.68    1.15
   1   2  -5   78.49    1.58
   1   2  -5   75.41    1.01
   1   2  -5   76.92    1.04
   1   2  -5   77.34    1.03
  -1  -2   5   76.30    1.60
  -1  -2   5   75.17    1.03
   0   2  -5  144.27    1.84
   0   2  -5  149.68    2.06
   0   2  -5  147.59    1.81
   0  -2   5  143.07    2.81
   0  -2   5  146.44    1.83
  -1   2  -5    3.76    0.10
  -1   2  -5    3.69    0.13
  -1   2  -5    3.68    0.17
  -1   2  -5    3.39    0.13
   1  -2   5    3.66    0.14
   1  -2   5    3.86    0.16
   1  -2   5    3.63    0.33
  -2   2  -5   24.73    0.37
  -2   2  -5   24.50    0.45
  -2   2  -5   24.14    0.40
  -2   2  -5   24.89    0.58
   2  -2   5   24.27    0.41
   2  -2   5   23.90    0.39
  -3   2  -5   48.77    0.94
  -3   2  -5   48.18    0.65
  -3   2  -5   49.90    0.72
  -3   2  -5   48.97    0.78
   3  -2   5   48.06    0.72
   3  -2   5   48.32    0.70
  -4   2  -5   12.50    0.46
  -4   2  -5   12.43    0.32
  -4   2  -5   12.82    0.24
  -4   2  -5   13.00    0.31
   4  -2   5   12.75    0.29
   4  -2   5   12.40    0.30
  -5   2  -5   70.96    1.12
  -5   2  -5   72.35    1.06
  -5   2  -5   70.47    1.30
   5  -2   5   70.22    1.00
   5  -2   5   70.67    1.00
   5  -2   5   71.35    1.06
  -6   2  -5   97.64    1.71
  -6   2  -5  101.03    1.44
   6  -2   5   99.23    1.44
   6  -2   5   98.72    1.36
  -7   2  -5    0.56    0.22
   7  -2   5    0.39    0.13
  -8   2  -5    0.57    0.21
   8  -2   5    0.71    0.15
  -9   2  -5    3.99    0.40
   9  -2   5    3.46    0.29
   9   1  -5   12.91    0.45
   9   1  -5   13.01    0.49
   8   1  -5    0.50    0.16
   8   1  -5    0.36    0.17
  -8  -1   5    0.61    0.15
   7   1  -5   26.26    0.61
   7   1  -5   26.46    0.56
  -7  -1   5   26.28    0.56
   6   1  -5    0.79    0.14
   6   1  -5    0.82    0.17
   6   1  -5    0.90    0.15
  -6  -1   5    0.69    0.14
   5   1  -5   47.87    0.80
   5   1  -5   46.94    0.81
   5   1  -5   47.90    0.76
  -5  -1   5   47.46    0.80
  -5  -1   5   48.31    0.77
   4   1  -5   66.30    1.00
   4   1  -5   65.97    0.96
   4   1  -5   68.26    1.48
  -4  -1   5   66.48    1.00
  -4  -1   5   65.41    0.96
  -4  -1   5   66.36    1.07
   3   1  -5   49.07    0.76
   3   1  -5   49.63    0.82
   3   1  -5   49.86    0.73
   3   1  -5   49.87    1.11
  -3  -1   5   50.69    0.82
  -3  -1   5   48.58    0.74
  -3  -1   5   47.78    1.14
   2   1  -5    6.19    0.21
   2   1  -5    6.32    0.21
   2   1  -5    6.22    0.35
   2   1  -5    6.20    0.21
  -2  -1   5    6.38    0.41
  -2  -1   5    6.20    0.21
  -2  -1   5    6.21    0.21
   1   1  -5   14.15    0.31
   1   1  -5   14.31    0.45
   1   1  -5   13.23    0.28
   1   1  -5   14.02    0.29
  -1  -1   5   14.28    0.29
  -1  -1   5   13.95    0.31
   0   1  -5    5.65    0.18
   0   1  -5    5.97    0.20
   0  -1   5    5.76    0.33
   0  -1   5    5.90    0.19
  -1   1  -5  322.55    4.32
  -1   1  -5  307.84    3.93
   1  -1   5  309.85    6.05
   1  -1   5  317.52    4.06
  -2   1  -5  176.87    2.41
  -2   1  -5  171.55    2.24
  -2   1  -5  170.02    2.11
   2  -1   5  171.24    2.14
  -3   1  -5   49.88    0.69
  -3   1  -5   49.92    0.75
  -3   1  -5   51.85    0.81
   3  -1   5   50.52    0.72
  -4   1  -5    0.74    0.11
  -4   1  -5    0.92    0.20
  -4   1  -5    0.68    0.11
  -4   1  -5    0.86    0.12
   4  -1   5    0.57    0.10
  -5   1  -5   37.04    0.56
  -5   1  -5   37.15    0.65
  -5   1  -5   37.13    0.80
  -5   1  -5   37.35    0.68
   5  -1   5   37.46    0.61
   5  -1   5   38.24    0.61
   5  -1   5   37.51    0.65
  -6   1  -5   27.31    0.55
  -6   1  -5   27.27    0.66
   6  -1   5   26.71    0.51
   6  -1   5   28.08    0.55
  -7   1  -5  103.71    1.77
   7  -1   5  102.52    1.43
  -8   1  -5   19.88    0.57
   8  -1   5   19.78    0.47
   9  -1   5    0.27    0.15
   9   0  -5    4.10    0.33
   9   0  -5    3.83    0.37
   8   0  -5    7.34    0.34
   8   0  -5    7.19    0.38
   7   0  -5   13.69    0.40
   7   0  -5   13.82    0.45
  -7   0   5   13.41    0.39
   6   0  -5    0.29    0.12
  -6   0   5    0.28    0.12
   5   0  -5    0.17    0.12
   5   0  -5    0.14    0.13
  -5   0   5    0.01    0.11
  -5   0   5    0.03    0.14
  -5   0   5   -0.05    0.10
   4   0  -5    0.04    0.10
   4   0  -5   -0.08    0.11
   4   0  -5   -0.06    0.14
  -4   0   5    0.03    0.10
  -4   0   5   -0.05    0.09
   3   0  -5    8.05    0.25
   3   0  -5    7.76    0.40
   3   0  -5    7.42    0.25
  -3   0   5    7.94    0.25
  -3   0   5    8.19    0.26
   2   0  -5   77.17    1.05
   2   0  -5   77.49    1.18
   2   0  -5   77.76    1.11
   2   0  -5   77.94    1.55
  -2   0   5   77.91    1.06
  -2   0   5   78.04    1.18
  -2   0   5   78.74    1.57
   1   0  -5  118.15    1.69
   1   0  -5  116.29    1.50
   1   0  -5  116.79    2.23
  -1   0   5  121.13    1.69
  -1   0   5  115.86    1.51
  -1   0   5  116.47    2.24
   0   0  -5    6.44    0.19
   0   0  -5    6.60    0.21
   0   0   5    6.60    0.20
   0   0   5    6.27    0.19
   0   0   5    6.47    0.30
  -1   0  -5   12.85    0.26
  -1   0  -5   13.48    0.30
  -1   0  -5   13.02    0.22
   1   0   5   12.56    0.41
   1   0   5   12.44    0.29
   1   0   5   12.86    0.27
  -2   0  -5    0.08    0.06
  -2   0  -5    0.21    0.04
  -2   0  -5   -0.06    0.07
  -2   0  -5   -0.03    0.07
   2   0   5    0.01    0.07
   2   0   5    0.04    0.07
  -3   0  -5  108.12    1.46
  -3   0  -5  107.88    1.56
  -3   0  -5  104.28    1.36
   3   0   5  107.23    1.39
  -4   0  -5  138.39    1.97
  -4   0  -5  134.95    1.72
  -4   0  -5  136.06    1.85
   4   0   5  134.61    1.74
  -5   0  -5   29.23    0.48
  -5   0  -5   28.51    0.54
  -5   0  -5   28.39    0.66
   5   0   5   28.92    0.51
   5   0   5   28.69    0.51
   5   0   5   30.42    0.54
   5   0   5   28.71    0.41
  -6   0  -5   32.56    0.53
  -6   0  -5   31.55    0.60
  -6   0  -5   31.62    0.71
   6   0   5   31.87    0.57
   6   0   5   31.20    0.60
   6   0   5   31.67    0.47
  -7   0  -5   48.27    0.95
   7   0   5   48.33    0.79
   7   0   5   46.76    0.69
  -8   0  -5    4.40    0.35
   8   0   5    4.04    0.28
   9   0   5   16.94    0.47
  10   0   5   21.12    0.55
   9  -1  -5    0.07    0.20
   9  -1  -5    0.23    0.17
   8  -1  -5    6.97    0.40
   8  -1  -5    7.89    0.35
   7  -1  -5   10.88    0.37
   6  -1  -5  189.32    2.44
  -6   1   5  186.60    2.43
   5  -1  -5  117.34    1.57
   5  -1  -5  111.68    1.66
  -5   1   5  117.46    1.76
  -5   1   5  115.17    1.56
   4  -1  -5   41.49    0.73
   4  -1  -5   43.29    1.02
   4  -1  -5   43.07    0.69
  -4   1   5   42.89    0.77
  -4   1   5   42.06    0.68
   3  -1  -5    1.49    0.17
   3  -1  -5    1.19    0.19
  -3   1   5    1.12    0.16
  -3   1   5    1.15    0.16
   2  -1  -5   21.69    0.54
   2  -1  -5   21.32    0.39
   2  -1  -5   21.43    0.42
  -2   1   5   21.38    0.40
  -2   1   5   22.27    0.44
   1  -1  -5  309.62    3.93
   1  -1  -5  312.97    5.79
  -1   1   5  307.93    5.84
  -1   1   5  302.90    4.01
  -1   1   5  307.35    4.34
   0  -1  -5  183.12    2.28
   0  -1  -5  185.00    2.56
   0   1   5  186.89    2.57
   0   1   5  183.33    2.28
   0   1   5  182.56    3.49
  -1  -1  -5    0.30    0.08
  -1  -1  -5    0.33    0.08
   1   1   5    0.24    0.07
   1   1   5    0.12    0.07
   1   1   5    0.33    0.07
  -2  -1  -5   51.89    0.73
  -2  -1  -5   51.31    0.69
  -2  -1  -5   52.51    0.82
   2   1   5   51.34    0.81
   2   1   5   52.07    0.74
  -3  -1  -5   20.99    0.42
  -3  -1  -5   21.60    0.41
  -3  -1  -5   21.75    0.38
  -3  -1  -5   21.86    0.33
   3   1   5   21.39    0.33
   3   1   5   21.86    0.42
   3   1   5   21.90    0.39
  -4  -1  -5   25.27    0.44
  -4  -1  -5   26.05    0.48
  -4  -1  -5   25.61    0.38
   4   1   5   25.93    0.38
   4   1   5   25.14    0.48
   4   1   5   25.90    0.46
  -5  -1  -5   10.85    0.32
  -5  -1  -5   10.71    0.28
   5   1   5   10.70    0.30
   5   1   5   10.39    0.22
   5   1   5   10.83    0.30
  -6  -1  -5   24.88    0.53
  -6  -1  -5   24.81    0.61
  -6  -1  -5   25.30    0.47
   6   1   5   25.61    0.50
   6   1   5   25.28    0.41
   6   1   5   25.11    0.52
  -7  -1  -5   14.15    0.45
  -7  -1  -5   13.87    0.34
   7   1   5   14.13    0.29
   7   1   5   13.72    0.38
  -8  -1  -5    1.79    0.30
   8   1   5    1.74    0.19
   9   1   5    1.95    0.26
  10   1   5    2.65    0.30
   8  -2  -5    2.00    0.28
   7  -2  -5    8.43    0.33
   6  -2  -5    6.79    0.29
  -6   2   5    6.83    0.31
   5  -2  -5    2.75    0.22
   5  -2  -5    2.46    0.25
  -5   2   5    2.82    0.23
  -5   2   5    2.88    0.20
   4  -2  -5   18.18    0.40
   4  -2  -5   18.09    0.44
   4  -2  -5   18.53    0.62
  -4   2   5   17.75    0.38
  -4   2   5   17.98    0.44
   3  -2  -5  157.01    2.94
   3  -2  -5  151.99    2.13
   3  -2  -5  157.09    1.99
  -3   2   5  156.27    2.25
  -3   2   5  157.89    1.99
   2  -2  -5    1.24    0.23
   2  -2  -5    1.17    0.15
   2  -2  -5    1.23    0.17
  -2   2   5    1.62    0.16
  -2   2   5    1.45    0.14
   1  -2  -5  212.32    2.60
   1  -2  -5  209.67    3.91
  -1   2   5  211.71    2.93
  -1   2   5  207.67    2.60
   0  -2  -5    3.31    0.17
   0   2   5    3.42    0.16
   0   2   5    3.37    0.17
   0   2   5    3.69    0.19
  -1  -2  -5    1.25    0.14
   1   2   5    1.34    0.13
   1   2   5    1.37    0.16
   1   2   5    1.43    0.14
  -2  -2  -5   28.69    0.47
   2   2   5   27.97    0.44
   2   2   5   28.58    0.47
   2   2   5   29.06    0.52
  -3  -2  -5    4.38    0.20
  -3  -2  -5    4.83    0.20
  -3  -2  -5    4.83    0.19
   3   2   5    4.65    0.15
   3   2   5    4.88    0.19
   3   2   5    4.67    0.19
  -4  -2  -5    0.74    0.11
  -4  -2  -5    0.73    0.10
  -4  -2  -5    0.72    0.13
   4   2   5    0.82    0.11
   4   2   5    0.86    0.15
   4   2   5    0.99    0.11
  -5  -2  -5    0.32    0.09
  -5  -2  -5    0.42    0.13
   5   2   5    0.53    0.12
   5   2   5    0.49    0.11
   5   2   5    0.40    0.08
  -6  -2  -5   18.42    0.45
  -6  -2  -5   18.98    0.40
   6   2   5   18.28    0.35
   6   2   5   18.73    0.42
  -7  -2  -5   10.45    0.31
  -7  -2  -5   10.12    0.40
   7   2   5   10.40    0.26
   7   2   5   10.41    0.34
  -8  -2  -5   59.49    0.94
  -8  -2  -5   60.99    1.10
   8   2   5   59.24    0.97
   8   2   5   59.90    0.89
   9   2   5   14.78    0.45
  10   2   5    0.60    0.17
   8  -3  -5   27.17    0.61
   7  -3  -5   35.06    0.68
   6  -3  -5    8.26    0.32
  -6   3   5    9.06    0.36
   5  -3  -5    4.16    0.24
  -5   3   5    4.05    0.26
   4  -3  -5   -0.01    0.11
   4  -3  -5   -0.07    0.14
   4  -3  -5    0.05    0.13
  -4   3   5    0.21    0.09
  -4   3   5    0.12    0.10
   3  -3  -5    8.82    0.41
   3  -3  -5    8.86    0.31
   3  -3  -5    8.43    0.27
  -3   3   5    8.38    0.25
  -3   3   5    8.11    0.29
   2  -3  -5  111.19    1.58
   2  -3  -5  113.73    2.08
   2  -3  -5  110.81    1.46
  -2   3   5  112.80    1.45
  -2   3   5  110.40    1.65
   1  -3  -5  238.98    2.91
  -1   3   5  236.86    3.28
  -1   3   5  234.24    2.90
   0  -3  -5   38.70    0.58
   0   3   5   37.86    0.57
   0   3   5   37.61    0.65
  -1  -3  -5    0.06    0.07
   1   3   5    0.13    0.07
   1   3   5    0.13    0.07
  -2  -3  -5   13.15    0.29
   2   3   5   13.24    0.31
   2   3   5   13.00    0.28
   2   3   5   12.76    0.27
  -3  -3  -5   60.22    0.86
   3   3   5   61.61    0.96
   3   3   5   59.54    0.85
   3   3   5   60.84    0.85
  -4  -3  -5  480.47    6.52
  -4  -3  -5  502.25    6.05
   4   3   5  491.24    6.73
   4   3   5  483.54    5.98
   4   3   5  483.00    6.04
   4   3   5  481.93    6.29
  -5  -3  -5  228.81    2.85
  -5  -3  -5  229.37    3.04
   5   3   5  227.28    3.20
   5   3   5  223.19    2.87
   5   3   5  229.13    2.85
  -6  -3  -5    7.34    0.27
   6   3   5    7.26    0.29
   6   3   5    7.38    0.23
  -7  -3  -5   10.76    0.32
   7   3   5   10.65    0.29
   7   3   5   10.77    0.34
  -8  -3  -5    4.43    0.33
  -8  -3  -5    5.17    0.26
   8   3   5    5.30    0.23
   8   3   5    5.50    0.30
  -9  -3  -5   19.88    0.49
   9   3   5   20.64    0.45
   9   3   5   21.20    0.52
  10   3   5   45.46    0.87
   8  -4  -5    9.79    0.39
   7  -4  -5    0.86    0.16
   6  -4  -5    4.71    0.27
  -6   4   5    4.43    0.29
   5  -4  -5   87.12    1.25
  -5   4   5   88.49    1.41
   4  -4  -5   42.62    0.69
   4  -4  -5   43.63    0.98
   4  -4  -5   41.74    0.77
  -4   4   5   42.40    0.78
   3  -4  -5   19.87    0.41
   3  -4  -5   20.25    0.57
   3  -4  -5   19.68    0.47
  -3   4   5   20.01    0.46
  -3   4   5   20.06    0.38
   2  -4  -5   28.81    0.62
   2  -4  -5   28.30    0.56
   2  -4  -5   28.35    0.49
  -2   4   5   28.42    0.47
  -2   4   5   28.03    0.55
   1  -4  -5    2.84    0.18
  -1   4   5    2.53    0.19
  -1   4   5    2.91    0.16
   0  -4  -5  117.22    1.51
   0   4   5  115.83    1.69
   0   4   5  116.45    1.49
  -1  -4  -5  206.46    2.56
   1   4   5  205.71    2.65
   1   4   5  212.21    2.89
   1   4   5  203.55    2.55
  -2  -4  -5   40.55    0.62
   2   4   5   39.67    0.63
   2   4   5   40.21    0.61
   2   4   5   40.38    0.69
   2   4   5   41.06    0.81
  -3  -4  -5   14.98    0.33
   3   4   5   14.55    0.32
   3   4   5   15.36    0.36
   3   4   5   15.20    0.32
   3   4   5   15.48    0.32
  -4  -4  -5   48.42    0.80
  -4  -4  -5   49.29    0.75
   4   4   5   48.66    0.74
   4   4   5   48.88    0.74
   4   4   5   49.05    0.83
  -5  -4  -5   30.76    0.54
  -5  -4  -5   29.38    0.58
   5   4   5   29.85    0.54
   5   4   5   29.73    0.52
   5   4   5   30.55    0.60
  -6  -4  -5   72.71    1.07
   6   4   5   72.80    1.05
   6   4   5   73.04    1.06
  -7  -4  -5    8.76    0.31
   7   4   5    9.40    0.29
   7   4   5    9.31    0.33
  -8  -4  -5    5.08    0.28
   8   4   5    5.05    0.24
   8   4   5    4.46    0.29
  -9  -4  -5    3.30    0.27
   9   4   5    3.97    0.31
   9   4   5    3.67    0.24
  10   4   5    0.45    0.18
   7  -5  -5    5.96    0.31
  -7   5   5    5.92    0.34
   6  -5  -5    0.04    0.12
  -6   5   5    0.05    0.12
   5  -5  -5    2.26    0.22
  -5   5   5    2.18    0.23
   4  -5  -5   32.78    0.58
  -4   5   5   33.36    0.66
   3  -5  -5   47.45    0.74
   3  -5  -5   47.90    0.83
  -3   5   5   47.72    0.83
   2  -5  -5   51.72    0.77
   2  -5  -5   51.37    0.86
  -2   5   5   50.99    0.87
  -2   5   5   50.59    0.72
   1  -5  -5   17.24    0.36
  -1   5   5   17.16    0.40
  -1   5   5   17.36    0.32
   0  -5  -5    1.34    0.17
   0   5   5    1.11    0.13
   0   5   5    1.16    0.17
  -1  -5  -5   46.49    0.70
   1   5   5   46.84    0.79
   1   5   5   46.64    0.67
   1   5   5   48.05    0.75
  -2  -5  -5   18.20    0.37
   2   5   5   17.57    0.40
   2   5   5   17.68    0.39
   2   5   5   17.80    0.34
   2   5   5   17.56    0.34
   2   5   5   18.23    0.41
  -3  -5  -5   63.82    0.93
   3   5   5   65.07    1.04
   3   5   5   64.73    0.96
   3   5   5   64.94    0.91
   3   5   5   64.89    1.30
  -4  -5  -5   28.24    0.55
  -4  -5  -5   28.33    0.52
   4   5   5   28.64    0.52
   4   5   5   28.85    0.57
   4   5   5   28.09    0.50
   4   5   5   28.64    0.75
  -5  -5  -5   11.79    0.34
  -5  -5  -5   11.42    0.37
   5   5   5   11.52    0.32
   5   5   5   11.58    0.36
   5   5   5   12.10    0.33
  -6  -5  -5   -0.10    0.10
   6   5   5   -0.11    0.11
   6   5   5    0.12    0.10
  -7  -5  -5    0.63    0.14
   7   5   5    0.41    0.13
   7   5   5    0.74    0.13
  -8  -5  -5   12.23    0.39
   8   5   5   11.87    0.36
   8   5   5   12.81    0.39
  -9  -5  -5   31.81    0.67
   9   5   5   30.82    0.62
   9   5   5   31.84    0.67
 -10  -5  -5    7.56    0.37
  10   5   5    7.21    0.33
  10   5   5    7.45    0.39
   6  -6  -5   37.55    0.70
  -6   6   5   37.96    0.79
   5  -6  -5   13.99    0.38
  -5   6   5   14.46    0.43
   4  -6  -5   -0.12    0.10
  -4   6   5    0.02    0.10
   3  -6  -5    6.65    0.25
  -3   6   5    6.96    0.28
   2  -6  -5    1.25    0.16
   2  -6  -5    1.31    0.17
  -2   6   5    1.48    0.19
   1  -6  -5   28.58    0.50
   1  -6  -5   28.78    0.58
  -1   6   5   28.37    0.56
   0  -6  -5   41.23    0.65
   0   6   5   41.51    0.59
   0   6   5   40.63    0.72
  -1  -6  -5    1.94    0.18
   1   6   5    2.04    0.14
   1   6   5    2.26    0.14
   1   6   5    2.46    0.22
   1   6   5    1.79    0.19
  -2  -6  -5    1.30    0.17
   2   6   5    1.74    0.19
   2   6   5    1.70    0.19
   2   6   5    1.78    0.15
  -3  -6  -5    2.18    0.20
   3   6   5    2.40    0.17
   3   6   5    1.83    0.29
   3   6   5    2.12    0.21
   3   6   5    2.08    0.21
  -4  -6  -5    2.74    0.22
  -4  -6  -5    2.83    0.24
   4   6   5    2.10    0.36
   4   6   5    2.80    0.19
   4   6   5    2.76    0.21
   4   6   5    2.59    0.22
  -5  -6  -5   59.83    0.92
   5   6   5   59.55    0.89
   5   6   5   60.64    0.94
   5   6   5   58.80    1.02
   5   6   5   60.73    1.34
  -6  -6  -5   30.24    0.58
   6   6   5   29.61    0.56
   6   6   5   30.12    0.58
  -7  -6  -5    3.09    0.25
   7   6   5    2.97    0.24
   7   6   5    3.13    0.24
  -8  -6  -5    1.13    0.16
   8   6   5    0.99    0.16
   8   6   5    0.91    0.15
  -9  -6  -5    4.07    0.31
   9   6   5    3.57    0.30
   9   6   5    4.13    0.28
 -10  -6  -5    9.40    0.40
  10   6   5    9.80    0.38
   6  -7  -5    3.46    0.27
  -6   7   5    3.55    0.29
   5  -7  -5   39.46    0.69
  -5   7   5   38.99    0.78
   4  -7  -5   52.69    0.82
  -4   7   5   51.90    0.93
   3  -7  -5    1.36    0.20
  -3   7   5    1.58    0.21
   2  -7  -5   65.98    0.97
  -2   7   5   68.69    1.10
   1  -7  -5   32.17    0.64
   1  -7  -5   32.05    0.55
  -1   7   5   33.23    0.62
   0  -7  -5    7.71    0.25
   0   7   5    8.19    0.28
  -1  -7  -5   83.82    1.15
   1   7   5   83.46    1.29
   1   7   5   82.77    1.25
  -2  -7  -5   87.16    1.20
   2   7   5   86.09    1.28
   2   7   5   87.41    1.35
  -3  -7  -5    2.00    0.19
   3   7   5    1.80    0.21
   3   7   5    1.83    0.21
  -4  -7  -5   41.56    0.69
   4   7   5   42.50    0.77
   4   7   5   41.32    0.73
  -5  -7  -5    7.15    0.29
   5   7   5    7.47    0.31
   5   7   5    7.45    0.32
  -6  -7  -5   39.76    0.71
   6   7   5   39.20    0.72
  -7  -7  -5   46.37    0.82
   7   7   5   47.47    0.83
  -8  -7  -5   25.60    0.59
   8   7   5   25.56    0.58
  -9  -7  -5    0.04    0.15
   9   7   5   -0.11    0.14
   5  -8  -5    2.62    0.25
  -5   8   5    2.36    0.26
   4  -8  -5    3.40    0.24
  -4   8   5    3.51    0.26
   3  -8  -5   58.47    0.88
  -3   8   5   56.52    0.99
   2  -8  -5   64.36    0.95
  -2   8   5   66.01    1.08
   1  -8  -5    9.10    0.28
  -1   8   5    9.38    0.31
   0  -8  -5    0.84    0.12
   0   8   5    1.28    0.19
  -1  -8  -5    0.42    0.11
   1   8   5    0.43    0.11
   1   8   5    0.27    0.14
  -2  -8  -5   37.41    0.63
   2   8   5   36.58    0.71
   2   8   5   37.54    0.70
  -3  -8  -5  115.78    1.57
   3   8   5  115.02    1.68
   3   8   5  120.52    1.78
  -4  -8  -5  114.96    1.58
   4   8   5  116.37    1.67
   4   8   5  116.72    1.78
  -5  -8  -5    5.34    0.27
   5   8   5    5.28    0.29
   5   8   5    5.68    0.30
  -6  -8  -5   21.81    0.50
   6   8   5   21.27    0.52
   6   8   5   21.65    0.61
  -7  -8  -5   -0.12    0.12
   7   8   5    0.12    0.14
  -8  -8  -5   13.17    0.43
   8   8   5   12.96    0.43
  -9  -8  -5   33.60    0.73
   9   8   5   33.32    0.72
   4  -9  -5    3.19    0.24
  -4   9   5    3.04    0.26
   3  -9  -5   12.02    0.34
  -3   9   5   12.06    0.38
   2  -9  -5    6.79    0.26
  -2   9   5    6.25    0.29
   1  -9  -5    8.69    0.28
  -1   9   5    8.51    0.31
   0  -9  -5    8.43    0.28
   0   9   5    8.61    0.31
  -1  -9  -5   24.27    0.48
   1   9   5   25.09    0.59
   1   9   5   24.84    0.54
  -2  -9  -5    0.38    0.12
   2   9   5    0.25    0.15
   2   9   5    0.40    0.12
  -3  -9  -5    6.64    0.27
   3   9   5    7.20    0.33
   3   9   5    6.63    0.30
  -4  -9  -5    0.41    0.12
   4   9   5    0.20    0.15
   4   9   5    0.43    0.13
  -5  -9  -5    6.73    0.29
   5   9   5    6.58    0.32
   5   9   5    6.48    0.33
  -6  -9  -5    7.46    0.32
   6   9   5    7.63    0.35
  -7  -9  -5    4.88    0.30
   7   9   5    4.47    0.31
  -8  -9  -5    2.21    0.28
   8   9   5    1.97    0.29
   2 -10  -5    1.15    0.14
  -2  10   5    0.80    0.15
   1 -10  -5    0.71    0.13
  -1  10   5    0.54    0.13
   0 -10  -5    0.28    0.11
   0  10   5    0.27    0.12
  -1 -10  -5   18.94    0.42
   1  10   5   18.43    0.47
   1  10   5   18.97    0.54
  -2 -10  -5   71.03    1.05
   2  10   5   70.90    1.18
   2  10   5   72.08    1.20
  -3 -10  -5   13.32    0.37
   3  10   5   13.17    0.41
   3  10   5   14.06    0.46
  -4 -10  -5    0.25    0.12
   4  10   5    0.07    0.15
   4  10   5    0.02    0.13
  -5 -10  -5    0.14    0.13
   5  10   5    0.05    0.15
   5  10   5    0.18    0.14
  -6 -10  -5   -0.01    0.13
   6  10   5   -0.21    0.16
  -7 -10  -5    6.58    0.34
   7  10   5    6.53    0.37
   0 -11  -5    3.27    0.23
   0  11   5    3.54    0.26
  -1 -11  -5    6.79    0.28
   1  11   5    6.61    0.31
  -2 -11  -5    9.65    0.32
   2  11   5    9.63    0.36
   2  11   5    9.04    0.42
  -3 -11  -5   15.68    0.41
   3  11   5   15.10    0.50
   3  11   5   16.42    0.47
  -4 -11  -5   14.19    0.40
   4  11   5   14.14    0.49
   4  11   5   14.62    0.46
  -5 -11  -5    7.08    0.32
   5  11   5    6.85    0.39
   5  11   5    7.28    0.37
   2  10  -6    4.07    0.47
  -2 -10   6    3.16    0.22
   1  10  -6   21.22    0.74
   1  10  -6   19.64    0.45
  -1 -10   6   20.10    0.41
   5   9  -6    1.26    0.19
  -5  -9   6    0.90    0.16
   4   9  -6   20.52    0.53
  -4  -9   6   21.49    0.49
   3   9  -6   22.72    0.68
   3   9  -6   21.05    0.51
  -3  -9   6   21.99    0.47
   2   9  -6    3.59    0.44
  -2  -9   6    2.73    0.21
   1   9  -6   -0.02    0.09
   1   9  -6    0.30    0.25
  -1  -9   6    0.02    0.09
   0   9  -6    1.15    0.16
   0   9  -6    1.49    0.32
   0  -9   6    0.94    0.12
  -1   9  -6   40.13    1.02
  -1   9  -6   37.29    0.66
   1  -9   6   38.14    0.59
  -2   9  -6   45.08    1.11
  -2   9  -6   42.75    0.72
   6   8  -6    0.59    0.19
  -6  -8   6    0.46    0.15
   5   8  -6    0.16    0.15
  -5  -8   6    0.11    0.13
   4   8  -6    5.12    0.29
  -4  -8   6    4.29    0.26
   3   8  -6   20.90    0.49
   3   8  -6   21.54    0.63
  -3  -8   6   21.17    0.45
   2   8  -6   48.37    0.87
   2   8  -6   49.44    0.82
   2   8  -6   51.21    1.06
  -2  -8   6   50.47    0.78
   1   8  -6    3.06    0.19
   1   8  -6    3.59    0.39
   1   8  -6    2.95    0.22
  -1  -8   6    3.29    0.20
   0   8  -6    7.68    0.25
   0   8  -6    7.46    0.47
   0  -8   6    7.79    0.24
  -1   8  -6    2.43    0.17
  -1   8  -6    3.13    0.42
   1  -8   6    2.32    0.16
  -2   8  -6    5.44    0.49
  -2   8  -6    5.33    0.21
   2  -8   6    5.48    0.20
  -3   8  -6   20.98    0.74
  -3   8  -6   20.56    0.43
   3  -8   6   21.68    0.38
  -4   8  -6   15.20    0.36
  -4   8  -6   15.18    0.68
   4  -8   6   15.44    0.32
   7   7  -6   16.25    0.50
  -7  -7   6   15.40    0.48
   6   7  -6   37.90    0.76
  -6  -7   6   36.79    0.72
   5   7  -6   26.34    0.58
  -5  -7   6   25.35    0.55
   4   7  -6    0.10    0.13
  -4  -7   6    0.23    0.12
   3   7  -6   19.05    0.55
   3   7  -6   18.45    0.43
  -3  -7   6   18.46    0.41
  -3  -7   6   17.40    0.84
   2   7  -6    7.59    0.27
   2   7  -6    7.18    0.27
   2   7  -6    7.63    0.42
  -2  -7   6    7.47    0.26
  -2  -7   6    6.55    0.65
   1   7  -6   49.99    0.78
   1   7  -6   48.92    0.83
   1   7  -6   48.76    1.03
  -1  -7   6   50.97    0.75
  -1  -7   6   48.86    1.37
   0   7  -6   42.69    0.96
   0   7  -6   40.48    0.71
   0  -7   6   42.26    0.65
   0  -7   6   42.63    1.23
  -1   7  -6    6.88    0.23
  -1   7  -6    7.03    0.46
   1  -7   6    7.08    0.22
   1  -7   6    6.47    0.59
  -2   7  -6    0.15    0.24
  -2   7  -6   -0.03    0.08
   2  -7   6   -0.05    0.18
   2  -7   6    0.00    0.08
  -3   7  -6   21.16    0.43
  -3   7  -6   21.14    0.70
   3  -7   6   21.89    0.39
  -4   7  -6    0.78    0.28
  -4   7  -6    0.53    0.10
   4  -7   6    0.57    0.10
  -5   7  -6   12.10    0.62
   5  -7   6   11.85    0.31
   7   6  -6    0.39    0.16
  -7  -6   6    0.28    0.15
   6   6  -6    0.13    0.15
  -6  -6   6    0.14    0.13
   5   6  -6    2.78    0.26
  -5  -6   6    2.96    0.24
   4   6  -6   15.64    0.42
   4   6  -6   16.56    0.47
  -4  -6   6   15.38    0.40
  -4  -6   6   14.81    0.83
   3   6  -6   55.93    1.04
   3   6  -6   55.95    0.88
  -3  -6   6   55.24    0.85
  -3  -6   6   53.57    1.47
   2   6  -6    4.83    0.23
   2   6  -6    4.74    0.23
   2   6  -6    5.17    0.35
  -2  -6   6    4.74    0.54
  -2  -6   6    5.37    0.23
   1   6  -6    7.65    0.25
   1   6  -6    7.75    0.39
   1   6  -6    8.15    0.26
  -1  -6   6    7.42    0.60
  -1  -6   6    7.41    0.24
   0   6  -6    0.17    0.08
   0   6  -6    0.02    0.20
   0   6  -6    0.17    0.08
   0  -6   6    0.12    0.09
   0  -6   6    0.00    0.17
  -1   6  -6    1.53    0.15
  -1   6  -6    1.42    0.25
   1  -6   6    1.39    0.15
   1  -6   6    1.01    0.20
  -2   6  -6  107.85    1.57
  -2   6  -6  110.47    1.91
   2  -6   6  107.46    1.40
   2  -6   6  104.43    2.33
  -3   6  -6  142.87    2.05
  -3   6  -6  144.86    2.46
   3  -6   6  146.23    1.83
   3  -6   6  140.63    3.01
  -4   6  -6    0.74    0.26
  -4   6  -6    0.44    0.10
   4  -6   6    0.57    0.10
  -5   6  -6   11.77    0.34
  -5   6  -6   11.95    0.58
   5  -6   6   12.20    0.31
   5  -6   6   12.07    0.31
  -6   6  -6    1.02    0.29
   6  -6   6    0.80    0.13
   8   5  -6    2.24    0.32
  -8  -5   6    1.80    0.22
   7   5  -6    9.78    0.40
  -7  -5   6    8.65    0.38
   6   5  -6   12.79    0.41
  -6  -5   6   12.91    0.40
   5   5  -6    7.11    0.31
  -5  -5   6    7.45    0.64
  -5  -5   6    7.47    0.31
   4   5  -6   12.16    0.35
   4   5  -6   12.28    0.38
  -4  -5   6   12.31    0.35
  -4  -5   6   11.82    0.75
   3   5  -6   33.50    0.70
   3   5  -6   33.84    0.60
  -3  -5   6   33.03    0.58
  -3  -5   6   32.60    1.06
   2   5  -6   38.78    0.64
   2   5  -6   38.99    0.70
   2   5  -6   39.70    0.81
  -2  -5   6   39.69    1.13
  -2  -5   6   38.49    0.63
   1   5  -6    5.75    0.36
   1   5  -6    5.64    0.21
   1   5  -6    5.37    0.22
  -1  -5   6    5.72    0.22
  -1  -5   6    5.26    0.52
   0   5  -6   10.53    0.46
   0   5  -6   10.75    0.25
   0   5  -6   10.99    0.29
   0  -5   6   10.93    0.28
   0  -5   6   10.38    0.62
  -1   5  -6    0.65    0.08
  -1   5  -6    0.58    0.10
  -1   5  -6    0.55    0.22
   1  -5   6    0.63    0.10
   1  -5   6    0.45    0.18
  -2   5  -6    2.04    0.34
  -2   5  -6    2.22    0.17
   2  -5   6    2.09    0.16
   2  -5   6    2.24    0.45
  -3   5  -6   29.97    0.77
  -3   5  -6   30.93    0.56
   3  -5   6   27.83    0.91
   3  -5   6   30.16    0.49
  -4   5  -6   94.08    1.71
  -4   5  -6   94.73    1.41
   4  -5   6   89.37    2.08
   4  -5   6   94.39    1.25
  -5   5  -6    9.29    0.50
  -5   5  -6    8.79    0.30
   5  -5   6    9.06    0.28
  -6   5  -6    7.37    0.52
   6  -5   6    7.72    0.28
  -7   5  -6    3.31    0.47
   7  -5   6    3.00    0.24
   8   4  -6    0.22    0.17
  -8  -4   6    0.17    0.15
   7   4  -6    0.32    0.16
  -7  -4   6    0.17    0.13
   6   4  -6   17.91    0.42
   6   4  -6   18.03    0.48
   6   4  -6   18.28    0.45
  -6  -4   6   18.15    0.47
   5   4  -6  112.09    1.57
   5   4  -6  110.68    1.60
   5   4  -6  112.95    1.53
  -5  -4   6  112.47    1.56
   4   4  -6   18.46    0.44
   4   4  -6   19.99    0.39
   4   4  -6   19.89    0.47
   4   4  -6   19.93    0.41
  -4  -4   6   19.13    0.43
  -4  -4   6   19.25    0.84
   3   4  -6   21.55    0.52
   3   4  -6   21.22    0.44
   3   4  -6   20.18    0.37
   3   4  -6   20.80    0.40
  -3  -4   6   20.84    0.44
  -3  -4   6   21.00    0.84
   2   4  -6   13.51    0.32
   2   4  -6   13.50    0.26
   2   4  -6   13.58    0.35
   2   4  -6   13.56    0.29
   2   4  -6   13.59    0.45
  -2  -4   6   13.49    0.33
  -2  -4   6   13.78    0.67
   1   4  -6   43.64    0.66
   1   4  -6   43.10    0.62
   1   4  -6   43.16    0.74
   1   4  -6   43.35    0.88
  -1  -4   6   43.80    1.15
  -1  -4   6   44.87    0.68
   0   4  -6  106.46    1.32
   0   4  -6  103.35    1.54
   0   4  -6  103.21    1.37
   0   4  -6  104.90    1.78
   0  -4   6  108.38    2.23
   0  -4   6  105.71    1.38
  -1   4  -6  100.38    1.28
  -1   4  -6   98.23    1.47
  -1   4  -6  101.19    1.73
   1  -4   6  101.58    1.32
   1  -4   6  101.34    2.13
  -2   4  -6   12.09    0.50
  -2   4  -6   12.26    0.24
  -2   4  -6   12.40    0.31
   2  -4   6   12.68    0.62
   2  -4   6   12.09    0.29
  -3   4  -6    2.24    0.36
  -3   4  -6    1.76    0.17
  -3   4  -6    1.98    0.15
   3  -4   6    1.91    0.17
   3  -4   6    2.07    0.44
  -4   4  -6    2.68    0.35
  -4   4  -6    2.53    0.19
  -4   4  -6    2.65    0.19
   4  -4   6    2.90    0.19
  -5   4  -6    5.87    0.26
  -5   4  -6    6.04    0.44
   5  -4   6    6.03    0.24
  -6   4  -6    3.52    0.44
   6  -4   6    3.27    0.22
  -7   4  -6   24.42    0.74
   7  -4   6   24.15    0.51
  -8   4  -6   11.61    0.58
   8  -4   6   11.28    0.38
   8   3  -6   22.09    0.55
   8   3  -6   21.29    0.58
  -8  -3   6   22.84    0.57
   7   3  -6   10.04    0.36
   7   3  -6   10.30    0.40
  -7  -3   6   10.11    0.37
   6   3  -6    0.48    0.14
   6   3  -6    0.63    0.14
   6   3  -6    0.47    0.16
  -6  -3   6    0.25    0.13
   5   3  -6    4.40    0.24
   5   3  -6    3.87    0.23
   5   3  -6    3.63    0.26
  -5  -3   6    3.64    0.24
   4   3  -6   68.08    1.16
   4   3  -6   68.14    0.99
   4   3  -6   67.59    1.04
   4   3  -6   69.27    1.01
  -4  -3   6   68.18    1.02
  -4  -3   6   67.60    1.62
   3   3  -6   43.26    0.67
   3   3  -6   41.69    0.70
   3   3  -6   42.86    0.82
   3   3  -6   42.49    0.66
  -3  -3   6   43.80    0.70
  -3  -3   6   42.95    1.17
   2   3  -6   32.65    0.56
   2   3  -6   32.34    0.52
   2   3  -6   32.85    0.53
   2   3  -6   33.36    0.70
   2   3  -6   33.14    0.61
  -2  -3   6   33.94    0.97
  -2  -3   6   32.85    0.56
   1   3  -6   22.97    0.40
   1   3  -6   22.88    0.47
   1   3  -6   22.99    0.38
   1   3  -6   23.43    0.57
   1   3  -6   22.87    0.41
  -1  -3   6   24.48    0.77
  -1  -3   6   22.87    0.43
   0   3  -6   84.04    1.08
   0   3  -6   81.01    1.10
   0   3  -6   84.03    1.45
   0   3  -6   84.17    1.26
   0  -3   6   84.69    1.79
   0  -3   6   84.12    1.13
  -1   3  -6    0.02    0.06
  -1   3  -6   -0.16    0.07
  -1   3  -6   -0.11    0.08
  -1   3  -6   -0.17    0.19
  -1   3  -6    0.01    0.05
   1  -3   6   -0.06    0.14
   1  -3   6   -0.01    0.09
  -2   3  -6   42.71    0.58
  -2   3  -6   43.50    0.63
  -2   3  -6   43.38    0.73
  -2   3  -6   42.43    0.90
   2  -3   6   43.01    0.65
   2  -3   6   42.80    1.10
  -3   3  -6   17.05    0.34
  -3   3  -6   16.54    0.38
   3  -3   6   16.88    0.35
  -4   3  -6   26.99    0.48
  -4   3  -6   26.31    0.68
  -4   3  -6   25.73    0.52
   4  -3   6   26.40    0.47
  -5   3  -6    1.33    0.15
  -5   3  -6    1.32    0.24
  -5   3  -6    1.07    0.18
   5  -3   6    1.18    0.13
  -6   3  -6    7.76    0.47
  -6   3  -6    7.08    0.29
   6  -3   6    7.53    0.28
   6  -3   6    7.49    0.28
  -7   3  -6    2.70    0.40
   7  -3   6    2.77    0.24
  -8   3  -6   16.67    0.63
   8  -3   6   15.84    0.44
   8   2  -6    7.54    0.39
   8   2  -6    7.51    0.36
  -8  -2   6    7.73    0.37
   7   2  -6   59.23    1.03
   7   2  -6   59.10    0.97
  -7  -2   6   58.18    0.98
   6   2  -6   48.37    0.81
   6   2  -6   48.45    0.86
   6   2  -6   48.28    0.84
  -6  -2   6   47.55    0.82
   5   2  -6    0.39    0.12
   5   2  -6    0.32    0.14
   5   2  -6    0.05    0.12
  -5  -2   6    0.31    0.12
   4   2  -6   32.51    0.58
   4   2  -6   33.36    0.58
   4   2  -6   31.54    0.61
  -4  -2   6   32.45    0.59
   3   2  -6    4.88    0.22
   3   2  -6    4.60    0.23
   3   2  -6    4.77    0.25
  -3  -2   6    4.84    0.53
  -3  -2   6    4.82    0.24
   2   2  -6   16.64    0.36
   2   2  -6   16.48    0.57
   2   2  -6   16.98    0.39
   2   2  -6   16.68    0.35
   2   2  -6   17.09    0.34
  -2  -2   6   16.42    0.65
  -2  -2   6   16.86    0.36
   1   2  -6  184.46    2.28
   1   2  -6  180.74    2.58
   1   2  -6  183.48    2.33
   1   2  -6  186.36    3.50
   1   2  -6  184.86    2.39
  -1  -2   6  182.28    2.31
  -1  -2   6  181.92    3.52
   0   2  -6  116.42    1.66
   0   2  -6  111.79    1.46
   0   2  -6  114.21    1.45
   0  -2   6  114.44    1.48
   0  -2   6  112.59    2.28
  -1   2  -6   35.04    0.53
  -1   2  -6   35.57    0.49
  -1   2  -6   35.71    0.54
  -1   2  -6   36.91    0.63
   1  -2   6   35.72    0.56
   1  -2   6   35.64    0.91
  -2   2  -6   73.18    1.01
  -2   2  -6   74.10    1.31
  -2   2  -6   72.10    1.12
  -2   2  -6   73.39    0.95
   2  -2   6   71.81    1.57
   2  -2   6   71.76    1.00
  -3   2  -6    5.26    0.39
  -3   2  -6    5.56    0.21
  -3   2  -6    5.27    0.22
  -3   2  -6    5.34    0.17
   3  -2   6    5.41    0.22
  -4   2  -6   75.96    1.38
  -4   2  -6   74.92    1.18
  -4   2  -6   74.52    1.00
  -4   2  -6   75.32    1.09
   4  -2   6   75.76    1.05
  -5   2  -6  104.18    1.81
  -5   2  -6  105.41    1.59
  -5   2  -6  107.58    1.49
   5  -2   6  100.89    1.40
  -6   2  -6   27.47    0.71
  -6   2  -6   28.83    0.57
   6  -2   6   27.88    0.55
   6  -2   6   27.90    0.53
   6  -2   6   28.41    0.53
  -7   2  -6    1.41    0.26
   7  -2   6    1.47    0.21
  -8   2  -6    2.53    0.40
   8  -2   6    2.05    0.25
  -9   2  -6    4.63    0.46
   9  -2   6    3.43    0.30
   8   1  -6    0.03    0.18
   8   1  -6    0.03    0.15
  -8  -1   6   -0.05    0.14
   7   1  -6    0.87    0.19
   7   1  -6    0.78    0.16
  -7  -1   6    0.90    0.16
   6   1  -6    6.19    0.30
   6   1  -6    6.22    0.34
  -6  -1   6    6.21    0.30
   5   1  -6   49.38    0.84
   5   1  -6   48.52    0.83
   5   1  -6   49.29    0.80
  -5  -1   6   48.70    0.80
   4   1  -6   39.60    0.69
   4   1  -6   38.93    0.66
  -4  -1   6   39.90    0.67
   3   1  -6    0.63    0.13
   3   1  -6    0.56    0.11
   3   1  -6    0.30    0.13
  -3  -1   6    0.49    0.18
  -3  -1   6    0.74    0.11
  -3  -1   6    0.54    0.11
   2   1  -6   59.73    0.89
   2   1  -6   59.98    1.29
   2   1  -6   60.56    0.96
   2   1  -6   59.12    0.86
  -2  -1   6   61.53    0.88
  -2  -1   6   58.72    1.32
  -2  -1   6   58.96    0.96
   1   1  -6    4.61    0.20
   1   1  -6    4.61    0.34
   1   1  -6    4.98    0.19
  -1  -1   6    4.63    0.20
  -1  -1   6    4.40    0.38
  -1  -1   6    4.78    0.21
   0   1  -6  111.20    1.59
   0   1  -6  106.81    1.40
   0  -1   6  107.00    2.14
   0  -1   6  109.24    1.42
  -1   1  -6  412.95    5.26
  -1   1  -6  424.25    5.74
   1  -1   6  413.02    5.39
   1  -1   6  408.37    8.12
  -2   1  -6  146.07    2.06
  -2   1  -6  144.47    1.81
  -2   1  -6  143.81    1.91
   2  -1   6  142.94    1.84
  -3   1  -6    0.51    0.10
  -3   1  -6    0.63    0.11
  -3   1  -6    0.67    0.09
   3  -1   6    0.57    0.11
  -4   1  -6   21.72    0.60
  -4   1  -6   21.23    0.38
  -4   1  -6   21.42    0.43
  -4   1  -6   22.08    0.47
   4  -1   6   22.00    0.42
  -5   1  -6   10.30    0.46
  -5   1  -6   10.43    0.32
  -5   1  -6   10.13    0.32
  -5   1  -6    9.99    0.25
   5  -1   6   10.13    0.30
  -6   1  -6   86.11    1.29
  -6   1  -6   83.50    1.51
   6  -1   6   84.29    1.20
   6  -1   6   83.80    1.20
  -7   1  -6   62.35    1.21
   7  -1   6   63.68    0.98
  -8   1  -6    8.41    0.44
   8  -1   6    7.65    0.33
  -9   1  -6    0.70    0.23
   9  -1   6    0.20    0.15
   8   0  -6    6.13    0.39
   8   0  -6    7.30    0.36
   7   0  -6    3.02    0.32
   7   0  -6    2.94    0.28
  -7   0   6    3.12    0.25
   6   0  -6    0.57    0.15
  -6   0   6    0.37    0.13
   5   0  -6    2.50    0.24
   5   0  -6    2.88    0.24
  -5   0   6    3.26    0.22
   4   0  -6    3.01    0.42
   4   0  -6    2.66    0.24
   4   0  -6    2.82    0.22
  -4   0   6    3.15    0.23
  -4   0   6    3.05    0.22
   3   0  -6   50.83    1.13
   3   0  -6   49.52    0.80
   3   0  -6   49.78    0.77
  -3   0   6   49.78    0.77
  -3   0   6   50.15    0.86
   2   0  -6   84.78    1.17
   2   0  -6   85.25    1.23
   2   0  -6   87.69    1.72
  -2   0   6   86.26    1.31
  -2   0   6   86.12    1.18
  -2   0   6   86.30    1.75
   1   0  -6   27.00    0.66
   1   0  -6   27.07    0.51
   1   0  -6   25.71    0.46
  -1   0   6   26.86    0.70
  -1   0   6   27.02    0.51
  -1   0   6   26.60    0.47
   0   0  -6   63.03    0.99
   0   0  -6   62.79    0.88
   0   0   6   62.81    1.30
   0   0   6   62.55    0.89
   0   0   6   63.14    0.98
  -1   0  -6   13.13    0.29
   1   0   6   13.02    0.30
   1   0   6   13.04    0.31
   1   0   6   13.41    0.45
  -2   0  -6    9.55    0.24
  -2   0  -6    9.32    0.27
  -2   0  -6    9.58    0.17
   2   0   6    8.91    0.25
  -3   0  -6   54.76    0.90
  -3   0  -6   55.07    0.78
  -3   0  -6   54.78    0.83
   3   0   6   55.43    0.81
  -4   0  -6   31.81    0.57
  -4   0  -6   31.72    0.61
  -4   0  -6   32.74    0.52
   4   0   6   31.83    0.55
  -5   0  -6   15.18    0.38
  -5   0  -6   15.21    0.52
  -5   0  -6   15.26    0.43
  -5   0  -6   15.06    0.33
   5   0   6   14.74    0.36
  -6   0  -6    0.54    0.10
  -6   0  -6    0.29    0.20
   6   0   6    0.20    0.12
  -7   0  -6    2.08    0.35
   7   0   6    2.16    0.24
  -8   0  -6    0.09    0.19
   8   0   6   -0.04    0.13
   9   0   6   10.97    0.40
   8  -1  -6    6.22    0.35
   8  -1  -6    4.90    0.42
   7  -1  -6   29.79    0.63
   6  -1  -6   89.23    1.30
  -6   1   6   87.85    1.29
   5  -1  -6   25.75    0.52
   5  -1  -6   24.61    0.55
  -5   1   6   25.11    0.51
   4  -1  -6    0.41    0.14
   4  -1  -6    0.23    0.15
   4  -1  -6    0.51    0.13
  -4   1   6    0.58    0.12
  -4   1   6    0.54    0.13
   3  -1  -6    0.75    0.14
   3  -1  -6    0.77    0.12
   3  -1  -6    0.56    0.13
  -3   1   6    0.83    0.12
  -3   1   6    1.02    0.18
   2  -1  -6   27.29    0.52
   2  -1  -6   27.39    0.49
   2  -1  -6   27.31    0.66
  -2   1   6   27.49    0.54
  -2   1   6   27.06    0.49
   1  -1  -6   55.44    0.80
   1  -1  -6   55.66    1.13
  -1   1   6   55.10    0.81
  -1   1   6   56.19    0.90
  -1   1   6   54.81    1.14
   0  -1  -6  177.04    2.22
   0  -1  -6  176.13    2.51
   0   1   6  178.67    2.50
   0   1   6  178.22    2.23
   0   1   6  177.28    3.28
  -1  -1  -6   92.35    1.23
  -1  -1  -6   93.92    1.39
   1   1   6   93.23    1.80
   1   1   6   92.38    1.25
   1   1   6   95.03    1.39
  -2  -1  -6   29.38    0.55
  -2  -1  -6   29.43    0.49
   2   1   6   29.57    0.50
   2   1   6   29.16    0.54
  -3  -1  -6   13.55    0.34
  -3  -1  -6   13.50    0.33
  -3  -1  -6   13.56    0.24
  -3  -1  -6   13.66    0.30
   3   1   6   13.06    0.33
   3   1   6   13.52    0.32
  -4  -1  -6   14.29    0.25
  -4  -1  -6   14.24    0.36
  -4  -1  -6   14.45    0.32
   4   1   6   14.15    0.25
   4   1   6   14.62    0.34
  -5  -1  -6   15.77    0.35
  -5  -1  -6   15.41    0.40
   5   1   6   15.91    0.27
   5   1   6   15.75    0.38
   5   1   6   15.61    0.37
  -6  -1  -6   16.67    0.37
   6   1   6   17.13    0.41
   6   1   6   16.59    0.30
  -7  -1  -6   11.03    0.47
  -7  -1  -6   10.99    0.32
   7   1   6   11.38    0.37
  -8  -1  -6    0.40    0.20
   8   1   6    0.46    0.15
   9   1   6    0.18    0.14
  10   1   6    4.76    0.35
   8  -2  -6    5.19    0.35
   7  -2  -6   18.22    0.49
   6  -2  -6   -0.01    0.12
   5  -2  -6   85.44    1.23
  -5   2   6   83.85    1.38
  -5   2   6   83.33    1.21
   4  -2  -6  110.04    2.14
   4  -2  -6  105.37    1.58
   4  -2  -6  108.64    1.48
  -4   2   6  107.23    1.47
  -4   2   6  108.12    1.66
   3  -2  -6    4.25    0.24
   3  -2  -6    4.31    0.26
   3  -2  -6    3.76    0.34
  -3   2   6    4.66    0.25
  -3   2   6    4.23    0.21
   2  -2  -6   12.32    0.39
   2  -2  -6   12.22    0.31
   2  -2  -6   12.40    0.35
  -2   2   6   12.34    0.34
  -2   2   6   12.20    0.30
   1  -2  -6   43.84    0.88
   1  -2  -6   43.30    0.67
  -1   2   6   43.32    0.75
  -1   2   6   42.85    0.67
   0  -2  -6   16.27    0.34
   0   2   6   15.86    0.34
   0   2   6   16.54    0.41
   0   2   6   16.30    0.37
  -1  -2  -6   92.41    1.24
   1   2   6   93.07    1.39
   1   2   6   93.59    1.75
   1   2   6   92.53    1.24
  -2  -2  -6  359.82    4.66
   2   2   6  358.84    5.04
   2   2   6  359.24    4.65
  -3  -2  -6   15.39    0.36
  -3  -2  -6   15.50    0.34
   3   2   6   15.95    0.29
   3   2   6   15.85    0.37
   3   2   6   15.89    0.35
  -4  -2  -6   20.77    0.46
  -4  -2  -6   21.47    0.45
  -4  -2  -6   21.41    0.41
   4   2   6   21.39    0.36
   4   2   6   20.95    0.45
   4   2   6   21.45    0.43
  -5  -2  -6    9.03    0.32
  -5  -2  -6    8.92    0.28
   5   2   6    9.06    0.30
   5   2   6    9.18    0.30
   5   2   6    8.87    0.22
  -6  -2  -6    6.39    0.26
   6   2   6    6.60    0.28
   6   2   6    6.29    0.20
  -7  -2  -6   89.44    1.28
   7   2   6   90.73    1.31
   7   2   6   89.93    1.22
  -8  -2  -6   79.26    1.41
  -8  -2  -6   78.56    1.18
   8   2   6   79.42    1.21
   9   2   6    0.61    0.16
  10   2   6    0.04    0.16
   8  -3  -6   18.22    0.52
   7  -3  -6   34.81    0.70
   6  -3  -6    0.14    0.13
   5  -3  -6   25.50    0.53
  -5   3   6   25.96    0.60
   4  -3  -6    0.47    0.14
   4  -3  -6    0.49    0.12
   4  -3  -6    0.03    0.13
  -4   3   6    0.45    0.11
  -4   3   6    0.38    0.12
   3  -3  -6    0.06    0.11
   3  -3  -6    0.01    0.13
   3  -3  -6   -0.02    0.11
  -3   3   6    0.11    0.10
  -3   3   6    0.07    0.11
   2  -3  -6   85.29    1.27
   2  -3  -6   84.33    1.61
   2  -3  -6   85.53    1.18
  -2   3   6   85.53    1.17
  -2   3   6   83.67    1.32
   1  -3  -6  180.72    2.26
  -1   3   6  179.16    2.26
  -1   3   6  176.85    2.55
   0  -3  -6    2.20    0.18
   0   3   6    2.07    0.18
   0   3   6    2.12    0.17
  -1  -3  -6   11.69    0.30
   1   3   6   11.54    0.32
   1   3   6   11.71    0.29
  -2  -3  -6    1.25    0.17
   2   3   6    1.68    0.17
   2   3   6    1.68    0.15
   2   3   6    1.54    0.17
  -3  -3  -6   24.70    0.46
   3   3   6   24.15    0.45
   3   3   6   24.00    0.42
   3   3   6   24.67    0.50
  -4  -3  -6   93.37    1.36
  -4  -3  -6   93.63    1.28
   4   3   6   93.53    1.42
   4   3   6   91.44    1.27
   4   3   6   93.50    1.25
  -5  -3  -6  138.24    1.96
  -5  -3  -6  140.06    1.84
   5   3   6  140.16    1.82
   5   3   6  140.01    1.85
   5   3   6  141.87    1.85
  -6  -3  -6    6.17    0.27
   6   3   6    6.30    0.21
   6   3   6    6.10    0.28
  -7  -3  -6   31.41    0.59
   7   3   6   30.28    0.60
   7   3   6   30.12    0.52
  -8  -3  -6    4.00    0.38
  -8  -3  -6    4.78    0.26
   8   3   6    4.73    0.30
   8   3   6    4.98    0.22
   9   3   6   29.96    0.65
  10   3   6    9.52    0.42
   7  -4  -6    0.05    0.15
   6  -4  -6   16.87    0.45
  -6   4   6   17.46    0.53
   5  -4  -6   20.86    0.48
  -5   4   6   21.47    0.54
   4  -4  -6   16.82    0.40
  -4   4   6   16.42    0.45
   3  -4  -6    0.04    0.11
   3  -4  -6    0.31    0.14
   3  -4  -6    0.41    0.12
  -3   4   6    0.40    0.12
  -3   4   6    0.35    0.10
   2  -4  -6   40.61    0.74
   2  -4  -6   42.19    0.68
  -2   4   6   42.55    0.66
  -2   4   6   41.80    0.76
   1  -4  -6   53.20    0.80
  -1   4   6   53.50    0.90
  -1   4   6   52.76    0.78
   0  -4  -6  335.41    4.28
   0   4   6  334.77    4.62
   0   4   6  337.89    4.08
  -1  -4  -6   80.55    1.11
   1   4   6   79.29    1.23
   1   4   6   79.46    1.09
  -2  -4  -6    2.53    0.20
   2   4   6    2.31    0.19
   2   4   6    2.32    0.18
   2   4   6    2.63    0.19
  -3  -4  -6    0.16    0.10
   3   4   6    0.08    0.09
   3   4   6    0.12    0.10
   3   4   6    0.31    0.10
  -4  -4  -6    0.06    0.11
  -4  -4  -6    0.17    0.13
   4   4   6    0.28    0.11
   4   4   6    0.24    0.11
   4   4   6    0.13    0.11
   4   4   6    0.18    0.10
  -5  -4  -6    7.91    0.30
   5   4   6    8.16    0.31
   5   4   6    7.65    0.29
   5   4   6    7.80    0.25
  -6  -4  -6   93.92    1.32
   6   4   6   92.73    1.30
   6   4   6   93.25    1.32
  -7  -4  -6   18.47    0.46
   7   4   6   19.62    0.41
   7   4   6   18.77    0.47
  -8  -4  -6    9.16    0.35
   8   4   6    8.78    0.35
   8   4   6    9.19    0.30
  -9  -4  -6    0.31    0.14
   9   4   6    0.30    0.16
  10   4   6    0.33    0.17
   7  -5  -6    0.12    0.14
   6  -5  -6    2.93    0.26
  -6   5   6    2.47    0.27
   5  -5  -6    7.70    0.31
  -5   5   6    7.66    0.34
   4  -5  -6   17.56    0.42
  -4   5   6   17.43    0.47
   3  -5  -6   70.61    1.03
  -3   5   6   70.86    1.17
   2  -5  -6   40.15    0.74
   2  -5  -6   38.95    0.65
  -2   5   6   40.28    0.74
   1  -5  -6   18.09    0.39
  -1   5   6   18.29    0.36
  -1   5   6   18.13    0.44
   0  -5  -6    0.08    0.11
   0   5   6    0.22    0.11
   0   5   6    0.14    0.09
  -1  -5  -6   52.33    0.80
   1   5   6   53.85    0.77
   1   5   6   52.41    0.89
  -2  -5  -6    7.25    0.26
   2   5   6    7.35    0.24
   2   5   6    7.44    0.27
   2   5   6    7.05    0.27
  -3  -5  -6   52.53    0.81
   3   5   6   52.54    0.82
   3   5   6   52.46    0.90
   3   5   6   52.84    0.79
   3   5   6   53.26    0.79
   3   5   6   53.93    1.09
  -4  -5  -6   16.35    0.43
  -4  -5  -6   16.85    0.40
   4   5   6   18.93    0.56
   4   5   6   17.24    0.39
   4   5   6   16.89    0.43
   4   5   6   16.61    0.38
  -5  -5  -6   24.10    0.49
   5   5   6   24.16    0.54
   5   5   6   23.44    0.47
   5   5   6   24.29    0.48
  -6  -5  -6    0.45    0.12
   6   5   6    0.28    0.12
   6   5   6    0.28    0.11
  -7  -5  -6    2.10    0.24
   7   5   6    1.81    0.24
   7   5   6    1.75    0.20
  -8  -5  -6    7.67    0.33
   8   5   6    6.98    0.28
   8   5   6    7.28    0.34
  -9  -5  -6   17.51    0.49
   9   5   6   16.94    0.44
   9   5   6   18.09    0.51
 -10  -5  -6    1.46    0.20
  10   5   6    1.90    0.23
   6  -6  -6   10.75    0.38
  -6   6   6   10.79    0.42
   5  -6  -6    0.05    0.12
  -5   6   6    0.05    0.13
   4  -6  -6   10.57    0.34
  -4   6   6   10.19    0.37
   3  -6  -6    4.09    0.24
  -3   6   6    3.55    0.25
   2  -6  -6   44.22    0.72
  -2   6   6   44.68    0.81
   1  -6  -6   60.37    0.90
   1  -6  -6   59.95    1.00
  -1   6   6   60.46    1.01
   0  -6  -6   20.17    0.42
   0   6   6   20.38    0.47
  -1  -6  -6    1.87    0.20
   1   6   6    1.64    0.20
   1   6   6    1.82    0.16
  -3  -6  -6   31.30    0.57
   3   6   6   31.13    0.63
   3   6   6   31.86    0.59
   3   6   6   31.57    0.53
  -4  -6  -6    9.56    0.31
   4   6   6    9.76    0.34
   4   6   6   10.22    0.29
   4   6   6   10.33    0.32
  -5  -6  -6   51.15    0.84
   5   6   6   50.75    0.84
   5   6   6   52.67    0.81
   5   6   6   52.32    0.94
  -6  -6  -6   13.26    0.38
   6   6   6   12.52    0.36
   6   6   6   13.66    0.37
  -7  -6  -6   10.92    0.37
   7   6   6   11.23    0.36
   7   6   6   10.38    0.34
  -8  -6  -6    0.13    0.14
   8   6   6    0.15    0.14
   8   6   6   -0.15    0.12
  -9  -6  -6    0.09    0.15
   9   6   6   -0.16    0.14
   9   6   6   -0.11    0.13
   5  -7  -6   27.10    0.57
  -5   7   6   26.45    0.64
   4  -7  -6   41.63    0.72
  -4   7   6   40.77    0.81
   3  -7  -6    0.32    0.11
  -3   7   6    0.11    0.12
   2  -7  -6   27.28    0.53
  -2   7   6   27.61    0.59
   1  -7  -6   10.28    0.31
  -1   7   6   10.16    0.34
   0  -7  -6   46.42    0.74
   0   7   6   47.92    0.84
  -1  -7  -6  104.59    1.43
   1   7   6  106.45    1.61
  -2  -7  -6   48.28    0.77
   2   7   6   49.97    0.84
   2   7   6   48.82    0.86
  -3  -7  -6    5.70    0.26
   3   7   6    5.39    0.27
   3   7   6    5.70    0.28
  -4  -7  -6   46.95    0.78
   4   7   6   47.42    0.86
   4   7   6   46.73    0.81
  -5  -7  -6   16.06    0.42
   5   7   6   16.25    0.42
   5   7   6   15.45    0.45
  -6  -7  -6   59.77    0.95
   6   7   6   57.00    0.95
  -7  -7  -6   35.54    0.70
   7   7   6   36.94    0.70
  -8  -7  -6   12.50    0.42
   8   7   6   12.00    0.40
  -9  -7  -6    6.63    0.37
   9   7   6    6.18    0.33
   4  -8  -6    0.67    0.14
  -4   8   6    0.80    0.16
   3  -8  -6   37.32    0.66
  -3   8   6   35.79    0.74
   2  -8  -6   39.08    0.67
  -2   8   6   38.16    0.75
   1  -8  -6    5.92    0.26
  -1   8   6    5.82    0.28
   0  -8  -6   20.28    0.44
   0   8   6   21.60    0.50
  -1  -8  -6    5.26    0.25
   1   8   6    6.07    0.28
  -2  -8  -6   53.24    0.83
   2   8   6   51.75    0.92
   2   8   6   51.28    0.90
  -3  -8  -6   91.35    1.31
   3   8   6   92.47    1.40
   3   8   6   94.39    1.48
  -4  -8  -6   23.54    0.50
   4   8   6   23.32    0.54
   4   8   6   23.99    0.56
  -5  -8  -6    0.83    0.15
   5   8   6    0.92    0.16
   5   8   6    0.80    0.16
  -6  -8  -6    7.79    0.33
   6   8   6    7.82    0.34
  -7  -8  -6    1.84    0.25
   7   8   6    1.80    0.25
  -8  -8  -6   18.39    0.52
   8   8   6   18.68    0.52
   3  -9  -6    0.02    0.12
  -3   9   6    0.07    0.13
   2  -9  -6   24.11    0.50
  -2   9   6   23.86    0.57
   1  -9  -6   36.10    0.63
  -1   9   6   34.82    0.71
   0  -9  -6   29.86    0.56
   0   9   6   29.53    0.63
  -1  -9  -6   21.18    0.46
   1   9   6   20.10    0.50
  -2  -9  -6    0.92    0.14
   2   9   6    0.91    0.18
   2   9   6    0.98    0.15
  -3  -9  -6    0.18    0.12
   3   9   6    0.18    0.12
   3   9   6    0.27    0.15
  -4  -9  -6    0.14    0.12
   4   9   6    0.00    0.14
   4   9   6    0.18    0.13
  -5  -9  -6    9.90    0.35
   5   9   6   10.09    0.39
   5   9   6   10.15    0.40
  -6  -9  -6   15.84    0.45
   6   9   6   16.77    0.49
  -7  -9  -6    3.69    0.30
   7   9   6    2.93    0.30
  -8  -9  -6    0.24    0.16
   8   9   6    0.19    0.16
   2 -10  -6   -0.01    0.12
  -2  10   6    0.10    0.13
   1 -10  -6    0.37    0.13
  -1  10   6    0.20    0.13
   0 -10  -6    0.61    0.13
   0  10   6    0.60    0.14
  -1 -10  -6    5.26    0.27
   1  10   6    4.60    0.28
  -2 -10  -6   13.11    0.37
   2  10   6   13.18    0.42
   2  10   6   12.05    0.45
  -3 -10  -6    7.72    0.31
   3  10   6    8.21    0.38
   3  10   6    7.58    0.34
  -4 -10  -6    0.06    0.12
   4  10   6   -0.06    0.16
   4  10   6   -0.02    0.13
  -5 -10  -6   14.97    0.43
   5  10   6   15.16    0.49
   5  10   6   15.53    0.49
  -6 -10  -6    2.17    0.26
   6  10   6    2.07    0.30
  -1 -11  -6    9.97    0.34
   1  11   6   10.65    0.39
  -2 -11  -6    2.37    0.24
   2  11   6    2.23    0.27
   2  11   6    1.92    0.24
  -3 -11  -6   24.25    0.54
   3  11   6   24.83    0.60
   3  11   6   24.18    0.64
  -4 -11  -6   44.87    0.80
   4  11   6   44.75    0.90
   4  11   6   44.11    0.90
  -5 -11  -6    6.31    0.33
  -3  -9   7    2.09    0.24
   2   9  -7    4.26    0.47
  -2  -9   7    3.35    0.24
   1   9  -7    2.86    0.45
  -1  -9   7    2.04    0.21
   0   9  -7    7.54    0.54
   0   9  -7    7.16    0.27
   0  -9   7    7.66    0.27
  -1   9  -7   12.12    0.34
  -1   9  -7   13.48    0.64
   1  -9   7   12.54    0.32
   5   8  -7    1.57    0.20
  -5  -8   7    1.18    0.18
   4   8  -7    3.84    0.28
  -4  -8   7    3.50    0.27
   3   8  -7   61.83    1.21
   3   8  -7   58.47    0.97
  -3  -8   7   60.05    0.95
   2   8  -7   63.84    1.28
  -2  -8   7   64.63    0.98
   1   8  -7    2.03    0.39
  -1  -8   7    1.88    0.20
   0   8  -7    0.99    0.26
   0   8  -7    0.94    0.13
   0  -8   7    0.97    0.13
  -1   8  -7    0.90    0.29
  -1   8  -7    1.01    0.17
   1  -8   7    0.90    0.12
  -2   8  -7    1.75    0.19
  -2   8  -7    1.73    0.32
   2  -8   7    1.83    0.18
  -3   8  -7   15.61    0.68
  -3   8  -7   14.30    0.37
   3  -8   7   15.19    0.34
   6   7  -7   57.85    1.02
  -6  -7   7   57.87    0.99
   5   7  -7   17.20    0.47
  -5  -7   7   16.64    0.46
   4   7  -7    3.51    0.26
  -4  -7   7    3.01    0.25
   3   7  -7   18.05    0.55
   3   7  -7   18.17    0.44
  -3  -7   7   18.45    0.43
   2   7  -7    2.76    0.37
   2   7  -7    2.88    0.21
  -2  -7   7    2.50    0.22
   1   7  -7   42.19    0.77
   1   7  -7   43.67    0.96
  -1  -7   7   43.35    0.70
   0   7  -7   48.40    1.07
   0   7  -7   48.15    0.83
   0  -7   7   49.33    0.76
  -1   7  -7    7.18    0.48
  -1   7  -7    7.27    0.26
   1  -7   7    7.02    0.25
  -2   7  -7    8.52    0.52
  -2   7  -7    8.10    0.28
   2  -7   7    8.28    0.26
  -3   7  -7    5.75    0.25
  -3   7  -7    6.38    0.50
   3  -7   7    6.00    0.23
  -4   7  -7    8.08    0.56
  -4   7  -7    7.37    0.28
   4  -7   7    7.90    0.26
  -5   7  -7   21.76    0.51
  -5   7  -7   23.25    0.81
   5  -7   7   23.35    0.46
   5  -7   7   23.26    0.46
   7   6  -7    0.38    0.18
  -7  -6   7    0.17    0.15
   6   6  -7   -0.06    0.15
  -6  -6   7    0.11    0.14
   5   6  -7    1.17    0.17
  -5  -6   7    0.77    0.15
   4   6  -7    8.73    0.32
  -4  -6   7    8.89    0.33
   3   6  -7   12.84    0.45
   3   6  -7   12.55    0.35
  -3  -6   7   11.28    0.77
  -3  -6   7   12.36    0.36
   2   6  -7    0.88    0.13
   2   6  -7    1.02    0.22
  -2  -6   7    0.82    0.13
  -2  -6   7    0.33    0.21
   1   6  -7   24.44    0.66
   1   6  -7   25.40    0.46
   1   6  -7   25.12    0.52
  -1  -6   7   23.41    0.91
  -1  -6   7   24.46    0.48
   0   6  -7    1.60    0.18
   0   6  -7    1.41    0.25
   0  -6   7    1.53    0.18
  -1   6  -7   11.92    0.53
  -1   6  -7   12.00    0.33
   1  -6   7   12.26    0.31
   1  -6   7   11.37    0.67
  -2   6  -7   30.01    0.80
  -2   6  -7   28.57    0.56
   2  -6   7   29.52    0.97
   2  -6   7   29.16    0.51
  -3   6  -7   18.01    0.42
  -3   6  -7   19.12    0.66
   3  -6   7   18.51    0.38
  -4   6  -7    3.92    0.23
  -4   6  -7    4.41    0.46
   4  -6   7    4.18    0.22
  -5   6  -7    2.16    0.33
  -5   6  -7    1.90    0.22
   5  -6   7    2.09    0.20
  -6   6  -7    1.13    0.32
   6  -6   7    1.02    0.14
   7   5  -7    3.43    0.31
  -7  -5   7    2.42    0.29
   6   5  -7    6.90    0.34
  -6  -5   7    7.07    0.33
   5   5  -7    1.70    0.24
  -5  -5   7    0.89    0.26
  -5  -5   7    1.48    0.18
   4   5  -7    1.45    0.27
   4   5  -7    1.19    0.16
  -4  -5   7    1.11    0.15
  -4  -5   7    0.43    0.24
   3   5  -7   15.03    0.47
   3   5  -7   14.89    0.38
  -3  -5   7   15.05    0.38
  -3  -5   7   13.80    0.77
   2   5  -7  151.91    2.46
   2   5  -7  149.67    2.00
  -2  -5   7  151.10    3.12
  -2  -5   7  152.33    1.98
   1   5  -7  100.43    1.37
   1   5  -7   97.54    1.53
   1   5  -7  102.61    1.75
  -1  -5   7  105.61    2.23
  -1  -5   7  101.27    1.38
   0   5  -7    0.53    0.10
   0   5  -7    0.39    0.21
   0   5  -7    0.36    0.09
   0  -5   7    0.25    0.17
   0  -5   7    0.45    0.11
  -1   5  -7    0.41    0.10
  -1   5  -7    0.42    0.22
   1  -5   7    0.45    0.10
   1  -5   7    0.26    0.17
  -2   5  -7    5.74    0.43
  -2   5  -7    5.78    0.24
   2  -5   7    5.72    0.23
   2  -5   7    5.85    0.54
  -3   5  -7   39.26    0.70
  -3   5  -7   39.03    0.93
   3  -5   7   37.31    1.12
   3  -5   7   38.95    0.63
  -4   5  -7   45.44    1.03
  -4   5  -7   44.21    0.79
   4  -5   7   45.83    0.71
   4  -5   7   44.33    1.28
  -5   5  -7   17.53    0.65
   5  -5   7   18.45    0.40
  -6   5  -7    0.62    0.28
   6  -5   7    0.45    0.13
  -7   5  -7    1.12    0.32
   8   4  -7    7.03    0.39
  -8  -4   7    7.61    0.39
   7   4  -7    0.17    0.17
  -7  -4   7   -0.30    0.14
   6   4  -7   31.45    0.67
  -6  -4   7   32.20    0.66
   5   4  -7   37.03    0.71
  -5  -4   7   37.92    0.71
   4   4  -7    3.65    0.30
   4   4  -7    4.07    0.26
  -4  -4   7    3.28    0.61
  -4  -4   7    3.97    0.25
   3   4  -7    5.60    0.34
   3   4  -7    5.98    0.26
  -3  -4   7    6.10    0.27
  -3  -4   7    5.46    0.59
   2   4  -7   15.49    0.49
   2   4  -7   15.51    0.35
   2   4  -7   15.14    0.29
  -2  -4   7   15.42    0.37
  -2  -4   7   15.23    0.72
   1   4  -7   18.11    0.31
   1   4  -7   18.73    0.54
   1   4  -7   19.06    0.43
   1   4  -7   18.32    0.36
  -1  -4   7   18.61    0.40
  -1  -4   7   18.85    0.76
   0   4  -7   43.88    0.76
   0   4  -7   44.15    0.92
   0   4  -7   43.48    0.64
   0  -4   7   43.44    1.16
   0  -4   7   43.97    0.69
  -1   4  -7   10.51    0.31
  -1   4  -7   10.83    0.22
  -1   4  -7   10.48    0.47
   1  -4   7   10.64    0.29
   1  -4   7   10.43    0.59
  -2   4  -7    1.04    0.23
  -2   4  -7    1.12    0.17
   2  -4   7    0.74    0.18
   2  -4   7    1.10    0.12
  -3   4  -7   13.75    0.54
  -3   4  -7   14.73    0.37
   3  -4   7   14.67    0.34
   3  -4   7   14.82    0.66
  -4   4  -7    2.38    0.20
  -4   4  -7    2.23    0.37
   4  -4   7    2.30    0.20
   4  -4   7    2.47    0.45
  -5   4  -7   17.70    0.63
   5  -4   7   18.47    0.41
  -6   4  -7    3.82    0.44
   6  -4   7    3.54    0.24
   6  -4   7    3.23    0.24
  -7   4  -7    0.27    0.26
   7  -4   7    0.21    0.13
   8   3  -7    8.46    0.42
  -8  -3   7    8.28    0.39
   7   3  -7    0.02    0.16
   7   3  -7    0.11    0.14
  -7  -3   7    0.12    0.14
   6   3  -7    1.08    0.18
   6   3  -7    0.98    0.15
  -6  -3   7    0.58    0.15
   5   3  -7   15.76    0.41
   5   3  -7   15.43    0.40
   5   3  -7   16.26    0.45
  -5  -3   7   16.19    0.43
   4   3  -7   92.12    1.38
   4   3  -7   96.35    1.58
   4   3  -7   97.90    1.36
   4   3  -7   95.05    1.32
  -4  -3   7   93.71    2.11
  -4  -3   7   96.30    1.36
   3   3  -7   54.93    0.83
   3   3  -7   55.76    0.87
   3   3  -7   55.44    1.03
   3   3  -7   55.72    0.84
  -3  -3   7   55.68    1.40
  -3  -3   7   53.97    0.86
   2   3  -7   12.08    0.30
   2   3  -7   13.29    0.45
   2   3  -7   12.67    0.29
   2   3  -7   11.57    0.32
  -2  -3   7   12.58    0.67
  -2  -3   7   12.62    0.34
   1   3  -7   18.34    0.43
   1   3  -7   18.21    0.36
   1   3  -7   17.84    0.54
   1   3  -7   18.08    0.36
   1   3  -7   17.89    0.34
  -1  -3   7   18.65    0.40
  -1  -3   7   18.01    0.72
   0   3  -7    0.11    0.09
   0   3  -7    0.18    0.08
   0   3  -7    0.16    0.10
   0   3  -7    0.19    0.08
   0   3  -7    0.27    0.22
   0  -3   7    0.02    0.16
   0  -3   7    0.29    0.11
  -1   3  -7    1.00    0.25
  -1   3  -7    1.31    0.10
  -1   3  -7    1.11    0.14
  -1   3  -7    1.12    0.13
  -1   3  -7    1.12    0.18
   1  -3   7    1.11    0.13
   1  -3   7    0.68    0.18
  -2   3  -7   20.50    0.45
  -2   3  -7   20.21    0.61
  -2   3  -7   20.31    0.36
   2  -3   7   20.11    0.41
   2  -3   7   20.13    0.74
  -3   3  -7   83.47    1.52
  -3   3  -7   82.27    1.29
  -3   3  -7   85.72    1.17
   3  -3   7   83.54    1.16
   3  -3   7   82.48    1.84
  -4   3  -7   16.02    0.40
  -4   3  -7   16.21    0.57
  -4   3  -7   17.06    0.36
   4  -3   7   16.05    0.37
  -5   3  -7   13.18    0.54
   5  -3   7   13.14    0.35
  -6   3  -7    4.78    0.44
   6  -3   7    4.26    0.25
   6  -3   7    4.49    0.26
  -7   3  -7   15.61    0.61
   7  -3   7   16.31    0.43
  -8   3  -7   22.56    0.73
   8  -3   7   21.62    0.52
   8   2  -7   19.01    0.57
   8   2  -7   18.77    0.54
  -8  -2   7   19.52    0.56
   7   2  -7   40.89    0.77
   7   2  -7   40.33    0.83
  -7  -2   7   42.14    0.80
   6   2  -7   11.11    0.38
   6   2  -7   10.71    0.40
  -6  -2   7   10.52    0.38
   5   2  -7    3.13    0.23
   5   2  -7    2.66    0.25
   5   2  -7    2.52    0.27
  -5  -2   7    2.43    0.24
   4   2  -7   61.56    0.96
   4   2  -7   62.39    0.94
   4   2  -7   60.08    0.97
  -4  -2   7   62.00    0.96
   3   2  -7    0.20    0.11
   3   2  -7   -0.10    0.12
   3   2  -7    0.02    0.11
  -3  -2   7   -0.07    0.19
  -3  -2   7   -0.01    0.11
   2   2  -7   64.69    0.95
   2   2  -7   64.05    0.95
   2   2  -7   64.69    0.93
  -2  -2   7   63.02    0.95
  -2  -2   7   64.00    1.49
   1   2  -7   84.95    1.19
   1   2  -7   86.00    1.15
   1   2  -7   85.10    1.31
   1   2  -7   83.86    1.16
  -1  -2   7   85.17    1.18
  -1  -2   7   83.47    1.81
   0   2  -7   21.98    0.38
   0   2  -7   22.75    0.47
   0   2  -7   21.99    0.40
   0  -2   7   21.97    0.72
   0  -2   7   21.77    0.43
  -1   2  -7   30.11    0.43
  -1   2  -7   29.45    0.48
  -1   2  -7   30.78    0.58
   1  -2   7   29.93    0.53
   1  -2   7   30.60    0.85
  -2   2  -7   65.54    1.05
  -2   2  -7   65.45    0.89
  -2   2  -7   65.70    1.24
  -2   2  -7   66.64    0.95
   2  -2   7   65.78    1.48
   2  -2   7   65.78    0.95
  -3   2  -7    4.32    0.21
  -3   2  -7    4.29    0.17
  -3   2  -7    4.06    0.23
  -3   2  -7    3.80    0.41
   3  -2   7    3.78    0.21
  -4   2  -7  147.87    2.42
  -4   2  -7  145.81    1.97
  -4   2  -7  146.09    2.12
   4  -2   7  141.18    1.89
  -5   2  -7   72.63    1.39
  -5   2  -7   75.54    1.11
   5  -2   7   74.07    1.08
  -6   2  -7   -0.04    0.22
   6  -2   7    0.15    0.12
   6  -2   7   -0.10    0.11
  -7   2  -7    1.46    0.28
   7  -2   7    1.05    0.16
  -8   2  -7   12.93    0.57
   8  -2   7   12.43    0.41
   8   1  -7    8.37    0.44
   8   1  -7    8.51    0.40
   7   1  -7    1.87    0.24
   7   1  -7    1.94    0.27
  -7  -1   7    2.10    0.26
   6   1  -7    0.02    0.16
   6   1  -7    0.18    0.14
  -6  -1   7   -0.03    0.13
   5   1  -7   63.64    1.04
   5   1  -7   63.55    0.99
   5   1  -7   62.38    1.02
  -5  -1   7   63.87    1.00
   4   1  -7   69.95    1.07
   4   1  -7   68.57    1.03
  -4  -1   7   68.85    1.05
   3   1  -7    4.02    0.24
   3   1  -7    4.34    0.24
  -3  -1   7    4.61    0.25
  -3  -1   7    4.37    0.54
   2   1  -7    7.46    0.27
   2   1  -7    7.44    0.42
   2   1  -7    7.80    0.26
  -2  -1   7    7.78    0.28
  -2  -1   7    7.21    0.53
   1   1  -7    5.99    0.39
   1   1  -7    5.72    0.23
   1   1  -7    5.68    0.23
  -1  -1   7    5.44    0.24
  -1  -1   7    4.70    0.43
   0   1  -7   68.28    1.09
   0   1  -7   68.57    0.96
   0  -1   7   68.36    0.98
   0  -1   7   68.00    1.47
  -1   1  -7  192.11    2.73
  -1   1  -7  195.38    2.41
   1  -1   7  190.06    3.68
   1  -1   7  196.13    2.45
  -2   1  -7   27.77    0.47
  -2   1  -7   28.14    0.49
  -2   1  -7   28.64    0.56
   2  -1   7   27.92    0.79
   2  -1   7   27.83    0.50
  -3   1  -7    2.35    0.20
  -3   1  -7    2.06    0.20
  -3   1  -7    2.13    0.16
   3  -1   7    2.11    0.20
  -4   1  -7    0.18    0.12
  -4   1  -7    0.16    0.10
  -4   1  -7    0.23    0.09
  -4   1  -7    0.08    0.23
   4  -1   7    0.33    0.12
  -5   1  -7   37.72    0.85
  -5   1  -7   37.19    0.66
   5  -1   7   37.12    0.64
  -6   1  -7   57.24    1.15
   6  -1   7   56.73    0.90
   6  -1   7   58.04    0.90
  -7   1  -7   30.39    0.78
   7  -1   7   30.09    0.60
  -8   1  -7    3.62    0.42
   8  -1   7    2.97    0.28
  -9   1  -7   10.09    0.52
   9  -1   7    9.21    0.40
   8   0  -7   16.38    0.51
   8   0  -7   14.98    0.54
   7   0  -7    0.52    0.16
   7   0  -7    0.54    0.20
  -7   0   7    0.62    0.16
   6   0  -7    0.16    0.13
  -6   0   7    0.14    0.12
   5   0  -7    0.69    0.14
  -5   0   7    0.57    0.13
   4   0  -7   34.95    0.66
   4   0  -7   35.93    0.64
  -4   0   7   35.45    0.65
   3   0  -7   83.53    1.20
   3   0  -7   85.23    1.75
   3   0  -7   86.01    1.26
  -3   0   7   84.62    1.21
   2   0  -7   12.21    0.34
   2   0  -7   12.60    0.33
   2   0  -7   12.60    0.47
  -2   0   7   12.29    0.56
  -2   0   7   12.32    0.33
  -2   0   7   12.13    0.35
   1   0  -7   34.15    0.57
   1   0  -7   34.65    0.59
   1   0  -7   33.70    0.64
   1   0  -7   34.89    0.82
  -1   0   7   33.08    0.63
  -1   0   7   32.92    0.85
  -1   0   7   33.51    0.58
   0   0  -7   90.70    1.38
   0   0  -7   90.31    1.22
   0   0   7   89.41    1.37
   0   0   7   91.03    1.24
   0   0   7   90.53    1.82
  -1   0  -7    7.06    0.24
   1   0   7    7.01    0.39
   1   0   7    7.26    0.26
   1   0   7    7.25    0.26
  -2   0  -7   31.74    0.53
  -2   0  -7   31.31    0.60
  -2   0  -7   31.59    0.45
   2   0   7   32.42    0.56
   2   0   7   31.63    0.81
  -3   0  -7   21.08    0.43
  -3   0  -7   20.62    0.47
  -3   0  -7   20.88    0.40
   3   0   7   21.10    0.43
  -4   0  -7    1.57    0.17
  -4   0  -7    1.48    0.21
   4   0   7    1.63    0.20
  -5   0  -7   16.56    0.40
  -5   0  -7   16.35    0.36
   5   0   7   15.68    0.39
  -6   0  -7    0.10    0.22
   6   0   7    0.25    0.13
   6   0   7    0.25    0.13
  -7   0  -7    1.10    0.24
   7   0   7    1.17    0.16
  -8   0  -7    5.90    0.43
   8   0   7    5.63    0.31
  -9   0  -7   14.03    0.57
   9   0   7   14.11    0.46
   8  -1  -7    0.44    0.17
   8  -1  -7    0.33    0.23
   7  -1  -7    9.94    0.40
   6  -1  -7   56.39    0.92
  -6   1   7   53.02    0.91
   5  -1  -7    3.70    0.26
  -5   1   7    4.09    0.26
   4  -1  -7   20.66    0.46
   4  -1  -7   19.82    0.64
   4  -1  -7   20.27    0.48
  -4   1   7   20.72    0.46
   3  -1  -7    3.27    0.25
   3  -1  -7    3.20    0.23
   3  -1  -7    2.65    0.35
  -3   1   7    3.04    0.23
  -3   1   7    3.09    0.23
   2  -1  -7   38.57    0.87
   2  -1  -7   37.79    0.67
   2  -1  -7   37.93    0.64
  -2   1   7   37.83    0.71
  -2   1   7   37.95    0.64
   1  -1  -7   33.81    0.58
   1  -1  -7   35.29    0.79
  -1   1   7   34.80    0.65
  -1   1   7   34.45    0.82
  -1   1   7   33.73    0.59
   0  -1  -7   44.98    0.70
   0   1   7   45.58    0.72
   0   1   7   44.58    0.78
   0   1   7   46.21    1.00
  -1  -1  -7    4.26    0.21
  -1  -1  -7    4.41    0.23
   1   1   7    4.48    0.33
   1   1   7    4.55    0.22
   1   1   7    4.20    0.22
  -2  -1  -7   66.04    1.06
  -2  -1  -7   65.11    0.93
   2   1   7   64.37    1.04
   2   1   7   65.14    1.36
   2   1   7   65.94    0.95
  -3  -1  -7    2.09    0.20
  -3  -1  -7    2.32    0.18
  -3  -1  -7    2.41    0.21
   3   1   7    2.10    0.21
   3   1   7    2.25    0.19
  -4  -1  -7    0.41    0.10
  -4  -1  -7    0.65    0.14
   4   1   7    0.25    0.12
  -5  -1  -7   33.62    0.58
  -5  -1  -7   33.98    0.63
   5   1   7   33.84    0.61
   5   1   7   33.13    0.47
  -6  -1  -7   53.65    0.83
   6   1   7   53.69    0.86
   6   1   7   53.66    0.86
  -7  -1  -7    0.94    0.24
   7   1   7    1.13    0.17
  -8  -1  -7    5.35    0.41
   8   1   7    5.16    0.31
   9   1   7    1.87    0.22
   7  -2  -7    7.35    0.35
   6  -2  -7   -0.17    0.12
   5  -2  -7   46.46    0.80
  -5   2   7   46.06    0.79
   4  -2  -7  182.16    2.36
  -4   2   7  177.92    2.35
  -4   2   7  182.96    2.75
   3  -2  -7   85.18    1.34
   3  -2  -7   88.80    1.26
   3  -2  -7   91.82    1.77
  -3   2   7   90.75    1.42
  -3   2   7   89.54    1.26
   2  -2  -7    5.13    0.30
   2  -2  -7    5.46    0.25
   2  -2  -7    5.35    0.27
  -2   2   7    4.85    0.26
  -2   2   7    5.15    0.24
   1  -2  -7   27.55    0.50
  -1   2   7   27.15    0.56
  -1   2   7   27.28    0.51
   0  -2  -7    5.37    0.24
   0   2   7    5.77    0.24
   0   2   7    5.45    0.25
   0   2   7    5.45    0.31
  -1  -2  -7  235.12    2.93
   1   2   7  235.26    2.94
   1   2   7  235.17    3.30
   1   2   7  237.09    4.35
  -2  -2  -7  200.51    2.57
   2   2   7  209.06    3.79
   2   2   7  203.76    2.58
   2   2   7  205.65    2.90
  -3  -2  -7    2.42    0.20
   3   2   7    2.47    0.20
   3   2   7    2.50    0.21
  -4  -2  -7    1.23    0.18
  -4  -2  -7    1.11    0.15
   4   2   7    1.43    0.20
   4   2   7    1.23    0.13
  -5  -2  -7    0.05    0.14
  -5  -2  -7    0.10    0.10
   5   2   7    0.08    0.07
   5   2   7    0.19    0.12
  -6  -2  -7   31.75    0.58
   6   2   7   31.73    0.60
   6   2   7   31.23    0.60
   6   2   7   30.73    0.49
  -7  -2  -7  120.62    1.66
   7   2   7  123.06    1.70
  -8  -2  -7   35.22    0.81
   8   2   7   34.73    0.70
   9   2   7   -0.07    0.15
   7  -3  -7   12.85    0.44
   6  -3  -7   17.91    0.47
   5  -3  -7   13.30    0.40
   4  -3  -7    0.19    0.13
  -4   3   7    0.17    0.12
  -4   3   7    0.15    0.12
   3  -3  -7    2.81    0.24
   3  -3  -7    2.80    0.22
  -3   3   7    2.79    0.21
  -3   3   7    2.77    0.24
   2  -3  -7   29.05    0.54
   2  -3  -7   28.80    0.63
   2  -3  -7   26.72    0.58
  -2   3   7   28.64    0.60
  -2   3   7   28.69    0.53
   1  -3  -7   28.05    0.52
  -1   3   7   27.88    0.51
  -1   3   7   28.47    0.58
   0  -3  -7   34.46    0.59
   0   3   7   34.43    0.65
   0   3   7   33.53    0.58
  -1  -3  -7   42.87    0.69
   1   3   7   43.04    0.86
   1   3   7   43.99    0.77
   1   3   7   43.65    0.69
  -2  -3  -7   27.16    0.50
   2   3   7   26.47    0.54
   2   3   7   26.24    0.61
   2   3   7   26.07    0.49
  -3  -3  -7   95.83    1.32
   3   3   7   96.54    1.48
   3   3   7   97.26    1.32
   3   3   7   95.81    1.30
  -4  -3  -7   22.38    0.50
  -4  -3  -7   22.10    0.47
   4   3   7   22.00    0.47
   4   3   7   22.52    0.41
   4   3   7   23.58    0.53
  -5  -3  -7   -0.13    0.11
   5   3   7   -0.02    0.12
   5   3   7    0.09    0.09
   5   3   7   -0.04    0.12
  -6  -3  -7    2.91    0.23
   6   3   7    2.87    0.18
   6   3   7    3.10    0.25
  -7  -3  -7    0.93    0.14
   7   3   7    0.98    0.17
   7   3   7    1.07    0.16
  -8  -3  -7    2.42    0.24
   8   3   7    2.26    0.28
   9   3   7   11.38    0.43
   7  -4  -7    9.77    0.40
   6  -4  -7   35.53    0.70
   5  -4  -7    6.43    0.31
   4  -4  -7    1.16    0.16
  -4   4   7    1.37    0.23
   3  -4  -7    9.54    0.32
  -3   4   7    9.27    0.35
   2  -4  -7    2.65    0.26
   2  -4  -7    3.03    0.23
  -2   4   7    2.93    0.23
  -2   4   7    2.91    0.20
   1  -4  -7   54.79    0.84
  -1   4   7   55.36    0.83
  -1   4   7   54.46    0.94
   0  -4  -7  114.39    1.53
   0   4   7  113.90    1.52
   0   4   7  113.75    1.72
  -1  -4  -7   44.71    0.72
   1   4   7   44.86    0.80
   1   4   7   44.58    0.71
  -2  -4  -7    7.75    0.28
   2   4   7    8.34    0.30
   2   4   7    8.16    0.28
  -3  -4  -7    0.50    0.12
   3   4   7    0.40    0.11
   3   4   7    0.41    0.12
   3   4   7    0.46    0.12
  -4  -4  -7   30.32    0.57
   4   4   7   29.94    0.56
   4   4   7   29.97    0.61
   4   4   7   29.17    0.52
  -5  -4  -7   48.18    0.80
   5   4   7   49.46    0.81
   5   4   7   50.38    0.77
   5   4   7   49.81    0.81
  -6  -4  -7   61.73    0.98
   6   4   7   61.64    0.98
   6   4   7   64.71    0.93
  -7  -4  -7   20.75    0.49
   7   4   7   20.22    0.43
   7   4   7   20.79    0.51
  -8  -4  -7    5.99    0.31
   8   4   7    6.05    0.34
  -9  -4  -7    0.69    0.16
   9   4   7    0.48    0.17
   6  -5  -7    8.74    0.37
   5  -5  -7    6.46    0.31
  -5   5   7    6.83    0.34
   4  -5  -7   19.80    0.46
  -4   5   7   18.48    0.51
   3  -5  -7   71.02    1.07
  -3   5   7   72.21    1.22
   2  -5  -7   48.52    0.78
  -2   5   7   49.09    0.89
   1  -5  -7   12.00    0.33
  -1   5   7   12.57    0.38
  -1   5   7   12.33    0.31
   0  -5  -7   -0.06    0.11
   0   5   7    0.01    0.09
   0   5   7    0.03    0.10
  -1  -5  -7    0.09    0.11
   1   5   7    0.17    0.10
   1   5   7    0.13    0.11
  -2  -5  -7    7.58    0.28
   2   5   7    7.16    0.26
   2   5   7    7.51    0.30
  -3  -5  -7   59.58    0.91
   3   5   7   59.53    0.89
   3   5   7   59.64    1.01
   3   5   7   58.30    0.91
  -4  -5  -7    0.68    0.13
   4   5   7    0.70    0.13
   4   5   7    0.60    0.12
   4   5   7    0.89    0.13
   4   5   7    0.80    0.13
  -5  -5  -7   10.67    0.34
   5   5   7   10.73    0.31
   5   5   7   11.27    0.34
  -6  -5  -7   11.10    0.35
   6   5   7   10.74    0.32
   6   5   7   10.75    0.35
  -7  -5  -7    4.85    0.29
   7   5   7    5.27    0.25
   7   5   7    4.91    0.30
  -8  -5  -7   28.08    0.61
   8   5   7   28.61    0.63
   8   5   7   27.83    0.56
  -9  -5  -7    1.65    0.20
   9   5   7    1.59    0.21
   5  -6  -7    1.32    0.17
  -5   6   7    1.08    0.18
   4  -6  -7    0.41    0.13
  -4   6   7    0.70    0.15
   3  -6  -7    4.99    0.27
  -3   6   7    5.43    0.30
   2  -6  -7   60.13    0.94
  -2   6   7   61.12    1.06
   1  -6  -7   34.57    0.62
  -1   6   7   35.52    0.70
   0  -6  -7    0.41    0.12
   0   6   7    0.55    0.12
  -1  -6  -7   10.26    0.32
  -2  -6  -7    1.93    0.21
   2   6   7    1.92    0.22
   2   6   7    1.80    0.22
   2   6   7    1.93    0.19
  -3  -6  -7   15.10    0.39
   3   6   7   14.68    0.41
   3   6   7   14.62    0.36
   3   6   7   14.72    0.36
   3   6   7   14.98    0.39
  -4  -6  -7   46.50    0.78
   4   6   7   47.58    0.76
   4   6   7   46.64    0.78
   4   6   7   46.30    0.86
  -5  -6  -7   27.34    0.56
   5   6   7   26.74    0.53
   5   6   7   26.39    0.54
  -6  -6  -7    1.58    0.24
   6   6   7    1.28    0.16
   6   6   7    1.85    0.23
  -7  -6  -7    5.35    0.30
   7   6   7    5.20    0.30
   7   6   7    5.31    0.27
  -8  -6  -7    0.71    0.17
   8   6   7    0.54    0.16
   8   6   7    0.42    0.14
  -9  -6  -7   14.42    0.48
   9   6   7   14.45    0.43
   9   6   7   14.96    0.48
   5  -7  -7   38.39    0.73
  -5   7   7   36.80    0.82
   4  -7  -7    8.10    0.33
  -4   7   7    8.91    0.38
   3  -7  -7    1.88    0.23
  -3   7   7    2.23    0.25
   2  -7  -7    7.02    0.30
  -2   7   7    6.88    0.32
   1  -7  -7    1.70    0.22
  -1   7   7    2.09    0.24
   0  -7  -7   64.66    0.98
   0   7   7   65.10    1.11
  -1  -7  -7   52.70    0.84
   1   7   7   53.70    0.95
  -3  -7  -7   11.46    0.34
   3   7   7   10.96    0.36
   3   7   7   11.12    0.37
  -4  -7  -7    6.76    0.30
   4   7   7    6.17    0.30
   4   7   7    6.73    0.31
  -5  -7  -7   46.28    0.79
   5   7   7   43.98    0.79
  -6  -7  -7   84.59    1.27
   6   7   7   83.51    1.27
  -7  -7  -7   27.81    0.61
   7   7   7   27.06    0.59
  -8  -7  -7    0.42    0.17
   8   7   7    0.55    0.15
  -9  -7  -7    5.66    0.36
   9   7   7    5.88    0.32
   4  -8  -7    8.98    0.35
  -4   8   7    8.84    0.39
   3  -8  -7   25.03    0.54
  -3   8   7   24.50    0.60
   2  -8  -7   12.68    0.37
  -2   8   7   12.31    0.41
   1  -8  -7    1.07    0.15
  -1   8   7    1.63    0.24
   0  -8  -7   24.41    0.51
   0   8   7   24.08    0.57
  -1  -8  -7    0.22    0.12
   1   8   7    0.06    0.12
  -2  -8  -7   29.90    0.59
   2   8   7   30.42    0.65
   2   8   7   31.10    0.66
  -3  -8  -7   34.58    0.65
   3   8   7   34.77    0.72
   3   8   7   34.85    0.70
  -4  -8  -7   31.05    0.61
   4   8   7   30.12    0.67
   4   8   7   30.56    0.64
  -5  -8  -7    1.89    0.24
   5   8   7    1.69    0.25
  -6  -8  -7    9.73    0.37
   6   8   7    9.97    0.38
  -7  -8  -7    0.26    0.15
   7   8   7    0.01    0.15
  -8  -8  -7   15.68    0.49
   8   8   7   15.68    0.47
   2  -9  -7   12.22    0.38
  -2   9   7   12.18    0.42
   1  -9  -7   41.24    0.73
  -1   9   7   41.38    0.82
   0  -9  -7   13.68    0.39
   0   9   7   13.19    0.42
  -1  -9  -7    0.16    0.12
   1   9   7    0.02    0.12
  -2  -9  -7   11.44    0.36
   2   9   7   11.44    0.40
  -3  -9  -7    4.91    0.28
   3   9   7    5.39    0.33
   3   9   7    4.92    0.31
  -4  -9  -7    7.99    0.33
   4   9   7    7.90    0.36
   4   9   7    8.02    0.36
  -5  -9  -7   24.81    0.56
   5   9   7   24.54    0.59
  -6  -9  -7    8.32    0.36
   6   9   7    7.73    0.37
  -7  -9  -7    0.48    0.17
   7   9   7    0.25    0.17
   1 -10  -7    4.42    0.28
  -1  10   7    4.74    0.31
   0 -10  -7    3.71    0.26
   0  10   7    3.30    0.28
  -1 -10  -7   14.57    0.41
   1  10   7   13.71    0.45
  -2 -10  -7    3.45    0.26
   2  10   7    3.38    0.29
  -3 -10  -7    0.22    0.13
   3  10   7    0.08    0.18
   3  10   7    0.11    0.13
  -4 -10  -7    5.87    0.32
   4  10   7    6.11    0.37
   4  10   7    6.39    0.35
  -5 -10  -7    7.65    0.34
   5  10   7    7.65    0.39
  -6 -10  -7    8.14    0.37
   6  10   7    8.21    0.39
   4   8  -8   11.53    0.40
  -4  -8   8   11.70    0.40
  -3  -8   8   20.38    0.49
   2   8  -8   17.75    0.64
  -2  -8   8   16.82    0.44
   1   8  -8    0.95    0.26
  -1  -8   8    0.59    0.13
   0   8  -8    0.42    0.27
   0  -8   8    0.25    0.12
  -1   8  -8    0.20    0.27
   1  -8   8   -0.01    0.11
  -2   8  -8    7.52    0.57
  -2   8  -8    6.19    0.28
   2  -8   8    6.34    0.26
   5   7  -8    3.73    0.31
  -5  -7   8    3.87    0.30
   4   7  -8    0.41    0.15
  -4  -7   8    0.18    0.14
   3   7  -8    3.37    0.24
   3   7  -8    3.44    0.39
  -3  -7   8    3.59    0.26
   2   7  -8   10.75    0.50
  -2  -7   8   10.20    0.34
   1   7  -8   39.91    0.93
  -1  -7   8   38.68    0.68
   0   7  -8   24.28    0.74
   0  -7   8   25.04    0.50
  -1   7  -8    1.12    0.28
   1  -7   8    1.28    0.19
  -2   7  -8   45.03    0.82
  -2   7  -8   45.42    1.09
   2  -7   8   46.47    0.74
  -3   7  -8   -0.07    0.10
  -3   7  -8   -0.06    0.27
   3  -7   8   -0.09    0.10
  -4   7  -8   27.16    0.87
   4  -7   8   26.33    0.51
   6   6  -8    8.79    0.40
  -6  -6   8    8.99    0.40
   5   6  -8   17.80    0.48
  -5  -6   8   17.12    0.49
   4   6  -8    3.37    0.26
  -4  -6   8    3.28    0.27
   3   6  -8    3.91    0.36
   3   6  -8    3.99    0.24
  -3  -6   8    3.75    0.26
   2   6  -8    2.91    0.21
   2   6  -8    2.53    0.36
  -2  -6   8    2.85    0.24
   1   6  -8    6.21    0.42
  -1  -6   8    5.53    0.64
  -1  -6   8    6.01    0.27
   0   6  -8    6.16    0.45
   0  -6   8    5.01    0.63
   0  -6   8    6.14    0.26
  -1   6  -8   50.41    0.89
  -1   6  -8   50.00    1.10
   1  -6   8   51.23    0.80
  -2   6  -8   22.18    0.71
  -2   6  -8   20.90    0.48
   2  -6   8   21.45    0.45
  -3   6  -8    0.75    0.13
  -3   6  -8    0.82    0.28
   3  -6   8    0.86    0.13
  -4   6  -8    0.39    0.28
   4  -6   8    0.07    0.11
  -5   6  -8    0.79    0.31
   5  -6   8    0.21    0.12
   6   5  -8    2.83    0.29
  -6  -5   8    2.84    0.30
   5   5  -8    0.21    0.14
  -5  -5   8    0.05    0.14
   4   5  -8    4.37    0.27
  -4  -5   8    4.30    0.28
   3   5  -8   14.15    0.37
   3   5  -8   14.42    0.48
  -3  -5   8   14.52    0.40
  -3  -5   8   13.48    0.80
   2   5  -8   22.00    0.62
   2   5  -8   21.54    0.44
  -2  -5   8   21.28    0.48
  -2  -5   8   20.43    0.88
   1   5  -8    7.08    0.42
   1   5  -8    7.14    0.24
  -1  -5   8    6.25    0.60
  -1  -5   8    7.32    0.28
   0   5  -8    0.35    0.22
   0  -5   8   -0.02    0.18
   0  -5   8    0.30    0.11
  -1   5  -8    7.06    0.46
  -1   5  -8    6.56    0.27
   1  -5   8    6.38    0.57
   1  -5   8    6.64    0.26
  -2   5  -8   15.57    0.59
  -2   5  -8   14.95    0.40
   2  -5   8   15.51    0.38
   2  -5   8   15.33    0.73
  -3   5  -8   14.05    0.59
  -3   5  -8   13.91    0.39
   3  -5   8   14.56    0.36
  -4   5  -8   26.36    0.79
   4  -5   8   26.87    0.52
  -5   5  -8    8.32    0.55
   5  -5   8    8.23    0.31
  -6   5  -8    0.75    0.30
   6  -5   8    0.67    0.14
   6  -5   8    0.55    0.14
   7   4  -8    3.22    0.32
  -7  -4   8    2.61    0.32
   6   4  -8   19.69    0.54
  -6  -4   8   20.00    0.54
   5   4  -8   31.05    0.66
  -5  -4   8   31.63    0.66
   4   4  -8    6.40    0.35
   4   4  -8    6.31    0.30
  -4  -4   8    5.04    0.67
  -4  -4   8    6.31    0.30
   3   4  -8    1.11    0.21
   3   4  -8    1.13    0.15
  -3  -4   8    0.50    0.23
  -3  -4   8    0.99    0.15
   2   4  -8    0.10    0.10
   2   4  -8    0.29    0.21
  -2  -4   8   -0.14    0.19
  -2  -4   8    0.11    0.12
   1   4  -8  103.33    1.79
   1   4  -8   99.90    1.38
  -1  -4   8  103.28    2.24
  -1  -4   8  102.23    1.42
   0   4  -8   43.20    0.65
   0   4  -8   43.22    0.94
   0  -4   8   43.20    1.19
   0  -4   8   43.35    0.72
  -1   4  -8    0.04    0.21
  -1   4  -8    0.02    0.09
   1  -4   8   -0.01    0.10
   1  -4   8    0.05    0.16
  -2   4  -8   10.49    0.33
  -2   4  -8   10.26    0.50
   2  -4   8   10.45    0.31
   2  -4   8   10.81    0.61
  -3   4  -8   12.72    0.55
   3  -4   8   13.04    0.34
   3  -4   8   12.52    0.65
  -4   4  -8    1.64    0.28
   4  -4   8    1.70    0.21
   4  -4   8    1.08    0.21
  -5   4  -8   37.44    0.95
   5  -4   8   38.12    0.67
  -6   4  -8   28.21    0.83
   6  -4   8   28.83    0.57
   6  -4   8   29.04    0.58
  -7   4  -8    2.79    0.52
   7  -4   8    2.40    0.26
   7   3  -8    0.27    0.17
  -7  -3   8    0.14    0.16
   6   3  -8   -0.05    0.16
  -6  -3   8   -0.07    0.14
   5   3  -8   10.16    0.38
  -5  -3   8    9.80    0.38
   4   3  -8   78.43    1.15
   4   3  -8   77.95    1.37
   4   3  -8   77.22    1.20
  -4  -3   8   78.59    1.19
  -4  -3   8   77.90    1.86
   3   3  -8   59.96    0.92
   3   3  -8   61.73    0.96
   3   3  -8   60.76    0.92
   3   3  -8   61.03    1.14
  -3  -3   8   61.15    0.97
  -3  -3   8   60.71    1.52
   2   3  -8    3.07    0.19
   2   3  -8    3.40    0.20
   2   3  -8    2.81    0.33
   2   3  -8    3.16    0.21
  -2  -3   8    2.55    0.50
  -2  -3   8    3.44    0.24
   1   3  -8   64.91    0.94
   1   3  -8   65.26    1.23
   1   3  -8   65.39    0.93
  -1  -3   8   63.44    0.98
  -1  -3   8   65.94    1.54
   0   3  -8    2.55    0.14
   0   3  -8    2.14    0.17
   0   3  -8    2.21    0.36
   0  -3   8    2.32    0.21
   0  -3   8    1.96    0.46
  -1   3  -8   21.37    0.63
  -1   3  -8   21.05    0.48
  -1   3  -8   21.07    0.38
   1  -3   8   21.03    0.44
   1  -3   8   21.47    0.76
  -2   3  -8   41.93    0.76
  -2   3  -8   42.38    0.94
   2  -3   8   41.00    1.12
   2  -3   8   41.81    0.69
  -3   3  -8   46.60    1.03
   3  -3   8   47.01    0.76
   3  -3   8   49.04    1.25
  -4   3  -8    2.43    0.40
   4  -3   8    3.03    0.46
   4  -3   8    2.06    0.22
  -5   3  -8   13.21    0.57
   5  -3   8   12.61    0.36
  -6   3  -8    0.25    0.24
   6  -3   8   -0.02    0.12
  -7   3  -8    8.25    0.55
   7  -3   8    7.24    0.33
   7   2  -8   17.93    0.50
   7   2  -8   17.11    0.54
  -7  -2   8   17.00    0.52
   6   2  -8    9.48    0.37
   6   2  -8    9.94    0.40
  -6  -2   8    9.69    0.38
   5   2  -8    0.58    0.17
   5   2  -8    0.57    0.14
   5   2  -8    0.58    0.14
  -5  -2   8    0.61    0.15
   4   2  -8    4.51    0.26
   4   2  -8    4.78    0.29
   4   2  -8    4.83    0.26
  -4  -2   8    4.67    0.28
   3   2  -8    5.83    0.26
   3   2  -8    6.27    0.25
   3   2  -8    5.88    0.28
  -3  -2   8    5.60    0.28
  -3  -2   8    5.45    0.56
   2   2  -8   85.39    1.21
   2   2  -8   87.32    1.23
   2   2  -8   87.03    1.24
  -2  -2   8   87.39    1.91
  -2  -2   8   85.06    1.24
   1   2  -8   27.72    0.50
   1   2  -8   27.55    0.49
   1   2  -8   27.66    0.50
  -1  -2   8   28.02    0.86
  -1  -2   8   27.49    0.54
   0   2  -8    0.48    0.11
   0   2  -8    0.85    0.10
   0  -2   8    0.39    0.17
   0  -2   8    0.47    0.12
  -1   2  -8   13.85    0.31
  -1   2  -8   13.81    0.25
   1  -2   8   13.89    0.36
   1  -2   8   14.02    0.61
  -2   2  -8    9.39    0.48
  -2   2  -8    8.87    0.26
  -2   2  -8    9.46    0.34
   2  -2   8    9.32    0.30
   2  -2   8    9.67    0.54
  -3   2  -8   57.28    0.86
  -3   2  -8   55.98    1.14
   3  -2   8   56.05    0.87
   3  -2   8   56.37    1.36
  -4   2  -8  142.00    2.43
  -4   2  -8  143.33    1.96
   4  -2   8  145.51    1.90
  -5   2  -8    8.40    0.31
  -5   2  -8    8.26    0.48
   5  -2   8    8.41    0.31
  -6   2  -8    0.02    0.24
   6  -2   8    0.09    0.13
  -7   2  -8    1.46    0.28
   7  -2   8    1.35    0.17
  -8   2  -8    0.38    0.27
   8  -2   8    0.06    0.15
   7   1  -8    2.02    0.26
   7   1  -8    2.05    0.28
  -7  -1   8    1.81    0.22
   6   1  -8    0.83    0.16
   6   1  -8    0.99    0.20
  -6  -1   8    0.72    0.16
   5   1  -8   29.64    0.64
   5   1  -8   28.81    0.60
  -5  -1   8   28.77    0.61
   4   1  -8   10.96    0.38
   4   1  -8   11.06    0.35
   4   1  -8   10.63    0.35
  -4  -1   8   11.03    0.37
   3   1  -8    6.67    0.28
   3   1  -8    6.68    0.27
  -3  -1   8    6.35    0.54
  -3  -1   8    6.03    0.28
   2   1  -8    0.62    0.13
  -2  -1   8    0.18    0.18
  -2  -1   8    0.50    0.12
   1   1  -8    0.88    0.14
   1   1  -8    0.69    0.12
  -1  -1   8    0.57    0.18
  -1  -1   8    0.78    0.14
   0   1  -8   40.65    0.66
   0  -1   8   41.06    1.04
   0  -1   8   41.65    0.69
  -1   1  -8  124.93    1.62
  -1   1  -8  122.43    1.59
   1  -1   8  124.75    2.49
   1  -1   8  123.28    1.66
  -2   1  -8    4.09    0.21
  -2   1  -8    4.19    0.21
   2  -1   8    4.39    0.44
   2  -1   8    3.87    0.24
  -3   1  -8    5.17    0.21
  -3   1  -8    4.76    0.24
   3  -1   8    4.79    0.24
   3  -1   8    4.84    0.44
  -4   1  -8    1.22    0.15
  -4   1  -8    1.27    0.26
   4  -1   8    1.40    0.20
  -5   1  -8   26.66    0.73
  -5   1  -8   27.28    0.54
   5  -1   8   27.54    0.54
  -6   1  -8   39.37    0.94
   6  -1   8   40.67    0.72
  -7   1  -8    9.50    0.50
   7  -1   8    8.82    0.35
  -8   1  -8    0.30    0.26
   8  -1   8    0.46    0.16
   7   0  -8    5.82    0.34
   7   0  -8    5.45    0.40
   6   0  -8    0.27    0.15
  -6   0   8    0.05    0.14
   5   0  -8    3.48    0.27
  -5   0   8    3.28    0.27
   4   0  -8   57.15    0.90
   4   0  -8   55.00    0.93
  -4   0   8   53.98    0.90
   3   0  -8   58.96    0.92
   3   0  -8   58.99    0.96
  -3   0   8   59.22    0.94
   2   0  -8    2.35    0.34
   2   0  -8    2.25    0.22
   2   0  -8    2.28    0.23
  -2   0   8    2.26    0.22
  -2   0   8    2.30    0.46
   1   0  -8    2.29    0.23
   1   0  -8    2.42    0.21
  -1   0   8    2.25    0.42
  -1   0   8    2.31    0.22
   0   0  -8    3.52    0.22
   0   0   8    3.83    0.23
   0   0   8    3.06    0.41
  -1   0  -8   19.27    0.41
   1   0   8   19.50    0.43
   1   0   8   18.62    0.62
  -2   0  -8   64.30    0.94
   2   0   8   64.90    0.97
   2   0   8   66.36    1.43
  -3   0  -8   43.05    0.72
  -3   0  -8   42.90    0.68
   3   0   8   42.82    0.72
  -4   0  -8   29.56    0.56
  -4   0  -8   29.33    0.52
   4   0   8   28.30    0.55
   5   0   8    0.05    0.12
  -6   0  -8    2.04    0.28
   6   0   8    2.78    0.25
   6   0   8    2.24    0.24
  -7   0  -8    1.25    0.27
   7   0   8    1.68    0.26
  -8   0  -8    6.13    0.48
   8   0   8    6.22    0.34
  -9   0  -8   14.13    0.61
   9   0   8   14.11    0.47
   7  -1  -8   34.46    0.72
   6  -1  -8   18.49    0.50
  -6   1   8   17.96    0.52
   5  -1  -8    3.52    0.29
  -5   1   8    3.47    0.26
   4  -1  -8    2.28    0.25
  -4   1   8    2.18    0.23
   3  -1  -8    6.08    0.28
   3  -1  -8    5.53    0.29
   3  -1  -8    6.16    0.38
  -3   1   8    6.39    0.28
   2  -1  -8   23.93    0.49
   2  -1  -8   23.77    0.51
   2  -1  -8   23.33    0.65
  -2   1   8   23.08    0.49
   1  -1  -8   86.04    1.23
  -1   1   8   87.85    1.77
  -1   1   8   87.25    1.24
   0  -1  -8   61.46    0.92
   0   1   8   63.51    1.10
   0   1   8   62.58    1.32
   0   1   8   61.81    0.94
  -1  -1  -8    6.68    0.27
   1   1   8    6.93    0.41
   1   1   8    6.93    0.28
  -2  -1  -8    9.86    0.30
   2   1   8    9.35    0.46
   2   1   8   10.20    0.32
  -3  -1  -8    0.10    0.12
  -3  -1  -8    0.11    0.10
   3   1   8    0.16    0.12
  -4  -1  -8   12.39    0.33
  -4  -1  -8   12.52    0.37
   4   1   8   12.23    0.35
  -5  -1  -8   59.13    0.90
   5   1   8   58.96    0.93
  -6  -1  -8    4.45    0.24
   6   1   8    4.41    0.27
   6   1   8    4.01    0.27
  -7  -1  -8    3.53    0.43
   7   1   8    4.14    0.29
  -8  -1  -8    0.08    0.24
   8   1   8    0.25    0.15
  -9  -1  -8    0.77    0.27
   9   1   8    0.76    0.18
   7  -2  -8    0.61    0.17
   6  -2  -8    0.96    0.17
   5  -2  -8   30.56    0.63
   4  -2  -8   50.03    0.84
  -4   2   8   49.17    0.83
   3  -2  -8    1.60    0.22
  -3   2   8    1.63    0.21
   2  -2  -8   38.94    0.86
   2  -2  -8   37.33    0.71
   2  -2  -8   39.90    0.68
  -2   2   8   39.04    0.68
   1  -2  -8    9.27    0.31
  -1   2   8    8.97    0.33
  -1   2   8    8.81    0.31
   0  -2  -8    4.38    0.26
   0   2   8    3.98    0.24
   0   2   8    4.49    0.35
   0   2   8    4.13    0.25
  -1  -2  -8   80.18    1.15
   1   2   8   82.48    1.17
   1   2   8   82.24    1.61
   1   2   8   80.59    1.29
  -2  -2  -8  117.19    1.58
   2   2   8  116.17    1.59
   2   2   8  119.13    2.27
  -3  -2  -8    4.65    0.24
   3   2   8    5.07    0.26
  -4  -2  -8   56.79    0.96
  -4  -2  -8   58.61    0.89
   4   2   8   57.32    0.90
  -5  -2  -8    1.72    0.20
   5   2   8    1.64    0.23
  -6  -2  -8   63.14    0.97
   6   2   8   62.92    1.00
   6   2   8   61.60    0.99
  -7  -2  -8   54.13    0.90
   7   2   8   55.80    0.93
  -8  -2  -8    4.61    0.43
   8   2   8    4.71    0.32
   9   2   8   -0.01    0.16
   6  -3  -8    4.49    0.31
   5  -3  -8    6.02    0.32
   4  -3  -8   17.96    0.46
   3  -3  -8  126.00    1.73
  -3   3   8  126.62    1.72
   2  -3  -8   30.11    0.63
   2  -3  -8   29.86    0.58
  -2   3   8   30.97    0.65
  -2   3   8   30.50    0.58
   1  -3  -8   21.83    0.47
  -1   3   8   21.57    0.46
  -1   3   8   21.64    0.51
   0  -3  -8    2.69    0.23
   0   3   8    3.05    0.24
   0   3   8    2.71    0.23
  -1  -3  -8    0.27    0.13
   1   3   8    0.38    0.12
   1   3   8    0.26    0.12
   1   3   8    0.19    0.09
  -2  -3  -8   43.80    0.74
   2   3   8   45.34    0.74
   2   3   8   45.31    0.82
   2   3   8   45.10    0.95
  -3  -3  -8  167.71    2.21
   3   3   8  171.70    2.21
  -4  -3  -8   65.97    1.01
   4   3   8   67.93    1.02
  -5  -3  -8    2.62    0.22
   5   3   8    2.41    0.24
   5   3   8    2.11    0.16
  -6  -3  -8    2.69    0.23
   6   3   8    2.92    0.27
   6   3   8    2.55    0.17
   6   3   8    2.77    0.27
  -7  -3  -8    2.40    0.24
   7   3   8    2.36    0.27
   8   3   8    6.42    0.35
   9   3   8   20.42    0.57
   6  -4  -8   22.23    0.56
   5  -4  -8    4.07    0.30
   4  -4  -8    2.11    0.25
   3  -4  -8   10.81    0.36
  -3   4   8   10.44    0.39
   2  -4  -8   18.26    0.44
  -2   4   8   18.28    0.42
  -2   4   8   18.32    0.48
   1  -4  -8   16.36    0.41
  -1   4   8   17.20    0.46
  -1   4   8   17.77    0.40
   0  -4  -8   17.67    0.42
   0   4   8   17.37    0.45
   0   4   8   17.20    0.40
  -1  -4  -8   49.28    0.80
   1   4   8   49.27    0.79
   1   4   8   49.48    0.89
  -2  -4  -8    0.78    0.14
   2   4   8    0.89    0.14
   2   4   8    0.86    0.14
  -3  -4  -8   -0.07    0.12
   3   4   8    0.11    0.12
  -4  -4  -8   14.49    0.39
   4   4   8   14.12    0.34
   4   4   8   14.74    0.39
  -5  -4  -8    0.28    0.13
   5   4   8    0.07    0.12
   5   4   8    0.05    0.12
   5   4   8    0.06    0.10
  -6  -4  -8    9.94    0.35
   6   4   8   10.14    0.36
   6   4   8    9.74    0.28
  -7  -4  -8    9.69    0.36
   7   4   8    9.61    0.37
  -8  -4  -8    6.46    0.33
   8   4   8    6.31    0.34
   9   4   8    2.66    0.33
   5  -5  -8   17.59    0.48
   4  -5  -8   22.71    0.53
   3  -5  -8   23.20    0.52
  -3   5   8   23.44    0.58
   2  -5  -8   24.61    0.52
  -2   5   8   24.71    0.59
   1  -5  -8    0.25    0.12
  -1   5   8    0.12    0.12
   0  -5  -8    5.72    0.27
   0   5   8    5.39    0.28
   0   5   8    5.34    0.24
  -1  -5  -8   34.21    0.62
   1   5   8   33.40    0.68
   1   5   8   34.30    0.60
  -2  -5  -8  113.07    1.57
   2   5   8  113.12    1.75
   2   5   8  114.64    1.55
  -3  -5  -8   23.33    0.50
   3   5   8   24.72    0.56
   3   5   8   23.77    0.50
  -4  -5  -8    0.01    0.11
   4   5   8    0.00    0.11
   4   5   8    0.00    0.11
   4   5   8    0.09    0.12
  -5  -5  -8    0.16    0.13
   5   5   8    0.23    0.13
   5   5   8    0.20    0.11
   5   5   8    0.23    0.13
  -6  -5  -8    6.79    0.31
   6   5   8    6.78    0.27
   6   5   8    6.71    0.31
  -7  -5  -8   10.97    0.38
   7   5   8   10.49    0.33
   7   5   8   10.81    0.40
  -8  -5  -8   46.33    0.85
   8   5   8   46.05    0.85
  -9  -5  -8    2.34    0.30
   9   5   8    2.00    0.30
   5  -6  -8    9.43    0.39
   4  -6  -8    0.63    0.15
   3  -6  -8   22.73    0.52
  -3   6   8   23.08    0.59
   2  -6  -8   50.88    0.86
  -2   6   8   52.82    0.97
   1  -6  -8   35.40    0.66
  -1   6   8   36.17    0.74
   0  -6  -8   22.16    0.49
   0   6   8   22.93    0.55
  -1  -6  -8   63.21    0.98
   1   6   8   64.89    1.11
  -2  -6  -8    0.09    0.12
   2   6   8   -0.04    0.10
   2   6   8   -0.12    0.11
  -3  -6  -8   67.87    1.04
   3   6   8   67.04    1.05
   3   6   8   65.12    1.15
   3   6   8   66.53    1.00
   3   6   8   68.16    1.00
  -4  -6  -8   30.88    0.61
   4   6   8   31.10    0.59
   4   6   8   30.87    0.59
   4   6   8   30.27    0.60
  -5  -6  -8    3.50    0.27
   5   6   8    3.53    0.26
   5   6   8    3.63    0.24
  -6  -6  -8    0.21    0.13
   6   6   8    0.26    0.14
   6   6   8   -0.06    0.12
  -7  -6  -8   16.16    0.46
   7   6   8   14.74    0.41
   7   6   8   15.73    0.45
  -8  -6  -8    6.02    0.34
   8   6   8    5.85    0.29
   8   6   8    5.68    0.35
   4  -7  -8    0.89    0.16
  -4   7   8    0.68    0.18
   3  -7  -8    7.77    0.33
  -3   7   8    7.36    0.36
   2  -7  -8   27.40    0.58
  -2   7   8   28.81    0.66
   1  -7  -8   12.97    0.38
  -1   7   8   12.75    0.42
   0  -7  -8  109.29    1.54
   0   7   8  109.12    1.73
  -1  -7  -8   12.34    0.38
   1   7   8   12.38    0.41
  -2  -7  -8    0.12    0.12
   2   7   8    0.05    0.12
  -3  -7  -8    1.86    0.24
   3   7   8    2.34    0.26
   3   7   8    1.62    0.25
  -4  -7  -8    0.19    0.13
   4   7   8    0.02    0.13
  -5  -7  -8   22.56    0.53
   5   7   8   21.56    0.51
  -6  -7  -8   40.61    0.76
   6   7   8   37.70    0.72
  -7  -7  -8    8.46    0.39
   7   7   8    8.42    0.35
  -8  -7  -8    0.86    0.19
   8   7   8    0.70    0.16
   3  -8  -8    7.50    0.34
  -3   8   8    6.92    0.37
   2  -8  -8   12.05    0.39
  -2   8   8   11.80    0.43
   1  -8  -8    0.18    0.13
  -1   8   8    0.18    0.14
   0  -8  -8    0.11    0.13
   0   8   8    0.03    0.13
  -1  -8  -8    8.31    0.33
   1   8   8    8.47    0.36
  -2  -8  -8   22.38    0.52
   2   8   8   22.50    0.57
  -3  -8  -8   43.30    0.78
   3   8   8   44.26    0.88
   3   8   8   43.97    0.83
  -4  -8  -8   22.51    0.54
   4   8   8   23.20    0.55
  -5  -8  -8    1.02    0.17
   5   8   8    0.81    0.17
  -6  -8  -8    2.29    0.28
   6   8   8    2.11    0.26
  -7  -8  -8    4.33    0.33
   7   8   8    4.60    0.32
   2  -9  -8    6.72    0.33
  -2   9   8    6.41    0.36
   1  -9  -8   23.03    0.53
  -1   9   8   21.94    0.59
   0  -9  -8    8.84    0.35
   0   9   8    9.50    0.39
  -1  -9  -8    0.01    0.13
   1   9   8   -0.12    0.13
  -2  -9  -8    0.42    0.14
   2   9   8    0.38    0.14
  -3  -9  -8    0.49    0.14
   3   9   8    0.49    0.15
   3   9   8    0.26    0.17
  -4  -9  -8   16.24    0.46
   4   9   8   15.86    0.50
  -5  -9  -8   14.02    0.45
   5   9   8   14.38    0.47
  -6  -9  -8    0.64    0.17
   6   9   8    0.65    0.17
   0 -10  -8   24.25    0.56
  -1 -10  -8   56.83    0.95
   1  10   8   55.35    1.06
  -2 -10  -8   10.49    0.39
   2  10   8    9.84    0.41
  -3 -10  -8   -0.08    0.13
   3  10   8    0.04    0.14
  -4 -10  -8    4.02    0.31
   4  10   8    3.80    0.34
  -5 -10  -8    0.30    0.15
   5  10   8    0.10    0.17
  -3  -7   9    3.18    0.29
   2   7  -9    9.86    0.53
  -2  -7   9    9.28    0.36
   1   7  -9   54.94    1.19
  -1  -7   9   53.69    0.90
   0   7  -9   23.35    0.75
   0  -7   9   23.10    0.51
  -1   7  -9    4.06    0.50
   1  -7   9    3.85    0.26
  -2   7  -9   15.32    0.69
   2  -7   9   15.12    0.40
  -3   7  -9    0.43    0.30
   3  -7   9    0.20    0.12
   5   6  -9   36.88    0.75
  -5  -6   9   37.28    0.76
   4   6  -9   10.74    0.38
  -4  -6   9   10.90    0.41
   3   6  -9    0.25    0.22
  -3  -6   9    0.17    0.14
   2   6  -9    7.10    0.46
  -2  -6   9    7.29    0.32
   1   6  -9    0.02    0.23
  -1  -6   9    0.18    0.13
   0   6  -9   21.98    0.71
   0  -6   9   21.92    0.49
  -1   6  -9   23.09    0.74
   1  -6   9   23.63    0.50
  -2   6  -9   12.89    0.61
   2  -6   9   12.09    0.36
  -3   6  -9    0.47    0.29
   3  -6   9    0.23    0.12
  -4   6  -9    1.20    0.32
   4  -6   9    0.60    0.14
   5   5  -9    0.06    0.14
  -5  -5   9   -0.13    0.14
   4   5  -9    3.79    0.28
  -4  -5   9    3.99    0.30
   3   5  -9   11.31    0.48
   3   5  -9   11.54    0.35
  -3  -5   9   11.39    0.39
   2   5  -9    9.93    0.49
   2   5  -9   10.63    0.32
  -2  -5   9   10.34    0.36
   1   5  -9    0.94    0.24
  -1  -5   9    0.52    0.22
  -1  -5   9    0.90    0.15
   0   5  -9    0.07    0.23
   0  -5   9   -0.17    0.19
   0  -5   9    0.19    0.12
  -1   5  -9    0.42    0.25
   1  -5   9    0.63    0.14
  -2   5  -9   18.58    0.66
   2  -5   9   18.80    0.44
  -3   5  -9   14.87    0.63
   3  -5   9   14.87    0.40
  -4   5  -9    0.44    0.28
   4  -5   9    0.06    0.12
  -5   5  -9    0.87    0.30
   5  -5   9    0.62    0.14
   6   4  -9   30.24    0.70
  -6  -4   9   31.38    0.71
   5   4  -9    4.17    0.31
  -5  -4   9    3.30    0.31
   4   4  -9   11.01    0.38
  -4  -4   9   11.49    0.40
   3   4  -9    0.54    0.13
   3   4  -9    0.44    0.21
  -3  -4   9    0.36    0.14
   2   4  -9    0.48    0.22
   2   4  -9    0.49    0.12
  -2  -4   9   -0.17    0.20
  -2  -4   9    0.30    0.14
   1   4  -9   53.38    1.10
  -1  -4   9   51.03    1.39
  -1  -4   9   53.46    0.87
   0   4  -9  128.74    2.23
   0  -4   9  129.09    1.76
   0  -4   9  130.96    2.75
  -1   4  -9   45.24    1.01
   1  -4   9   43.60    1.23
   1  -4   9   44.12    0.75
  -2   4  -9    0.43    0.25
   2  -4   9    0.10    0.17
   2  -4   9    0.31    0.12
  -3   4  -9    4.79    0.46
   3  -4   9    5.13    0.53
   3  -4   9    5.43    0.27
  -4   4  -9    3.20    0.44
   4  -4   9    3.05    0.24
  -5   4  -9   20.17    0.72
   5  -4   9   20.14    0.47
  -6   4  -9   20.94    0.78
   6  -4   9   20.80    0.50
   6   3  -9    0.68    0.18
  -6  -3   9    0.59    0.18
   5   3  -9   19.97    0.53
  -5  -3   9   19.51    0.53
   4   3  -9   40.98    0.76
   4   3  -9   43.07    0.94
  -4  -3   9   40.11    1.26
  -4  -3   9   42.93    0.79
   3   3  -9   10.52    0.46
   3   3  -9   10.83    0.35
  -3  -3   9   10.92    0.38
  -3  -3   9    9.76    0.70
   2   3  -9    3.83    0.23
   2   3  -9    3.42    0.39
  -2  -3   9    2.63    0.54
  -2  -3   9    3.76    0.26
   1   3  -9   39.45    0.89
   1   3  -9   38.84    0.63
  -1  -3   9   38.17    1.11
  -1  -3   9   38.45    0.70
   0   3  -9    1.89    0.27
   0  -3   9    1.32    0.21
   0  -3   9    2.21    0.22
  -1   3  -9   27.64    0.75
   1  -3   9   28.76    0.56
   1  -3   9   28.43    0.93
  -2   3  -9   27.86    0.77
   2  -3   9   27.92    0.55
   2  -3   9   27.56    0.90
  -3   3  -9    0.12    0.24
   3  -3   9    0.03    0.12
   3  -3   9    0.09    0.16
  -4   3  -9   20.49    0.69
   4  -3   9   21.41    0.48
   4  -3   9   20.86    0.81
  -5   3  -9    6.54    0.50
   5  -3   9    6.35    0.30
  -6   3  -9    2.73    0.47
   6  -3   9    2.20    0.25
  -7   3  -9   31.44    0.90
   7  -3   9   29.66    0.64
   7  -3   9   29.98    0.64
   6   2  -9    0.97    0.21
  -6  -2   9    0.79    0.18
   5   2  -9   10.10    0.37
   5   2  -9   10.40    0.41
  -5  -2   9   10.85    0.40
   4   2  -9    0.29    0.13
   4   2  -9    0.23    0.15
  -4  -2   9    0.64    0.16
   3   2  -9   36.29    0.66
   3   2  -9   35.99    0.68
   3   2  -9   36.04    0.66
  -3  -2   9   36.80    0.70
  -3  -2   9   36.50    1.11
   2   2  -9   66.54    1.01
   2   2  -9   65.04    0.99
   2   2  -9   66.71    1.01
  -2  -2   9   66.81    1.05
  -2  -2   9   66.28    1.59
   1   2  -9    8.95    0.28
   1   2  -9    8.95    0.29
   1   2  -9    9.17    0.29
  -1  -2   9    8.50    0.56
  -1  -2   9    8.82    0.32
   0   2  -9   20.86    0.38
   0  -2   9   20.74    0.74
   0  -2   9   20.85    0.47
   1  -2   9    5.97    0.28
   1  -2   9    6.01    0.51
  -2   2  -9   20.41    0.65
  -2   2  -9   20.25    0.41
   2  -2   9   20.26    0.73
   2  -2   9   20.11    0.46
  -3   2  -9   35.81    0.89
   3  -2   9   36.57    0.66
   3  -2   9   36.98    1.04
  -4   2  -9   56.96    1.22
   4  -2   9   59.09    1.44
   4  -2   9   58.23    0.93
  -5   2  -9    2.96    0.41
   5  -2   9    3.57    0.26
  -6   2  -9    1.22    0.28
   6  -2   9    1.65    0.24
  -7   2  -9    0.19    0.26
   7  -2   9    0.09    0.14
   7  -2   9    0.20    0.14
   6   1  -9    9.51    0.38
   6   1  -9    8.67    0.42
  -6  -1   9    8.48    0.40
   5   1  -9   17.58    0.47
   5   1  -9   17.81    0.52
  -5  -1   9   17.50    0.50
   4   1  -9    0.05    0.16
   4   1  -9    0.18    0.13
  -4  -1   9    0.16    0.14
   3   1  -9    1.93    0.26
   3   1  -9    2.38    0.23
   3   1  -9    2.11    0.23
  -3  -1   9    2.16    0.26
   2   1  -9    5.28    0.26
   2   1  -9    5.31    0.27
  -2  -1   9    4.40    0.52
  -2  -1   9    4.89    0.27
   1   1  -9    6.56    0.27
   1   1  -9    6.79    0.28
  -1  -1   9    6.35    0.29
  -1  -1   9    6.31    0.52
   0   1  -9   40.91    0.67
   0  -1   9   39.43    0.70
   0  -1   9   41.53    1.06
  -1   1  -9   20.19    0.42
  -1   1  -9   19.52    0.35
   1  -1   9   18.71    0.44
   1  -1   9   20.05    0.70
  -2   1  -9   23.09    0.45
  -2   1  -9   23.38    0.47
   2  -1   9   23.60    0.76
   2  -1   9   23.39    0.50
  -3   1  -9    0.95    0.14
   3  -1   9    0.58    0.16
   3  -1   9    0.93    0.15
  -4   1  -9    7.79    0.29
  -4   1  -9    6.43    0.48
   4  -1   9    7.98    0.31
  -5   1  -9    2.89    0.43
   5  -1   9    2.97    0.25
  -6   1  -9   34.79    0.90
   6  -1   9   35.95    0.68
  -7   1  -9    8.04    0.53
   7  -1   9    8.86    0.37
   7  -1   9    8.48    0.36
  -8   1  -9    0.22    0.28
   8  -1   9    0.19    0.16
   6   0  -9    5.77    0.39
   6   0  -9    6.57    0.36
  -6   0   9    5.96    0.36
   5   0  -9    2.94    0.27
  -5   0   9    2.82    0.29
   4   0  -9   19.66    0.49
  -4   0   9   19.17    0.49
   3   0  -9   44.15    0.76
   3   0  -9   42.10    0.78
  -3   0   9   44.55    0.79
   2   0  -9   19.26    0.44
   2   0  -9   18.78    0.45
  -2   0   9   18.44    0.45
  -2   0   9   18.06    0.70
   1   0  -9    0.04    0.11
   1   0  -9    0.04    0.12
  -1   0   9    0.05    0.11
  -1   0   9   -0.14    0.15
   0   0  -9    0.53    0.13
   0   0   9    0.05    0.14
   0   0   9    0.47    0.13
  -1   0  -9    9.58    0.30
   1   0   9    9.76    0.33
   1   0   9    9.50    0.50
  -2   0  -9   21.54    0.45
   2   0   9   22.79    0.70
   2   0   9   21.17    0.47
  -3   0  -9   37.35    0.63
  -3   0  -9   37.24    0.67
   3   0   9   36.44    0.67
   3   0   9   38.17    0.98
  -4   0  -9    3.75    0.26
  -4   0  -9    3.80    0.22
   4   0   9    3.76    0.27
   5   0   9    9.57    0.35
  -6   0  -9    1.50    0.30
   6   0   9    1.32    0.17
  -7   0  -9    4.48    0.46
   7   0   9    5.41    0.32
   7   0   9    5.54    0.32
  -8   0  -9    7.30    0.54
   8   0   9    7.27    0.37
   6  -1  -9   19.10    0.53
   5  -1  -9    0.24    0.15
  -5   1   9   -0.03    0.14
   4  -1  -9   13.22    0.41
  -4   1   9   13.59    0.41
   3  -1  -9    4.19    0.28
  -3   1   9    4.10    0.28
   2  -1  -9   95.97    1.36
   2  -1  -9   94.59    1.43
  -2   1   9   95.39    1.38
   1  -1  -9   76.96    1.13
   1  -1  -9   76.37    1.18
  -1   1   9   75.51    1.60
  -1   1   9   75.96    1.14
   0  -1  -9    7.59    0.29
   0   1   9    7.03    0.29
   0   1   9    6.43    0.42
  -1  -1  -9   16.20    0.39
   1   1   9   15.88    0.41
   1   1   9   15.59    0.55
  -2  -1  -9    0.24    0.11
   2   1   9    0.10    0.12
   2   1   9    0.30    0.12
  -3  -1  -9   11.66    0.33
  -3  -1  -9   11.06    0.35
   3   1   9   11.19    0.35
   3   1   9   11.68    0.51
  -4  -1  -9   52.44    0.83
   4   1   9   52.28    0.86
  -5  -1  -9   23.12    0.49
   5   1   9   23.59    0.53
   6   1   9   10.85    0.38
  -7  -1  -9    0.44    0.27
   7   1   9    0.81    0.17
   7   1   9    0.99    0.18
  -8  -1  -9    0.32    0.27
   8   1   9    0.68    0.18
   6  -2  -9    6.99    0.37
   5  -2  -9   13.04    0.43
   4  -2  -9   34.22    0.68
  -4   2   9   34.69    0.67
   3  -2  -9   15.74    0.43
  -3   2   9   15.34    0.43
   2  -2  -9   43.65    0.76
  -2   2   9   45.26    0.78
   1  -2  -9   -0.07    0.13
   1  -2  -9   -0.03    0.12
  -1   2   9   -0.14    0.12
   0  -2  -9   35.83    0.64
   0   2   9   35.36    0.65
   0   2   9   34.71    0.83
  -1  -2  -9   43.07    0.72
   1   2   9   42.93    0.74
   1   2   9   42.53    0.96
  -2  -2  -9    2.84    0.22
   2   2   9    2.39    0.32
   2   2   9    2.59    0.24
  -3  -2  -9   11.58    0.34
   3   2   9   11.44    0.47
   3   2   9   10.60    0.35
  -4  -2  -9   22.44    0.48
   4   2   9   22.46    0.50
  -5  -2  -9    2.84    0.24
   5   2   9    3.01    0.27
  -6  -2  -9   28.04    0.58
   6   2   9   29.70    0.61
   6   2   9   28.66    0.61
   7   2   9   33.46    0.69
  -8  -2  -9   12.08    0.58
   8   2   9   11.27    0.44
   6  -3  -9    1.15    0.20
   5  -3  -9    2.68    0.28
   4  -3  -9    4.63    0.31
   3  -3  -9   46.36    0.81
  -3   3   9   44.64    0.79
   2  -3  -9   19.56    0.47
  -2   3   9   19.24    0.46
   1  -3  -9    5.23    0.28
  -1   3   9    5.28    0.28
   0  -3  -9    1.47    0.23
   0   3   9    1.36    0.16
  -1  -3  -9    3.05    0.24
   1   3   9    2.51    0.23
  -2  -3  -9   44.22    0.75
   2   3   9   44.28    0.76
   2   3   9   44.03    0.96
  -3  -3  -9   64.01    1.00
   3   3   9   64.39    1.00
   3   3   9   64.70    1.34
  -4  -3  -9   10.46    0.34
   4   3   9   10.66    0.36
  -5  -3  -9    0.06    0.12
   5   3   9    0.28    0.14
  -6  -3  -9    0.50    0.14
   6   3   9    0.56    0.16
   6   3   9    0.37    0.16
  -7  -3  -9   11.65    0.39
   7   3   9   11.18    0.41
   8   3   9   18.20    0.53
   5  -4  -9    0.94    0.18
   4  -4  -9    7.77    0.35
   3  -4  -9    2.77    0.27
   2  -4  -9   12.48    0.39
   1  -4  -9    7.87    0.33
  -1   4   9    7.50    0.30
   0  -4  -9   19.55    0.46
   0   4   9   19.57    0.46
  -1  -4  -9   34.29    0.64
   1   4   9   35.45    0.64
  -2  -4  -9   13.52    0.38
   2   4   9   13.95    0.38
  -3  -4  -9    0.25    0.12
   3   4   9    0.24    0.12
  -4  -4  -9   28.50    0.59
   4   4   9   29.98    0.59
  -5  -4  -9   12.77    0.40
   5   4   9   12.89    0.39
   5   4   9   12.91    0.40
  -6  -4  -9    3.34    0.28
   6   4   9    3.12    0.29
   6   4   9    3.40    0.29
  -7  -4  -9    5.30    0.32
   7   4   9    5.32    0.34
  -8  -4  -9    2.94    0.31
   8   4   9    2.90    0.33
   5  -5  -9   38.30    0.77
   4  -5  -9   25.08    0.58
   3  -5  -9    4.53    0.30
   2  -5  -9    0.29    0.13
   1  -5  -9    5.93    0.31
   0  -5  -9    2.71    0.26
   0   5   9    2.33    0.22
  -1  -5  -9   41.04    0.73
   1   5   9   41.86    0.72
  -2  -5  -9   70.89    1.09
   2   5   9   70.42    1.06
  -3  -5  -9    0.31    0.14
   3   5   9    0.30    0.13
  -4  -5  -9    3.13    0.26
   4   5   9    3.51    0.26
  -5  -5  -9    4.63    0.29
   5   5   9    4.08    0.28
   5   5   9    4.47    0.24
   5   5   9    4.42    0.29
  -6  -5  -9    4.23    0.29
   6   5   9    3.85    0.23
   6   5   9    4.13    0.30
  -7  -5  -9   30.32    0.66
   7   5   9   31.58    0.67
  -8  -5  -9   14.97    0.48
   8   5   9   14.15    0.48
   4  -6  -9    0.03    0.14
   3  -6  -9   24.71    0.57
   2  -6  -9   47.18    0.83
   1  -6  -9    7.78    0.34
   0  -6  -9    5.54    0.30
  -1  -6  -9   16.39    0.43
  -2  -6  -9    6.08    0.30
  -3  -6  -9   40.46    0.75
   3   6   9   42.32    0.76
  -4  -6  -9    4.90    0.30
   4   6   9    4.62    0.28
   4   6   9    5.11    0.28
  -5  -6  -9   -0.11    0.13
   5   6   9   -0.08    0.12
   5   6   9   -0.12    0.13
  -6  -6  -9    1.53    0.19
   6   6   9    1.22    0.18
   6   6   9    1.39    0.17
  -7  -6  -9    1.90    0.29
   7   6   9    1.52    0.22
   7   6   9    1.71    0.21
  -8  -6  -9    9.48    0.41
   8   6   9    9.82    0.42
   3  -7  -9    4.47    0.31
   2  -7  -9    1.78    0.26
   1  -7  -9   23.18    0.54
   0  -7  -9   51.72    0.88
   0   7   9   50.68    0.99
  -1  -7  -9    0.99    0.16
  -2  -7  -9    4.18    0.29
  -3  -7  -9    4.37    0.29
  -4  -7  -9    7.77    0.35
   4   7   9    7.53    0.34
  -5  -7  -9   45.66    0.83
   5   7   9   42.72    0.80
  -6  -7  -9   30.43    0.67
   6   7   9   30.53    0.63
  -7  -7  -9    4.71    0.35
   7   7   9    5.05    0.31
   2  -8  -9    3.75    0.30
   1  -8  -9    0.72    0.16
  -1   8   9    0.84    0.19
   0  -8  -9    8.13    0.35
   0   8   9    8.13    0.39
  -1  -8  -9    9.07    0.36
  -2  -8  -9   14.72    0.44
  -3  -8  -9   23.92    0.56
  -4  -8  -9    0.61    0.16
   4   8   9    0.57    0.17
  -5  -8  -9    0.06    0.14
   5   8   9   -0.03    0.15
  -6  -8  -9    0.29    0.16
   6   8   9    0.11    0.16
  -7  -8  -9    8.23    0.39
   7   8   9    8.17    0.37
   0  -9  -9    3.47    0.29
   0   9   9    3.23    0.32
  -1  -9  -9    0.00    0.14
  -2  -9  -9    1.82    0.27
  -3  -9  -9    0.88    0.17
  -4  -9  -9   16.05    0.48
   4   9   9   16.14    0.50
  -5  -9  -9    3.20    0.31
   5   9   9    2.87    0.31
  -3  -6  10    2.03    0.28
   2   6 -10    0.77    0.27
  -2  -6  10    0.45    0.16
   1   6 -10    5.82    0.49
  -1  -6  10    5.94    0.32
   0   6 -10   15.09    0.64
   0  -6  10   14.30    0.43
  -1   6 -10   12.88    0.66
   1  -6  10   13.01    0.40
  -2   6 -10    1.08    0.31
   2  -6  10    0.80    0.16
  -3   6 -10    0.10    0.29
   3  -6  10    0.26    0.14
   4   5 -10   24.72    0.57
  -4  -5  10   24.40    0.61
   3   5 -10   25.32    0.72
  -3  -5  10   26.08    0.61
   2   5 -10    3.39    0.43
  -2  -5  10    3.44    0.29
   1   5 -10    1.43    0.28
  -1  -5  10    1.24    0.17
   0   5 -10    0.82    0.27
   0  -5  10    1.02    0.16
  -1   5 -10   -0.19    0.26
   1  -5  10    0.18    0.13
  -2   5 -10   23.45    0.78
   2  -5  10   24.91    0.54
  -3   5 -10   35.69    0.98
   3  -5  10   36.15    0.68
  -4   5 -10    0.87    0.32
   4  -5  10    0.68    0.15
   5   4 -10    0.19    0.17
  -5  -4  10   -0.04    0.16
   4   4 -10    1.94    0.26
  -4  -4  10    1.50    0.20
   3   4 -10    0.33    0.13
   3   4 -10    0.03    0.22
  -3  -4  10    0.10    0.15
   2   4 -10    6.47    0.47
  -2  -4  10    6.75    0.33
   1   4 -10   27.04    0.76
  -1  -4  10   25.10    0.99
  -1  -4  10   26.82    0.58
   0   4 -10   18.26    0.66
   0  -4  10   16.59    0.79
   0  -4  10   17.50    0.46
  -1   4 -10    0.82    0.27
   1  -4  10    0.53    0.21
   1  -4  10    1.04    0.16
  -2   4 -10   16.34    0.64
   2  -4  10   16.21    0.43
  -3   4 -10   -0.01    0.26
   3  -4  10    0.28    0.13
  -4   4 -10    6.65    0.53
   4  -4  10    6.63    0.32
  -5   4 -10   10.30    0.61
   5  -4  10   10.08    0.37
   5   3 -10   29.43    0.67
  -5  -3  10   28.67    0.68
   4   3 -10   17.16    0.48
  -4  -3  10   17.43    0.50
   3   3 -10    8.53    0.32
   3   3 -10    8.16    0.46
  -3  -3  10    5.74    0.67
  -3  -3  10    8.43    0.37
   2   3 -10    4.50    0.24
   2   3 -10    4.31    0.43
  -2  -3  10    4.73    0.30
   1   3 -10    0.73    0.25
  -1  -3  10    1.02    0.16
  -1  -3  10    0.22    0.21
   0   3 -10   30.69    0.82
   0  -3  10   30.78    0.62
   0  -3  10   30.45    1.01
  -1   3 -10   87.77    1.67
   1  -3  10   90.05    1.31
   1  -3  10   89.17    2.01
  -2   3 -10    8.02    0.51
   2  -3  10    7.69    0.57
   2  -3  10    8.12    0.33
  -3   3 -10   13.84    0.58
   3  -3  10   13.86    0.70
   3  -3  10   13.58    0.40
  -4   3 -10    0.21    0.26
   4  -3  10    0.01    0.13
  -5   3 -10   -0.16    0.27
   5  -3  10    0.01    0.13
  -6   3 -10    6.34    0.55
   6  -3  10    5.92    0.33
   5   2 -10    0.59    0.18
  -5  -2  10    0.77    0.19
   4   2 -10    0.65    0.17
  -4  -2  10    0.66    0.17
   3   2 -10    8.12    0.33
  -3  -2  10    5.52    0.67
  -3  -2  10    8.13    0.37
   2   2 -10   44.46    0.75
  -2  -2  10   44.00    1.23
  -2  -2  10   44.58    0.81
   1   2 -10    1.46    0.19
  -1  -2  10    1.38    0.17
   0  -2  10   54.93    1.40
   0  -2  10   56.44    0.92
   1  -2  10    6.03    0.52
   1  -2  10    6.01    0.30
  -2   2 -10   21.88    0.71
   2  -2  10   21.59    0.51
   2  -2  10   22.17    0.81
  -3   2 -10   21.17    0.71
   3  -2  10   21.11    0.81
   3  -2  10   21.18    0.50
  -4   2 -10   14.48    0.61
   4  -2  10   14.20    0.68
   4  -2  10   15.18    0.43
  -5   2 -10    1.18    0.30
   5  -2  10    0.81    0.16
  -6   2 -10    1.16    0.31
   6  -2  10    0.99    0.17
  -7   2 -10    0.12    0.29
   7  -2  10    0.05    0.15
   7  -2  10    0.00    0.16
   6   1 -10    3.58    0.38
   6   1 -10    3.72    0.33
  -6  -1  10    3.49    0.35
   5   1 -10    0.82    0.21
   5   1 -10    0.79    0.18
  -5  -1  10    1.06    0.19
   4   1 -10    2.51    0.26
   4   1 -10    1.62    0.21
  -4  -1  10    1.73    0.21
   3   1 -10    3.07    0.29
   3   1 -10    4.09    0.28
  -3  -1  10    3.36    0.29
  -3  -1  10    4.27    0.54
   2   1 -10    0.86    0.15
   2   1 -10    0.65    0.16
   2   1 -10    1.06    0.16
  -2  -1  10    0.22    0.20
  -2  -1  10    0.96    0.16
   1   1 -10   15.35    0.40
   1   1 -10   15.23    0.40
   1   1 -10   15.01    0.38
  -1  -1  10   14.63    0.69
  -1  -1  10   15.62    0.43
   0   1 -10   36.79    0.65
   0   1 -10   35.64    0.60
   0  -1  10   36.51    0.70
   0  -1  10   37.10    1.02
   1  -1  10    6.56    0.30
   1  -1  10    5.48    0.50
  -2   1 -10   15.86    0.39
   2  -1  10   16.09    0.43
   2  -1  10   16.01    0.67
   3  -1  10   -0.08    0.14
   3  -1  10   -0.04    0.13
  -4   1 -10   -0.48    0.24
   4  -1  10    0.13    0.15
   4  -1  10    0.02    0.13
  -5   1 -10   33.99    0.91
   5  -1  10   35.35    0.69
  -6   1 -10   27.94    0.84
   6  -1  10   28.70    0.62
  -7   1 -10    3.49    0.53
   7  -1  10    3.82    0.33
   7  -1  10    3.46    0.32
   6   0 -10   -0.05    0.15
   6   0 -10   -0.21    0.20
  -6   0  10   -0.13    0.15
   5   0 -10    2.77    0.30
  -5   0  10    2.67    0.30
   4   0 -10   16.25    0.47
  -4   0  10   16.04    0.48
   3   0 -10   15.73    0.44
  -3   0  10   15.08    0.45
   2   0 -10    3.61    0.27
   2   0 -10    3.55    0.27
  -2   0  10    4.02    0.29
   1   0 -10    4.62    0.28
   1   0 -10    4.73    0.27
  -1   0  10    4.72    0.29
  -1   0  10    3.32    0.48
   0   0 -10   11.32    0.35
   0   0  10   10.34    0.56
   0   0  10   11.49    0.37
  -1   0 -10   19.10    0.44
   1   0  10   18.96    0.68
   1   0  10   18.81    0.47
  -2   0 -10   17.84    0.42
   2   0  10   18.23    0.46
   2   0  10   17.65    0.66
   3   0  10   39.07    1.05
   3   0  10   40.67    0.73
   4   0  10    7.78    0.34
   4   0  10    8.12    0.52
   5   0  10   12.76    0.41
  -6   0 -10    1.97    0.32
   6   0  10    2.32    0.28
  -7   0 -10    4.72    0.51
   7   0  10    5.46    0.34
   7   0  10    5.02    0.34
   5  -1 -10   13.21    0.46
  -5   1  10   13.38    0.45
   4  -1 -10    4.83    0.32
  -4   1  10    5.23    0.31
   3  -1 -10   24.00    0.55
  -3   1  10   23.26    0.55
   2  -1 -10  109.49    1.55
  -2   1  10  107.41    1.56
   1  -1 -10   54.99    0.91
   1  -1 -10   56.58    0.97
  -1   1  10   54.47    0.92
   0  -1 -10    6.05    0.28
   0   1  10    5.92    0.31
   0   1  10    4.65    0.42
  -1  -1 -10   52.04    0.84
   1   1  10   51.66    0.86
   1   1  10   50.06    1.18
  -2  -1 -10   10.24    0.33
   2   1  10    9.55    0.48
   2   1  10   10.08    0.36
  -3  -1 -10   30.23    0.59
   3   1  10   31.93    0.87
   3   1  10   30.96    0.63
  -4  -1 -10   71.48    1.09
   4   1  10   73.35    1.14
   4   1  10   74.05    1.63
   5   1  10    9.21    0.37
   6   1  10    2.36    0.27
  -7  -1 -10    0.85    0.30
   7   1  10    1.51    0.21
   7   1  10    1.06    0.20
  -8  -1 -10    0.21    0.29
   8   1  10    0.22    0.18
   5  -2 -10   17.47    0.52
   4  -2 -10    0.35    0.16
  -4   2  10    0.48    0.16
   3  -2 -10    1.64    0.19
  -3   2  10    1.76    0.26
   2  -2 -10    0.94    0.16
  -2   2  10    0.86    0.17
   1  -2 -10   17.14    0.45
  -1   2  10   17.15    0.46
   0  -2 -10   24.52    0.54
   0   2  10   23.82    0.53
  -1  -2 -10   26.54    0.56
   1   2  10   27.02    0.57
  -2  -2 -10   -0.08    0.12
   2   2  10   -0.01    0.13
  -3  -2 -10    3.40    0.25
   3   2  10    3.07    0.35
   3   2  10    3.16    0.28
  -4  -2 -10    0.07    0.12
   4   2  10    0.04    0.13
   4   2  10    0.17    0.13
  -5  -2 -10   14.54    0.41
   5   2  10   14.58    0.45
   6   2  10   32.19    0.68
   7   2  10   17.79    0.52
   7   2  10   18.00    0.51
  -8  -2 -10    1.62    0.33
   8   2  10    1.90    0.23
   5  -3 -10   -0.05    0.15
   4  -3 -10    3.86    0.31
   3  -3 -10    4.82    0.30
   2  -3 -10    0.92    0.17
  -2   3  10    0.81    0.16
   1  -3 -10    0.35    0.14
  -1   3  10    0.18    0.14
   0  -3 -10    1.51    0.18
   0   3  10    1.38    0.17
  -1  -3 -10    2.59    0.25
   1   3  10    2.80    0.25
  -2  -3 -10   14.29    0.41
   2   3  10   14.01    0.41
  -3  -3 -10    5.63    0.29
   3   3  10    5.45    0.30
  -4  -3 -10   24.19    0.53
   4   3  10   23.66    0.55
  -5  -3 -10    0.37    0.13
   5   3  10    0.55    0.16
  -6  -3 -10    4.94    0.29
   6   3  10    4.49    0.31
   6   3  10    4.49    0.31
   7   3  10    8.80    0.41
   8   3  10   13.52    0.49
   4  -4 -10    4.08    0.32
   3  -4 -10    0.61    0.16
   2  -4 -10   54.21    0.93
   1  -4 -10  100.79    1.46
  -1   4  10   98.57    1.44
   0  -4 -10   29.97    0.62
   0   4  10   30.79    0.62
  -1  -4 -10    0.54    0.15
   1   4  10    0.61    0.14
  -2  -4 -10    0.78    0.15
   2   4  10    0.69    0.15
  -3  -4 -10    0.71    0.15
   3   4  10    0.68    0.15
  -4  -4 -10   26.44    0.58
   4   4  10   26.82    0.58
  -5  -4 -10   73.84    1.17
   5   4  10   76.37    1.19
  -6  -4 -10   10.68    0.39
   6   4  10   11.41    0.41
   6   4  10   10.52    0.41
  -7  -4 -10    2.73    0.30
   7   4  10    2.56    0.31
   8   4  10    0.29    0.18
   4  -5 -10   24.65    0.61
   3  -5 -10    0.00    0.14
   2  -5 -10   14.98    0.45
   1  -5 -10    0.19    0.14
   0  -5 -10   23.07    0.54
  -1  -5 -10   17.63    0.47
   1   5  10   17.37    0.44
  -2  -5 -10    3.38    0.27
   2   5  10    3.70    0.27
  -3  -5 -10    1.54    0.18
   3   5  10    1.36    0.17
  -4  -5 -10    7.62    0.35
   4   5  10    7.71    0.34
  -5  -5 -10    0.24    0.14
   5   5  10    0.33    0.16
   5   5  10    0.17    0.15
  -6  -5 -10    6.93    0.36
   6   5  10    7.31    0.36
  -7  -5 -10    1.29    0.20
   7   5  10    1.42    0.22
   3  -6 -10   51.05    0.93
   2  -6 -10   19.14    0.52
   1  -6 -10    5.72    0.33
   0  -6 -10    0.40    0.15
  -1  -6 -10    0.58    0.15
  -2  -6 -10    6.10    0.32
  -3  -6 -10   68.31    1.10
  -4  -6 -10    8.32    0.37
  -5  -6 -10    0.40    0.16
  -6  -6 -10    0.02    0.15
   6   6  10    0.01    0.15
  -7  -6 -10    2.80    0.32
   2  -7 -10    4.41    0.32
   1  -7 -10   17.06    0.49
   0  -7 -10   13.66    0.44
  -1  -7 -10    8.61    0.37
  -2  -7 -10   17.71    0.49
  -3  -7 -10   13.97    0.45
  -4  -7 -10   17.75    0.51
  -5  -7 -10   38.90    0.78
  -6  -7 -10   18.20    0.53
   6   7  10   17.76    0.48
   1  -8 -10   -0.03    0.15
   0  -8 -10    0.41    0.16
  -1  -8 -10    6.53    0.35
  -2  -8 -10   35.24    0.73
  -3  -8 -10    4.64    0.33
  -4  -8 -10    0.46    0.16
  -5  -8 -10    3.27    0.31
  -2  -9 -10    2.04    0.29
  -3  -9 -10   14.36    0.47
   2   5 -11    6.76    0.52
  -2  -5  11    6.33    0.36
   1   5 -11   -0.07    0.26
  -1  -5  11   -0.04    0.14
   0   5 -11    2.64    0.50
   0  -5  11    2.66    0.29
  -1   5 -11    2.42    0.36
   1  -5  11    2.56    0.28
  -2   5 -11   37.93    1.03
   2  -5  11   38.04    0.74
  -3  -4  11    2.73    0.32
   2   4 -11   19.98    0.70
  -2  -4  11   19.35    0.53
   1   4 -11   28.14    0.82
  -1  -4  11   28.94    0.64
   0   4 -11    6.07    0.51
   0  -4  11    5.54    0.32
  -1   4 -11   11.68    0.61
   1  -4  11   12.34    0.42
  -2   4 -11    8.04    0.57
   2  -4  11    8.55    0.36
  -3   4 -11    2.14    0.35
   3  -4  11    2.35    0.27
  -4   4 -11   16.45    0.72
   4  -4  11   16.82    0.48
   4   3 -11    6.04    0.34
  -4  -3  11    5.89    0.38
   3   3 -11    0.26    0.26
  -3  -3  11    0.51    0.17
   2   3 -11   -0.54    0.24
  -2  -3  11   -0.02    0.15
   1   3 -11    1.05    0.29
  -1  -3  11    0.99    0.17
   0   3 -11    6.71    0.50
   0  -3  11    4.42    0.61
   0  -3  11    6.98    0.34
  -1   3 -11   23.19    0.75
   1  -3  11   22.43    0.90
   1  -3  11   23.59    0.56
  -2   3 -11   18.69    0.71
   2  -3  11   19.01    0.49
  -3   3 -11    0.77    0.30
   3  -3  11    0.87    0.17
  -4   3 -11    0.12    0.28
   4  -3  11   -0.17    0.14
  -5   3 -11    3.99    0.53
   5  -3  11    3.98    0.31
   4   2 -11    7.37    0.37
  -4  -2  11    7.50    0.40
   3   2 -11    6.40    0.32
  -3  -2  11    6.42    0.37
   2   2 -11   10.34    0.36
  -2  -2  11   10.60    0.40
  -2  -2  11    7.89    0.70
  -1  -2  11   -0.37    0.19
  -1  -2  11    0.04    0.15
   0  -2  11    2.46    0.28
   0  -2  11    1.26    0.23
   1  -2  11    3.28    0.29
   1  -2  11    2.76    0.53
  -2   2 -11    0.73    0.29
   2  -2  11    0.49    0.20
   2  -2  11    1.10    0.17
  -3   2 -11   27.77    0.83
   3  -2  11   28.69    0.61
   3  -2  11   25.34    0.92
  -4   2 -11    5.39    0.52
   4  -2  11    5.47    0.32
  -5   2 -11   -0.10    0.28
   5  -2  11   -0.02    0.14
  -6   2 -11    2.00    0.36
   6  -2  11    1.72    0.21
   4   1 -11    0.41    0.18
  -4  -1  11    0.22    0.17
   3   1 -11    0.23    0.16
  -3  -1  11    0.47    0.16
   2   1 -11    2.67    0.26
  -2  -1  11    3.05    0.30
   1   1 -11   26.88    0.57
  -1  -1  11   26.73    0.61
  -1  -1  11   25.06    0.91
   0  -1  11   17.58    0.48
   0  -1  11   16.22    0.72
   1  -1  11    4.21    0.51
   1  -1  11    5.55    0.31
   2  -1  11   -0.20    0.15
   2  -1  11   -0.12    0.14
   3  -1  11    6.28    0.33
   3  -1  11    5.60    0.52
  -4   1 -11   14.90    0.65
   4  -1  11   14.80    0.70
   4  -1  11   15.35    0.45
  -5   1 -11   10.52    0.60
   5  -1  11   11.10    0.41
  -6   1 -11   16.82    0.72
   6  -1  11   17.14    0.50
   4   0 -11   30.65    0.67
  -4   0  11   30.58    0.69
   3   0 -11   12.17    0.42
  -3   0  11   12.17    0.44
   2   0 -11    2.19    0.25
  -2   0  11    1.53    0.19
   1   0 -11    8.73    0.34
  -1   0  11    8.88    0.38
   0   0 -11    4.48    0.27
   0   0  11    4.32    0.30
   1   0  11   40.73    1.15
   1   0  11   40.96    0.77
   2   0  11   16.30    0.46
   2   0  11   15.06    0.66
   3   0  11    2.57    0.27
   3   0  11    2.42    0.45
   4   0  11    0.05    0.15
   4   0  11    0.01    0.15
   5   0  11    0.21    0.16
   5   0  11    0.00    0.14
  -6   0 -11   -0.38    0.29
   6   0  11   -0.10    0.15
   4  -1 -11    0.48    0.17
  -4   1  11    0.41    0.18
   3  -1 -11   28.40    0.63
  -3   1  11   28.07    0.64
   2  -1 -11   38.45    0.74
  -2   1  11   37.67    0.75
   1  -1 -11   21.44    0.51
  -1   1  11   21.18    0.54
   0  -1 -11    7.89    0.32
   0   1  11    8.21    0.36
  -1  -1 -11   11.48    0.37
   1   1  11   11.81    0.40
  -2  -1 -11    2.95    0.25
   2   1  11    2.63    0.27
   3   1  11   19.42    0.51
   4   1  11   25.72    0.59
   5   1  11    0.40    0.16
   6   1  11    7.11    0.36
  -7  -1 -11    5.21    0.58
   7   1  11    5.32    0.37
   7   1  11    5.72    0.37
   4  -2 -11    0.18    0.17
   3  -2 -11    0.13    0.15
  -3   2  11   -0.11    0.15
   2  -2 -11   -0.08    0.14
  -2   2  11   -0.13    0.14
   1  -2 -11    8.55    0.36
  -1   2  11    8.46    0.36
   0  -2 -11   29.68    0.62
   0   2  11   29.15    0.63
  -1  -2 -11    0.26    0.14
   1   2  11    0.15    0.14
  -2  -2 -11   -0.08    0.12
   2   2  11   -0.14    0.13
  -3  -2 -11    0.00    0.12
   3   2  11    0.00    0.15
  -4  -2 -11    2.29    0.25
   4   2  11    2.25    0.29
   5   2  11   28.53    0.64
   6   2  11   24.87    0.61
   7   2  11    3.09    0.34
   7   2  11    2.91    0.33
   4  -3 -11    6.40    0.37
   3  -3 -11    3.65    0.33
   2  -3 -11    3.50    0.31
  -2   3  11    3.57    0.28
   1  -3 -11    5.99    0.33
  -1   3  11    5.43    0.31
   0  -3 -11    5.50    0.32
   0   3  11    5.22    0.31
  -1  -3 -11   12.40    0.41
   1   3  11   12.81    0.42
  -2  -3 -11   21.72    0.53
   2   3  11   22.14    0.54
  -3  -3 -11    7.98    0.34
   3   3  11    7.63    0.36
  -4  -3 -11    4.29    0.29
   4   3  11    3.94    0.31
  -5  -3 -11    0.84    0.16
   5   3  11    0.77    0.18
   6   3  11    0.63    0.17
   6   3  11    0.44    0.17
   7   3  11    9.10    0.43
   7   3  11    8.54    0.43
   3  -4 -11    1.63    0.22
   2  -4 -11   15.54    0.47
   1  -4 -11   45.20    0.83
   0  -4 -11   16.63    0.48
   0   4  11   16.41    0.46
  -1  -4 -11    0.07    0.14
   1   4  11    0.05    0.14
  -2  -4 -11   -0.09    0.13
   2   4  11    0.11    0.14
  -3  -4 -11    6.48    0.34
   3   4  11    6.55    0.34
  -4  -4 -11   29.76    0.64
   4   4  11   29.26    0.65
  -5  -4 -11   22.80    0.57
   5   4  11   23.02    0.57
  -6  -4 -11    1.39    0.20
   6   4  11    2.03    0.30
   6   4  11    1.13    0.20
   7   4  11    1.01    0.20
   3  -5 -11    4.43    0.34
   2  -5 -11    5.03    0.33
   1  -5 -11    9.21    0.39
   0  -5 -11   21.66    0.55
  -1  -5 -11   11.61    0.42
  -2  -5 -11    0.09    0.14
   2   5  11   -0.02    0.13
  -3  -5 -11    0.09    0.15
   3   5  11    0.14    0.15
  -4  -5 -11    4.16    0.32
   4   5  11    3.75    0.31
  -5  -5 -11    1.18    0.19
   5   5  11    1.13    0.19
   5   5  11    0.97    0.19
  -6  -5 -11   24.40    0.60
   6   5  11   23.77    0.61
   6   5  11   24.81    0.61
   2  -6 -11    0.00    0.16
   1  -6 -11   15.30    0.48
   0  -6 -11    0.45    0.17
  -1  -6 -11    3.17    0.30
  -2  -6 -11   15.08    0.47
  -3  -6 -11   24.86    0.60
  -4  -6 -11    2.12    0.30
  -5  -6 -11    5.58    0.36
  -6  -6 -11    2.70    0.31
   0  -7 -11    9.86    0.41
  -1  -7 -11    7.43    0.38
  -2  -7 -11    2.04    0.29
  -3  -7 -11    0.00    0.16
  -4  -7 -11   16.51    0.50
  -5  -7 -11   22.51    0.59
  -2  -8 -11   24.65    0.61
  -3  -8 -11    0.03    0.16
   0   4 -12    0.26    0.29
   0  -4  12    0.05    0.16
  -1   4 -12    0.89    0.32
   1  -4  12    0.90    0.19
   2   3 -12    0.62    0.29
  -2  -3  12    0.75    0.19
   1   3 -12   14.16    0.65
  -1  -3  12   13.87    0.48
   0   3 -12    3.83    0.52
   0  -3  12    3.66    0.33
  -1   3 -12    0.81    0.32
   1  -3  12    0.89    0.19
  -2   3 -12    0.55    0.33
   2  -3  12    0.68    0.18
  -3   3 -12    3.83    0.54
   3  -3  12    4.48    0.33
  -3  -2  12    8.13    0.40
  -2  -2  12    2.69    0.32
  -1  -2  12    1.44    0.20
   0  -2  12   -0.04    0.15
  -1   2 -12    0.05    0.29
   1  -2  12   -0.03    0.20
   1  -2  12    0.72    0.18
  -2   2 -12   36.09    1.00
   2  -2  12   36.43    0.74
  -3   2 -12   47.33    1.16
   3  -2  12   47.13    0.88
  -4   2 -12    0.23    0.31
   4  -2  12    0.56    0.18
   3   1 -12    0.01    0.16
  -3  -1  12    0.07    0.16
  -2  -1  12    0.45    0.17
  -1  -1  12   10.58    0.43
   0  -1  12   22.34    0.58
   1  -1  12    1.07    0.19
   2  -1  12   20.88    0.55
   3  -1  12    0.21    0.16
  -4   1 -12   18.01    0.75
   4  -1  12   18.89    0.53
  -5   1 -12    0.87    0.33
   5  -1  12    1.08    0.19
   3   0 -12   -0.49    0.17
  -3   0  12    0.05    0.17
  -2   0  12    0.51    0.18
  -1   0  12    0.89    0.18
   0   0  12   33.23    0.71
   1   0  12   46.30    0.87
   2   0  12   11.71    0.42
   3   0  12    2.10    0.30
   4   0  12   -0.06    0.14
   5   0  12    0.87    0.19
   3  -1 -12    9.97    0.42
  -3   1  12   10.41    0.44
   2  -1 -12   12.48    0.44
  -2   1  12   12.57    0.45
   1  -1 -12    0.46    0.16
  -1   1  12    0.33    0.17
   0  -1 -12    6.56    0.34
   0   1  12    6.86    0.36
   1   1  12    0.43    0.17
   2   1  12   12.68    0.45
   3   1  12   16.57    0.50
   4   1  12    8.87    0.40
   5   1  12   -0.14    0.16
   6   1  12   15.27    0.51
   3  -2 -12    0.72    0.19
   2  -2 -12    0.27    0.17
  -2   2  12    0.13    0.17
   1  -2 -12    8.74    0.39
  -1   2  12    8.70    0.40
   0  -2 -12   23.85    0.57
   0   2  12   23.82    0.59
  -1  -2 -12    0.59    0.17
   1   2  12    0.37    0.16
  -2  -2 -12    0.38    0.15
   2   2  12    0.17    0.16
   3   2  12    6.54    0.36
   4   2  12    0.12    0.17
   5   2  12   26.80    0.64
   6   2  12   12.97    0.49
   2  -3 -12    0.04    0.16
   1  -3 -12    0.45    0.17
  -1   3  12    0.55    0.17
   0  -3 -12    6.09    0.35
   0   3  12    5.72    0.33
  -1  -3 -12   31.53    0.68
   1   3  12   31.45    0.68
  -2  -3 -12   17.11    0.49
   2   3  12   17.17    0.50
  -3  -3 -12   11.27    0.41
   3   3  12   10.72    0.42
  -4  -3 -12    0.26    0.15
   4   3  12   -0.05    0.16
   5   3  12    0.11    0.17
   6   3  12   11.77    0.47
   2  -4 -12   10.49    0.44
   1  -4 -12    8.06    0.39
   0  -4 -12    1.45    0.20
  -1  -4 -12    1.37    0.20
   1   4  12    1.22    0.19
  -2  -4 -12    0.17    0.15
   2   4  12   -0.05    0.15
  -3  -4 -12    4.75    0.33
   3   4  12    4.38    0.34
  -4  -4 -12   11.39    0.44
   4   4  12   11.88    0.45
  -5  -4 -12    1.58    0.21
   5   4  12    1.30    0.21
   1  -5 -12   13.65    0.47
   0  -5 -12   56.23    1.00
  -1  -5 -12   34.79    0.74
  -2  -5 -12    0.41    0.16
  -3  -5 -12    2.01    0.31
  -4  -5 -12    0.01    0.16
   4   5  12   -0.07    0.16
  -5  -5 -12    1.00    0.20
   5   5  12    0.86    0.19
   0  -6 -12    7.13    0.39
  -1  -6 -12    3.79    0.34
  -2  -6 -12   25.59    0.64
  -3  -6 -12    0.83    0.20
  -4  -6 -12    1.04    0.20
   0  -1  13    4.53    0.36
   1  -1  13    0.51    0.18
   2  -1  13    0.07    0.17
  -1   0  13    2.67    0.34
   0   0  13   32.90    0.74
   1   0  13   23.80    0.63
   2   0  13    0.55    0.19
   3   0  13    7.00    0.38
  -1   1  13    0.67    0.19
   0   1  13    1.68    0.23
   1   1  13    0.98    0.19
   2   1  13    3.62    0.35
   3   1  13   23.65    0.62
   4   1  13    0.50    0.20
   1  -2 -13    9.62    0.42
  -1   2  13    9.88    0.44
   0  -2 -13    3.55    0.32
   0   2  13    3.42    0.34
   1   2  13    0.83    0.19
   2   2  13    0.64    0.18
   3   2  13    0.25    0.17
   4   2  13    8.11    0.42
   0  -3 -13    3.38    0.34
   0   3  13    3.50    0.35
  -1  -3 -13   20.93    0.57
   1   3  13   20.09    0.57
  -2  -3 -13    9.72    0.41
   2   3  13    9.48    0.44
   3   3  13   -0.01    0.17
   4   3  13    0.32    0.18
  -1  -4 -13    2.97    0.32
  -2  -4 -13    1.04    0.20
   2   4  13    0.77    0.20
  -3  -4 -13   10.40    0.44
   3   4  13   10.64    0.45
   0   0   0    0.00    0.00
;
_shelx_hkl_checksum              18185
_shelx_res_file
;
TITL mm165 in P-1
CELL 0.71073   8.1153   9.0404  10.0759  83.160  81.994  77.423
ZERR    1.00   0.0002   0.0002   0.0002   0.001   0.001   0.001
LATT 1
SFAC C  H  N  O  Mn
UNIT 22  32  2  14  3
L.S. 12
BOND
FMAP 2
PLAN 10
SIZE 0.12 0.12 0.15
TEMP -73.15
BOND $H
ACTA
CONF
EQIV $1 -x+2, -y+1, -z+1
HTAB O7 O6
HTAB O7 O2_$1
WGHT    0.031000    0.266300
FVAR       0.30148
MN1   5    0.500000    1.000000    0.500000    10.50000    0.01447    0.00843 =
         0.01996   -0.00054    0.00022   -0.00059
MN2   5    0.673097    0.630195    0.568493    11.00000    0.01320    0.00939 =
         0.02067   -0.00119    0.00036   -0.00066
N1    3    0.494680    0.581306    0.758591    11.00000    0.02029    0.01809 =
         0.02103   -0.00089   -0.00050   -0.00243
O1    4    0.698128    0.938617    0.340966    11.00000    0.02101    0.01578 =
         0.02573   -0.00119    0.00405    0.00038
O2    4    0.817442    0.693039    0.381759    11.00000    0.01837    0.01553 =
         0.02334   -0.00128    0.00237   -0.00042
O3    4    0.439843    0.775162    0.494595    11.00000    0.01361    0.01214 =
         0.02499   -0.00089   -0.00126   -0.00178
O4    4    0.307989    0.585158    0.497618    11.00000    0.03093    0.01441 =
         0.04351   -0.00839   -0.00138   -0.00715
O5    4    0.666017    0.855847    0.644485    11.00000    0.02048    0.01340 =
         0.02096   -0.00260   -0.00364   -0.00155
O6    4    0.837464    0.786143    0.805271    11.00000    0.03645    0.02941 =
         0.03329   -0.00904   -0.01694    0.00759
O7    4    0.892797    0.535703    0.675855    11.00000    0.01987    0.02336 =
         0.03527   -0.00772   -0.00673    0.00546
H71   2    0.907766    0.601472    0.718367    11.00000    0.04611
H72   2    0.979737    0.481663    0.659118    11.00000    0.04131
C1    1    0.803198    0.819786    0.311958    11.00000    0.01476    0.01802 =
         0.01961   -0.00300   -0.00018   -0.00307
C2    1    0.921063    0.830306    0.182919    11.00000    0.03174    0.03050 =
         0.02750    0.00151    0.01131    0.00020
AFIX 137
H2A   2    1.020992    0.747131    0.186430    11.00000   -1.50000
H2B   2    0.957210    0.928094    0.171909    11.00000   -1.50000
H2C   2    0.861516    0.822523    0.106637    11.00000   -1.50000
AFIX   0
C3    1    0.305264    0.722344    0.497279    11.00000    0.01728    0.01393 =
         0.01806   -0.00230   -0.00155   -0.00304
C4    1    0.137745    0.832509    0.504619    11.00000    0.01511    0.02206 =
         0.05378   -0.00234   -0.00606   -0.00105
AFIX 137
H4A   2    0.050879    0.784455    0.479327    11.00000   -1.50000
H4B   2    0.147478    0.923183    0.442670    11.00000   -1.50000
H4C   2    0.105320    0.861938    0.596660    11.00000   -1.50000
AFIX   0
C5    1    0.721354    0.875866    0.753297    11.00000    0.02064    0.01630 =
         0.02017   -0.00181   -0.00029   -0.00391
C6    1    0.634686    1.017007    0.821454    11.00000    0.04253    0.02528 =
         0.02748   -0.01151   -0.00736    0.00338
AFIX 137
H6A   2    0.702815    1.032180    0.889805    11.00000   -1.50000
H6B   2    0.521750    1.005077    0.864413    11.00000   -1.50000
H6C   2    0.623215    1.105415    0.754401    11.00000   -1.50000
AFIX   0
C7    1    0.506301    0.438295    0.815370    11.00000    0.03262    0.01959 =
         0.02528   -0.00028    0.00020   -0.00489
AFIX  43
H7A   2    0.601845    0.363395    0.785988    11.00000   -1.20000
AFIX   0
C8    1    0.386259    0.394232    0.914561    11.00000    0.04521    0.02977 =
         0.02671    0.00468   -0.00179   -0.01780
AFIX  43
H8A   2    0.399753    0.291640    0.952707    11.00000   -1.20000
AFIX   0
C9    1    0.246810    0.501727    0.957054    11.00000    0.03029    0.05434 =
         0.02621    0.00650    0.00271   -0.01711
AFIX  43
H9A   2    0.161823    0.474625    1.024642    11.00000   -1.20000
AFIX   0
C10   1    0.232778    0.649948    0.899477    11.00000    0.02496    0.04719 =
         0.02636    0.00068    0.00425    0.00411
AFIX  43
H10A  2    0.137159    0.726200    0.926119    11.00000   -1.20000
AFIX   0
C11   1    0.360030    0.685563    0.802506    11.00000    0.02479    0.02570 =
         0.02171    0.00177    0.00003    0.00256
AFIX  43
H11A  2    0.351571    0.788255    0.765508    11.00000   -1.20000
AFIX   0
HKLF 4
REM  mm165 in P-1
REM R1 =  0.0196 for    3269 Fo > 4sig(Fo)  and  0.0218 for all    3514 data
REM    198 parameters refined using      0 restraints
END
WGHT      0.0307      0.2676
REM Highest difference peak  0.313,  deepest hole -0.354,  1-sigma level  0.048
Q1    1   0.2223  0.7789  0.5022  11.00000  0.05    0.31
Q2    1   0.8575  0.8202  0.2444  11.00000  0.05    0.31
Q3    1   0.4468  0.4248  0.8761  11.00000  0.05    0.30
Q4    1   0.1555  0.9260  0.5254  11.00000  0.05    0.27
Q5    1   0.5448  1.0823  0.7797  11.00000  0.05    0.26
Q6    1   0.6695  0.9407  0.7939  11.00000  0.05    0.26
Q7    1   0.3303  0.4601  0.9466  11.00000  0.05    0.26
Q8    1   0.0497  0.7864  0.5575  11.00000  0.05    0.26
Q9    1   0.4952  0.5145  0.7869  11.00000  0.05    0.24
Q10   1   0.4279  0.6288  0.7831  11.00000  0.05    0.24
;
_shelx_res_checksum              41615
_shelxl_version_number           2.013
#END Tags that were not found in dictionaries
loop_
_space_group_symop_operation_xyz
'x, y, z'
'-x, -y, -z'
loop_
_atom_site_type_symbol
_atom_site_label
_atom_site_fract_x
_atom_site_fract_y
_atom_site_fract_z
_atom_site_U_iso_or_equiv
_atom_site_adp_type
_atom_site_calc_flag
_atom_site_occupancy
Mn Mn1 0.5000 1.0000 0.5000 0.01484(6) Uani d 1
Mn Mn2 0.67310(2) 0.63019(2) 0.56849(2) 0.01492(6) Uani d 1
N N1 0.49468(13) 0.58131(12) 0.75859(11) 0.0203(2) Uani d 1
O O1 0.69813(11) 0.93862(10) 0.34097(9) 0.02220(18) Uani d 1
O O2 0.81744(11) 0.69304(9) 0.38176(9) 0.02006(17) Uani d 1
O O3 0.43984(10) 0.77516(9) 0.49460(9) 0.01721(16) Uani d 1
O O4 0.30799(13) 0.58516(10) 0.49762(11) 0.0290(2) Uani d 1
O O5 0.66602(11) 0.85585(9) 0.64449(9) 0.01837(17) Uani d 1
O O6 0.83746(14) 0.78614(12) 0.80527(11) 0.0335(2) Uani d 1
O O7 0.89280(13) 0.53570(12) 0.67585(11) 0.0269(2) Uani d 1
H H71 0.908(3) 0.601(3) 0.718(2) 0.046(6) Uiso d 1
H H72 0.980(3) 0.482(2) 0.659(2) 0.041(5) Uiso d 1
C C1 0.80320(14) 0.81979(13) 0.31196(12) 0.0176(2) Uani d 1
C C2 0.92106(19) 0.83031(17) 0.18292(15) 0.0327(3) Uani d 1
H H2A 1.0210 0.7471 0.1864 0.049 Uiso calc 1
H H2B 0.9572 0.9281 0.1719 0.049 Uiso calc 1
H H2C 0.8615 0.8225 0.1066 0.049 Uiso calc 1
C C3 0.30526(14) 0.72234(13) 0.49728(11) 0.0164(2) Uani d 1
C C4 0.13774(16) 0.83251(15) 0.50462(17) 0.0306(3) Uani d 1
H H4A 0.0509 0.7845 0.4793 0.046 Uiso calc 1
H H4B 0.1475 0.9232 0.4427 0.046 Uiso calc 1
H H4C 0.1053 0.8619 0.5967 0.046 Uiso calc 1
C C5 0.72135(15) 0.87587(13) 0.75330(12) 0.0192(2) Uani d 1
C C6 0.6347(2) 1.01701(16) 0.82145(15) 0.0323(3) Uani d 1
H H6A 0.7028 1.0322 0.8898 0.048 Uiso calc 1
H H6B 0.5218 1.0051 0.8644 0.048 Uiso calc 1
H H6C 0.6232 1.1054 0.7544 0.048 Uiso calc 1
C C7 0.50630(18) 0.43829(15) 0.81537(14) 0.0264(3) Uani d 1
H H7A 0.6018 0.3634 0.7860 0.032 Uiso calc 1
C C8 0.3863(2) 0.39423(17) 0.91456(15) 0.0332(3) Uani d 1
H H8A 0.3998 0.2916 0.9527 0.040 Uiso calc 1
C C9 0.2468(2) 0.5017(2) 0.95705(15) 0.0371(3) Uani d 1
H H9A 0.1618 0.4746 1.0246 0.044 Uiso calc 1
C C10 0.23278(19) 0.6499(2) 0.89948(15) 0.0356(3) Uani d 1
H H10A 0.1372 0.7262 0.9261 0.043 Uiso calc 1
C C11 0.36003(17) 0.68556(15) 0.80251(13) 0.0259(3) Uani d 1
H H11A 0.3516 0.7883 0.7655 0.031 Uiso calc 1
loop_
_atom_site_aniso_label
_atom_site_aniso_U_11
_atom_site_aniso_U_22
_atom_site_aniso_U_33
_atom_site_aniso_U_12
_atom_site_aniso_U_13
_atom_site_aniso_U_23
Mn1 0.01447(12) 0.00843(11) 0.01996(12) -0.00059(8) 0.00022(9) -0.00054(8)
Mn2 0.01320(9) 0.00939(9) 0.02067(10) -0.00066(6) 0.00036(6) -0.00119(6)
N1 0.0203(5) 0.0181(5) 0.0210(5) -0.0024(4) -0.0005(4) -0.0009(4)
O1 0.0210(4) 0.0158(4) 0.0257(4) 0.0004(3) 0.0040(3) -0.0012(3)
O2 0.0184(4) 0.0155(4) 0.0233(4) -0.0004(3) 0.0024(3) -0.0013(3)
O3 0.0136(4) 0.0121(4) 0.0250(4) -0.0018(3) -0.0013(3) -0.0009(3)
O4 0.0309(5) 0.0144(4) 0.0435(6) -0.0071(4) -0.0014(4) -0.0084(4)
O5 0.0205(4) 0.0134(4) 0.0210(4) -0.0016(3) -0.0036(3) -0.0026(3)
O6 0.0365(6) 0.0294(5) 0.0333(5) 0.0076(4) -0.0169(4) -0.0090(4)
O7 0.0199(5) 0.0234(5) 0.0353(5) 0.0055(4) -0.0067(4) -0.0077(4)
C1 0.0148(5) 0.0180(5) 0.0196(5) -0.0031(4) -0.0002(4) -0.0030(4)
C2 0.0317(7) 0.0305(7) 0.0275(7) 0.0002(6) 0.0113(6) 0.0015(5)
C3 0.0173(5) 0.0139(5) 0.0181(5) -0.0030(4) -0.0016(4) -0.0023(4)
C4 0.0151(6) 0.0221(6) 0.0538(9) -0.0011(5) -0.0061(6) -0.0023(6)
C5 0.0206(6) 0.0163(5) 0.0202(5) -0.0039(4) -0.0003(4) -0.0018(4)
C6 0.0425(8) 0.0253(7) 0.0275(7) 0.0034(6) -0.0074(6) -0.0115(5)
C7 0.0326(7) 0.0196(6) 0.0253(6) -0.0049(5) 0.0002(5) -0.0003(5)
C8 0.0452(8) 0.0298(7) 0.0267(7) -0.0178(6) -0.0018(6) 0.0047(5)
C9 0.0303(7) 0.0543(10) 0.0262(7) -0.0171(7) 0.0027(6) 0.0065(6)
C10 0.0250(7) 0.0472(9) 0.0264(7) 0.0041(6) 0.0042(5) 0.0007(6)
C11 0.0248(6) 0.0257(6) 0.0217(6) 0.0026(5) 0.0000(5) 0.0018(5)
loop_
_atom_type_symbol
_atom_type_description
_atom_type_scat_dispersion_real
_atom_type_scat_dispersion_imag
_atom_type_scat_source
C C 0.0033 0.0016 'International Tables Vol C Tables 4.2.6.8 and 6.1.1.4'
H H 0.0000 0.0000 'International Tables Vol C Tables 4.2.6.8 and 6.1.1.4'
N N 0.0061 0.0033 'International Tables Vol C Tables 4.2.6.8 and 6.1.1.4'
O O 0.0106 0.0060 'International Tables Vol C Tables 4.2.6.8 and 6.1.1.4'
Mn Mn 0.3368 0.7283 'International Tables Vol C Tables 4.2.6.8 and 6.1.1.4'
loop_
_geom_angle_atom_site_label_1
_geom_angle_atom_site_label_2
_geom_angle_atom_site_label_3
_geom_angle_site_symmetry_1
_geom_angle_site_symmetry_3
_geom_angle
O1 Mn1 O1 . 2_676 180.0
O1 Mn1 O3 . . 86.76(3)
O1 Mn1 O3 2_676 . 93.24(3)
O1 Mn1 O3 . 2_676 93.24(3)
O1 Mn1 O3 2_676 2_676 86.76(3)
O3 Mn1 O3 . 2_676 180.0
O1 Mn1 O5 . 2_676 91.39(3)
O1 Mn1 O5 2_676 2_676 88.61(3)
O3 Mn1 O5 . 2_676 101.79(3)
O3 Mn1 O5 2_676 2_676 78.21(3)
O1 Mn1 O5 . . 88.61(3)
O1 Mn1 O5 2_676 . 91.39(3)
O3 Mn1 O5 . . 78.21(3)
O3 Mn1 O5 2_676 . 101.79(3)
O5 Mn1 O5 2_676 . 180.0
O4 Mn2 O2 2_666 . 88.84(4)
O4 Mn2 O7 2_666 . 88.67(4)
O2 Mn2 O7 . . 95.57(4)
O4 Mn2 O3 2_666 . 105.82(4)
O2 Mn2 O3 . . 89.30(3)
O7 Mn2 O3 . . 164.84(4)
O4 Mn2 O5 2_666 . 176.87(4)
O2 Mn2 O5 . . 91.19(3)
O7 Mn2 O5 . . 88.22(4)
O3 Mn2 O5 . . 77.31(3)
O4 Mn2 N1 2_666 . 93.24(4)
O2 Mn2 N1 . . 173.79(3)
O7 Mn2 N1 . . 90.33(4)
O3 Mn2 N1 . . 84.51(3)
O5 Mn2 N1 . . 87.05(3)
C7 N1 C11 . . 117.44(11)
C7 N1 Mn2 . . 119.52(9)
C11 N1 Mn2 . . 122.07(8)
C1 O1 Mn1 . . 135.91(8)
C1 O2 Mn2 . . 129.37(8)
C3 O3 Mn1 . . 136.43(7)
C3 O3 Mn2 . . 120.89(7)
Mn1 O3 Mn2 . . 98.99(3)
C3 O4 Mn2 . 2_666 161.58(10)
C5 O5 Mn1 . . 135.62(7)
C5 O5 Mn2 . . 126.01(7)
Mn1 O5 Mn2 . . 97.33(3)
Mn2 O7 H71 . . 107.7(15)
Mn2 O7 H72 . . 134.9(15)
H71 O7 H72 . . 108(2)
O1 C1 O2 . . 125.21(11)
O1 C1 C2 . . 116.92(11)
O2 C1 C2 . . 117.87(11)
C1 C2 H2A . . 109.5
C1 C2 H2B . . 109.5
H2A C2 H2B . . 109.5
C1 C2 H2C . . 109.5
H2A C2 H2C . . 109.5
H2B C2 H2C . . 109.5
O4 C3 O3 . . 122.80(11)
O4 C3 C4 . . 119.24(11)
O3 C3 C4 . . 117.94(10)
C3 C4 H4A . . 109.5
C3 C4 H4B . . 109.5
H4A C4 H4B . . 109.5
C3 C4 H4C . . 109.5
H4A C4 H4C . . 109.5
H4B C4 H4C . . 109.5
O6 C5 O5 . . 124.09(11)
O6 C5 C6 . . 118.89(12)
O5 C5 C6 . . 117.01(11)
C5 C6 H6A . . 109.5
C5 C6 H6B . . 109.5
H6A C6 H6B . . 109.5
C5 C6 H6C . . 109.5
H6A C6 H6C . . 109.5
H6B C6 H6C . . 109.5
N1 C7 C8 . . 123.28(13)
N1 C7 H7A . . 118.4
C8 C7 H7A . . 118.4
C9 C8 C7 . . 118.76(13)
C9 C8 H8A . . 120.6
C7 C8 H8A . . 120.6
C8 C9 C10 . . 118.72(13)
C8 C9 H9A . . 120.6
C10 C9 H9A . . 120.6
C9 C10 C11 . . 119.02(14)
C9 C10 H10A . . 120.5
C11 C10 H10A . . 120.5
N1 C11 C10 . . 122.75(13)
N1 C11 H11A . . 118.6
C10 C11 H11A . . 118.6
loop_
_geom_bond_atom_site_label_1
_geom_bond_atom_site_label_2
_geom_bond_site_symmetry_2
_geom_bond_distance
Mn1 O1 . 2.1369(9)
Mn1 O1 2_676 2.1369(9)
Mn1 O3 . 2.1997(8)
Mn1 O3 2_676 2.1997(8)
Mn1 O5 2_676 2.2277(8)
Mn1 O5 . 2.2277(8)
Mn2 O4 2_666 2.0995(9)
Mn2 O2 . 2.1579(9)
Mn2 O7 . 2.1755(10)
Mn2 O3 . 2.2215(8)
Mn2 O5 . 2.2494(8)
Mn2 N1 . 2.2946(10)
N1 C7 . 1.3392(16)
N1 C11 . 1.3395(16)
O1 C1 . 1.2542(14)
O2 C1 . 1.2625(14)
O3 C3 . 1.2796(14)
O4 C3 . 1.2352(14)
O4 Mn2 2_666 2.0995(9)
O5 C5 . 1.2870(15)
O6 C5 . 1.2343(16)
O7 H71 . 0.81(2)
O7 H72 . 0.78(2)
C1 C2 . 1.5094(17)
C2 H2A . 0.9800
C2 H2B . 0.9800
C2 H2C . 0.9800
C3 C4 . 1.4985(17)
C4 H4A . 0.9800
C4 H4B . 0.9800
C4 H4C . 0.9800
C5 C6 . 1.5092(17)
C6 H6A . 0.9800
C6 H6B . 0.9800
C6 H6C . 0.9800
C7 C8 . 1.3819(19)
C7 H7A . 0.9500
C8 C9 . 1.376(2)
C8 H8A . 0.9500
C9 C10 . 1.383(2)
C9 H9A . 0.9500
C10 C11 . 1.3833(19)
C10 H10A . 0.9500
C11 H11A . 0.9500
loop_
_geom_hbond_atom_site_label_D
_geom_hbond_atom_site_label_H
_geom_hbond_atom_site_label_A
_geom_hbond_site_symmetry_A
_geom_hbond_distance_DH
_geom_hbond_distance_HA
_geom_hbond_distance_DA
_geom_hbond_angle_DHA
_geom_hbond_publ_flag
O7 H71 O6 . 0.81(2) 1.92(2) 2.6694(15) 154(2) yes
O7 H72 O2 2_766 0.78(2) 2.05(2) 2.8162(13) 169(2) yes
loop_
_geom_torsion_atom_site_label_1
_geom_torsion_atom_site_label_2
_geom_torsion_atom_site_label_3
_geom_torsion_atom_site_label_4
_geom_torsion_site_symmetry_1
_geom_torsion
Mn1 O1 C1 O2 . -1.0(2)
Mn1 O1 C1 C2 . 178.82(10)
Mn2 O2 C1 O1 . 0.83(18)
Mn2 O2 C1 C2 . -178.99(9)
Mn2 O4 C3 O3 2_666 -85.5(3)
Mn2 O4 C3 C4 2_666 96.5(3)
Mn1 O3 C3 O4 . -177.30(9)
Mn2 O3 C3 O4 . -24.02(16)
Mn1 O3 C3 C4 . 0.76(18)
Mn2 O3 C3 C4 . 154.04(9)
Mn1 O5 C5 O6 . -166.63(10)
Mn2 O5 C5 O6 . 27.84(17)
Mn1 O5 C5 C6 . 14.66(17)
Mn2 O5 C5 C6 . -150.87(9)
C11 N1 C7 C8 . 0.8(2)
Mn2 N1 C7 C8 . -168.22(11)
N1 C7 C8 C9 . 0.5(2)
C7 C8 C9 C10 . -0.4(2)
C8 C9 C10 C11 . -0.8(2)
C7 N1 C11 C10 . -2.0(2)
Mn2 N1 C11 C10 . 166.62(11)
C9 C10 C11 N1 . 2.1(2)
