#------------------------------------------------------------------------------
#$Date: 2015-05-13 22:38:55 +0300 (Wed, 13 May 2015) $
#$Revision: 136362 $
#$URL: svn://www.crystallography.net/cod/cif/2/01/99/2019940.cif $
#------------------------------------------------------------------------------
#
# This file is available in the Crystallography Open Database (COD),
# http://www.crystallography.net/. The original data for this entry
# were provided by IUCr Journals, http://journals.iucr.org/.
#
# The file may be used within the scientific community so long as
# proper attribution is given to the journal article from which the
# data were obtained.
#
data_2019940
loop_
_publ_author_name
'Sovago, Ioana'
'Bond, Andrew D.'
_publ_section_title
;
 Expanding the structural landscape of niclosamide: a high <i>Z</i>'
 polymorph, two new solvates and monohydrate H~<i>A~</i>
;
_journal_coeditor_code           FA3363
_journal_issue                   5
_journal_name_full               'Acta Crystallographica Section C'
_journal_page_first              394
_journal_page_last               401
_journal_paper_doi               10.1107/S2053229615005847
_journal_volume                  71
_journal_year                    2015
_chemical_formula_iupac          'C13 H8 Cl2 N2 O4 , C2 H3 N'
_chemical_formula_moiety         'C13 H8 Cl2 N2 O4, C2 H3 N'
_chemical_formula_sum            'C15 H11 Cl2 N3 O4'
_chemical_formula_weight         368.17
_chemical_name_common            'niclosamide acetonitrile solvate'
_chemical_name_systematic
;
5-chloro-<i>N</i>-(2-chloro-4-nitrophenyl)-2-hydroxybenzamide--acetonitrile
(1/1)
;
_space_group_crystal_system      triclinic
_space_group_IT_number           2
_space_group_name_Hall           '-P 1'
_space_group_name_H-M_alt        'P -1'
_symmetry_space_group_name_Hall  '-P 1'
_symmetry_space_group_name_H-M   'P -1'
_atom_sites_solution_hydrogens   geom
_audit_creation_method           SHELXL-2013
_cell_angle_alpha                87.976(2)
_cell_angle_beta                 87.124(2)
_cell_angle_gamma                84.077(3)
_cell_formula_units_Z            2
_cell_length_a                   3.8301(2)
_cell_length_b                   11.7321(5)
_cell_length_c                   16.9034(7)
_cell_measurement_reflns_used    2967
_cell_measurement_temperature    120(2)
_cell_measurement_theta_max      47.25
_cell_measurement_theta_min      3.74
_cell_volume                     754.20(6)
_computing_cell_refinement       'SAINT (Bruker, 2012)'
_computing_data_collection       'APEX2 (Bruker, 2012)'
_computing_data_reduction        'SAINT (Bruker, 2012)'
_computing_molecular_graphics    'Mercury (Macrae et al., 2008)'
_computing_publication_material  'SHELXL (Sheldrick, 2015b)'
_computing_structure_refinement  'SHELXL (Sheldrick, 2015b)'
_computing_structure_solution    'SHELXT (Sheldrick, 2015a)'
_diffrn_ambient_temperature      120(2)
_diffrn_measured_fraction_theta_full 0.966
_diffrn_measured_fraction_theta_max 0.961
_diffrn_measurement_device_type  'Bruker D8 QUEST PHOTON-100'
_diffrn_measurement_method       '\w and \f'
_diffrn_radiation_type           CuK\a
_diffrn_radiation_wavelength     1.54178
_diffrn_reflns_av_R_equivalents  0.1517
_diffrn_reflns_limit_h_max       4
_diffrn_reflns_limit_h_min       -4
_diffrn_reflns_limit_k_max       13
_diffrn_reflns_limit_k_min       -13
_diffrn_reflns_limit_l_max       20
_diffrn_reflns_limit_l_min       -15
_diffrn_reflns_number            5506
_diffrn_reflns_theta_full        65.000
_diffrn_reflns_theta_max         66.498
_diffrn_reflns_theta_min         7.877
_exptl_absorpt_coefficient_mu    4.129
_exptl_absorpt_correction_T_max  0.867
_exptl_absorpt_correction_T_min  0.532
_exptl_absorpt_correction_type   multi-scan
_exptl_absorpt_process_details   '(SADABS; Bruker, 2012)'
_exptl_crystal_colour            colourless
_exptl_crystal_density_diffrn    1.621
_exptl_crystal_description       needle
_exptl_crystal_F_000             376
_exptl_crystal_size_max          0.100
_exptl_crystal_size_mid          0.020
_exptl_crystal_size_min          0.020
_refine_diff_density_max         1.181
_refine_diff_density_min         -0.707
_refine_ls_extinction_method     none
_refine_ls_goodness_of_fit_ref   0.998
_refine_ls_hydrogen_treatment    constr
_refine_ls_matrix_type           full
_refine_ls_number_parameters     218
_refine_ls_number_reflns         2571
_refine_ls_number_restraints     0
_refine_ls_restrained_S_all      0.998
_refine_ls_R_factor_all          0.1216
_refine_ls_R_factor_gt           0.0818
_refine_ls_shift/su_max          0.000
_refine_ls_shift/su_mean         0.000
_refine_ls_structure_factor_coef Fsqd
_refine_ls_weighting_details
'w = 1/[\s^2^(Fo^2^)+(0.1444P)^2^] where P=(Fo^2^+2Fc^2^)/3'
_refine_ls_weighting_scheme      calc
_refine_ls_wR_factor_gt          0.2011
_refine_ls_wR_factor_ref         0.2281
_reflns_number_gt                1690
_reflns_number_total             2571
_reflns_threshold_expression     I>2\s(I)
_cod_data_source_file            fa3363sup1.cif
_cod_data_source_block           niclosamide_acetonitrile
_cod_database_code               2019940
_shelx_space_group_comment
;
The symmetry employed for this shelxl refinement is uniquely defined
by the following loop, which should always be used as a source of
symmetry information in preference to the above space-group names.
They are only intended as comments.
;
_shelx_estimated_absorpt_t_min   0.683
_shelx_estimated_absorpt_t_max   0.922
_shelx_hkl_file
;
  -4  -7   1 24.8938 4.51375   1
  -4  -7   2 1.14433 2.43838   1
  -4  -7   3 0.74645 2.21454   1
  -4  -6   1 1.33578 1.50894   1
  -4  -6   2 33.7544 2.77448   1
  -4  -6   3 0.11083 1.28964   1
  -4  -6   4 37.7711 2.74985   1
  -4  -6   5  1.0076 1.38761   1
  -4  -5   1 15.8131 1.92567   1
  -4  -5   2 14.1945 1.80253   1
  -4  -5   3  38.487 2.89568   1
  -4  -5   4 8.43111 1.46767   1
  -4  -5   5 33.9313 2.52786   1
  -4  -5   6 11.2317 1.53368   1
  -4  -4   1 20.5052 2.36006   1
  -4  -4   2 1.37969 1.44705   1
  -4  -4   3 36.8708 2.94898   1
  -4  -4   4 30.0957  2.6643   1
  -4  -4   5 0.89585 1.26104   1
  -4  -4   6 38.4744 2.47827   1
  -4  -4   7  2.9937 1.14567   1
  -4  -3   1 0.19054 1.41853   1
  -4  -3   2 24.6203 2.70257   1
  -4  -3   3 0.02594 1.40635   1
  -4  -3   4 0.79782 1.34236   1
  -4  -3   5 0.68475 1.24101   1
  -4  -3   6 0.76115 1.11765   1
  -4  -3   7 1.55035 1.11667   1
  -4  -3   8 0.44439 1.12409   1
  -4  -2   1 15.9298   1.943   1
  -4  -2   2 7.51039 1.63169   1
  -4  -2   3 1.74393 1.37654   1
  -4  -2   4    0.00 1.33513   1
  -4  -2   5 29.3194 2.25598   1
  -4  -2   6 15.0923 1.83813   1
  -4  -2   7 28.9547 2.36394   1
  -4  -2   8 1.42599   1.073   1
  -4  -1   1    0.00 1.33107   1
  -4  -1   2 5.58481 1.44075   1
  -4  -1   3 22.9192 2.40694   1
  -4  -1   4 16.4687  1.8041   1
  -4  -1   5 10.6137 1.53262   1
  -4  -1   6 22.3054  2.0314   1
  -4  -1   7 14.4155 1.58732   1
  -4  -1   8 2.03602 1.23748   1
  -4   0   1 0.97508 1.20579   1
  -4   0   2 15.6377 1.77301   1
  -4   0   3 14.4881 1.79935   1
  -4   0   4 7.52793 1.36706   1
  -4   0   5 37.3212 2.50225   1
  -4   0   6 12.9561 1.48703   1
  -4   0   7 3.75062 1.16707   1
  -4   0   8 81.1664 4.46551   1
  -4   1   0 10.9417  23.863   1
  -4   1   0 7.48053 1.35575   1
  -4   1   1 13.6022 1.60067   1
  -4   1   2 0.84502 1.08953   1
  -4   1   3 36.3026 2.44991   1
  -4   1   4 0.91413   1.094   1
  -4   1   5 25.3692 2.03243   1
  -4   1   6  2.8481 1.13427   1
  -4   1   7 18.9647 1.84488   1
  -4   1   8 0.13159  1.0185   1
  -4   2   0 2.26453 1.13609   1
  -4   2   1 0.52886 1.05017   1
  -4   2   2 17.2049 1.83486   1
  -4   2   3    0.00 1.05686   1
  -4   2   4 2.02598   1.133   1
  -4   2   5 0.06832 1.06821   1
  -4   2   6 113.603 5.90941   1
  -4   2   7 13.0388  1.5663   1
  -4   3   0 56.8286 3.37253   1
  -4   3   1 36.7791 2.56282   1
  -4   3   2 21.0091 1.99707   1
  -4   3   3 1.39317 1.13013   1
  -4   3   4    0.00 1.10484   1
  -4   3   5    0.00 1.31939   1
  -4   3   6 1.21919 1.18753   1
  -4   4   0 21.4088 1.99379   1
  -4   4   1 1.96996 1.01072   1
  -4   4   2 11.2049 2.15053   1
  -4   4   3 53.1637 3.43072   1
  -4   4   4 4.51678 1.20954   1
  -4   4   5    0.00 2.67822   1
  -4   5   0 0.55175 0.97311   1
  -4   5   1 13.8481 1.48402   1
  -4   5   2 0.51074 1.09623   1
  -3 -11   1 26.1997 3.21558   1
  -3 -11   2 13.1403 2.49594   1
  -3 -11   3 28.2321 3.12368   1
  -3 -10   1 15.0677 2.67988   1
  -3 -10   2 17.1533 2.62773   1
  -3 -10   3 21.7818 2.78857   1
  -3 -10   4  18.984 2.47701   1
  -3 -10   5 12.7927 2.48209   1
  -3 -10   6 17.2752 2.33721   1
  -3  -9   1    0.00 6.23816   1
   3   9  -1-4.35543 26.8787   1
  -3  -9   1 3.25516 10.6882   1
   3   9  -2 34.2932 24.7757   1
  -3  -9   2-0.60649 10.7604   1
  -3  -9   2    0.00 5.01705   1
  -3  -9   3 5.29736 2.17639   1
  -3  -9   4 32.9024 3.35641   1
  -3  -9   5 3.97562 1.76162   1
  -3  -9   6 7.17804 1.79686   1
  -3  -9   7 50.1823 2.83353   1
  -3  -9   8 18.2779 1.66424   1
   3   8  -1 13.8505 18.1914   1
  -3  -8   1 12.7691 9.07388   1
   3   8  -2 7.45519 17.6328   1
  -3  -8   2  -5.028 9.33642   1
   3   8  -3 14.1486 17.6593   1
  -3  -8   3 15.9013 9.90491   1
   3   8  -3  50.784 16.3942   1
  -3  -8   4 0.26337 2.15413   1
   3   8  -4 5.88644 17.5353   1
   3   8  -4   2.039  15.114   1
  -3  -8   4-4.88277 10.6252   1
   3   8  -5 7.44866 17.8631   1
  -3  -8   5 15.4659 2.27013   1
  -3  -8   5 -4.5327  11.845   1
  -3  -8   6 35.8951 2.90869   1
  -3  -8   7 38.6813 2.99376   1
  -3  -8   8  60.751 3.31998   1
  -3  -8   9 22.8284 1.82083   1
  -3  -8  10 0.13899 1.00769   1
  -3  -7   1   39.63 15.8576   1
   3   7  -1  58.317 15.7589   1
  -3  -7   1  26.304 8.28267   1
   3   7  -2 40.7622 14.8389   1
  -3  -7   2 27.4688 8.75186   1
  -3  -7   2 34.0646 9.01308   1
  -3  -7   3 17.5828 11.7622   1
   3   7  -4 -7.3223 12.5307   1
   3   7  -4 9.03029 13.9808   1
  -3  -7   4  18.701 10.6065   1
   3   7  -5 -2.7115 15.7017   1
   3   7  -5 9.49703 12.9667   1
  -3  -7   5 16.4699  3.1846   1
  -3  -7   5 3.20262 10.6793   1
   3   7  -6 10.5841 13.0553   1
  -3  -7   6 29.8504 12.1969   1
  -3  -7   6 16.2222 2.86964   1
   3   7  -6  2.6758 16.2114   1
   3   7  -7 0.55123 14.7036   1
  -3  -7   7 3.90238 1.53413   1
  -3  -7   7 24.4295 13.2893   1
   3   7  -7 8.13794 13.4603   1
  -3  -7   8 97.4929 4.88736   1
  -3  -7   9 31.2926 2.85071   1
  -3  -7  10 85.1895 4.09239   1
  -3  -7  11 46.8344 2.61366   1
   3   6  -1 20.4581 13.1768   1
  -3  -6   1  16.479 7.47322   1
  -3  -6   1 7.59628 1.60282   1
   3   6  -2 3.23736 11.3513   1
  -3  -6   2 2.30547 7.72803   1
  -3  -6   2 1.17758  1.6834   1
  -3  -6   3 39.1949 3.28082   1
   3   6  -3 31.3706 11.3716   1
  -3  -6   3  15.405 8.46855   1
  -3  -6   4 10.2271 8.87653   1
   3   6  -4 46.5309 12.1113   1
  -3  -6   4 37.8677 3.60761   1
  -3  -6   5 10.9481 3.81491   1
   3   6  -5-9.45474 10.2068   1
  -3  -6   5-17.5747 9.70373   1
   3   6  -6 3.32684 13.6322   1
  -3  -6   6-19.4677 11.4491   1
  -3  -6   6  0.2138 2.25274   1
   3   6  -6  1.6195   10.87   1
  -3  -6   7 45.7924 4.06461   1
   3   6  -7 5.61836 13.8158   1
  -3  -6   7-4.77396  11.384   1
   3   6  -8-0.66247 12.6457   1
   3   6  -8 13.3657 16.2146   1
  -3  -6   8  4.2675 2.07592   1
  -3  -6   8-17.9023 12.3797   1
  -3  -6   9 16.6069  1.9583   1
  -3  -6  10 9.43088 1.26909   1
  -3  -6  11 2.51259 0.98867   1
  -3  -6  12 69.3255 3.42557   1
   3   5  -1 92.4552 13.6858   1
  -3  -5   1 85.3744 12.6031   1
  -3  -5   1 131.224 5.37276   1
  -3  -5   2-1.99587 7.12314   1
   3   5  -2 2.83945 10.0303   1
  -3  -5   2 3.66466 1.25301   1
  -3  -5   3-6.11503 7.44001   1
   3   5  -3 0.32996 8.92762   1
  -3  -5   3 9.19161 1.74145   1
  -3  -5   4 27.3217 8.89732   1
  -3  -5   4 65.8266 3.95807   1
   3   5  -5 59.4298 10.9282   1
  -3  -5   5 65.6264 4.34792   1
  -3  -5   5 52.5448 10.2094   1
   3   5  -6 6.50604 9.04569   1
  -3  -5   6  22.032 9.63055   1
  -3  -5   6 21.7278 2.27843   1
  -3  -5   7 1.84895 3.79536   1
   3   5  -7 -7.2305 14.2082   1
   3   5  -7-13.6066 13.0816   1
   3   5  -8  9.3486 9.85862   1
  -3  -5   8 26.1464  12.169   1
   3   5  -8-9.19343 14.0451   1
  -3  -5   9 5.49686 2.11335   1
  -3  -5   9 29.8991 13.0736   1
   3   5  -9-7.91648 10.9301   1
   3   5  -9 13.2436 15.6539   1
  -3  -5  10 0.84643  1.3051   1
  -3  -5  11 1.18295 1.02709   1
  -3  -5  12 17.8178 1.66461   1
  -3  -5  13 11.3879 1.28779   1
  -3  -4   1 44.0714 3.27723   1
  -3  -4   1 29.4697 7.48342   1
   3   4  -1 42.8619 10.1897   1
   3   4  -2 22.6355 8.43443   1
  -3  -4   2 7.61207 7.13671   1
  -3  -4   2 12.1927  1.8893   1
  -3  -4   3 21.8223 7.59505   1
   3   4  -3 14.1383 8.23485   1
  -3  -4   3 16.6692 2.12883   1
  -3  -4   4 5.68815 7.34621   1
   3   4  -4 10.6137 8.39228   1
  -3  -4   4 1.49644 1.39417   1
   3   4  -5 10.9282 7.96736   1
  -3  -4   5 5.49064 1.61222   1
  -3  -4   5 0.76139 7.93741   1
   3   4  -6 29.1805 7.85342   1
  -3  -4   6 21.6528 9.33956   1
  -3  -4   6 41.7457 2.77517   1
  -3  -4   7 3.52381 1.53773   1
   3   4  -7 3.64972 7.78723   1
  -3  -4   7-9.43683 9.51667   1
   3   4  -8 11.7196 13.2381   1
  -3  -4   8 6.81778 15.9437   1
   3   4  -8-35.3373 14.7695   1
  -3  -4   8 23.8198  4.9383   1
  -3  -4   9-3.91529 12.0242   1
   3   4  -9-4.79145 14.2064   1
  -3  -4  10 8.22191 13.9911   1
   3   4 -10 1.45012 16.1395   1
  -3  -4  10 1.18279 1.51946   1
   3   4 -10-4.62096 11.3249   1
  -3  -4  11 10.6712 1.62501   1
  -3  -4  12  22.099 2.10312   1
  -3  -4  13  2.4073  1.0296   1
  -3  -3   1 1.72383 0.88711   1
  -3  -3   1 -12.712 7.76975   1
   3   3  -1 18.0794  8.4756   1
  -3  -3   1 1.56096 6.38885   1
   3   3  -2 66.6262 9.78743   1
  -3  -3   2 49.8718 8.21866   1
  -3  -3   2 52.6013 4.92323   1
  -3  -3   3 36.5962 7.90889   1
  -3  -3   3 48.0855 3.59081   1
  -3  -3   4 37.9232 8.44539   1
   3   3  -4 61.8527 9.07219   1
  -3  -3   4 38.7207 2.75868   1
  -3  -3   5 58.8622 9.74032   1
  -3  -3   5 81.5714 4.43383   1
   3   3  -5 82.6566 13.4465   1
  -3  -3   6-12.7387 7.80969   1
   3   3  -6 6.27302 7.28901   1
  -3  -3   6 0.51585 1.30089   1
   3   3  -7 13.2592 7.38569   1
  -3  -3   7-3.42353 8.70294   1
  -3  -3   7 12.5539 1.66181   1
  -3  -3   8-16.9627 9.71858   1
  -3  -3   8 1.81632 1.38875   1
   3   3  -8 0.34513 7.55917   1
  -3  -3   9 16.3607 2.33526   1
   3   3  -9-1.79817 13.6919   1
   3   3  -9 11.7437 8.59301   1
  -3  -3   9-7.39914 11.3668   1
  -3  -3  10 59.8687 4.48363   1
   3   3 -10-7.23864  17.215   1
  -3  -3  10 27.9979 13.6716   1
   3   3 -10 48.9332 10.5836   1
  -3  -3  11 0.78692 1.34327   1
   3   3 -11 -24.955 12.0064   1
  -3  -3  11  12.313  16.244   1
  -3  -3  12 123.056 6.53643   1
  -3  -3  13 1.33166 1.37519   1
  -3  -3  14 6.80116 2.10897   1
  -3  -2   1  137.43 6.99104   1
   3   2  -1 158.754 18.7732   1
  -3  -2   1 157.455  15.425   1
  -3  -2   1 148.459 14.5769   1
  -3  -2   2 2.39941 7.33166   1
  -3  -2   2 6.70394 4.10464   1
   3   2  -2 16.3809  7.8687   1
  -3  -2   2 12.1694 6.88172   1
  -3  -2   3 5.36784  6.6327   1
   3   2  -3 22.3596 7.39541   1
  -3  -2   3 7.24213 2.61149   1
  -3  -2   4 35.9455 7.95688   1
  -3  -2   4 42.0623 3.01111   1
   3   2  -4 48.1083 7.95512   1
  -3  -2   5 0.62412 1.15496   1
   3   2  -5-1.21288 6.71444   1
  -3  -2   5-0.57412 7.27735   1
   3   2  -6 36.0427 7.60413   1
  -3  -2   6  33.429 8.56961   1
  -3  -2   6 38.8025 2.51026   1
  -3  -2   7 12.1573 1.50161   1
   3   2  -7 16.8157  7.8354   1
  -3  -2   7 7.34298 9.06894   1
   3   2  -8 30.2519 7.71018   1
  -3  -2   8 38.7436 2.62233   1
  -3  -2   8  33.398 11.0137   1
  -3  -2   9 0.17093 1.84228   1
   3   2  -9 6.62511 9.52073   1
  -3  -2  10 6.44903 13.6167   1
   3   2 -10 18.9153 9.10384   1
   3   2 -10 2.58807 19.4548   1
  -3  -2  10 19.9867 2.08093   1
  -3  -2  11 9.50381  1.8874   1
  -3  -2  11-0.20977 15.3641   1
   3   2 -11 2.02245 11.1981   1
  -3  -2  12 6.79571 1.74675   1
  -3  -2  13 17.7316 2.29091   1
  -3  -2  14 11.4108 1.79841   1
  -3  -1   1 24.3636 6.97892   1
  -3  -1   1 6.71294 5.59935   1
  -3  -1   1 12.4575 2.90817   1
   3   1  -1 27.5605 8.97905   1
  -3  -1   2 104.619 13.3815   1
  -3  -1   2 73.2518 11.4098   1
   3   1  -2 95.2548 11.2176   1
  -3  -1   2 77.9931 9.11853   1
  -3  -1   3 27.2709 7.78691   1
  -3  -1   3 28.9201 4.31718   1
  -3  -1   3 22.3281 7.16799   1
   3   1  -3 29.0422 7.63373   1
  -3  -1   4 13.3985 4.85158   1
  -3  -1   4  4.6349 7.21201   1
   3   1  -4 4.20096 7.05841   1
  -3  -1   5 15.8372 7.68689   1
  -3  -1   5 8.33448 1.30197   1
   3   1  -5 16.5642 7.68464   1
  -3  -1   6 23.1372 8.29269   1
   3   1  -6 26.5834 7.87616   1
  -3  -1   6 24.1643 1.90694   1
  -3  -1   7  80.384 3.49469   1
   3   1  -7 153.901 15.6012   1
  -3  -1   7 92.2834 16.2727   1
  -3  -1   8 3.86989 1.28801   1
   3   1  -8 3.41881 8.36806   1
  -3  -1   8 15.2456 10.0687   1
  -3  -1   9 19.1498  14.807   1
  -3  -1   9 49.1603 5.29782   1
  -3  -1  10 3.06105 1.42668   1
  -3  -1  10 21.9391 13.4986   1
   3   1 -10 8.03428  8.7888   1
  -3  -1  11 29.3006 15.8277   1
  -3  -1  11 8.98456 2.15571   1
   3   1 -11 21.8312 11.0525   1
  -3  -1  12 3.98907 1.61266   1
  -3  -1  13 43.2115 4.37397   1
  -3  -1  14 1.78094 1.37644   1
   3   0  -1 116.969   18.01   1
  -3   0   1 79.2274 11.5604   1
  -3   0   1 88.9756 11.8862   1
  -3   0   1 98.5167 6.88579   1
   3   0  -2 34.3121 8.78228   1
  -3   0   2  18.039 6.05809   1
  -3   0   2 31.8681 7.37485   1
  -3   0   2 22.1184 3.85199   1
  -3   0   3  8.5717 6.82529   1
   3   0  -3 2.69956 7.32623   1
  -3   0   3 8.84241 3.83161   1
  -3   0   3-0.63216 6.12079   1
  -3   0   4-11.8187 7.75868   1
  -3   0   4 3.44737 7.21692   1
   3   0  -4-1.09579 7.27928   1
  -3   0   4 0.26109 1.77402   1
  -3   0   5 110.264 4.90912   1
   3   0  -5 124.674 15.8067   1
  -3   0   5  117.46 15.2674   1
  -3   0   6 2.03567 1.16125   1
  -3   0   6-12.1612 8.31806   1
   3   0  -6  12.169 7.72962   1
  -3   0   7 36.2376 10.5216   1
   3   0  -7 56.8753 10.1403   1
  -3   0   7 52.7476 2.79893   1
  -3   0   8 29.1271 11.6617   1
  -3   0   8 45.2248   2.681   1
   3   0  -8 48.2044  9.5187   1
   3   0  -9 19.9051 21.6448   1
  -3   0   9-13.1864 17.2006   1
  -3   0   9    0.00 3.05252   1
   3   0 -10 10.7959 10.4154   1
  -3   0  10-20.8787 14.0541   1
  -3   0  10    0.00 2.09694   1
  -3   0  11 -8.7354 16.4468   1
  -3   0  11 2.66769 1.70138   1
   3   0 -11 20.1568 11.3959   1
  -3   0  12 72.0146  5.9339   1
  -3   0  13 9.38735  2.9698   1
  -3   0  14 2.99064 1.93368   1
  -3   1   0 22.9959 6.27954   1
  -3   1   0 7.49789 7.05915   1
  -3   1   0 18.3691 3.71895   1
   3  -1  -1 45.2898 10.9192   1
  -3   1   1 79.8384 11.5379   1
  -3   1   1 52.4517 7.55735   1
  -3   1   1 91.6349 8.75762   1
  -3   1   2    0.00 2.41653   1
   3  -1  -2-16.4225  8.1987   1
  -3   1   2 9.61162 7.06542   1
  -3   1   2-3.46728 5.53325   1
  -3   1   3 17.5508 1.89341   1
  -3   1   3 6.37795 8.04336   1
  -3   1   3  10.519 6.53451   1
   3  -1  -3 2.04722 6.91354   1
  -3   1   4  204.89 19.7731   1
  -3   1   4 244.022 20.0028   1
  -3   1   4 217.389 8.48744   1
   3  -1  -4  209.56 19.1803   1
   3  -1  -5-9.06491 7.02356   1
  -3   1   5-1.95804 8.98634   1
  -3   1   5-3.05407 8.52285   1
  -3   1   5 4.24392 1.86352   1
   3  -1  -6 756.883 52.3844   1
  -3   1   6 657.802 23.5747   1
  -3   1   7 17.3048 10.8643   1
  -3   1   7 17.5776  2.0267   1
   3  -1  -7 12.2525 8.27778   1
  -3   1   8 14.6109  12.226   1
   3  -1  -8 6.01757 9.23994   1
  -3   1   8 7.33516 1.77561   1
  -3   1   9 8.61938 2.28802   1
  -3   1   9 18.7583 22.4948   1
   3  -1  -9 19.7155 10.4437   1
   3  -1 -10 20.2219 10.8558   1
  -3   1  10 5.60743 15.5808   1
   3  -1 -11 23.6639 12.6846   1
  -3   1  11    0.00 2.69325   1
  -3   1  12 1.53396 2.43844   1
  -3   1  13  8.0029 3.45959   1
  -3   1  14 1.15613  2.4972   1
  -3   2   0-5.75787 8.14324   1
  -3   2   0 10.4749 3.07118   1
  -3   2   0 16.4288 5.79904   1
  -3   2   1 26.4151 8.51092   1
   3  -2  -1 20.5186  10.593   1
  -3   2   1 19.9787 2.28039   1
  -3   2   1 36.3198 7.37076   1
  -3   2   2 18.9366 8.35924   1
   3  -2  -2  24.265 9.54185   1
  -3   2   2   38.18 3.87989   1
  -3   2   2  27.242  6.7775   1
  -3   2   3 27.2432 7.65493   1
   3  -2  -3 32.3605 8.88789   1
  -3   2   3 20.9352 2.23147   1
  -3   2   3  33.025 9.10411   1
  -3   2   4 1.18614 9.61193   1
   3  -2  -4-3.77617 7.55208   1
  -3   2   4 1.35998 1.37319   1
  -3   2   4 4.02505 7.95011   1
  -3   2   5 8.36061 2.97233   1
   3  -2  -5 2.11575 7.50675   1
  -3   2   5 17.3159 9.09089   1
  -3   2   5 20.0052   10.27   1
  -3   2   6 13.9008 2.17827   1
  -3   2   6 42.0195 11.6083   1
  -3   2   6 37.8672   11.89   1
  -3   2   7 35.7282 3.12153   1
  -3   2   7 44.6713 12.9408   1
   3  -2  -7 33.9063  8.3798   1
  -3   2   8    0.00  3.8267   1
  -3   2   8 18.4564 13.4905   1
   3  -2  -9 50.8225 11.6664   1
  -3   2   9 59.6439 9.03883   1
  -3   2   9 59.3886 15.8811   1
   3  -2 -10 28.9339 12.5297   1
  -3   2  10 24.6905 17.6656   1
  -3   2  10 3.83658 3.45455   1
  -3   2  11 3.78278 2.77788   1
  -3   2  11-2.96227 18.8452   1
  -3   2  12 18.7655 3.22672   1
  -3   2  13 6.01199 1.62521   1
  -3   3   0 11.8175 6.32417   1
  -3   3   0 2.73524 1.83399   1
  -3   3   1 111.091  5.6751   1
  -3   3   1 121.205 16.0893   1
  -3   3   1 145.208 15.4792   1
   3  -3  -2 47.6154 11.2687   1
  -3   3   2 30.2821 3.15878   1
  -3   3   2 15.5068 9.43863   1
  -3   3   2 17.1623 7.89058   1
   3  -3  -3 45.5264 10.6876   1
  -3   3   3 31.6682 9.37331   1
  -3   3   3 46.0489 10.6378   1
  -3   3   3 33.0776 3.64892   1
   3  -3  -4  16.679 9.08896   1
  -3   3   4 11.3514 1.92548   1
  -3   3   4 14.9954 10.8627   1
  -3   3   4  16.267 9.66935   1
   3  -3  -5 31.3449 9.88309   1
  -3   3   5 34.5513 12.2951   1
  -3   3   5 14.0872 2.79015   1
  -3   3   5 49.0596 11.6158   1
  -3   3   6 94.7605 15.2977   1
  -3   3   6   69.31 4.86811   1
  -3   3   6  96.912 16.0912   1
   3  -3  -6 94.7614  15.581   1
  -3   3   7 8.72757 23.6879   1
  -3   3   7 52.4068 14.9824   1
   3  -3  -7 56.8997 16.6512   1
   3  -3  -8 32.2415 9.18892   1
  -3   3   8 7.85102 15.9377   1
  -3   3   9 14.0467 16.8401   1
  -3   3   9    0.00 7.27896   1
   3  -3  -9-20.4753 9.13926   1
   3  -3 -10 42.3412 13.2899   1
  -3   3  10 20.9181 4.82189   1
  -3   3  10 27.3591 18.4924   1
  -3   3  11 4.32091 4.16095   1
  -3   3  12    0.00 3.16753   1
  -3   3  13 2.25159 2.90475   1
  -3   4   0 16.2585 8.10609   1
  -3   4   0 10.8708 2.07938   1
  -3   4   1 4.37378 7.76894   1
  -3   4   1-7.49714 15.6351   1
  -3   4   1 3.32988 1.51027   1
  -3   4   2 74.1851  12.872   1
   3  -4  -2 69.9233 23.1818   1
  -3   4   2 96.8411 5.56685   1
  -3   4   3  0.8071 9.13551   1
   3  -4  -3-6.43815 12.1498   1
  -3   4   3    0.00 2.59509   1
  -3   4   3 24.8997 11.5454   1
  -3   4   4 21.1486 13.2075   1
   3  -4  -4-14.1408 10.8932   1
  -3   4   4 3.02098 1.86707   1
  -3   4   4  8.9059 10.7567   1
  -3   4   5  0.1864 2.24384   1
   3  -4  -5-1.96134 10.3794   1
  -3   4   5-5.62333 12.0165   1
  -3   4   5 4.69197 14.2003   1
  -3   4   6 61.2537 8.79943   1
   3  -4  -6 76.3407 14.7948   1
  -3   4   6 59.8865 15.4987   1
  -3   4   6 44.3488 21.3638   1
  -3   4   7  1.1952 17.6322   1
   3  -4  -7-12.3078 9.64706   1
  -3   4   7 2.49049 17.9339   1
  -3   4   8 0.46641 4.60211   1
   3  -4  -8-4.40116 10.0338   1
  -3   4   8 -27.161 18.0288   1
  -3   4   9 22.6175 5.22692   1
   3  -4  -9 41.0279 10.7729   1
  -3   4   9 38.0437 19.7793   1
  -3   4  10 6.06485 5.79326   1
  -3   4  11 1.36232 2.78694   1
  -3   4  12 5.06202 2.77241   1
  -3   5   0 121.115 5.43234   1
  -3   5   0 113.369 17.0959   1
  -3   5   1 3.17335 1.99358   1
  -3   5   1-3.15599 8.95995   1
  -3   5   2-2.92155 9.63449   1
  -3   5   2-4.61083 17.0601   1
  -3   5   2 0.88514 2.49328   1
  -3   5   3 11.5325 14.7251   1
  -3   5   3 16.8577 11.3258   1
  -3   5   3 9.52976    3.03   1
   3  -5  -4 2.87252  13.881   1
  -3   5   4 23.5938 20.4885   1
  -3   5   5 69.0529 15.5019   1
  -3   5   5 49.5121 17.5162   1
  -3   5   5 69.6334 7.82675   1
   3  -5  -5 33.0837 12.9747   1
  -3   5   6 4.81703 16.9178   1
   3  -5  -6-6.95156 11.4183   1
  -3   5   6 41.3937 18.7208   1
  -3   5   6 1.18022 3.48591   1
  -3   5   7 4.85953 3.89383   1
   3  -5  -7 1.50382 10.7324   1
  -3   5   7   19.61 19.9063   1
  -3   5   7-14.5433 19.8876   1
   3  -5  -8 56.5215 12.0484   1
  -3   5   8 29.8979 21.0423   1
  -3   5   9    0.00 4.58826   1
  -3   5  10 2.49994 2.81897   1
  -3   5  11 2.02641 7.21481   1
  -3   6   0  5.3025 10.0669   1
  -3   6   0 14.1003 2.73581   1
  -3   6   1 14.6956 10.5496   1
  -3   6   1 13.0245 3.74713   1
  -3   6   2  1.7772 12.3562   1
  -3   6   2 5.08611  3.4919   1
  -3   6   3 6.60284 12.6624   1
  -3   6   3  20.531 3.48279   1
  -3   6   4 15.6308 3.39041   1
  -3   6   4 32.2986 19.3211   1
  -3   6   4 24.2388 15.7394   1
   3  -6  -4-26.7438 17.9545   1
  -3   6   5  7.5171 3.10679   1
  -3   6   5 45.3763 16.6202   1
   3  -6  -5-30.5683 15.3594   1
  -3   6   5 6.30538 19.4741   1
  -3   6   6 24.4487 19.4834   1
  -3   6   6 16.3573 3.44212   1
  -3   6   6 20.6008 20.8534   1
   3  -6  -6  0.4982  13.986   1
  -3   6   7 0.53222 4.39221   1
  -3   6   8  0.6849 3.94033   1
  -3   6  10 76.3613 8.32761   1
  -3   7   0 28.3434 3.34058   1
  -3   7   0  20.898 11.4533   1
  -3   7   1-17.3359 11.7484   1
  -3   7   1 1.94299 1.83039   1
  -3   7   2 54.0337 15.2625   1
  -3   7   2 32.2259  3.4986   1
  -3   7   3 -4.9809 14.7678   1
  -3   7   3  1.1929 1.94976   1
  -3   7   4 13.5817 2.53774   1
  -3   7   5  12.386 2.54074   1
  -3   7   7   3.932 3.63796   1
  -3   7   8  63.079 7.43219   1
  -3   8   0  44.147 6.04656   1
  -3   8   1 27.5277 6.08759   1
  -3   8   2    0.00 3.86799   1
  -3   8   3    0.00 3.85366   1
  -3   8   4 21.1005 4.93639   1
  -3   8   5    0.00 6.60275   1
  -3   8   6 19.5748 4.60159   1
  -3   9   0  8.8232 4.04936   1
  -3   9   1  53.337 6.84926   1
  -2 -13   1 16.1847 1.78453   1
  -2 -12   1 5.06425 1.25609   1
  -2 -12   2 16.8494 1.88883   1
  -2 -12   3 0.39054 0.98778   1
  -2 -12   4 4.85165 1.14382   1
  -2 -12   5 24.8036 2.26373   1
  -2 -12   6 0.02342 0.94969   1
  -2 -11   1 101.966 16.3765   1
  -2 -11   1  93.583 6.01814   1
  -2 -11   2 30.2349 9.89181   1
  -2 -11   2 12.7942 1.99354   1
  -2 -11   3 38.8698  3.2516   1
   2  11  -3 70.7519 29.1161   1
  -2 -11   3 35.3874 10.8415   1
  -2 -11   4 14.6426 1.99711   1
  -2 -11   5 41.5759 3.19008   1
  -2 -11   6 1.54356 1.10608   1
  -2 -11   7 3.08388 1.09225   1
  -2 -11   8 4.97259 1.18534   1
  -2 -11   9 16.1011 1.80424   1
  -2 -10   1 18.2762 7.48373   1
  -2 -10   1 52.6965 10.0913   1
   2  10  -1-12.2379 29.5965   1
  -2 -10   2 27.3312 3.39313   1
   2  10  -2-2.06507 18.0487   1
   2  10  -3-9.61377  17.611   1
  -2 -10   3-7.82094 8.08667   1
  -2 -10   3 6.67758 2.65134   1
   2  10  -4 23.3587 17.7699   1
  -2 -10   4 43.4819 9.65256   1
  -2 -10   4 76.5366  5.2657   1
   2  10  -5 -4.8779 18.4744   1
  -2 -10   5 5.73724 9.81477   1
  -2 -10   5 12.1338 4.21049   1
  -2 -10   6-5.06932 11.6274   1
  -2 -10   6 17.7076 2.17879   1
   2  10  -6 -1.5032  17.052   1
  -2 -10   7-15.6865 13.8091   1
  -2 -10   7 2.66527 1.16629   1
  -2 -10   8 3.17101 1.13438   1
  -2 -10   9 4.28298 1.05453   1
  -2 -10  10  14.715 1.59275   1
  -2 -10  11 55.2746  3.2367   1
  -2  -9   1 31.0089 6.49517   1
  -2  -9   1 57.9246  3.5453   1
   2   9  -1 37.7519 16.7189   1
  -2  -9   2 5.38449 1.36233   1
  -2  -9   2-5.45886 5.46748   1
   2   9  -2-16.6061 14.5457   1
  -2  -9   3 3.05206 6.26495   1
  -2  -9   3 28.8538 2.29983   1
   2   9  -3 9.96185 14.9672   1
  -2  -9   4 1.41833 1.31141   1
  -2  -9   4-12.6492 6.81366   1
   2   9  -4 8.59071 14.3687   1
  -2  -9   5  27.453 3.02143   1
  -2  -9   5-1.54179 7.59774   1
   2   9  -5 2.92472  14.535   1
  -2  -9   6 49.9961 11.6434   1
   2   9  -6  60.327 19.2146   1
  -2  -9   6 114.775  9.8938   1
  -2  -9   7 68.5888 11.9914   1
  -2  -9   7 142.367 8.47802   1
   2   9  -7 57.6258 16.4541   1
  -2  -9   8  9.5667 1.57984   1
   2   9  -8 -3.2971 14.2619   1
  -2  -9   9 21.1446 1.88097   1
  -2  -9   9-39.3832 16.8239   1
   2   9  -9-9.46618 15.6558   1
  -2  -9  10 3.53853 1.01066   1
  -2  -9  11 17.3573  1.7767   1
  -2  -9  12 11.5819 1.41205   1
  -2  -8   1  73.478 4.83837   1
   2   8  -1 43.4441 14.8534   1
  -2  -8   1 38.0507 5.98248   1
  -2  -8   2  2.1346 1.06715   1
  -2  -8   2-0.60323 5.10161   1
   2   8  -2 9.17534 13.7344   1
  -2  -8   3 62.0987 3.63825   1
   2   8  -3 13.9317 12.4974   1
  -2  -8   3 33.0834  6.2439   1
  -2  -8   4   25.36 6.46019   1
  -2  -8   4 43.8137 2.49892   1
   2   8  -4 32.8997 13.7361   1
   2   8  -5-6.82793 12.4826   1
  -2  -8   5 16.2331 7.38733   1
  -2  -8   5 6.67243 1.14749   1
  -2  -8   6 148.592 6.86827   1
  -2  -8   6 126.227  15.847   1
   2   8  -7-4.21359 12.1023   1
  -2  -8   7 2.61836 9.35834   1
  -2  -8   7 10.3404 1.49044   1
  -2  -8   8 258.449   22.08   1
  -2  -8   8 221.112 26.1943   1
   2   8  -9 3.36499 13.8894   1
  -2  -8   9 21.1902 12.9916   1
  -2  -8   9 26.3511 2.72177   1
  -2  -8  10 81.2974 18.1466   1
   2   8 -10 1.40592 14.4759   1
  -2  -8  10 34.7927  3.1589   1
  -2  -8  11 0.47491 1.01415   1
  -2  -8  12 14.0055 1.47275   1
  -2  -8  13 6.94233 1.08158   1
  -2  -7   1   2.712 0.86633   1
  -2  -7   1 7.46217 4.21122   1
   2   7  -1  8.7844 6.40299   1
   2   7  -2 4.55779 6.05537   1
  -2  -7   2 10.9956 1.65361   1
  -2  -7   2   6.173 4.91154   1
   2   7  -2 -6.8982 10.7347   1
   2   7  -3 6.12871 5.95053   1
  -2  -7   3  18.163  1.6647   1
  -2  -7   3 9.85529  4.8879   1
   2   7  -3 11.4537 10.3027   1
   2   7  -4 61.7829 8.36143   1
  -2  -7   4 91.2935 5.69527   1
  -2  -7   4 72.6493 10.0571   1
   2   7  -4 45.0746 12.9729   1
   2   7  -5 0.32686  6.1282   1
  -2  -7   5 8.83406 1.22034   1
   2   7  -5  9.3327 10.5534   1
  -2  -7   5-2.20653 6.19537   1
   2   7  -6 18.9586 7.17364   1
  -2  -7   6 7.37517 7.47458   1
   2   7  -6 18.2864 12.2192   1
  -2  -7   6 36.2438 3.44054   1
  -2  -7   7-5.38595 8.23359   1
  -2  -7   7 7.89453 1.22293   1
   2   7  -7 9.17811 7.16569   1
   2   7  -7 2.87162 11.1865   1
  -2  -7   8-9.63509 9.43477   1
   2   7  -8 4.95571 11.1712   1
  -2  -7   8 3.57553 1.14494   1
   2   7  -8 0.05769 8.13675   1
   2   7  -9  39.973 10.5041   1
  -2  -7   9 44.7805 3.77514   1
   2   7  -9 27.1332 13.3154   1
  -2  -7   9 15.5787 12.1479   1
  -2  -7  10 44.0321 15.2155   1
   2   7 -10 40.2074 16.1742   1
  -2  -7  10 87.2783 6.55916   1
   2   7 -11-0.34451 13.3924   1
  -2  -7  11-17.8797 18.1417   1
  -2  -7  11 23.6909 4.24015   1
  -2  -7  12 8.24828 1.60977   1
  -2  -7  13 7.31554  1.2022   1
  -2  -7  14 33.2434 2.17003   1
  -2  -6   1 42.7722 6.80838   1
  -2  -6   1 57.6767 2.42362   1
   2   6  -1 45.5792 9.62149   1
  -2  -6   2 1.11063 4.33288   1
   2   6  -2-1.25301 4.40377   1
  -2  -6   2 7.10192 1.04511   1
  -2  -6   3  70.806 8.41217   1
   2   6  -3   52.49 8.66884   1
  -2  -6   3 75.9942 3.92332   1
  -2  -6   4 17.7147 1.73527   1
   2   6  -4 9.37478 4.80745   1
  -2  -6   4 15.9283  5.3727   1
   2   6  -5 7.17054 10.1275   1
   2   6  -5 19.1898 5.19134   1
  -2  -6   5 24.5225 5.82338   1
  -2  -6   5   44.04 4.47029   1
  -2  -6   6    0.00   3.902   1
   2   6  -6 11.0183 10.3859   1
  -2  -6   6 0.41572 6.45826   1
   2   6  -6-5.65535 4.67029   1
  -2  -6   7 32.7047 8.11702   1
   2   6  -7   27.71 6.07075   1
   2   6  -7 8.31287 10.7815   1
  -2  -6   7 27.2314 1.99383   1
  -2  -6   8-1.88489 8.46776   1
  -2  -6   8 1.90665 1.02425   1
   2   6  -8 5.42378 6.27448   1
   2   6  -8 1.39568 12.0505   1
  -2  -6   9 28.5723 10.3327   1
   2   6  -9 14.9054 7.46884   1
   2   6  -9  8.7953  14.298   1
  -2  -6   9 22.3647 1.99268   1
   2   6 -10 46.7741 10.3772   1
  -2  -6  10 51.1321 3.26994   1
  -2  -6  10 53.6055 12.1216   1
   2   6 -10 15.9532 13.5479   1
   2   6 -11 22.9197 12.9499   1
  -2  -6  11-17.4399 14.9937   1
   2   6 -11-4.56386 15.6712   1
  -2  -6  11 7.09644 1.80755   1
   2   6 -12  10.164 16.3925   1
  -2  -6  12 35.8449 6.94345   1
  -2  -6  13 1.31617 1.39351   1
  -2  -6  14 5.93885 1.51489   1
  -2  -6  15 13.0082 1.55468   1
  -2  -5   1 212.383 16.8164   1
   2   5  -1 261.135 19.4841   1
  -2  -5   1  252.32 9.59888   1
  -2  -5   2 26.9254 1.39291   1
  -2  -5   2 16.6934 4.33729   1
   2   5  -2 22.0733 4.13053   1
  -2  -5   3 22.2756 1.56025   1
  -2  -5   4 145.603 8.21929   1
  -2  -5   4 196.985 14.4771   1
   2   5  -4 159.548  13.862   1
  -2  -5   5 18.5499 5.44018   1
   2   5  -5 11.1256 4.31083   1
  -2  -5   5 20.5597 4.50857   1
  -2  -5   6   11.98 1.32117   1
   2   5  -6 4.16434  3.8588   1
  -2  -5   6 13.1657 5.86846   1
  -2  -5   7-3.31117 6.03905   1
  -2  -5   7 1.06205 0.84535   1
   2   5  -7 11.4158 10.4447   1
   2   5  -7-1.01264 4.13472   1
   2   5  -8-1.52463 12.8385   1
  -2  -5   8 37.0785 7.90391   1
  -2  -5   8 28.3393 2.00254   1
   2   5  -8 22.7878 5.49598   1
  -2  -5   9 0.41685 1.04183   1
   2   5  -9 4.30074 11.7084   1
  -2  -5   9  2.2605 8.62647   1
   2   5  -9-0.87381 5.41454   1
  -2  -5  10 64.6027 3.97382   1
   2   5 -10  20.948 15.3022   1
  -2  -5  10 59.5214 11.4846   1
   2   5 -10 58.3817 8.65443   1
  -2  -5  11 8.54598 12.6951   1
  -2  -5  11 17.4431 2.13099   1
   2   5 -11 29.8077 9.57829   1
   2   5 -11 13.1293 14.6965   1
  -2  -5  12 42.0648 17.0198   1
   2   5 -12-1.08083 13.4069   1
   2   5 -12 8.83893  14.284   1
   2   5 -13-17.7147 17.3482   1
  -2  -5  14 0.12859 1.40134   1
  -2  -5  15 23.7538 2.40603   1
  -2  -5  16 5.47088 2.36824   1
  -2  -4   1 48.5945 1.98999   1
  -2  -4   1 41.0173 7.30427   1
   2   4  -1 40.6283 5.78197   1
  -2  -4   1 35.8033 5.58461   1
  -2  -4   2 173.028 6.92874   1
  -2  -4   2 174.211  12.496   1
   2   4  -2 167.703 12.3443   1
  -2  -4   2 126.825 14.2949   1
   2   4  -3 47.3034 6.02173   1
  -2  -4   3 37.9258 1.75952   1
  -2  -4   3 35.1711 7.30695   1
  -2  -4   4  11.467 3.98699   1
  -2  -4   4 12.8349 4.26069   1
   2   4  -4 2.47592 3.09909   1
  -2  -4   5 1.29373 0.63329   1
  -2  -4   6-1.44635 4.97808   1
  -2  -4   6 1.49862 0.68411   1
   2   4  -6 5.36481 3.04924   1
  -2  -4   7 85.1194  4.1434   1
   2   4  -7 72.1725 8.19461   1
  -2  -4   7 97.7327 11.3131   1
  -2  -4   8  31.929 2.93633   1
   2   4  -8 25.2657 4.86566   1
  -2  -4   8 41.2586 7.94758   1
   2   4  -8 5.78698 10.7337   1
  -2  -4   9 30.4892 8.30783   1
   2   4  -9 21.0879   4.657   1
   2   4  -9  16.606 12.8428   1
  -2  -4   9 24.8889 2.18271   1
  -2  -4  10  97.258 5.42202   1
   2   4 -10 64.5717  9.9256   1
  -2  -4  10 91.0158 14.9677   1
   2   4 -11 8.86254 13.1156   1
  -2  -4  11 16.0793 11.2966   1
  -2  -4  11 25.1623 3.23894   1
   2   4 -11 11.6104 7.23675   1
  -2  -4  12-40.4595 19.2487   1
   2   4 -12-16.5652 9.78661   1
   2   4 -12-11.2722 26.2726   1
  -2  -4  13 16.8638 22.1945   1
   2   4 -13-17.6869 16.1395   1
   2   4 -13-5.57972 20.5318   1
  -2  -4  14 11.0525 3.57029   1
  -2  -4  15 4.82159 1.73115   1
  -2  -4  16 78.5345 6.29291   1
  -2  -3   1 3.40154 3.11832   1
  -2  -3   1-3.35849 2.88651   1
  -2  -3   1 1.02466 0.36389   1
   2   3  -1-0.18005 2.54016   1
  -2  -3   2 7.45966 3.09996   1
  -2  -3   2 6.10957 0.74331   1
   2   3  -2 4.39718 2.83183   1
  -2  -3   2 6.51006 3.51932   1
  -2  -3   3 12.6878 4.59562   1
  -2  -3   3 3.30744  0.4614   1
  -2  -3   4 64.8127 3.37464   1
   2   3  -4  65.277 7.05896   1
  -2  -3   4 60.1397  7.4789   1
  -2  -3   5 54.6213 7.53621   1
   2   3  -5 63.0501 6.44387   1
  -2  -3   5 69.2101 4.03142   1
  -2  -3   6 39.4817 2.40822   1
  -2  -3   6 30.1896 6.86706   1
  -2  -3   7 9.68983 5.69659   1
   2   3  -7 5.04831 3.27957   1
  -2  -3   7 1.32787 0.86385   1
  -2  -3   8 85.7556 11.0391   1
  -2  -3   8 81.6714 4.16131   1
   2   3  -8 76.6741 7.96914   1
   2   3  -9 3.04523  3.6366   1
  -2  -3   9 13.3331 7.36975   1
  -2  -3   9 2.14404  1.1049   1
   2   3  -9-3.99613 11.4166   1
  -2  -3  10 33.2933 3.35206   1
  -2  -3  10 42.7753 8.97779   1
   2   3 -10 15.2986 11.8863   1
   2   3 -11 82.0572  9.9227   1
  -2  -3  11 61.8843 11.4529   1
  -2  -3  11  57.037 4.07089   1
  -2  -3  12 2.43355 2.63003   1
  -2  -3  12-2.33453 12.3521   1
   2   3 -12 13.3328 15.3606   1
   2   3 -13 7.19187 11.6368   1
  -2  -3  13-11.6938 16.4532   1
  -2  -3  15 52.4762 3.91809   1
  -2  -3  16 6.68691 2.79218   1
  -2  -3  17 48.5665  3.4235   1
   2   2  -1 2.54288 2.49292   1
  -2  -2   1 2.92723 0.40704   1
  -2  -2   1 2.33629 2.29064   1
  -2  -2   1  0.9194 3.19582   1
  -2  -2   2-3.10603 2.93956   1
  -2  -2   2 1.15589 0.34364   1
  -2  -2   2 6.28377 2.57507   1
   2   2  -2 2.13116 2.67473   1
  -2  -2   3 108.957 9.56783   1
  -2  -2   3 128.246 4.93618   1
   2   2  -3 111.476 9.00233   1
  -2  -2   3 117.335 9.35496   1
  -2  -2   4 35.7926 2.00596   1
  -2  -2   4 46.6294 7.04992   1
   2   2  -4 39.6191 5.40229   1
  -2  -2   5 11.2796  5.0529   1
   2   2  -5 7.51405 3.08308   1
  -2  -2   5  9.7421 1.10006   1
  -2  -2   6 1.09425  0.7374   1
   2   2  -6 6.23645 2.81934   1
  -2  -2   6 0.69253 4.55963   1
   2   2  -7 55.5567 6.45503   1
  -2  -2   7 61.9978 3.32682   1
   2   2  -8 40.6455 6.16085   1
  -2  -2   8 39.9759 7.29878   1
  -2  -2   8 46.5439 3.40569   1
  -2  -2   9 14.8015 6.86361   1
   2   2  -9 14.0003  3.8864   1
  -2  -2   9 11.7796 1.83572   1
   2   2 -10 110.821 10.3427   1
  -2  -2  10 128.927 14.9645   1
  -2  -2  10 137.457 7.77583   1
  -2  -2  11 122.326 17.5167   1
   2   2 -11 127.976 11.4398   1
  -2  -2  11 173.395 9.51267   1
   2   2 -12 7.56567 6.05623   1
  -2  -2  12-5.88588 11.1426   1
  -2  -2  12 3.30754 2.97052   1
   2   2 -12 19.0697 18.4594   1
   2   2 -14-0.71776 16.6674   1
  -2  -2  15 0.76003 2.87891   1
  -2  -2  16  12.771 2.85958   1
  -2  -2  17 28.2571 7.95455   1
   2   1  -1 35.3175 5.10678   1
  -2  -1   1 34.0407 1.51235   1
  -2  -1   1 34.0558 5.51952   1
  -2  -1   1 32.7069 4.45686   1
  -2  -1   2 105.274  8.9577   1
  -2  -1   2 114.838 4.44884   1
  -2  -1   2 97.9383 8.22823   1
   2   1  -2  105.42 8.33327   1
   2   1  -3 87.1636 7.19028   1
  -2  -1   3 76.1494 7.71047   1
  -2  -1   3 72.9828   7.194   1
  -2  -1   3 94.0948 4.87539   1
  -2  -1   4-0.50251 2.89302   1
  -2  -1   4 4.85857 0.70471   1
   2   1  -4 5.03834 2.48634   1
  -2  -1   4 2.52059 3.56511   1
  -2  -1   5 10.4842 1.14796   1
  -2  -1   5 5.23566 3.80131   1
  -2  -1   5 14.3847 4.11482   1
  -2  -1   6-1.39165 3.98006   1
  -2  -1   6 1.71465 0.72468   1
   2   1  -6 4.91378 2.75451   1
  -2  -1   7 0.38129 0.72366   1
   2   1  -7 1.49691 3.20113   1
   2   1  -8 0.66524 3.04417   1
  -2  -1   8 3.26124 1.04074   1
  -2  -1   8 2.24469 5.53806   1
  -2  -1   9  32.798 7.91811   1
  -2  -1   9  59.758 10.6486   1
  -2  -1  10 69.8799  7.6253   1
  -2  -1  10 53.9922 9.07163   1
   2   1 -10  63.114 7.80413   1
  -2  -1  11 27.9113 4.27447   1
   2   1 -11 8.34667 16.4915   1
   2   1 -11 6.62794 4.41367   1
  -2  -1  11  20.818 9.43094   1
  -2  -1  12 56.2247 5.84352   1
  -2  -1  12 58.6381 12.6461   1
   2   1 -12 59.1169 9.43721   1
  -2  -1  13-4.93581 15.1812   1
   2   1 -13 9.07493 8.10487   1
   2   1 -14-24.8793 12.3352   1
  -2  -1  14 8.60949 19.0767   1
  -2  -1  15    0.00 4.07506   1
  -2  -1  16 69.6294 4.76785   1
  -2  -1  17 4.70745 5.54354   1
  -2   0   1 192.087 14.3535   1
  -2   0   1 209.318 14.7197   1
  -2   0   1 212.427 7.24578   1
   2   0  -1 208.517 14.4911   1
   2   0  -2 165.512 12.3211   1
  -2   0   2 162.604 6.83485   1
  -2   0   2 175.449 12.8116   1
  -2   0   2 166.132 12.2466   1
   2   0  -3 5.53601   2.603   1
  -2   0   3 3.33873 3.24862   1
  -2   0   3 37.8179 2.21073   1
  -2   0   3 1.54362 2.40383   1
  -2   0   4 2237.87 146.516   1
   2   0  -4 2257.04 144.645   1
  -2   0   4 2482.72  121.83   1
  -2   0   4 2274.80 145.017   1
  -2   0   5 216.417 15.6286   1
  -2   0   5 218.486 16.2036   1
  -2   0   5  215.63 10.3565   1
  -2   0   6 1.75481 0.81553   1
  -2   0   6-0.79713 3.54854   1
   2   0  -6-0.33925 2.49325   1
  -2   0   6 3.12347 3.93553   1
  -2   0   7 6.68457 1.09457   1
  -2   0   8 68.7488 4.01549   1
   2   0  -8 69.1124 7.56073   1
  -2   0   8 84.0689 10.5075   1
  -2   0   9 23.3715 3.69004   1
   2   0  -9 7.40282 3.32872   1
  -2   0   9 14.3315 6.85493   1
   2   0 -10 25.8964 4.47699   1
  -2   0  10  27.477 8.03654   1
  -2   0  10 29.2598 4.04205   1
   2   0 -10-3.44895 13.8341   1
  -2   0  11 30.2668 4.49681   1
  -2   0  11 14.8952 9.74221   1
   2   0 -11 14.6347 4.82848   1
   2   0 -12 7.97157 5.32507   1
  -2   0  12 10.9436 3.72469   1
  -2   0  12 13.3674 11.4716   1
  -2   0  13 11.1565 5.26042   1
   2   0 -13 17.8191 7.79429   1
  -2   0  13  23.745 13.8875   1
   2   0 -14 26.9996 10.8713   1
  -2   0  14-25.1794 18.3527   1
  -2   0  15  87.014 6.56804   1
  -2   0  16 5.92592 5.22082   1
  -2   0  17  120.72 12.1781   1
  -2   1   0 48.0035  1.7968   1
  -2   1   0 53.1378 6.79727   1
   2  -1   0 54.6801  6.9422   1
  -2   1   0 53.1186 5.75292   1
   2  -1  -1 141.497 10.8487   1
  -2   1   1 134.205 10.8188   1
  -2   1   1 126.148 5.37486   1
  -2   1   1 135.726 10.4767   1
  -2   1   2-3.46948 3.44527   1
  -2   1   2 2.87569 1.32183   1
  -2   1   2 1.40426 2.26948   1
   2  -1  -2 5.85614 2.90072   1
  -2   1   3  55.563 3.13432   1
  -2   1   3  41.366 5.42944   1
  -2   1   3 40.7014 6.28433   1
   2  -1  -3 52.7361 5.97693   1
  -2   1   4 20.6222 3.21595   1
  -2   1   4 28.4222 1.96289   1
   2  -1  -4 13.6223 3.37313   1
   2  -1  -5 302.336 20.8523   1
  -2   1   5 295.077 20.7906   1
  -2   1   5 239.606 10.4412   1
  -2   1   6 39.2195 2.52114   1
  -2   1   6 38.3532 5.99194   1
  -2   1   6 30.6001 4.60498   1
  -2   1   7  120.90 10.8448   1
  -2   1   7 107.362 10.8637   1
   2  -1  -7 96.0944 9.05937   1
  -2   1   7 113.011 5.21091   1
  -2   1   8 7.71437 2.12527   1
  -2   1   8 14.2687 5.85311   1
   2  -1  -8 6.33063 3.05258   1
  -2   1   9 47.1021 8.16322   1
  -2   1   9   39.03 4.69909   1
   2  -1  -9 25.5684 4.58636   1
  -2   1  10 2.81505 7.95246   1
  -2   1  10 2.42985 3.39414   1
   2  -1 -10 5.03633 3.99766   1
  -2   1  11 39.9986 5.02626   1
  -2   1  11 25.5673 10.0707   1
  -2   1  12 67.4135 5.22981   1
  -2   1  12 57.4312 13.1429   1
   2  -1 -12 88.5596 10.5175   1
   2  -1 -13 169.528 16.9435   1
   2  -1 -14 12.6203 10.3794   1
  -2   1  14 4.22932 18.6909   1
  -2   1  15 22.6843 14.6965   1
  -2   1  16 18.1468 5.39263   1
  -2   1  17    0.00  11.368   1
   2  -2   0 27.7106 5.00219   1
  -2   2   0 16.4634 1.15345   1
  -2   2   0 23.6216 5.39242   1
  -2   2   0 29.3295 4.58976   1
  -2   2   0 18.9833 3.27897   1
  -2   2   1 187.183 7.83534   1
  -2   2   1  229.75 17.0301   1
  -2   2   1 248.946 16.8516   1
   2  -2  -1  228.40 17.2228   1
  -2   2   2 48.2941 5.72768   1
  -2   2   2 51.1057 6.09048   1
  -2   2   2  39.748 2.44456   1
   2  -2  -2 46.2892 6.98529   1
   2  -2  -3 13.9115 3.93305   1
  -2   2   3 11.9345 3.26103   1
  -2   2   3  12.803 1.27929   1
  -2   2   4 1014.35 65.4415   1
  -2   2   4  825.23 34.3431   1
   2  -2  -4 974.283 64.6237   1
  -2   2   5 161.752 6.49911   1
  -2   2   5  177.63 14.4313   1
   2  -2  -6 10.8422  3.9224   1
  -2   2   6 9.66544 4.29407   1
  -2   2   6 8.80068 1.59824   1
  -2   2   7 10.2492 4.70592   1
  -2   2   7 13.3332 6.10456   1
  -2   2   7 5.27577  3.6205   1
   2  -2  -7 4.75015 3.22628   1
  -2   2   8 55.7625 4.13055   1
   2  -2  -8 53.3547 7.04149   1
  -2   2   9 6.41933   7.934   1
  -2   2   9    0.00 4.38435   1
  -2   2   9 12.8056 7.53544   1
   2  -2 -10-3.36262 3.71226   1
  -2   2  10-2.09151 8.92189   1
  -2   2  10 8.74152 2.34498   1
  -2   2  11 24.7762  10.772   1
  -2   2  11 4.82967 2.81653   1
   2  -2 -12 13.1268 6.08119   1
  -2   2  12 52.4428  12.435   1
  -2   2  12 13.0445 12.6096   1
  -2   2  13-1.13475 16.8288   1
  -2   2  14 27.5949 20.1625   1
  -2   2  14    0.00 14.7125   1
   2  -2 -14 53.3425 11.5533   1
  -2   2  15 1.83392 5.00149   1
  -2   2  16 7.56021 5.23336   1
  -2   2  17 6.46604 4.45557   1
  -2   3   0 133.392 13.4823   1
  -2   3   0  130.10 11.7513   1
  -2   3   0 110.545 6.03683   1
  -2   3   0 157.991 11.5415   1
   2  -3   0 143.312 13.1719   1
  -2   3   1 7.11375 5.84895   1
  -2   3   1 8.52305 4.49228   1
   2  -3  -1 7.02137  4.6334   1
  -2   3   1 8.39413 2.81351   1
  -2   3   1 5.30382 0.82817   1
  -2   3   2 0.12265 0.70166   1
   2  -3  -2-4.18991 4.24203   1
  -2   3   2 1.21798 4.23064   1
  -2   3   2-2.95429 2.67659   1
   2  -3  -3   46.56 6.44918   1
  -2   3   3 33.6207 2.54526   1
  -2   3   3 53.7734 7.26046   1
  -2   3   3 48.5908 7.48014   1
   2  -3  -4 141.936 12.8267   1
  -2   3   4 148.161 12.1224   1
  -2   3   4 117.283 4.87012   1
  -2   3   4 143.506 13.3161   1
  -2   3   5 43.4528 10.3196   1
   2  -3  -5  24.036  5.3255   1
  -2   3   5 29.5862 5.37222   1
  -2   3   5 21.6992 1.81108   1
  -2   3   6 43.0814  3.2847   1
  -2   3   6 44.3077 7.72534   1
   2  -3  -6 67.7194  8.3396   1
  -2   3   7 32.5456 5.85915   1
  -2   3   7 25.9169 2.80894   1
  -2   3   7 35.3062 8.02906   1
   2  -3  -7  24.231 5.17535   1
  -2   3   8 5.84827 6.17972   1
  -2   3   8 1.62597 3.67871   1
   2  -3  -8-2.19816 4.23072   1
  -2   3   8 9.39697 7.74357   1
  -2   3   9-9.77986 6.90423   1
  -2   3   9-3.83737 8.07518   1
  -2   3   9  0.8487 7.28651   1
   2  -3  -9-2.15645 4.28128   1
  -2   3  10 198.627 21.4727   1
  -2   3  10 186.083 12.8424   1
  -2   3  10 188.588 20.5686   1
   2  -3 -10 164.857 14.4149   1
   2  -3 -11 63.6111 9.57571   1
  -2   3  11 48.0377 9.01504   1
  -2   3  11  85.223 13.9989   1
  -2   3  12-1.48591 13.0937   1
  -2   3  12 16.7568 7.27076   1
   2  -3 -12-4.98137 6.62385   1
  -2   3  13 28.4663 16.0783   1
   2  -3 -13-9.96998 8.58196   1
   2  -3 -14 22.4933 11.5549   1
  -2   3  14-6.06042 20.0262   1
  -2   3  14 4.38708 7.69453   1
  -2   3  15    0.00 5.35411   1
  -2   3  16    0.00 4.65549   1
  -2   4   0 4.95893 5.28084   1
   2  -4   0 12.6228 6.60193   1
  -2   4   0 7.48249 8.58376   1
  -2   4   0 2.04382 0.87732   1
  -2   4   0 3.90113 2.87993   1
  -2   4   1  25.254 4.47737   1
   2  -4  -1 33.4868 6.98862   1
  -2   4   1 20.4139 1.66243   1
  -2   4   1 45.3084 7.58952   1
  -2   4   2 170.512 6.28013   1
  -2   4   2 264.886 20.2197   1
  -2   4   2 264.385 20.9034   1
   2  -4  -2 290.865 21.1608   1
  -2   4   3 15.6361  1.4728   1
   2  -4  -4-1.38378 5.12675   1
  -2   4   4 1.45361 1.04352   1
  -2   4   4-2.49236  6.3096   1
  -2   4   4 8.47854 4.07546   1
  -2   4   5 42.3924 8.58086   1
   2  -4  -5 55.4597 8.80582   1
  -2   4   5 33.6574  6.1792   1
  -2   4   5 33.9878 4.01167   1
  -2   4   6-7.49074 7.29057   1
   2  -4  -6 6.08968 5.36341   1
  -2   4   6 2.44674 2.37601   1
  -2   4   6-2.16364 4.88128   1
   2  -4  -7 3.20215 5.12287   1
  -2   4   7 0.05071  7.7027   1
  -2   4   7 1.29221 1.91473   1
  -2   4   7 0.41624 5.43593   1
  -2   4   8 9.76357  6.6871   1
  -2   4   8 20.5725 7.93317   1
   2  -4  -8 16.5774 5.67908   1
  -2   4   8 12.3471 9.93618   1
   2  -4  -9 79.9214 10.4487   1
  -2   4   9 105.361 14.0614   1
  -2   4   9 83.6583 10.7303   1
  -2   4   9 96.6051 13.1262   1
   2  -4 -10 5.90204 5.22911   1
  -2   4  10-4.45054 9.99042   1
  -2   4  10 15.7676 7.45096   1
  -2   4  10-6.49699 11.4916   1
  -2   4  11 17.8913 13.8963   1
   2  -4 -11  5.3911 5.54019   1
  -2   4  11 20.5939 6.69168   1
   2  -4 -12  102.08  16.668   1
  -2   4  12 192.318 30.1297   1
  -2   4  13 33.1867 17.3986   1
   2  -4 -13-8.79699 9.71949   1
  -2   4  14-19.3222 22.8242   1
  -2   4  14 5.94952 19.4115   1
  -2   4  15    0.00 4.71847   1
  -2   4  16 41.7179 6.69354   1
  -2   5   0 43.8333  13.217   1
  -2   5   0 19.1357 2.02102   1
   2  -5   0 49.4334 9.33037   1
  -2   5   0 22.5708 4.80424   1
  -2   5   0 23.9658 8.34424   1
  -2   5   1 54.0922 8.85141   1
  -2   5   1 39.9981 2.74083   1
   2  -5  -1 48.7904 10.3664   1
  -2   5   1 54.1145 8.24543   1
  -2   5   2 0.76248 1.14689   1
  -2   5   2 2.83906 4.00058   1
   2  -5  -2-1.33468 7.20377   1
  -2   5   2 4.36818  7.8135   1
  -2   5   3 11.2052 8.25778   1
  -2   5   3 4.19846  4.6729   1
   2  -5  -3 0.09497 6.75672   1
  -2   5   3 1.14114 4.37325   1
   2  -5  -4 26.7481 7.04415   1
  -2   5   4 16.5324 2.77588   1
  -2   5   4 31.4098 5.94294   1
  -2   5   4 45.2004 9.50836   1
  -2   5   5 22.3944 3.36927   1
  -2   5   5 41.5912 10.0716   1
   2  -5  -5 47.1195 7.24345   1
  -2   5   5 25.4153 6.05751   1
   2  -5  -6 10.9996 5.97215   1
  -2   5   6 4.50518 9.34237   1
  -2   5   6 4.30526  4.6727   1
  -2   5   6  -3.709 6.29846   1
  -2   5   7-2.62174 6.70388   1
  -2   5   7 10.5086  9.5293   1
  -2   5   7 10.0348 22.3339   1
   2  -5  -7 4.42265 5.56256   1
  -2   5   8 201.422 20.2347   1
  -2   5   8 175.027 12.0435   1
   2  -5  -8 217.513 17.9581   1
  -2   5   8 202.881 22.3666   1
   2  -5  -9 26.5009 6.85446   1
  -2   5   9 2.66566 9.38104   1
  -2   5   9 32.2096  12.961   1
  -2   5   9 14.6928 9.10848   1
  -2   5  10 2.49795 5.72067   1
   2  -5 -10-2.31476 6.02648   1
  -2   5  10 20.1943  13.112   1
  -2   5  10  5.5854 11.3113   1
  -2   5  11 -1.8828 14.0658   1
  -2   5  12 29.1942 16.6983   1
   2  -5 -12 15.9458 8.81633   1
  -2   5  13 3.59558 5.20914   1
  -2   5  13 14.7033 20.1832   1
   2  -5 -13 12.7535 11.1532   1
  -2   5  14  13.157 4.99242   1
  -2   5  15 50.5363 7.00627   1
  -2   6   0 48.4055 10.5775   1
  -2   6   0 37.8619 3.16177   1
  -2   6   0 52.9327 9.55095   1
  -2   6   0  34.415 6.19786   1
  -2   6   1 1.32302 9.17856   1
   2  -6  -1 2.79639 10.4922   1
  -2   6   1 -1.4221 9.35808   1
  -2   6   1 4.56043 4.71561   1
  -2   6   1 1.71731 2.21334   1
  -2   6   2 43.0222 7.09891   1
   2  -6  -2  38.086 9.48884   1
  -2   6   2 67.0579 11.5017   1
  -2   6   3 7.18662 10.8007   1
  -2   6   3 3.28402 5.46827   1
  -2   6   3 3.34067 2.05441   1
   2  -6  -3-6.27285  7.7651   1
  -2   6   4 10.8809 2.64688   1
  -2   6   4 29.8693 11.2216   1
   2  -6  -4 13.2611 7.56161   1
  -2   6   4 20.0013 6.40792   1
  -2   6   5 4.49841 6.49071   1
  -2   6   5 0.49628 11.0541   1
   2  -6  -5-1.94992  7.1474   1
  -2   6   5 0.42729 2.63533   1
  -2   6   6 290.481 14.3682   1
   2  -6  -6  387.25 28.6391   1
  -2   6   6 409.442 30.1807   1
  -2   6   6 360.737 32.3101   1
  -2   6   7  88.632 14.5394   1
  -2   6   7 79.1711 11.1225   1
  -2   6   7 79.1095 11.7263   1
   2  -6  -7 80.1806 12.5048   1
  -2   6   8 4.51972 13.2839   1
  -2   6   8 10.3138 5.62849   1
  -2   6   8 7.56211 8.78554   1
   2  -6  -8 22.3943 7.36962   1
  -2   6   9 32.8374 10.3169   1
  -2   6   9 22.1305 6.20207   1
  -2   6   9-5.17156 14.2696   1
   2  -6  -9  20.164 7.15048   1
  -2   6  10 12.2494 12.7439   1
   2  -6 -10-1.53628 10.1396   1
  -2   6  11-9.37226 15.8369   1
  -2   6  11-10.1088 17.3237   1
   2  -6 -11-6.80328 7.76124   1
   2  -6 -12 14.8391 10.2244   1
  -2   6  12 11.8287 20.1862   1
  -2   6  12    0.00 12.6893   1
  -2   6  14    0.00 10.3007   1
  -2   6  15    0.00 9.87185   1
  -2   7   0 13.1543 5.43788   1
  -2   7   0 15.6942 11.6072   1
  -2   7   0 10.9954   2.888   1
  -2   7   0 36.7493 10.7006   1
  -2   7   1 52.0253 12.2399   1
  -2   7   1 33.6631 6.73481   1
  -2   7   1 25.0856 12.6618   1
   2  -7  -1 28.9299  13.172   1
  -2   7   1 33.2111 4.57832   1
  -2   7   2 22.8172 7.09253   1
   2  -7  -2 30.4772 10.8884   1
  -2   7   2 35.4528 13.5177   1
  -2   7   2 6.19042 3.89209   1
  -2   7   3 14.4361 13.1708   1
   2  -7  -3 9.44097 9.87358   1
  -2   7   3    0.00 2.75388   1
  -2   7   3 1.19245 6.48876   1
  -2   7   4-4.51002 6.90283   1
   2  -7  -4-8.89302 8.39572   1
  -2   7   4 2.17743  2.8861   1
  -2   7   4 16.9295 13.4752   1
  -2   7   5 2.76603  3.6483   1
  -2   7   5 24.0083 14.6136   1
  -2   7   5  29.187 7.57494   1
   2  -7  -5 14.3848 8.77068   1
  -2   7   6 29.4148 8.42243   1
  -2   7   6    0.00 12.1942   1
   2  -7  -6 14.5438 8.03594   1
  -2   7   6 22.2836 15.0481   1
  -2   7   7 198.062 19.9203   1
   2  -7  -7 134.716 16.9603   1
  -2   7   7 13.5742  8.8763   1
  -2   7   7  172.21 21.3475   1
   2  -7  -8 1.62139 11.9014   1
  -2   7   8 11.2662  12.206   1
  -2   7   8-17.1427 16.6877   1
   2  -7  -9 5.31499 8.18561   1
  -2   7   9 9.05618 12.7921   1
  -2   7   9-18.9433 16.5915   1
  -2   7  10    0.00 13.3494   1
  -2   7  10 15.7688 17.9126   1
   2  -7 -10-4.34546 8.11441   1
  -2   7  11 11.6886 5.65739   1
  -2   7  11-11.3219 20.0767   1
  -2   7  13 1.36082 4.27776   1
  -2   7  14 12.8946 6.30224   1
  -2   8   0 18.1974 8.06815   1
  -2   8   0 27.4182 16.7042   1
  -2   8   0 27.6293 4.82354   1
  -2   8   0 31.1668 16.5863   1
   2  -8  -1 56.1757 17.4478   1
  -2   8   1 39.3368 4.95363   1
  -2   8   1 53.4563 8.81094   1
  -2   8   1 52.3345 15.3029   1
  -2   8   2 4.79569 6.78278   1
   2  -8  -2-17.6416  13.105   1
  -2   8   2-11.9575 14.8024   1
  -2   8   2    0.00 3.61169   1
  -2   8   3  7.2211 3.81799   1
  -2   8   3 64.7698 16.6262   1
  -2   8   3 44.4702  8.5007   1
   2  -8  -3 40.3501 12.7263   1
  -2   8   4 43.0907 16.4536   1
  -2   8   4 5.02944 3.51288   1
  -2   8   4 31.4425 9.09994   1
   2  -8  -4  24.858 10.6143   1
  -2   8   5  12.368 5.06989   1
  -2   8   5 19.3257 8.27174   1
   2  -8  -5 7.91197  10.317   1
  -2   8   5 25.8015 17.3067   1
   2  -8  -6 15.5179 13.3344   1
  -2   8   6 1.74949 12.2398   1
   2  -8  -7 8.00788 9.42769   1
  -2   8   7 17.1746 18.3236   1
  -2   8   7-0.63824 9.98614   1
  -2   8   8 16.9117 11.1909   1
  -2   8   8 11.8913 20.4048   1
  -2   8   8 0.25281 5.12862   1
   2  -8  -8 29.4731  9.3075   1
  -2   8   9-0.47484 21.7923   1
  -2   8   9 13.2877 12.6476   1
  -2   8   9-1.28977 13.3502   1
   2  -8  -9-2.28377 8.80019   1
  -2   8  11 12.7729 4.49964   1
  -2   8  12    0.00 4.71146   1
  -2   9   0 5.92382 5.11608   1
  -2   9   0 22.5017 11.9007   1
  -2   9   1    0.00 4.50258   1
  -2   9   1 118.336 15.8986   1
   2  -9  -2  368.04 37.4687   1
  -2   9   2 0.19161 6.89911   1
  -2   9   3 28.0544 8.53292   1
   2  -9  -3 7.17628 14.8985   1
  -2   9   3    0.00 4.78543   1
  -2   9   3-1.33664 17.7992   1
  -2   9   4 0.65565 17.7271   1
   2  -9  -4 19.6117  13.158   1
  -2   9   5 5.71986 5.19651   1
  -2   9   5-42.1824  18.684   1
  -2   9   5 7.03536 9.53394   1
   2  -9  -5 24.9902 12.0387   1
  -2   9   6 1.11222 5.42457   1
  -2   9   6 0.01465 10.1392   1
   2  -9  -6 16.1818 12.1109   1
  -2   9   6-7.24063 19.8045   1
   2  -9  -7  8.8475 10.6441   1
  -2   9   7 1.68696 5.17061   1
  -2   9   7-26.0551 20.8614   1
  -2   9   7-6.79343 11.4774   1
  -2   9   8    0.00 4.63031   1
  -2   9   9 25.9606 7.23128   1
  -2   9  10 3.16276  4.0243   1
  -2   9  11 1.34048 4.25519   1
  -2  10   0 0.69636 4.82584   1
  -2  10   0 260.907 27.1551   1
  -2  10   1    0.00  4.7638   1
  -2  10   1 41.6488 12.5185   1
  -2  10   2 14.9515 11.6108   1
  -2  10   2    0.00 5.60383   1
  -2  10   3    0.00 7.63965   1
  -2  10   3 48.2612  12.253   1
  -2  10   4    0.00 4.75721   1
  -2  10   5    0.00 5.08589   1
  -2  10   6 0.16005 4.34777   1
  -2  10   7 28.2122 5.57941   1
  -2  10   8 7.30762 4.53888   1
  -2  10   9  13.892   4.644   1
  -2  11   1 52.7985 6.91426   1
  -2  11   2 12.3135 5.41248   1
  -2  11   3    0.00 7.45867   1
  -2  11   4 4.71857 7.32995   1
  -2  11   5 0.61355 4.65448   1
  -2  11   6 72.0036 9.58321   1
  -1 -13   1 6.47064 1.20783   1
  -1 -13   2 38.5978 3.16034   1
  -1 -13   3 5.38167 1.13428   1
  -1 -13   4 54.4481 3.79835   1
  -1 -13   5 66.4706 4.40594   1
  -1 -13   6 17.7917 2.12269   1
  -1 -12   1 -16.581 10.2907   1
  -1 -12   1 0.44283 2.95474   1
  -1 -12   2 8.76254 11.5446   1
  -1 -12   3 88.8873 14.9907   1
  -1 -12   5 2.20813 2.70837   1
  -1 -12   6 17.2533 1.95361   1
  -1 -12   7 0.68944 1.06498   1
  -1 -12   8 34.3226  2.9472   1
  -1 -12   9 0.48284 1.85467   1
  -1 -11   1 10.8482 7.81212   1
  -1 -11   1 3.67512 1.60992   1
   1  11  -2 87.1979 27.0387   1
  -1 -11   3 10.7493 2.50496   1
  -1 -11   3 10.0976 9.55461   1
   1  11  -3 37.8945 22.2844   1
  -1 -11   4 74.7284 13.0807   1
  -1 -11   4 89.5432  8.7597   1
   1  11  -4 69.2088 22.1581   1
   1  11  -5 67.4986 18.8739   1
  -1 -11   5 54.1204 15.1168   1
   1  11  -6 38.7513 18.1578   1
  -1 -11   6  48.784 20.1212   1
   1  11  -7-12.0364 17.7571   1
  -1 -11   7 0.81578 1.22225   1
  -1 -11   8 33.0618 2.77421   1
  -1 -11   9 28.6795 2.59431   1
  -1 -11  10 5.55609 1.41234   1
  -1 -11  11 0.84833 1.81679   1
  -1 -10   1 0.82648 1.24494   1
   1  10  -1 12.8996 20.1223   1
  -1 -10   1 12.0664 5.97075   1
  -1 -10   2 14.8444 1.72672   1
   1  10  -2 22.8552 17.6863   1
  -1 -10   2 8.82153 7.01554   1
  -1 -10   3 6.38515 1.34379   1
   1  10  -3 20.5706 17.5628   1
  -1 -10   3-10.7473 7.15972   1
  -1 -10   4 38.1521 3.06205   1
  -1 -10   4  28.069 9.42533   1
   1  10  -4 42.1912 18.7778   1
  -1 -10   5 121.935 6.90856   1
   1  10  -5  135.67 23.2994   1
  -1 -10   5 99.4053  14.003   1
  -1 -10   6-0.33079 22.1785   1
   1  10  -6 26.8854 16.4774   1
  -1 -10   7-18.2063 18.4899   1
  -1 -10   7    0.00 4.41768   1
   1  10  -7 2.85819 16.4633   1
   1  10  -8  16.449 16.0704   1
   1  10  -9 24.9545 16.9145   1
  -1 -10  10 19.4309 2.34791   1
  -1 -10  11 49.2976 3.87411   1
  -1 -10  12 1.64303 2.10273   1
  -1 -10  13 23.1851 4.68333   1
  -1  -9   1 12.3007 1.61001   1
  -1  -9   1 0.26085 5.03078   1
   1   9  -1-2.45325 14.9269   1
  -1  -9   2 13.4329 2.75094   1
   1   9  -2  -15.16 14.3028   1
  -1  -9   2 3.10915  5.2977   1
  -1  -9   3 46.3524 7.29614   1
   1   9  -3  36.446 14.6534   1
  -1  -9   3 71.1713 4.25676   1
  -1  -9   4 99.6973 5.60093   1
   1   9  -4 66.9105 15.8853   1
  -1  -9   4 79.9352 12.0376   1
   1   9  -5 7.09451 13.5127   1
  -1  -9   5 17.8962 1.95331   1
  -1  -9   5  1.5424    7.70   1
  -1  -9   6 397.672 20.6451   1
   1   9  -6 308.298 30.3709   1
  -1  -9   6 279.127 24.6495   1
   1   9  -7 7.79379 14.0345   1
  -1  -9   7 0.88492 1.27176   1
  -1  -9   7-17.3602 11.8765   1
   1   9  -8 29.7908 14.6094   1
  -1  -9   9 2.55491 2.29221   1
   1   9 -10 33.8914 16.5678   1
   1   9 -11 12.0002 17.9803   1
  -1  -9  11 2.54735 1.39298   1
  -1  -9  12    0.00 1.45405   1
  -1  -9  14 2.90261 2.80793   1
  -1  -8   1 0.36598 1.90391   1
  -1  -8   1-0.99621 4.00354   1
  -1  -8   2 173.342 14.4197   1
   1   8  -2 183.963 23.1879   1
   1   8  -3  3.4899 12.1345   1
  -1  -8   3-4.48607 4.74242   1
  -1  -8   3 3.03573 0.88695   1
  -1  -8   4 176.402 15.7344   1
  -1  -8   4 249.157 12.9213   1
   1   8  -4 194.592 22.9997   1
  -1  -8   5 68.4603  11.129   1
  -1  -8   5  65.497 3.95451   1
   1   8  -5 51.2098  14.404   1
  -1  -8   6 20.3722 3.61485   1
   1   8  -6 16.2743 13.4525   1
  -1  -8   6 14.9071 8.09732   1
  -1  -8   7 186.755 9.90296   1
   1   8  -7 151.048 22.1213   1
  -1  -8   7 161.243  19.055   1
  -1  -8   8 16.0879 12.9741   1
   1   8  -8 8.63618 12.0766   1
   1   8  -9 23.8984 15.9344   1
  -1  -8   9 7.72891 1.42215   1
  -1  -8  10 0.09914 3.65546   1
   1   8 -10 26.9418 15.4372   1
  -1  -8  11 37.4949 4.61749   1
   1   8 -11 49.6467 18.6591   1
  -1  -8  12 0.74258 1.55501   1
   1   8 -12-2.06417 18.2309   1
  -1  -8  13 59.0519 4.18113   1
  -1  -8  14 10.1649 3.22116   1
  -1  -8  15 19.0888 3.54033   1
  -1  -7   1-0.77178  4.0633   1
  -1  -7   1 1.12627 3.94979   1
   1   7  -1 8.96433 12.4417   1
   1   7  -2 35.3075 10.7866   1
  -1  -7   2 30.9649 13.7824   1
   1   7  -3 48.0793 10.2539   1
  -1  -7   4 77.8885 4.41743   1
  -1  -7   4 56.2273 9.34456   1
   1   7  -5 13.0176 10.6851   1
  -1  -7   5  12.387  1.3959   1
  -1  -7   5 10.5886  6.2951   1
  -1  -7   6 16.9895  1.6741   1
   1   7  -6 34.9214 13.1398   1
  -1  -7   7 150.022 16.4568   1
   1   7  -7 121.166 21.6905   1
  -1  -7   7 140.364 9.78753   1
  -1  -7   8    0.00 3.83862   1
   1   7  -8 0.85147 12.5896   1
  -1  -7   8 12.4574 10.3859   1
   1   7  -9 30.5303 14.5705   1
  -1  -7   9 26.2484 2.35636   1
  -1  -7   9 37.1729 14.1013   1
  -1  -7  10 55.3574    3.89   1
   1   7 -10 24.9559 14.8631   1
   1   7 -11 40.8901 16.5178   1
  -1  -7  11 32.6837 2.78439   1
  -1  -7  12 3.19141 4.83487   1
   1   7 -13-13.5838  19.885   1
  -1  -7  13 0.50435 1.73687   1
  -1  -7  14 9.57873 2.08545   1
  -1  -7  15 2.95691 2.27914   1
  -1  -7  16 18.7803 3.73024   1
  -1  -6   1 2.10668 0.90585   1
   1   6  -1-0.77517 7.47399   1
   1   6  -1-2.06337 4.39353   1
  -1  -6   1-1.88853 3.29903   1
  -1  -6   2 106.016 9.40916   1
   1   6  -2 96.7895 9.94948   1
  -1  -6   2 116.088 5.95414   1
   1   6  -2 82.4525 14.2177   1
  -1  -6   3 74.6515 7.68239   1
  -1  -6   3 77.8406 4.12876   1
   1   6  -3 62.5598 8.42468   1
   1   6  -3 54.0961 11.0837   1
   1   6  -4-3.72428 8.49159   1
  -1  -6   4 0.51285 0.54546   1
   1   6  -4-1.62592 4.05428   1
  -1  -6   4 4.39845  4.1362   1
   1   6  -5 31.1601  5.7179   1
  -1  -6   5 41.6125 2.62658   1
   1   6  -5 11.2558  8.3217   1
  -1  -6   5  37.853 5.99843   1
   1   6  -6  35.841 6.03157   1
  -1  -6   6 60.6486 3.49094   1
  -1  -6   7  4.7425 0.83402   1
   1   6  -7 0.36045 4.93276   1
   1   6  -7-0.92673 12.2649   1
   1   6  -8 223.382 24.9472   1
   1   6  -8 168.481 16.5624   1
  -1  -6   8 169.283 27.5902   1
  -1  -6   9-9.55273 11.3064   1
  -1  -6   9 3.53929 0.98073   1
   1   6  -9-2.75388 12.4691   1
   1   6 -10 5.99583  13.391   1
  -1  -6  10 11.9334 1.95151   1
   1   6 -11 5.91386 14.4084   1
  -1  -6  11 5.32637 1.25571   1
   1   6 -12 20.6321 15.4693   1
  -1  -6  12 29.4552 2.69712   1
  -1  -6  13 12.6648 5.02507   1
   1   6 -13-14.1079 31.3699   1
  -1  -6  14 10.5603  2.1041   1
   1   6 -14  14.469 20.1823   1
  -1  -6  15 2.72406 2.26665   1
  -1  -6  16    0.00 1.99094   1
  -1  -6  17 8.76395  2.2152   1
  -1  -5   1 16.8271 1.60513   1
   1   5  -1 11.8848 3.66163   1
  -1  -5   1  11.169 3.14685   1
  -1  -5   2 15.7245 0.91726   1
  -1  -5   2 12.1159 3.23683   1
   1   5  -2 8.65762 3.15939   1
   1   5  -3 5.42781  2.9408   1
  -1  -5   3  5.2007 0.62631   1
  -1  -5   3 1.73921 3.08689   1
  -1  -5   4  39.702 2.23477   1
  -1  -5   4 34.9777 5.05748   1
   1   5  -4 29.8324 8.16869   1
   1   5  -4 37.4246 5.27858   1
  -1  -5   5  50.413 2.78486   1
   1   5  -5 50.8973    6.15   1
   1   5  -5 38.6867 10.1064   1
  -1  -5   5 48.3187 7.19826   1
  -1  -5   6 48.4808 2.81961   1
   1   5  -6 24.2744 9.20894   1
   1   5  -6   52.17 7.91334   1
  -1  -5   6 48.4767 6.03067   1
   1   5  -7 92.8683 9.76525   1
  -1  -5   7 107.879 5.79081   1
  -1  -5   7 115.426  11.816   1
   1   5  -7 82.7692 13.9647   1
  -1  -5   8-6.47475 10.4341   1
  -1  -5   8 0.47998 0.74682   1
   1   5  -8 4.37093 10.0847   1
   1   5  -9 26.2516 12.1856   1
  -1  -5   9 46.9988 2.92615   1
   1   5  -9 30.1557 6.80419   1
   1   5 -10  4.6054 12.9329   1
  -1  -5  10 2.25161 1.02806   1
   1   5 -10-6.09751 8.66865   1
  -1  -5  11  75.925 4.82099   1
   1   5 -11 52.9771  16.562   1
  -1  -5  12 0.49017 1.34579   1
   1   5 -12-0.86489 14.0806   1
   1   5 -13  9.0302 15.2438   1
  -1  -5  13 31.1026 3.38919   1
   1   5 -14 34.0527 21.6873   1
  -1  -5  14  164.06 10.9837   1
  -1  -5  15 2.48469 2.32573   1
  -1  -5  16 1.17349 2.09275   1
  -1  -5  17 16.6084 2.52563   1
  -1  -4   1 203.078 15.1061   1
   1   4  -1 185.347 12.9806   1
  -1  -4   1 174.391 12.8329   1
  -1  -4   2 34.1476 4.55377   1
  -1  -4   2 37.8113 2.01465   1
   1   4  -2 37.0503 4.54775   1
  -1  -4   3 106.913 8.61164   1
  -1  -4   3 126.573 6.34366   1
   1   4  -3 111.249 8.53938   1
  -1  -4   4 1.36789 0.35736   1
  -1  -4   4  2.3405 2.68645   1
   1   4  -4 3.65181 2.42728   1
  -1  -4   5 7.22183 3.15353   1
   1   4  -5  4.5095  2.4029   1
  -1  -4   5 4.51585 0.59374   1
  -1  -4   6 29.6786 1.78131   1
   1   4  -6  31.579 4.54088   1
  -1  -4   6  27.198 4.59538   1
   1   4  -6 16.2131  7.8937   1
  -1  -4   7 6.00912 4.71031   1
  -1  -4   7 4.83919 1.27554   1
   1   4  -7 11.7792 2.94248   1
   1   4  -7 0.71933 10.3897   1
  -1  -4   8 35.1182 6.87516   1
   1   4  -8 18.1697 14.9611   1
   1   4  -8 29.4647 5.35034   1
   1   4  -9 25.4326 5.00106   1
  -1  -4   9 33.4811 2.26746   1
  -1  -4   9 28.0207 8.28425   1
  -1  -4  10 13.0734 1.49417   1
   1   4 -10 5.12051 12.9255   1
   1   4 -10 11.8612 5.98067   1
   1   4 -11-12.6226   9.209   1
  -1  -4  11 2.05544 1.07446   1
   1   4 -11-18.9067  12.979   1
  -1  -4  12 50.0074 4.13002   1
   1   4 -12 22.2983 12.9789   1
  -1  -4  13  56.841 4.54108   1
   1   4 -13  44.908 16.1583   1
  -1  -4  14 54.6195 4.53536   1
   1   4 -14 27.9401 17.4427   1
  -1  -4  15 9.12927 2.85095   1
  -1  -4  16 1.38816 2.11514   1
  -1  -4  17 12.9279 2.44387   1
  -1  -4  18 4.07203  2.1526   1
  -1  -3   1 562.852 37.5119   1
  -1  -3   1 615.886 24.3894   1
   1   3  -1 585.025 37.4805   1
  -1  -3   1 583.295 38.1383   1
  -1  -3   2 269.574 13.3056   1
   1   3  -2 227.191 15.2803   1
  -1  -3   2 220.272 15.9543   1
  -1  -3   2 230.822 15.3726   1
  -1  -3   3  4.5165 0.48618   1
   1   3  -3 3.46832 1.66943   1
  -1  -3   3 4.16119 2.19018   1
  -1  -3   4 16.3008 1.01119   1
   1   3  -4 13.4332 2.31029   1
  -1  -3   4 16.3091 2.96574   1
  -1  -3   5 19.8789 3.30522   1
  -1  -3   5 19.3706 1.20149   1
   1   3  -5 19.6006 2.72473   1
  -1  -3   6 46.7452  3.8758   1
   1   3  -6 37.7351 4.31844   1
  -1  -3   6 41.9554  6.0311   1
   1   3  -7 60.1297 12.0119   1
  -1  -3   7 88.4278 4.56825   1
  -1  -3   7 87.3334 8.32538   1
   1   3  -7 71.1628 6.43807   1
  -1  -3   8 786.585 32.6338   1
   1   3  -8 659.824 43.5447   1
   1   3  -8 616.241 48.8796   1
  -1  -3   8 715.171 44.6087   1
  -1  -3   9  159.26 8.29387   1
   1   3  -9  131.14 21.5921   1
  -1  -3   9 147.313  13.903   1
  -1  -3  10 16.3393 8.55105   1
  -1  -3  10 24.3789 1.85209   1
   1   3 -10 38.9401  18.436   1
   1   3 -10 24.3934 7.49891   1
   1   3 -11 3.23119 6.10471   1
   1   3 -11 3.51372 11.9481   1
  -1  -3  11 2.87132 16.2077   1
  -1  -3  11 7.24043  1.1562   1
  -1  -3  12 5.33454 1.22078   1
   1   3 -12-10.4285 10.8015   1
   1   3 -12 6.12596 11.6349   1
  -1  -3  13  1.0884 1.52779   1
   1   3 -13 30.2089 14.7879   1
  -1  -3  14 4.38962 1.74814   1
  -1  -3  16 33.9492 4.79706   1
  -1  -3  17 25.9968 3.37658   1
  -1  -3  18 92.0005 6.35006   1
   1   2  -1 5.36869 1.62016   1
  -1  -2   1 7.02533 0.41975   1
  -1  -2   1 6.04854 1.69216   1
  -1  -2   1 3.23634  1.8237   1
   1   2  -2 206.632 14.2561   1
  -1  -2   2 242.353 11.9648   1
  -1  -2   2 218.113 14.3715   1
  -1  -2   3 2.00572 0.29089   1
  -1  -2   3 0.78844 1.70891   1
   1   2  -3 0.69689 1.29299   1
  -1  -2   3 1.18067 2.48068   1
   1   2  -4 58.1641 4.80298   1
  -1  -2   4 74.3694 3.10373   1
  -1  -2   4 61.5692 5.33325   1
  -1  -2   5  16.482 0.96425   1
   1   2  -5 13.4293  2.1335   1
  -1  -2   5 13.8993 2.94409   1
  -1  -2   6 38.8703  5.3402   1
  -1  -2   6 44.5876 2.08097   1
   1   2  -6 38.0638 3.94021   1
  -1  -2   7 103.109  5.4546   1
  -1  -2   7  101.74 8.85672   1
   1   2  -7  95.705 7.58557   1
   1   2  -8 1.77946 7.44458   1
  -1  -2   8 1.38347 0.58766   1
   1   2  -8-1.24042 1.96287   1
  -1  -2   8 1.76218 4.08758   1
  -1  -2   9 97.3703  5.2927   1
  -1  -2   9 88.2944 10.1835   1
   1   2 -10 116.721 9.45767   1
  -1  -2  10 148.748 6.88011   1
  -1  -2  10 108.123 13.4444   1
   1   2 -11 15.6325  4.5771   1
   1   2 -11 6.17351 11.2618   1
  -1  -2  11 6.95111 9.36495   1
  -1  -2  11 20.6081 1.87352   1
  -1  -2  12 1.53516 1.24961   1
   1   2 -12-10.8196 12.1463   1
  -1  -2  13 26.4096 2.86038   1
  -1  -2  14  94.158 6.43374   1
  -1  -2  15 27.3446 4.19783   1
  -1  -2  16 83.3815 10.8086   1
  -1  -2  17 6.40387 2.31864   1
  -1  -2  18 12.9627 2.94215   1
  -1  -2  19 1.84507 2.44687   1
  -1  -1   1 45.5392 4.14953   1
  -1  -1   1 56.5453 2.02315   1
   1   1  -1 44.4896 3.74174   1
  -1  -1   1 46.9166 3.76419   1
  -1  -1   2 2996.55 185.798   1
  -1  -1   2 3414.29  139.54   1
  -1  -1   2 2796.68 183.288   1
   1   1  -2 2829.14  183.17   1
  -1  -1   3 553.249 22.6077   1
  -1  -1   3 431.368 28.6824   1
  -1  -1   3 449.328 28.9016   1
  -1  -1   4 75.5236 5.74783   1
  -1  -1   4 92.7567 3.91124   1
  -1  -1   4 77.8842 6.37264   1
   1   1  -4 76.8884 5.68742   1
  -1  -1   5 306.473 20.0074   1
  -1  -1   5 358.477 12.5828   1
   1   1  -5 293.135  19.899   1
  -1  -1   5 308.316 20.4305   1
  -1  -1   6 37.6969 4.42277   1
  -1  -1   6 41.3306 5.26315   1
  -1  -1   6 49.2319 1.95698   1
   1   1  -6 37.5067 3.74744   1
   1   1  -7 17.9627 2.81082   1
  -1  -1   7 18.9448 1.08041   1
  -1  -1   7 13.7802 3.61365   1
  -1  -1   8 59.0623 3.23633   1
   1   1  -8 48.3307 4.51463   1
  -1  -1   8 42.2148 7.19098   1
   1   1  -9 29.5597 4.64791   1
  -1  -1   9   35.62 2.05619   1
  -1  -1   9 26.5141 5.64243   1
  -1  -1  10 5.04622  6.0009   1
  -1  -1  10 5.26278 0.98537   1
   1   1 -10 3.20911 2.63453   1
   1   1 -10 0.18599 9.16406   1
   1   1 -11-0.25379 11.3566   1
  -1  -1  11   0.985 1.04288   1
   1   1 -11 4.63135  3.9594   1
   1   1 -12 110.369 11.5912   1
  -1  -1  12 89.1706 4.76046   1
  -1  -1  13 55.6123 4.64629   1
   1   1 -13 75.3537  11.498   1
  -1  -1  14 4.41429 1.85759   1
  -1  -1  15 53.2521 5.67853   1
  -1  -1  16 10.4898 2.88582   1
  -1  -1  17 50.6185 6.58772   1
  -1  -1  18 2.40752 1.97298   1
  -1  -1  19 30.0247   5.101   1
  -1   0   1 505.216 34.6855   1
  -1   0   1 601.516 21.0129   1
  -1   0   1 559.856 35.0843   1
   1   0  -1 542.712  34.611   1
  -1   0   2 37.5502 3.47406   1
  -1   0   2 43.3548 1.62337   1
  -1   0   2 35.8493 3.98997   1
   1   0  -2 34.8261 3.64137   1
  -1   0   3 754.262 30.7734   1
  -1   0   3  624.45 43.3592   1
   1   0  -3 681.516 43.0749   1
  -1   0   3 695.983 43.5386   1
  -1   0   4 183.872 12.8167   1
  -1   0   4 200.124 7.05254   1
   1   0  -4 179.336 12.3068   1
  -1   0   4 184.738 12.4025   1
  -1   0   5 42.5586 5.02103   1
  -1   0   5 43.2466 1.91885   1
   1   0  -5 36.4332 3.53998   1
  -1   0   5 36.9688 3.79149   1
  -1   0   6 1.31452  0.3497   1
  -1   0   6 7.39621 3.05324   1
  -1   0   6 1.21939 1.79486   1
   1   0  -6 0.69245 1.26722   1
  -1   0   7 63.4114 6.85182   1
  -1   0   7 76.0716 2.90592   1
   1   0  -7 62.1735 5.08083   1
  -1   0   8 177.634 13.0527   1
  -1   0   8 181.676 9.28519   1
   1   0  -8 150.849 11.1843   1
  -1   0   9 5.49923  0.8411   1
   1   0  -9 6.77251  2.3173   1
   1   0  -9-10.1853 8.09572   1
  -1   0   9 6.53237 4.96045   1
  -1   0  10 51.5238  3.0865   1
   1   0 -10 53.8309 5.25199   1
  -1   0  10 48.1139 7.88429   1
  -1   0  11 219.473 8.73074   1
   1   0 -11 185.652  14.328   1
  -1   0  11 218.529 18.5737   1
  -1   0  12 3.63912 1.70648   1
   1   0 -12 7.29897 4.42351   1
  -1   0  13 70.5727 5.35837   1
   1   0 -13 82.8276   12.63   1
  -1   0  14 0.48899 2.88207   1
  -1   0  15 81.9846 9.28167   1
  -1   0  16 10.3974 2.89333   1
  -1   0  17  6.3864 4.38041   1
  -1   0  18 0.35523 2.00377   1
  -1   0  19 4.68879 1.91727   1
  -1   1   0 270.914 17.3367   1
  -1   1   0 256.882 17.8174   1
  -1   1   0 259.664 9.11727   1
  -1   1   0 265.998  17.212   1
   1  -1   0 242.562 17.0129   1
  -1   1   1 19.4223 2.46164   1
  -1   1   1 23.0604 3.86249   1
  -1   1   1 16.5006  0.6702   1
  -1   1   1 19.3157 2.80317   1
   1  -1  -1 17.8407 2.86566   1
  -1   1   2 9980.39 609.669   1
  -1   1   210085.00 413.608   1
   1  -1  -2 9102.37 600.441   1
  -1   1   2 9233.46 600.811   1
  -1   1   3 116.268 4.13952   1
  -1   1   3 112.192 8.52633   1
  -1   1   3 116.042 8.16787   1
   1  -1  -4 1.49948 1.42406   1
  -1   1   4 2.51056 0.29501   1
  -1   1   4 5.33301  2.4519   1
  -1   1   5 64.8653  6.1979   1
  -1   1   5 69.2798 2.58328   1
   1  -1  -5 63.9584 5.18811   1
  -1   1   6 13.0022 3.69702   1
  -1   1   6 11.4404 0.76376   1
   1  -1  -6 7.65113 1.80806   1
  -1   1   7 49.0759 6.98642   1
  -1   1   7 58.1479 2.59472   1
   1  -1  -7 53.9802 4.72682   1
  -1   1   8 9.94796 4.35142   1
  -1   1   8 9.23148 1.26664   1
   1  -1  -8 7.81778 1.91434   1
   1  -1  -9 75.2433 6.71405   1
  -1   1   9 44.1922 7.14146   1
  -1   1   9  79.517 9.50509   1
  -1   1  10 63.2127 10.1398   1
  -1   1  10 56.8916  3.1498   1
   1  -1 -10 51.4106 5.11608   1
  -1   1  11 30.7449 2.14055   1
  -1   1  11 37.3989 9.04953   1
   1  -1 -11  30.549 3.97186   1
   1  -1 -12 63.2376  8.2984   1
  -1   1  12 60.3763 3.83915   1
  -1   1  12 115.302 16.7033   1
  -1   1  13 5.22779 2.62419   1
  -1   1  13-2.40863 12.5147   1
   1  -1 -13 18.2918 6.40708   1
  -1   1  14 11.0363 2.70386   1
   1  -1 -14 48.5418  14.463   1
  -1   1  15    0.00 4.58733   1
  -1   1  16 74.4643  8.8165   1
  -1   1  17 49.3973 6.63738   1
  -1   1  18 6.70441   2.926   1
  -1   1  19 22.4361  5.9571   1
  -1   2   0  9.1608 3.17811   1
  -1   2   0  3.8478 0.36268   1
  -1   2   0 5.34438 2.26468   1
   1  -2   0 6.82851 2.01496   1
  -1   2   0 3.15367 1.13685   1
  -1   2   1 86.1338 7.82163   1
  -1   2   1 81.0076 2.89065   1
  -1   2   1 90.0894 7.10114   1
   1  -2  -1 84.4068 6.70711   1
  -1   2   1 96.2385 6.73326   1
  -1   2   2 95.7639 8.10106   1
  -1   2   2 97.2237 7.21496   1
   1  -2  -2 98.2768 7.16203   1
  -1   2   2 91.7035 3.28046   1
  -1   2   2 96.4292 7.68213   1
  -1   2   3 4.76535 2.85947   1
  -1   2   3 3.69467   0.346   1
   1  -2  -3 6.33211 1.85443   1
  -1   2   4 166.222 12.4481   1
  -1   2   4 161.557 5.75431   1
   1  -2  -4 166.295 11.6173   1
  -1   2   5 7.96908 0.64899   1
   1  -2  -5 10.4739 2.33871   1
  -1   2   5 10.3865 3.67763   1
  -1   2   6 72.5154 2.73629   1
  -1   2   6 76.2294 7.80035   1
   1  -2  -6 73.3673 6.20287   1
  -1   2   7  18.836 4.93055   1
   1  -2  -7 11.0869 2.34261   1
  -1   2   7 11.6917 0.99821   1
  -1   2   8 658.578 42.8844   1
   1  -2  -8 616.041 41.6053   1
  -1   2   9 1.57915 0.95723   1
  -1   2   9-2.27422 5.39078   1
  -1   2  10 54.2051 3.01261   1
  -1   2  10 77.0244 10.2762   1
   1  -2 -11 45.8288 5.46166   1
  -1   2  11 50.1793 3.54202   1
  -1   2  11 60.4794 13.9938   1
  -1   2  12 2.72682 3.52891   1
  -1   2  12 9.10964 9.87662   1
   1  -2 -12 4.46792 3.44594   1
  -1   2  13 0.45387 2.02507   1
   1  -2 -13-6.59882 5.62756   1
  -1   2  13 6.23143 13.7689   1
  -1   2  14 3.60491 2.80116   1
   1  -2 -14 26.9716 10.0048   1
  -1   2  15 30.1988 4.00482   1
  -1   2  16 10.9842 6.05011   1
  -1   2  17 1.79194 2.41709   1
  -1   2  18 11.7593 3.18157   1
  -1   2  19 2.83962 1.97301   1
  -1   3   0 243.253 16.6805   1
  -1   3   0 206.102 8.22202   1
  -1   3   0 245.059 17.8793   1
   1  -3   0 252.269 16.7657   1
  -1   3   0 240.618 16.8931   1
  -1   3   1 0.86305 1.33594   1
  -1   3   1 0.15091 0.27828   1
   1  -3  -1-1.18896 2.01084   1
  -1   3   1 -0.4097 2.84775   1
  -1   3   1 1.18967 3.43756   1
   1  -3  -2 1.49547  1.9702   1
  -1   3   2 1.36554 3.30205   1
  -1   3   2 0.23847 0.28393   1
  -1   3   3 12.1148 3.96087   1
  -1   3   3 7.42441 0.55862   1
   1  -3  -3 5.19434 2.25211   1
  -1   3   3 11.4199  3.5108   1
  -1   3   4 63.1556  7.2418   1
  -1   3   4 63.7384 2.71756   1
   1  -3  -4 71.0843 6.13934   1
  -1   3   5 2.32932 3.54819   1
  -1   3   5 4.01143 0.61476   1
   1  -3  -5 3.38615  2.4338   1
  -1   3   6 184.238 14.6369   1
  -1   3   6 183.205 8.82475   1
   1  -3  -6 192.169 13.4904   1
  -1   3   7 164.006 13.9428   1
  -1   3   7 154.157 7.54407   1
   1  -3  -7 163.907  11.993   1
  -1   3   8 29.4738 6.77908   1
  -1   3   8 24.2177 2.51129   1
   1  -3  -8 22.3409 3.47522   1
   1  -3  -9 99.7583 8.81323   1
  -1   3   9 99.8337 4.79273   1
  -1   3   9 130.666 12.9616   1
  -1   3  10 137.737 16.1396   1
  -1   3  10 119.093 5.46823   1
   1  -3 -10 124.799 10.1847   1
   1  -3 -11 1.56908 2.97071   1
  -1   3  11 1.96629 1.97656   1
  -1   3  11 3.91178 9.05295   1
  -1   3  12  0.2139 1.96278   1
   1  -3 -12-2.98185 3.42543   1
  -1   3  12-4.34428 10.9399   1
  -1   3  13 51.2986 5.31347   1
   1  -3 -13 69.3116 8.08068   1
  -1   3  13 77.2676 16.5153   1
  -1   3  14 27.5945 4.59952   1
   1  -3 -14 24.2279 9.06814   1
  -1   3  15 2.78597 5.59439   1
  -1   3  16 37.2496 7.56146   1
  -1   3  17    0.00 2.25751   1
  -1   3  18 7.91167 2.27451   1
  -1   4   0 8.47452 2.14724   1
  -1   4   0 6.26811 0.61961   1
  -1   4   0 10.4174 4.13411   1
  -1   4   0 9.93736 4.67193   1
  -1   4   1 4.42122 4.52807   1
  -1   4   1-0.70586 3.84702   1
  -1   4   1 2.31238 0.56896   1
   1  -4  -1 0.97019 2.69842   1
  -1   4   1  5.8561 2.12664   1
  -1   4   2 19.1551 4.89781   1
  -1   4   2  14.537 0.99052   1
   1  -4  -2 18.8923 3.40952   1
  -1   4   2 17.1229 4.85711   1
  -1   4   3 4.20623 4.48569   1
  -1   4   3 8.35316 4.76226   1
  -1   4   3 3.04858 0.53171   1
   1  -4  -3 3.39814 2.60644   1
  -1   4   4 3.76487 0.96599   1
  -1   4   4 0.18629 4.29361   1
   1  -4  -4 0.59645  2.4566   1
  -1   4   5  101.63 10.5011   1
  -1   4   5 93.2084 4.69906   1
   1  -4  -5 106.778 8.67187   1
  -1   4   6 176.205 8.56692   1
  -1   4   6 191.686 16.1706   1
   1  -4  -6 199.446 14.2864   1
  -1   4   7 27.1421 2.02616   1
  -1   4   7 28.7732 9.23616   1
   1  -4  -7 22.1989 3.94722   1
  -1   4   8 0.47963 1.14345   1
   1  -4  -8 0.06562 2.80833   1
  -1   4   9 87.5318  4.4011   1
   1  -4  -9 102.873 9.02416   1
  -1   4   9  80.144 18.9833   1
  -1   4  10-5.61216 9.35284   1
  -1   4  10 1.13814 1.90139   1
   1  -4 -10  6.0054 3.47512   1
  -1   4  11 27.4106 3.68021   1
   1  -4 -11 24.0908 4.33709   1
  -1   4  11 30.3204 11.4799   1
   1  -4 -12 135.053 12.1303   1
  -1   4  12 45.0833 8.12147   1
  -1   4  12 175.257 22.5152   1
  -1   4  13 7.77247 16.6916   1
  -1   4  13 6.01551  2.1738   1
   1  -4 -13 7.12358 5.33187   1
   1  -4 -14-8.08848 8.74037   1
  -1   4  14 0.93095 2.81498   1
  -1   4  14-4.04595 22.4082   1
  -1   4  15  2.2414 2.93668   1
  -1   4  16 13.9495 4.30316   1
  -1   4  18    0.00 2.46748   1
  -1   5   0 6.92435  5.4898   1
  -1   5   0 16.6792 5.86635   1
  -1   5   0 8.72133 0.89721   1
  -1   5   0 11.6549 2.96882   1
   1  -5   0 7.64304 3.85193   1
  -1   5   1 54.0517 6.20511   1
  -1   5   1 62.7422 9.28026   1
  -1   5   1 47.7714 2.24846   1
  -1   5   1 67.0354 9.78517   1
   1  -5  -1 63.8707 7.13812   1
  -1   5   2 18.8721 6.28861   1
  -1   5   2 7.77994 5.45519   1
  -1   5   2 10.0645 1.21717   1
   1  -5  -2 11.0764 3.45803   1
  -1   5   3 94.8567 11.3335   1
  -1   5   3 80.0162 4.12745   1
   1  -5  -3 86.9967 8.14827   1
  -1   5   3 77.8448  10.883   1
  -1   5   4 683.703 46.8109   1
  -1   5   4 583.619 38.7009   1
   1  -5  -4 692.352 45.5115   1
   1  -5  -5 41.3589 6.06108   1
  -1   5   5 17.0302 6.34126   1
  -1   5   6 0.42187 0.96066   1
  -1   5   7-4.05472  6.2954   1
  -1   5   7 4.72412 1.17924   1
   1  -5  -7  7.4658 4.15766   1
  -1   5   8  5.0855 2.13877   1
   1  -5  -8   31.88 4.91207   1
  -1   5   8 41.7271 9.23438   1
  -1   5   9 8.72301  9.2566   1
  -1   5   9  6.5811 3.19669   1
   1  -5  -9 9.20586 4.03206   1
  -1   5  10 11.8934  3.1014   1
  -1   5  10 36.4152 11.9223   1
   1  -5 -10 35.1374 5.54529   1
   1  -5 -11 251.081 19.5689   1
  -1   5  11 301.204 27.5891   1
  -1   5  11 224.044 13.3232   1
  -1   5  12 4.70773 2.05882   1
  -1   5  12 19.0339 14.3735   1
  -1   5  13 26.6813 18.5301   1
  -1   5  13 0.53986 1.15976   1
  -1   5  14 5.50951 5.05446   1
  -1   5  14-35.3826 23.4511   1
   1  -5 -14-0.08471 10.0326   1
  -1   5  16 4.07831 2.37358   1
  -1   6   0 103.395 12.8661   1
  -1   6   0 99.0565 8.69539   1
  -1   6   0 16.0413  2.2452   1
   1  -6   0 76.7735 9.97145   1
  -1   6   0  80.882 12.0143   1
  -1   6   1 2.35549 6.81605   1
   1  -6  -1-2.19285  3.7404   1
  -1   6   1 1.69174 1.03632   1
  -1   6   1-1.32988 3.78841   1
  -1   6   2 204.709 18.4092   1
  -1   6   2 180.274  7.6353   1
   1  -6  -2 214.618 16.3152   1
  -1   6   2 231.557  19.307   1
  -1   6   3 38.0332 9.89037   1
  -1   6   3 30.7214 1.98146   1
   1  -6  -3 29.5207 5.44515   1
  -1   6   4 85.5536 3.67718   1
   1  -6  -4 65.4234 11.1898   1
  -1   6   4 97.3122 12.4819   1
  -1   6   5  580.91 40.8307   1
  -1   6   5 423.262 15.4183   1
   1  -6  -5 520.257 36.6491   1
  -1   6   6 58.3284  10.328   1
  -1   6   6 9.28337 5.78871   1
   1  -6  -6 64.0448 7.75406   1
  -1   6   7 7.83256 7.92267   1
  -1   6   7 4.21872 1.79013   1
   1  -6  -7 4.10726 3.81079   1
  -1   6   8 2.06821 3.12221   1
  -1   6   8 21.6078 9.23989   1
   1  -6  -8 19.6139 4.99359   1
  -1   6   9 129.491 19.0429   1
   1  -6  -9 132.062 12.3018   1
  -1   6  10 17.3432  2.6051   1
   1  -6 -10 18.8822 5.40851   1
  -1   6  10 20.5767 12.2019   1
  -1   6  11 2.02232 1.88248   1
  -1   6  11-0.26467 14.4603   1
   1  -6 -11 1.82329 5.15797   1
  -1   6  12  14.682 2.39826   1
   1  -6 -12 20.2048 6.78483   1
  -1   6  12 22.6045 16.4375   1
  -1   6  13 24.8837  21.367   1
  -1   6  13  21.636 1.95472   1
   1  -6 -13 22.8717 10.8653   1
  -1   6  13 24.8875 11.3523   1
  -1   6  14 8.65305 1.81541   1
   1  -6 -14 15.7648 11.3389   1
  -1   6  14 7.67502 17.8498   1
  -1   6  14-51.6604 25.5867   1
  -1   6  17 0.71001 2.11406   1
  -1   7   0-4.71334 9.26468   1
  -1   7   0 6.45747 1.31005   1
  -1   7   0 9.55091 8.44366   1
  -1   7   0 2.21523 3.22234   1
   1  -7   0 5.57749 8.75281   1
  -1   7   1 197.608 19.9155   1
   1  -7  -1 152.599 15.2237   1
  -1   7   1 190.097 16.8788   1
  -1   7   1 121.048 4.96907   1
  -1   7   2 8.92528 5.46627   1
  -1   7   2 -2.6972  8.5678   1
  -1   7   2 1.73036 1.15372   1
   1  -7  -2 7.63272 5.01315   1
  -1   7   2 8.14662 10.2914   1
  -1   7   3-1.09963 8.14742   1
  -1   7   3 1.43472 1.16359   1
  -1   7   4 3.14968 1.52352   1
   1  -7  -4 6.77469 4.52731   1
  -1   7   4 4.79209 8.07673   1
  -1   7   5 167.235 17.9051   1
   1  -7  -5 140.801 12.8116   1
  -1   7   6-11.1566 8.95119   1
  -1   7   6 1.09848 1.61234   1
   1  -7  -6  2.7102 4.55888   1
  -1   7   7 29.8474 9.69883   1
  -1   7   7  18.605 4.33017   1
   1  -7  -7 23.5319 5.17754   1
  -1   7   8 142.696 8.76564   1
  -1   7   8 163.039 19.2161   1
   1  -7  -8 141.972 13.3179   1
  -1   7   9 3.67689 12.5488   1
  -1   7   9 5.58332 1.81927   1
   1  -7  -9 7.89642 5.62758   1
  -1   7  10 59.2429 15.0654   1
  -1   7  10 55.4741 4.66202   1
   1  -7 -10 54.5312 8.03279   1
  -1   7  11 4.91959  15.386   1
  -1   7  11 7.45265 1.88616   1
   1  -7 -11  8.7735 6.06469   1
  -1   7  12 10.3646 18.0427   1
  -1   7  12 5.87077 1.12085   1
  -1   7  12 2.99902 10.4071   1
   1  -7 -12-4.51627 8.49366   1
  -1   7  13 141.311 7.26838   1
   1  -7 -13 140.314 18.0605   1
  -1   7  13 130.071 25.2055   1
  -1   7  13 156.977  23.871   1
  -1   7  14 124.969 6.60941   1
  -1   7  14-70.1836 37.8589   1
  -1   7  15 1.50619 2.99162   1
  -1   7  16 14.8131 3.77637   1
   1  -8   0 250.899 22.4154   1
  -1   8   0 278.718 20.7594   1
  -1   8   0 328.201 24.9785   1
  -1   8   0 233.061 26.2697   1
  -1   8   1 38.4827 10.7781   1
  -1   8   1 28.6944  5.4414   1
   1  -8  -1  39.389 7.74821   1
  -1   8   2 189.303 16.0498   1
   1  -8  -2 159.049 16.3738   1
  -1   8   2 235.494 20.8484   1
  -1   8   3 4.15163 1.72833   1
   1  -8  -3 6.51899 5.24816   1
  -1   8   3  6.3128  4.8023   1
  -1   8   3   18.02 10.5836   1
  -1   8   4 2.90293 10.6844   1
  -1   8   4 1.37578 3.58259   1
   1  -8  -4 14.8714 5.59259   1
  -1   8   4 14.7522 5.06364   1
  -1   8   5 0.65213 10.6636   1
  -1   8   5 2.26921 1.59726   1
   1  -8  -5 5.88425 5.02574   1
  -1   8   6 30.3732 3.40952   1
   1  -8  -6  27.361 6.38388   1
  -1   8   6 39.5259 11.3396   1
  -1   8   7 20.7172  2.5029   1
  -1   8   7 18.2361  11.295   1
   1  -8  -7 16.0768 5.95734   1
  -1   8   8 2.41077 1.70119   1
  -1   8   8-7.76722 12.7704   1
   1  -8  -8-2.10696 5.76524   1
  -1   8   9 19.0376 2.48005   1
  -1   8   9 16.4887 15.0132   1
   1  -8  -9 23.4463 7.51687   1
   1  -8 -10 37.1531 8.37845   1
  -1   8  10 41.4602 17.4055   1
   1  -8 -11 189.662   16.90   1
  -1   8  11  131.27 23.6989   1
  -1   8  11 134.167 6.85068   1
  -1   8  11  202.68 20.6275   1
  -1   8  12 9.05485 1.38453   1
  -1   8  12 32.7056  21.063   1
  -1   8  12 29.6443 13.0835   1
   1  -8 -12 4.38823  10.021   1
  -1   8  13 4.93235 2.78746   1
  -1   8  14 1.87928  1.2678   1
  -1   8  15 5.41539 1.93729   1
  -1   9   0 12.0309 17.9799   1
   1  -9   0 42.4166 10.5279   1
  -1   9   0 29.9817 6.76089   1
  -1   9   0 41.6285 13.7444   1
  -1   9   1 45.1509 13.6349   1
   1  -9  -1 43.4547 9.49718   1
  -1   9   1 37.8799 7.61125   1
  -1   9   2 47.9039 7.31572   1
  -1   9   2 70.7263 14.3672   1
   1  -9  -2 52.7913 9.61065   1
   1  -9  -3 1.88889 7.41174   1
  -1   9   3-0.62747 5.34505   1
  -1   9   3 0.56284 13.1314   1
  -1   9   3  1.7459 1.51105   1
  -1   9   4 1.93155 13.5787   1
  -1   9   4-0.00978 5.46532   1
  -1   9   4  3.5099 1.60702   1
   1  -9  -4-4.20378 6.95661   1
   1  -9  -5 173.071 17.1941   1
  -1   9   5 208.815 26.6401   1
  -1   9   5 169.743 9.93616   1
  -1   9   5 203.721 16.9002   1
  -1   9   6 4.44813 1.64786   1
  -1   9   6-6.20812 14.1964   1
   1  -9  -6 14.2932 6.46175   1
  -1   9   6 15.5086 6.04266   1
  -1   9   7  4.3284 5.88357   1
  -1   9   7 0.39064 1.59588   1
   1  -9  -7-2.54263 6.81688   1
  -1   9   7  3.2396 15.3644   1
  -1   9   8-8.29707 17.5645   1
  -1   9   8 0.00961 3.51451   1
   1  -9  -8 18.8786 7.98624   1
  -1   9   8 15.4431 6.87616   1
  -1   9   9 1.48786 4.78263   1
  -1   9   9 36.0631  8.9001   1
   1  -9  -9 18.5997 9.17744   1
  -1   9   9-4.44484 18.9849   1
  -1   9  10 20.9587 10.1553   1
  -1   9  10 17.4267 1.70833   1
  -1   9  10 30.7867 20.2773   1
   1  -9 -10 22.6271  10.134   1
  -1   9  11 38.5767 13.0383   1
  -1   9  11  40.504 3.62024   1
  -1   9  11 58.6564 22.8522   1
  -1   9  12 217.351 10.5696   1
  -1   9  13 68.4405 3.96984   1
  -1   9  14 1.32072 1.85332   1
  -1  10   0 228.492 25.6202   1
   1 -10   0  180.66 24.6712   1
  -1  10   0 197.483 20.0589   1
  -1  10   1-0.98628 14.4358   1
  -1  10   1 18.0567 7.62364   1
  -1  10   1   5.842 2.19656   1
   1 -10  -1 18.9541 11.1836   1
  -1  10   2 32.5993 15.3646   1
  -1  10   2 1.13555 6.46926   1
  -1  10   2 4.38019   2.084   1
   1 -10  -2 10.6698 9.78682   1
  -1  10   3 55.9266 16.8276   1
  -1  10   3 27.1223 3.41383   1
  -1  10   3 19.4924 6.65841   1
   1 -10  -3 7.93668 9.75928   1
  -1  10   4 15.1012 2.33955   1
  -1  10   4 25.4222 6.58333   1
   1 -10  -4 23.5309 8.68639   1
  -1  10   4 20.1633 16.8331   1
  -1  10   5 36.4196  18.582   1
  -1  10   5 1.42781 4.44405   1
   1 -10  -5 21.8483 10.8996   1
  -1  10   5 14.6881 6.30428   1
  -1  10   6 54.0392 24.7393   1
   1 -10  -6 22.5656 9.62022   1
  -1  10   6 40.0869 7.85706   1
  -1  10   7 1.73169 20.5406   1
  -1  10   7    0.00 3.38904   1
  -1  10   7 11.6037 7.55892   1
   1 -10  -7 6.92343  9.7779   1
   1 -10  -8 31.7012 10.6741   1
  -1  10   8  33.335 8.94759   1
  -1  10   8 13.1426 22.6601   1
  -1  10   9 5.89224 1.50671   1
  -1  10   9 1.68297 10.2132   1
  -1  10   9-0.79097 23.4597   1
   1 -10  -9  3.0282 12.1876   1
  -1  10  10 17.6519 1.92225   1
  -1  10  11 6.74862 1.25319   1
  -1  10  12 12.5422 1.52221   1
  -1  11   0 231.187 31.5344   1
  -1  11   0 188.051  23.206   1
   1 -11   0 205.543  31.231   1
  -1  11   1-2.61219 18.1309   1
  -1  11   1 0.37569 4.00864   1
   1 -11  -1-17.6357 15.5297   1
  -1  11   1-0.24232 10.8755   1
  -1  11   2 38.0539 10.1491   1
  -1  11   2    0.00 4.64385   1
   1 -11  -2  75.271 13.8027   1
  -1  11   2 47.2545 19.2575   1
  -1  11   3 1.10448 19.4573   1
  -1  11   3 12.9478 2.94827   1
   1 -11  -3 18.0944 12.6988   1
  -1  11   3 19.9427 9.12663   1
  -1  11   4 26.0034 21.1071   1
  -1  11   4 6.52133 2.16909   1
  -1  11   4-13.8298 8.56092   1
   1 -11  -4  9.3153 11.0428   1
  -1  11   5 80.1434 23.1933   1
  -1  11   5 101.602 5.22219   1
   1 -11  -5 88.7186 13.4889   1
  -1  11   5  58.369 9.83697   1
  -1  11   6 9.52949 8.53356   1
  -1  11   6 33.1978 2.79063   1
  -1  11   6 23.4537 23.5262   1
   1 -11  -6 32.2501 12.8822   1
  -1  11   7 0.09997 0.98187   1
  -1  11   8 32.4533 2.43807   1
  -1  11   9 8.10538 1.36407   1
  -1  11  10 3.47525 1.11358   1
  -1  11  11    0.00 2.42702   1
  -1  12   0 0.68763 3.19767   1
  -1  12   2 0.49229  1.6973   1
  -1  12   3 3.14096 1.40934   1
  -1  12   4 13.3515 1.72757   1
  -1  12   6    0.00 1.14823   1
  -1  12   7 0.04734 1.83206   1
  -1  13   0 2.07676 2.71214   1
  -1  13   1 1.07238 1.50843   1
  -1  13   3 2.58615 3.07849   1
   0 -13   1 13.2662  3.2349   1
   0 -13   2 20.7205 6.06286   1
   0 -13   3 4.77037 4.38045   1
   0 -13   4 5.37631 4.64132   1
   0 -13   5 6.63858 4.33594   1
   0 -13   6 2.52136 4.57904   1
   0 -12   1 6.85314 3.64736   1
   0  12  -1 56.0495 20.0739   1
   0 -12   1 32.0896 17.0619   1
   0 -12   2 56.9704 11.0707   1
   0 -12   2 177.345 24.4677   1
   0  12  -2 231.192 35.8454   1
   0 -12   3 96.5248 8.41479   1
   0 -12   4  15.877 2.95692   1
   0 -12   5  0.6859 3.56124   1
   0 -12   6   51.77 6.75001   1
   0 -12   7 1.77492 3.29471   1
   0 -12   8 17.9269 5.76182   1
   0 -12   9 4.36906 3.06815   1
   0  11  -1 11.0736 14.9254   1
   0 -11   1 30.2915 12.0452   1
   0 -11   1 10.7816 3.16162   1
   0 -11   2 0.72707 2.74963   1
   0 -11   2 -8.5394 16.7787   1
   0  11  -2 36.8004 16.7754   1
   0 -11   3 22.0484 18.4248   1
   0  11  -3 3.28414 22.1052   1
   0  11  -4 14.1524 20.0367   1
   0  11  -5 45.3896 18.9502   1
   0 -11   6 75.2408 15.2243   1
   0  11  -6 98.4503 19.6549   1
   0 -11   7 2.16795 3.94334   1
   0  11  -7 4.49891 17.6443   1
   0 -11   8 2.96748 3.75772   1
   0 -11   9 69.8042   8.354   1
   0 -11  10 6.87899 3.45949   1
   0 -11  11 50.2465 10.2525   1
   0 -10   1  45.423 10.2436   1
   0 -10   1 29.9058 4.13484   1
   0  10  -1 50.8075 13.1706   1
   0  10  -1 78.5287 24.4338   1
   0  10  -2 132.172 21.5961   1
   0 -10   2 191.224 20.0458   1
   0 -10   2 66.4063 8.07774   1
   0  10  -2  175.76 24.9174   1
   0 -10   3 61.2959 13.0975   1
   0 -10   3 20.9424  3.3145   1
   0  10  -3 67.2918 19.7783   1
   0  10  -3  67.904  14.475   1
   0 -10   4 68.2793  8.2015   1
   0  10  -4 196.299 27.1773   1
   0  10  -4  152.90 24.5704   1
   0 -10   4 209.512 26.8786   1
   0 -10   5 1.04262  2.5789   1
   0  10  -5 -19.539 15.3291   1
   0  10  -5  1.0486 17.0884   1
   0 -10   6 1.32627 2.41343   1
   0  10  -6 8.22274 15.0952   1
   0  10  -7 74.6285 22.5011   1
   0  10  -8  146.63  22.613   1
   0  10  -9-12.2746 13.9705   1
   0 -10   9 2.97889 6.13431   1
   0 -10  10 16.5708 4.33558   1
   0  10 -10-0.36575 15.7655   1
   0 -10  11 10.4947 3.65804   1
   0 -10  12 10.8328 3.56926   1
   0 -10  13 4.58045 2.62599   1
   0  -9   1 3.37575 6.77426   1
   0   9  -1 5.45472 16.9921   1
   0   9  -1 0.73536 5.07861   1
   0  -9   1  3.6135 3.36349   1
   0  -9   2 296.407  30.721   1
   0   9  -2 749.597 55.8472   1
   0  -9   2 733.937 50.9024   1
   0  -9   3 651.123  47.637   1
   0  -9   3 239.964 25.2458   1
   0   9  -3 726.725 53.0946   1
   0   9  -4 3.05341 13.3117   1
   0  -9   4 0.60005  2.0439   1
   0  -9   4 1.63062 10.8326   1
   0  -9   5 249.453 27.8271   1
   0  -9   5 83.0786 9.69417   1
   0   9  -5 238.567 27.7538   1
   0   9  -6-19.1569 15.3955   1
   0  -9   6 4.93128 2.60753   1
   0   9  -6 25.7653 14.5898   1
   0  -9   7 10.6896 2.77241   1
   0   9  -7 40.6151 15.8791   1
   0  -9   8 87.5241 10.6629   1
   0   9  -8 158.617 25.8956   1
   0  -9   9 22.7987 9.61639   1
   0   9  -9 33.3102 17.7818   1
   0   9 -10 55.3263 20.1354   1
   0  -9  11 40.7078 9.85758   1
   0   9 -11  89.479 22.7144   1
   0   9 -12-4.00368 23.2865   1
   0  -9  12 1.61613 3.62072   1
   0  -9  13 55.5236 6.99012   1
   0  -9  14 0.15629 2.28425   1
   0  -8   1 11.3812 3.07792   1
   0   8  -1 17.5371 15.0872   1
   0  -8   1 25.0689 6.35704   1
   0  -8   2 187.123 17.8282   1
   0  -8   2 66.9695 8.28923   1
   0   8  -2 200.627  23.361   1
   0   8  -2 197.721 15.4444   1
   0   8  -3-6.76529 6.09884   1
   0  -8   3 5.06155 1.68935   1
   0   8  -3 1.95584 11.6877   1
   0  -8   3 4.32147 8.82424   1
   0  -8   4 189.296 20.1767   1
   0  -8   4 499.274 35.1633   1
   0   8  -4 462.811 38.7254   1
   0  -8   5 383.426 31.7286   1
   0  -8   5 158.017  29.237   1
   0   8  -5 409.781 34.8146   1
   0   8  -6-3.46136 12.9636   1
   0  -8   6 0.45504 1.60057   1
   0   8  -7 160.979 22.8711   1
   0  -8   7 62.1205 7.69723   1
   0   8  -8 10.6265 12.0683   1
   0  -8   8 0.90407 2.02838   1
   0  -8   9  31.623 3.99142   1
   0   8  -9 71.1442 15.3163   1
   0   8 -10 50.3181 17.4548   1
   0  -8  10 22.0816  3.5356   1
   0   8 -11 134.547  25.856   1
   0   8 -12 13.1588 25.5217   1
   0   8 -13-32.6612 28.0398   1
   0  -8  13 2.54197 5.58037   1
   0  -8  14 58.7528 7.37651   1
   0  -8  15 0.14796  2.2798   1
   0   7  -1 14.0065 9.39394   1
   0  -7   1 9.12807 4.43629   1
   0  -7   2 18.0792 5.43578   1
   0   7  -2 11.0059 10.2092   1
   0   7  -2 13.3303 3.63696   1
   0  -7   2 8.12083 1.81578   1
   0   7  -3  160.87 12.3817   1
   0   7  -3 152.159 18.4738   1
   0  -7   3  152.87 14.7007   1
   0  -7   3 52.6885  7.0028   1
   0   7  -4 -5.0773 9.82675   1
   0  -7   4 4.83372  6.9071   1
   0  -7   4 2.63501 1.46621   1
   0  -7   5 46.1644 10.4106   1
   0  -7   5 18.2514 3.31902   1
   0   7  -6 523.288 41.6369   1
   0  -7   6 536.178 43.4607   1
   0  -7   6 261.423 27.3904   1
   0   7  -7 17.9775   12.56   1
   0  -7   7  12.723 2.08992   1
   0   7  -8 8.30091 11.7583   1
   0   7  -9 0.88644 12.9447   1
   0  -7   9  2.1366 2.49968   1
   0   7 -10 197.752 25.6806   1
   0  -7  10 77.1177 9.66007   1
   0   7 -11 12.3915 16.8383   1
   0  -7  11 0.79207 4.14684   1
   0   7 -12 118.717 26.5214   1
   0  -7  12 56.3268 7.61415   1
   0   7 -13 9.13913 24.8664   1
   0   7 -14 117.131 34.0993   1
   0  -7  14 48.5557 6.80502   1
   0  -7  15 3.21512 2.50596   1
   0  -7  16 1.76777 3.28836   1
   0  -7  17 27.7117 8.72055   1
   0  -6   1 62.1721 7.48127   1
   0  -6   1  47.753 4.59141   1
   0   6  -1 66.9853 11.1704   1
   0   6  -2 70.1371 11.7325   1
   0  -6   2 72.9047 8.80951   1
   0  -6   2 55.9933 5.28822   1
   0   6  -3-2.62753 2.61444   1
   0   6  -3-4.30908 8.65047   1
   0  -6   3 1.19997 4.83838   1
   0  -6   3 0.34092 3.11048   1
   0   6  -4 188.113 19.6686   1
   0   6  -4 191.706 14.1424   1
   0  -6   4 209.157 16.5276   1
   0  -6   4 190.964 28.6311   1
   0  -6   5 65.3013 9.38593   1
   0  -6   5 37.8747 3.95939   1
   0   6  -6  73.892 13.4183   1
   0  -6   6 82.2521 11.8049   1
   0  -6   6 40.4176 3.86321   1
   0  -6   7  17.741 2.12906   1
   0   6  -8 103.968 18.7988   1
   0  -6   8 53.4921 4.63405   1
   0   6  -9 87.3589 17.0423   1
   0  -6   9 29.0409 3.73757   1
   0   6 -10 26.8432 15.4937   1
   0   6 -11 263.886 28.8654   1
   0  -6  11 103.925 9.63475   1
   0   6 -12 197.807 27.6799   1
   0  -6  12 99.9438 9.35847   1
   0   6 -13-15.6106 22.3936   1
   0  -6  13 8.51921 4.08001   1
   0   6 -14 5.85562 26.0647   1
   0   6 -15 122.831 36.6832   1
   0  -6  15 59.3274 11.9572   1
   0  -6  16 9.54497  3.4832   1
   0  -6  17 1.73866 3.37137   1
   0   5  -1 41.9421 8.04411   1
   0  -5   1 30.2566 4.43577   1
   0  -5   1 25.8895 2.56479   1
   0   5  -2 15.4769 6.75256   1
   0  -5   2 14.1655 4.00369   1
   0  -5   2 11.5511 1.44741   1
   0   5  -3 8.75819 6.75536   1
   0   5  -3 3.92467 2.08152   1
   0  -5   3 3.72328 4.25302   1
   0  -5   3 2.87063 0.93713   1
   0   5  -4 91.2633  12.939   1
   0  -5   4 84.8033  12.994   1
   0   5  -4 93.5024 7.57561   1
   0   5  -5 36.2538 9.50381   1
   0  -5   5 18.4328 3.66793   1
   0  -5   6 69.2194 6.74981   1
   0   5  -6 99.6006 14.3384   1
   0   5  -7-3.92338 13.4948   1
   0  -5   7 3.15337  2.3443   1
   0  -5   8  3.4912 2.42455   1
   0   5  -8 7.55557 9.02857   1
   0   5  -9 11.4391 10.5093   1
   0  -5   9 1.32901  1.4904   1
   0  -5  10  46.291 4.85843   1
   0   5 -10 116.051 19.5966   1
   0   5 -11-5.24147 12.7587   1
   0  -5  11    0.00 4.21425   1
   0   5 -12 130.995 22.6833   1
   0  -5  12  56.334 6.10474   1
   0   5 -13-31.3591 18.0166   1
   0  -5  13 4.64087 3.44582   1
   0   5 -14 1.36161 24.0363   1
   0  -5  14 15.5069 3.83919   1
   0   5 -15-41.2606 31.1392   1
   0  -5  15 1.94362 3.73942   1
   0  -5  16 2.42683 3.71614   1
   0  -5  17 35.9053 8.11027   1
   0  -5  18 12.2579 4.88216   1
   0  -4   1 28.8363 4.56601   1
   0  -4   1 21.9364  2.1358   1
   0  -4   2 18.1215 3.82317   1
   0  -4   2 17.1209 1.74591   1
   0   4  -2 27.7055 7.47311   1
   0   4  -3 580.215 33.5044   1
   0   4  -3 488.015 36.3947   1
   0  -4   3 456.761 33.7703   1
   0  -4   3  417.01 36.5933   1
   0   4  -4 2.22137 6.70811   1
   0  -4   4 8.08855 4.64475   1
   0  -4   4 0.49446 0.48234   1
   0   4  -4 3.58552 2.00682   1
   0   4  -5 4.76933 6.22295   1
   0  -4   5 0.28534 5.71378   1
   0   4  -5  1.2326 2.73004   1
   0  -4   5 5.16874 1.06714   1
   0  -4   6 1361.90 125.582   1
   0   4  -6 1654.05 114.571   1
   0  -4   6 1786.25 111.527   1
   0   4  -7 73.1759 11.9061   1
   0   4  -8 294.409 25.3205   1
   0  -4   9 18.4898 2.22116   1
   0  -4  10 43.3703 4.69167   1
   0   4 -11 1.72295  10.374   1
   0  -4  11 5.51808 2.08699   1
   0   4 -12 37.7959 11.5324   1
   0  -4  12 22.2289  4.7973   1
   0   4 -13 37.2296 16.8921   1
   0  -4  13 21.1416 4.07676   1
   0   4 -14 107.869 22.9032   1
   0  -4  14 62.6135 9.17703   1
   0  -4  15 2.41125   3.673   1
   0  -4  17 27.9978 7.31779   1
   0  -4  18 5.21998  2.5494   1
   0  -4  19 12.5301 5.20144   1
   0   3  -1-0.30104 4.84684   1
   0  -3   1 0.18352 0.32451   1
   0  -3   1-2.83466  2.1764   1
   0   3  -2 65.9617 9.14529   1
   0  -3   2 68.6199 6.35034   1
   0  -3   2 57.3153 5.13791   1
   0  -3   3 47.6179 4.32404   1
   0   3  -3 61.3627 4.63318   1
   0  -3   3 51.0683 6.59853   1
   0   3  -4 792.065 45.6828   1
   0   3  -4 653.406 48.0751   1
   0  -3   4 651.984 45.6095   1
   0  -3   4 544.396 50.2166   1
   0   3  -5 129.591 14.5474   1
   0  -3   5 131.252 12.1306   1
   0   3  -5 168.245 10.6844   1
   0  -3   5 104.932 7.53188   1
   0  -3   6 132.098  9.4568   1
   0   3  -6  169.17 16.0915   1
   0   3  -6 180.236 12.7262   1
   0  -3   6 162.693 14.1574   1
   0  -3   7 329.593 30.4588   1
   0   3  -7 377.798 28.7318   1
   0   3  -8 76.0644 11.5654   1
   0  -3   8 44.3207 4.38858   1
   0   3  -9 1.49119 6.43006   1
   0  -3   9 0.08865 1.31947   1
   0   3 -10 27.6684 8.56362   1
   0  -3  10 17.8915 4.05028   1
   0   3 -11 452.726 34.5764   1
   0  -3  11 297.024 24.2149   1
   0   3 -12 56.4488 12.0759   1
   0  -3  12 33.1868 4.47212   1
   0   3 -13 61.7428 15.2713   1
   0  -3  13 41.9839 5.25214   1
   0   3 -14 277.089 32.2984   1
   0  -3  14 200.507 21.7223   1
   0  -3  15  76.912 15.6285   1
   0  -3  17 8.72771 4.03051   1
   0  -3  18 36.5394   8.348   1
   0  -3  19 13.7042 9.06287   1
   0   2  -1 96.7945 9.48501   1
   0  -2   1 108.245 7.63132   1
   0  -2   1 108.154 9.52898   1
   0   2  -2 6.34281 4.15801   1
   0  -2   2 3.92041 0.80536   1
   0   2  -2 1.16626  1.7535   1
   0   2  -3  767.26 49.7577   1
   0   2  -3 701.946 47.3201   1
   0  -2   3 752.117 53.0252   1
   0   2  -4 29.0745 3.46827   1
   0   2  -4 31.4502 6.61816   1
   0  -2   4 22.7526 1.72324   1
   0   2  -5 299.137 18.0643   1
   0   2  -5 260.627 21.0463   1
   0   2  -5 242.176 17.5912   1
   0  -2   5 227.705 16.1727   1
   0   2  -6 33.5398 4.09933   1
   0   2  -6 40.6156 4.18625   1
   0   2  -6 33.9413 6.48763   1
   0  -2   6 35.2301 5.17039   1
   0  -2   6 31.2015  2.3635   1
   0   2  -7 449.395 32.5351   1
   0   2  -7 530.985 35.6875   1
   0  -2   7 491.143 45.3029   1
   0  -2   7  518.35 33.7977   1
   0  -2   8 6.17389 0.90347   1
   0   2  -8 5.16715 5.50146   1
   0   2  -9 10.0129 6.00897   1
   0  -2   9 9.76905 1.61924   1
   0  -2  10 134.208 14.8977   1
   0   2 -10  204.79 18.6311   1
   0  -2  11 20.4845 4.18783   1
   0   2 -12 114.393 16.4266   1
   0  -2  12 60.8081 7.82765   1
   0  -2  13 47.0557 6.75417   1
   0   2 -13 78.1379 14.9965   1
   0  -2  14 28.7104 4.36949   1
   0  -2  15 268.734 28.4164   1
   0  -2  17 80.7153 10.0706   1
   0  -2  18 5.82984 10.1804   1
   0  -2  19 8.66111 3.48004   1
   0  -1   1 116.317 10.2333   1
   0   1  -2 84.4385 5.58226   1
   0   1  -2 74.0803 7.86765   1
   0  -1   2 85.2772 6.05479   1
   0   1  -3 22.4688 4.98286   1
   0   1  -3   34.09 2.72729   1
   0  -1   3 31.8596 2.38365   1
   0   1  -4  72.905 9.60601   1
   0   1  -4 112.489 7.29633   1
   0   1  -4 95.7724  6.6104   1
   0  -1   4 86.1078 5.30922   1
   0   1  -5 13.1104 2.62353   1
   0   1  -5 14.1732 1.80509   1
   0   1  -5 11.1416  5.1899   1
   0  -1   5 13.9126 1.13493   1
   0   1  -6 337.139 26.1423   1
   0   1  -6 365.724 24.6953   1
   0  -1   6 350.301 21.3764   1
   0   1  -6 391.796 23.7363   1
   0   1  -7 5.60798 4.93675   1
   0   1  -7 4.16444 1.70639   1
   0  -1   7 3.24539 4.71177   1
   0  -1   7 3.82477 0.52881   1
   0   1  -8 80.5521 10.0694   1
   0  -1   8 69.1605 6.55645   1
   0   1  -9 67.5177  9.9802   1
   0  -1   9 70.1376 6.82884   1
   0   1 -10 7.22033 6.01119   1
   0  -1  10 0.91464 1.08267   1
   0   1 -11 257.205 21.8408   1
   0  -1  11 150.726 16.4242   1
   0   1 -12 10.5452 9.87625   1
   0  -1  12 52.6341 5.29811   1
   0  -1  13 47.1369 6.38838   1
   0  -1  14 87.0052 8.24543   1
   0  -1  15 2.85564 3.27277   1
   0  -1  16 12.8366 4.02048   1
   0  -1  17 22.1745 11.8636   1
   0  -1  18 40.5764 6.97931   1
   0  -1  19    0.00 4.53725   1
   0   0   1 10.9078 1.04643   1
   0   0   2 49.5102  3.6849   1
   0   0  -3  1.7914 3.30396   1
   0   0  -3 2.29229 1.65397   1
   0   0   3  0.5371 0.14468   1
   0   0  -4 49.2749  3.4698   1
   0   0  -4 51.6974 4.85012   1
   0   0  -4  34.417  6.5803   1
   0   0   4 38.5637 2.89565   1
   0   0  -5 828.588 49.8776   1
   0   0  -5 725.792 51.5545   1
   0   0   5  728.08 67.3567   1
   0   0  -6 153.158 13.1495   1
   0   0  -6 178.831 10.8839   1
   0   0   6  152.89 12.2748   1
   0   0   6  158.33 14.7408   1
   0   0  -7 488.596 33.3366   1
   0   0   7 482.139 32.2305   1
   0   0   7 394.298 36.0528   1
   0   0  -8  85.131 9.93735   1
   0   0  -8 94.8305 6.49516   1
   0   0   8 71.3158  10.284   1
   0   0   8  82.306 5.99406   1
   0   0  -9 23.4134 6.37657   1
   0   0  -9 23.2724 2.95068   1
   0   0   9 17.0867   1.642   1
   0   0 -10 31.3091 7.52959   1
   0   0  10 7.35473  3.0815   1
   0   0  11 115.783 12.9837   1
   0   0  12 0.55687 1.61513   1
   0   0  13 2.56329 2.47206   1
   0   0  14 289.207 30.3962   1
   0   0  15 171.737 19.0056   1
   0   0  16   52.21  11.749   1
   0   0  18 17.3693 6.94651   1
   0   0  19 2.35559 4.92116   1
   0   0  20  4.5423  6.5716   1
   0   1   0 0.65618 0.12062   1
   0   1   1 423.019 28.9993   1
   0  -1  -2   88.12 6.12522   1
   0   1   2 54.6494 5.04292   1
   0  -1  -3 27.8069 2.36901   1
   0   1   3 21.5027 2.05758   1
   0  -1  -4 433.704 25.7106   1
   0   1   4  357.94 26.3058   1
   0   1   4 356.652 32.8806   1
   0  -1  -5 639.833 38.3684   1
   0   1   5  547.55 38.9481   1
   0   1   5 518.957 84.1043   1
   0  -1  -6 688.339 46.0885   1
   0   1   6 715.791  45.827   1
   0   1   6 684.391 63.1523   1
   0  -1  -7 77.0504  8.3558   1
   0   1   7 85.9866 8.62129   1
   0   1   7 79.8543 5.78012   1
   0  -1  -7 91.2591 6.18065   1
   0  -1  -8 544.431  33.635   1
   0  -1  -8 505.847 34.9396   1
   0   1   8 508.095 34.9899   1
   0   1   8 479.848 27.5294   1
   0  -1  -9  588.28 35.4658   1
   0   1   9 496.932 37.1857   1
   0   1   9 449.089 30.3723   1
   0  -1 -10 3.78901 2.65466   1
   0   1  10 1.56388 0.85921   1
   0   1  11 0.54329 1.44127   1
   0   1  12 98.5581 11.3771   1
   0   1  13 10.8365 3.86529   1
   0   1  14  9.5332 12.2355   1
   0   1  15  34.628 6.54862   1
   0   1  18 1.79261  3.3893   1
   0   1  19 1.77578 5.03383   1
   0   1  20 7.24466 5.01645   1
   0  -2   0 815.268 49.8278   1
   0   2   0 732.936 51.0256   1
   0   2   0 824.325 72.2182   1
   0  -2  -1 74.1396 5.51674   1
   0   2   1 59.5717 5.27261   1
   0   2   2 83.1491  7.3424   1
   0  -2  -2 108.878 7.61953   1
   0  -2  -3 173.566 11.6816   1
   0   2   3 125.484 11.0492   1
   0  -2  -4 1285.01 82.5848   1
   0   2   4 914.828 133.141   1
   0   2   5 215.787 15.8504   1
   0   2   5 237.181 20.8433   1
   0  -2  -6 129.094 8.63499   1
   0   2   6 121.135 10.7294   1
   0   2   6 116.375 10.8086   1
   0  -2  -7 174.653 11.5369   1
   0   2   7 164.446 13.9378   1
   0   2   7 145.458 13.5494   1
   0  -2  -8 64.6026 4.98246   1
   0   2   8 53.8649 4.04998   1
   0   2   8 53.4296 8.78037   1
   0  -2  -9 113.071 8.29739   1
   0   2   9 122.345 12.7646   1
   0   2   9 99.2677 6.85938   1
   0  -2 -10 33.5487 4.20778   1
   0   2  10 16.3132 4.91438   1
   0   2  10 39.3372 9.24855   1
   0  -2 -11 436.316 29.0177   1
   0   2  11  272.89 24.0136   1
   0   2  12 0.41816 1.59417   1
   0   2  13 0.46303 1.94806   1
   0   2  14  10.956 2.83045   1
   0   2  15 34.6386 5.55224   1
   0   2  16 0.25973 3.89249   1
   0   2  19 2.06208 4.40704   1
   0  -3   0 543.216 35.7567   1
   0   3   0 560.083 37.3985   1
   0   3   0 508.675 44.5336   1
   0  -3  -1 102.571 7.51817   1
   0   3   1 101.227 9.37147   1
   0   3   1 91.5337 8.10276   1
   0   3   2 59.6939 7.22959   1
   0   3   2  61.483 5.48374   1
   0  -3  -2 77.9719 5.66896   1
   0  -3  -3 218.554 14.7542   1
   0   3   3 154.189  13.578   1
   0   3   4 167.637 14.7696   1
   0  -3  -4 237.959 16.0468   1
   0  -3  -5 67.6136 5.36757   1
   0   3   5 44.1845 4.28325   1
   0   3   6 378.131 34.7326   1
   0  -3  -6 483.962 31.6189   1
   0  -3  -7 403.384 25.9642   1
   0   3   7 386.331 27.9219   1
   0   3   7 342.869 31.5474   1
   0  -3  -8 2.17122 1.67958   1
   0   3   8 1.36784  6.2685   1
   0   3   8  1.8527 1.00279   1
   0  -3  -9 44.4748  4.4972   1
   0   3   9 47.0379 8.61394   1
   0   3   9   39.54 3.59441   1
   0  -3 -10 244.451 16.5492   1
   0   3  10 240.379 22.0369   1
   0   3  10 215.528  15.095   1
   0  -3 -11 5.97882 4.46206   1
   0   3  11 1.76657 0.97537   1
   0  -3 -12 10.4039 4.75202   1
   0   3  12 9.20835 1.54046   1
   0   3  13 19.2218 2.43222   1
   0   3  14 125.503 12.8981   1
   0   3  15  13.335  3.2236   1
   0   3  18 24.3112 7.53102   1
   0  -4   0 169.592  12.088   1
   0   4   0 161.282 14.2353   1
   0   4   0 172.796 14.4983   1
   0   4   1 819.272 54.3448   1
   0   4   1 742.868 108.216   1
   0  -4  -2 382.611 24.9267   1
   0   4   2 371.299 26.1498   1
   0   4   3 14.0932 2.41228   1
   0  -4  -3 21.5503 3.56595   1
   0   4   3 32.9633 5.36094   1
   0  -4  -4 22.5918 3.59901   1
   0   4   4 16.4309 2.79839   1
   0  -4  -5  68.704  5.9802   1
   0   4   5   46.55  4.5676   1
   0  -4  -6 1.17199 1.89264   1
   0   4   6 0.26796 0.71865   1
   0   4   7 8.03235 5.92272   1
   0   4   7  0.8933 0.87227   1
   0  -4  -8 595.934 38.3609   1
   0   4   8 575.921 40.8013   1
   0   4   8 587.155  85.833   1
   0   4   9 206.839 19.7029   1
   0   4   9 186.326 18.1987   1
   0  -4 -10 23.6575 3.34053   1
   0   4  10 28.2845 10.5507   1
   0   4  10 23.4525 2.25406   1
   0   4  11 8.16847 1.37274   1
   0  -4 -12 36.7693 5.33911   1
   0   4  12 30.6193 2.88848   1
   0   4  13 4.61242 2.01888   1
   0   4  14  0.3076 1.45883   1
   0   4  17 69.5171 13.7669   1
   0   4  18 11.8604 5.98717   1
   0   4  19    0.00 4.94763   1
   0  -5   0 730.235 49.0674   1
   0   5   0 779.093 51.4682   1
   0   5   0 632.724 55.4325   1
   0  -5  -1 531.405 35.0989   1
   0   5   1 475.902 41.7403   1
   0  -5  -2 64.6708 6.12439   1
   0   5   2 59.7505 9.69346   1
   0   5   2 19.9811 4.29334   1
   0  -5  -3 696.868 45.4166   1
   0   5   3 696.499 46.6982   1
   0   5   3 253.564 41.6472   1
   0  -5  -4 316.192 21.4436   1
   0  -5  -5 194.764 13.8651   1
   0  -5  -6 339.989 22.9026   1
   0   5   6 266.998 39.2691   1
   0  -5  -7 238.102 15.6406   1
   0   5   7 202.313 18.6231   1
   0   5   7 188.481 27.9136   1
   0  -5  -8 2.62996 2.37052   1
   0   5   8 3.01525 1.73909   1
   0   5   8 8.47979 8.10653   1
   0  -5  -9 28.0655 3.82991   1
   0   5   9   31.95  11.465   1
   0   5   9  23.538 3.34079   1
   0  -5 -10 10.3393 3.14041   1
   0   5  10  1.3808 14.3291   1
   0   5  10 9.76091 2.56034   1
   0  -5 -11 74.1709 7.78526   1
   0   5  11 66.9771 19.1683   1
   0   5  11  54.058 4.99273   1
   0  -5 -12 11.2708 5.06897   1
   0   5  12 28.0431 21.1984   1
   0   5  12 6.31751 1.83305   1
   0   5  13 3.46253 2.18646   1
   0  -5 -13-8.67932 9.48306   1
   0   5  14 177.724 12.8757   1
   0   5  17 17.4955 5.23499   1
   0   5  18  2.4868 3.10184   1
   0  -6   0 3.70236 3.26837   1
   0   6   0-0.69914 7.36672   1
   0   6   0 6.17019 1.28417   1
   0  -6  -1 80.1482  7.7033   1
   0   6   1 83.4537 12.5361   1
   0   6   1 74.3763 6.83787   1
   0  -6  -2 346.966 23.6573   1
   0   6   2 348.119 26.4446   1
   0  -6  -3 574.663 37.8442   1
   0   6   3 572.196 40.1458   1
   0   6   3 446.749 65.3507   1
   0  -6  -4-1.66911  2.3496   1
   0   6   4 0.35193 0.98171   1
   0  -6  -5 362.964  24.696   1
   0   6   5 261.532 38.5184   1
   0  -6  -6 39.0273 5.07882   1
   0   6   6 17.0998  5.5127   1
   0  -6  -7 14.4512 3.39431   1
   0   6   7 15.9426 8.48148   1
   0   6   7 11.3439 2.27658   1
   0   6   8 299.881 26.2465   1
   0  -6  -8 326.666 23.5186   1
   0   6   8 252.222 24.2425   1
   0  -6  -9 86.1985 8.06079   1
   0   6   9 71.8889 7.46166   1
   0   6  10 29.2032 13.1989   1
   0   6  10 3.53156 2.29618   1
   0  -6 -11 118.229 11.0677   1
   0   6  11 65.1236 18.1891   1
   0   6  11 137.524 20.3422   1
   0  -6 -12 543.595 36.7104   1
   0   6  12 533.128 46.6486   1
   0   6  12 388.284 37.0867   1
   0   6  13 32.4028 3.15535   1
   0  -6 -13 67.0518 9.59542   1
   0   6  14   28.42 4.75386   1
   0   6  15 5.88677  3.2318   1
   0   6  16 59.1752 11.9537   1
   0   6  17 26.2044 7.33861   1
   0   6  18    0.00 5.21625   1
   0  -7   0 52.1198 7.91345   1
   0   7   0 71.6808 11.9562   1
   0   7   0 47.7779 7.59545   1
   0  -7  -1 43.4661 6.89004   1
   0   7   1 58.4024 11.5486   1
   0   7   1 42.8554 6.91761   1
   0  -7  -2 97.7654 9.46805   1
   0   7   2 109.471 17.6275   1
   0   7   2  35.986 8.86311   1
   0  -7  -3 342.684 23.8027   1
   0   7   3 146.303 26.3566   1
   0  -7  -4 74.2549 8.09992   1
   0   7   4 48.6114 6.08828   1
   0  -7  -5 4.46224 3.38766   1
   0   7   5 1.32791 3.44557   1
   0  -7  -6 4.80856 3.51284   1
   0   7   6 0.33388 1.18738   1
   0  -7  -7  4.8227 3.38978   1
   0   7   7-6.95785 9.39732   1
   0   7   7 2.72759 1.58543   1
   0  -7  -8 137.561 10.9446   1
   0   7   8 113.502 16.2356   1
   0   7   8 87.9012 11.3018   1
   0  -7  -9 98.8205 9.70891   1
   0   7   9 109.119  16.155   1
   0   7   9 80.2279 8.56013   1
   0  -7 -10 93.3356 9.84857   1
   0   7  10 82.6392 7.52533   1
   0   7  11 42.3565 19.3845   1
   0  -7 -11 47.0893 6.69262   1
   0   7  11 32.1861 4.96737   1
   0  -7 -12 118.595 12.7483   1
   0   7  12 113.013 25.5087   1
   0   7  12 61.8659 4.70189   1
   0   7  13 67.8708 9.38771   1
   0   7  14 7.86238 2.17507   1
   0   7  15 22.9606 2.75446   1
   0   7  16 3.26765 3.24002   1
   0   7  17 50.6745 31.6883   1
   0   8   0 75.5199  14.282   1
   0  -8   0 153.851 13.9172   1
   0  -8  -1 61.2188 8.64096   1
   0   8   1  22.279 4.63692   1
   0   8   2  47.244 9.99813   1
   0   8   2 171.454 30.4986   1
   0  -8  -3 126.302 11.2741   1
   0   8   3 58.1698 11.8634   1
   0   8   4 11.9353 2.67507   1
   0  -8  -4 24.5973 5.05601   1
   0  -8  -5 20.1337 4.81906   1
   0   8   5 5.65217 10.2205   1
   0   8   5 13.6377 2.64756   1
   0   8   6 104.902   16.29   1
   0  -8  -6 137.742 11.6686   1
   0   8   6 124.714 16.6426   1
   0   8   7 0.52155 11.8427   1
   0  -8  -7 10.0119 4.21971   1
   0   8   7 3.63481 1.83638   1
   0   8   8 7.96463 13.4802   1
   0   8   8 15.7418 3.28613   1
   0  -8  -9 270.745 20.4221   1
   0   8   9 293.109 29.8911   1
   0   8   9 212.205   21.64   1
   0  -8 -10 222.033 17.8906   1
   0   8  10  243.51  30.601   1
   0   8  10 174.051 14.3588   1
   0  -8 -11 305.921 22.9761   1
   0   8  11  299.80 39.8527   1
   0   8  11 227.537  22.192   1
   0   8  12 8.67896  25.927   1
   0  -8 -12  17.885  10.037   1
   0   8  12 4.08846 2.23857   1
   0   8  13 37.1099 36.7034   1
   0   8  14 31.4204 7.64385   1
   0   8  15 8.55978 2.51105   1
   0   8  16 15.4425 5.76475   1
   0  -9   0 130.964 14.3899   1
   0   9   0 202.358   24.83   1
   0   9   0 139.164 13.1837   1
   0   9   0  92.877 14.6776   1
   0   9   1 53.6988 9.29136   1
   0  -9  -1  73.067 11.0685   1
   0  -9  -2 34.7671 6.34984   1
   0   9   2 26.4281 5.85926   1
   0  -9  -3 83.0786 10.8316   1
   0   9   3 28.1801 7.25428   1
   0  -9  -4 91.3048 10.8686   1
   0   9   4   86.74 15.4079   1
   0   9   4 41.8383 9.41897   1
   0  -9  -5 64.5537 9.46577   1
   0   9   5 57.5785 14.2036   1
   0   9   5 32.0039 8.07562   1
   0   9   6-6.56823  13.045   1
   0  -9  -6 12.1412 5.10113   1
   0   9   6 9.21467 2.65366   1
   0  -9  -7  18.203 5.06545   1
   0   9   7 4.92893 15.5488   1
   0   9   7 11.4471 2.78206   1
   0  -9  -8 102.195  11.304   1
   0   9   8 86.3122 19.3031   1
   0   9   8 61.1345 7.20728   1
   0  -9  -9 231.221 18.5213   1
   0   9   9 223.111 32.1034   1
   0   9   9 148.525 14.9943   1
   0   9  10 51.7193 24.3655   1
   0   9  10 14.1655 4.27508   1
   0  -9 -11  22.448 8.23248   1
   0   9  11 54.4348 24.5284   1
   0   9  11 16.8867 3.47057   1
   0  -9 -12 48.9791 10.7971   1
   0   9  12 65.3692 31.8277   1
   0   9  12 18.7372 3.46535   1
   0   9  13 1.16464 1.60893   1
   0   9  14 10.7017 2.05616   1
   0   9  15 6.82276 5.80795   1
   0 -10   0 49.8618 9.54114   1
   0  10   0  37.412 7.42893   1
   0  10   0 36.1743 12.8326   1
   0  10   0 18.8743 4.03684   1
   0  10   1 9.65777 3.34322   1
   0 -10  -1 25.3279  8.2421   1
   0  10   1 22.4145 12.3556   1
   0  10   1 24.2209 5.98365   1
   0 -10  -2 149.243 15.5169   1
   0  10   2 96.0452 17.2161   1
   0  10   2 39.1954 5.70064   1
   0 -10  -3 4.43507   6.591   1
   0  10   3-9.25048 13.0294   1
   0  10   3 0.12083 2.14241   1
   0 -10  -4   95.85 12.8512   1
   0  10   4 90.8533 17.2434   1
   0  10   4  51.159 10.6467   1
   0 -10  -5  9.2032 6.47947   1
   0  10   5 4.24888 3.44953   1
   0  10   5-0.96532 14.9774   1
   0  10   6 111.103 11.4944   1
   0 -10  -6 202.219 17.6654   1
   0  10   6 203.755 25.9179   1
   0 -10  -7-2.06927 6.47556   1
   0  10   7  0.7445 19.6872   1
   0  10   7  1.8541 2.57263   1
   0 -10  -8 24.2226 8.80145   1
   0  10   8 9.21668 34.3109   1
   0  10   9 31.5827 22.5761   1
   0  10  10 26.3625 26.0952   1
   0 -10 -10 67.7664 10.0991   1
   0  10  10 47.1862 6.95064   1
   0 -10 -11 103.576 13.6538   1
   0  10  11 104.876 30.0889   1
   0  10  11 47.3502 9.76226   1
   0  10  12    0.00  1.9299   1
   0  10  13 83.0565 7.83871   1
   0 -11   0 43.4343 11.5783   1
   0  11   0 -1.7797 14.7264   1
   0  11   0 3.70048 2.89841   1
   0  11   1  5.7768 15.2892   1
   0  11   1 9.63513 3.18636   1
   0 -11  -1 35.0879 10.4522   1
   0  11   1 24.3965 9.64198   1
   0  11   2 102.621 14.5347   1
   0  11   2 128.766 20.0702   1
   0  11   2   53.50  6.8856   1
   0 -11  -3 270.702 21.8058   1
   0  11   3 265.628 33.9314   1
   0  11   3 194.755 19.5116   1
   0  11   3 118.244 21.3714   1
   0 -11  -4-5.03893 10.8009   1
   0  11   4-23.6297 23.7108   1
   0 -11  -5 50.2945 11.3935   1
   0  11   5 52.0922 27.3253   1
   0  11   6  30.544 23.5881   1
   0  11   7  58.131 24.6318   1
   0  11   7 3.21649 2.98116   1
   0 -11  -8 72.8316 10.8785   1
   0  11   8 40.0954 26.6543   1
   0  11   8 39.0674 4.13081   1
   0  11   9 32.3943 7.23502   1
   0  11  10 18.2869 2.81019   1
   0  11  11 4.20261 1.88283   1
   0  11  12 10.4078 5.98523   1
   0 -12   0-3.91953 13.4213   1
   0  12   0 32.4943  20.122   1
   0 -12  -1 15.7655 12.1881   1
   0  12   1 26.3708 20.9575   1
   0  12   2  27.159 22.1941   1
   0 -12  -2-3.51878 11.5709   1
   0 -12  -3 245.674 23.8588   1
   0  12   3 239.847 39.5325   1
   0  12   3 93.7609 16.9823   1
   0  12   4 45.4878 11.8579   1
   0 -12  -4 71.5784 11.5508   1
   0  12   4 20.4324 25.3848   1
   0  12   4  19.874 3.59875   1
   0 -12  -5-8.27837 10.9774   1
   0  12   5 7.92674 10.6948   1
   0  12   5  6.5763 26.3576   1
   0  12   5 1.31819  1.9648   1
   0  12   6 4.27953 2.43883   1
   0  12   7  27.578 3.56094   1
   0  12   8 36.1746 4.09919   1
   0  12   9 1.50129 2.85354   1
   0  12  10  11.852 6.01313   1
   0  13   0 43.6871 5.45523   1
   0  13   1 4.11945 2.80273   1
   0  13   2 25.5153 4.00915   1
   0  13   3 13.2612   3.223   1
   0  13   4 7.19619 2.92531   1
   0  13   5  31.125 4.47682   1
   0  13   6   36.40 8.67815   1
   1 -13   1    0.00 2.93536   1
   1 -13   2 3.20034 1.78682   1
   1 -13   3 3.66181 5.03089   1
   1 -12   1 4.28472 3.47498   1
   1 -12   3 0.89565 1.44772   1
   1 -12   5  5.7032 1.46584   1
   1 -11   1    0.00   5.293   1
   1 -11   3 4.51823 2.13644   1
  -1  11  -4-17.5569 24.8797   1
   1 -11   4 6.58818 1.85313   1
  -1  11  -5 9.19319 23.7397   1
   1 -11   6    0.00 3.72713   1
   1 -11   8 2.39042 3.66948   1
   1 -11   9 27.4858 2.91203   1
   1 -11  10 2.15247 1.43807   1
  -1  10  -1 403.092  34.425   1
   1 -10   1 393.133 36.5223   1
  -1  10  -1 371.291 30.8113   1
  -1  10  -2-34.3486 20.5627   1
   1 -10   2 4.00168 1.99209   1
  -1  10  -2  2.9989 9.56369   1
  -1  10  -3-20.1782 17.8643   1
   1 -10   3    0.00 4.43656   1
  -1  10  -4 49.2029 23.8479   1
   1 -10   4    0.00 4.63823   1
  -1  10  -5 23.0128 17.1266   1
  -1  10  -6  161.43 28.3418   1
  -1  10  -7 3.86097 17.2793   1
   1 -10   7 3.46825 5.26409   1
  -1  10  -8 7.31047 16.1352   1
   1 -10   8 14.0998  2.6317   1
   1 -10  10 34.3664  3.2228   1
   1 -10  11   13.93 2.33247   1
   1 -10  12 0.13922 1.45681   1
  -1   9  -1-9.83371 14.7815   1
  -1   9  -1 13.0416 6.79434   1
  -1   9  -1 25.6636 12.6647   1
   1  -9   1  15.641 12.4134   1
   1  -9   1 4.48469 2.08127   1
  -1   9  -2 694.517 46.6853   1
  -1   9  -2 681.398 47.6525   1
  -1   9  -2 616.348 52.4025   1
  -1   9  -3 134.726 16.7918   1
  -1   9  -3 166.833 25.1343   1
  -1   9  -4 22.9206 9.30926   1
   1  -9   4 1.14875 4.04827   1
  -1   9  -4 26.2693 14.4932   1
  -1   9  -5  105.00 18.3689   1
  -1   9  -6 139.622 24.6035   1
   1  -9   7 5.14066  1.7489   1
  -1   9  -7  22.809 14.6707   1
   1  -9   8 0.73588  4.8773   1
  -1   9  -9 227.495 29.6554   1
   1  -9   9 146.163 12.0834   1
  -1   9 -10  15.427 16.2146   1
   1  -9  10 5.84494 1.65951   1
   1  -9  11 26.7469 5.09571   1
   1  -9  12  0.4041 5.27238   1
   1  -9  14 0.40339 1.36011   1
  -1   8  -1 1.53532 11.6722   1
  -1   8  -1 5.33797 10.5256   1
  -1   8  -1 0.63597 5.40644   1
   1  -8   1 3.23205  2.1764   1
   1  -8   2 7.31523 1.85801   1
  -1   8  -2-2.71905 10.6373   1
  -1   8  -2 11.4301 11.6075   1
  -1   8  -2 11.1844  6.1555   1
  -1   8  -3 207.591 25.2672   1
  -1   8  -3 204.722 18.3082   1
  -1   8  -3 240.525 21.1683   1
  -1   8  -4 146.935 14.8621   1
  -1   8  -4 151.963 23.6278   1
   1  -8   4 96.6073 5.49012   1
  -1   8  -5 -6.8975 12.7108   1
  -1   8  -5 6.38173 6.51404   1
   1  -8   5 2.87692  1.5091   1
  -1   8  -6 5.12086 13.7879   1
   1  -8   6 3.34489 1.84423   1
  -1   8  -7  27.128  14.359   1
   1  -8   7 1.55978 4.17503   1
  -1   8  -8 64.1325 17.8408   1
   1  -8   8 3.42176 4.00319   1
  -1   8  -9 22.5903 17.6011   1
   1  -8   9 1.62062 3.96718   1
  -1   8 -10 232.513 38.7512   1
   1  -8  10 187.807 11.9101   1
  -1   8 -11 5.94572 19.9334   1
   1  -8  11 1.73485 1.49785   1
  -1   8 -12 91.9566 23.9121   1
   1  -8  12 72.3253 5.34035   1
   1  -8  13 0.13095 1.34855   1
   1  -8  14 56.4338 5.22668   1
   1  -8  15 3.45633 1.52841   1
  -1   7  -1 12.7673 4.09622   1
  -1   7  -1 1.72428 8.63564   1
   1  -7   1-1.57475 6.63107   1
  -1   7  -1 0.92608 8.09626   1
   1  -7   1 5.08291 1.14799   1
  -1   7  -2  43.868 9.67206   1
  -1   7  -2 30.1422 5.41586   1
   1  -7   2 34.9576 9.78652   1
  -1   7  -2 46.9446 10.6892   1
   1  -7   2 31.3935 2.77014   1
  -1   7  -3 41.9142 6.08711   1
  -1   7  -3 74.6502  13.132   1
   1  -7   3 40.3345  2.8084   1
  -1   7  -4 6.23507 4.75098   1
  -1   7  -4 15.4619 11.5322   1
   1  -7   4 9.06295 1.49962   1
  -1   7  -5 40.3313  13.005   1
   1  -7   5 24.3492 2.09728   1
  -1   7  -5 33.8081 6.17725   1
  -1   7  -6 289.784 28.9585   1
  -1   7  -7 2.93549 12.5202   1
   1  -7   7 1.48165 0.95748   1
  -1   7  -8-11.0022 13.9512   1
   1  -7   8  1.0526 0.94308   1
  -1   7  -9 91.1743 19.2573   1
   1  -7   9 6.55507 5.05165   1
  -1   7 -10 23.4447 17.4395   1
   1  -7  10 4.48046 4.27925   1
  -1   7 -11-10.9416  18.249   1
   1  -7  11 0.81661 1.43945   1
  -1   7 -12 53.6246 23.2446   1
   1  -7  12 19.9662 4.03013   1
  -1   7 -13 250.139 36.7335   1
   1  -7  13 34.8738 7.39296   1
   1  -7  14 0.65742 1.36185   1
   1  -7  15 1.39708 1.31602   1
   1  -7  16 37.9695 4.08427   1
   1  -6   1 7.68565  5.3723   1
  -1   6  -1 17.5783 7.31617   1
  -1   6  -1  23.072 3.85656   1
   1  -6   1  23.043 6.19898   1
  -1   6  -1  21.653 7.89053   1
  -1   6  -2 225.617 19.0064   1
  -1   6  -2 193.052 17.2295   1
  -1   6  -2 203.143 15.0088   1
   1  -6   2 174.304 17.5815   1
   1  -6   2 148.901  6.6158   1
  -1   6  -3   52.63 6.25018   1
  -1   6  -3 58.0568 7.99651   1
  -1   6  -3 68.2935  10.929   1
   1  -6   3 49.1105 9.73386   1
   1  -6   3  39.766  2.6618   1
  -1   6  -4 173.343 18.1349   1
  -1   6  -4  168.28 13.3011   1
  -1   6  -4 155.367 13.9433   1
   1  -6   4 119.617 4.59936   1
  -1   6  -5-0.95911 3.76659   1
   1  -6   5 4.61632 1.10673   1
  -1   6  -6 1.02792 11.2555   1
  -1   6  -6-3.27685 7.56681   1
   1  -6   6 1.34021 1.13539   1
  -1   6  -7 73.2162 10.8959   1
  -1   6  -7 122.154 19.4777   1
  -1   6  -8 8.71806 13.0995   1
   1  -6   8 1.57292 1.07111   1
  -1   6  -9  55.719 16.1946   1
   1  -6   9 38.9759 2.45189   1
  -1   6 -10 69.1954 17.7962   1
   1  -6  10 36.4061 3.08586   1
  -1   6 -11 34.9708 17.7784   1
   1  -6  11 31.4205 3.09536   1
  -1   6 -12 9.13178 18.1888   1
   1  -6  12 3.55349 1.52086   1
  -1   6 -13 66.8045 23.5065   1
   1  -6  13 24.3096 4.33635   1
   1  -6  14  14.524 5.01976   1
  -1   6 -14 81.8359 27.4498   1
   1  -6  15 10.6535 1.80687   1
   1  -6  16 49.7143 4.09669   1
   1  -6  17 3.79315 1.79542   1
   1  -5   1 95.6353 4.08439   1
  -1   5  -1 134.292 12.3785   1
   1  -5   1 110.896 11.0233   1
  -1   5  -1 121.509 9.50536   1
  -1   5  -1 130.788 12.7161   1
  -1   5  -2 1.63016 5.52864   1
  -1   5  -2 0.45829 2.02292   1
  -1   5  -2-1.54573 4.76104   1
   1  -5   2-3.38536 5.12514   1
   1  -5   2 1.22384 0.81513   1
   1  -5   3 120.614 13.5886   1
  -1   5  -3 150.343 11.0242   1
  -1   5  -3 148.507 14.7551   1
  -1   5  -3 138.657 11.8473   1
   1  -5   3 112.672  6.0546   1
  -1   5  -4 441.686 33.2444   1
  -1   5  -4 446.271 29.9775   1
   1  -5   4 363.399 24.6775   1
  -1   5  -5 21.3959 3.88909   1
  -1   5  -5 21.0283 11.7151   1
   1  -5   5 17.0632 2.27824   1
   1  -5   6 164.587  8.1097   1
  -1   5  -6 208.266 21.2398   1
  -1   5  -6 218.298 16.0344   1
  -1   5  -7 168.512 13.7091   1
   1  -5   7  144.11 6.19461   1
  -1   5  -8 14.3186 4.91081   1
  -1   5  -8 3.02963 11.0908   1
   1  -5   8 7.31029 1.08759   1
  -1   5  -9-5.12703 11.9341   1
   1  -5   9 0.50917 0.84864   1
  -1   5 -10 227.128 25.2259   1
   1  -5  10 164.239 7.20469   1
  -1   5 -11-1.16553 14.0147   1
   1  -5  11 0.35554 1.25956   1
  -1   5 -12 111.211 20.2933   1
   1  -5  12 69.6923 4.66913   1
  -1   5 -13 14.0181 17.9876   1
   1  -5  13 4.96029 3.59361   1
   1  -5  14 3.29947 2.04434   1
  -1   5 -14-1.69743 20.0678   1
   1  -5  15 17.6355 3.16306   1
  -1   5 -15-11.2344 28.3347   1
   1  -5  16 29.9841 3.03107   1
   1  -5  17 78.0642 5.42802   1
  -1   4  -1 5.37731 3.82991   1
  -1   4  -1 6.74846 1.99095   1
  -1   4  -1 1.85607 4.56098   1
   1  -4   1 3.40683 3.61701   1
   1  -4   1 4.96768 0.54158   1
  -1   4  -2 429.378 27.7043   1
  -1   4  -2 382.455 27.6309   1
  -1   4  -2 427.676   29.43   1
   1  -4   2  417.29 28.0974   1
   1  -4   2 347.448 25.6122   1
  -1   4  -3 14.9743 6.47609   1
  -1   4  -3 18.0917 2.79829   1
  -1   4  -3 22.8703 3.72717   1
   1  -4   3 17.8213 5.85898   1
   1  -4   3 17.2243 1.08423   1
  -1   4  -4 73.5645 10.9241   1
  -1   4  -4 70.2887 6.68942   1
   1  -4   4 60.1935  4.6671   1
  -1   4  -5 136.281 15.3193   1
  -1   4  -5 137.832 10.5172   1
  -1   4  -6 6.27171 2.76311   1
   1  -4   6 14.6678 2.66256   1
  -1   4  -6 0.64955 6.93005   1
   1  -4   7 52.0995 2.71232   1
  -1   4  -7 50.2329 10.4691   1
  -1   4  -7 59.8204 7.18704   1
  -1   4  -8 3.83821 3.82435   1
  -1   4  -8  -0.944  8.3339   1
   1  -4   8 0.99681 0.91275   1
  -1   4  -9  376.63  28.792   1
  -1   4  -9  456.81 34.1685   1
   1  -4   9 360.699 14.5678   1
  -1   4 -10-7.91952 10.7059   1
   1  -4  10 0.62387 0.83125   1
  -1   4 -11 4.27084 12.2861   1
   1  -4  11 0.25093 0.81203   1
  -1   4 -12 33.4489 13.4253   1
   1  -4  12 27.6725 2.78076   1
  -1   4 -13 157.674 25.7984   1
   1  -4  13 108.441 6.29735   1
   1  -4  14 12.5046 2.08875   1
  -1   4 -14-3.75763 18.8701   1
   1  -4  15 55.6674 6.44483   1
   1  -4  16 36.6864 3.46798   1
   1  -4  17 0.09738 1.51289   1
   1  -4  18 6.18185 1.77903   1
  -1   3  -1 36.3204 5.84128   1
  -1   3  -1 31.0415 3.55882   1
   1  -3   1 36.7977 5.13042   1
   1  -3   1 29.5872 1.33417   1
  -1   3  -1 32.8859 4.62409   1
  -1   3  -2 60.9819 7.74329   1
  -1   3  -2 67.6033 5.51706   1
   1  -3   2 61.1178 7.15786   1
   1  -3   2 52.9706 2.24248   1
  -1   3  -3 576.366 38.8419   1
   1  -3   3 490.637 24.2035   1
  -1   3  -3  600.53 37.9527   1
  -1   3  -3 592.116   40.24   1
  -1   3  -4 556.169 38.6519   1
  -1   3  -4 565.226 36.9762   1
   1  -3   4 410.534 20.3767   1
  -1   3  -5 366.993 24.4357   1
  -1   3  -5 357.889 26.7606   1
   1  -3   5 289.282 19.5699   1
   1  -3   6 80.2005 6.04519   1
  -1   3  -6 127.403 9.82815   1
  -1   3  -6 120.356 13.7221   1
  -1   3  -7 72.8964  7.1608   1
  -1   3  -7 73.4172 11.7456   1
   1  -3   7 53.6877 4.60726   1
  -1   3  -8 16.6431 7.36076   1
  -1   3  -8 18.1401 3.83862   1
   1  -3   8 14.4625 1.52584   1
  -1   3  -9 18.1113 4.49339   1
   1  -3   9 20.2142 1.64712   1
  -1   3 -10 149.306 14.5651   1
   1  -3  10 137.199 5.47382   1
  -1   3 -11 0.08881 9.29651   1
   1  -3  11 0.96486 0.79742   1
  -1   3 -12 118.715 18.1942   1
   1  -3  12 84.1093 4.12347   1
  -1   3 -13 243.825 26.7416   1
   1  -3  13 215.032 10.2536   1
   1  -3  14 234.724 13.3363   1
  -1   3 -14 206.895 30.5874   1
   1  -3  15 1.12976 1.80321   1
   1  -3  16  0.1774 2.26002   1
   1  -3  17 40.6532 3.82886   1
   1  -3  18 30.7783 3.19931   1
   1  -3  19 1.90698 2.16349   1
  -1   2  -1  2.6444 2.06128   1
  -1   2  -1 2.85417 3.29496   1
  -1   2  -1 1.80761 1.15101   1
   1  -2   1-0.45487 2.09869   1
   1  -2   1 2.01439 0.25229   1
  -1   2  -2 6.14933 2.17153   1
  -1   2  -2 5.05528 3.14488   1
  -1   2  -2  1.4307 1.33378   1
   1  -2   2 1.96747 0.24153   1
   1  -2   3 37.4952 1.84651   1
  -1   2  -3 53.3757 6.70829   1
  -1   2  -3   48.70 4.62476   1
  -1   2  -4 3.39821 1.53276   1
  -1   2  -4 4.11506 3.88658   1
   1  -2   4 2.19227 0.45959   1
  -1   2  -5  85.852 7.18817   1
  -1   2  -5 91.3401 9.18807   1
   1  -2   5 59.9098 2.86409   1
   1  -2   6 345.058 15.3066   1
  -1   2  -6 508.653 33.3242   1
  -1   2  -6 443.083 31.4509   1
  -1   2  -7 6.28581 4.72353   1
  -1   2  -7 5.22723 2.61793   1
   1  -2   7 3.18561 0.65815   1
  -1   2  -8 71.7986 9.78447   1
  -1   2  -8 56.1949 6.93423   1
   1  -2   8 50.7276 4.39556   1
  -1   2  -9 17.5155 4.14163   1
  -1   2  -9 14.6826 6.72963   1
   1  -2   9 17.2871 1.68128   1
  -1   2 -10 176.872 16.3918   1
  -1   2 -10 146.513 13.9828   1
   1  -2  10  151.79 5.90736   1
  -1   2 -11-3.19871 7.05734   1
  -1   2 -11-2.09286 8.48457   1
   1  -2  11 5.01174 0.98824   1
  -1   2 -12 431.206 33.4936   1
   1  -2  12  374.49 15.7072   1
   1  -2  13 0.65099 1.46045   1
  -1   2 -13-21.6055 11.5666   1
   1  -2  14 31.7604 3.20479   1
   1  -2  15 1.17817  1.6662   1
   1  -2  16    0.00 7.46054   1
   1  -2  17 12.6197  2.1397   1
   1  -2  18 3.19195 1.66476   1
   1  -2  19 29.8481 4.83454   1
  -1   1  -1 322.101 21.0548   1
  -1   1  -1 329.286 21.9495   1
  -1   1  -1  318.91  21.376   1
   1  -1   1 316.581 21.0498   1
   1  -1   1 322.792 11.2322   1
  -1   1  -2 12.0721 2.80639   1
  -1   1  -2 8.99604 1.53074   1
   1  -1   2 11.3663 0.55844   1
   1  -1   3 464.135 21.7155   1
  -1   1  -3 182.345 13.7585   1
  -1   1  -4 298.858 21.0321   1
  -1   1  -4 309.073  20.319   1
   1  -1   4 300.909 20.0379   1
  -1   1  -5 160.145 11.2499   1
  -1   1  -5 155.459 12.2291   1
   1  -1   5 139.982   6.266   1
   1  -1   6 54.8091 2.69579   1
  -1   1  -6 63.6639 5.64466   1
  -1   1  -6 54.8166  7.1977   1
   1  -1   7 7.07546 0.91294   1
  -1   1  -7 6.25544 2.53757   1
  -1   1  -7 6.52049 3.94547   1
  -1   1  -8 75.8113 7.67607   1
  -1   1  -8 84.9027 9.28442   1
   1  -1   8 73.0962 3.54475   1
  -1   1  -9 189.842 14.9865   1
  -1   1  -9 193.754  15.812   1
   1  -1   9 162.203 7.40105   1
  -1   1 -10 7.43784 4.49836   1
  -1   1 -10 5.68736 6.04909   1
   1  -1  10 3.70465 0.94127   1
  -1   1 -11 43.4043 6.86524   1
   1  -1  11 70.2531 3.23122   1
  -1   1 -12 142.839 16.9414   1
   1  -1  12 109.263 4.57925   1
   1  -1  13 323.103 15.0344   1
   1  -1  14 158.165 13.0609   1
   1  -1  15 29.4445 3.68396   1
   1  -1  16 21.7575 5.61374   1
   1  -1  17 1.30909 1.76692   1
   1  -1  18 13.3918 2.12579   1
   1  -1  19 3.68538 1.66876   1
   1   0   0 0.15507 1.45293   1
  -1   0   0 0.17408 1.10558   1
  -1   0   0 0.32938 1.62061   1
  -1   0   0 0.45295 1.77982   1
   1   0   0 0.92233 0.11384   1
  -1   0  -1  63.608 5.10662   1
  -1   0  -1 66.7482 5.04657   1
   1   0   1 64.5132 5.24165   1
   1   0   1  93.266  3.2538   1
  -1   0  -1 69.6687 5.71619   1
  -1   0  -2 35.1618 3.37242   1
  -1   0  -2 37.0929 3.60426   1
  -1   0  -2 37.0908 4.26608   1
   1   0   2 42.5027 1.70336   1
   1   0   3 1376.14 54.3138   1
  -1   0  -3 1137.56 71.7833   1
  -1   0  -3 1078.83 71.5982   1
  -1   0  -4 20.2582 2.94398   1
  -1   0  -4 20.0386 3.49278   1
   1   0   4  17.906 1.03968   1
  -1   0  -5 60.8701   6.165   1
   1   0   5  61.743 2.40104   1
  -1   0  -5 58.4627 5.28556   1
   1   0   6 179.302 7.91116   1
  -1   0  -6 166.867 12.2064   1
  -1   0  -6 172.912  12.663   1
  -1   0  -7 463.461 31.8625   1
   1   0   7 500.547 21.7042   1
  -1   0  -7 483.559 31.7299   1
  -1   0  -8 109.122 9.66364   1
  -1   0  -8 107.316  9.3619   1
   1   0   8 115.864 5.31808   1
  -1   0  -9 81.7301 8.87907   1
  -1   0  -9 62.8493 8.40018   1
   1   0   9 70.6058 3.48524   1
  -1   0 -10 274.027  19.279   1
  -1   0 -10 211.053 18.5862   1
   1   0  10 268.995  9.6282   1
  -1   0 -11-7.45293 7.76103   1
   1   0  11 7.58865 1.11139   1
   1   0  12 7.42723 1.61558   1
   1   0  13 11.9868 2.41332   1
   1   0  14 1.42966 1.72038   1
   1   0  15 6.91712 2.16758   1
   1   0  17 16.5047 2.95662   1
   1   0  18 2.61801 1.70459   1
   1   0  19  25.048  5.0867   1
  -1  -1   0 48.9304 3.97733   1
  -1  -1   0 51.1996 4.26679   1
   1   1   0 67.3656 5.05566   1
   1   1   0 47.2174 3.91266   1
  -1  -1  -1 377.162 24.0251   1
   1   1   1 365.884  23.894   1
   1   1   1 588.496 43.0765   1
  -1  -1  -1 361.596 24.2691   1
  -1  -1  -2 409.411 26.3289   1
  -1  -1  -2 386.943 25.8863   1
   1   1   2 368.933 26.2428   1
  -1  -1  -2 429.589 26.5572   1
   1   1   2 489.859 35.8596   1
  -1  -1  -3 232.951 14.8142   1
   1   1   3 246.419  9.7342   1
  -1  -1  -3 231.093  14.979   1
  -1  -1  -3  189.20 14.1064   1
  -1  -1  -4 28.6251 4.26955   1
  -1  -1  -4 35.6039 3.80397   1
   1   1   4 30.0515 1.23916   1
  -1  -1  -5 6.40618 1.70075   1
  -1  -1  -5 8.26841 2.87978   1
   1   1   5 8.62893 0.50221   1
   1   1   6 0.60621 0.23829   1
  -1  -1  -6 0.71261 1.74278   1
  -1  -1  -6-3.05988 2.80176   1
  -1  -1  -7 285.308 19.5455   1
  -1  -1  -7 279.145 19.8169   1
   1   1   7 319.809 12.1341   1
  -1  -1  -8 164.185 13.4949   1
  -1  -1  -8  183.42  13.397   1
   1   1   8  191.68 8.57745   1
  -1  -1  -9 138.083 12.4526   1
  -1  -1  -9 158.268 12.7973   1
   1   1   9 175.495 7.99929   1
  -1  -1 -10 -0.1552 5.20788   1
  -1  -1 -10-3.72179 9.02498   1
   1   1  10 1.51017 0.73343   1
   1   1  11 27.1509 1.77873   1
   1   1  12 78.4171 3.44462   1
   1   1  13 65.3121  6.9308   1
   1   1  14 0.67801 1.77839   1
   1   1  15 53.6925 5.20376   1
   1   1  17 8.31434  2.8433   1
   1   1  18 8.43597 2.02105   1
   1   1  19 19.6533 3.92502   1
  -1  -2   0 289.728 18.1255   1
   1   2   0 258.605  17.739   1
  -1  -2   0  260.08 17.8617   1
   1   2   0 300.274 11.8977   1
  -1  -2  -1  9.8752 1.80808   1
   1   2   1 7.81655 2.06055   1
   1   2   1 9.32203 0.91413   1
   1   2   2 205.865 13.8475   1
  -1  -2  -2 190.873 13.5235   1
  -1  -2  -2 205.043 13.8134   1
   1   2   3 107.224 3.97693   1
  -1  -2  -3 106.298 7.71476   1
  -1  -2  -3 93.5211 7.12893   1
   1   2   3 99.7563 8.55407   1
   1   2   4 794.209 53.7662   1
  -1  -2  -4  882.00 54.1266   1
  -1  -2  -4 791.202 52.6347   1
   1   2   4 1076.54 38.9924   1
  -1  -2  -5 73.8668 6.64105   1
  -1  -2  -5 69.2238  5.0975   1
   1   2   5 79.7273 2.68512   1
   1   2   6  214.62 10.0005   1
  -1  -2  -6 180.982 13.4537   1
  -1  -2  -7 45.3998 6.14376   1
   1   2   7 57.4878 2.84004   1
  -1  -2  -8 43.2784 6.55551   1
   1   2   8 55.4919 2.34956   1
  -1  -2  -9 4.62507 3.61676   1
   1   2   9 17.2255  1.3151   1
   1   2  10 0.50756 0.65222   1
   1   2  11 74.9141 3.78813   1
   1   2  12 59.8824 3.21645   1
   1   2  13 1.05106 1.08716   1
   1   2  14 96.7653 7.33342   1
   1   2  15 1.88462 2.78621   1
   1   2  16 6.57355 2.82049   1
   1   2  17 53.3368 7.70862   1
   1   2  18 61.8521  7.5884   1
   1   2  19 8.99391 2.74351   1
  -1  -3   0 7.02841  2.1945   1
  -1  -3   0 5.50551 2.38361   1
   1   3   0 7.38817 0.46068   1
   1   3   0 7.28657 1.97859   1
  -1  -3  -1  2.7445 2.17049   1
  -1  -3  -1 3.20368 2.10029   1
   1   3   1 6.36622 2.26907   1
   1   3   1 2.99182  0.3114   1
  -1  -3  -2 17.3534 2.79518   1
  -1  -3  -2 15.3503 2.72857   1
   1   3   2 17.9316 3.42942   1
   1   3   2 22.4364 0.96361   1
   1   3   3 147.138 5.48229   1
   1   3   3 110.047 9.81231   1
  -1  -3  -3 116.927 8.21884   1
  -1  -3  -3 105.601 8.93023   1
  -1  -3  -4 120.833 8.33954   1
  -1  -3  -4 122.068 9.47028   1
   1   3   4 94.8047 11.2927   1
   1   3   4 166.352 6.17377   1
  -1  -3  -5 75.3554 8.29621   1
  -1  -3  -5 103.536 6.93156   1
   1   3   5 121.693 4.56186   1
   1   3   6 878.723 32.8834   1
  -1  -3  -6 732.014 43.0659   1
  -1  -3  -6 599.948 44.6377   1
  -1  -3  -7 72.0009  5.4719   1
  -1  -3  -7 70.0834 7.95694   1
   1   3   7  98.208 5.16985   1
   1   3   8 90.5346 3.66151   1
   1   3   9 45.4693 2.26881   1
   1   3  10  58.525  2.6704   1
   1   3  11 21.0205 1.62967   1
   1   3  12 37.5996 2.33001   1
   1   3  13 56.1239 3.59035   1
   1   3  14 9.78418 2.51913   1
   1   3  15 112.716 7.72387   1
   1   3  16  9.8309 3.51261   1
   1   3  17 37.8272 6.24502   1
   1   3  18 0.66254 1.70681   1
   1   3  19 25.7649 3.74944   1
   1   4   0-0.27983 2.32427   1
   1   4   0 0.78018 0.24612   1
  -1  -4   0 -0.5015 2.26224   1
  -1  -4  -1 34.5228 4.82191   1
   1   4   1  39.412 5.49111   1
   1   4   1 45.5564 1.87247   1
   1   4   2 56.8554 7.44803   1
  -1  -4  -2 61.0263 5.74382   1
  -1  -4  -2  62.075 6.41284   1
   1   4   2 84.0441 3.21256   1
   1   4   3 34.0343 1.49688   1
  -1  -4  -3 21.5166 3.07065   1
  -1  -4  -3 19.1373 3.31826   1
   1   4   3 20.3087 5.36419   1
  -1  -4  -4 288.538 18.5009   1
   1   4   4 456.495 20.0786   1
  -1  -4  -4 259.187 19.4965   1
  -1  -4  -5 -0.5628 1.89834   1
   1   4   5 1.18495 0.49149   1
   1   4   6 19.0766 1.11562   1
  -1  -4  -6 10.1044 2.26909   1
  -1  -4  -7 54.7369 5.05267   1
   1   4   7 71.6822 3.00871   1
  -1  -4  -8 170.395 11.8388   1
   1   4   8 192.189 8.59164   1
  -1  -4  -9 8.48372 3.14562   1
   1   4   9 10.1253 1.04124   1
   1   4  10 9.71186 1.03658   1
   1   4  11 22.6832 1.53688   1
   1   4  12 14.6992 1.61329   1
   1   4  13 17.8608 1.72531   1
   1   4  14 0.92833 1.15766   1
   1   4  15 125.533 6.98029   1
   1   4  16 4.45182 3.45661   1
   1   4  17 0.69504  1.9098   1
   1   4  18 23.4917 3.80681   1
   1   4  19 1.86545 2.23071   1
  -1  -5   0 374.548 25.7319   1
   1   5   0 388.216 26.4719   1
   1   5   0 559.191 24.3603   1
  -1  -5  -1 137.146 10.6146   1
   1   5   1  197.56 8.75031   1
   1   5   1  137.87 12.0756   1
  -1  -5  -2 92.1622 7.58855   1
   1   5   2   79.69 10.0631   1
   1   5   2 122.358 5.51491   1
   1   5   3 369.467 16.0808   1
  -1  -5  -3 254.733 17.5894   1
  -1  -5  -4 32.8472 4.67347   1
   1   5   4 43.4795 2.20134   1
  -1  -5  -5 2.94779 2.34666   1
   1   5   5 4.16324 0.55122   1
   1   5   6 71.1851 3.39076   1
  -1  -5  -6 56.0066 5.62157   1
   1   5   7 158.102 6.93273   1
  -1  -5  -7 130.379 9.83455   1
   1   5   8 2.96421 0.67818   1
  -1  -5  -9 2.96191 4.77457   1
   1   5   9 10.5673 1.12817   1
   1   5  10  305.04 13.6391   1
   1   5  11 88.6937 4.09723   1
   1   5  12 60.2606 4.56053   1
   1   5  13 3.31149 1.65445   1
   1   5  14 68.6172 3.61352   1
   1   5  15 15.1739 1.88864   1
   1   5  17 31.0734 7.91279   1
   1   5  18  1.5567 2.56963   1
  -1  -6   0 156.122 11.4122   1
   1   6   0 128.271 15.7136   1
   1   6   0 131.635 12.5359   1
   1   6   0 213.936 9.43244   1
  -1  -6  -1 478.871 29.7971   1
   1   6   1 397.199 33.0229   1
   1   6   1 652.725 28.4769   1
  -1  -6  -2 1.75252 2.82333   1
   1   6   2  -1.316 10.1159   1
   1   6   2 2.10109 0.46158   1
   1   6   3 56.4908 2.70808   1
  -1  -6  -3 48.3008 5.67584   1
   1   6   3 31.2764 12.4931   1
  -1  -6  -4-1.87495 2.63681   1
   1   6   4-5.49992 16.2472   1
   1   6   4 1.14522 0.47776   1
  -1  -6  -5 86.4311 7.74776   1
   1   6   5 111.064 4.99611   1
   1   6   6 56.8828 2.79706   1
  -1  -6  -7 27.1721 4.12414   1
   1   6   7  5.5499 3.22102   1
   1   6   8 229.421 9.88758   1
  -1  -6  -9 4.34258 3.60519   1
   1   6   9 5.01184 0.86664   1
  -1  -6 -10 42.4362 5.86369   1
   1   6  10 40.5802 2.30733   1
   1   6  11 123.228 5.41577   1
   1   6  12  195.13 8.00836   1
   1   6  13 4.74705 1.10335   1
   1   6  14 4.25059 1.43401   1
   1   6  15 19.0392 6.16708   1
   1   6  16 1.37911 1.51679   1
   1   6  17  10.353 2.84663   1
   1   6  18 18.9614 3.14825   1
  -1  -7   0  32.523 5.37605   1
   1   7   0  39.346 11.9077   1
   1   7   0 46.0336  2.2718   1
   1   7   1 18.1724 12.3101   1
   1   7   1 4.96524 3.52623   1
  -1  -7  -2 7.14881 3.61546   1
   1   7   2 17.7745 13.1458   1
   1   7   2 1.77681 3.44772   1
   1   7   3 0.54363 0.46688   1
  -1  -7  -3-2.15488 3.04892   1
   1   7   3-3.51336 16.6195   1
  -1  -7  -4 260.378 18.5531   1
   1   7   4 102.471 11.4926   1
   1   7   5   24.54 1.50412   1
   1   7   6 37.5775 1.95966   1
  -1  -7  -6 40.4349 6.31492   1
  -1  -7  -7 117.193 10.1294   1
   1   7   7 128.022 5.24748   1
  -1  -7  -8 34.5081 5.03061   1
   1   7   8  40.439 2.15617   1
  -1  -7  -9  431.83 29.2852   1
   1   7   9 498.195 18.0272   1
  -1  -7 -10 86.3084 9.92084   1
   1   7  10 88.2935 3.95596   1
   1   7  11 3.83935 1.24109   1
   1   7  12 29.2452 2.17855   1
   1   7  13  1.7801 1.25683   1
   1   7  14 10.9599 1.61543   1
   1   7  15 0.61824 1.17882   1
   1   7  16   7.023 1.58758   1
   1   7  17   2.649 2.12335   1
   1   8   0 31.7793  1.6925   1
  -1  -8   0 13.7194 4.11814   1
   1   8   0 21.8988 14.2381   1
  -1  -8  -1 16.4773 4.54081   1
   1   8   1  35.744 15.8415   1
   1   8   1 27.1001 1.51211   1
   1   8   2 31.0932 18.1969   1
   1   8   2 4.25114  0.8324   1
  -1  -8  -3 21.5133 4.61974   1
   1   8   3 30.5559 1.59637   1
  -1  -8  -4 0.87903 3.77143   1
   1   8   4 0.07963 0.52154   1
  -1  -8  -5 133.755 11.4872   1
   1   8   5 144.825 5.90809   1
   1   8   6 8.97765 3.30337   1
  -1  -8  -6 16.7332   4.672   1
  -1  -8  -7 276.638 20.0878   1
   1   8   7 99.0679 11.4091   1
  -1  -8  -8 16.6712 4.93285   1
   1   8   8 13.9854 1.34675   1
  -1  -8  -9 13.8404  5.3209   1
   1   8   9 34.4095  23.672   1
   1   8   9  24.449 1.74108   1
  -1  -8 -10-6.25052 5.57205   1
   1   8  10-27.3794 28.5785   1
   1   8  10 0.20816 0.82776   1
   1   8  11 1.46347 0.99637   1
   1   8  12 79.6969 4.62944   1
   1   8  13  0.7601 2.70762   1
   1   8  14 1.82166 1.06582   1
   1   8  15 1.20007 1.22695   1
   1   8  16 15.4273 2.72016   1
  -1  -9   0 46.1729 6.69489   1
   1   9   0 40.2065 18.5975   1
   1   9   1 109.778 4.83798   1
  -1  -9  -1 97.2967 10.3852   1
   1   9   1  96.569 23.0634   1
  -1  -9  -2  15.076 4.73966   1
   1   9   2 24.3749 1.58595   1
  -1  -9  -3 3.87423 4.49956   1
   1   9   3 5.76941 0.99451   1
  -1  -9  -4 46.1743 6.28046   1
   1   9   4 58.8976 2.65938   1
  -1  -9  -5 22.0005 5.30835   1
   1   9   5 11.7252 5.69642   1
   1   9   6 72.6037  3.1482   1
  -1  -9  -6 79.6178 9.72425   1
  -1  -9  -7 2.20191 4.98127   1
   1   9   7 1.49281 0.91614   1
  -1  -9  -8 187.521 15.4326   1
   1   9   8 90.3964 11.1754   1
  -1  -9  -9 110.751 12.2452   1
   1   9   9 118.894  29.307   1
   1   9   9 65.2647 9.45552   1
   1   9  10-37.5305 34.9052   1
   1   9  10 1.10982 1.04639   1
   1   9  11 191.934 9.24281   1
   1   9  12 0.93383 1.04911   1
   1   9  13 10.3709 1.26652   1
   1   9  14  0.6403 1.02503   1
   1   9  15 73.4208 5.63567   1
   1  10   0 45.8795  25.175   1
  -1 -10   0 54.9123  8.0361   1
  -1 -10  -1 62.8141  7.9607   1
  -1 -10  -2 53.3454   7.562   1
   1  10   2 58.9515 3.60882   1
  -1 -10  -3 1.40366 5.22122   1
   1  10   3 2.02815 0.98979   1
  -1 -10  -4 26.8752 6.24127   1
   1  10   4 32.7818 1.93687   1
  -1 -10  -5  43.293 7.16556   1
   1  10   5 40.0184 2.09684   1
   1  10   6 0.43922 0.83571   1
  -1 -10  -6 -4.3002 5.90624   1
  -1 -10  -7 16.2702 6.53053   1
   1  10   7 12.8062 1.32488   1
   1  10   8-30.2859 26.0612   1
   1  10   8 1.35324 1.13521   1
  -1 -10  -9  70.237 9.60659   1
   1  10   9 30.9282 29.4762   1
   1  10   9 62.3425 3.38497   1
   1  10  10 49.5081 38.5039   1
   1  10  10 1.10792 0.96164   1
   1  10  11 20.7652 2.17409   1
   1  10  12 12.8595 1.34616   1
   1  10  13 5.80676 4.28903   1
   1  10  14 54.8787 5.11032   1
  -1 -11   0-1.94255 6.91197   1
   1  11   0 0.70935 1.55856   1
  -1 -11  -1 143.207 15.1848   1
  -1 -11  -2 13.1944 7.24637   1
   1  11   2    0.00 1.59073   1
  -1 -11  -3 1.31764 6.87817   1
   1  11   3  11.563 1.51584   1
   1  11   4 2.22003 1.45272   1
  -1 -11  -5-4.33611 7.34728   1
   1  11   5 3.29942 1.33743   1
   1  11   6 20.1622 1.92366   1
  -1 -11  -6  16.399  7.8536   1
   1  11   6 25.1315 22.8201   1
  -1 -11  -7 8.28014 7.86286   1
   1  11   7-36.3104 23.9176   1
   1  11   7 2.19022 1.24053   1
  -1 -11  -8 53.6812 9.36171   1
   1  11   8 20.8856  29.249   1
   1  11   8 34.1997 7.16283   1
   1  11   9  0.1209 0.91729   1
   1  11  10 1.35881 0.96954   1
   1  11  11 19.5588 1.68221   1
   1  11  12 114.153 5.32931   1
  -1 -12   0 7.03249 9.76175   1
   1  12   0 2.64581 2.47142   1
   1  12   1 104.637 6.90681   1
  -1 -12  -1 94.9986 15.8055   1
  -1 -12  -2  21.736 9.36656   1
   1  12   2 2.89078 1.47394   1
  -1 -12  -3 16.0098 9.08397   1
   1  12   3-21.4966  20.997   1
   1  12   3 6.91718 1.75117   1
  -1 -12  -4 81.0757 11.9711   1
   1  12   4 95.6545 5.37363   1
   1  12   4 107.718 24.1111   1
  -1 -12  -5 1.18777  9.3139   1
   1  12   5-24.5644 23.5488   1
   1  12   5 4.54895 1.21995   1
   1  12   6 96.8185 5.01455   1
   1  12   7 4.23887 1.08436   1
   1  12   8 74.5141 4.05516   1
   1  12   9 2.69726 1.02231   1
   1  12  10 16.0576 2.28107   1
   1  13   0 3.65874 1.10887   1
   1  13   1 12.2037 1.70711   1
   1  13   3 3.97049 3.14632   1
   1  13   4 2.11701 1.12067   1
   1  13   5 145.937 11.7072   1
   1  13   6  1.6602 1.16182   1
   1  13   7 14.9279 2.05302   1
   2 -11   2  88.162 7.36236   1
   2 -11   3  0.9803 1.28273   1
   2 -11   4 29.1329 3.12668   1
   2 -11   5 31.0657 3.27494   1
   2 -11   6 0.46343 0.93773   1
  -2  10  -1 49.3205 14.9447   1
   2 -10   1 0.63323 5.04429   1
   2 -10   2 10.0739 5.13322   1
  -2  10  -2   57.75 16.9363   1
   2 -10   3 2.83679  4.7251   1
   2 -10   4 1.23309 4.36298   1
   2 -10   5 1.32931 1.23692   1
   2 -10   6    0.00 2.97614   1
   2 -10   7  18.617 2.06552   1
   2 -10   8 4.74537 1.18238   1
   2 -10   9 80.4911 5.08872   1
  -2   9  -1 152.251 19.6552   1
   2  -9   1 4.73635 5.27063   1
   2  -9   2    0.00 5.33464   1
  -2   9  -2 3.50102 20.7925   1
  -2   9  -2 30.9707 12.3044   1
  -2   9  -3 16.0185 12.2915   1
  -2   9  -3 2.13516 18.3534   1
   2  -9   3    0.00 5.66279   1
  -2   9  -4 32.0783 19.8525   1
   2  -9   4 2.89779 4.49706   1
  -2   9  -4 42.4609 14.7698   1
  -2   9  -5 49.0141 18.5043   1
  -2   9  -6-16.1564 17.2169   1
   2  -9   6 0.14229 1.23935   1
   2  -9   7    0.00 3.97586   1
  -2   9  -7 18.1107 17.7719   1
   2  -9   8  76.459 5.00234   1
   2  -9   9 32.1831 2.76642   1
   2  -9  10 10.3524  1.4403   1
   2  -9  11 10.7414 1.80373   1
  -2   8  -1 88.9958 16.6858   1
   2  -8   1  85.593 13.2611   1
   2  -8   2    0.00  3.1373   1
  -2   8  -2-0.53345 8.34032   1
  -2   8  -2-1.40047 13.3427   1
  -2   8  -3 62.3098 14.2362   1
   2  -8   3 50.6578 5.15298   1
  -2   8  -4 53.0142 15.2295   1
  -2   8  -4 55.2173 11.8244   1
   2  -8   4 48.7922 3.70271   1
  -2   8  -5 20.3762 12.0252   1
  -2   8  -5 14.0594 14.2633   1
   2  -8   5  9.6551 1.35736   1
  -2   8  -6 96.0857 15.6658   1
   2  -8   6 56.0952 3.77444   1
   2  -8   7 5.69317 1.15783   1
  -2   8  -7 26.1311 16.9376   1
  -2   8  -8  24.599 16.7026   1
   2  -8   8 3.58693 1.36632   1
  -2   8  -9 38.0619 20.2422   1
   2  -8   9 5.96353 1.35013   1
   2  -8  10 77.6168 5.11417   1
   2  -8  11 10.2828 1.45564   1
   2  -8  12 0.21618 1.11046   1
   2  -8  13 7.75823 1.85162   1
  -2   7  -1 1.57115 6.37936   1
  -2   7  -1 -0.0793  10.626   1
   2  -7   1 1.60368  1.6307   1
   2  -7   2  119.56 6.04457   1
  -2   7  -2 186.491 16.8475   1
  -2   7  -2 146.175 20.2368   1
  -2   7  -3 3.45641 11.1404   1
  -2   7  -3 0.67123 6.62374   1
   2  -7   3 4.20615 1.44688   1
  -2   7  -4-6.28443 7.01508   1
  -2   7  -4 3.16905 11.7494   1
   2  -7   4    0.00 1.37026   1
  -2   7  -5  83.937 15.4321   1
  -2   7  -5 71.6587 10.4799   1
   2  -7   5 40.3102 5.99441   1
  -2   7  -6 29.5289 8.95952   1
  -2   7  -6 8.86212 13.7459   1
   2  -7   6 25.0317 2.06098   1
   2  -7   7 6.58262 1.05116   1
  -2   7  -7 5.56459 14.0911   1
  -2   7  -7 10.5499 10.0543   1
  -2   7  -8 62.9512 18.9297   1
   2  -7   8 74.2667 4.16575   1
  -2   7  -9 20.3733 17.2394   1
  -2   7 -10 53.9765 20.3735   1
  -2   7 -11 19.9304 19.4193   1
   2  -7  11 2.33651  1.2267   1
   2  -7  12 19.3867 2.29639   1
   2  -7  13  1.4771  1.2177   1
   2  -7  14 10.2955 3.45735   1
   2  -6   1 82.7476 4.75135   1
  -2   6  -1 97.4818 11.0946   1
  -2   6  -1 83.8351 14.6604   1
  -2   6  -2 34.1984 5.89693   1
  -2   6  -2  30.447 10.4521   1
   2  -6   2 45.5992 4.24661   1
  -2   6  -3 69.4617 10.4683   1
  -2   6  -3   68.29  12.313   1
  -2   6  -4 0.42277 4.94065   1
  -2   6  -4-3.31824 9.67196   1
   2  -6   4 0.05472 1.29208   1
  -2   6  -5 121.706 20.1488   1
  -2   6  -5 142.635 14.7095   1
   2  -6   5 95.1256  5.3327   1
   2  -6   6 3.29057 0.97785   1
  -2   6  -6 25.5986 13.2331   1
  -2   6  -6-8.49808 7.22957   1
   2  -6   7 28.2679   2.066   1
  -2   6  -7 48.7581 15.6941   1
  -2   6  -7 39.4326 8.72804   1
  -2   6  -8  143.54 21.5598   1
  -2   6  -8 122.185 17.4874   1
   2  -6   8 119.624 5.60914   1
  -2   6  -9-17.8529 11.2403   1
  -2   6  -9 4.63421 16.8332   1
   2  -6   9 0.57274 0.84738   1
  -2   6 -10 76.5452 23.7256   1
   2  -6  10  89.876 4.74362   1
  -2   6 -11 37.1728 20.7306   1
   2  -6  11 6.07451 0.94989   1
  -2   6 -12-12.5614 19.7569   1
   2  -6  12 5.99702 1.49139   1
   2  -6  13 0.09903 1.32695   1
   2  -6  14 86.6235  5.7411   1
   2  -6  15 37.3832 3.43899   1
   2  -5   1 10.9071 1.40176   1
  -2   5  -1 3.07021 6.30529   1
  -2   5  -1 9.11122 3.83919   1
  -2   5  -1 20.2757 8.50982   1
  -2   5  -2 8.69011 7.94342   1
  -2   5  -2 8.21469 3.57618   1
   2  -5   2 4.05705 1.18453   1
  -2   5  -3 20.8854 4.71217   1
  -2   5  -3 4.59559 8.97274   1
   2  -5   3 1.04243 1.16616   1
  -2   5  -4 5.45117  4.2204   1
  -2   5  -4 6.79739 9.03267   1
   2  -5   4  2.3873 1.19668   1
  -2   5  -5 19.5343 5.05902   1
  -2   5  -5 24.1964 10.1225   1
   2  -5   5 21.2123 2.10703   1
   2  -5   6 36.0257 2.31193   1
  -2   5  -6 55.4377 13.2052   1
  -2   5  -6   56.69 8.44987   1
  -2   5  -7 55.4086 14.8625   1
   2  -5   7 53.3926 2.60569   1
  -2   5  -7 80.1527 11.6521   1
   2  -5   8 1.67287 1.99899   1
  -2   5  -8-11.9964 6.54188   1
  -2   5  -8 25.5926 14.8854   1
  -2   5  -9 5.33234  8.0016   1
  -2   5  -9 12.4217 15.1894   1
   2  -5   9 10.3242 1.16646   1
  -2   5 -10 3.52456  16.493   1
  -2   5 -10 0.95095 9.27421   1
   2  -5  10 15.8396 1.60711   1
   2  -5  11 20.3127 1.74849   1
  -2   5 -11  11.981 17.1743   1
  -2   5 -12 0.73822 19.6342   1
   2  -5  12 1.39948 1.04721   1
  -2   5 -13  64.628 24.4553   1
   2  -5  13   79.48 5.48924   1
   2  -5  14 0.77933 1.44467   1
   2  -5  15 13.5377 2.59493   1
   2  -5  16 4.45325 3.32927   1
   2  -4   1 89.2577 3.83611   1
  -2   4  -1 110.801 11.0794   1
  -2   4  -1 116.166 10.2721   1
  -2   4  -1 122.108 12.6679   1
   2  -4   1 123.054  16.522   1
  -2   4  -2 433.811  30.268   1
  -2   4  -2 450.092 32.3333   1
   2  -4   2 339.937 12.8176   1
   2  -4   3 26.9927 1.86364   1
  -2   4  -4 266.094 24.0358   1
  -2   4  -4 327.406 22.7003   1
   2  -4   4 252.724 9.30833   1
  -2   4  -5 44.3234  5.9181   1
  -2   4  -5 43.5374  9.6984   1
   2  -4   5 40.3664 2.73373   1
   2  -4   6 4.14078  0.9434   1
  -2   4  -6 6.30664 8.80344   1
  -2   4  -6 2.24198 4.58378   1
   2  -4   7 25.2163 2.16453   1
  -2   4  -7 17.5369 5.18892   1
  -2   4  -7 24.5172 11.4717   1
  -2   4  -8 11.7952 5.45172   1
  -2   4  -8 29.5783 12.5839   1
   2  -4   8 11.2927 1.17314   1
  -2   4  -9 16.7342 13.1852   1
  -2   4  -9-2.87314 6.88124   1
   2  -4   9 3.87701 0.99407   1
  -2   4 -10 22.4418 13.8543   1
  -2   4 -10 18.9043 7.45078   1
   2  -4  10  34.698 2.15307   1
  -2   4 -11 20.1499 9.75515   1
   2  -4  11 28.7288 1.98758   1
  -2   4 -11 22.4789 15.2633   1
  -2   4 -12 68.9001 18.3113   1
   2  -4  12 204.937 9.02789   1
  -2   4 -13  7.5956 18.6723   1
   2  -4  13  11.156 1.25017   1
   2  -4  14 4.98775 1.68477   1
  -2   4 -14-21.8079 20.6396   1
   2  -4  15    0.00 1.86913   1
   2  -4  16 17.3352 3.41266   1
  -2   3  -1 33.8257  5.1555   1
  -2   3  -1 38.0852 5.48498   1
   2  -3   1 39.9434 6.86923   1
   2  -3   1  27.006 1.85341   1
  -2   3  -2 87.2426 7.86517   1
  -2   3  -2 68.0372 8.55809   1
   2  -3   2 68.4321 3.29173   1
  -2   3  -2 80.8609 10.0972   1
   2  -3   3 153.083 6.35877   1
  -2   3  -4 137.786 14.2973   1
  -2   3  -4 161.997 12.3939   1
   2  -3   4 125.525 5.33871   1
  -2   3  -5 0.27569 3.56641   1
   2  -3   5 1.19599 1.10917   1
   2  -3   6  119.67 4.76601   1
  -2   3  -6 147.872 15.3882   1
  -2   3  -6 135.179 15.8227   1
   2  -3   7 96.5155 3.89083   1
  -2   3  -7 107.228 15.3257   1
  -2   3  -7 117.959 11.3749   1
  -2   3  -8 81.3396 12.9293   1
  -2   3  -8 74.9865 10.6234   1
   2  -3   8 68.6554 2.88671   1
  -2   3  -9 12.7434 11.2101   1
  -2   3  -9 10.7286 5.50961   1
   2  -3   9 12.9404 1.30242   1
  -2   3 -10 470.193 36.6423   1
  -2   3 -10 431.167 32.4934   1
   2  -3  10 431.481 15.8988   1
  -2   3 -11 22.0978 7.96042   1
   2  -3  11 42.6885 2.37662   1
  -2   3 -11 38.1711 14.8957   1
  -2   3 -12-9.77724 13.5989   1
  -2   3 -12-10.0273 10.0125   1
   2  -3  12  0.7521 0.93587   1
  -2   3 -13-13.6036 17.9936   1
   2  -3  13 0.11604 1.50224   1
   2  -3  14 30.5889 5.16344   1
   2  -3  15 8.69299 2.03973   1
   2  -3  16 3.58623 3.52373   1
   2  -3  17 28.4142 5.59461   1
  -2   2  -1-2.54525 4.60686   1
  -2   2  -1 0.39285 2.57204   1
  -2   2  -1 3.32529 3.96484   1
   2  -2   1 4.93571 4.69751   1
   2  -2   1 2.65698 0.55427   1
  -2   2  -2 80.6943 8.37081   1
  -2   2  -2 90.8155  8.0063   1
  -2   2  -2 96.3705 9.89014   1
   2  -2   2 67.9946 4.91216   1
   2  -2   3 0.63741  0.4537   1
  -2   2  -3 1.67367 2.72571   1
  -2   2  -3 -0.9172 5.79016   1
  -2   2  -4 40.7107 7.43639   1
  -2   2  -4 39.7867 5.51117   1
   2  -2   4 29.2659    1.53   1
  -2   2  -5-1.91251 7.64238   1
   2  -2   5  0.3124 0.50074   1
   2  -2   6 149.156 4.76137   1
  -2   2  -6 175.547 15.7225   1
  -2   2  -6 154.256 13.2188   1
   2  -2   7 33.5847 1.52875   1
  -2   2  -8 16.8342 4.73647   1
  -2   2  -8 39.2972 8.82642   1
   2  -2   8 25.0552 1.31353   1
  -2   2  -9  111.83 15.3062   1
   2  -2   9 90.5794 3.25399   1
  -2   2  -9 102.056 11.5987   1
  -2   2 -10-14.7401 9.89954   1
  -2   2 -10-9.49323 5.57943   1
   2  -2  10 0.50806 0.73842   1
  -2   2 -11 534.604 40.1089   1
  -2   2 -11 527.912 38.1776   1
   2  -2  11 580.338 20.9999   1
  -2   2 -12 24.2999 8.45629   1
  -2   2 -12  29.135  11.582   1
   2  -2  12 32.7335 2.14439   1
   2  -2  13 39.3754 2.34278   1
  -2   2 -13 57.4764 15.1188   1
  -2   2 -13  6.1694 11.2465   1
   2  -2  14 5.09795 2.34333   1
   2  -2  15 48.3812 4.44145   1
   2  -2  16 6.69224 3.42758   1
   2  -2  17 1.13966  3.9993   1
   2  -1   1 359.605 26.0753   1
  -2   1  -1 392.491 26.3248   1
  -2   1  -1 367.603 24.9307   1
  -2   1  -1 363.111 25.2484   1
   2  -1   1 351.649 11.6687   1
   2  -1   2 8.91223 5.72449   1
  -2   1  -2 5.80612 2.48691   1
  -2   1  -2 2.75235 3.46414   1
  -2   1  -2 10.3235 4.69527   1
   2  -1   2 5.77031 0.56265   1
   2  -1   3 4.67263 0.61248   1
  -2   1  -3 8.00958 4.92077   1
  -2   1  -3 2.94013 2.51104   1
  -2   1  -4 64.0793   8.068   1
  -2   1  -4 58.3908 6.56023   1
   2  -1   4  47.414 2.40805   1
  -2   1  -5 79.0761 9.71325   1
   2  -1   5 63.9621 2.56421   1
   2  -1   6 97.2203 3.83638   1
  -2   1  -6 109.419 12.1375   1
  -2   1  -6 118.544 12.3855   1
   2  -1   7  176.52 6.64618   1
  -2   1  -7 171.351 16.1328   1
  -2   1  -7 199.165 14.7709   1
  -2   1  -8 58.6465 8.34523   1
   2  -1   8 66.8861 2.50243   1
  -2   1  -9-2.93542 4.19867   1
   2  -1   9  1.0095 0.69134   1
  -2   1  -9-4.28447 7.08656   1
  -2   1 -10 52.7666 10.0993   1
  -2   1 -10 79.5201 10.3218   1
   2  -1  10 64.1189 2.69943   1
  -2   1 -11 17.9464 6.14108   1
  -2   1 -11 4.29147 9.43441   1
   2  -1  11 11.8108 1.00057   1
  -2   1 -12 7.38374 11.5533   1
  -2   1 -12-0.33285 7.10969   1
   2  -1  12 0.57627 1.05418   1
   2  -1  13 39.2127 2.61691   1
  -2   1 -13 36.0625 10.0395   1
   2  -1  14 22.3927 5.59109   1
   2  -1  15  4.0505 4.06985   1
   2  -1  16 7.38402 3.33498   1
   2  -1  17 9.82081 3.87957   1
   2  -1  18 23.3816 8.89397   1
   2   0   0 13.0592 0.76481   1
  -2   0   0 13.1019 2.68793   1
  -2   0   0 9.94816 3.51124   1
   2   0   0 12.7307 3.15316   1
  -2   0  -1 182.097 13.7078   1
  -2   0  -1 190.534 13.6534   1
   2   0   1 191.747 14.3801   1
   2   0   1 246.043 11.4113   1
   2   0   2 11.5513 4.26238   1
  -2   0  -2 8.72367 3.25065   1
  -2   0  -2  6.5292  2.3962   1
   2   0   2 10.4744 0.92103   1
   2   0   3 122.863 4.69447   1
  -2   0  -3 106.347 8.55057   1
  -2   0  -3 91.5853 7.96735   1
  -2   0  -3 108.039 9.66878   1
  -2   0  -4 2.96748 2.40735   1
  -2   0  -4-0.16069 3.98399   1
   2   0   4 1.53827 0.53576   1
  -2   0  -5 57.2942 7.71578   1
  -2   0  -5 70.2669 7.05983   1
   2   0   5 61.6816  2.9964   1
   2   0   6 162.571 6.11322   1
  -2   0  -6 162.094 13.0438   1
  -2   0  -6 177.078 14.1851   1
   2   0   7 0.02963 0.54097   1
  -2   0  -7-3.66711 4.84811   1
  -2   0  -7-3.39872 2.86642   1
  -2   0  -8  17.298  6.3024   1
  -2   0  -8 14.4514 5.35191   1
   2   0   8  18.783 1.25718   1
  -2   0  -9  8.4025 4.51855   1
   2   0   9 10.3732 1.02301   1
  -2   0 -10 197.202 18.0397   1
   2   0  10 203.306 7.61476   1
  -2   0 -10 235.865 19.2489   1
  -2   0 -11  54.593 8.46019   1
  -2   0 -11 41.7193 10.2762   1
   2   0  11 58.9264 2.57189   1
  -2   0 -12 20.7349 7.58003   1
   2   0  12 51.2366  2.4098   1
   2   0  13 77.7344 4.04737   1
  -2   0 -13 62.0794 10.7661   1
   2   0  14   1.148 3.44769   1
   2   0  16 4.16523 3.52039   1
   2   0  17 13.0349 3.92049   1
   2   0  18    0.00 6.08988   1
  -2  -1   0 162.573 11.9973   1
  -2  -1   0 150.701 11.4885   1
   2   1   0 159.509 11.6367   1
   2   1   0 216.754 10.8115   1
   2   1   1 7.98997  3.0706   1
  -2  -1  -1 12.1642 3.34267   1
  -2  -1  -1 9.16005 2.29147   1
   2   1   1 15.3297 0.78294   1
  -2  -1  -2  313.41 21.8098   1
  -2  -1  -2 340.486 22.1179   1
   2   1   2 313.363 22.0698   1
   2   1   2 464.228 15.2495   1
   2   1   3 2.61563 0.29776   1
  -2  -1  -3 6.41884 2.36032   1
  -2  -1  -3 7.30337 3.14241   1
  -2  -1  -4 448.937 30.1096   1
   2   1   4 512.833  19.498   1
  -2  -1  -5 84.0214 7.65712   1
   2   1   5 77.3453 3.63549   1
   2   1   6 24.4328 1.44757   1
  -2  -1  -6 29.6104  4.1555   1
   2   1   7 13.5078  1.0271   1
  -2  -1  -7 8.98426 3.11803   1
  -2  -1  -8 52.1367  7.5733   1
   2   1   8  69.068 2.88212   1
  -2  -1  -9 22.0747 5.07167   1
   2   1   9  36.198 1.78815   1
  -2  -1 -10 3.86733 4.42728   1
   2   1  10 3.85773 0.77044   1
  -2  -1 -11 27.7521 7.13023   1
   2   1  11 32.4568 1.75462   1
  -2  -1 -12 46.0653 8.85684   1
   2   1  12 66.8252 2.82513   1
   2   1  13 1.41666  0.9429   1
   2   1  14    0.00 3.45444   1
   2   1  15    0.00  6.2129   1
   2   1  16 6.45745 3.74176   1
   2   1  17 4.89715 3.80607   1
   2   1  18 26.1361 5.84149   1
   2   2   0 189.653  9.4058   1
  -2  -2   0 169.586  12.498   1
  -2  -2   0 159.448 12.1056   1
   2   2   0 171.196 12.3386   1
  -2  -2  -1 49.1499  5.9004   1
  -2  -2  -1 41.4252 4.95706   1
   2   2   1 46.2327   5.851   1
   2   2   1 47.6368 1.95058   1
  -2  -2  -2 93.9445 8.36856   1
   2   2   2 110.511 8.83227   1
   2   2   2 104.616 4.89676   1
  -2  -2  -2 76.9237 7.53618   1
   2   2   3 108.277 16.0172   1
   2   2   3 155.453 7.22656   1
  -2  -2  -3 119.904 9.82545   1
  -2  -2  -3 137.115 9.84062   1
  -2  -2  -4 208.501 14.7178   1
  -2  -2  -4 200.818 13.9878   1
   2   2   4 238.558 7.88952   1
   2   2   5 165.357 7.30865   1
   2   2   6 26.4137 1.47649   1
   2   2   7 211.191 8.38545   1
  -2  -2  -7 189.066 14.3066   1
  -2  -2  -8 8.80198 3.32519   1
   2   2   8 9.04301 0.87362   1
  -2  -2  -9 8.65883 4.11239   1
   2   2   9 6.33061 0.75534   1
  -2  -2 -10 33.0698 6.09868   1
   2   2  10 43.5548 2.33136   1
  -2  -2 -11-6.03612 5.20915   1
   2   2  11 2.82053 0.90787   1
  -2  -2 -12 40.5799 8.39597   1
   2   2  12 65.4643 3.39124   1
   2   2  13  34.351 2.58981   1
   2   2  14 102.288 6.67949   1
   2   2  16 1.80394 3.55745   1
   2   2  17  7.0424 3.27476   1
   2   2  18 8.42001 4.57098   1
  -2  -3   0 4.02957 2.53965   1
  -2  -3   0 5.15999 3.39605   1
   2   3   0  3.6907 2.74795   1
   2   3   0  3.6611  0.3932   1
   2   3   1 73.3102 7.69882   1
  -2  -3  -1 82.4562  7.4172   1
  -2  -3  -1 82.9962 7.75589   1
   2   3   1 96.7886 3.76945   1
  -2  -3  -2 45.2757 6.09808   1
  -2  -3  -2 39.6787 5.31196   1
   2   3   2 51.2681 2.59623   1
   2   3   3 46.2666 2.39726   1
  -2  -3  -3   37.53 5.80301   1
  -2  -3  -3 41.2845   5.446   1
   2   3   3 61.6436 8.83071   1
   2   3   4 10.3074 7.01261   1
  -2  -3  -4 7.95248 2.53929   1
  -2  -3  -4 10.5258  3.1319   1
   2   3   4  11.862 0.70989   1
  -2  -3  -5 10.5733 3.08002   1
  -2  -3  -5 9.94945 3.26609   1
   2   3   5 11.3354 0.85339   1
   2   3   6 152.339 6.18192   1
  -2  -3  -6 121.909 10.3976   1
   2   3   7 1.40587 0.52947   1
  -2  -3  -8 5.82317 3.80046   1
   2   3   8 11.0909 1.03209   1
  -2  -3  -9 13.4226 4.49781   1
   2   3   9 18.8971  1.3675   1
  -2  -3 -10 11.5653 5.21081   1
   2   3  10 11.2674 1.25612   1
   2   3  11 50.3092  3.7905   1
   2   3  12 42.8096 2.72522   1
   2   3  13 113.544 5.54454   1
   2   3  14 22.3137 2.39475   1
   2   3  15 16.6841 5.06021   1
   2   3  16 1.58987   3.387   1
   2   3  17 2.08592  3.3001   1
   2   3  18 4.44066 3.85862   1
   2   4   0  224.19 8.57511   1
  -2  -4   0  175.79 14.0498   1
   2   4   0 179.492 13.3276   1
  -2  -4  -1 29.8808 4.65303   1
  -2  -4  -1 18.5507 4.23484   1
   2   4   1 45.1075 6.32523   1
   2   4   1 36.3693 1.60473   1
   2   4   2 11.7918 4.40961   1
  -2  -4  -2 3.54313 3.58562   1
  -2  -4  -2 10.3293 3.62904   1
   2   4   2 10.0265 0.68642   1
   2   4   3  9.6432 0.69418   1
  -2  -4  -3 11.5825 3.52677   1
  -2  -4  -3 6.20432 3.27044   1
   2   4   3 7.35404 5.45924   1
  -2  -4  -4 35.8905 5.16011   1
  -2  -4  -4 47.6445 5.91778   1
   2   4   4  52.906 9.10179   1
   2   4   4 54.8415 2.22568   1
  -2  -4  -5 15.5566 3.62705   1
   2   4   5 20.6929 22.0361   1
  -2  -4  -5 6.95416 3.43908   1
   2   4   5 17.7241 1.07768   1
   2   4   6 2.65232 0.55884   1
  -2  -4  -6 1.73096 3.68277   1
   2   4   7 121.043  5.4091   1
  -2  -4  -7 65.7128  8.1465   1
  -2  -4  -8 16.1558 4.45042   1
   2   4   8 44.2038 2.19806   1
  -2  -4  -9 0.20369 4.01857   1
   2   4   9 8.04001 0.97638   1
   2   4  10 8.70767 1.09098   1
   2   4  11 62.6104  3.3418   1
   2   4  12  11.324 1.24959   1
   2   4  13  38.952 2.48823   1
   2   4  14 58.9094 4.22151   1
   2   4  15 7.30323 1.50807   1
   2   4  16 4.15457 3.44032   1
   2   4  17 2.50995 3.27259   1
  -2  -5   0 46.5422  6.8239   1
   2   5   0 48.0715 2.19427   1
  -2  -5  -1 111.113 9.75843   1
   2   5   1 111.023 10.4502   1
  -2  -5  -1 89.2035 11.2629   1
   2   5   1 135.058 5.47336   1
   2   5   2 21.2265  5.9408   1
  -2  -5  -2   14.02 4.71632   1
  -2  -5  -2 19.1957 4.12264   1
   2   5   2 25.9595 1.36066   1
   2   5   3 148.544  6.5482   1
  -2  -5  -3 118.829 9.87203   1
  -2  -5  -3  102.80 11.2266   1
   2   5   3 131.442  15.019   1
  -2  -5  -4 1.69663 3.98121   1
  -2  -5  -4  4.5551 3.51578   1
   2   5   4 4.93633  0.6128   1
   2   5   4 4.79211 10.2953   1
  -2  -5  -5 61.8341  7.3799   1
   2   5   5 78.4325 3.68435   1
   2   5   6 84.7903  3.9195   1
  -2  -5  -6 31.4877 5.34279   1
   2   5   7  13.455 1.14655   1
   2   5   8 1.85168 0.69421   1
   2   5   9 20.4543 1.72733   1
   2   5  10  215.50 9.41657   1
   2   5  11  0.1444  0.9428   1
   2   5  12 12.5879   1.308   1
   2   5  13 7.12437 1.44524   1
   2   5  14 1.32203 1.32535   1
   2   5  15    0.00 22.9849   1
   2   5  16  0.6761 3.42878   1
   2   5  17  18.655 3.92471   1
  -2  -6   0  10.422   4.282   1
   2   6   0 18.1839 1.19116   1
  -2  -6  -1 67.9354 7.98377   1
   2   6   1 65.4352 10.8466   1
   2   6   1 87.0019 3.74003   1
  -2  -6  -2 45.1616 7.05882   1
   2   6   2 57.7468 8.98758   1
   2   6   2 81.5692 3.54613   1
   2   6   3  20.113 1.22071   1
  -2  -6  -3 14.9406 4.33815   1
   2   6   3 3.26399 8.86394   1
  -2  -6  -4 150.789 12.2609   1
   2   6   4 222.689 9.76764   1
  -2  -6  -5   5.618 4.11886   1
   2   6   5 4.89903 0.68696   1
   2   6   6 26.2327 1.64037   1
  -2  -6  -6 24.6775 4.98881   1
   2   6   7 349.317  15.461   1
  -2  -6  -7 357.823 24.8301   1
   2   6   8 204.102 41.9935   1
   2   6   9 46.2665 2.80717   1
   2   6  10 28.1247 2.11438   1
   2   6  11 42.4297 2.60744   1
   2   6  12 0.17579 1.28936   1
   2   6  13 3.38117 1.40395   1
   2   6  14 4.05585 1.83194   1
   2   6  15 14.5002 2.01145   1
   2   6  16 7.13405 3.46454   1
  -2  -7   0 -2.2816 4.16901   1
   2   7   0-7.24142 6.20881   1
   2   7   0 8.08915 0.97131   1
  -2  -7  -1 -1.3578 3.76912   1
   2   7   1 10.7247 7.24798   1
   2   7   1 7.88306 0.90012   1
  -2  -7  -2 5.13657  3.9444   1
   2   7   2  14.611  1.1972   1
   2   7   3 94.7335 4.18302   1
  -2  -7  -3 72.4245 8.67017   1
  -2  -7  -4 9.70948 4.43548   1
   2   7   4  6.6918 0.87415   1
  -2  -7  -5 83.8308 9.68999   1
   2   7   5 88.6014 4.17737   1
   2   7   6 149.967 36.1575   1
  -2  -7  -6 72.2791 9.40769   1
   2   7   7 112.007  5.2086   1
  -2  -7  -7 115.801 11.8706   1
   2   7   8 49.0085 2.67741   1
   2   7   9 25.5781 1.93114   1
   2   7  10 20.7387 1.89193   1
   2   7  11    0.00 1.27686   1
   2   7  12 21.6713 2.22899   1
   2   7  13  25.246 2.32533   1
   2   7  15 1.44667 1.44612   1
   2   7  16 13.7422 4.36076   1
   2   8   0 15.2412 5.47972   1
  -2  -8   0 0.91831 4.28547   1
   2   8   0 6.88319 13.5316   1
   2   8   1 92.6317 3.92025   1
  -2  -8  -1 63.7298  8.2599   1
   2   8   1 28.8822 14.6031   1
  -2  -8  -2 9.75334  4.8367   1
   2   8   2 6.13915 16.8043   1
   2   8   2 15.8771 1.36467   1
   2   8   3 29.4057 2.52437   1
  -2  -8  -3  16.165 5.15487   1
   2   8   3 20.7195 27.0605   1
  -2  -8  -4 88.3966 10.2345   1
   2   8   4 93.9737 4.45916   1
  -2  -8  -5 6.13506   5.352   1
   2   8   5 9.69215 1.14228   1
   2   8   6 107.044 5.16543   1
  -2  -8  -6  123.53 12.4961   1
   2   8   7  240.22 10.5539   1
  -2  -8  -7 277.699 21.2347   1
   2   8   8 29.5075  2.0514   1
   2   8  10 1.55192 5.20407   1
   2   8  11 29.8847 2.58141   1
   2   8  12 4.64905 4.03443   1
   2   8  13 27.9915 2.13982   1
   2   8  14 9.22018 1.25515   1
   2   8  15 51.1127 4.14179   1
   2   9   0 24.4452 18.0137   1
   2   9   0 92.7925 4.86451   1
  -2  -9   0 55.7153  7.3363   1
   2   9   1 8.52638 3.07587   1
  -2  -9  -1 3.79273 5.17858   1
   2   9   1-0.60008 20.3365   1
  -2  -9  -2 9.81819 5.38575   1
   2   9   2 5.16952 1.43509   1
   2   9   3  9.5228 1.09636   1
  -2  -9  -3  0.4139 5.50529   1
  -2  -9  -4 48.7755 7.56887   1
   2   9   4 43.6878 2.45965   1
  -2  -9  -5 29.3491 7.06477   1
   2   9   5 23.4512 1.85902   1
   2   9   6 2.73096 1.16739   1
  -2  -9  -6 11.4478 6.94329   1
   2   9   8 31.0453 2.53007   1
   2   9   9  0.1247 1.02861   1
   2   9  10 0.31628 1.02503   1
   2   9  11  12.576 1.41179   1
   2   9  12 5.23818  1.0937   1
   2   9  13 17.9299 1.99277   1
   2   9  14 54.8615 3.99921   1
   2  10   0 7.72951 4.80359   1
  -2 -10   0 9.46032 6.74981   1
  -2 -10  -1 44.4049 7.77893   1
  -2 -10  -2 30.6397 7.57656   1
   2  10   2 23.5886 7.33965   1
   2  10   3 2.67262 1.30565   1
  -2 -10  -3 13.0674  8.6231   1
   2  10   4 16.9758 1.86044   1
  -2 -10  -5  40.789 8.60824   1
   2  10   5 28.2896 2.36303   1
   2  10   6 0.36267 1.05888   1
  -2 -10  -6 7.85781 8.42327   1
   2  10   7   14.76 1.66174   1
  -2 -10  -7  41.638 10.8682   1
   2  10   8 22.1059 1.99511   1
   2  10   9 13.1311 1.50918   1
   2  10  10 81.6464 3.90134   1
   2  10  11 0.43269 0.94708   1
   2  10  12 9.69652 1.34264   1
   2  11   0    0.43 1.49353   1
  -2 -11   0 -0.9668 8.63329   1
   2  11   1 11.5177 1.98236   1
  -2 -11  -1 5.89422 8.28238   1
  -2 -11  -2 0.84909  8.5542   1
   2  11   2 9.13146 2.10434   1
   2  11   3 2.97402  1.6746   1
  -2 -11  -3 4.56434 8.90187   1
  -2 -11  -4 194.326  19.517   1
   2  11   4 128.708 5.98598   1
  -2 -11  -5 9.49632 10.0598   1
   2  11   5  11.704 2.14656   1
   2  11   6 39.8046 2.52395   1
   2  11   7 0.70588 1.00493   1
   2  11   8 31.5211 2.17684   1
   2  11   9 6.45728 1.05969   1
   2  11  10  3.2129 1.41058   1
   2  12   0 49.2739 3.70428   1
   2  12   1 11.1965 1.86003   1
   2  12   2 16.1247 2.42091   1
   2  12   4 4.98425  8.8787   1
   2  12   5    0.00 8.63351   1
   2  12   6 0.31237  1.3194   1
   2  12   7 7.72787 8.90627   1
   2  12   8 13.6507 9.64851   1
   2  13   0  1.1301 1.02903   1
   2  13   1 50.0709 4.37101   1
   2  13   2 30.9508 2.97989   1
   2  13   3    0.00 1.12895   1
   3  -9   1 36.9055 4.94756   1
   3  -9   2 3.71533 2.40104   1
   3  -9   3 0.45996 1.34521   1
   3  -8   1    0.00 3.25882   1
   3  -8   3    0.00 1.54081   1
   3  -8   4 15.9807 3.53029   1
   3  -8   5 2.47551 1.46625   1
   3  -8   7 5.20473 1.99836   1
   3  -7   1 14.5145 4.17032   1
  -3   7  -1 52.1834 14.4543   1
   3  -7   2 61.2933 3.98665   1
  -3   7  -2 37.7294 12.1556   1
  -3   7  -3 6.76448 12.7185   1
   3  -7   3 17.0287 2.19937   1
   3  -7   4    0.00 2.22452   1
  -3   7  -4  7.1241 13.8023   1
   3  -7   5 11.1338 2.73657   1
   3  -7   6 24.0599 2.19799   1
   3  -7   7 28.8812 2.30896   1
   3  -7   8 26.2229 2.07854   1
   3  -7   9 22.5081 1.86882   1
   3  -7  10 1.62317 1.79036   1
   3  -6   1  6.0449 2.16778   1
  -3   6  -1 6.17342 10.2293   1
   3  -6   2 2.94737 2.29341   1
  -3   6  -2 23.7456 9.81745   1
  -3   6  -3 6.55221  9.1479   1
   3  -6   3 6.04191 2.10613   1
  -3   6  -4 30.2852   10.84   1
   3  -6   4 12.1382 1.94527   1
  -3   6  -5-21.0386 10.7043   1
   3  -6   5 1.14736 5.85902   1
   3  -6   6 2.38969 1.02706   1
  -3   6  -6-10.2948 13.0079   1
   3  -6   7 1.32765 0.99119   1
  -3   6  -7-30.2675 15.7033   1
   3  -6   8 12.9186 3.31103   1
   3  -6   9 1.67904 0.91132   1
   3  -6  10 17.8792 1.59497   1
   3  -6  11 26.7357 2.02736   1
   3  -5   1   5.612  2.0284   1
  -3   5  -1 20.3745 8.40129   1
   3  -5   2 216.506 10.6131   1
  -3   5  -2  260.09 23.0264   1
  -3   5  -3-6.19422 7.75786   1
   3  -5   3  5.6126 1.84181   1
  -3   5  -4 9.93607 7.74302   1
   3  -5   4 0.91352 1.19172   1
  -3   5  -5-10.7089 15.3806   1
   3  -5   5    0.00 4.72441   1
   3  -5   6 15.4031 3.19341   1
  -3   5  -6 19.7563 9.94289   1
  -3   5  -6 38.4954  18.442   1
  -3   5  -7 20.8854 11.0126   1
   3  -5   7 0.22683 1.27685   1
  -3   5  -7-24.1007 16.1496   1
  -3   5  -8 37.6102  20.373   1
  -3   5  -8-2.50716 13.2748   1
   3  -5   8 23.8856 2.25366   1
  -3   5  -9  41.638 17.4178   1
   3  -5   9 1.01713 0.92259   1
   3  -5  11 0.58576 0.74024   1
   3  -5  12 0.94798 0.69838   1
   3  -4   1 90.9212  4.3017   1
  -3   4  -1 100.053 13.9802   1
  -3   4  -2 5.31714 6.78909   1
   3  -4   2 9.45654 1.91762   1
   3  -4   3 31.2641 2.53516   1
  -3   4  -3  22.086 7.14304   1
  -3   4  -4 44.7147 8.60917   1
   3  -4   4  25.107 3.29374   1
  -3   4  -5 123.218 15.7792   1
   3  -4   5 115.275 5.45863   1
   3  -4   6 8.88486 1.99825   1
  -3   4  -6-7.87601 7.31501   1
   3  -4   7 3.45454 1.61984   1
  -3   4  -7 14.9556 23.6338   1
   3  -4   8 170.842 7.87345   1
  -3   4  -8 150.445 20.6584   1
  -3   4  -8 156.284 21.7043   1
  -3   4  -9 37.1413 11.6936   1
   3  -4   9    0.00 5.18765   1
  -3   4 -10 23.4116 14.8557   1
   3  -4  10 7.45407 2.99006   1
   3  -4  11  5.8553 1.01675   1
   3  -4  12 41.3019 2.71566   1
   3  -4  13 4.58472 2.27905   1
   3  -3   1 2.28138 1.15646   1
  -3   3  -1 5.88089  6.4257   1
  -3   3  -2 0.33461 5.59354   1
   3  -3   2 3.00574 2.01586   1
   3  -3   3 39.3495 3.33672   1
  -3   3  -3 36.1839 6.70549   1
  -3   3  -4 25.0731 6.66811   1
   3  -3   4 38.2822 3.59236   1
  -3   3  -5-4.42799 6.57136   1
   3  -3   5 4.93558 2.04443   1
   3  -3   6 82.6618 4.57191   1
  -3   3  -6 96.6224 11.4765   1
   3  -3   7 20.4754 2.75897   1
  -3   3  -7 18.6333 8.30652   1
   3  -3   8  1.8417 2.79425   1
  -3   3  -8 12.3329 8.40272   1
  -3   3  -9 393.356  31.484   1
   3  -3   9 388.974  21.183   1
   3  -3  10 7.21699  6.4663   1
  -3   3 -10  19.246  11.622   1
  -3   3 -11 9.39521 13.8068   1
   3  -3  11 1.34454 0.91364   1
   3  -3  12 3.03449 0.90228   1
   3  -3  13 91.9108 5.06992   1
   3  -3  14 4.57187 2.39402   1
  -3   2  -1 5.74232 5.38777   1
   3  -2   1 18.6054 2.52265   1
  -3   2  -2 180.913 16.6347   1
   3  -2   2 177.045 9.23419   1
   3  -2   3 0.85682 1.64761   1
  -3   2  -3 0.38904 5.41727   1
  -3   2  -4-13.8268 5.19234   1
   3  -2   4 5.23595 2.29083   1
  -3   2  -5 48.5384 7.55075   1
   3  -2   5 65.7203 3.42509   1
   3  -2   6 1.11925 2.02458   1
  -3   2  -6 5.98754 6.79117   1
   3  -2   7 34.0174 2.81905   1
  -3   2  -7 45.0934 9.42892   1
  -3   2  -8 208.306 20.0777   1
   3  -2   8 174.742 8.17075   1
  -3   2  -9 13.1953 8.70677   1
   3  -2   9    0.00  13.843   1
   3  -2  10    0.00 3.65131   1
  -3   2 -11 11.4793 11.4365   1
   3  -2  11 8.21834 1.36106   1
   3  -2  12 6.71795 1.08893   1
   3  -2  13 1.30594 0.79338   1
   3  -2  14 4.66433 2.49063   1
   3  -2  15  2.5025 2.68469   1
  -3   1  -1 44.2265 7.27687   1
   3  -1   1 37.9564 3.99818   1
  -3   1  -2 4.98205 5.08829   1
   3  -1   2 2.15926 3.47214   1
   3  -1   3 4.44702 3.72273   1
  -3   1  -3 0.36651 5.26918   1
  -3   1  -4 15.5236  5.5702   1
   3  -1   4  19.656 2.72564   1
  -3   1  -5 12.7606 6.17579   1
   3  -1   5 17.2236 2.88542   1
   3  -1   6 13.3215 2.80007   1
  -3   1  -6 24.9478 7.12655   1
   3  -1   7 15.4159 2.08765   1
  -3   1  -7   17.57 6.80516   1
  -3   1  -8 71.2032 10.1721   1
   3  -1   8 58.7053 3.63807   1
  -3   1  -9  100.03 12.5613   1
   3  -1   9 76.7709  4.5357   1
  -3   1 -10 102.872 16.7478   1
   3  -1  10  169.87 18.0302   1
  -3   1 -11 6.57183 9.82874   1
   3  -1  11 15.8577 4.04966   1
  -3   1 -12-9.44252 12.8268   1
   3  -1  12 1.29905 0.98781   1
   3  -1  13 9.12187 1.37135   1
   3  -1  14 4.93795 2.69524   1
   3  -1  15  4.0521 2.94069   1
  -3   0   0 26.0196 7.06832   1
  -3   0   0 17.8273 5.80271   1
   3   0   0 38.9165 11.3894   1
   3   0   0 17.9783 2.00359   1
  -3   0  -1 13.4878 7.24102   1
   3   0   1 0.72236 1.88516   1
  -3   0  -1-1.33049  4.9302   1
  -3   0  -2 192.471 16.2704   1
   3   0   2 242.614 10.7076   1
   3   0   3 46.4368 2.31104   1
  -3   0  -3 35.6559 6.40272   1
  -3   0  -4 77.2646 9.07561   1
   3   0   4   55.47 2.97198   1
  -3   0  -5 0.69183 5.90272   1
   3   0   5 2.93631 0.91936   1
   3   0   6 127.361 4.65015   1
  -3   0  -6 178.726 16.4347   1
   3   0   7 1.67356 0.86571   1
  -3   0  -7 1.41109   6.177   1
  -3   0  -8-0.05719 6.00053   1
   3   0   8 1.11936 0.90782   1
  -3   0  -9 18.2425 7.82974   1
   3   0   9 28.4475 1.97568   1
  -3   0 -10  16.746 7.92303   1
   3   0  10 6.65694  1.2271   1
  -3   0 -11  35.374 10.7305   1
   3   0  11 17.1184 1.55997   1
  -3   0 -12 2.17383 10.7531   1
   3   0  12 2.89086 1.11667   1
   3   0  13 18.0269 3.60359   1
   3   0  14 1.04178 2.46428   1
   3   0  15 8.64181 2.89645   1
  -3  -1   0 12.3978  6.3938   1
  -3  -1   0 4.04867 5.12769   1
   3   1   0 6.25724 9.83035   1
   3   1   0 2.95965 2.35515   1
  -3  -1  -1 23.8519 5.32797   1
  -3  -1  -1 7.59901 6.76172   1
   3   1   1 20.7994 1.47031   1
  -3  -1  -2 11.5592 5.67637   1
   3   1   2 29.0391 1.89799   1
   3   1   3 222.743 8.77344   1
  -3  -1  -3 197.088 17.0794   1
  -3  -1  -4 0.00761 4.73924   1
   3   1   4 8.26177 1.07464   1
  -3  -1  -5 86.6416 11.4158   1
   3   1   5 84.9498 5.18703   1
   3   1   6 2.29846 0.83874   1
  -3  -1  -6 0.82242 5.81352   1
   3   1   7 12.6579  1.2965   1
  -3  -1  -7 11.4921 6.54251   1
  -3  -1  -8  -2.033 6.30234   1
   3   1   8    0.00 0.86846   1
  -3  -1  -9 -3.9125 7.28142   1
   3   1   9 0.61201   0.888   1
  -3  -1 -10 67.6012 10.9213   1
   3   1  10 50.6862 3.25304   1
  -3  -1 -11-2.73372 9.63322   1
   3   1  11 0.03852 1.03898   1
  -3  -1 -12 52.3663 12.4409   1
   3   1  12 80.5441 4.78183   1
   3   1  13  9.3203 3.50894   1
   3   1  14 11.8091 2.93383   1
   3   1  15 0.14753 2.22504   1
  -3  -2   0 4.39597 5.47272   1
  -3  -2   0 4.65888 6.51963   1
   3   2   0 4.98615 9.24148   1
   3   2   0 3.41626 0.80302   1
  -3  -2  -1 7.39868 5.29403   1
  -3  -2  -1-2.02244 6.39021   1
   3   2   1 33.0666 11.6374   1
   3   2   1 13.2371 1.34468   1
  -3  -2  -2 69.8446 10.9452   1
  -3  -2  -2 61.7441 8.09191   1
   3   2   2 58.2066 3.85495   1
   3   2   3 4.48129 0.98525   1
  -3  -2  -3 12.3541 5.24875   1
  -3  -2  -4  22.845 5.68383   1
   3   2   4  25.898 2.15612   1
  -3  -2  -5-7.34395 5.30049   1
   3   2   5 1.11613 0.89414   1
   3   2   6 21.9356 2.05036   1
  -3  -2  -6 11.8196 5.60728   1
   3   2   7 0.92436 0.93443   1
  -3  -2  -7-11.4245 5.63094   1
  -3  -2  -8-0.97079 6.46501   1
   3   2   8 3.82069 1.08888   1
  -3  -2  -9 8.90371 7.66233   1
   3   2   9 10.2216 1.57449   1
  -3  -2 -10  120.29 17.2413   1
   3   2  10 132.101 6.85188   1
  -3  -2 -11 21.0415 10.0219   1
   3   2  11 18.9279 2.04077   1
  -3  -2 -12 7.33207 9.68371   1
   3   2  12  7.6169 1.29243   1
   3   2  13  33.947  2.9776   1
   3   2  14  4.7606 2.67733   1
   3   2  15 1.56033 2.32673   1
  -3  -3   0 9.38096 6.54916   1
  -3  -3   0 6.16187 6.77199   1
   3   3   0  3.9397 9.71985   1
   3   3   0 11.8896 1.39414   1
  -3  -3  -1-3.61038  6.0734   1
  -3  -3  -1-3.36917 6.22661   1
   3   3   1 0.65933 11.2669   1
   3   3   1 3.26204 0.69515   1
  -3  -3  -2 88.7129 11.4015   1
  -3  -3  -2 94.8628 12.3044   1
   3   3   2 94.3044  5.1387   1
   3   3   3 0.66585 1.13052   1
  -3  -3  -3-6.64792 5.59527   1
  -3  -3  -4 29.3318 6.90863   1
   3   3   4 45.1851 2.79081   1
  -3  -3  -5 31.7191 6.65505   1
   3   3   5 34.3512 2.68642   1
   3   3   6    0.00 5.66173   1
  -3  -3  -6 5.59763 6.51277   1
   3   3   7 10.4851 2.57289   1
  -3  -3  -7 22.8206 7.05054   1
  -3  -3  -8 16.3449 8.13307   1
   3   3   8 14.0432 1.73976   1
   3   3   9 49.6856 3.59034   1
  -3  -3  -9 28.5866 8.76008   1
   3   3  10 5.39924 1.27952   1
   3   3  11 92.2776 4.96081   1
   3   3  12 10.9727 1.69473   1
   3   3  13 0.01535  1.1955   1
   3   3  14 5.99753 3.27296   1
   3   3  15 2.73787  2.2291   1
   3   4   0 54.2192  3.4081   1
  -3  -4   0 21.8481 6.94889   1
   3   4   0 25.7791 11.1875   1
  -3  -4  -1 28.2558 7.10217   1
  -3  -4  -1 25.1521 7.96164   1
   3   4   1 7.55686 12.6014   1
   3   4   1 16.2416  4.4198   1
  -3  -4  -2 6.81083 7.18984   1
  -3  -4  -2-0.52767 6.43459   1
   3   4   2 0.08546 15.0711   1
   3   4   2 3.50416 3.80361   1
   3   4   3 98.0406  4.8242   1
  -3  -4  -3 101.695 13.9674   1
  -3  -4  -3 75.5276  9.0062   1
  -3  -4  -4 5.06204 6.56514   1
   3   4   4 1.16644 0.97231   1
  -3  -4  -5 12.2484 7.04268   1
   3   4   5  8.6198  1.8429   1
   3   4   6 1.30846  5.2222   1
  -3  -4  -6-2.29159 6.68269   1
   3   4   7 10.8439 1.50992   1
  -3  -4  -7 9.04319 7.01233   1
  -3  -4  -8 9.84729 8.06503   1
   3   4   8  27.453 2.38724   1
  -3  -4  -9-16.0814 7.43463   1
   3   4   9 3.82811 1.20215   1
   3   4  10 25.6747 2.61714   1
   3   4  11 14.0436 2.20963   1
   3   4  12 3.35203 1.54514   1
   3   4  13 6.93556 1.36333   1
   3   4  14    0.00 2.72018   1
   3   4  15 7.98829 12.0355   1
  -3  -5   0  6.7329  6.8888   1
   3   5   0-2.51804 12.0788   1
   3   5   0 0.52976  0.9854   1
  -3  -5  -1  1.5554 6.72493   1
  -3  -5  -1-16.8828 10.3991   1
   3   5   1-15.4002 14.5228   1
   3   5   1 3.02574 1.03913   1
  -3  -5  -2 35.4978 10.4891   1
  -3  -5  -2 41.8685 7.59569   1
   3   5   2 93.0404 18.9956   1
   3   5   2 69.2351 4.38589   1
   3   5   3 2.07078 1.39775   1
  -3  -5  -3 0.18338   8.632   1
  -3  -5  -3 -4.1717 7.03482   1
  -3  -5  -4 14.1065 8.39412   1
   3   5   4 33.0775 6.33725   1
  -3  -5  -5 3.98048 8.18851   1
   3   5   5  24.701 2.22976   1
   3   5   6 191.115 11.5619   1
  -3  -5  -6 84.1737 10.8045   1
   3   5   7 59.7971 4.26723   1
   3   5   8 37.6546 3.16715   1
   3   5   9  18.403 2.34557   1
   3   5  10 4.17364 1.36051   1
   3   5  11    0.00 1.42708   1
   3   5  12 9.20798 1.50263   1
   3   5  13 57.3005 22.2198   1
   3   5  14 4.10863 2.87989   1
  -3  -6   0 15.3386  7.2029   1
   3   6   0 25.1211 14.7954   1
   3   6   0 29.6799  2.5024   1
  -3  -6  -1-10.2515 6.88755   1
   3   6   1 -13.517 15.8574   1
   3   6   1 0.91506 1.09837   1
  -3  -6  -2 10.4072  7.1329   1
   3   6   2 19.6184 20.4838   1
   3   6   2 11.5569 1.91389   1
   3   6   3 13.6795 1.65413   1
  -3  -6  -3-4.00601 7.27679   1
   3   6   4 167.782 10.1621   1
   3   6   5 27.1603 2.55203   1
   3   6   6 18.2865 2.26803   1
   3   6   7 79.2846 5.35777   1
   3   6   8 20.9636 2.48384   1
   3   6   9 5.44331 1.63578   1
   3   6  10 15.3544 2.42551   1
   3   6  11 63.7813 4.54012   1
   3   6  12 7.83684  1.5713   1
   3   6  13  3.2258 1.44279   1
   3   6  14 5.58064 2.86472   1
   3   7   0 103.019 6.52077   1
  -3  -7   0 50.3316 8.94488   1
   3   7   0 56.4125 17.4055   1
  -3  -7  -1-4.36769 7.52557   1
   3   7   1 28.9834 19.0156   1
   3   7   1 2.43366 1.29585   1
  -3  -7  -2-3.17106 7.69896   1
   3   7   2 6.07925 1.35182   1
   3   7   3 9.36289 1.50012   1
  -3  -7  -3 2.87765 8.23196   1
   3   7   4 19.6296 2.23419   1
   3   7   5 344.357 20.3065   1
   3   7   6  9.1409 1.55784   1
   3   7   7 48.5455 3.66181   1
   3   7   8 7.11109 1.63067   1
   3   7   9 1.41312 1.36496   1
   3   7  10 20.5062 2.52019   1
   3   7  11 0.77508  1.3538   1
   3   7  12 0.25965 1.52718   1
   3   7  13 6.99541 3.03699   1
  -3  -8   0-0.14404 8.43217   1
   3   8   0 26.3348  19.093   1
  -3  -8  -1 2.37121 8.50833   1
   3   8   1 24.8588 22.0706   1
   3   8   2 27.4186 27.2558   1
  -3  -8  -2 44.2456 9.47573   1
   3   8   2 37.4732 3.21076   1
   3   8   3 29.4877 2.75518   1
  -3  -8  -3 50.1448 10.6169   1
   3   8   4 3.72738 1.24756   1
   3   8   5 1.06948 1.24532   1
   3   8   6 15.5243  2.1332   1
   3   8   7 3.62163 1.72506   1
   3   8   8 15.8302 2.26461   1
   3   8   9 7.64135 1.53923   1
   3   8  10 4.81706 1.40071   1
   3   8  11 25.1491 2.62566   1
   3   8  12 3.76162 3.05196   1
   3   9   0 51.8988 8.42674   1
  -3  -9   0 0.00703 10.2512   1
   3   9   0 -16.089 31.0947   1
   3   9   1  21.856 7.17609   1
  -3  -9  -1 27.3496 10.7266   1
  -3  -9  -2 65.8166 11.7742   1
   3   9   2 60.1067 9.80089   1
   3   9   3  38.057 3.64318   1
  -3  -9  -3 24.1313 13.5139   1
   3   9   4  15.766  2.4599   1
   3   9   5  25.158 2.51775   1
   3   9   6 8.15485 1.45863   1
   3   9   7 63.2827 4.37651   1
   3   9   8 7.70184 1.42693   1
   3   9   9 24.1685 2.45293   1
   3   9  10 22.7652 8.47905   1
   3  10   0  19.681  6.3875   1
   3  10   1 54.7122 9.51573   1
   3  11   0 18.1612 2.68116   1
   3  11   1 2.22831 1.86915   1
   4  -5   1 18.1538 1.88079   1
   4  -5   2 2.55626   0.998   1
   4  -5   3  18.882 1.85948   1
   4  -4   1 50.5204 3.00047   1
   4  -4   2 0.19906 0.92905   1
   4  -4   3 3.59262 0.95941   1
   4  -4   5 1.70565 0.75941   1
   4  -4   6 1.50123  0.8653   1
   4  -3   1 0.91834 0.98386   1
   4  -3   2  17.017   1.774   1
   4  -3   3 0.58657 0.92029   1
   4  -3   4  0.1446 0.85012   1
   4  -3   5 34.9173 2.33755   1
   4  -3   6 218.065 10.5702   1
   4  -3   7 1.07284 0.76784   1
   4  -3   8 0.18907 0.61096   1
   4  -2   1 9.83259 1.34695   1
   4  -2   2 0.95694 1.00486   1
   4  -2   3    0.00 0.91534   1
   4  -2   4 1.54141 0.99018   1
   4  -2   5 34.2934 2.20717   1
   4  -2   6 1.14703 0.90407   1
   4  -2   7 135.209 6.83414   1
   4  -2   8 64.5687 4.52277   1
   4  -2   9 5.12059 0.93567   1
  -4   1  -1-21.8091 18.6023   1
   4  -1   1 9.69149 1.44115   1
  -4   1  -2 22.5559 16.2851   1
   4  -1   2 34.5605 2.56967   1
   4  -1   3  25.276 2.23225   1
   4  -1   4 52.7351 3.24518   1
   4  -1   5 5.45724 1.12952   1
   4  -1   6 5.37697 1.09457   1
   4  -1   7 0.86329 1.00463   1
   4  -1   8 1.80573  0.9587   1
   4  -1   9 34.1674  2.5156   1
   4   0   0  5.6186 1.44128   1
  -4   0   0-26.5647 24.3382   1
  -4   0  -1  26.728 19.8309   1
   4   0   1 41.0927 2.97514   1
  -4   0  -2 -14.724  16.995   1
   4   0   2 29.3074 2.48813   1
   4   0   3    0.00 1.18765   1
  -4   0  -3-5.87095 16.0036   1
   4   0   4 11.8204 1.65254   1
   4   0   5 19.8282 1.95053   1
   4   0   6 16.2392  1.6658   1
   4   0   7 0.55059 1.07545   1
   4   0   8 1.16752 1.06426   1
   4   0   9 20.8617 2.19883   1
   4   0  10 25.7107 2.38808   1
   4   1   0 105.072 5.75931   1
   4   1   1 4.25967 1.39573   1
   4   1   2 6.61024 2.60034   1
   4   1   3 3.22996 1.31536   1
  -4  -1  -3-21.4129  17.366   1
  -4  -1  -4 -6.0992 16.3054   1
   4   1   4 1.31198 1.29472   1
   4   1   5 2.11298 1.25974   1
   4   1   6 1.23891 1.19124   1
   4   1   7 1.34507 4.26631   1
   4   1   8 97.7808 6.72246   1
   4   1   9 1.25199 3.25778   1
   4   1  10 0.67905  1.2127   1
   4   2   0 25.2458 2.66145   1
   4   2   1  11.242 1.66308   1
  -4  -2  -2  6.8581 28.5804   1
   4   2   2 51.9767 3.53498   1
   4   2   3  1.3542 1.29743   1
  -4  -2  -3 16.2315 20.5715   1
  -4  -2  -4 32.3563 18.4031   1
   4   2   4 0.08895  1.2993   1
   4   2   5 3.16584 1.33901   1
   4   2   6 35.0535 2.86706   1
   4   2   7 2.50211 4.57146   1
   4   2   8 12.1665 1.99634   1
   4   3   0 2.41993 1.54099   1
   4   3   1 32.0028 2.88201   1
   4   3   2  9.3338 1.64746   1
   4   3   3 0.67372 1.34367   1
   4   3   4 8.31277 1.55539   1
   4   3   5 15.4935 2.10508   1
   4   3   6 1.23554  1.5917   1
   4   3   7 6.34231 5.09123   1
   4   3   8    0.00 4.30824   1
   4   3   9 4.12389 4.15949   1
   4   3  10 4.73586 3.61374   1
   4   4   0 1.21196 1.49748   1
   4   4   1 0.31004 1.39227   1
   4   4   2 13.8121  1.8509   1
   4   4   3 6.79421 1.59639   1
   4   4   4 46.1744 3.45551   1
   4   4   5 10.8852  2.0371   1
   4   4   7 2.54679 7.22234   1
   4   4   8    0.00 5.16177   1
   4   4   9 0.83733  4.0465   1
   4   5   0 2.20107 1.56514   1
   4   5   1 21.2976 2.40471   1
   4   5   2 120.352 6.48322   1
   4   5   3  0.3642 1.63496   1
   4   5   4 3.07839 3.42532   1
   4   5   6 39.8811 3.23325   1
   4   5   7 10.2055 1.74902   1
   4   5   8    0.00 5.86342   1
   4   5   9 6.31836 4.82896   1
   4   6   0 10.7983 1.86773   1
   4   6   1 1.34108 3.08821   1
   4   6   2 10.7981 3.48145   1
   4   6   3 299.851 21.9622   1
   4   7   0 0.65505 2.82116   1
   4   7   1 4.12443 3.51672   1
   4   7   2 2.65658 3.25884   1
   0   0   0    0.00    0.00   1
;
_shelx_hkl_checksum              84375
_shelx_res_file
;
TITL is1409 in P-1
CELL 1.54178   3.8301  11.7321  16.9034   87.976   87.124   84.077
ZERR    2.00   0.0002   0.0005   0.0007    0.002    0.002    0.003
LATT 1
SFAC C H CL O N
UNIT 30 22 4 8 6
TEMP -153
SIZE 0.10 0.02 0.02
L.S. 20
ACTA 130
LIST 4
FMAP 2
PLAN -10
BOND $H
SHEL 5.8 0
OMIT 1 -13 1
OMIT 2 -10 4
WGHT    0.144400
FVAR       0.42862
CL1   3    0.937004    0.518826    0.362506    11.00000    0.03462    0.01222 =
         0.02877   -0.00140   -0.00384   -0.00096
CL2   3    0.186842    0.890278   -0.071230    11.00000    0.02909    0.02076 =
         0.02440    0.00059   -0.00418   -0.00019
O1    4    1.408544    0.895244    0.571908    11.00000    0.04255    0.01786 =
         0.02973   -0.00595   -0.00602   -0.00297
O2    4    1.445767    0.711921    0.596766    11.00000    0.05870    0.02180 =
         0.03047    0.00451   -0.01726    0.00008
O3    4    0.668728    0.907368    0.209444    11.00000    0.03429    0.01072 =
         0.02690   -0.00184   -0.00749    0.00195
O4    4    0.505504    0.563254    0.192041    11.00000    0.04298    0.01407 =
         0.02714    0.00277   -0.00628   -0.00729
AFIX  83
H4    2    0.450023    0.498439    0.180995    11.00000   -1.50000
AFIX   0
N1    5    1.368074    0.795471    0.554133    11.00000    0.02193    0.02277 =
         0.02569   -0.00162   -0.00196   -0.00252
N2    5    0.771317    0.726747    0.264965    11.00000    0.02219    0.00794 =
         0.02365   -0.00399   -0.00026    0.00562
AFIX  43
H2    2    0.750339    0.654151    0.256804    11.00000   -1.20000
AFIX   0
N3    5    0.278582    0.345797    0.189336    11.00000    0.03805    0.02312 =
         0.03577    0.00113   -0.00110   -0.00089
C1    1    0.923125    0.749417    0.334913    11.00000    0.01510    0.01617 =
         0.02437   -0.00031   -0.00006    0.00236
C2    1    1.012758    0.656056    0.387112    11.00000    0.01662    0.01458 =
         0.02552   -0.00466    0.00209    0.00078
C3    1    1.160564    0.670495    0.458464    11.00000    0.02341    0.01882 =
         0.02334    0.00199    0.00101    0.00155
AFIX  43
H3    2    1.222943    0.606921    0.493097    11.00000   -1.20000
AFIX   0
C4    1    1.214892    0.781115    0.477859    11.00000    0.01762    0.01940 =
         0.01973   -0.00228    0.00026    0.00160
C5    1    1.136353    0.873923    0.428667    11.00000    0.01766    0.01355 =
         0.03354   -0.00456    0.00181    0.00266
AFIX  43
H5    2    1.181866    0.948221    0.443319    11.00000   -1.20000
AFIX   0
C6    1    0.988631    0.858377    0.356705    11.00000    0.02167    0.01427 =
         0.02369   -0.00050    0.00486    0.00239
AFIX  43
H6    2    0.932060    0.922573    0.322192    11.00000   -1.20000
AFIX   0
C7    1    0.649639    0.803724    0.206837    11.00000    0.01652    0.01596 =
         0.02389    0.00258    0.00088    0.00471
C8    1    0.494696    0.753533    0.137977    11.00000    0.01635    0.01146 =
         0.02346   -0.00102    0.00134    0.00400
C9    1    0.417470    0.829972    0.074135    11.00000    0.01928    0.01271 =
         0.02518    0.00069    0.00084    0.00117
AFIX  43
H9    2    0.460507    0.907966    0.077210    11.00000   -1.20000
AFIX   0
C10   1    0.279686    0.792957    0.006966    11.00000    0.01580    0.01722 =
         0.02380    0.00032    0.00130    0.00292
C11   1    0.212789    0.679994    0.000808    11.00000    0.01690    0.02098 =
         0.02441   -0.00503   -0.00128    0.00031
AFIX  43
H11   2    0.117958    0.655356   -0.045795    11.00000   -1.20000
AFIX   0
C12   1    0.285664    0.603437    0.063312    11.00000    0.02612    0.01462 =
         0.02833   -0.00787    0.00098   -0.00337
AFIX  43
H12   2    0.237132    0.526021    0.059873    11.00000   -1.20000
AFIX   0
C13   1    0.429286    0.638721    0.131130    11.00000    0.01767    0.01580 =
         0.02627    0.00085    0.00237    0.00021
C14   1    0.218466    0.259950    0.216824    11.00000    0.02606    0.02031 =
         0.02693   -0.00772   -0.00118    0.00589
C15   1    0.148497    0.149213    0.251915    11.00000    0.02740    0.02157 =
         0.03397    0.00049   -0.00336   -0.00134
AFIX 137
H15A  2    0.275169    0.087993    0.220612    11.00000   -1.50000
H15B  2   -0.104320    0.142092    0.252496    11.00000   -1.50000
H15C  2    0.227472    0.142899    0.306296    11.00000   -1.50000
AFIX   0
HKLF 4
REM  is1409 in P-1
REM R1 =  0.0818 for    1690 Fo > 4sig(Fo)  and  0.1216 for all    2571 data
REM    218 parameters refined using      0 restraints
END
WGHT      0.1444      0.0000
REM Highest difference peak  1.181,  deepest hole -0.707,  1-sigma level  0.152
Q1    1   0.4483  0.9002 -0.0838  11.00000  0.05    1.18
Q2    1  -0.1136  0.8803 -0.0619  11.00000  0.05    1.10
Q3    1   0.6928  0.5074  0.3763  11.00000  0.05    1.01
Q4    1   1.1922  0.5294  0.3508  11.00000  0.05    0.96
Q5    1   1.2319  0.7022  0.6017  11.00000  0.05    0.61
Q6    1   0.3666  0.9056  0.2164  11.00000  0.05    0.60
Q7    1   1.0605  0.8935  0.5728  11.00000  0.05    0.54
Q8    1   0.9925  0.9278  0.2145  11.00000  0.05    0.52
Q9    1   0.8194  0.7766  0.0199  11.00000  0.05    0.49
Q10   1   1.6340  0.8113  0.5399  11.00000  0.05    0.48
;
_shelx_res_checksum              50137
_shelxl_version_number           .2013
loop_
_space_group_symop_operation_xyz
'x, y, z'
'-x, -y, -z'
loop_
_atom_site_type_symbol
_atom_site_label
_atom_site_fract_x
_atom_site_fract_y
_atom_site_fract_z
_atom_site_U_iso_or_equiv
_atom_site_adp_type
_atom_site_calc_flag
_atom_site_occupancy
Cl Cl1 0.9370(3) 0.51883(10) 0.36251(8) 0.0252(4) Uani d 1
Cl Cl2 0.1868(3) 0.89028(11) -0.07123(7) 0.0248(4) Uani d 1
O O1 1.4085(9) 0.8952(3) 0.5719(2) 0.0298(9) Uani d 1
O O2 1.4458(10) 0.7119(3) 0.5968(2) 0.0369(10) Uani d 1
O O3 0.6687(9) 0.9074(3) 0.2094(2) 0.0240(8) Uani d 1
O O4 0.5055(9) 0.5633(3) 0.1920(2) 0.0277(9) Uani d 1
H H4 0.4500 0.4984 0.1810 0.042 Uiso calc 1
N N1 1.3681(10) 0.7955(4) 0.5541(3) 0.0234(10) Uani d 1
N N2 0.7713(9) 0.7267(3) 0.2650(2) 0.0184(9) Uani d 1
H H2 0.7503 0.6542 0.2568 0.022 Uiso calc 1
N N3 0.2786(12) 0.3458(4) 0.1893(3) 0.0325(11) Uani d 1
C C1 0.9231(11) 0.7494(4) 0.3349(3) 0.0189(11) Uani d 1
C C2 1.0128(12) 0.6561(4) 0.3871(3) 0.0191(11) Uani d 1
C C3 1.1606(12) 0.6705(5) 0.4585(3) 0.0222(11) Uani d 1
H H3 1.2229 0.6069 0.4931 0.027 Uiso calc 1
C C4 1.2149(11) 0.7811(4) 0.4779(3) 0.0192(11) Uani d 1
C C5 1.1364(11) 0.8739(4) 0.4287(3) 0.0219(11) Uani d 1
H H5 1.1819 0.9482 0.4433 0.026 Uiso calc 1
C C6 0.9886(12) 0.8584(4) 0.3567(3) 0.0204(11) Uani d 1
H H6 0.9321 0.9226 0.3222 0.024 Uiso calc 1
C C7 0.6496(11) 0.8037(4) 0.2068(3) 0.0194(11) Uani d 1
C C8 0.4947(11) 0.7535(4) 0.1380(3) 0.0175(10) Uani d 1
C C9 0.4175(11) 0.8300(4) 0.0741(3) 0.0193(11) Uani d 1
H H9 0.4605 0.9080 0.0772 0.023 Uiso calc 1
C C10 0.2797(11) 0.7930(4) 0.0070(3) 0.0194(11) Uani d 1
C C11 0.2128(11) 0.6800(4) 0.0008(3) 0.0208(11) Uani d 1
H H11 0.1180 0.6554 -0.0458 0.025 Uiso calc 1
C C12 0.2857(12) 0.6034(4) 0.0633(3) 0.0228(12) Uani d 1
H H12 0.2371 0.5260 0.0599 0.027 Uiso calc 1
C C13 0.4293(11) 0.6387(4) 0.1311(3) 0.0202(11) Uani d 1
C C14 0.2185(13) 0.2599(5) 0.2168(3) 0.0248(12) Uani d 1
C C15 0.1485(13) 0.1492(5) 0.2519(3) 0.0277(12) Uani d 1
H H15A 0.2752 0.0880 0.2206 0.042 Uiso calc 1
H H15B -0.1043 0.1421 0.2525 0.042 Uiso calc 1
H H15C 0.2275 0.1429 0.3063 0.042 Uiso calc 1
loop_
_atom_site_aniso_label
_atom_site_aniso_U_11
_atom_site_aniso_U_22
_atom_site_aniso_U_33
_atom_site_aniso_U_12
_atom_site_aniso_U_13
_atom_site_aniso_U_23
Cl1 0.0346(7) 0.0122(7) 0.0288(7) -0.0010(5) -0.0038(5) -0.0014(5)
Cl2 0.0291(6) 0.0208(7) 0.0244(8) -0.0002(5) -0.0042(5) 0.0006(5)
O1 0.043(2) 0.018(2) 0.030(2) -0.0030(16) -0.0060(17) -0.0059(16)
O2 0.059(3) 0.022(2) 0.030(2) 0.0001(19) -0.0173(19) 0.0045(18)
O3 0.0343(19) 0.0107(19) 0.027(2) 0.0020(15) -0.0075(15) -0.0018(15)
O4 0.043(2) 0.014(2) 0.027(2) -0.0073(16) -0.0063(16) 0.0028(15)
N1 0.022(2) 0.023(3) 0.026(2) -0.0025(18) -0.0020(17) -0.0016(19)
N2 0.022(2) 0.008(2) 0.024(2) 0.0056(16) -0.0003(17) -0.0040(16)
N3 0.038(3) 0.023(3) 0.036(3) -0.001(2) -0.001(2) 0.001(2)
C1 0.015(2) 0.016(3) 0.024(3) 0.0024(19) -0.0001(19) 0.000(2)
C2 0.017(2) 0.015(3) 0.026(3) 0.0008(19) 0.0021(19) -0.005(2)
C3 0.023(2) 0.019(3) 0.023(3) 0.002(2) 0.001(2) 0.002(2)
C4 0.018(2) 0.019(3) 0.020(3) 0.0016(19) 0.0003(19) -0.002(2)
C5 0.018(2) 0.014(3) 0.034(3) 0.0027(19) 0.002(2) -0.005(2)
C6 0.022(2) 0.014(3) 0.024(3) 0.002(2) 0.005(2) 0.000(2)
C7 0.017(2) 0.016(3) 0.024(3) 0.0047(19) 0.0009(19) 0.003(2)
C8 0.016(2) 0.011(3) 0.023(3) 0.0040(18) 0.0013(18) -0.001(2)
C9 0.019(2) 0.013(3) 0.025(3) 0.0012(19) 0.0008(19) 0.001(2)
C10 0.016(2) 0.017(3) 0.024(3) 0.0029(19) 0.0013(18) 0.000(2)
C11 0.017(2) 0.021(3) 0.024(3) 0.000(2) -0.0013(19) -0.005(2)
C12 0.026(3) 0.015(3) 0.028(3) -0.003(2) 0.001(2) -0.008(2)
C13 0.018(2) 0.016(3) 0.026(3) 0.0002(19) 0.002(2) 0.001(2)
C14 0.026(2) 0.020(3) 0.027(3) 0.006(2) -0.001(2) -0.008(2)
C15 0.027(3) 0.022(3) 0.034(3) -0.001(2) -0.003(2) 0.000(2)
loop_
_atom_type_symbol
_atom_type_description
_atom_type_scat_dispersion_real
_atom_type_scat_dispersion_imag
_atom_type_scat_source
C C 0.0181 0.0091 'International Tables Vol C Tables 4.2.6.8 and 6.1.1.4'
H H 0.0000 0.0000 'International Tables Vol C Tables 4.2.6.8 and 6.1.1.4'
Cl Cl 0.3639 0.7018 'International Tables Vol C Tables 4.2.6.8 and 6.1.1.4'
O O 0.0492 0.0322 'International Tables Vol C Tables 4.2.6.8 and 6.1.1.4'
N N 0.0311 0.0180 'International Tables Vol C Tables 4.2.6.8 and 6.1.1.4'
loop_
_geom_angle_atom_site_label_1
_geom_angle_atom_site_label_2
_geom_angle_atom_site_label_3
_geom_angle
C13 O4 H4 109.5
O2 N1 O1 123.4(4)
O2 N1 C4 119.8(4)
O1 N1 C4 116.8(4)
C7 N2 C1 128.1(4)
C7 N2 H2 116.0
C1 N2 H2 116.0
N2 C1 C6 124.2(5)
N2 C1 C2 117.5(5)
C6 C1 C2 118.3(5)
C3 C2 C1 121.6(5)
C3 C2 Cl1 118.4(4)
C1 C2 Cl1 120.0(4)
C2 C3 C4 117.7(5)
C2 C3 H3 121.1
C4 C3 H3 121.1
C5 C4 C3 122.6(5)
C5 C4 N1 120.1(5)
C3 C4 N1 117.2(5)
C4 C5 C6 119.2(5)
C4 C5 H5 120.4
C6 C5 H5 120.4
C5 C6 C1 120.5(5)
C5 C6 H6 119.7
C1 C6 H6 119.7
O3 C7 N2 123.1(4)
O3 C7 C8 121.0(4)
N2 C7 C8 115.9(4)
C9 C8 C13 118.1(4)
C9 C8 C7 115.4(4)
C13 C8 C7 126.4(5)
C10 C9 C8 120.6(5)
C10 C9 H9 119.7
C8 C9 H9 119.7
C9 C10 C11 121.1(5)
C9 C10 Cl2 119.3(4)
C11 C10 Cl2 119.6(4)
C12 C11 C10 119.2(5)
C12 C11 H11 120.4
C10 C11 H11 120.4
C11 C12 C13 120.6(5)
C11 C12 H12 119.7
C13 C12 H12 119.7
O4 C13 C12 120.6(5)
O4 C13 C8 118.9(4)
C12 C13 C8 120.4(5)
N3 C14 C15 178.9(6)
C14 C15 H15A 109.5
C14 C15 H15B 109.5
H15A C15 H15B 109.5
C14 C15 H15C 109.5
H15A C15 H15C 109.5
H15B C15 H15C 109.5
loop_
_geom_bond_atom_site_label_1
_geom_bond_atom_site_label_2
_geom_bond_distance
Cl1 C2 1.734(5)
Cl2 C10 1.742(5)
O1 N1 1.246(5)
O2 N1 1.217(5)
O3 C7 1.228(6)
O4 C13 1.357(6)
O4 H4 0.8400
N1 C4 1.465(6)
N2 C7 1.376(6)
N2 C1 1.389(6)
N2 H2 0.8800
N3 C14 1.135(7)
C1 C6 1.393(7)
C1 C2 1.407(7)
C2 C3 1.381(7)
C3 C4 1.388(7)
C3 H3 0.9500
C4 C5 1.364(7)
C5 C6 1.392(7)
C5 H5 0.9500
C6 H6 0.9500
C7 C8 1.498(7)
C8 C9 1.402(7)
C8 C13 1.405(6)
C9 C10 1.378(7)
C9 H9 0.9500
C10 C11 1.384(7)
C11 C12 1.383(7)
C11 H11 0.9500
C12 C13 1.390(7)
C12 H12 0.9500
C14 C15 1.454(7)
C15 H15A 0.9800
C15 H15B 0.9800
C15 H15C 0.9800

_cod_database_fobs_code 2019940
